0:0
     RDKit          3D

 62 65  0  0  0  0  0  0  0  0999 V2000
   51.0550   32.2660   50.0650 O   0  0  0  0  0  0  0  0  0  0  0  0
   51.2770   32.3280   51.3030 C   0  0  0  0  0  0  0  0  0  0  0  0
   50.6400   33.2960   52.0680 O   0  0  0  0  0  0  0  0  0  0  0  0
   52.1930   31.3390   51.9540 C   0  0  0  0  0  0  0  0  0  0  0  0
   53.3280   30.9000   51.0150 C   0  0  0  0  0  0  0  0  0  0  0  0
   54.3810   29.9910   51.6770 C   0  0  0  0  0  0  0  0  0  0  0  0
   54.9640   30.6000   52.9630 C   0  0  0  0  0  0  0  0  0  0  0  0
   56.3750   31.1840   52.7600 C   0  0  0  0  0  0  0  0  0  0  0  0
   57.1640   30.5460   51.5980 C   0  0  0  0  0  0  0  0  0  0  0  0
   58.1770   31.4890   50.9820 C   0  0  0  0  0  0  0  0  0  0  0  0
   58.3680   32.7390   51.6010 C   0  0  0  0  0  0  0  0  0  0  0  0
   59.2600   33.6700   51.0730 C   0  0  0  0  0  0  0  0  0  0  0  0
   59.9760   33.3710   49.9180 C   0  0  0  0  0  0  0  0  0  0  0  0
   59.8070   32.1380   49.2880 C   0  0  0  0  0  0  0  0  0  0  0  0
   58.9100   31.1800   49.8020 C   0  0  0  0  0  0  0  0  0  0  0  0
   58.7900   29.8900   49.1670 N   0  0  0  0  0  0  0  0  0  0  0  0
   59.5650   29.4800   47.6690 S   0  0  0  0  0  0  0  0  0  0  0  0
   60.1380   28.0960   47.7870 O   0  0  0  0  0  0  0  0  0  0  0  0
   60.6840   30.4540   47.4300 O   0  0  0  0  0  0  0  0  0  0  0  0
   58.4140   29.5760   46.3220 C   0  0  0  0  0  0  0  0  0  0  0  0
   58.3570   30.7680   45.5800 C   0  0  0  0  0  0  0  0  0  0  0  0
   57.4880   30.8960   44.4970 C   0  0  0  0  0  0  0  0  0  0  0  0
   56.6660   29.8330   44.1330 C   0  0  0  0  0  0  0  0  0  0  0  0
   56.7110   28.6380   44.8510 C   0  0  0  0  0  0  0  0  0  0  0  0
   57.5820   28.4870   45.9470 C   0  0  0  0  0  0  0  0  0  0  0  0
   57.5540   27.1720   46.6930 C   0  0  0  0  0  0  0  0  0  0  0  0
   56.4730   26.2870   46.1470 C   0  0  0  0  0  0  0  0  0  0  0  0
   55.1480   26.5390   46.2700 N   0  0  0  0  0  0  0  0  0  0  0  0
   54.4630   25.6000   45.6250 N   0  0  0  0  0  0  0  0  0  0  0  0
   55.3570   24.7540   45.0840 C   0  0  0  0  0  0  0  0  0  0  0  0
   55.1030   23.6260   44.3090 C   0  0  0  0  0  0  0  0  0  0  0  0
   56.2090   22.8940   43.8360 C   0  0  0  0  0  0  0  0  0  0  0  0
   57.5260   23.3070   44.1450 C   0  0  0  0  0  0  0  0  0  0  0  0
   57.7490   24.4530   44.9310 C   0  0  0  0  0  0  0  0  0  0  0  0
   56.6290   25.1510   45.3830 C   0  0  0  0  0  0  0  0  0  0  0  0
   52.6325   31.7992   52.8513 H   0  0  0  0  0  0  0  0  0  0  0  0
   51.6022   30.4478   52.2124 H   0  0  0  0  0  0  0  0  0  0  0  0
   52.8841   30.3542   50.1694 H   0  0  0  0  0  0  0  0  0  0  0  0
   53.8523   31.8157   50.7041 H   0  0  0  0  0  0  0  0  0  0  0  0
   53.9095   29.0287   51.9253 H   0  0  0  0  0  0  0  0  0  0  0  0
   55.2085   29.8654   50.9632 H   0  0  0  0  0  0  0  0  0  0  0  0
   54.2964   31.4046   53.3050 H   0  0  0  0  0  0  0  0  0  0  0  0
   55.0433   29.7925   53.7057 H   0  0  0  0  0  0  0  0  0  0  0  0
   56.2767   32.2611   52.5594 H   0  0  0  0  0  0  0  0  0  0  0  0
   56.9399   30.9707   53.6794 H   0  0  0  0  0  0  0  0  0  0  0  0
   57.6951   29.6613   51.9791 H   0  0  0  0  0  0  0  0  0  0  0  0
   56.4392   30.2835   50.8133 H   0  0  0  0  0  0  0  0  0  0  0  0
   57.8053   32.9839   52.5139 H   0  0  0  0  0  0  0  0  0  0  0  0
   59.3983   34.6418   51.5694 H   0  0  0  0  0  0  0  0  0  0  0  0
   60.6771   34.1088   49.5007 H   0  0  0  0  0  0  0  0  0  0  0  0
   60.3814   31.9103   48.3779 H   0  0  0  0  0  0  0  0  0  0  0  0
   58.2580   29.1220   49.6260 H   0  0  0  0  0  0  0  0  0  0  0  0
   59.0065   31.6114   45.8572 H   0  0  0  0  0  0  0  0  0  0  0  0
   57.4519   31.8378   43.9298 H   0  0  0  0  0  0  0  0  0  0  0  0
   55.9807   29.9355   43.2787 H   0  0  0  0  0  0  0  0  0  0  0  0
   56.0578   27.8031   44.5573 H   0  0  0  0  0  0  0  0  0  0  0  0
   58.5260   26.6697   46.5797 H   0  0  0  0  0  0  0  0  0  0  0  0
   57.3530   27.3680   47.7566 H   0  0  0  0  0  0  0  0  0  0  0  0
   54.0737   23.3171   44.0741 H   0  0  0  0  0  0  0  0  0  0  0  0
   56.0477   21.9954   43.2224 H   0  0  0  0  0  0  0  0  0  0  0  0
   58.3822   22.7283   43.7682 H   0  0  0  0  0  0  0  0  0  0  0  0
   58.7677   24.7856   45.1794 H   0  0  0  0  0  0  0  0  0  0  0  0
  1  2  2  0
  2  3  1  0
  2  4  1  0
  4  5  1  0
  5  6  1  0
  6  7  1  0
  7  8  1  0
  8  9  1  0
  9 10  1  0
 10 11  2  0
 11 12  1  0
 12 13  2  0
 13 14  1  0
 14 15  2  0
 15 16  1  0
 16 17  1  0
 17 18  2  0
 17 19  2  0
 17 20  1  0
 20 21  2  0
 21 22  1  0
 22 23  2  0
 23 24  1  0
 24 25  2  0
 25 26  1  0
 26 27  1  0
 27 28  1  0
 28 29  1  0
 29 30  2  0
 30 31  1  0
 31 32  2  0
 32 33  1  0
 33 34  2  0
 34 35  1  0
 15 10  1  0
 25 20  1  0
 35 27  2  0
 35 30  1  0
  4 36  1  0
  4 37  1  0
  5 38  1  0
  5 39  1  0
  6 40  1  0
  6 41  1  0
  7 42  1  0
  7 43  1  0
  8 44  1  0
  8 45  1  0
  9 46  1  0
  9 47  1  0
 11 48  1  0
 12 49  1  0
 13 50  1  0
 14 51  1  0
 16 52  1  0
 21 53  1  0
 22 54  1  0
 23 55  1  0
 24 56  1  0
 26 57  1  0
 26 58  1  0
 31 59  1  0
 32 60  1  0
 33 61  1  0
 34 62  1  0
M  CHG  2   3  -1  28  -1
M  END
>  <UniqueID>  (1) 
1

>  <SMILES>  (1) 
O=C([O-])CCCCCCc1ccccc1NS(=O)(=O)c1ccccc1Cc1[n-]nc2ccccc12

>  <Energy>  (1) 
102.20439133790475

>  <Genealogy>  (1) 
O=C([O-])CCCCCCc1ccccc1NS(=O)(=O)c1ccccc1Cc1[n-]nc2ccccc12 (protonated)
O=C([O-])CCCCCCc1ccccc1NS(=O)(=O)c1ccccc1Cc1[n-]nc2ccccc12 (3D coordinates assigned)
O=C([O-])CCCCCCc1ccccc1NS(=O)(=O)c1ccccc1Cc1[n-]nc2ccccc12 (optimized conformer: 102.20439133790475 kcal/mol)

>  <smiles>  (1) 
O=C(O)CCCCCCc1ccccc1NS(=O)(=O)c1ccccc1Cc1[nH]nc2ccccc12

>  <score_type>  (1) 
oracle

>  <origin>  (1) 
adg

>  <m_score__min__energy>  (1) 
-17.25

>  <m_primary>  (1) 
energy

$$$$
1:0
     RDKit          3D

 35 35  0  0  0  0  0  0  0  0999 V2000
   57.7570   22.6030   47.7930 H   0  0  0  0  0  0  0  0  0  0  0  0
   57.6570   22.8510   46.8160 O   0  0  0  0  0  0  0  0  0  0  0  0
   57.4910   24.1740   46.4130 C   0  0  0  0  0  0  0  0  0  0  0  0
   58.6000   24.9100   45.9940 C   0  0  0  0  0  0  0  0  0  0  0  0
   59.5956   24.4424   45.9834 H   0  0  0  0  0  0  0  0  0  0  0  0
   58.4510   26.2380   45.5880 C   0  0  0  0  0  0  0  0  0  0  0  0
   59.3323   26.8071   45.2572 H   0  0  0  0  0  0  0  0  0  0  0  0
   57.1850   26.8580   45.5970 C   0  0  0  0  0  0  0  0  0  0  0  0
   57.0620   28.2760   45.1620 C   0  0  0  0  0  0  0  0  0  0  0  0
   55.9390   28.8460   45.2240 O   0  0  0  0  0  0  0  0  0  0  0  0
   58.1890   28.9580   44.5850 N   0  0  0  0  0  0  0  0  0  0  0  0
   58.8590   29.9750   45.0500 C   0  0  0  0  0  0  0  0  0  0  0  0
   59.9387   30.0063   44.8418 H   0  0  0  0  0  0  0  0  0  0  0  0
   58.2750   31.1120   45.8500 C   0  0  0  0  0  0  0  0  0  0  0  0
   59.0687   31.8366   46.0844 H   0  0  0  0  0  0  0  0  0  0  0  0
   57.8446   30.7126   46.7801 H   0  0  0  0  0  0  0  0  0  0  0  0
   57.2100   31.7870   45.0760 N   0  0  0  0  0  0  0  0  0  0  0  0
   57.3730   31.5270   43.6250 C   0  0  0  0  0  0  0  0  0  0  0  0
   56.3813   31.4233   43.1605 H   0  0  0  0  0  0  0  0  0  0  0  0
   57.9496   30.6003   43.4883 H   0  0  0  0  0  0  0  0  0  0  0  0
   58.1210   32.6820   42.9650 C   0  0  0  0  0  0  0  0  0  0  0  0
   58.5445   33.3359   43.7415 H   0  0  0  0  0  0  0  0  0  0  0  0
   58.9327   32.2831   42.3389 H   0  0  0  0  0  0  0  0  0  0  0  0
   57.4249   33.2595   42.3389 H   0  0  0  0  0  0  0  0  0  0  0  0
   57.1910   33.2390   45.3610 C   0  0  0  0  0  0  0  0  0  0  0  0
   57.5747   33.7849   44.4865 H   0  0  0  0  0  0  0  0  0  0  0  0
   56.1569   33.5466   45.5754 H   0  0  0  0  0  0  0  0  0  0  0  0
   58.0630   33.5560   46.5740 C   0  0  0  0  0  0  0  0  0  0  0  0
   57.4982   33.3507   47.4953 H   0  0  0  0  0  0  0  0  0  0  0  0
   58.9663   32.9287   46.5502 H   0  0  0  0  0  0  0  0  0  0  0  0
   58.3526   34.6169   46.5502 H   0  0  0  0  0  0  0  0  0  0  0  0
   56.0650   26.1000   46.0160 C   0  0  0  0  0  0  0  0  0  0  0  0
   54.7850   26.6450   46.0250 O   0  0  0  0  0  0  0  0  0  0  0  0
   56.2270   24.7700   46.4230 C   0  0  0  0  0  0  0  0  0  0  0  0
   55.3526   24.1899   46.7531 H   0  0  0  0  0  0  0  0  0  0  0  0
  1  2  1  0
  2  3  1  0
  3  4  2  0
  4  5  1  0
  4  6  1  0
  6  7  1  0
  6  8  2  0
  8  9  1  0
  9 10  2  0
  9 11  1  0
 11 12  2  0
 12 13  1  0
 12 14  1  0
 14 15  1  0
 14 16  1  0
 14 17  1  0
 17 18  1  0
 18 19  1  0
 18 20  1  0
 18 21  1  0
 21 22  1  0
 21 23  1  0
 21 24  1  0
 17 25  1  0
 25 26  1  0
 25 27  1  0
 25 28  1  0
 28 29  1  0
 28 30  1  0
 28 31  1  0
  8 32  1  0
 32 33  1  0
 32 34  2  0
 34 35  1  0
 34  3  1  0
M  CHG  1  33  -1
M  END
>  <UniqueID>  (2) 
2

>  <SMILES>  (2) 
CCN(CC)C/C=N\C(=O)c1ccc(O)cc1[O-]

>  <Energy>  (2) 
40.41181461289031

>  <Genealogy>  (2) 
CCN(CC)CC=NC(=O)c1ccc(O)cc1[O-] (protonated)
CCN(CC)C/C=N\C(=O)c1ccc(O)cc1[O-] (cis-trans isomerization)
CCN(CC)C/C=N\C(=O)c1ccc(O)cc1[O-] (3D coordinates assigned)
CCN(CC)C/C=N\C(=O)c1ccc(O)cc1[O-] (optimized conformer: 40.41181461289031 kcal/mol)

>  <smiles>  (2) 
CCN(CC)CC=NC(=O)c1ccc(O)cc1O

>  <score_type>  (2) 
oracle

>  <origin>  (2) 
adg

>  <m_score__min__energy>  (2) 
-10.220000000000001

>  <m_primary>  (2) 
energy

$$$$
2:0
     RDKit          3D

 55 58  0  0  0  0  0  0  0  0999 V2000
   63.8262   33.5860   49.3341 H   0  0  0  0  0  0  0  0  0  0  0  0
   62.9560   33.7310   48.6770 C   0  0  0  0  0  0  0  0  0  0  0  0
   63.0990   33.6130   47.2910 C   0  0  0  0  0  0  0  0  0  0  0  0
   64.0817   33.3713   46.8599 H   0  0  0  0  0  0  0  0  0  0  0  0
   61.9980   33.8010   46.4520 C   0  0  0  0  0  0  0  0  0  0  0  0
   62.1171   33.7039   45.3628 H   0  0  0  0  0  0  0  0  0  0  0  0
   60.7330   34.1150   46.9950 C   0  0  0  0  0  0  0  0  0  0  0  0
   59.5750   34.3440   46.1680 N   0  0  0  0  0  0  0  0  0  0  0  0
   59.7100   34.3460   45.1360 H   0  0  0  0  0  0  0  0  0  0  0  0
   58.1860   34.2940   46.6280 C   0  0  0  0  0  0  0  0  0  0  0  0
   57.9681   35.2041   47.2062 H   0  0  0  0  0  0  0  0  0  0  0  0
   58.0607   33.3953   47.2498 H   0  0  0  0  0  0  0  0  0  0  0  0
   57.2080   34.2050   45.4530 C   0  0  0  0  0  0  0  0  0  0  0  0
   56.6709   35.1604   45.3597 H   0  0  0  0  0  0  0  0  0  0  0  0
   56.5040   33.3823   45.6467 H   0  0  0  0  0  0  0  0  0  0  0  0
   57.9100   33.9290   44.2030 N   0  0  0  0  0  0  0  0  0  0  0  0
   57.8070   32.6880   43.4900 C   0  0  0  0  0  0  0  0  0  0  0  0
   57.7020   32.6920   42.2330 O   0  0  0  0  0  0  0  0  0  0  0  0
   57.8630   31.4040   44.2210 C   0  0  0  0  0  0  0  0  0  0  0  0
   57.3820   30.2270   43.6240 C   0  0  0  0  0  0  0  0  0  0  0  0
   56.9437   30.2661   42.6158 H   0  0  0  0  0  0  0  0  0  0  0  0
   57.4560   29.0070   44.3010 C   0  0  0  0  0  0  0  0  0  0  0  0
   57.0891   28.0904   43.8160 H   0  0  0  0  0  0  0  0  0  0  0  0
   57.9970   28.9420   45.6000 C   0  0  0  0  0  0  0  0  0  0  0  0
   58.0470   27.6540   46.3380 C   0  0  0  0  0  0  0  0  0  0  0  0
   59.1620   27.3090   47.1420 C   0  0  0  0  0  0  0  0  0  0  0  0
   60.0167   27.9979   47.2118 H   0  0  0  0  0  0  0  0  0  0  0  0
   59.1870   26.0890   47.8550 C   0  0  0  0  0  0  0  0  0  0  0  0
   60.0608   25.8366   48.4737 H   0  0  0  0  0  0  0  0  0  0  0  0
   58.1040   25.1950   47.7800 C   0  0  0  0  0  0  0  0  0  0  0  0
   58.1144   24.2427   48.3304 H   0  0  0  0  0  0  0  0  0  0  0  0
   57.0180   25.5550   46.9860 C   0  0  0  0  0  0  0  0  0  0  0  0
   55.8710   24.8790   46.8140 N   0  0  0  0  0  0  0  0  0  0  0  0
   55.1730   25.7000   45.9900 C   0  0  0  0  0  0  0  0  0  0  0  0
   53.9700   25.4100   45.5950 N   0  0  0  0  0  0  0  0  0  0  0  0
   53.5280   24.1360   45.1000 C   0  0  0  0  0  0  0  0  0  0  0  0
   52.4870   23.6170   45.5860 O   0  0  0  0  0  0  0  0  0  0  0  0
   54.2610   23.4470   44.0810 N   0  0  0  0  0  0  0  0  0  0  0  0
   55.6150   22.9460   44.2680 C   0  0  0  0  0  0  0  0  0  0  0  0
   55.6455   21.8735   44.0255 H   0  0  0  0  0  0  0  0  0  0  0  0
   55.9189   23.0950   45.3146 H   0  0  0  0  0  0  0  0  0  0  0  0
   56.5680   23.7000   43.3520 C   0  0  0  0  0  0  0  0  0  0  0  0
   57.2872   24.2690   43.9595 H   0  0  0  0  0  0  0  0  0  0  0  0
   57.1101   22.9837   42.7172 H   0  0  0  0  0  0  0  0  0  0  0  0
   55.9956   24.3924   42.7172 H   0  0  0  0  0  0  0  0  0  0  0  0
   55.8150   26.8480   45.6530 N   0  0  0  0  0  0  0  0  0  0  0  0
   56.9900   26.7280   46.2910 C   0  0  0  0  0  0  0  0  0  0  0  0
   58.4870   30.1190   46.1910 C   0  0  0  0  0  0  0  0  0  0  0  0
   58.9226   30.0815   47.2004 H   0  0  0  0  0  0  0  0  0  0  0  0
   58.4260   31.3370   45.5080 C   0  0  0  0  0  0  0  0  0  0  0  0
   58.8208   32.2488   45.9801 H   0  0  0  0  0  0  0  0  0  0  0  0
   60.5990   34.2160   48.3940 C   0  0  0  0  0  0  0  0  0  0  0  0
   59.6161   34.4402   48.8340 H   0  0  0  0  0  0  0  0  0  0  0  0
   61.7080   34.0330   49.2270 C   0  0  0  0  0  0  0  0  0  0  0  0
   61.5970   34.1271   50.3173 H   0  0  0  0  0  0  0  0  0  0  0  0
  1  2  1  0
  2  3  2  0
  3  4  1  0
  3  5  1  0
  5  6  1  0
  5  7  2  0
  7  8  1  0
  8  9  1  0
  8 10  1  0
 10 11  1  0
 10 12  1  0
 10 13  1  0
 13 14  1  0
 13 15  1  0
 13 16  1  0
 16 17  1  0
 17 18  2  0
 17 19  1  0
 19 20  2  0
 20 21  1  0
 20 22  1  0
 22 23  1  0
 22 24  2  0
 24 25  1  0
 25 26  2  0
 26 27  1  0
 26 28  1  0
 28 29  1  0
 28 30  2  0
 30 31  1  0
 30 32  1  0
 32 33  1  0
 33 34  1  0
 34 35  2  0
 35 36  1  0
 36 37  2  0
 36 38  1  0
 38 39  1  0
 39 40  1  0
 39 41  1  0
 39 42  1  0
 42 43  1  0
 42 44  1  0
 42 45  1  0
 34 46  1  0
 46 47  1  0
 24 48  1  0
 48 49  1  0
 48 50  2  0
 50 51  1  0
  7 52  1  0
 52 53  1  0
 52 54  2  0
 54 55  1  0
 54  2  1  0
 50 19  1  0
 47 25  1  0
 47 32  2  0
M  CHG  4  16  -1  33  -1  38  -1  46  -1
M  END
>  <UniqueID>  (3) 
3

>  <SMILES>  (3) 
CC[N-]C(=O)/N=c1/[n-]c2cccc(-c3ccc(C(=O)[N-]CCNc4ccccc4)cc3)c2[n-]1

>  <Energy>  (3) 
91.35617270226896

>  <Genealogy>  (3) 
CC[N-]C(=O)N=c1[n-]c2cccc(-c3ccc(C(=O)[N-]CCNc4ccccc4)cc3)c2[n-]1 (protonated)
CC[N-]C(=O)/N=c1/[n-]c2cccc(-c3ccc(C(=O)[N-]CCNc4ccccc4)cc3)c2[n-]1 (cis-trans isomerization)
CC[N-]C(=O)/N=c1/[n-]c2cccc(-c3ccc(C(=O)[N-]CCNc4ccccc4)cc3)c2[n-]1 (3D coordinates assigned)
CC[N-]C(=O)/N=c1/[n-]c2cccc(-c3ccc(C(=O)[N-]CCNc4ccccc4)cc3)c2[n-]1 (optimized conformer: 91.35617270226896 kcal/mol)

>  <smiles>  (3) 
CCNC(=O)N=c1[nH]c2cccc(-c3ccc(C(=O)NCCNc4ccccc4)cc3)c2[nH]1

>  <score_type>  (3) 
oracle

>  <origin>  (3) 
adg

>  <m_score__min__energy>  (3) 
-13.85

>  <m_primary>  (3) 
energy

$$$$
3:0
     RDKit          3D

 35 36  0  0  0  0  0  0  0  0999 V2000
   56.4690   19.9420   44.4620 N   0  0  0  0  0  0  0  0  0  0  0  0
   56.7520   21.4780   43.7160 S   0  0  0  0  0  0  0  0  0  0  0  0
   56.2860   21.4160   42.2900 O   0  0  0  0  0  0  0  0  0  0  0  0
   58.2220   21.7950   43.7350 O   0  0  0  0  0  0  0  0  0  0  0  0
   55.8720   22.7000   44.5310 O   0  0  0  0  0  0  0  0  0  0  0  0
   56.3610   23.9740   44.8530 C   0  0  0  0  0  0  0  0  0  0  0  0
   55.8610   24.5980   46.0020 C   0  0  0  0  0  0  0  0  0  0  0  0
   56.3130   25.8660   46.3770 C   0  0  0  0  0  0  0  0  0  0  0  0
   57.2810   26.5290   45.6150 C   0  0  0  0  0  0  0  0  0  0  0  0
   57.6980   27.8040   46.0260 O   0  0  0  0  0  0  0  0  0  0  0  0
   57.1120   29.0140   45.6360 C   0  0  0  0  0  0  0  0  0  0  0  0
   55.9340   29.0410   45.1840 O   0  0  0  0  0  0  0  0  0  0  0  0
   57.8880   30.2180   45.7160 N   0  0  0  0  0  0  0  0  0  0  0  0
   57.4340   31.4980   45.2440 C   0  0  0  0  0  0  0  0  0  0  0  0
   56.4220   31.5690   44.4940 O   0  0  0  0  0  0  0  0  0  0  0  0
   58.1580   32.7440   45.6010 C   0  0  0  0  0  0  0  0  0  0  0  0
   58.4970   33.6730   44.6000 C   0  0  0  0  0  0  0  0  0  0  0  0
   59.1730   34.8530   44.9270 C   0  0  0  0  0  0  0  0  0  0  0  0
   59.5120   35.1210   46.2550 C   0  0  0  0  0  0  0  0  0  0  0  0
   59.1700   34.2130   47.2590 C   0  0  0  0  0  0  0  0  0  0  0  0
   58.4940   33.0310   46.9370 C   0  0  0  0  0  0  0  0  0  0  0  0
   57.7690   25.9170   44.4470 C   0  0  0  0  0  0  0  0  0  0  0  0
   57.3170   24.6480   44.0700 C   0  0  0  0  0  0  0  0  0  0  0  0
   57.3650   19.6590   44.9200 H   0  0  0  0  0  0  0  0  0  0  0  0
   56.2870   19.2480   43.7040 H   0  0  0  0  0  0  0  0  0  0  0  0
   55.1053   24.0855   46.6154 H   0  0  0  0  0  0  0  0  0  0  0  0
   55.9046   26.3465   47.2783 H   0  0  0  0  0  0  0  0  0  0  0  0
   58.8520   30.1340   46.1090 H   0  0  0  0  0  0  0  0  0  0  0  0
   58.2285   33.4698   43.5528 H   0  0  0  0  0  0  0  0  0  0  0  0
   59.4380   35.5710   44.1369 H   0  0  0  0  0  0  0  0  0  0  0  0
   60.0482   36.0470   46.5099 H   0  0  0  0  0  0  0  0  0  0  0  0
   59.4326   34.4274   48.3055 H   0  0  0  0  0  0  0  0  0  0  0  0
   58.2235   32.3217   47.7331 H   0  0  0  0  0  0  0  0  0  0  0  0
   58.5111   26.4396   43.8256 H   0  0  0  0  0  0  0  0  0  0  0  0
   57.7102   24.1750   43.1581 H   0  0  0  0  0  0  0  0  0  0  0  0
  1  2  1  0
  2  3  2  0
  2  4  2  0
  2  5  1  0
  5  6  1  0
  6  7  2  0
  7  8  1  0
  8  9  2  0
  9 10  1  0
 10 11  1  0
 11 12  2  0
 11 13  1  0
 13 14  1  0
 14 15  2  0
 14 16  1  0
 16 17  2  0
 17 18  1  0
 18 19  2  0
 19 20  1  0
 20 21  2  0
  9 22  1  0
 22 23  2  0
 23  6  1  0
 21 16  1  0
  1 24  1  0
  1 25  1  0
  7 26  1  0
  8 27  1  0
 13 28  1  0
 17 29  1  0
 18 30  1  0
 19 31  1  0
 20 32  1  0
 21 33  1  0
 22 34  1  0
 23 35  1  0
M  END
>  <UniqueID>  (4) 
4

>  <SMILES>  (4) 
NS(=O)(=O)Oc1ccc(OC(=O)NC(=O)c2ccccc2)cc1

>  <Energy>  (4) 
40.03677370880173

>  <Genealogy>  (4) 
NS(=O)(=O)Oc1ccc(OC(=O)NC(=O)c2ccccc2)cc1 (3D coordinates assigned)
NS(=O)(=O)Oc1ccc(OC(=O)NC(=O)c2ccccc2)cc1 (optimized conformer: 40.03677370880173 kcal/mol)

>  <smiles>  (4) 
NS(=O)(=O)Oc1ccc(OC(=O)NC(=O)c2ccccc2)cc1

>  <score_type>  (4) 
oracle

>  <origin>  (4) 
adg

>  <m_score__min__energy>  (4) 
-8.5800000000000001

>  <m_primary>  (4) 
energy

$$$$
4:0
     RDKit          3D

 38 40  0  0  0  0  0  0  0  0999 V2000
   60.2210   26.3650   46.4320 C   0  0  0  0  0  0  0  0  0  0  0  0
   59.2260   27.2430   46.9470 O   0  0  0  0  0  0  0  0  0  0  0  0
   58.5520   28.2200   46.1940 C   0  0  0  0  0  0  0  0  0  0  0  0
   57.1830   28.0940   45.8840 C   0  0  0  0  0  0  0  0  0  0  0  0
   56.5220   29.0960   45.1690 C   0  0  0  0  0  0  0  0  0  0  0  0
   55.1710   28.9610   44.8720 O   0  0  0  0  0  0  0  0  0  0  0  0
   57.2160   30.2330   44.7560 C   0  0  0  0  0  0  0  0  0  0  0  0
   58.5730   30.3700   45.0510 C   0  0  0  0  0  0  0  0  0  0  0  0
   59.2570   29.3660   45.7580 C   0  0  0  0  0  0  0  0  0  0  0  0
   60.6930   29.5510   46.0690 C   0  0  0  0  0  0  0  0  0  0  0  0
   61.5740   29.2250   45.2280 O   0  0  0  0  0  0  0  0  0  0  0  0
   61.0790   30.0290   47.3650 N   0  0  0  0  0  0  0  0  0  0  0  0
   61.6810   31.3020   47.6300 C   0  0  0  0  0  0  0  0  0  0  0  0
   62.9950   31.5690   47.2100 C   0  0  0  0  0  0  0  0  0  0  0  0
   63.5630   32.8270   47.4210 C   0  0  0  0  0  0  0  0  0  0  0  0
   62.8240   33.8330   48.0420 C   0  0  0  0  0  0  0  0  0  0  0  0
   61.5130   33.5850   48.4570 C   0  0  0  0  0  0  0  0  0  0  0  0
   60.9310   32.3190   48.2680 C   0  0  0  0  0  0  0  0  0  0  0  0
   59.5350   32.0930   48.7290 C   0  0  0  0  0  0  0  0  0  0  0  0
   59.3190   31.2070   49.5970 O   0  0  0  0  0  0  0  0  0  0  0  0
   58.4230   32.8730   48.2570 N   0  0  0  0  0  0  0  0  0  0  0  0
   58.2870   33.3700   47.0630 C   0  0  0  0  0  0  0  0  0  0  0  0
   57.2940   33.0390   46.2080 N   0  0  0  0  0  0  0  0  0  0  0  0
   57.4150   33.7020   45.0270 C   0  0  0  0  0  0  0  0  0  0  0  0
   58.5030   34.5660   44.9450 C   0  0  0  0  0  0  0  0  0  0  0  0
   59.3380   34.4990   46.4030 S   0  0  0  0  0  0  0  0  0  0  0  0
   60.7587   25.8906   47.2662 H   0  0  0  0  0  0  0  0  0  0  0  0
   59.7424   25.5895   45.8159 H   0  0  0  0  0  0  0  0  0  0  0  0
   60.9309   26.9364   45.8159 H   0  0  0  0  0  0  0  0  0  0  0  0
   56.6304   27.1996   46.2076 H   0  0  0  0  0  0  0  0  0  0  0  0
   56.6930   31.0229   44.1969 H   0  0  0  0  0  0  0  0  0  0  0  0
   59.1125   31.2723   44.7272 H   0  0  0  0  0  0  0  0  0  0  0  0
   63.5800   30.7819   46.7117 H   0  0  0  0  0  0  0  0  0  0  0  0
   64.5954   33.0247   47.0967 H   0  0  0  0  0  0  0  0  0  0  0  0
   63.2737   34.8235   48.2055 H   0  0  0  0  0  0  0  0  0  0  0  0
   60.9314   34.3868   48.9355 H   0  0  0  0  0  0  0  0  0  0  0  0
   56.7054   33.5655   44.1977 H   0  0  0  0  0  0  0  0  0  0  0  0
   58.7705   35.1857   44.0764 H   0  0  0  0  0  0  0  0  0  0  0  0
  1  2  1  0
  2  3  1  0
  3  4  2  0
  4  5  1  0
  5  6  1  0
  5  7  2  0
  7  8  1  0
  8  9  2  0
  9 10  1  0
 10 11  2  0
 10 12  1  0
 12 13  1  0
 13 14  2  0
 14 15  1  0
 15 16  2  0
 16 17  1  0
 17 18  2  0
 18 19  1  0
 19 20  2  0
 19 21  1  0
 21 22  2  3
 22 23  1  0
 23 24  1  0
 24 25  2  0
 25 26  1  0
  9  3  1  0
 18 13  1  0
 26 22  1  0
  1 27  1  0
  1 28  1  0
  1 29  1  0
  4 30  1  0
  7 31  1  0
  8 32  1  0
 14 33  1  0
 15 34  1  0
 16 35  1  0
 17 36  1  0
 24 37  1  0
 25 38  1  0
M  CHG  3   6  -1  12  -1  23  -1
M  END
>  <UniqueID>  (5) 
5

>  <SMILES>  (5) 
COc1cc([O-])ccc1C(=O)[N-]c1ccccc1C(=O)N=c1[n-]ccs1

>  <Energy>  (5) 
83.76664704142853

>  <Genealogy>  (5) 
COc1cc([O-])ccc1C(=O)[N-]c1ccccc1C(=O)N=c1[n-]ccs1 (protonated)
COc1cc([O-])ccc1C(=O)[N-]c1ccccc1C(=O)N=c1[n-]ccs1 (3D coordinates assigned)
COc1cc([O-])ccc1C(=O)[N-]c1ccccc1C(=O)N=c1[n-]ccs1 (optimized conformer: 83.76664704142853 kcal/mol)

>  <smiles>  (5) 
COc1cc(O)ccc1C(=O)Nc1ccccc1C(=O)N=c1[nH]ccs1

>  <score_type>  (5) 
oracle

>  <origin>  (5) 
adg

>  <m_score__min__energy>  (5) 
-12.51

>  <m_primary>  (5) 
energy

$$$$
5:0
     RDKit          3D

 42 44  0  0  0  0  0  0  0  0999 V2000
   59.4090   35.5810   45.1500 C   0  0  0  0  0  0  0  0  0  0  0  0
   58.7050   34.3000   45.4660 C   0  0  0  0  0  0  0  0  0  0  0  0
   57.8540   33.6850   44.6260 N   0  0  0  0  0  0  0  0  0  0  0  0
   57.4600   32.5780   45.2900 C   0  0  0  0  0  0  0  0  0  0  0  0
   56.6240   31.7010   44.8180 N   0  0  0  0  0  0  0  0  0  0  0  0
   56.9650   30.6930   43.8200 C   0  0  0  0  0  0  0  0  0  0  0  0
   57.6770   29.5540   44.4910 C   0  0  0  0  0  0  0  0  0  0  0  0
   59.0750   29.5680   44.6160 C   0  0  0  0  0  0  0  0  0  0  0  0
   59.7400   28.4860   45.1980 C   0  0  0  0  0  0  0  0  0  0  0  0
   59.0180   27.3790   45.6510 C   0  0  0  0  0  0  0  0  0  0  0  0
   57.6230   27.3500   45.5250 C   0  0  0  0  0  0  0  0  0  0  0  0
   56.7070   25.9470   46.0670 S   0  0  0  0  0  0  0  0  0  0  0  0
   55.0240   26.3390   46.1100 N   0  0  0  0  0  0  0  0  0  0  0  0
   56.9270   24.7920   45.1290 O   0  0  0  0  0  0  0  0  0  0  0  0
   57.1650   25.5470   47.4420 O   0  0  0  0  0  0  0  0  0  0  0  0
   56.9560   28.4330   44.9350 C   0  0  0  0  0  0  0  0  0  0  0  0
   58.0180   32.4530   46.5110 N   0  0  0  0  0  0  0  0  0  0  0  0
   58.8040   33.5440   46.6240 C   0  0  0  0  0  0  0  0  0  0  0  0
   59.6450   33.8250   47.8100 C   0  0  0  0  0  0  0  0  0  0  0  0
   59.5810   34.9540   48.3670 O   0  0  0  0  0  0  0  0  0  0  0  0
   60.5640   32.8000   48.3570 C   0  0  0  0  0  0  0  0  0  0  0  0
   60.0930   31.8870   49.3190 C   0  0  0  0  0  0  0  0  0  0  0  0
   60.9460   30.9260   49.8640 C   0  0  0  0  0  0  0  0  0  0  0  0
   62.2800   30.8650   49.4600 C   0  0  0  0  0  0  0  0  0  0  0  0
   62.7650   31.7640   48.5090 C   0  0  0  0  0  0  0  0  0  0  0  0
   61.9190   32.7350   47.9550 C   0  0  0  0  0  0  0  0  0  0  0  0
   62.5810   33.8070   46.7240 Cl  0  0  0  0  0  0  0  0  0  0  0  0
   59.6872   36.0871   46.0862 H   0  0  0  0  0  0  0  0  0  0  0  0
   60.3160   35.3665   44.5657 H   0  0  0  0  0  0  0  0  0  0  0  0
   58.7417   36.2316   44.5657 H   0  0  0  0  0  0  0  0  0  0  0  0
   57.5730   34.0050   43.6730 H   0  0  0  0  0  0  0  0  0  0  0  0
   56.0459   30.3222   43.3428 H   0  0  0  0  0  0  0  0  0  0  0  0
   57.6183   31.1373   43.0546 H   0  0  0  0  0  0  0  0  0  0  0  0
   59.6490   30.4339   44.2544 H   0  0  0  0  0  0  0  0  0  0  0  0
   60.8351   28.5057   45.2999 H   0  0  0  0  0  0  0  0  0  0  0  0
   59.5458   26.5286   46.1074 H   0  0  0  0  0  0  0  0  0  0  0  0
   54.7740   26.7130   45.1670 H   0  0  0  0  0  0  0  0  0  0  0  0
   55.8625   28.4048   44.8192 H   0  0  0  0  0  0  0  0  0  0  0  0
   59.0431   31.9312   49.6443 H   0  0  0  0  0  0  0  0  0  0  0  0
   60.5660   30.2158   50.6131 H   0  0  0  0  0  0  0  0  0  0  0  0
   62.9505   30.1073   49.8916 H   0  0  0  0  0  0  0  0  0  0  0  0
   63.8171   31.7104   48.1923 H   0  0  0  0  0  0  0  0  0  0  0  0
  1  2  1  0
  2  3  1  0
  3  4  1  0
  4  5  2  3
  5  6  1  0
  6  7  1  0
  7  8  2  0
  8  9  1  0
  9 10  2  0
 10 11  1  0
 11 12  1  0
 12 13  1  0
 12 14  2  0
 12 15  2  0
 11 16  2  0
  4 17  1  0
 17 18  1  0
 18 19  1  0
 19 20  2  0
 19 21  1  0
 21 22  2  0
 22 23  1  0
 23 24  2  0
 24 25  1  0
 25 26  2  0
 26 27  1  0
 18  2  2  0
 26 21  1  0
 16  7  1  0
  1 28  1  0
  1 29  1  0
  1 30  1  0
  3 31  1  0
  6 32  1  0
  6 33  1  0
  8 34  1  0
  9 35  1  0
 10 36  1  0
 13 37  1  0
 16 38  1  0
 22 39  1  0
 23 40  1  0
 24 41  1  0
 25 42  1  0
M  CHG  2  13  -1  17  -1
M  END
>  <UniqueID>  (6) 
6

>  <SMILES>  (6) 
Cc1[nH]c(=NCc2cccc(S([NH-])(=O)=O)c2)[n-]c1C(=O)c1ccccc1Cl

>  <Energy>  (6) 
77.85637734998396

>  <Genealogy>  (6) 
Cc1[nH]c(=NCc2cccc(S([NH-])(=O)=O)c2)[n-]c1C(=O)c1ccccc1Cl (protonated)
Cc1[nH]c(=NCc2cccc(S([NH-])(=O)=O)c2)[n-]c1C(=O)c1ccccc1Cl (3D coordinates assigned)
Cc1[nH]c(=NCc2cccc(S([NH-])(=O)=O)c2)[n-]c1C(=O)c1ccccc1Cl (optimized conformer: 77.85637734998396 kcal/mol)

>  <smiles>  (6) 
Cc1[nH]c(=NCc2cccc(S(N)(=O)=O)c2)[nH]c1C(=O)c1ccccc1Cl

>  <score_type>  (6) 
oracle

>  <origin>  (6) 
adg

>  <m_score__min__energy>  (6) 
-13.710000000000001

>  <m_primary>  (6) 
energy

$$$$
6:0
     RDKit          3D

 40 41  0  0  0  0  0  0  0  0999 V2000
   59.6390   33.9080   50.2090 C   0  0  0  0  0  0  0  0  0  0  0  0
   60.2860   34.1610   48.9190 N   0  0  0  0  0  0  0  0  0  0  0  0
   59.5720   34.9490   47.9040 C   0  0  0  0  0  0  0  0  0  0  0  0
   59.0370   34.0510   46.8220 C   0  0  0  0  0  0  0  0  0  0  0  0
   58.2900   32.9100   47.1470 C   0  0  0  0  0  0  0  0  0  0  0  0
   57.8350   32.0520   46.1420 C   0  0  0  0  0  0  0  0  0  0  0  0
   58.1340   32.3110   44.7910 C   0  0  0  0  0  0  0  0  0  0  0  0
   57.6390   31.3870   43.7410 C   0  0  0  0  0  0  0  0  0  0  0  0
   57.3150   31.8600   42.6180 O   0  0  0  0  0  0  0  0  0  0  0  0
   57.5320   29.9700   43.9800 N   0  0  0  0  0  0  0  0  0  0  0  0
   56.9760   29.0430   43.0350 C   0  0  0  0  0  0  0  0  0  0  0  0
   57.5460   27.7370   42.9240 N   0  0  0  0  0  0  0  0  0  0  0  0
   55.9230   29.3480   42.3370 N   0  0  0  0  0  0  0  0  0  0  0  0
   58.8800   33.4590   44.4700 C   0  0  0  0  0  0  0  0  0  0  0  0
   59.3340   34.3160   45.4780 C   0  0  0  0  0  0  0  0  0  0  0  0
   61.6740   33.8130   48.7270 C   0  0  0  0  0  0  0  0  0  0  0  0
   62.1520   33.4650   47.4510 C   0  0  0  0  0  0  0  0  0  0  0  0
   63.4920   33.1070   47.2700 C   0  0  0  0  0  0  0  0  0  0  0  0
   64.3660   33.0910   48.3600 C   0  0  0  0  0  0  0  0  0  0  0  0
   63.9020   33.4360   49.6310 C   0  0  0  0  0  0  0  0  0  0  0  0
   62.5630   33.7940   49.8180 C   0  0  0  0  0  0  0  0  0  0  0  0
   60.3275   34.1772   51.0236 H   0  0  0  0  0  0  0  0  0  0  0  0
   58.7248   34.5149   50.2860 H   0  0  0  0  0  0  0  0  0  0  0  0
   59.3790   32.8420   50.2860 H   0  0  0  0  0  0  0  0  0  0  0  0
   58.7350   35.4803   48.3806 H   0  0  0  0  0  0  0  0  0  0  0  0
   60.2715   35.6697   47.4554 H   0  0  0  0  0  0  0  0  0  0  0  0
   58.0605   32.6886   48.1998 H   0  0  0  0  0  0  0  0  0  0  0  0
   57.2384   31.1672   46.4088 H   0  0  0  0  0  0  0  0  0  0  0  0
   57.9330   29.5630   44.8520 H   0  0  0  0  0  0  0  0  0  0  0  0
   57.1480   27.0300   42.2660 H   0  0  0  0  0  0  0  0  0  0  0  0
   58.3770   27.4750   43.4990 H   0  0  0  0  0  0  0  0  0  0  0  0
   55.8040   30.3070   41.9380 H   0  0  0  0  0  0  0  0  0  0  0  0
   55.1890   28.6390   42.1160 H   0  0  0  0  0  0  0  0  0  0  0  0
   59.1083   33.6848   43.4179 H   0  0  0  0  0  0  0  0  0  0  0  0
   59.9279   35.2036   45.2143 H   0  0  0  0  0  0  0  0  0  0  0  0
   61.4677   33.4744   46.5898 H   0  0  0  0  0  0  0  0  0  0  0  0
   63.8582   32.8377   46.2683 H   0  0  0  0  0  0  0  0  0  0  0  0
   65.4190   32.8068   48.2170 H   0  0  0  0  0  0  0  0  0  0  0  0
   64.5917   33.4262   50.4878 H   0  0  0  0  0  0  0  0  0  0  0  0
   62.2030   34.0619   50.8223 H   0  0  0  0  0  0  0  0  0  0  0  0
  1  2  1  0
  2  3  1  0
  3  4  1  0
  4  5  2  0
  5  6  1  0
  6  7  2  0
  7  8  1  0
  8  9  2  0
  8 10  1  0
 10 11  1  0
 11 12  1  0
 11 13  2  0
  7 14  1  0
 14 15  2  0
  2 16  1  0
 16 17  2  0
 17 18  1  0
 18 19  2  0
 19 20  1  0
 20 21  2  0
 15  4  1  0
 21 16  1  0
  1 22  1  0
  1 23  1  0
  1 24  1  0
  3 25  1  0
  3 26  1  0
  5 27  1  0
  6 28  1  0
 10 29  1  0
 12 30  1  0
 12 31  1  0
 13 32  1  0
 13 33  1  0
 14 34  1  0
 15 35  1  0
 17 36  1  0
 18 37  1  0
 19 38  1  0
 20 39  1  0
 21 40  1  0
M  CHG  1  13   1
M  END
>  <UniqueID>  (7) 
7

>  <SMILES>  (7) 
CN(Cc1ccc(C(=O)NC(N)=[NH2+])cc1)c1ccccc1

>  <Energy>  (7) 
45.51434581265108

>  <Genealogy>  (7) 
CN(Cc1ccc(C(=O)NC(N)=[NH2+])cc1)c1ccccc1 (protonated)
CN(Cc1ccc(C(=O)NC(N)=[NH2+])cc1)c1ccccc1 (3D coordinates assigned)
CN(Cc1ccc(C(=O)NC(N)=[NH2+])cc1)c1ccccc1 (optimized conformer: 45.51434581265108 kcal/mol)

>  <smiles>  (7) 
CN(Cc1ccc(C(=O)NC(=N)N)cc1)c1ccccc1

>  <score_type>  (7) 
oracle

>  <origin>  (7) 
adg

>  <m_score__min__energy>  (7) 
-6.0300000000000002

>  <m_primary>  (7) 
energy

$$$$
7:0
     RDKit          3D

 51 54  0  0  0  0  0  0  0  0999 V2000
   56.6860   27.4090   45.9890 C   0  0  0  0  0  0  0  0  0  0  0  0
   57.0430   28.7230   45.3450 C   0  0  0  0  0  0  0  0  0  0  0  0
   56.0700   29.4540   44.6310 C   0  0  0  0  0  0  0  0  0  0  0  0
   54.7760   28.9700   44.4910 O   0  0  0  0  0  0  0  0  0  0  0  0
   56.4000   30.6810   44.0500 C   0  0  0  0  0  0  0  0  0  0  0  0
   57.7030   31.1830   44.1410 C   0  0  0  0  0  0  0  0  0  0  0  0
   58.0520   32.4610   43.4900 C   0  0  0  0  0  0  0  0  0  0  0  0
   57.5860   32.7170   42.3480 O   0  0  0  0  0  0  0  0  0  0  0  0
   58.9150   33.4190   44.1160 N   0  0  0  0  0  0  0  0  0  0  0  0
   58.4760   34.4430   45.0610 C   0  0  0  0  0  0  0  0  0  0  0  0
   58.6880   33.9640   46.4700 C   0  0  0  0  0  0  0  0  0  0  0  0
   57.9030   32.9260   46.9990 C   0  0  0  0  0  0  0  0  0  0  0  0
   58.1500   32.4450   48.2860 C   0  0  0  0  0  0  0  0  0  0  0  0
   59.1830   32.9920   49.0600 C   0  0  0  0  0  0  0  0  0  0  0  0
   59.4400   32.5070   50.3410 O   0  0  0  0  0  0  0  0  0  0  0  0
   59.9650   34.0300   48.5390 C   0  0  0  0  0  0  0  0  0  0  0  0
   60.9860   34.5850   49.3000 O   0  0  0  0  0  0  0  0  0  0  0  0
   59.7240   34.5090   47.2470 C   0  0  0  0  0  0  0  0  0  0  0  0
   58.6600   30.4810   44.8820 C   0  0  0  0  0  0  0  0  0  0  0  0
   58.3320   29.2700   45.5160 C   0  0  0  0  0  0  0  0  0  0  0  0
   59.3120   28.5570   46.2870 N   0  0  0  0  0  0  0  0  0  0  0  0
   59.3300   28.4290   47.7140 C   0  0  0  0  0  0  0  0  0  0  0  0
   58.5810   27.5750   48.2580 O   0  0  0  0  0  0  0  0  0  0  0  0
   60.1620   29.2980   48.5680 C   0  0  0  0  0  0  0  0  0  0  0  0
   61.2320   30.0700   48.1640 C   0  0  0  0  0  0  0  0  0  0  0  0
   61.6540   30.6940   49.3240 C   0  0  0  0  0  0  0  0  0  0  0  0
   62.7890   31.6370   49.4700 C   0  0  0  0  0  0  0  0  0  0  0  0
   63.5950   31.6410   50.6240 C   0  0  0  0  0  0  0  0  0  0  0  0
   64.6560   32.5410   50.7460 C   0  0  0  0  0  0  0  0  0  0  0  0
   64.9290   33.4470   49.7180 C   0  0  0  0  0  0  0  0  0  0  0  0
   64.1420   33.4510   48.5650 C   0  0  0  0  0  0  0  0  0  0  0  0
   63.0780   32.5520   48.4390 C   0  0  0  0  0  0  0  0  0  0  0  0
   60.8600   30.3130   50.3480 N   0  0  0  0  0  0  0  0  0  0  0  0
   59.9480   29.4720   49.8860 N   0  0  0  0  0  0  0  0  0  0  0  0
   56.7154   27.5170   47.0833 H   0  0  0  0  0  0  0  0  0  0  0  0
   55.6742   27.1107   45.6770 H   0  0  0  0  0  0  0  0  0  0  0  0
   57.4077   26.6397   45.6770 H   0  0  0  0  0  0  0  0  0  0  0  0
   55.6294   31.2570   43.5168 H   0  0  0  0  0  0  0  0  0  0  0  0
   59.0563   35.3630   44.8974 H   0  0  0  0  0  0  0  0  0  0  0  0
   57.4061   34.6452   44.9045 H   0  0  0  0  0  0  0  0  0  0  0  0
   57.0914   32.4910   46.3973 H   0  0  0  0  0  0  0  0  0  0  0  0
   57.5310   31.6328   48.6948 H   0  0  0  0  0  0  0  0  0  0  0  0
   59.8360   31.5890   50.4910 H   0  0  0  0  0  0  0  0  0  0  0  0
   60.3487   35.3164   46.8373 H   0  0  0  0  0  0  0  0  0  0  0  0
   59.6808   30.8814   44.9694 H   0  0  0  0  0  0  0  0  0  0  0  0
   61.6526   30.1669   47.1522 H   0  0  0  0  0  0  0  0  0  0  0  0
   63.3875   30.9293   51.4366 H   0  0  0  0  0  0  0  0  0  0  0  0
   65.2780   32.5366   51.6533 H   0  0  0  0  0  0  0  0  0  0  0  0
   65.7636   34.1567   49.8171 H   0  0  0  0  0  0  0  0  0  0  0  0
   64.3590   34.1622   47.7544 H   0  0  0  0  0  0  0  0  0  0  0  0
   62.4621   32.5596   47.5276 H   0  0  0  0  0  0  0  0  0  0  0  0
  1  2  1  0
  2  3  2  0
  3  4  1  0
  3  5  1  0
  5  6  2  0
  6  7  1  0
  7  8  2  0
  7  9  1  0
  9 10  1  0
 10 11  1  0
 11 12  2  0
 12 13  1  0
 13 14  2  0
 14 15  1  0
 14 16  1  0
 16 17  1  0
 16 18  2  0
  6 19  1  0
 19 20  2  0
 20 21  1  0
 21 22  1  0
 22 23  2  0
 22 24  1  0
 24 25  1  0
 25 26  2  0
 26 27  1  0
 27 28  2  0
 28 29  1  0
 29 30  2  0
 30 31  1  0
 31 32  2  0
 26 33  1  0
 33 34  1  0
 20  2  1  0
 34 24  2  0
 18 11  1  0
 32 27  1  0
  1 35  1  0
  1 36  1  0
  1 37  1  0
  5 38  1  0
 10 39  1  0
 10 40  1  0
 12 41  1  0
 13 42  1  0
 15 43  1  0
 18 44  1  0
 19 45  1  0
 25 46  1  0
 28 47  1  0
 29 48  1  0
 30 49  1  0
 31 50  1  0
 32 51  1  0
M  CHG  5   4  -1   9  -1  17  -1  21  -1  33  -1
M  END
>  <UniqueID>  (8) 
8

>  <SMILES>  (8) 
Cc1c([O-])cc(C(=O)[N-]Cc2ccc(O)c([O-])c2)cc1[N-]C(=O)c1cc(-c2ccccc2)[n-]n1

>  <Energy>  (8) 
95.01484448156684

>  <Genealogy>  (8) 
Cc1c([O-])cc(C(=O)[N-]Cc2ccc(O)c([O-])c2)cc1[N-]C(=O)c1cc(-c2ccccc2)[n-]n1 (protonated)
Cc1c([O-])cc(C(=O)[N-]Cc2ccc(O)c([O-])c2)cc1[N-]C(=O)c1cc(-c2ccccc2)[n-]n1 (3D coordinates assigned)
Cc1c([O-])cc(C(=O)[N-]Cc2ccc(O)c([O-])c2)cc1[N-]C(=O)c1cc(-c2ccccc2)[n-]n1 (optimized conformer: 95.01484448156684 kcal/mol)

>  <smiles>  (8) 
Cc1c(O)cc(C(=O)NCc2ccc(O)c(O)c2)cc1NC(=O)c1cc(-c2ccccc2)[nH]n1

>  <score_type>  (8) 
oracle

>  <origin>  (8) 
adg

>  <m_score__min__energy>  (8) 
-18.09

>  <m_primary>  (8) 
energy

$$$$
8:0
     RDKit          3D

 46 48  0  0  0  0  0  0  0  0999 V2000
   55.2210   21.4650   42.2270 H   0  0  0  0  0  0  0  0  0  0  0  0
   56.0920   21.1490   42.6390 O   0  0  0  0  0  0  0  0  0  0  0  0
   56.8450   21.9500   43.4940 C   0  0  0  0  0  0  0  0  0  0  0  0
   58.1600   21.5770   43.7920 C   0  0  0  0  0  0  0  0  0  0  0  0
   58.5910   20.6788   43.3257 H   0  0  0  0  0  0  0  0  0  0  0  0
   58.9290   22.3340   44.6750 C   0  0  0  0  0  0  0  0  0  0  0  0
   59.9653   22.0365   44.8930 H   0  0  0  0  0  0  0  0  0  0  0  0
   58.3860   23.4730   45.2860 C   0  0  0  0  0  0  0  0  0  0  0  0
   59.1270   24.2500   46.3130 C   0  0  0  0  0  0  0  0  0  0  0  0
   58.9765   24.0102   47.3759 H   0  0  0  0  0  0  0  0  0  0  0  0
   59.9720   25.2330   45.9820 C   0  0  0  0  0  0  0  0  0  0  0  0
   60.9917   24.9766   45.6587 H   0  0  0  0  0  0  0  0  0  0  0  0
   59.5740   26.6450   46.0390 C   0  0  0  0  0  0  0  0  0  0  0  0
   60.1260   27.4840   45.2770 O   0  0  0  0  0  0  0  0  0  0  0  0
   58.6000   27.1270   47.0470 C   0  0  0  0  0  0  0  0  0  0  0  0
   58.8286   26.9394   48.1065 H   0  0  0  0  0  0  0  0  0  0  0  0
   57.4570   27.7770   46.7620 C   0  0  0  0  0  0  0  0  0  0  0  0
   56.5037   27.2534   46.9266 H   0  0  0  0  0  0  0  0  0  0  0  0
   57.4170   29.1590   46.2390 C   0  0  0  0  0  0  0  0  0  0  0  0
   56.4700   29.5230   45.2800 C   0  0  0  0  0  0  0  0  0  0  0  0
   55.5000   28.6170   44.8620 O   0  0  0  0  0  0  0  0  0  0  0  0
   56.5160   30.7560   44.7240 N   0  0  0  0  0  0  0  0  0  0  0  0
   57.4590   31.6650   45.0840 C   0  0  0  0  0  0  0  0  0  0  0  0
   57.4820   32.7800   44.4920 O   0  0  0  0  0  0  0  0  0  0  0  0
   58.3850   31.3620   46.0570 N   0  0  0  0  0  0  0  0  0  0  0  0
   59.3830   32.3370   46.4480 C   0  0  0  0  0  0  0  0  0  0  0  0
   59.0520   33.6970   46.5630 C   0  0  0  0  0  0  0  0  0  0  0  0
   58.0253   34.0277   46.3475 H   0  0  0  0  0  0  0  0  0  0  0  0
   60.0130   34.6330   46.9480 C   0  0  0  0  0  0  0  0  0  0  0  0
   59.7435   35.6966   47.0268 H   0  0  0  0  0  0  0  0  0  0  0  0
   61.3150   34.2210   47.2330 C   0  0  0  0  0  0  0  0  0  0  0  0
   62.0680   34.9577   47.5498 H   0  0  0  0  0  0  0  0  0  0  0  0
   61.6630   32.8720   47.1160 C   0  0  0  0  0  0  0  0  0  0  0  0
   63.2970   32.3600   47.4800 Cl  0  0  0  0  0  0  0  0  0  0  0  0
   60.7020   31.9400   46.7240 C   0  0  0  0  0  0  0  0  0  0  0  0
   60.9807   30.8801   46.6297 H   0  0  0  0  0  0  0  0  0  0  0  0
   58.3600   30.1200   46.6450 C   0  0  0  0  0  0  0  0  0  0  0  0
   59.1800   29.8290   47.5630 O   0  0  0  0  0  0  0  0  0  0  0  0
   57.0840   23.8800   44.9400 C   0  0  0  0  0  0  0  0  0  0  0  0
   56.6745   24.8090   45.3634 H   0  0  0  0  0  0  0  0  0  0  0  0
   56.2990   23.1120   44.0580 C   0  0  0  0  0  0  0  0  0  0  0  0
   54.9810   23.4690   43.7270 O   0  0  0  0  0  0  0  0  0  0  0  0
   53.9770   23.8240   44.6710 C   0  0  0  0  0  0  0  0  0  0  0  0
   54.3669   23.6861   45.6903 H   0  0  0  0  0  0  0  0  0  0  0  0
   53.6934   24.8769   44.5262 H   0  0  0  0  0  0  0  0  0  0  0  0
   53.0946   23.1834   44.5262 H   0  0  0  0  0  0  0  0  0  0  0  0
  1  2  1  0
  2  3  1  0
  3  4  2  0
  4  5  1  0
  4  6  1  0
  6  7  1  0
  6  8  2  0
  8  9  1  0
  9 10  1  0
  9 11  2  0
 11 12  1  0
 11 13  1  0
 13 14  2  0
 13 15  1  0
 15 16  1  0
 15 17  2  3
 17 18  1  0
 17 19  1  0
 19 20  2  0
 20 21  1  0
 20 22  1  0
 22 23  1  0
 23 24  2  0
 23 25  1  0
 25 26  1  0
 26 27  2  0
 27 28  1  0
 27 29  1  0
 29 30  1  0
 29 31  2  0
 31 32  1  0
 31 33  1  0
 33 34  1  0
 33 35  2  0
 35 36  1  0
 25 37  1  0
 37 38  2  0
  8 39  1  0
 39 40  1  0
 39 41  2  0
 41 42  1  0
 42 43  1  0
 43 44  1  0
 43 45  1  0
 43 46  1  0
 41  3  1  0
 37 19  1  0
 35 26  1  0
M  CHG  2  21  -1  22  -1
M  END
>  <UniqueID>  (9) 
9

>  <SMILES>  (9) 
COc1cc(/C=C/C(=O)C=Cc2c([O-])[n-]c(=O)n(-c3cccc(Cl)c3)c2=O)ccc1O

>  <Energy>  (9) 
70.81016578666873

>  <Genealogy>  (9) 
COc1cc(C=CC(=O)C=Cc2c([O-])[n-]c(=O)n(-c3cccc(Cl)c3)c2=O)ccc1O (protonated)
COc1cc(/C=C/C(=O)C=Cc2c([O-])[n-]c(=O)n(-c3cccc(Cl)c3)c2=O)ccc1O (cis-trans isomerization)
COc1cc(/C=C/C(=O)C=Cc2c([O-])[n-]c(=O)n(-c3cccc(Cl)c3)c2=O)ccc1O (3D coordinates assigned)
COc1cc(/C=C/C(=O)C=Cc2c([O-])[n-]c(=O)n(-c3cccc(Cl)c3)c2=O)ccc1O (optimized conformer: 70.81016578666873 kcal/mol)

>  <smiles>  (9) 
COc1cc(C=CC(=O)C=Cc2c(O)[nH]c(=O)n(-c3cccc(Cl)c3)c2=O)ccc1O

>  <score_type>  (9) 
oracle

>  <origin>  (9) 
adg

>  <m_score__min__energy>  (9) 
-12.5

>  <m_primary>  (9) 
energy

$$$$
9:0
     RDKit          3D

 25 26  0  0  0  0  0  0  0  0999 V2000
   56.5080   30.7830   44.8010 O   0  0  0  0  0  0  0  0  0  0  0  0
   57.6750   30.3870   45.0480 C   0  0  0  0  0  0  0  0  0  0  0  0
   58.5610   31.2380   45.7840 N   0  0  0  0  0  0  0  0  0  0  0  0
   58.6350   32.5270   45.6420 C   0  0  0  0  0  0  0  0  0  0  0  0
   57.7690   33.2750   44.9170 N   0  0  0  0  0  0  0  0  0  0  0  0
   58.1030   34.5930   44.9290 C   0  0  0  0  0  0  0  0  0  0  0  0
   59.2460   34.8980   45.6610 C   0  0  0  0  0  0  0  0  0  0  0  0
   59.8560   33.4650   46.3080 S   0  0  0  0  0  0  0  0  0  0  0  0
   58.1080   29.1220   44.5300 N   0  0  0  0  0  0  0  0  0  0  0  0
   58.6750   28.0390   45.3300 C   0  0  0  0  0  0  0  0  0  0  0  0
   57.6250   27.0080   45.6480 C   0  0  0  0  0  0  0  0  0  0  0  0
   57.9930   25.6860   45.9370 C   0  0  0  0  0  0  0  0  0  0  0  0
   57.0150   24.7380   46.2410 C   0  0  0  0  0  0  0  0  0  0  0  0
   55.6710   25.1220   46.2530 C   0  0  0  0  0  0  0  0  0  0  0  0
   54.7750   24.2800   46.5260 O   0  0  0  0  0  0  0  0  0  0  0  0
   55.3280   26.4060   45.9690 N   0  0  0  0  0  0  0  0  0  0  0  0
   56.2640   27.3480   45.6690 C   0  0  0  0  0  0  0  0  0  0  0  0
   56.9460   32.9030   44.3940 H   0  0  0  0  0  0  0  0  0  0  0  0
   57.5152   35.3584   44.4011 H   0  0  0  0  0  0  0  0  0  0  0  0
   59.6775   35.9009   45.7947 H   0  0  0  0  0  0  0  0  0  0  0  0
   59.4905   27.5622   44.7664 H   0  0  0  0  0  0  0  0  0  0  0  0
   59.0572   28.4577   46.2727 H   0  0  0  0  0  0  0  0  0  0  0  0
   59.0540   25.3959   45.9241 H   0  0  0  0  0  0  0  0  0  0  0  0
   57.2987   23.6999   46.4687 H   0  0  0  0  0  0  0  0  0  0  0  0
   55.9524   28.3783   45.4425 H   0  0  0  0  0  0  0  0  0  0  0  0
  1  2  2  0
  2  3  1  0
  3  4  2  3
  4  5  1  0
  5  6  1  0
  6  7  2  0
  7  8  1  0
  2  9  1  0
  9 10  1  0
 10 11  1  0
 11 12  1  0
 12 13  2  0
 13 14  1  0
 14 15  2  0
 14 16  1  0
 16 17  1  0
  8  4  1  0
 17 11  2  0
  5 18  1  0
  6 19  1  0
  7 20  1  0
 10 21  1  0
 10 22  1  0
 12 23  1  0
 13 24  1  0
 17 25  1  0
M  CHG  2   9  -1  16  -1
M  END
>  <UniqueID>  (10) 
10

>  <SMILES>  (10) 
O=C(N=c1[nH]ccs1)[N-]Cc1ccc(=O)[n-]c1

>  <Energy>  (10) 
61.24968645378243

>  <Genealogy>  (10) 
O=C(N=c1[nH]ccs1)[N-]Cc1ccc(=O)[n-]c1 (protonated)
O=C(N=c1[nH]ccs1)[N-]Cc1ccc(=O)[n-]c1 (3D coordinates assigned)
O=C(N=c1[nH]ccs1)[N-]Cc1ccc(=O)[n-]c1 (optimized conformer: 61.24968645378243 kcal/mol)

>  <smiles>  (10) 
O=C(N=c1[nH]ccs1)NCc1ccc(=O)[nH]c1

>  <score_type>  (10) 
oracle

>  <origin>  (10) 
adg

>  <m_score__min__energy>  (10) 
-9.6400000000000006

>  <m_primary>  (10) 
energy

$$$$
10:0
     RDKit          3D

 61 65  0  0  0  0  0  0  0  0999 V2000
   56.2050   30.1200   43.2580 O   0  0  0  0  0  0  0  0  0  0  0  0
   56.8260   30.3060   44.3370 C   0  0  0  0  0  0  0  0  0  0  0  0
   56.6540   31.5520   45.0260 N   0  0  0  0  0  0  0  0  0  0  0  0
   57.6650   32.5480   45.2380 C   0  0  0  0  0  0  0  0  0  0  0  0
   57.5290   33.8540   44.7400 C   0  0  0  0  0  0  0  0  0  0  0  0
   58.5310   34.7990   44.9680 C   0  0  0  0  0  0  0  0  0  0  0  0
   59.6660   34.4560   45.7050 C   0  0  0  0  0  0  0  0  0  0  0  0
   59.8080   33.1610   46.2350 C   0  0  0  0  0  0  0  0  0  0  0  0
   60.9790   32.8070   47.0050 N   0  0  0  0  0  0  0  0  0  0  0  0
   61.0930   31.4710   47.6080 C   0  0  0  0  0  0  0  0  0  0  0  0
   61.8960   31.5330   48.9110 C   0  0  0  0  0  0  0  0  0  0  0  0
   63.1750   32.2360   48.7270 N   0  0  0  0  0  0  0  0  0  0  0  0
   64.2440   32.0370   49.6800 C   0  0  0  0  0  0  0  0  0  0  0  0
   64.1400   31.0530   50.6830 C   0  0  0  0  0  0  0  0  0  0  0  0
   65.1750   30.8680   51.6050 C   0  0  0  0  0  0  0  0  0  0  0  0
   66.3210   31.6610   51.5410 C   0  0  0  0  0  0  0  0  0  0  0  0
   66.4370   32.6430   50.5550 C   0  0  0  0  0  0  0  0  0  0  0  0
   67.8820   33.6370   50.4740 Cl  0  0  0  0  0  0  0  0  0  0  0  0
   65.4050   32.8330   49.6290 C   0  0  0  0  0  0  0  0  0  0  0  0
   63.3980   33.0530   47.5250 C   0  0  0  0  0  0  0  0  0  0  0  0
   62.1030   33.7530   47.0990 C   0  0  0  0  0  0  0  0  0  0  0  0
   58.7930   32.2140   45.9970 C   0  0  0  0  0  0  0  0  0  0  0  0
   57.6740   29.2200   44.8690 C   0  0  0  0  0  0  0  0  0  0  0  0
   59.0760   29.2800   44.7960 C   0  0  0  0  0  0  0  0  0  0  0  0
   59.8240   28.2260   45.3200 C   0  0  0  0  0  0  0  0  0  0  0  0
   61.0810   28.2540   45.2680 O   0  0  0  0  0  0  0  0  0  0  0  0
   59.1700   27.1450   45.9080 C   0  0  0  0  0  0  0  0  0  0  0  0
   57.7700   27.1500   45.9600 C   0  0  0  0  0  0  0  0  0  0  0  0
   57.0230   26.0280   46.6160 C   0  0  0  0  0  0  0  0  0  0  0  0
   56.6420   24.9980   45.5880 C   0  0  0  0  0  0  0  0  0  0  0  0
   57.4880   24.7400   44.4970 C   0  0  0  0  0  0  0  0  0  0  0  0
   57.1170   23.8100   43.5210 C   0  0  0  0  0  0  0  0  0  0  0  0
   55.8940   23.1380   43.6230 C   0  0  0  0  0  0  0  0  0  0  0  0
   55.5260   22.2150   42.6530 O   0  0  0  0  0  0  0  0  0  0  0  0
   55.0400   23.4000   44.6990 C   0  0  0  0  0  0  0  0  0  0  0  0
   55.4090   24.3290   45.6770 C   0  0  0  0  0  0  0  0  0  0  0  0
   57.0880   28.1750   45.4520 O   0  0  0  0  0  0  0  0  0  0  0  0
   56.6311   34.1330   44.1691 H   0  0  0  0  0  0  0  0  0  0  0  0
   58.4259   35.8173   44.5656 H   0  0  0  0  0  0  0  0  0  0  0  0
   60.4550   35.2040   45.8724 H   0  0  0  0  0  0  0  0  0  0  0  0
   60.0858   31.0842   47.8224 H   0  0  0  0  0  0  0  0  0  0  0  0
   61.6139   30.8072   46.9023 H   0  0  0  0  0  0  0  0  0  0  0  0
   61.3032   32.0637   49.6705 H   0  0  0  0  0  0  0  0  0  0  0  0
   62.1129   30.5030   49.2304 H   0  0  0  0  0  0  0  0  0  0  0  0
   63.2382   30.4258   50.7412 H   0  0  0  0  0  0  0  0  0  0  0  0
   65.0853   30.0952   52.3827 H   0  0  0  0  0  0  0  0  0  0  0  0
   67.1335   31.5127   52.2675 H   0  0  0  0  0  0  0  0  0  0  0  0
   65.5012   33.6095   48.8558 H   0  0  0  0  0  0  0  0  0  0  0  0
   64.1646   33.8118   47.7410 H   0  0  0  0  0  0  0  0  0  0  0  0
   63.7310   32.3966   46.7076 H   0  0  0  0  0  0  0  0  0  0  0  0
   61.8561   34.5277   47.8398 H   0  0  0  0  0  0  0  0  0  0  0  0
   62.2632   34.1956   46.1048 H   0  0  0  0  0  0  0  0  0  0  0  0
   58.8877   31.1999   46.4124 H   0  0  0  0  0  0  0  0  0  0  0  0
   59.5753   30.1440   44.3332 H   0  0  0  0  0  0  0  0  0  0  0  0
   59.7427   26.3029   46.3238 H   0  0  0  0  0  0  0  0  0  0  0  0
   57.6621   25.5618   47.3803 H   0  0  0  0  0  0  0  0  0  0  0  0
   56.1115   26.4254   47.0863 H   0  0  0  0  0  0  0  0  0  0  0  0
   58.4469   25.2720   44.4099 H   0  0  0  0  0  0  0  0  0  0  0  0
   57.7869   23.6066   42.6726 H   0  0  0  0  0  0  0  0  0  0  0  0
   54.0767   22.8746   44.7762 H   0  0  0  0  0  0  0  0  0  0  0  0
   54.7321   24.5369   46.5187 H   0  0  0  0  0  0  0  0  0  0  0  0
  1  2  2  0
  2  3  1  0
  3  4  1  0
  4  5  2  0
  5  6  1  0
  6  7  2  0
  7  8  1  0
  8  9  1  0
  9 10  1  0
 10 11  1  0
 11 12  1  0
 12 13  1  0
 13 14  2  0
 14 15  1  0
 15 16  2  0
 16 17  1  0
 17 18  1  0
 17 19  2  0
 12 20  1  0
 20 21  1  0
  8 22  2  0
  2 23  1  0
 23 24  2  0
 24 25  1  0
 25 26  2  0
 25 27  1  0
 27 28  2  0
 28 29  1  0
 29 30  1  0
 30 31  2  0
 31 32  1  0
 32 33  2  0
 33 34  1  0
 33 35  1  0
 35 36  2  0
 28 37  1  0
 22  4  1  0
 37 23  1  0
 21  9  1  0
 36 30  1  0
 19 13  1  0
  5 38  1  0
  6 39  1  0
  7 40  1  0
 10 41  1  0
 10 42  1  0
 11 43  1  0
 11 44  1  0
 14 45  1  0
 15 46  1  0
 16 47  1  0
 19 48  1  0
 20 49  1  0
 20 50  1  0
 21 51  1  0
 21 52  1  0
 22 53  1  0
 24 54  1  0
 27 55  1  0
 29 56  1  0
 29 57  1  0
 31 58  1  0
 32 59  1  0
 35 60  1  0
 36 61  1  0
M  CHG  2   3  -1  34  -1
M  END
>  <UniqueID>  (11) 
11

>  <SMILES>  (11) 
O=C([N-]c1cccc(N2CCN(c3cccc(Cl)c3)CC2)c1)c1cc(=O)cc(Cc2ccc([O-])cc2)o1

>  <Energy>  (11) 
79.38175850824334

>  <Genealogy>  (11) 
O=C([N-]c1cccc(N2CCN(c3cccc(Cl)c3)CC2)c1)c1cc(=O)cc(Cc2ccc([O-])cc2)o1 (protonated)
O=C([N-]c1cccc(N2CCN(c3cccc(Cl)c3)CC2)c1)c1cc(=O)cc(Cc2ccc([O-])cc2)o1 (3D coordinates assigned)
O=C([N-]c1cccc(N2CCN(c3cccc(Cl)c3)CC2)c1)c1cc(=O)cc(Cc2ccc([O-])cc2)o1 (nonaromatic ring conformer: 79.38175850824334 kcal/mol)

>  <smiles>  (11) 
O=C(Nc1cccc(N2CCN(c3cccc(Cl)c3)CC2)c1)c1cc(=O)cc(Cc2ccc(O)cc2)o1

>  <score_type>  (11) 
oracle

>  <origin>  (11) 
adg

>  <m_score__min__energy>  (11) 
-14.4

>  <m_primary>  (11) 
energy

$$$$
11:0
     RDKit          3D

 38 40  0  0  0  0  0  0  0  0999 V2000
   56.3508   31.2525   52.3496 H   0  0  0  0  0  0  0  0  0  0  0  0
   57.2680   31.1630   51.7490 C   0  0  0  0  0  0  0  0  0  0  0  0
   57.4150   30.1250   50.8850 N   0  0  0  0  0  0  0  0  0  0  0  0
   58.5290   29.9630   50.1200 C   0  0  0  0  0  0  0  0  0  0  0  0
   58.5730   28.9460   49.3040 N   0  0  0  0  0  0  0  0  0  0  0  0
   59.7190   28.1830   48.8980 C   0  0  0  0  0  0  0  0  0  0  0  0
   60.6920   28.0110   49.6800 O   0  0  0  0  0  0  0  0  0  0  0  0
   59.7030   27.4760   47.5780 C   0  0  0  0  0  0  0  0  0  0  0  0
   59.6493   26.3910   47.7510 H   0  0  0  0  0  0  0  0  0  0  0  0
   60.6220   27.7323   47.0305 H   0  0  0  0  0  0  0  0  0  0  0  0
   58.5070   27.9070   46.7480 C   0  0  0  0  0  0  0  0  0  0  0  0
   58.3800   29.2380   46.2780 C   0  0  0  0  0  0  0  0  0  0  0  0
   59.4040   30.2560   46.6020 C   0  0  0  0  0  0  0  0  0  0  0  0
   59.0250   31.5250   47.0650 C   0  0  0  0  0  0  0  0  0  0  0  0
   57.9595   31.7674   47.1909 H   0  0  0  0  0  0  0  0  0  0  0  0
   59.9990   32.4830   47.3670 C   0  0  0  0  0  0  0  0  0  0  0  0
   59.6981   33.4781   47.7265 H   0  0  0  0  0  0  0  0  0  0  0  0
   61.3570   32.1760   47.2120 C   0  0  0  0  0  0  0  0  0  0  0  0
   62.6840   33.4870   47.6120 Br  0  0  0  0  0  0  0  0  0  0  0  0
   61.7400   30.9070   46.7620 C   0  0  0  0  0  0  0  0  0  0  0  0
   62.8064   30.6643   46.6441 H   0  0  0  0  0  0  0  0  0  0  0  0
   60.7670   29.9470   46.4620 C   0  0  0  0  0  0  0  0  0  0  0  0
   61.0703   28.9480   46.1157 H   0  0  0  0  0  0  0  0  0  0  0  0
   57.2490   29.6010   45.5180 C   0  0  0  0  0  0  0  0  0  0  0  0
   57.0880   30.9450   45.0080 C   0  0  0  0  0  0  0  0  0  0  0  0
   56.9600   32.0220   44.6010 N   0  0  0  0  0  0  0  0  0  0  0  0
   56.2670   28.6370   45.2410 C   0  0  0  0  0  0  0  0  0  0  0  0
   55.1480   28.9670   44.4790 O   0  0  0  0  0  0  0  0  0  0  0  0
   56.4000   27.3720   45.7170 N   0  0  0  0  0  0  0  0  0  0  0  0
   55.6510   26.6750   45.5050 H   0  0  0  0  0  0  0  0  0  0  0  0
   57.4740   26.9880   46.4580 C   0  0  0  0  0  0  0  0  0  0  0  0
   57.5350   25.8010   46.8830 O   0  0  0  0  0  0  0  0  0  0  0  0
   59.5630   30.9200   50.2130 C   0  0  0  0  0  0  0  0  0  0  0  0
   60.4679   30.8194   49.5957 H   0  0  0  0  0  0  0  0  0  0  0  0
   59.4290   31.9950   51.0940 C   0  0  0  0  0  0  0  0  0  0  0  0
   60.2288   32.7461   51.1722 H   0  0  0  0  0  0  0  0  0  0  0  0
   58.2790   32.1150   51.8750 C   0  0  0  0  0  0  0  0  0  0  0  0
   58.1712   32.9509   52.5819 H   0  0  0  0  0  0  0  0  0  0  0  0
  1  2  1  0
  2  3  1  0
  3  4  1  0
  4  5  2  0
  5  6  1  0
  6  7  2  0
  6  8  1  0
  8  9  1  0
  8 10  1  0
  8 11  1  0
 11 12  2  0
 12 13  1  0
 13 14  2  0
 14 15  1  0
 14 16  1  0
 16 17  1  0
 16 18  2  0
 18 19  1  0
 18 20  1  0
 20 21  1  0
 20 22  2  0
 22 23  1  0
 12 24  1  0
 24 25  1  0
 25 26  3  0
 24 27  2  0
 27 28  1  0
 27 29  1  0
 29 30  1  0
 29 31  1  0
 31 32  2  0
  4 33  1  0
 33 34  1  0
 33 35  2  0
 35 36  1  0
 35 37  1  0
 37 38  1  0
 37  2  2  0
 31 11  1  0
 22 13  1  0
M  CHG  2   3  -1  28  -1
M  END
>  <UniqueID>  (12) 
12

>  <SMILES>  (12) 
N#Cc1c([O-])[nH]c(=O)c(CC(=O)/N=c2\cccc[n-]2)c1-c1ccc(Br)cc1

>  <Energy>  (12) 
57.106040772367784

>  <Genealogy>  (12) 
N#Cc1c([O-])[nH]c(=O)c(CC(=O)N=c2cccc[n-]2)c1-c1ccc(Br)cc1 (protonated)
N#Cc1c([O-])[nH]c(=O)c(CC(=O)/N=c2\cccc[n-]2)c1-c1ccc(Br)cc1 (cis-trans isomerization)
N#Cc1c([O-])[nH]c(=O)c(CC(=O)/N=c2\cccc[n-]2)c1-c1ccc(Br)cc1 (3D coordinates assigned)
N#Cc1c([O-])[nH]c(=O)c(CC(=O)/N=c2\cccc[n-]2)c1-c1ccc(Br)cc1 (optimized conformer: 57.106040772367784 kcal/mol)

>  <smiles>  (12) 
N#Cc1c(O)[nH]c(=O)c(CC(=O)N=c2cccc[nH]2)c1-c1ccc(Br)cc1

>  <score_type>  (12) 
oracle

>  <origin>  (12) 
adg

>  <m_score__min__energy>  (12) 
-11.02

>  <m_primary>  (12) 
energy

$$$$
12:0
     RDKit          3D

 34 36  0  0  0  0  0  0  0  0999 V2000
   57.9693   32.4794   44.6283 H   0  0  0  0  0  0  0  0  0  0  0  0
   57.4970   31.5340   44.3230 C   0  0  0  0  0  0  0  0  0  0  0  0
   56.9710   30.6580   45.2200 N   0  0  0  0  0  0  0  0  0  0  0  0
   56.4440   29.5760   44.6090 C   0  0  0  0  0  0  0  0  0  0  0  0
   55.8790   28.5780   45.2210 N   0  0  0  0  0  0  0  0  0  0  0  0
   56.4530   27.3200   45.6210 C   0  0  0  0  0  0  0  0  0  0  0  0
   55.7360   26.5240   46.2830 O   0  0  0  0  0  0  0  0  0  0  0  0
   57.8770   26.9230   45.3330 C   0  0  0  0  0  0  0  0  0  0  0  0
   58.1347   26.0444   45.9427 H   0  0  0  0  0  0  0  0  0  0  0  0
   57.9635   26.6908   44.2613 H   0  0  0  0  0  0  0  0  0  0  0  0
   58.8270   28.0370   45.6550 C   0  0  0  0  0  0  0  0  0  0  0  0
   58.7710   29.0140   47.0290 S   0  0  0  0  0  0  0  0  0  0  0  0
   60.1750   29.8460   46.6200 C   0  0  0  0  0  0  0  0  0  0  0  0
   60.8250   30.8920   47.4690 C   0  0  0  0  0  0  0  0  0  0  0  0
   60.6950   30.6325   48.5300 H   0  0  0  0  0  0  0  0  0  0  0  0
   61.8966   30.9403   47.2252 H   0  0  0  0  0  0  0  0  0  0  0  0
   60.1980   32.2320   47.2040 C   0  0  0  0  0  0  0  0  0  0  0  0
   60.9810   33.3010   46.7350 C   0  0  0  0  0  0  0  0  0  0  0  0
   62.0627   33.1651   46.5886 H   0  0  0  0  0  0  0  0  0  0  0  0
   60.3900   34.5360   46.4540 C   0  0  0  0  0  0  0  0  0  0  0  0
   61.0089   35.3719   46.0959 H   0  0  0  0  0  0  0  0  0  0  0  0
   59.0150   34.7110   46.6270 C   0  0  0  0  0  0  0  0  0  0  0  0
   58.5522   35.6842   46.4061 H   0  0  0  0  0  0  0  0  0  0  0  0
   58.2270   33.6490   47.0810 C   0  0  0  0  0  0  0  0  0  0  0  0
   57.1441   33.7870   47.2164 H   0  0  0  0  0  0  0  0  0  0  0  0
   58.8140   32.4120   47.3630 C   0  0  0  0  0  0  0  0  0  0  0  0
   58.1894   31.5760   47.7109 H   0  0  0  0  0  0  0  0  0  0  0  0
   60.7080   29.3690   45.4740 N   0  0  0  0  0  0  0  0  0  0  0  0
   61.5990   29.7180   45.0550 H   0  0  0  0  0  0  0  0  0  0  0  0
   59.9700   28.3640   44.9320 C   0  0  0  0  0  0  0  0  0  0  0  0
   60.2527   27.8524   44.0002 H   0  0  0  0  0  0  0  0  0  0  0  0
   56.6150   29.6550   42.9410 S   0  0  0  0  0  0  0  0  0  0  0  0
   57.3940   31.1470   42.9910 C   0  0  0  0  0  0  0  0  0  0  0  0
   57.7577   31.7158   42.1226 H   0  0  0  0  0  0  0  0  0  0  0  0
  1  2  1  0
  2  3  1  0
  3  4  1  0
  4  5  2  0
  5  6  1  0
  6  7  2  0
  6  8  1  0
  8  9  1  0
  8 10  1  0
  8 11  1  0
 11 12  1  0
 12 13  1  0
 13 14  1  0
 14 15  1  0
 14 16  1  0
 14 17  1  0
 17 18  2  0
 18 19  1  0
 18 20  1  0
 20 21  1  0
 20 22  2  0
 22 23  1  0
 22 24  1  0
 24 25  1  0
 24 26  2  0
 26 27  1  0
 13 28  2  0
 28 29  1  0
 28 30  1  0
 30 31  1  0
  4 32  1  0
 32 33  1  0
 33 34  1  0
 33  2  2  0
 30 11  2  0
 26 17  1  0
M  CHG  2   3  -1  28   1
M  END
>  <UniqueID>  (13) 
13

>  <SMILES>  (13) 
O=C(Cc1c[nH+]c(Cc2ccccc2)s1)/N=c1\[n-]ccs1

>  <Energy>  (13) 
95.21858918045508

>  <Genealogy>  (13) 
O=C(Cc1c[nH+]c(Cc2ccccc2)s1)N=c1[n-]ccs1 (protonated)
O=C(Cc1c[nH+]c(Cc2ccccc2)s1)/N=c1\[n-]ccs1 (cis-trans isomerization)
O=C(Cc1c[nH+]c(Cc2ccccc2)s1)/N=c1\[n-]ccs1 (3D coordinates assigned)
O=C(Cc1c[nH+]c(Cc2ccccc2)s1)/N=c1\[n-]ccs1 (optimized conformer: 95.21858918045508 kcal/mol)

>  <smiles>  (13) 
O=C(Cc1cnc(Cc2ccccc2)s1)N=c1[nH]ccs1

>  <score_type>  (13) 
oracle

>  <origin>  (13) 
adg

>  <m_score__min__energy>  (13) 
-8.6400000000000006

>  <m_primary>  (13) 
energy

$$$$
13:0
     RDKit          3D

 58 61  0  0  0  0  0  0  0  0999 V2000
   58.1650   31.1020   49.7390 O   0  0  0  0  0  0  0  0  0  0  0  0
   59.1910   31.6920   49.3110 C   0  0  0  0  0  0  0  0  0  0  0  0
   60.4730   30.9160   49.1410 C   0  0  0  0  0  0  0  0  0  0  0  0
   60.2070   29.5850   48.5870 N   0  0  0  0  0  0  0  0  0  0  0  0
   60.2460   28.4370   49.2920 C   0  0  0  0  0  0  0  0  0  0  0  0
   59.9470   27.3680   48.4740 C   0  0  0  0  0  0  0  0  0  0  0  0
   59.7130   27.8840   47.2160 C   0  0  0  0  0  0  0  0  0  0  0  0
   59.8820   29.2560   47.3130 C   0  0  0  0  0  0  0  0  0  0  0  0
   59.6820   30.2100   46.1960 C   0  0  0  0  0  0  0  0  0  0  0  0
   60.5370   31.1150   46.0000 O   0  0  0  0  0  0  0  0  0  0  0  0
   58.4830   30.1540   45.3250 C   0  0  0  0  0  0  0  0  0  0  0  0
   58.3840   30.9580   44.1740 C   0  0  0  0  0  0  0  0  0  0  0  0
   57.2410   30.9060   43.3700 C   0  0  0  0  0  0  0  0  0  0  0  0
   56.1830   30.0590   43.7100 C   0  0  0  0  0  0  0  0  0  0  0  0
   56.2640   29.2680   44.8590 C   0  0  0  0  0  0  0  0  0  0  0  0
   57.4050   29.3170   45.6660 C   0  0  0  0  0  0  0  0  0  0  0  0
   59.0640   33.0410   48.8470 N   0  0  0  0  0  0  0  0  0  0  0  0
   58.7450   33.4490   47.5090 C   0  0  0  0  0  0  0  0  0  0  0  0
   57.4140   33.4050   47.0580 C   0  0  0  0  0  0  0  0  0  0  0  0
   57.0930   33.7910   45.7560 C   0  0  0  0  0  0  0  0  0  0  0  0
   58.0990   34.2070   44.8840 C   0  0  0  0  0  0  0  0  0  0  0  0
   59.4290   34.2300   45.3090 C   0  0  0  0  0  0  0  0  0  0  0  0
   59.7700   33.8460   46.6190 C   0  0  0  0  0  0  0  0  0  0  0  0
   61.1940   33.8680   47.0400 C   0  0  0  0  0  0  0  0  0  0  0  0
   62.1040   33.8310   46.1670 O   0  0  0  0  0  0  0  0  0  0  0  0
   61.5440   33.9320   48.4320 N   0  0  0  0  0  0  0  0  0  0  0  0
   62.9370   33.9820   48.8850 C   0  0  0  0  0  0  0  0  0  0  0  0
   62.9970   34.2180   50.4150 C   0  0  0  0  0  0  0  0  0  0  0  0
   63.0850   32.9000   51.1930 C   0  0  0  0  0  0  0  0  0  0  0  0
   64.3540   32.1050   50.8230 C   0  0  0  0  0  0  0  0  0  0  0  0
   64.8370   32.3550   49.3800 C   0  0  0  0  0  0  0  0  0  0  0  0
   63.6710   32.6910   48.4440 C   0  0  0  0  0  0  0  0  0  0  0  0
   61.1385   31.4644   48.4580 H   0  0  0  0  0  0  0  0  0  0  0  0
   60.9474   30.7991   50.1265 H   0  0  0  0  0  0  0  0  0  0  0  0
   60.4820   28.3635   50.3639 H   0  0  0  0  0  0  0  0  0  0  0  0
   59.9035   26.3088   48.7676 H   0  0  0  0  0  0  0  0  0  0  0  0
   59.4447   27.3170   46.3124 H   0  0  0  0  0  0  0  0  0  0  0  0
   59.2110   31.6316   43.9052 H   0  0  0  0  0  0  0  0  0  0  0  0
   57.1747   31.5329   42.4685 H   0  0  0  0  0  0  0  0  0  0  0  0
   55.2869   30.0149   43.0735 H   0  0  0  0  0  0  0  0  0  0  0  0
   55.4286   28.6054   45.1293 H   0  0  0  0  0  0  0  0  0  0  0  0
   57.4599   28.6972   46.5731 H   0  0  0  0  0  0  0  0  0  0  0  0
   56.6190   33.0634   47.7372 H   0  0  0  0  0  0  0  0  0  0  0  0
   56.0467   33.7672   45.4174 H   0  0  0  0  0  0  0  0  0  0  0  0
   57.8443   34.5174   43.8599 H   0  0  0  0  0  0  0  0  0  0  0  0
   60.2177   34.5514   44.6129 H   0  0  0  0  0  0  0  0  0  0  0  0
   60.7950   33.7850   49.1460 H   0  0  0  0  0  0  0  0  0  0  0  0
   63.4569   34.8311   48.4174 H   0  0  0  0  0  0  0  0  0  0  0  0
   63.8829   34.8276   50.6465 H   0  0  0  0  0  0  0  0  0  0  0  0
   62.0726   34.7317   50.7175 H   0  0  0  0  0  0  0  0  0  0  0  0
   63.1045   33.1221   52.2702 H   0  0  0  0  0  0  0  0  0  0  0  0
   62.2083   32.2884   50.9334 H   0  0  0  0  0  0  0  0  0  0  0  0
   65.1594   32.3930   51.5147 H   0  0  0  0  0  0  0  0  0  0  0  0
   64.1008   31.0372   50.8993 H   0  0  0  0  0  0  0  0  0  0  0  0
   65.5466   33.1955   49.3819 H   0  0  0  0  0  0  0  0  0  0  0  0
   65.3173   31.4355   49.0142 H   0  0  0  0  0  0  0  0  0  0  0  0
   64.0609   32.8328   47.4252 H   0  0  0  0  0  0  0  0  0  0  0  0
   62.9525   31.8588   48.4784 H   0  0  0  0  0  0  0  0  0  0  0  0
  1  2  2  0
  2  3  1  0
  3  4  1  0
  4  5  1  0
  5  6  2  0
  6  7  1  0
  7  8  2  0
  8  9  1  0
  9 10  2  0
  9 11  1  0
 11 12  2  0
 12 13  1  0
 13 14  2  0
 14 15  1  0
 15 16  2  0
  2 17  1  0
 17 18  1  0
 18 19  2  0
 19 20  1  0
 20 21  2  0
 21 22  1  0
 22 23  2  0
 23 24  1  0
 24 25  2  0
 24 26  1  0
 26 27  1  0
 27 28  1  0
 28 29  1  0
 29 30  1  0
 30 31  1  0
 31 32  1  0
  8  4  1  0
 16 11  1  0
 23 18  1  0
 32 27  1  0
  3 33  1  0
  3 34  1  0
  5 35  1  0
  6 36  1  0
  7 37  1  0
 12 38  1  0
 13 39  1  0
 14 40  1  0
 15 41  1  0
 16 42  1  0
 19 43  1  0
 20 44  1  0
 21 45  1  0
 22 46  1  0
 26 47  1  0
 27 48  1  0
 28 49  1  0
 28 50  1  0
 29 51  1  0
 29 52  1  0
 30 53  1  0
 30 54  1  0
 31 55  1  0
 31 56  1  0
 32 57  1  0
 32 58  1  0
M  CHG  1  17  -1
M  END
>  <UniqueID>  (14) 
14

>  <SMILES>  (14) 
O=C(Cn1cccc1C(=O)c1ccccc1)[N-]c1ccccc1C(=O)NC1CCCCC1

>  <Energy>  (14) 
102.27875080009298

>  <Genealogy>  (14) 
O=C(Cn1cccc1C(=O)c1ccccc1)[N-]c1ccccc1C(=O)NC1CCCCC1 (protonated)
O=C(Cn1cccc1C(=O)c1ccccc1)[N-]c1ccccc1C(=O)NC1CCCCC1 (3D coordinates assigned)
O=C(Cn1cccc1C(=O)c1ccccc1)[N-]c1ccccc1C(=O)NC1CCCCC1 (nonaromatic ring conformer: 102.27875080009298 kcal/mol)

>  <smiles>  (14) 
O=C(Cn1cccc1C(=O)c1ccccc1)Nc1ccccc1C(=O)NC1CCCCC1

>  <score_type>  (14) 
oracle

>  <origin>  (14) 
adg

>  <m_score__min__energy>  (14) 
-10.08

>  <m_primary>  (14) 
energy

$$$$
14:0
     RDKit          3D

 53 56  0  0  0  0  0  0  0  0999 V2000
   56.4019   33.2204   43.9169 H   0  0  0  0  0  0  0  0  0  0  0  0
   57.3880   32.9350   44.3120 C   0  0  0  0  0  0  0  0  0  0  0  0
   57.7220   31.5020   44.4280 C   0  0  0  0  0  0  0  0  0  0  0  0
   58.0410   30.8370   43.4040 O   0  0  0  0  0  0  0  0  0  0  0  0
   57.6420   30.8600   45.7110 N   0  0  0  0  0  0  0  0  0  0  0  0
   57.1060   31.3460   46.4670 H   0  0  0  0  0  0  0  0  0  0  0  0
   58.1530   29.5450   45.9880 C   0  0  0  0  0  0  0  0  0  0  0  0
   59.0650   29.3700   47.0590 C   0  0  0  0  0  0  0  0  0  0  0  0
   59.3540   30.2362   47.6723 H   0  0  0  0  0  0  0  0  0  0  0  0
   59.6050   28.1050   47.3480 C   0  0  0  0  0  0  0  0  0  0  0  0
   60.3043   27.9646   48.1854 H   0  0  0  0  0  0  0  0  0  0  0  0
   59.2270   27.0350   46.5410 C   0  0  0  0  0  0  0  0  0  0  0  0
   58.3620   27.1960   45.4910 C   0  0  0  0  0  0  0  0  0  0  0  0
   57.8100   28.4380   45.1770 C   0  0  0  0  0  0  0  0  0  0  0  0
   57.1270   28.5533   44.3225 H   0  0  0  0  0  0  0  0  0  0  0  0
   58.2210   25.9610   44.8860 C   0  0  0  0  0  0  0  0  0  0  0  0
   57.4150   25.6570   43.6580 C   0  0  0  0  0  0  0  0  0  0  0  0
   56.4236   25.2831   43.9534 H   0  0  0  0  0  0  0  0  0  0  0  0
   57.2982   26.5729   43.0600 H   0  0  0  0  0  0  0  0  0  0  0  0
   57.9321   24.8921   43.0600 H   0  0  0  0  0  0  0  0  0  0  0  0
   59.0100   25.0870   45.6440 C   0  0  0  0  0  0  0  0  0  0  0  0
   59.1970   23.6450   45.4100 C   0  0  0  0  0  0  0  0  0  0  0  0
   60.3150   23.1220   45.6700 O   0  0  0  0  0  0  0  0  0  0  0  0
   58.1260   22.8240   44.9190 N   0  0  0  0  0  0  0  0  0  0  0  0
   56.8280   22.8600   45.6040 C   0  0  0  0  0  0  0  0  0  0  0  0
   56.9669   22.5687   46.6556 H   0  0  0  0  0  0  0  0  0  0  0  0
   56.4234   23.8809   45.5400 H   0  0  0  0  0  0  0  0  0  0  0  0
   55.8370   21.8960   44.9420 C   0  0  0  0  0  0  0  0  0  0  0  0
   56.0592   20.8684   45.2654 H   0  0  0  0  0  0  0  0  0  0  0  0
   54.8150   22.1722   45.2408 H   0  0  0  0  0  0  0  0  0  0  0  0
   55.9460   21.9780   43.4810 N   0  0  0  0  0  0  0  0  0  0  0  0
   55.8030   22.9750   43.1920 H   0  0  0  0  0  0  0  0  0  0  0  0
   57.2590   21.5190   42.9890 C   0  0  0  0  0  0  0  0  0  0  0  0
   57.1877   20.4436   42.7687 H   0  0  0  0  0  0  0  0  0  0  0  0
   57.4909   22.1229   42.0993 H   0  0  0  0  0  0  0  0  0  0  0  0
   58.4200   21.7330   43.9840 C   0  0  0  0  0  0  0  0  0  0  0  0
   58.5790   20.8057   44.5539 H   0  0  0  0  0  0  0  0  0  0  0  0
   59.3221   21.9984   43.4132 H   0  0  0  0  0  0  0  0  0  0  0  0
   59.6360   25.7580   46.6400 N   0  0  0  0  0  0  0  0  0  0  0  0
   60.2940   25.3640   47.3490 H   0  0  0  0  0  0  0  0  0  0  0  0
   58.2460   33.9010   44.6720 C   0  0  0  0  0  0  0  0  0  0  0  0
   58.3576   34.7697   44.0066 H   0  0  0  0  0  0  0  0  0  0  0  0
   59.0530   33.8650   45.9160 C   0  0  0  0  0  0  0  0  0  0  0  0
   58.4710   33.7950   47.1960 C   0  0  0  0  0  0  0  0  0  0  0  0
   57.3759   33.7748   47.2978 H   0  0  0  0  0  0  0  0  0  0  0  0
   59.2750   33.7510   48.3380 C   0  0  0  0  0  0  0  0  0  0  0  0
   58.8090   33.7027   49.3333 H   0  0  0  0  0  0  0  0  0  0  0  0
   60.6680   33.7680   48.2230 C   0  0  0  0  0  0  0  0  0  0  0  0
   61.6440   33.7100   49.6840 Cl  0  0  0  0  0  0  0  0  0  0  0  0
   61.2610   33.8200   46.9520 C   0  0  0  0  0  0  0  0  0  0  0  0
   63.0090   33.8340   46.7610 Cl  0  0  0  0  0  0  0  0  0  0  0  0
   60.4540   33.8640   45.8080 C   0  0  0  0  0  0  0  0  0  0  0  0
   60.9225   33.8982   44.8133 H   0  0  0  0  0  0  0  0  0  0  0  0
  1  2  1  0
  2  3  1  0
  3  4  2  0
  3  5  1  0
  5  6  1  0
  5  7  1  0
  7  8  2  0
  8  9  1  0
  8 10  1  0
 10 11  1  0
 10 12  2  0
 12 13  1  0
 13 14  2  0
 14 15  1  0
 13 16  1  0
 16 17  1  0
 17 18  1  0
 17 19  1  0
 17 20  1  0
 16 21  2  0
 21 22  1  0
 22 23  2  0
 22 24  1  0
 24 25  1  0
 25 26  1  0
 25 27  1  0
 25 28  1  0
 28 29  1  0
 28 30  1  0
 28 31  1  0
 31 32  1  0
 31 33  1  0
 33 34  1  0
 33 35  1  0
 33 36  1  0
 36 37  1  0
 36 38  1  0
 21 39  1  0
 39 40  1  0
  2 41  2  0
 41 42  1  0
 41 43  1  0
 43 44  2  0
 44 45  1  0
 44 46  1  0
 46 47  1  0
 46 48  2  0
 48 49  1  0
 48 50  1  0
 50 51  1  0
 50 52  2  0
 52 53  1  0
 14  7  1  0
 36 24  1  0
 52 43  1  0
 39 12  1  0
M  END
>  <UniqueID>  (15) 
15

>  <SMILES>  (15) 
Cc1c(C(=O)N2CCNCC2)[nH]c2ccc(NC(=O)/C=C/c3ccc(Cl)c(Cl)c3)cc12

>  <Energy>  (15) 
102.49698022450546

>  <Genealogy>  (15) 
Cc1c(C(=O)N2CCNCC2)[nH]c2ccc(NC(=O)/C=C/c3ccc(Cl)c(Cl)c3)cc12 (cis-trans isomerization)
Cc1c(C(=O)N2CCNCC2)[nH]c2ccc(NC(=O)/C=C/c3ccc(Cl)c(Cl)c3)cc12 (3D coordinates assigned)
Cc1c(C(=O)N2CCNCC2)[nH]c2ccc(NC(=O)/C=C/c3ccc(Cl)c(Cl)c3)cc12 (nonaromatic ring conformer: 102.49698022450546 kcal/mol)

>  <smiles>  (15) 
Cc1c(C(=O)N2CCNCC2)[nH]c2ccc(NC(=O)C=Cc3ccc(Cl)c(Cl)c3)cc12

>  <score_type>  (15) 
oracle

>  <origin>  (15) 
adg

>  <m_score__min__energy>  (15) 
-10.949999999999999

>  <m_primary>  (15) 
energy

$$$$
15:0
     RDKit          3D

 50 52  0  0  0  0  0  0  0  0999 V2000
   56.5670   21.2930   50.1990 C   0  0  0  0  0  0  0  0  0  0  0  0
   57.3360   20.9250   49.0580 O   0  0  0  0  0  0  0  0  0  0  0  0
   56.9230   21.1130   47.7290 C   0  0  0  0  0  0  0  0  0  0  0  0
   57.3210   20.2580   46.6870 C   0  0  0  0  0  0  0  0  0  0  0  0
   56.8930   20.4920   45.3770 C   0  0  0  0  0  0  0  0  0  0  0  0
   56.0500   21.5810   45.0820 C   0  0  0  0  0  0  0  0  0  0  0  0
   55.6130   21.8430   43.7710 O   0  0  0  0  0  0  0  0  0  0  0  0
   56.3630   22.5630   42.7970 C   0  0  0  0  0  0  0  0  0  0  0  0
   55.6350   22.4320   46.1290 C   0  0  0  0  0  0  0  0  0  0  0  0
   54.7550   23.6290   45.8580 C   0  0  0  0  0  0  0  0  0  0  0  0
   55.5680   24.8100   45.3130 C   0  0  0  0  0  0  0  0  0  0  0  0
   56.0070   25.6890   46.3960 N   0  0  0  0  0  0  0  0  0  0  0  0
   57.1540   26.5490   46.3620 C   0  0  0  0  0  0  0  0  0  0  0  0
   57.7270   26.8300   47.4520 O   0  0  0  0  0  0  0  0  0  0  0  0
   57.6160   27.2100   45.0860 C   0  0  0  0  0  0  0  0  0  0  0  0
   57.5540   28.7050   45.1820 C   0  0  0  0  0  0  0  0  0  0  0  0
   58.8830   29.7220   45.3690 S   0  0  0  0  0  0  0  0  0  0  0  0
   57.9430   31.1200   45.2930 C   0  0  0  0  0  0  0  0  0  0  0  0
   58.4530   32.4580   45.3960 N   0  0  0  0  0  0  0  0  0  0  0  0
   59.4780   32.8490   46.3480 C   0  0  0  0  0  0  0  0  0  0  0  0
   59.5920   34.3640   46.2230 C   0  0  0  0  0  0  0  0  0  0  0  0
   58.9120   34.7310   44.9030 C   0  0  0  0  0  0  0  0  0  0  0  0
   58.0010   33.5560   44.5600 C   0  0  0  0  0  0  0  0  0  0  0  0
   56.6310   30.8390   45.1150 N   0  0  0  0  0  0  0  0  0  0  0  0
   56.4160   29.4970   45.0480 C   0  0  0  0  0  0  0  0  0  0  0  0
   55.1430   28.9710   44.8610 O   0  0  0  0  0  0  0  0  0  0  0  0
   56.0870   22.1950   47.4390 C   0  0  0  0  0  0  0  0  0  0  0  0
   57.1185   21.0291   51.1135 H   0  0  0  0  0  0  0  0  0  0  0  0
   56.3820   22.3772   50.1824 H   0  0  0  0  0  0  0  0  0  0  0  0
   55.6066   20.7569   50.1824 H   0  0  0  0  0  0  0  0  0  0  0  0
   57.9734   19.3993   46.9037 H   0  0  0  0  0  0  0  0  0  0  0  0
   57.2175   19.8195   44.5693 H   0  0  0  0  0  0  0  0  0  0  0  0
   57.0675   23.2393   43.3032 H   0  0  0  0  0  0  0  0  0  0  0  0
   56.9223   21.8549   42.1679 H   0  0  0  0  0  0  0  0  0  0  0  0
   55.6783   23.1507   42.1679 H   0  0  0  0  0  0  0  0  0  0  0  0
   53.9894   23.3503   45.1190 H   0  0  0  0  0  0  0  0  0  0  0  0
   54.2892   23.9376   46.8055 H   0  0  0  0  0  0  0  0  0  0  0  0
   56.4511   24.4243   44.7825 H   0  0  0  0  0  0  0  0  0  0  0  0
   54.9296   25.3887   44.6293 H   0  0  0  0  0  0  0  0  0  0  0  0
   58.6544   26.9085   44.8841 H   0  0  0  0  0  0  0  0  0  0  0  0
   56.9476   26.8906   44.2729 H   0  0  0  0  0  0  0  0  0  0  0  0
   59.1813   32.5686   47.3694 H   0  0  0  0  0  0  0  0  0  0  0  0
   60.4365   32.3491   46.1446 H   0  0  0  0  0  0  0  0  0  0  0  0
   59.0830   34.8562   47.0648 H   0  0  0  0  0  0  0  0  0  0  0  0
   60.6420   34.6916   46.2398 H   0  0  0  0  0  0  0  0  0  0  0  0
   58.3213   35.6515   45.0201 H   0  0  0  0  0  0  0  0  0  0  0  0
   59.6487   34.9160   44.1074 H   0  0  0  0  0  0  0  0  0  0  0  0
   56.9530   33.8038   44.7842 H   0  0  0  0  0  0  0  0  0  0  0  0
   58.0483   33.3013   43.4909 H   0  0  0  0  0  0  0  0  0  0  0  0
   55.7777   22.8721   48.2489 H   0  0  0  0  0  0  0  0  0  0  0  0
  1  2  1  0
  2  3  1  0
  3  4  2  0
  4  5  1  0
  5  6  2  0
  6  7  1  0
  7  8  1  0
  6  9  1  0
  9 10  1  0
 10 11  1  0
 11 12  1  0
 12 13  1  0
 13 14  2  0
 13 15  1  0
 15 16  1  0
 16 17  1  0
 17 18  1  0
 18 19  1  0
 19 20  1  0
 20 21  1  0
 21 22  1  0
 22 23  1  0
 18 24  2  0
 24 25  1  0
 25 26  1  0
  9 27  2  0
 27  3  1  0
 25 16  2  0
 23 19  1  0
  1 28  1  0
  1 29  1  0
  1 30  1  0
  4 31  1  0
  5 32  1  0
  8 33  1  0
  8 34  1  0
  8 35  1  0
 10 36  1  0
 10 37  1  0
 11 38  1  0
 11 39  1  0
 15 40  1  0
 15 41  1  0
 20 42  1  0
 20 43  1  0
 21 44  1  0
 21 45  1  0
 22 46  1  0
 22 47  1  0
 23 48  1  0
 23 49  1  0
 27 50  1  0
M  CHG  2  12  -1  26  -1
M  END
>  <UniqueID>  (16) 
16

>  <SMILES>  (16) 
COc1ccc(OC)c(CC[N-]C(=O)Cc2sc(N3CCCC3)nc2[O-])c1

>  <Energy>  (16) 
73.25722100137679

>  <Genealogy>  (16) 
COc1ccc(OC)c(CC[N-]C(=O)Cc2sc(N3CCCC3)nc2[O-])c1 (protonated)
COc1ccc(OC)c(CC[N-]C(=O)Cc2sc(N3CCCC3)nc2[O-])c1 (3D coordinates assigned)
COc1ccc(OC)c(CC[N-]C(=O)Cc2sc(N3CCCC3)nc2[O-])c1 (nonaromatic ring conformer: 73.25722100137679 kcal/mol)

>  <smiles>  (16) 
COc1ccc(OC)c(CCNC(=O)Cc2sc(N3CCCC3)nc2O)c1

>  <score_type>  (16) 
oracle

>  <origin>  (16) 
adg

>  <m_score__min__energy>  (16) 
-13.199999999999999

>  <m_primary>  (16) 
energy

$$$$
16:0
     RDKit          3D

 54 57  0  0  0  0  0  0  0  0999 V2000
   59.2298   35.2707   47.0112 H   0  0  0  0  0  0  0  0  0  0  0  0
   58.8560   34.4390   46.3960 C   0  0  0  0  0  0  0  0  0  0  0  0
   58.9330   34.5110   45.0030 C   0  0  0  0  0  0  0  0  0  0  0  0
   59.3680   35.3998   44.5225 H   0  0  0  0  0  0  0  0  0  0  0  0
   58.4580   33.4550   44.2180 C   0  0  0  0  0  0  0  0  0  0  0  0
   58.5171   33.5171   43.1213 H   0  0  0  0  0  0  0  0  0  0  0  0
   57.9060   32.3160   44.8260 C   0  0  0  0  0  0  0  0  0  0  0  0
   57.3760   31.1910   43.9770 C   0  0  0  0  0  0  0  0  0  0  0  0
   58.2155   30.5630   43.6439 H   0  0  0  0  0  0  0  0  0  0  0  0
   56.8524   31.6182   43.1090 H   0  0  0  0  0  0  0  0  0  0  0  0
   56.4340   30.3700   44.7390 N   0  0  0  0  0  0  0  0  0  0  0  0
   56.7440   29.2770   45.3700 C   0  0  0  0  0  0  0  0  0  0  0  0
   57.8590   29.2080   46.1490 N   0  0  0  0  0  0  0  0  0  0  0  0
   58.1720   28.0600   46.7990 C   0  0  0  0  0  0  0  0  0  0  0  0
   59.2200   28.0240   47.5700 N   0  0  0  0  0  0  0  0  0  0  0  0
   60.1060   29.1230   47.8480 C   0  0  0  0  0  0  0  0  0  0  0  0
   60.4750   29.4730   49.1610 C   0  0  0  0  0  0  0  0  0  0  0  0
   60.1026   28.8804   50.0096 H   0  0  0  0  0  0  0  0  0  0  0  0
   61.3110   30.5680   49.3930 C   0  0  0  0  0  0  0  0  0  0  0  0
   61.5739   30.8480   50.4238 H   0  0  0  0  0  0  0  0  0  0  0  0
   61.8180   31.3140   48.3130 C   0  0  0  0  0  0  0  0  0  0  0  0
   62.6480   32.4310   48.4930 O   0  0  0  0  0  0  0  0  0  0  0  0
   63.2880   33.1340   47.4330 C   0  0  0  0  0  0  0  0  0  0  0  0
   63.9726   33.8859   47.8525 H   0  0  0  0  0  0  0  0  0  0  0  0
   63.8571   32.4249   46.8138 H   0  0  0  0  0  0  0  0  0  0  0  0
   62.5288   33.6342   46.8138 H   0  0  0  0  0  0  0  0  0  0  0  0
   61.4880   30.9330   47.0070 C   0  0  0  0  0  0  0  0  0  0  0  0
   61.8948   31.4981   46.1554 H   0  0  0  0  0  0  0  0  0  0  0  0
   60.6470   29.8420   46.7750 C   0  0  0  0  0  0  0  0  0  0  0  0
   60.4082   29.5458   45.7429 H   0  0  0  0  0  0  0  0  0  0  0  0
   57.3570   26.9820   46.6730 N   0  0  0  0  0  0  0  0  0  0  0  0
   56.2410   27.0380   45.9020 C   0  0  0  0  0  0  0  0  0  0  0  0
   55.4830   25.9910   45.7460 N   0  0  0  0  0  0  0  0  0  0  0  0
   55.8110   24.6430   46.1280 C   0  0  0  0  0  0  0  0  0  0  0  0
   55.4870   23.5960   45.2570 C   0  0  0  0  0  0  0  0  0  0  0  0
   54.9695   23.8127   44.3108 H   0  0  0  0  0  0  0  0  0  0  0  0
   55.8170   22.2760   45.5820 C   0  0  0  0  0  0  0  0  0  0  0  0
   55.5683   21.4615   44.8858 H   0  0  0  0  0  0  0  0  0  0  0  0
   56.4630   21.9880   46.7910 C   0  0  0  0  0  0  0  0  0  0  0  0
   56.8850   20.3270   47.1950 S   0  0  0  0  0  0  0  0  0  0  0  0
   55.6350   19.5350   47.4630 O   0  0  0  0  0  0  0  0  0  0  0  0
   57.7400   20.3080   48.4310 O   0  0  0  0  0  0  0  0  0  0  0  0
   57.7510   19.6100   45.8820 N   0  0  0  0  0  0  0  0  0  0  0  0
   57.0890   19.5470   45.0760 H   0  0  0  0  0  0  0  0  0  0  0  0
   58.4970   20.2860   45.6050 H   0  0  0  0  0  0  0  0  0  0  0  0
   56.7440   23.0250   47.6890 C   0  0  0  0  0  0  0  0  0  0  0  0
   57.2283   22.8011   48.6509 H   0  0  0  0  0  0  0  0  0  0  0  0
   56.4110   24.3440   47.3670 C   0  0  0  0  0  0  0  0  0  0  0  0
   56.6184   25.1519   48.0842 H   0  0  0  0  0  0  0  0  0  0  0  0
   55.9420   28.1870   45.2470 N   0  0  0  0  0  0  0  0  0  0  0  0
   57.8290   32.2510   46.2280 C   0  0  0  0  0  0  0  0  0  0  0  0
   57.3939   31.3647   46.7129 H   0  0  0  0  0  0  0  0  0  0  0  0
   58.3040   33.3100   47.0080 C   0  0  0  0  0  0  0  0  0  0  0  0
   58.2432   33.2545   48.1049 H   0  0  0  0  0  0  0  0  0  0  0  0
  1  2  1  0
  2  3  2  0
  3  4  1  0
  3  5  1  0
  5  6  1  0
  5  7  2  0
  7  8  1  0
  8  9  1  0
  8 10  1  0
  8 11  1  0
 11 12  2  0
 12 13  1  0
 13 14  1  0
 14 15  2  3
 15 16  1  0
 16 17  2  0
 17 18  1  0
 17 19  1  0
 19 20  1  0
 19 21  2  0
 21 22  1  0
 22 23  1  0
 23 24  1  0
 23 25  1  0
 23 26  1  0
 21 27  1  0
 27 28  1  0
 27 29  2  0
 29 30  1  0
 14 31  1  0
 31 32  1  0
 32 33  2  3
 33 34  1  0
 34 35  2  0
 35 36  1  0
 35 37  1  0
 37 38  1  0
 37 39  2  0
 39 40  1  0
 40 41  2  0
 40 42  2  0
 40 43  1  0
 43 44  1  0
 43 45  1  0
 39 46  1  0
 46 47  1  0
 46 48  2  0
 48 49  1  0
 32 50  1  0
  7 51  1  0
 51 52  1  0
 51 53  2  0
 53 54  1  0
 53  2  1  0
 50 12  1  0
 29 16  1  0
 48 34  1  0
M  CHG  3  13  -1  31  -1  50  -1
M  END
>  <UniqueID>  (17) 
17

>  <SMILES>  (17) 
COc1ccc(N=c2[n-]c(=Nc3ccc(S(N)(=O)=O)cc3)[n-]/c(=N/Cc3ccccc3)[n-]2)cc1

>  <Energy>  (17) 
66.37633914406736

>  <Genealogy>  (17) 
COc1ccc(N=c2[n-]c(=NCc3ccccc3)[n-]c(=Nc3ccc(S(N)(=O)=O)cc3)[n-]2)cc1 (protonated)
COc1ccc(N=c2[n-]c(=Nc3ccc(S(N)(=O)=O)cc3)[n-]/c(=N/Cc3ccccc3)[n-]2)cc1 (cis-trans isomerization)
COc1ccc(N=c2[n-]c(=Nc3ccc(S(N)(=O)=O)cc3)[n-]/c(=N/Cc3ccccc3)[n-]2)cc1 (3D coordinates assigned)
COc1ccc(N=c2[n-]c(=Nc3ccc(S(N)(=O)=O)cc3)[n-]/c(=N/Cc3ccccc3)[n-]2)cc1 (optimized conformer: 66.37633914406736 kcal/mol)

>  <smiles>  (17) 
COc1ccc(N=c2[nH]c(=NCc3ccccc3)[nH]c(=Nc3ccc(S(N)(=O)=O)cc3)[nH]2)cc1

>  <score_type>  (17) 
oracle

>  <origin>  (17) 
adg

>  <m_score__min__energy>  (17) 
-15.130000000000001

>  <m_primary>  (17) 
energy

$$$$
17:0
     RDKit          3D

 44 46  0  0  0  0  0  0  0  0999 V2000
   61.1440   28.6700   44.8300 C   0  0  0  0  0  0  0  0  0  0  0  0
   60.2140   29.5460   45.4580 O   0  0  0  0  0  0  0  0  0  0  0  0
   60.3590   30.0710   46.7520 C   0  0  0  0  0  0  0  0  0  0  0  0
   61.4650   30.8710   47.1060 C   0  0  0  0  0  0  0  0  0  0  0  0
   61.5660   31.4110   48.3910 C   0  0  0  0  0  0  0  0  0  0  0  0
   60.5680   31.1660   49.3340 C   0  0  0  0  0  0  0  0  0  0  0  0
   59.4710   30.3720   48.9980 C   0  0  0  0  0  0  0  0  0  0  0  0
   59.3610   29.8080   47.7200 C   0  0  0  0  0  0  0  0  0  0  0  0
   58.2340   29.0170   47.4440 O   0  0  0  0  0  0  0  0  0  0  0  0
   58.2350   27.8500   46.6660 C   0  0  0  0  0  0  0  0  0  0  0  0
   58.5210   26.6670   47.2750 N   0  0  0  0  0  0  0  0  0  0  0  0
   58.5160   25.4860   46.6010 C   0  0  0  0  0  0  0  0  0  0  0  0
   58.2200   25.4610   45.2400 C   0  0  0  0  0  0  0  0  0  0  0  0
   57.9530   26.6590   44.5770 C   0  0  0  0  0  0  0  0  0  0  0  0
   57.9560   27.8740   45.2810 C   0  0  0  0  0  0  0  0  0  0  0  0
   57.7930   29.1230   44.5890 N   0  0  0  0  0  0  0  0  0  0  0  0
   56.5230   29.7600   44.3830 C   0  0  0  0  0  0  0  0  0  0  0  0
   55.4750   29.2890   44.9010 O   0  0  0  0  0  0  0  0  0  0  0  0
   56.4560   31.0500   43.6340 C   0  0  0  0  0  0  0  0  0  0  0  0
   58.1490   31.5790   43.2160 S   0  0  0  0  0  0  0  0  0  0  0  0
   58.3300   32.6340   44.6550 C   0  0  0  0  0  0  0  0  0  0  0  0
   59.0230   33.8470   44.5580 C   0  0  0  0  0  0  0  0  0  0  0  0
   59.1620   34.6670   45.6830 C   0  0  0  0  0  0  0  0  0  0  0  0
   58.6070   34.2750   46.9060 C   0  0  0  0  0  0  0  0  0  0  0  0
   57.9090   33.0670   47.0050 C   0  0  0  0  0  0  0  0  0  0  0  0
   57.7680   32.2470   45.8790 C   0  0  0  0  0  0  0  0  0  0  0  0
   61.7166   28.1307   45.5990 H   0  0  0  0  0  0  0  0  0  0  0  0
   60.6012   27.9474   44.2029 H   0  0  0  0  0  0  0  0  0  0  0  0
   61.8328   29.2550   44.2029 H   0  0  0  0  0  0  0  0  0  0  0  0
   62.2536   31.0714   46.3657 H   0  0  0  0  0  0  0  0  0  0  0  0
   62.4344   32.0306   48.6593 H   0  0  0  0  0  0  0  0  0  0  0  0
   60.6457   31.5986   50.3424 H   0  0  0  0  0  0  0  0  0  0  0  0
   58.6843   30.1868   49.7442 H   0  0  0  0  0  0  0  0  0  0  0  0
   58.7458   24.5498   47.1308 H   0  0  0  0  0  0  0  0  0  0  0  0
   58.1970   24.5065   44.6938 H   0  0  0  0  0  0  0  0  0  0  0  0
   57.7392   26.6518   43.4980 H   0  0  0  0  0  0  0  0  0  0  0  0
   58.6520   29.6390   44.2940 H   0  0  0  0  0  0  0  0  0  0  0  0
   55.8741   30.9111   42.7109 H   0  0  0  0  0  0  0  0  0  0  0  0
   55.9688   31.8163   44.2548 H   0  0  0  0  0  0  0  0  0  0  0  0
   59.4586   34.1555   43.5962 H   0  0  0  0  0  0  0  0  0  0  0  0
   59.7073   35.6192   45.6060 H   0  0  0  0  0  0  0  0  0  0  0  0
   58.7198   34.9180   47.7913 H   0  0  0  0  0  0  0  0  0  0  0  0
   57.4712   32.7615   47.9668 H   0  0  0  0  0  0  0  0  0  0  0  0
   57.2159   31.2986   45.9551 H   0  0  0  0  0  0  0  0  0  0  0  0
  1  2  1  0
  2  3  1  0
  3  4  2  0
  4  5  1  0
  5  6  2  0
  6  7  1  0
  7  8  2  0
  8  9  1  0
  9 10  1  0
 10 11  2  0
 11 12  1  0
 12 13  2  0
 13 14  1  0
 14 15  2  0
 15 16  1  0
 16 17  1  0
 17 18  2  0
 17 19  1  0
 19 20  1  0
 20 21  1  0
 21 22  2  0
 22 23  1  0
 23 24  2  0
 24 25  1  0
 25 26  2  0
  8  3  1  0
 15 10  1  0
 26 21  1  0
  1 27  1  0
  1 28  1  0
  1 29  1  0
  4 30  1  0
  5 31  1  0
  6 32  1  0
  7 33  1  0
 12 34  1  0
 13 35  1  0
 14 36  1  0
 16 37  1  0
 19 38  1  0
 19 39  1  0
 22 40  1  0
 23 41  1  0
 24 42  1  0
 25 43  1  0
 26 44  1  0
M  END
>  <UniqueID>  (18) 
18

>  <SMILES>  (18) 
COc1ccccc1Oc1ncccc1NC(=O)CSc1ccccc1

>  <Energy>  (18) 
50.93641650276742

>  <Genealogy>  (18) 
COc1ccccc1Oc1ncccc1NC(=O)CSc1ccccc1 (3D coordinates assigned)
COc1ccccc1Oc1ncccc1NC(=O)CSc1ccccc1 (optimized conformer: 50.93641650276742 kcal/mol)

>  <smiles>  (18) 
COc1ccccc1Oc1ncccc1NC(=O)CSc1ccccc1

>  <score_type>  (18) 
oracle

>  <origin>  (18) 
adg

>  <m_score__min__energy>  (18) 
-8.4100000000000001

>  <m_primary>  (18) 
energy

$$$$
18:0
     RDKit          3D

 39 41  0  0  0  0  0  0  0  0999 V2000
   55.1190   26.3310   46.9330 H   0  0  0  0  0  0  0  0  0  0  0  0
   55.4100   26.4850   45.9750 O   0  0  0  0  0  0  0  0  0  0  0  0
   56.2740   27.5250   45.6500 C   0  0  0  0  0  0  0  0  0  0  0  0
   55.7800   28.7060   45.1940 N   0  0  0  0  0  0  0  0  0  0  0  0
   56.5910   29.7420   44.8580 C   0  0  0  0  0  0  0  0  0  0  0  0
   56.0840   30.8150   44.4370 O   0  0  0  0  0  0  0  0  0  0  0  0
   57.9840   29.6120   44.9710 C   0  0  0  0  0  0  0  0  0  0  0  0
   58.8320   30.7110   44.6110 N   0  0  0  0  0  0  0  0  0  0  0  0
   58.6600   31.9280   45.0340 C   0  0  0  0  0  0  0  0  0  0  0  0
   59.2080   32.3770   46.1810 N   0  0  0  0  0  0  0  0  0  0  0  0
   58.8740   33.6740   46.4210 C   0  0  0  0  0  0  0  0  0  0  0  0
   59.4100   34.4180   47.6040 C   0  0  0  0  0  0  0  0  0  0  0  0
   58.7366   34.2721   48.4615 H   0  0  0  0  0  0  0  0  0  0  0  0
   59.4750   35.4881   47.3579 H   0  0  0  0  0  0  0  0  0  0  0  0
   60.7800   33.9090   47.9550 C   0  0  0  0  0  0  0  0  0  0  0  0
   61.7800   33.8280   46.9730 C   0  0  0  0  0  0  0  0  0  0  0  0
   61.5693   34.1680   45.9483 H   0  0  0  0  0  0  0  0  0  0  0  0
   63.0410   33.3180   47.2900 C   0  0  0  0  0  0  0  0  0  0  0  0
   63.8206   33.2668   46.5157 H   0  0  0  0  0  0  0  0  0  0  0  0
   63.3200   32.8690   48.5950 C   0  0  0  0  0  0  0  0  0  0  0  0
   64.5690   32.3490   48.9630 O   0  0  0  0  0  0  0  0  0  0  0  0
   65.3860   32.8810   50.0010 C   0  0  0  0  0  0  0  0  0  0  0  0
   64.9629   32.6055   50.9783 H   0  0  0  0  0  0  0  0  0  0  0  0
   66.4032   32.4716   49.9133 H   0  0  0  0  0  0  0  0  0  0  0  0
   65.4230   33.9769   49.9133 H   0  0  0  0  0  0  0  0  0  0  0  0
   62.3160   32.9390   49.5690 C   0  0  0  0  0  0  0  0  0  0  0  0
   62.5226   32.5900   50.5915 H   0  0  0  0  0  0  0  0  0  0  0  0
   61.0530   33.4490   49.2520 C   0  0  0  0  0  0  0  0  0  0  0  0
   60.2698   33.4897   50.0233 H   0  0  0  0  0  0  0  0  0  0  0  0
   58.0660   34.2680   45.4520 C   0  0  0  0  0  0  0  0  0  0  0  0
   57.7027   35.3062   45.4617 H   0  0  0  0  0  0  0  0  0  0  0  0
   57.7440   33.1200   44.2660 S   0  0  0  0  0  0  0  0  0  0  0  0
   58.5210   28.4080   45.4770 C   0  0  0  0  0  0  0  0  0  0  0  0
   60.0050   28.2220   45.6420 C   0  0  0  0  0  0  0  0  0  0  0  0
   60.2538   28.1908   46.7130 H   0  0  0  0  0  0  0  0  0  0  0  0
   60.3114   27.2784   45.1668 H   0  0  0  0  0  0  0  0  0  0  0  0
   60.5347   29.0608   45.1668 H   0  0  0  0  0  0  0  0  0  0  0  0
   57.6520   27.3540   45.7960 C   0  0  0  0  0  0  0  0  0  0  0  0
   58.0544   26.3970   46.1596 H   0  0  0  0  0  0  0  0  0  0  0  0
  1  2  1  0
  2  3  1  0
  3  4  1  0
  4  5  1  0
  5  6  2  0
  5  7  1  0
  7  8  1  0
  8  9  2  0
  9 10  1  0
 10 11  1  0
 11 12  1  0
 12 13  1  0
 12 14  1  0
 12 15  1  0
 15 16  2  0
 16 17  1  0
 16 18  1  0
 18 19  1  0
 18 20  2  0
 20 21  1  0
 21 22  1  0
 22 23  1  0
 22 24  1  0
 22 25  1  0
 20 26  1  0
 26 27  1  0
 26 28  2  0
 28 29  1  0
 11 30  2  0
 30 31  1  0
 30 32  1  0
  7 33  2  0
 33 34  1  0
 34 35  1  0
 34 36  1  0
 34 37  1  0
 33 38  1  0
 38 39  1  0
 38  3  2  0
 32  9  1  0
 28 15  1  0
M  CHG  2   4  -1  10  -1
M  END
>  <UniqueID>  (19) 
19

>  <SMILES>  (19) 
COc1ccc(Cc2cs/c(=N\c3c(C)cc(O)[n-]c3=O)[n-]2)cc1

>  <Energy>  (19) 
77.90724169035047

>  <Genealogy>  (19) 
COc1ccc(Cc2csc(=Nc3c(C)cc(O)[n-]c3=O)[n-]2)cc1 (protonated)
COc1ccc(Cc2cs/c(=N\c3c(C)cc(O)[n-]c3=O)[n-]2)cc1 (cis-trans isomerization)
COc1ccc(Cc2cs/c(=N\c3c(C)cc(O)[n-]c3=O)[n-]2)cc1 (3D coordinates assigned)
COc1ccc(Cc2cs/c(=N\c3c(C)cc(O)[n-]c3=O)[n-]2)cc1 (optimized conformer: 77.90724169035047 kcal/mol)

>  <smiles>  (19) 
COc1ccc(Cc2csc(=Nc3c(C)cc(O)[nH]c3=O)[nH]2)cc1

>  <score_type>  (19) 
oracle

>  <origin>  (19) 
adg

>  <m_score__min__energy>  (19) 
-12.380000000000001

>  <m_primary>  (19) 
energy

$$$$
19:0
     RDKit          3D

 36 37  0  0  0  0  0  0  0  0999 V2000
   62.8640   32.5230   47.5000 C   0  0  0  0  0  0  0  0  0  0  0  0
   61.5740   32.0160   47.8290 O   0  0  0  0  0  0  0  0  0  0  0  0
   60.6830   31.4550   46.9020 C   0  0  0  0  0  0  0  0  0  0  0  0
   60.7700   30.1140   46.4910 C   0  0  0  0  0  0  0  0  0  0  0  0
   59.8600   29.6010   45.5660 C   0  0  0  0  0  0  0  0  0  0  0  0
   58.8550   30.4170   45.0250 C   0  0  0  0  0  0  0  0  0  0  0  0
   57.8590   29.8290   44.0590 C   0  0  0  0  0  0  0  0  0  0  0  0
   56.4900   29.8590   44.6600 C   0  0  0  0  0  0  0  0  0  0  0  0
   55.9130   30.9630   44.8520 O   0  0  0  0  0  0  0  0  0  0  0  0
   55.8490   28.6290   45.0170 N   0  0  0  0  0  0  0  0  0  0  0  0
   56.5010   27.5070   45.6260 C   0  0  0  0  0  0  0  0  0  0  0  0
   57.8840   27.5700   45.8410 C   0  0  0  0  0  0  0  0  0  0  0  0
   58.5570   26.5020   46.4430 C   0  0  0  0  0  0  0  0  0  0  0  0
   57.8470   25.3700   46.8520 C   0  0  0  0  0  0  0  0  0  0  0  0
   56.4620   25.3110   46.6730 C   0  0  0  0  0  0  0  0  0  0  0  0
   55.7820   26.3790   46.0760 C   0  0  0  0  0  0  0  0  0  0  0  0
   54.3980   26.3230   45.9690 O   0  0  0  0  0  0  0  0  0  0  0  0
   58.7500   31.7600   45.4400 C   0  0  0  0  0  0  0  0  0  0  0  0
   57.7190   32.5560   44.9120 O   0  0  0  0  0  0  0  0  0  0  0  0
   57.4260   33.8840   45.3330 C   0  0  0  0  0  0  0  0  0  0  0  0
   59.6750   32.2680   46.3740 C   0  0  0  0  0  0  0  0  0  0  0  0
   63.4189   32.7411   48.4244 H   0  0  0  0  0  0  0  0  0  0  0  0
   63.4131   31.7738   46.9108 H   0  0  0  0  0  0  0  0  0  0  0  0
   62.7560   33.4456   46.9108 H   0  0  0  0  0  0  0  0  0  0  0  0
   61.5590   29.4659   46.9003 H   0  0  0  0  0  0  0  0  0  0  0  0
   59.9312   28.5474   45.2582 H   0  0  0  0  0  0  0  0  0  0  0  0
   57.8622   30.4163   43.1289 H   0  0  0  0  0  0  0  0  0  0  0  0
   58.1367   28.7871   43.8412 H   0  0  0  0  0  0  0  0  0  0  0  0
   58.4443   28.4655   45.5342 H   0  0  0  0  0  0  0  0  0  0  0  0
   59.6453   26.5531   46.5946 H   0  0  0  0  0  0  0  0  0  0  0  0
   58.3781   24.5252   47.3149 H   0  0  0  0  0  0  0  0  0  0  0  0
   55.9043   24.4220   47.0025 H   0  0  0  0  0  0  0  0  0  0  0  0
   57.4166   33.9265   46.4321 H   0  0  0  0  0  0  0  0  0  0  0  0
   58.1945   34.5693   44.9461 H   0  0  0  0  0  0  0  0  0  0  0  0
   56.4404   34.1823   44.9461 H   0  0  0  0  0  0  0  0  0  0  0  0
   59.6032   33.3185   46.6921 H   0  0  0  0  0  0  0  0  0  0  0  0
  1  2  1  0
  2  3  1  0
  3  4  2  0
  4  5  1  0
  5  6  2  0
  6  7  1  0
  7  8  1  0
  8  9  2  0
  8 10  1  0
 10 11  1  0
 11 12  2  0
 12 13  1  0
 13 14  2  0
 14 15  1  0
 15 16  2  0
 16 17  1  0
  6 18  1  0
 18 19  1  0
 19 20  1  0
 18 21  2  0
 21  3  1  0
 16 11  1  0
  1 22  1  0
  1 23  1  0
  1 24  1  0
  4 25  1  0
  5 26  1  0
  7 27  1  0
  7 28  1  0
 12 29  1  0
 13 30  1  0
 14 31  1  0
 15 32  1  0
 20 33  1  0
 20 34  1  0
 20 35  1  0
 21 36  1  0
M  CHG  2  10  -1  17  -1
M  END
>  <UniqueID>  (20) 
20

>  <SMILES>  (20) 
COc1ccc(CC(=O)[N-]c2ccccc2[O-])c(OC)c1

>  <Energy>  (20) 
39.01114966635339

>  <Genealogy>  (20) 
COc1ccc(CC(=O)[N-]c2ccccc2[O-])c(OC)c1 (protonated)
COc1ccc(CC(=O)[N-]c2ccccc2[O-])c(OC)c1 (3D coordinates assigned)
COc1ccc(CC(=O)[N-]c2ccccc2[O-])c(OC)c1 (optimized conformer: 39.01114966635339 kcal/mol)

>  <smiles>  (20) 
COc1ccc(CC(=O)Nc2ccccc2O)c(OC)c1

>  <score_type>  (20) 
oracle

>  <origin>  (20) 
adg

>  <m_score__min__energy>  (20) 
-13

>  <m_primary>  (20) 
energy

$$$$
20:0
     RDKit          3D

 53 56  0  0  0  0  0  0  0  0999 V2000
   64.4670   33.0990   49.0270 C   0  0  0  0  0  0  0  0  0  0  0  0
   63.0990   32.5710   48.9160 N   0  0  0  0  0  0  0  0  0  0  0  0
   62.9260   31.3940   49.7770 C   0  0  0  0  0  0  0  0  0  0  0  0
   61.4380   30.9950   49.8230 C   0  0  0  0  0  0  0  0  0  0  0  0
   60.7100   31.2910   48.5680 N   0  0  0  0  0  0  0  0  0  0  0  0
   59.7740   32.7680   48.6790 S   0  0  0  0  0  0  0  0  0  0  0  0
   60.6130   33.8740   49.2560 O   0  0  0  0  0  0  0  0  0  0  0  0
   58.5700   32.5720   49.5600 O   0  0  0  0  0  0  0  0  0  0  0  0
   59.2550   33.2420   47.0650 C   0  0  0  0  0  0  0  0  0  0  0  0
   59.3850   34.5700   46.6340 C   0  0  0  0  0  0  0  0  0  0  0  0
   58.9640   34.9380   45.3550 C   0  0  0  0  0  0  0  0  0  0  0  0
   58.4080   33.9850   44.4970 C   0  0  0  0  0  0  0  0  0  0  0  0
   58.2660   32.6530   44.9200 C   0  0  0  0  0  0  0  0  0  0  0  0
   57.6960   31.6130   43.9940 C   0  0  0  0  0  0  0  0  0  0  0  0
   56.4480   31.0830   44.5330 N   0  0  0  0  0  0  0  0  0  0  0  0
   56.2380   29.6990   44.8310 C   0  0  0  0  0  0  0  0  0  0  0  0
   55.1430   29.1460   44.5390 O   0  0  0  0  0  0  0  0  0  0  0  0
   57.2740   28.9400   45.4650 N   0  0  0  0  0  0  0  0  0  0  0  0
   57.9980   29.3890   46.6560 C   0  0  0  0  0  0  0  0  0  0  0  0
   58.9440   28.2760   46.9060 C   0  0  0  0  0  0  0  0  0  0  0  0
   59.8910   28.1620   47.9240 C   0  0  0  0  0  0  0  0  0  0  0  0
   60.6810   27.0020   47.9550 C   0  0  0  0  0  0  0  0  0  0  0  0
   60.5130   26.0280   47.0100 N   0  0  0  0  0  0  0  0  0  0  0  0
   59.5870   26.1410   46.0150 C   0  0  0  0  0  0  0  0  0  0  0  0
   58.7930   27.2860   45.9660 C   0  0  0  0  0  0  0  0  0  0  0  0
   57.7330   27.6330   44.9910 C   0  0  0  0  0  0  0  0  0  0  0  0
   58.6910   32.2880   46.2070 C   0  0  0  0  0  0  0  0  0  0  0  0
   61.5850   31.2800   47.3810 C   0  0  0  0  0  0  0  0  0  0  0  0
   62.7790   32.2510   47.5080 C   0  0  0  0  0  0  0  0  0  0  0  0
   64.7351   33.2025   50.0888 H   0  0  0  0  0  0  0  0  0  0  0  0
   65.1680   32.4068   48.5376 H   0  0  0  0  0  0  0  0  0  0  0  0
   64.5212   34.0826   48.5376 H   0  0  0  0  0  0  0  0  0  0  0  0
   63.5162   30.5574   49.3748 H   0  0  0  0  0  0  0  0  0  0  0  0
   63.2692   31.6344   50.7941 H   0  0  0  0  0  0  0  0  0  0  0  0
   61.3728   29.9142   50.0172 H   0  0  0  0  0  0  0  0  0  0  0  0
   60.9670   31.5900   50.6193 H   0  0  0  0  0  0  0  0  0  0  0  0
   59.8202   35.3243   47.3060 H   0  0  0  0  0  0  0  0  0  0  0  0
   59.0701   35.9808   45.0215 H   0  0  0  0  0  0  0  0  0  0  0  0
   58.0810   34.2786   43.4886 H   0  0  0  0  0  0  0  0  0  0  0  0
   57.5022   32.0689   43.0119 H   0  0  0  0  0  0  0  0  0  0  0  0
   58.4191   30.7904   43.8921 H   0  0  0  0  0  0  0  0  0  0  0  0
   58.5351   30.3291   46.4619 H   0  0  0  0  0  0  0  0  0  0  0  0
   57.3394   29.6005   47.5113 H   0  0  0  0  0  0  0  0  0  0  0  0
   60.0145   28.9543   48.6770 H   0  0  0  0  0  0  0  0  0  0  0  0
   61.4383   26.8760   48.7428 H   0  0  0  0  0  0  0  0  0  0  0  0
   59.4689   25.3443   45.2658 H   0  0  0  0  0  0  0  0  0  0  0  0
   58.1393   27.7014   43.9711 H   0  0  0  0  0  0  0  0  0  0  0  0
   56.9303   26.8831   44.9341 H   0  0  0  0  0  0  0  0  0  0  0  0
   58.5807   31.2468   46.5443 H   0  0  0  0  0  0  0  0  0  0  0  0
   61.9744   30.2608   47.2410 H   0  0  0  0  0  0  0  0  0  0  0  0
   60.9815   31.6082   46.5219 H   0  0  0  0  0  0  0  0  0  0  0  0
   63.6614   31.7885   47.0416 H   0  0  0  0  0  0  0  0  0  0  0  0
   62.5025   33.1897   47.0055 H   0  0  0  0  0  0  0  0  0  0  0  0
  1  2  1  0
  2  3  1  0
  3  4  1  0
  4  5  1  0
  5  6  1  0
  6  7  2  0
  6  8  2  0
  6  9  1  0
  9 10  2  0
 10 11  1  0
 11 12  2  0
 12 13  1  0
 13 14  1  0
 14 15  1  0
 15 16  1  0
 16 17  2  0
 16 18  1  0
 18 19  1  0
 19 20  1  0
 20 21  2  0
 21 22  1  0
 22 23  2  0
 23 24  1  0
 24 25  2  0
 25 26  1  0
 13 27  2  0
  5 28  1  0
 28 29  1  0
 29  2  1  0
 27  9  1  0
 26 18  1  0
 25 20  1  0
  1 30  1  0
  1 31  1  0
  1 32  1  0
  3 33  1  0
  3 34  1  0
  4 35  1  0
  4 36  1  0
 10 37  1  0
 11 38  1  0
 12 39  1  0
 14 40  1  0
 14 41  1  0
 19 42  1  0
 19 43  1  0
 21 44  1  0
 22 45  1  0
 24 46  1  0
 26 47  1  0
 26 48  1  0
 27 49  1  0
 28 50  1  0
 28 51  1  0
 29 52  1  0
 29 53  1  0
M  CHG  1  15  -1
M  END
>  <UniqueID>  (21) 
21

>  <SMILES>  (21) 
CN1CCN(S(=O)(=O)c2cccc(C[N-]C(=O)N3Cc4ccncc4C3)c2)CC1

>  <Energy>  (21) 
72.93533027174601

>  <Genealogy>  (21) 
CN1CCN(S(=O)(=O)c2cccc(C[N-]C(=O)N3Cc4ccncc4C3)c2)CC1 (protonated)
CN1CCN(S(=O)(=O)c2cccc(C[N-]C(=O)N3Cc4ccncc4C3)c2)CC1 (3D coordinates assigned)
CN1CCN(S(=O)(=O)c2cccc(C[N-]C(=O)N3Cc4ccncc4C3)c2)CC1 (nonaromatic ring conformer: 72.93533027174601 kcal/mol)

>  <smiles>  (21) 
CN1CCN(S(=O)(=O)c2cccc(CNC(=O)N3Cc4ccncc4C3)c2)CC1

>  <score_type>  (21) 
oracle

>  <origin>  (21) 
adg

>  <m_score__min__energy>  (21) 
-10.66

>  <m_primary>  (21) 
energy

$$$$
21:0
     RDKit          3D

 28 29  0  0  0  0  0  0  0  0999 V2000
   55.1260   29.7780   43.1260 O   0  0  0  0  0  0  0  0  0  0  0  0
   55.8530   29.9460   44.1410 C   0  0  0  0  0  0  0  0  0  0  0  0
   55.7730   28.9940   45.2100 N   0  0  0  0  0  0  0  0  0  0  0  0
   56.6280   27.8580   45.4020 C   0  0  0  0  0  0  0  0  0  0  0  0
   57.9950   27.9950   45.1260 C   0  0  0  0  0  0  0  0  0  0  0  0
   58.8660   26.9160   45.3040 C   0  0  0  0  0  0  0  0  0  0  0  0
   58.3740   25.6860   45.7470 C   0  0  0  0  0  0  0  0  0  0  0  0
   59.4680   24.3330   45.9740 Cl  0  0  0  0  0  0  0  0  0  0  0  0
   57.0070   25.5290   45.9960 C   0  0  0  0  0  0  0  0  0  0  0  0
   56.1290   26.6030   45.8130 C   0  0  0  0  0  0  0  0  0  0  0  0
   54.7680   26.4040   46.0140 O   0  0  0  0  0  0  0  0  0  0  0  0
   56.7840   31.0950   44.1730 C   0  0  0  0  0  0  0  0  0  0  0  0
   57.3980   31.5780   43.0060 C   0  0  0  0  0  0  0  0  0  0  0  0
   58.2690   32.6640   43.0890 C   0  0  0  0  0  0  0  0  0  0  0  0
   58.5120   33.2730   44.3200 C   0  0  0  0  0  0  0  0  0  0  0  0
   59.3890   34.3490   44.3990 O   0  0  0  0  0  0  0  0  0  0  0  0
   57.8600   32.7880   45.4660 C   0  0  0  0  0  0  0  0  0  0  0  0
   58.1040   33.3980   46.8150 C   0  0  0  0  0  0  0  0  0  0  0  0
   58.3550   34.7700   46.6880 O   0  0  0  0  0  0  0  0  0  0  0  0
   57.0250   31.7180   45.3600 N   0  0  0  0  0  0  0  0  0  0  0  0
   58.3856   28.9585   44.7667 H   0  0  0  0  0  0  0  0  0  0  0  0
   59.9393   27.0357   45.0951 H   0  0  0  0  0  0  0  0  0  0  0  0
   56.6204   24.5573   46.3371 H   0  0  0  0  0  0  0  0  0  0  0  0
   57.1937   31.1038   42.0347 H   0  0  0  0  0  0  0  0  0  0  0  0
   58.7650   33.0408   42.1824 H   0  0  0  0  0  0  0  0  0  0  0  0
   57.2164   33.2481   47.4473 H   0  0  0  0  0  0  0  0  0  0  0  0
   58.9788   32.9144   47.2743 H   0  0  0  0  0  0  0  0  0  0  0  0
   58.7750   34.9000   45.7980 H   0  0  0  0  0  0  0  0  0  0  0  0
  1  2  2  0
  2  3  1  0
  3  4  1  0
  4  5  2  0
  5  6  1  0
  6  7  2  0
  7  8  1  0
  7  9  1  0
  9 10  2  0
 10 11  1  0
  2 12  1  0
 12 13  2  0
 13 14  1  0
 14 15  2  0
 15 16  1  0
 15 17  1  0
 17 18  1  0
 18 19  1  0
 17 20  2  0
 10  4  1  0
 20 12  1  0
  5 21  1  0
  6 22  1  0
  9 23  1  0
 13 24  1  0
 14 25  1  0
 18 26  1  0
 18 27  1  0
 19 28  1  0
M  CHG  3   3  -1  11  -1  16  -1
M  END
>  <UniqueID>  (22) 
22

>  <SMILES>  (22) 
O=C([N-]c1ccc(Cl)cc1[O-])c1ccc([O-])c(CO)n1

>  <Energy>  (22) 
36.93004649971382

>  <Genealogy>  (22) 
O=C([N-]c1ccc(Cl)cc1[O-])c1ccc([O-])c(CO)n1 (protonated)
O=C([N-]c1ccc(Cl)cc1[O-])c1ccc([O-])c(CO)n1 (3D coordinates assigned)
O=C([N-]c1ccc(Cl)cc1[O-])c1ccc([O-])c(CO)n1 (optimized conformer: 36.93004649971382 kcal/mol)

>  <smiles>  (22) 
O=C(Nc1ccc(Cl)cc1O)c1ccc(O)c(CO)n1

>  <score_type>  (22) 
oracle

>  <origin>  (22) 
adg

>  <m_score__min__energy>  (22) 
-13.41

>  <m_primary>  (22) 
energy

$$$$
22:0
     RDKit          3D

 40 41  0  0  0  0  0  0  0  0999 V2000
   55.1550   29.1410   44.8910 O   0  0  0  0  0  0  0  0  0  0  0  0
   56.0060   29.9680   44.4700 C   0  0  0  0  0  0  0  0  0  0  0  0
   55.8590   31.3170   44.7700 O   0  0  0  0  0  0  0  0  0  0  0  0
   57.1510   29.5090   43.6270 C   0  0  0  0  0  0  0  0  0  0  0  0
   57.9740   28.5570   44.3610 N   0  0  0  0  0  0  0  0  0  0  0  0
   59.1170   28.9230   45.1400 C   0  0  0  0  0  0  0  0  0  0  0  0
   60.2760   28.7500   44.6740 O   0  0  0  0  0  0  0  0  0  0  0  0
   58.9610   29.4460   46.5450 C   0  0  2  0  0  0  0  0  0  0  0  0
   59.9730   30.5610   46.9050 C   0  0  0  0  0  0  0  0  0  0  0  0
   59.5540   31.9720   46.5480 C   0  0  0  0  0  0  0  0  0  0  0  0
   60.3250   33.0740   46.9620 C   0  0  0  0  0  0  0  0  0  0  0  0
   59.9480   34.3730   46.6120 C   0  0  0  0  0  0  0  0  0  0  0  0
   58.8200   34.5850   45.8170 C   0  0  0  0  0  0  0  0  0  0  0  0
   58.0750   33.4950   45.3580 C   0  0  0  0  0  0  0  0  0  0  0  0
   58.4430   32.1950   45.7160 C   0  0  0  0  0  0  0  0  0  0  0  0
   58.8920   28.3740   47.5440 N   0  0  0  0  0  0  0  0  0  0  0  0
   59.0800   26.9720   47.3200 C   0  0  0  0  0  0  0  0  0  0  0  0
   60.1220   26.4170   47.7590 O   0  0  0  0  0  0  0  0  0  0  0  0
   58.0570   26.1530   46.6410 C   0  0  0  0  0  0  0  0  0  0  0  0
   56.7370   26.6340   46.5870 C   0  0  0  0  0  0  0  0  0  0  0  0
   55.7200   25.8610   46.0210 C   0  0  0  0  0  0  0  0  0  0  0  0
   54.4160   26.3410   45.9950 O   0  0  0  0  0  0  0  0  0  0  0  0
   56.0140   24.6070   45.4850 C   0  0  0  0  0  0  0  0  0  0  0  0
   57.3260   24.1310   45.4990 C   0  0  0  0  0  0  0  0  0  0  0  0
   58.3560   24.8960   46.0600 C   0  0  0  0  0  0  0  0  0  0  0  0
   59.6550   24.3880   46.0020 O   0  0  0  0  0  0  0  0  0  0  0  0
   56.7614   29.0261   42.7187 H   0  0  0  0  0  0  0  0  0  0  0  0
   57.7672   30.3797   43.3583 H   0  0  0  0  0  0  0  0  0  0  0  0
   57.9788   29.9406   46.5707 H   0  0  0  0  0  0  0  0  0  0  0  0
   60.1435   30.5242   47.9911 H   0  0  0  0  0  0  0  0  0  0  0  0
   60.8709   30.3549   46.3038 H   0  0  0  0  0  0  0  0  0  0  0  0
   61.2305   32.9116   47.5652 H   0  0  0  0  0  0  0  0  0  0  0  0
   60.5410   35.2303   46.9634 H   0  0  0  0  0  0  0  0  0  0  0  0
   58.5178   35.6090   45.5521 H   0  0  0  0  0  0  0  0  0  0  0  0
   57.1983   33.6605   44.7145 H   0  0  0  0  0  0  0  0  0  0  0  0
   57.8591   31.3402   45.3440 H   0  0  0  0  0  0  0  0  0  0  0  0
   56.5026   27.6286   46.9943 H   0  0  0  0  0  0  0  0  0  0  0  0
   55.2112   23.9929   45.0510 H   0  0  0  0  0  0  0  0  0  0  0  0
   57.5530   23.1459   45.0654 H   0  0  0  0  0  0  0  0  0  0  0  0
   60.4730   24.9360   46.2310 H   0  0  0  0  0  0  0  0  0  0  0  0
  1  2  2  0
  2  3  1  0
  2  4  1  0
  4  5  1  0
  5  6  1  0
  6  7  2  0
  6  8  1  0
  8  9  1  0
  9 10  1  0
 10 11  2  0
 11 12  1  0
 12 13  2  0
 13 14  1  0
 14 15  2  0
  8 16  1  0
 16 17  1  0
 17 18  2  0
 17 19  1  0
 19 20  2  0
 20 21  1  0
 21 22  1  0
 21 23  2  0
 23 24  1  0
 24 25  2  0
 25 26  1  0
 15 10  1  0
 25 19  1  0
  4 27  1  0
  4 28  1  0
  8 29  1  6
  9 30  1  0
  9 31  1  0
 11 32  1  0
 12 33  1  0
 13 34  1  0
 14 35  1  0
 15 36  1  0
 20 37  1  0
 23 38  1  0
 24 39  1  0
 26 40  1  0
M  CHG  4   3  -1   5  -1  16  -1  22  -1
M  END
>  <UniqueID>  (23) 
23

>  <SMILES>  (23) 
O=C([O-])C[N-]C(=O)[C@H](Cc1ccccc1)[N-]C(=O)c1cc([O-])ccc1O

>  <Energy>  (23) 
50.04956011444873

>  <Genealogy>  (23) 
O=C([O-])C[N-]C(=O)C(Cc1ccccc1)[N-]C(=O)c1cc([O-])ccc1O (protonated)
O=C([O-])C[N-]C(=O)[C@H](Cc1ccccc1)[N-]C(=O)c1cc([O-])ccc1O (chirality)
O=C([O-])C[N-]C(=O)[C@H](Cc1ccccc1)[N-]C(=O)c1cc([O-])ccc1O (3D coordinates assigned)
O=C([O-])C[N-]C(=O)[C@H](Cc1ccccc1)[N-]C(=O)c1cc([O-])ccc1O (optimized conformer: 50.04956011444873 kcal/mol)

>  <smiles>  (23) 
O=C(O)CNC(=O)C(Cc1ccccc1)NC(=O)c1cc(O)ccc1O

>  <score_type>  (23) 
oracle

>  <origin>  (23) 
adg

>  <m_score__min__energy>  (23) 
-15.74

>  <m_primary>  (23) 
energy

$$$$
23:0
     RDKit          3D

 47 49  0  0  0  0  0  0  0  0999 V2000
   63.1150   33.7990   50.1530 C   0  0  0  0  0  0  0  0  0  0  0  0
   62.1370   33.8670   49.0090 C   0  0  0  0  0  0  0  0  0  0  0  0
   60.8970   34.4950   49.2000 C   0  0  0  0  0  0  0  0  0  0  0  0
   59.9710   34.5680   48.1610 C   0  0  0  0  0  0  0  0  0  0  0  0
   60.2760   34.0470   46.8980 C   0  0  0  0  0  0  0  0  0  0  0  0
   59.3050   34.1550   45.8440 N   0  0  0  0  0  0  0  0  0  0  0  0
   57.9130   33.8390   46.0050 C   0  0  0  0  0  0  0  0  0  0  0  0
   57.4290   33.6100   47.1460 O   0  0  0  0  0  0  0  0  0  0  0  0
   57.0400   33.6920   44.8000 C   0  0  0  0  0  0  0  0  0  0  0  0
   57.8170   32.5730   43.5840 S   0  0  0  0  0  0  0  0  0  0  0  0
   57.1050   31.0740   44.2690 C   0  0  0  0  0  0  0  0  0  0  0  0
   55.7840   30.8300   44.3420 N   0  0  0  0  0  0  0  0  0  0  0  0
   55.6880   29.6220   44.8800 N   0  0  0  0  0  0  0  0  0  0  0  0
   56.8960   29.1340   45.1270 N   0  0  0  0  0  0  0  0  0  0  0  0
   57.7960   30.0280   44.7610 N   0  0  0  0  0  0  0  0  0  0  0  0
   59.2420   29.8290   44.8170 C   0  0  0  0  0  0  0  0  0  0  0  0
   59.6090   28.8930   45.9700 C   0  0  0  0  0  0  0  0  0  0  0  0
   59.6850   29.6620   47.2610 C   0  0  0  0  0  0  0  0  0  0  0  0
   58.7740   30.7000   47.5250 C   0  0  0  0  0  0  0  0  0  0  0  0
   58.8940   31.4580   48.6920 C   0  0  0  0  0  0  0  0  0  0  0  0
   59.9270   31.1940   49.5980 C   0  0  0  0  0  0  0  0  0  0  0  0
   60.8370   30.1640   49.3390 C   0  0  0  0  0  0  0  0  0  0  0  0
   60.7210   29.4040   48.1730 C   0  0  0  0  0  0  0  0  0  0  0  0
   61.5100   33.4080   46.7000 C   0  0  0  0  0  0  0  0  0  0  0  0
   62.4500   33.3210   47.7410 C   0  0  0  0  0  0  0  0  0  0  0  0
   63.7660   32.6310   47.4900 C   0  0  0  0  0  0  0  0  0  0  0  0
   62.5674   33.8371   51.1063 H   0  0  0  0  0  0  0  0  0  0  0  0
   63.6835   32.8592   50.0940 H   0  0  0  0  0  0  0  0  0  0  0  0
   63.8081   34.6511   50.0940 H   0  0  0  0  0  0  0  0  0  0  0  0
   60.6534   34.9338   50.1788 H   0  0  0  0  0  0  0  0  0  0  0  0
   58.9922   35.0390   48.3348 H   0  0  0  0  0  0  0  0  0  0  0  0
   59.6620   34.2490   44.8660 H   0  0  0  0  0  0  0  0  0  0  0  0
   56.0680   33.2771   45.1050 H   0  0  0  0  0  0  0  0  0  0  0  0
   56.9007   34.6803   44.3375 H   0  0  0  0  0  0  0  0  0  0  0  0
   59.5837   29.3874   43.8693 H   0  0  0  0  0  0  0  0  0  0  0  0
   59.7293   30.8018   44.9792 H   0  0  0  0  0  0  0  0  0  0  0  0
   58.8428   28.1088   46.0590 H   0  0  0  0  0  0  0  0  0  0  0  0
   60.5898   28.4391   45.7649 H   0  0  0  0  0  0  0  0  0  0  0  0
   57.9653   30.9155   46.8111 H   0  0  0  0  0  0  0  0  0  0  0  0
   58.1749   32.2642   48.8992 H   0  0  0  0  0  0  0  0  0  0  0  0
   60.0234   31.7962   50.5135 H   0  0  0  0  0  0  0  0  0  0  0  0
   61.6451   29.9522   50.0546 H   0  0  0  0  0  0  0  0  0  0  0  0
   61.4438   28.6005   47.9684 H   0  0  0  0  0  0  0  0  0  0  0  0
   61.7440   32.9702   45.7184 H   0  0  0  0  0  0  0  0  0  0  0  0
   64.2392   32.3829   48.4515 H   0  0  0  0  0  0  0  0  0  0  0  0
   63.5926   31.7078   46.9176 H   0  0  0  0  0  0  0  0  0  0  0  0
   64.4268   33.2987   46.9176 H   0  0  0  0  0  0  0  0  0  0  0  0
  1  2  1  0
  2  3  2  0
  3  4  1  0
  4  5  2  0
  5  6  1  0
  6  7  1  0
  7  8  2  0
  7  9  1  0
  9 10  1  0
 10 11  1  0
 11 12  2  0
 12 13  1  0
 13 14  2  0
 14 15  1  0
 15 16  1  0
 16 17  1  0
 17 18  1  0
 18 19  2  0
 19 20  1  0
 20 21  2  0
 21 22  1  0
 22 23  2  0
  5 24  1  0
 24 25  2  0
 25 26  1  0
 25  2  1  0
 15 11  1  0
 23 18  1  0
  1 27  1  0
  1 28  1  0
  1 29  1  0
  3 30  1  0
  4 31  1  0
  6 32  1  0
  9 33  1  0
  9 34  1  0
 16 35  1  0
 16 36  1  0
 17 37  1  0
 17 38  1  0
 19 39  1  0
 20 40  1  0
 21 41  1  0
 22 42  1  0
 23 43  1  0
 24 44  1  0
 26 45  1  0
 26 46  1  0
 26 47  1  0
M  END
>  <UniqueID>  (24) 
24

>  <SMILES>  (24) 
Cc1ccc(NC(=O)CSc2nnnn2CCc2ccccc2)cc1C

>  <Energy>  (24) 
80.64656820480918

>  <Genealogy>  (24) 
Cc1ccc(NC(=O)CSc2nnnn2CCc2ccccc2)cc1C (3D coordinates assigned)
Cc1ccc(NC(=O)CSc2nnnn2CCc2ccccc2)cc1C (optimized conformer: 80.64656820480918 kcal/mol)

>  <smiles>  (24) 
Cc1ccc(NC(=O)CSc2nnnn2CCc2ccccc2)cc1C

>  <score_type>  (24) 
oracle

>  <origin>  (24) 
adg

>  <m_score__min__energy>  (24) 
-9.0099999999999998

>  <m_primary>  (24) 
energy

$$$$
24:0
     RDKit          3D

 55 58  0  0  0  0  0  0  0  0999 V2000
   55.4340   29.6640   52.4120 C   0  0  0  0  0  0  0  0  0  0  0  0
   56.6750   29.9690   51.7840 O   0  0  0  0  0  0  0  0  0  0  0  0
   57.5100   31.0390   52.1420 C   0  0  0  0  0  0  0  0  0  0  0  0
   57.3340   31.7430   53.3510 C   0  0  0  0  0  0  0  0  0  0  0  0
   58.1830   32.7990   53.6860 C   0  0  0  0  0  0  0  0  0  0  0  0
   59.2160   33.1670   52.8240 C   0  0  0  0  0  0  0  0  0  0  0  0
   59.4020   32.4820   51.6230 C   0  0  0  0  0  0  0  0  0  0  0  0
   58.5520   31.4170   51.2680 C   0  0  0  0  0  0  0  0  0  0  0  0
   58.7590   30.7040   49.9490 C   0  0  0  0  0  0  0  0  0  0  0  0
   59.5160   31.5530   49.0000 N   0  0  0  0  0  0  0  0  0  0  0  0
   60.8630   31.3550   48.8540 C   0  0  0  0  0  0  0  0  0  0  0  0
   61.4370   30.4230   49.4860 O   0  0  0  0  0  0  0  0  0  0  0  0
   61.6130   32.1840   48.0130 C   0  0  0  0  0  0  0  0  0  0  0  0
   63.0070   32.0160   47.8830 C   0  0  0  0  0  0  0  0  0  0  0  0
   63.7480   32.8660   47.0650 C   0  0  0  0  0  0  0  0  0  0  0  0
   63.1140   33.8920   46.3730 C   0  0  0  0  0  0  0  0  0  0  0  0
   61.7340   34.0700   46.4860 C   0  0  0  0  0  0  0  0  0  0  0  0
   60.9520   33.2090   47.2990 C   0  0  0  0  0  0  0  0  0  0  0  0
   59.5830   33.3460   47.4140 N   0  0  0  0  0  0  0  0  0  0  0  0
   58.8480   34.3830   46.6510 C   0  0  0  0  0  0  0  0  0  0  0  0
   58.3400   33.8190   45.3490 C   0  0  0  0  0  0  0  0  0  0  0  0
   57.4840   34.4680   44.6930 O   0  0  0  0  0  0  0  0  0  0  0  0
   58.8430   32.5920   44.8050 N   0  0  0  0  0  0  0  0  0  0  0  0
   58.0590   31.4800   44.3540 C   0  0  0  0  0  0  0  0  0  0  0  0
   57.3620   31.5200   43.1340 C   0  0  0  0  0  0  0  0  0  0  0  0
   56.6300   30.4090   42.7080 C   0  0  0  0  0  0  0  0  0  0  0  0
   56.5980   29.2480   43.4860 C   0  0  0  0  0  0  0  0  0  0  0  0
   57.3060   29.1910   44.6940 C   0  0  0  0  0  0  0  0  0  0  0  0
   57.2890   27.7220   45.6620 S   0  0  0  0  0  0  0  0  0  0  0  0
   55.6800   27.0930   45.7190 N   0  0  0  0  0  0  0  0  0  0  0  0
   57.7590   28.0260   47.0570 O   0  0  0  0  0  0  0  0  0  0  0  0
   58.2080   26.7000   45.0540 O   0  0  0  0  0  0  0  0  0  0  0  0
   58.0480   30.3050   45.1150 C   0  0  0  0  0  0  0  0  0  0  0  0
   58.8810   32.5310   48.2750 C   0  0  0  0  0  0  0  0  0  0  0  0
   57.6330   32.6860   48.4000 O   0  0  0  0  0  0  0  0  0  0  0  0
   55.5586   29.6946   53.5045 H   0  0  0  0  0  0  0  0  0  0  0  0
   54.6780   30.4031   52.1083 H   0  0  0  0  0  0  0  0  0  0  0  0
   55.1067   28.6587   52.1083 H   0  0  0  0  0  0  0  0  0  0  0  0
   56.5214   31.4578   54.0354 H   0  0  0  0  0  0  0  0  0  0  0  0
   58.0372   33.3420   54.6315 H   0  0  0  0  0  0  0  0  0  0  0  0
   59.8848   33.9983   53.0915 H   0  0  0  0  0  0  0  0  0  0  0  0
   60.2192   32.7762   50.9480 H   0  0  0  0  0  0  0  0  0  0  0  0
   59.3199   29.7746   50.1266 H   0  0  0  0  0  0  0  0  0  0  0  0
   57.7742   30.4821   49.5121 H   0  0  0  0  0  0  0  0  0  0  0  0
   63.5130   31.2079   48.4315 H   0  0  0  0  0  0  0  0  0  0  0  0
   64.8345   32.7255   46.9665 H   0  0  0  0  0  0  0  0  0  0  0  0
   63.7025   34.5664   45.7336 H   0  0  0  0  0  0  0  0  0  0  0  0
   61.2460   34.8890   45.9372 H   0  0  0  0  0  0  0  0  0  0  0  0
   57.9955   34.7367   47.2495 H   0  0  0  0  0  0  0  0  0  0  0  0
   59.5316   35.2173   46.4349 H   0  0  0  0  0  0  0  0  0  0  0  0
   57.3930   32.4278   42.5135 H   0  0  0  0  0  0  0  0  0  0  0  0
   56.0773   30.4479   41.7577 H   0  0  0  0  0  0  0  0  0  0  0  0
   56.0159   28.3775   43.1493 H   0  0  0  0  0  0  0  0  0  0  0  0
   55.1800   27.4620   44.8800 H   0  0  0  0  0  0  0  0  0  0  0  0
   58.6254   30.2547   46.0500 H   0  0  0  0  0  0  0  0  0  0  0  0
  1  2  1  0
  2  3  1  0
  3  4  2  0
  4  5  1  0
  5  6  2  0
  6  7  1  0
  7  8  2  0
  8  9  1  0
  9 10  1  0
 10 11  1  0
 11 12  2  0
 11 13  1  0
 13 14  2  0
 14 15  1  0
 15 16  2  0
 16 17  1  0
 17 18  2  0
 18 19  1  0
 19 20  1  0
 20 21  1  0
 21 22  2  0
 21 23  1  0
 23 24  1  0
 24 25  2  0
 25 26  1  0
 26 27  2  0
 27 28  1  0
 28 29  1  0
 29 30  1  0
 29 31  2  0
 29 32  2  0
 28 33  2  0
 19 34  1  0
 34 35  2  0
  8  3  1  0
 34 10  1  0
 18 13  1  0
 33 24  1  0
  1 36  1  0
  1 37  1  0
  1 38  1  0
  4 39  1  0
  5 40  1  0
  6 41  1  0
  7 42  1  0
  9 43  1  0
  9 44  1  0
 14 45  1  0
 15 46  1  0
 16 47  1  0
 17 48  1  0
 20 49  1  0
 20 50  1  0
 25 51  1  0
 26 52  1  0
 27 53  1  0
 30 54  1  0
 33 55  1  0
M  CHG  2  23  -1  30  -1
M  END
>  <UniqueID>  (25) 
25

>  <SMILES>  (25) 
COc1ccccc1Cn1c(=O)c2ccccc2n(CC(=O)[N-]c2cccc(S([NH-])(=O)=O)c2)c1=O

>  <Energy>  (25) 
78.40244192884458

>  <Genealogy>  (25) 
COc1ccccc1Cn1c(=O)c2ccccc2n(CC(=O)[N-]c2cccc(S([NH-])(=O)=O)c2)c1=O (protonated)
COc1ccccc1Cn1c(=O)c2ccccc2n(CC(=O)[N-]c2cccc(S([NH-])(=O)=O)c2)c1=O (3D coordinates assigned)
COc1ccccc1Cn1c(=O)c2ccccc2n(CC(=O)[N-]c2cccc(S([NH-])(=O)=O)c2)c1=O (optimized conformer: 78.40244192884458 kcal/mol)

>  <smiles>  (25) 
COc1ccccc1Cn1c(=O)c2ccccc2n(CC(=O)Nc2cccc(S(N)(=O)=O)c2)c1=O

>  <score_type>  (25) 
oracle

>  <origin>  (25) 
adg

>  <m_score__min__energy>  (25) 
-13.58

>  <m_primary>  (25) 
energy

$$$$
25:0
     RDKit          3D

 52 54  0  0  0  0  0  0  0  0999 V2000
   58.3820   30.1460   44.3490 N   0  0  0  0  0  0  0  0  0  0  0  0
   58.4320   31.5050   44.7850 C   0  0  0  0  0  0  0  0  0  0  0  0
   57.7110   32.4780   44.0750 C   0  0  0  0  0  0  0  0  0  0  0  0
   57.6870   33.8020   44.5160 C   0  0  0  0  0  0  0  0  0  0  0  0
   58.3820   34.1640   45.6720 C   0  0  0  0  0  0  0  0  0  0  0  0
   59.1100   33.2050   46.3840 C   0  0  0  0  0  0  0  0  0  0  0  0
   59.1550   31.8790   45.9410 C   0  0  0  0  0  0  0  0  0  0  0  0
   59.9200   30.9310   46.6870 N   0  0  0  0  0  0  0  0  0  0  0  0
   59.3350   29.7370   47.2230 C   0  0  0  0  0  0  0  0  0  0  0  0
   58.0910   29.5530   47.1560 O   0  0  0  0  0  0  0  0  0  0  0  0
   60.2120   28.6650   47.7970 C   0  0  0  0  0  0  0  0  0  0  0  0
   60.6950   27.7240   46.6880 C   0  0  0  0  0  0  0  0  0  0  0  0
   59.6150   27.4880   45.6640 C   0  0  0  0  0  0  0  0  0  0  0  0
   59.7120   28.0610   44.5450 O   0  0  0  0  0  0  0  0  0  0  0  0
   58.4630   26.5920   45.9340 C   0  0  0  0  0  0  0  0  0  0  0  0
   58.6860   25.2590   46.3160 C   0  0  0  0  0  0  0  0  0  0  0  0
   57.6110   24.4220   46.6230 C   0  0  0  0  0  0  0  0  0  0  0  0
   56.2920   24.8760   46.5310 C   0  0  0  0  0  0  0  0  0  0  0  0
   55.2760   23.9670   46.8650 O   0  0  0  0  0  0  0  0  0  0  0  0
   53.9710   23.9220   46.2870 C   0  0  0  0  0  0  0  0  0  0  0  0
   54.0020   23.1270   44.9750 C   0  0  0  0  0  0  0  0  0  0  0  0
   54.9430   23.7220   43.9120 C   0  0  0  0  0  0  0  0  0  0  0  0
   56.0600   22.7800   43.5520 C   0  0  0  0  0  0  0  0  0  0  0  0
   57.3820   22.9260   43.8900 C   0  0  0  0  0  0  0  0  0  0  0  0
   58.0750   21.8860   43.3960 N   0  0  0  0  0  0  0  0  0  0  0  0
   57.1430   21.1370   42.7690 C   0  0  0  0  0  0  0  0  0  0  0  0
   55.8970   21.6540   42.8340 N   0  0  0  0  0  0  0  0  0  0  0  0
   56.0570   26.2060   46.1150 C   0  0  0  0  0  0  0  0  0  0  0  0
   54.7720   26.7160   45.9920 O   0  0  0  0  0  0  0  0  0  0  0  0
   57.1350   27.0500   45.8260 C   0  0  0  0  0  0  0  0  0  0  0  0
   58.6270   29.8740   43.3700 H   0  0  0  0  0  0  0  0  0  0  0  0
   58.1240   29.3840   45.0160 H   0  0  0  0  0  0  0  0  0  0  0  0
   57.1613   32.1951   43.1651 H   0  0  0  0  0  0  0  0  0  0  0  0
   57.1213   34.5595   43.9537 H   0  0  0  0  0  0  0  0  0  0  0  0
   58.3568   35.2060   46.0235 H   0  0  0  0  0  0  0  0  0  0  0  0
   59.6501   33.4952   47.2973 H   0  0  0  0  0  0  0  0  0  0  0  0
   60.9630   31.0020   46.6400 H   0  0  0  0  0  0  0  0  0  0  0  0
   61.0823   29.1297   48.2835 H   0  0  0  0  0  0  0  0  0  0  0  0
   59.6347   28.0855   48.5324 H   0  0  0  0  0  0  0  0  0  0  0  0
   61.5680   28.1729   46.1916 H   0  0  0  0  0  0  0  0  0  0  0  0
   60.9609   26.7582   47.1424 H   0  0  0  0  0  0  0  0  0  0  0  0
   59.7140   24.8717   46.3738 H   0  0  0  0  0  0  0  0  0  0  0  0
   57.8055   23.3876   46.9427 H   0  0  0  0  0  0  0  0  0  0  0  0
   53.2783   23.4365   46.9902 H   0  0  0  0  0  0  0  0  0  0  0  0
   53.6344   24.9482   46.0780 H   0  0  0  0  0  0  0  0  0  0  0  0
   54.3339   22.1022   45.1979 H   0  0  0  0  0  0  0  0  0  0  0  0
   52.9850   23.1577   44.5569 H   0  0  0  0  0  0  0  0  0  0  0  0
   54.3597   23.9428   43.0059 H   0  0  0  0  0  0  0  0  0  0  0  0
   55.3920   24.6347   44.3307 H   0  0  0  0  0  0  0  0  0  0  0  0
   57.8055   23.7587   44.4707 H   0  0  0  0  0  0  0  0  0  0  0  0
   57.3766   20.1938   42.2534 H   0  0  0  0  0  0  0  0  0  0  0  0
   56.9428   28.0859   45.5100 H   0  0  0  0  0  0  0  0  0  0  0  0
  1  2  1  0
  2  3  2  0
  3  4  1  0
  4  5  2  0
  5  6  1  0
  6  7  2  0
  7  8  1  0
  8  9  1  0
  9 10  2  0
  9 11  1  0
 11 12  1  0
 12 13  1  0
 13 14  2  0
 13 15  1  0
 15 16  2  0
 16 17  1  0
 17 18  2  0
 18 19  1  0
 19 20  1  0
 20 21  1  0
 21 22  1  0
 22 23  1  0
 23 24  2  0
 24 25  1  0
 25 26  1  0
 26 27  2  0
 18 28  1  0
 28 29  1  0
 28 30  2  0
  7  2  1  0
 30 15  1  0
 27 23  1  0
  1 31  1  0
  1 32  1  0
  3 33  1  0
  4 34  1  0
  5 35  1  0
  6 36  1  0
  8 37  1  0
 11 38  1  0
 11 39  1  0
 12 40  1  0
 12 41  1  0
 16 42  1  0
 17 43  1  0
 20 44  1  0
 20 45  1  0
 21 46  1  0
 21 47  1  0
 22 48  1  0
 22 49  1  0
 24 50  1  0
 26 51  1  0
 30 52  1  0
M  CHG  2  25  -1  29  -1
M  END
>  <UniqueID>  (26) 
26

>  <SMILES>  (26) 
Nc1ccccc1NC(=O)CCC(=O)c1ccc(OCCCc2c[n-]cn2)c([O-])c1

>  <Energy>  (26) 
83.11239108954065

>  <Genealogy>  (26) 
Nc1ccccc1NC(=O)CCC(=O)c1ccc(OCCCc2c[n-]cn2)c([O-])c1 (protonated)
Nc1ccccc1NC(=O)CCC(=O)c1ccc(OCCCc2c[n-]cn2)c([O-])c1 (3D coordinates assigned)
Nc1ccccc1NC(=O)CCC(=O)c1ccc(OCCCc2c[n-]cn2)c([O-])c1 (optimized conformer: 83.11239108954065 kcal/mol)

>  <smiles>  (26) 
Nc1ccccc1NC(=O)CCC(=O)c1ccc(OCCCc2c[nH]cn2)c(O)c1

>  <score_type>  (26) 
oracle

>  <origin>  (26) 
adg

>  <m_score__min__energy>  (26) 
-13.890000000000001

>  <m_primary>  (26) 
energy

$$$$
26:0
     RDKit          3D

 45 47  0  0  0  0  0  0  0  0999 V2000
   53.8410   25.3300   45.6160 O   0  0  0  0  0  0  0  0  0  0  0  0
   53.0150   24.3810   45.6280 C   0  0  0  0  0  0  0  0  0  0  0  0
   51.9420   24.4350   44.7900 N   0  0  0  0  0  0  0  0  0  0  0  0
   51.0180   23.4400   44.7540 C   0  0  0  0  0  0  0  0  0  0  0  0
   51.1670   22.3380   45.5900 C   0  0  0  0  0  0  0  0  0  0  0  0
   52.2320   22.2760   46.4280 N   0  0  0  0  0  0  0  0  0  0  0  0
   53.1700   23.2590   46.4830 C   0  0  0  0  0  0  0  0  0  0  0  0
   54.1560   23.1050   47.3260 N   0  0  0  0  0  0  0  0  0  0  0  0
   55.8630   23.3170   47.0770 S   0  0  0  0  0  0  0  0  0  0  0  0
   56.2760   24.6800   47.5580 O   0  0  0  0  0  0  0  0  0  0  0  0
   56.6360   22.2590   47.8140 O   0  0  0  0  0  0  0  0  0  0  0  0
   56.2020   23.1600   45.3480 C   0  0  0  0  0  0  0  0  0  0  0  0
   55.9010   21.9620   44.6840 C   0  0  0  0  0  0  0  0  0  0  0  0
   56.1530   21.8300   43.3570 N   0  0  0  0  0  0  0  0  0  0  0  0
   56.6980   22.8380   42.6310 C   0  0  0  0  0  0  0  0  0  0  0  0
   57.0160   24.0520   43.2420 C   0  0  0  0  0  0  0  0  0  0  0  0
   56.7630   24.2290   44.6190 C   0  0  0  0  0  0  0  0  0  0  0  0
   57.0370   25.3470   45.2380 N   0  0  0  0  0  0  0  0  0  0  0  0
   57.7900   26.4920   44.7250 C   0  0  0  0  0  0  0  0  0  0  0  0
   57.2390   27.7970   45.2950 C   0  0  0  0  0  0  0  0  0  0  0  0
   58.0630   28.9140   44.8380 N   0  0  0  0  0  0  0  0  0  0  0  0
   57.0460   30.2510   44.3960 S   0  0  0  0  0  0  0  0  0  0  0  0
   55.6620   30.0190   44.9320 O   0  0  0  0  0  0  0  0  0  0  0  0
   56.9690   30.3550   42.8980 O   0  0  0  0  0  0  0  0  0  0  0  0
   57.6850   31.7440   45.0810 C   0  0  0  0  0  0  0  0  0  0  0  0
   57.7130   32.9250   44.3240 C   0  0  0  0  0  0  0  0  0  0  0  0
   58.2520   34.0960   44.8690 C   0  0  0  0  0  0  0  0  0  0  0  0
   58.7660   34.0910   46.1680 C   0  0  0  0  0  0  0  0  0  0  0  0
   58.7460   32.9150   46.9240 C   0  0  0  0  0  0  0  0  0  0  0  0
   58.2080   31.7430   46.3820 C   0  0  0  0  0  0  0  0  0  0  0  0
   51.8200   25.2580   44.1560 H   0  0  0  0  0  0  0  0  0  0  0  0
   50.1592   23.5050   44.0697 H   0  0  0  0  0  0  0  0  0  0  0  0
   50.4275   21.5239   45.5717 H   0  0  0  0  0  0  0  0  0  0  0  0
   55.4579   21.1241   45.2422 H   0  0  0  0  0  0  0  0  0  0  0  0
   56.8900   22.6982   41.5570 H   0  0  0  0  0  0  0  0  0  0  0  0
   57.4618   24.8670   42.6529 H   0  0  0  0  0  0  0  0  0  0  0  0
   58.8463   26.3888   45.0141 H   0  0  0  0  0  0  0  0  0  0  0  0
   57.6958   26.5160   43.6293 H   0  0  0  0  0  0  0  0  0  0  0  0
   56.2041   27.9397   44.9505 H   0  0  0  0  0  0  0  0  0  0  0  0
   57.2567   27.7537   46.3940 H   0  0  0  0  0  0  0  0  0  0  0  0
   57.3106   32.9306   43.3003 H   0  0  0  0  0  0  0  0  0  0  0  0
   58.2709   35.0210   44.2740 H   0  0  0  0  0  0  0  0  0  0  0  0
   59.1867   35.0127   46.5963 H   0  0  0  0  0  0  0  0  0  0  0  0
   59.1536   32.9114   47.9457 H   0  0  0  0  0  0  0  0  0  0  0  0
   58.1952   30.8184   46.9778 H   0  0  0  0  0  0  0  0  0  0  0  0
  1  2  2  0
  2  3  1  0
  3  4  1  0
  4  5  2  0
  5  6  1  0
  6  7  1  0
  7  8  2  3
  8  9  1  0
  9 10  2  0
  9 11  2  0
  9 12  1  0
 12 13  2  0
 13 14  1  0
 14 15  1  0
 15 16  2  0
 16 17  1  0
 17 18  2  3
 18 19  1  0
 19 20  1  0
 20 21  1  0
 21 22  1  0
 22 23  2  0
 22 24  2  0
 22 25  1  0
 25 26  2  0
 26 27  1  0
 27 28  2  0
 28 29  1  0
 29 30  2  0
  7  2  1  0
 17 12  1  0
 30 25  1  0
  3 31  1  0
  4 32  1  0
  5 33  1  0
 13 34  1  0
 15 35  1  0
 16 36  1  0
 19 37  1  0
 19 38  1  0
 20 39  1  0
 20 40  1  0
 26 41  1  0
 27 42  1  0
 28 43  1  0
 29 44  1  0
 30 45  1  0
M  CHG  3   6  -1  14  -1  21  -1
M  END
>  <UniqueID>  (27) 
27

>  <SMILES>  (27) 
O=c1[nH]cc[n-]c1=NS(=O)(=O)c1c[n-]ccc1=NCC[N-]S(=O)(=O)c1ccccc1

>  <Energy>  (27) 
59.567715060807764

>  <Genealogy>  (27) 
O=c1[nH]cc[n-]c1=NS(=O)(=O)c1c[n-]ccc1=NCC[N-]S(=O)(=O)c1ccccc1 (protonated)
O=c1[nH]cc[n-]c1=NS(=O)(=O)c1c[n-]ccc1=NCC[N-]S(=O)(=O)c1ccccc1 (3D coordinates assigned)
O=c1[nH]cc[n-]c1=NS(=O)(=O)c1c[n-]ccc1=NCC[N-]S(=O)(=O)c1ccccc1 (optimized conformer: 59.567715060807764 kcal/mol)

>  <smiles>  (27) 
O=c1[nH]cc[nH]c1=NS(=O)(=O)c1c[nH]ccc1=NCCNS(=O)(=O)c1ccccc1

>  <score_type>  (27) 
oracle

>  <origin>  (27) 
adg

>  <m_score__min__energy>  (27) 
-13.69

>  <m_primary>  (27) 
energy

$$$$
27:0
     RDKit          3D

 63 67  0  0  0  0  0  0  0  0999 V2000
   55.9780   24.3630   47.5700 N   0  0  0  0  0  0  0  0  0  0  0  0
   56.3000   23.7870   46.2980 C   0  0  0  0  0  0  0  0  0  0  0  0
   55.8370   22.4960   45.9870 C   0  0  0  0  0  0  0  0  0  0  0  0
   56.1900   21.8870   44.7780 C   0  0  0  0  0  0  0  0  0  0  0  0
   57.0140   22.5580   43.8720 C   0  0  0  0  0  0  0  0  0  0  0  0
   57.4750   23.8450   44.1670 C   0  0  0  0  0  0  0  0  0  0  0  0
   57.1100   24.4740   45.3660 C   0  0  0  0  0  0  0  0  0  0  0  0
   57.5580   25.8160   45.6050 N   0  0  0  0  0  0  0  0  0  0  0  0
   56.6270   26.9100   45.6340 C   0  0  0  0  0  0  0  0  0  0  0  0
   55.4560   26.7180   46.0580 O   0  0  0  0  0  0  0  0  0  0  0  0
   57.0110   28.2590   45.1500 C   0  0  0  0  0  0  0  0  0  0  0  0
   56.0170   29.1710   44.7520 C   0  0  0  0  0  0  0  0  0  0  0  0
   56.3660   30.4180   44.2260 C   0  0  0  0  0  0  0  0  0  0  0  0
   57.7130   30.7790   44.0920 C   0  0  0  0  0  0  0  0  0  0  0  0
   58.0790   32.0930   43.4560 C   0  0  0  0  0  0  0  0  0  0  0  0
   57.4630   33.1890   44.1970 N   0  0  0  0  0  0  0  0  0  0  0  0
   58.1800   34.0200   45.1160 C   0  0  0  0  0  0  0  0  0  0  0  0
   58.4210   35.2220   44.8210 O   0  0  0  0  0  0  0  0  0  0  0  0
   58.6140   33.4930   46.4220 C   0  0  0  0  0  0  0  0  0  0  0  0
   59.1830   34.3310   47.3920 C   0  0  0  0  0  0  0  0  0  0  0  0
   59.6580   33.7900   48.5880 C   0  0  0  0  0  0  0  0  0  0  0  0
   60.1670   34.5670   49.4440 O   0  0  0  0  0  0  0  0  0  0  0  0
   59.5630   32.3970   48.8220 C   0  0  0  0  0  0  0  0  0  0  0  0
   60.0850   31.7730   49.9850 C   0  0  0  0  0  0  0  0  0  0  0  0
   60.7890   32.5420   50.9270 O   0  0  0  0  0  0  0  0  0  0  0  0
   62.1950   32.7950   50.9140 C   0  0  0  0  0  0  0  0  0  0  0  0
   62.7330   32.8320   49.5090 C   0  0  0  0  0  0  0  0  0  0  0  0
   62.9140   31.6390   48.7870 C   0  0  0  0  0  0  0  0  0  0  0  0
   63.3840   31.6750   47.4730 C   0  0  0  0  0  0  0  0  0  0  0  0
   63.6700   32.8980   46.8660 C   0  0  0  0  0  0  0  0  0  0  0  0
   63.4800   34.0920   47.5700 C   0  0  0  0  0  0  0  0  0  0  0  0
   63.0080   34.0610   48.8850 C   0  0  0  0  0  0  0  0  0  0  0  0
   59.9110   30.3860   50.1540 C   0  0  0  0  0  0  0  0  0  0  0  0
   59.2480   29.6270   49.1890 C   0  0  0  0  0  0  0  0  0  0  0  0
   58.7750   30.2260   48.0270 C   0  0  0  0  0  0  0  0  0  0  0  0
   58.9360   31.5990   47.8310 C   0  0  0  0  0  0  0  0  0  0  0  0
   58.4990   32.1620   46.6740 N   0  0  0  0  0  0  0  0  0  0  0  0
   58.7090   29.8750   44.4900 C   0  0  0  0  0  0  0  0  0  0  0  0
   58.3630   28.6260   45.0100 C   0  0  0  0  0  0  0  0  0  0  0  0
   56.1500   23.8510   48.4650 H   0  0  0  0  0  0  0  0  0  0  0  0
   55.5270   25.3040   47.6280 H   0  0  0  0  0  0  0  0  0  0  0  0
   55.1923   21.9609   46.6998 H   0  0  0  0  0  0  0  0  0  0  0  0
   55.8183   20.8792   44.5410 H   0  0  0  0  0  0  0  0  0  0  0  0
   57.3004   22.0744   42.9265 H   0  0  0  0  0  0  0  0  0  0  0  0
   58.1287   24.3677   43.4533 H   0  0  0  0  0  0  0  0  0  0  0  0
   58.5770   26.0100   45.4910 H   0  0  0  0  0  0  0  0  0  0  0  0
   54.9558   28.9005   44.8556 H   0  0  0  0  0  0  0  0  0  0  0  0
   55.5783   31.1202   43.9154 H   0  0  0  0  0  0  0  0  0  0  0  0
   59.1724   32.2128   43.4684 H   0  0  0  0  0  0  0  0  0  0  0  0
   57.7165   32.1075   42.4176 H   0  0  0  0  0  0  0  0  0  0  0  0
   59.2549   35.4135   47.2105 H   0  0  0  0  0  0  0  0  0  0  0  0
   62.3888   33.7640   51.3971 H   0  0  0  0  0  0  0  0  0  0  0  0
   62.6984   31.9810   51.4563 H   0  0  0  0  0  0  0  0  0  0  0  0
   62.6842   30.6728   49.2598 H   0  0  0  0  0  0  0  0  0  0  0  0
   63.5290   30.7378   46.9156 H   0  0  0  0  0  0  0  0  0  0  0  0
   64.0454   32.9236   45.8324 H   0  0  0  0  0  0  0  0  0  0  0  0
   63.7022   35.0556   47.0882 H   0  0  0  0  0  0  0  0  0  0  0  0
   62.8512   35.0015   49.4335 H   0  0  0  0  0  0  0  0  0  0  0  0
   60.3023   29.8951   51.0573 H   0  0  0  0  0  0  0  0  0  0  0  0
   59.0988   28.5489   49.3485 H   0  0  0  0  0  0  0  0  0  0  0  0
   58.2730   29.6172   47.2606 H   0  0  0  0  0  0  0  0  0  0  0  0
   59.7691   30.1516   44.3919 H   0  0  0  0  0  0  0  0  0  0  0  0
   59.1532   27.9232   45.3127 H   0  0  0  0  0  0  0  0  0  0  0  0
  1  2  1  0
  2  3  2  0
  3  4  1  0
  4  5  2  0
  5  6  1  0
  6  7  2  0
  7  8  1  0
  8  9  1  0
  9 10  2  0
  9 11  1  0
 11 12  2  0
 12 13  1  0
 13 14  2  0
 14 15  1  0
 15 16  1  0
 16 17  1  0
 17 18  2  0
 17 19  1  0
 19 20  2  0
 20 21  1  0
 21 22  2  0
 21 23  1  0
 23 24  2  0
 24 25  1  0
 25 26  1  0
 26 27  1  0
 27 28  2  0
 28 29  1  0
 29 30  2  0
 30 31  1  0
 31 32  2  0
 24 33  1  0
 33 34  2  0
 34 35  1  0
 35 36  2  0
 36 37  1  0
 14 38  1  0
 38 39  2  0
  7  2  1  0
 39 11  1  0
 37 19  1  0
 36 23  1  0
 32 27  1  0
  1 40  1  0
  1 41  1  0
  3 42  1  0
  4 43  1  0
  5 44  1  0
  6 45  1  0
  8 46  1  0
 12 47  1  0
 13 48  1  0
 15 49  1  0
 15 50  1  0
 20 51  1  0
 26 52  1  0
 26 53  1  0
 28 54  1  0
 29 55  1  0
 30 56  1  0
 31 57  1  0
 32 58  1  0
 33 59  1  0
 34 60  1  0
 35 61  1  0
 38 62  1  0
 39 63  1  0
M  CHG  2  16  -1  37  -1
M  END
>  <UniqueID>  (28) 
28

>  <SMILES>  (28) 
Nc1ccccc1NC(=O)c1ccc(C[N-]C(=O)c2cc(=O)c3c(OCc4ccccc4)cccc3[n-]2)cc1

>  <Energy>  (28) 
84.62574874602223

>  <Genealogy>  (28) 
Nc1ccccc1NC(=O)c1ccc(C[N-]C(=O)c2cc(=O)c3c(OCc4ccccc4)cccc3[n-]2)cc1 (protonated)
Nc1ccccc1NC(=O)c1ccc(C[N-]C(=O)c2cc(=O)c3c(OCc4ccccc4)cccc3[n-]2)cc1 (3D coordinates assigned)
Nc1ccccc1NC(=O)c1ccc(C[N-]C(=O)c2cc(=O)c3c(OCc4ccccc4)cccc3[n-]2)cc1 (optimized conformer: 84.62574874602223 kcal/mol)

>  <smiles>  (28) 
Nc1ccccc1NC(=O)c1ccc(CNC(=O)c2cc(=O)c3c(OCc4ccccc4)cccc3[nH]2)cc1

>  <score_type>  (28) 
oracle

>  <origin>  (28) 
adg

>  <m_score__min__energy>  (28) 
-12.01

>  <m_primary>  (28) 
energy

$$$$
28:0
     RDKit          3D

 58 61  0  0  0  0  0  0  0  0999 V2000
   67.9110   35.0060   51.9640 C   0  0  0  0  0  0  0  0  0  0  0  0
   66.7430   34.2610   52.2950 O   0  0  0  0  0  0  0  0  0  0  0  0
   65.7510   33.8940   51.3740 C   0  0  0  0  0  0  0  0  0  0  0  0
   66.0150   33.0570   50.2740 C   0  0  0  0  0  0  0  0  0  0  0  0
   64.9920   32.7200   49.3820 C   0  0  0  0  0  0  0  0  0  0  0  0
   63.6880   33.2100   49.5710 C   0  0  0  0  0  0  0  0  0  0  0  0
   62.6020   32.8510   48.6240 C   0  0  0  0  0  0  0  0  0  0  0  0
   62.5520   31.5710   48.0530 C   0  0  0  0  0  0  0  0  0  0  0  0
   61.5300   31.2280   47.1680 C   0  0  0  0  0  0  0  0  0  0  0  0
   60.5330   32.1590   46.8280 C   0  0  0  0  0  0  0  0  0  0  0  0
   59.4670   31.8100   45.9200 N   0  0  0  0  0  0  0  0  0  0  0  0
   58.1010   31.4880   46.3390 C   0  0  0  0  0  0  0  0  0  0  0  0
   57.7860   30.0400   46.0570 C   0  0  0  0  0  0  0  0  0  0  0  0
   58.5950   29.0240   46.5810 C   0  0  0  0  0  0  0  0  0  0  0  0
   58.3090   27.6840   46.3100 C   0  0  0  0  0  0  0  0  0  0  0  0
   57.1950   27.3590   45.5160 C   0  0  0  0  0  0  0  0  0  0  0  0
   56.8420   25.9500   45.2020 C   0  0  0  0  0  0  0  0  0  0  0  0
   57.4330   25.3100   44.0970 C   0  0  0  0  0  0  0  0  0  0  0  0
   57.1030   23.9890   43.7760 C   0  0  0  0  0  0  0  0  0  0  0  0
   56.1680   23.2810   44.5530 C   0  0  0  0  0  0  0  0  0  0  0  0
   55.7990   21.9550   44.2750 O   0  0  0  0  0  0  0  0  0  0  0  0
   56.6920   20.9150   43.8850 C   0  0  0  0  0  0  0  0  0  0  0  0
   57.2730   21.2180   42.6660 F   0  0  0  0  0  0  0  0  0  0  0  0
   57.6870   20.7970   44.8360 F   0  0  0  0  0  0  0  0  0  0  0  0
   56.0120   19.7120   43.7980 F   0  0  0  0  0  0  0  0  0  0  0  0
   55.5750   23.9170   45.6480 C   0  0  0  0  0  0  0  0  0  0  0  0
   55.9000   25.2380   45.9690 C   0  0  0  0  0  0  0  0  0  0  0  0
   56.4280   28.3650   45.0130 N   0  0  0  0  0  0  0  0  0  0  0  0
   56.6870   29.6770   45.2580 C   0  0  0  0  0  0  0  0  0  0  0  0
   55.9320   30.5560   44.7640 O   0  0  0  0  0  0  0  0  0  0  0  0
   60.5700   33.4480   47.3970 C   0  0  0  0  0  0  0  0  0  0  0  0
   59.5690   34.3710   47.0490 O   0  0  0  0  0  0  0  0  0  0  0  0
   59.4130   34.9490   45.7580 C   0  0  0  0  0  0  0  0  0  0  0  0
   61.6060   33.7840   48.2920 C   0  0  0  0  0  0  0  0  0  0  0  0
   63.4300   34.0450   50.6730 C   0  0  0  0  0  0  0  0  0  0  0  0
   64.4540   34.3840   51.5620 C   0  0  0  0  0  0  0  0  0  0  0  0
   68.4149   35.3274   52.8875 H   0  0  0  0  0  0  0  0  0  0  0  0
   68.5931   34.3758   51.3744 H   0  0  0  0  0  0  0  0  0  0  0  0
   67.6271   35.8902   51.3744 H   0  0  0  0  0  0  0  0  0  0  0  0
   67.0308   32.6660   50.1150 H   0  0  0  0  0  0  0  0  0  0  0  0
   65.2096   32.0657   48.5249 H   0  0  0  0  0  0  0  0  0  0  0  0
   63.3257   30.8310   48.3054 H   0  0  0  0  0  0  0  0  0  0  0  0
   61.5038   30.2186   46.7316 H   0  0  0  0  0  0  0  0  0  0  0  0
   59.6830   31.7010   44.9040 H   0  0  0  0  0  0  0  0  0  0  0  0
   58.0001   31.6763   47.4181 H   0  0  0  0  0  0  0  0  0  0  0  0
   57.3991   32.1198   45.7749 H   0  0  0  0  0  0  0  0  0  0  0  0
   59.4601   29.2826   47.2092 H   0  0  0  0  0  0  0  0  0  0  0  0
   58.9511   26.8880   46.7151 H   0  0  0  0  0  0  0  0  0  0  0  0
   58.1623   25.8542   43.4790 H   0  0  0  0  0  0  0  0  0  0  0  0
   57.5771   23.5013   42.9115 H   0  0  0  0  0  0  0  0  0  0  0  0
   54.8446   23.3716   46.2637 H   0  0  0  0  0  0  0  0  0  0  0  0
   55.4158   25.7255   46.8280 H   0  0  0  0  0  0  0  0  0  0  0  0
   59.1276   36.0063   45.8617 H   0  0  0  0  0  0  0  0  0  0  0  0
   60.3625   34.8778   45.2072 H   0  0  0  0  0  0  0  0  0  0  0  0
   58.6283   34.4097   45.2072 H   0  0  0  0  0  0  0  0  0  0  0  0
   61.6347   34.7899   48.7361 H   0  0  0  0  0  0  0  0  0  0  0  0
   62.4143   34.4344   50.8366 H   0  0  0  0  0  0  0  0  0  0  0  0
   64.2383   35.0418   52.4169 H   0  0  0  0  0  0  0  0  0  0  0  0
  1  2  1  0
  2  3  1  0
  3  4  2  0
  4  5  1  0
  5  6  2  0
  6  7  1  0
  7  8  2  0
  8  9  1  0
  9 10  2  0
 10 11  1  0
 11 12  1  0
 12 13  1  0
 13 14  2  0
 14 15  1  0
 15 16  2  0
 16 17  1  0
 17 18  2  0
 18 19  1  0
 19 20  2  0
 20 21  1  0
 21 22  1  0
 22 23  1  0
 22 24  1  0
 22 25  1  0
 20 26  1  0
 26 27  2  0
 16 28  1  0
 28 29  1  0
 29 30  2  0
 10 31  1  0
 31 32  1  0
 32 33  1  0
 31 34  2  0
  6 35  1  0
 35 36  2  0
 36  3  1  0
 34  7  1  0
 29 13  1  0
 27 17  1  0
  1 37  1  0
  1 38  1  0
  1 39  1  0
  4 40  1  0
  5 41  1  0
  8 42  1  0
  9 43  1  0
 11 44  1  0
 12 45  1  0
 12 46  1  0
 14 47  1  0
 15 48  1  0
 18 49  1  0
 19 50  1  0
 26 51  1  0
 27 52  1  0
 33 53  1  0
 33 54  1  0
 33 55  1  0
 34 56  1  0
 35 57  1  0
 36 58  1  0
M  CHG  1  28  -1
M  END
>  <UniqueID>  (29) 
29

>  <SMILES>  (29) 
COc1ccc(-c2ccc(NCc3ccc(-c4ccc(OC(F)(F)F)cc4)[n-]c3=O)c(OC)c2)cc1

>  <Energy>  (29) 
72.4929036262474

>  <Genealogy>  (29) 
COc1ccc(-c2ccc(NCc3ccc(-c4ccc(OC(F)(F)F)cc4)[n-]c3=O)c(OC)c2)cc1 (protonated)
COc1ccc(-c2ccc(NCc3ccc(-c4ccc(OC(F)(F)F)cc4)[n-]c3=O)c(OC)c2)cc1 (3D coordinates assigned)
COc1ccc(-c2ccc(NCc3ccc(-c4ccc(OC(F)(F)F)cc4)[n-]c3=O)c(OC)c2)cc1 (optimized conformer: 72.4929036262474 kcal/mol)

>  <smiles>  (29) 
COc1ccc(-c2ccc(NCc3ccc(-c4ccc(OC(F)(F)F)cc4)[nH]c3=O)c(OC)c2)cc1

>  <score_type>  (29) 
oracle

>  <origin>  (29) 
adg

>  <m_score__min__energy>  (29) 
-10.24

>  <m_primary>  (29) 
energy

$$$$
29:0
     RDKit          3D

 39 41  0  0  1  0  0  0  0  0999 V2000
   56.4800   34.8700   44.8400 O   0  0  0  0  0  0  0  0  0  0  0  0
   57.2720   34.0410   45.2910 C   0  0  0  0  0  0  0  0  0  0  0  0
   57.9790   33.9920   46.4400 N   0  0  0  0  0  0  0  0  0  0  0  0
   58.7550   32.9840   46.6690 C   0  0  0  0  0  0  0  0  0  0  0  0
   59.5520   32.8730   47.8910 N   0  0  0  0  0  0  0  0  0  0  0  0
   60.9710   32.9430   47.7050 C   0  0  0  0  0  0  0  0  0  0  0  0
   61.8050   32.1190   48.4640 C   0  0  0  0  0  0  0  0  0  0  0  0
   63.1700   32.1720   48.2860 C   0  0  0  0  0  0  0  0  0  0  0  0
   63.7610   33.0230   47.3690 C   0  0  0  0  0  0  0  0  0  0  0  0
   62.9250   33.8270   46.6310 C   0  0  0  0  0  0  0  0  0  0  0  0
   61.5580   33.7910   46.7910 C   0  0  0  0  0  0  0  0  0  0  0  0
   58.8430   31.9780   45.7310 C   0  0  0  0  0  0  0  0  0  0  0  0
   59.5930   30.7270   45.7020 C   0  0  0  0  0  0  0  0  0  0  0  0
   58.7350   29.5440   45.9560 C   0  0  0  0  0  0  0  0  0  0  0  0
   58.8910   28.6930   47.0260 C   0  0  0  0  0  0  0  0  0  0  0  0
   58.0090   27.6120   47.1630 C   0  0  0  0  0  0  0  0  0  0  0  0
   56.9910   27.4130   46.2210 C   0  0  0  0  0  0  0  0  0  0  0  0
   56.0560   26.2750   46.3650 C   0  0  0  0  0  0  0  0  0  0  0  0
   54.7440   26.3430   45.9650 O   0  0  0  0  0  0  0  0  0  0  0  0
   56.4740   25.1690   46.8850 N   0  0  0  0  0  0  0  0  0  0  0  0
   55.5540   24.2390   47.3070 O   0  0  0  0  0  0  0  0  0  0  0  0
   56.8410   28.2740   45.1460 C   0  0  0  0  0  0  0  0  0  0  0  0
   57.7110   29.3270   45.0260 C   0  0  0  0  0  0  0  0  0  0  0  0
   57.7560   32.4900   44.4340 S   0  0  0  0  0  0  0  0  0  0  0  0
   57.8620   34.8140   47.1300 H   0  0  0  0  0  0  0  0  0  0  0  0
   59.1000   32.7520   48.8160 H   0  0  0  0  0  0  0  0  0  0  0  0
   61.3724   31.4285   49.2030 H   0  0  0  0  0  0  0  0  0  0  0  0
   63.8113   31.5161   48.8930 H   0  0  0  0  0  0  0  0  0  0  0  0
   64.8525   33.0549   47.2362 H   0  0  0  0  0  0  0  0  0  0  0  0
   63.3597   34.5173   45.8931 H   0  0  0  0  0  0  0  0  0  0  0  0
   60.9241   34.4498   46.1793 H   0  0  0  0  0  0  0  0  0  0  0  0
   60.0595   30.6183   44.7118 H   0  0  0  0  0  0  0  0  0  0  0  0
   60.3469   30.7708   46.5018 H   0  0  0  0  0  0  0  0  0  0  0  0
   59.6931   28.8579   47.7604 H   0  0  0  0  0  0  0  0  0  0  0  0
   58.1162   26.9194   48.0108 H   0  0  0  0  0  0  0  0  0  0  0  0
   54.0050   25.7440   46.3720 H   0  0  0  0  0  0  0  0  0  0  0  0
   54.5480   24.4380   47.3060 H   0  0  0  0  0  0  0  0  0  0  0  0
   56.0425   28.1165   44.4060 H   0  0  0  0  0  0  0  0  0  0  0  0
   57.6017   30.0187   44.1777 H   0  0  0  0  0  0  0  0  0  0  0  0
  1  2  2  0
  2  3  1  0
  3  4  1  0
  4  5  1  0
  5  6  1  0
  6  7  2  0
  7  8  1  0
  8  9  2  0
  9 10  1  0
 10 11  2  0
  4 12  2  0
 12 13  1  0
 13 14  1  0
 14 15  2  0
 15 16  1  0
 16 17  2  0
 17 18  1  0
 18 19  1  0
 18 20  2  0
 20 21  1  0
 17 22  1  0
 22 23  2  0
 12 24  1  0
 24  2  1  0
 11  6  1  0
 23 14  1  0
  3 25  1  0
  5 26  1  0
  7 27  1  0
  8 28  1  0
  9 29  1  0
 10 30  1  0
 11 31  1  0
 13 32  1  0
 13 33  1  0
 15 34  1  0
 16 35  1  0
 19 36  1  0
 21 37  1  0
 22 38  1  0
 23 39  1  0
M  END
>  <smiles>  (30) 
O=c1[nH]c(Nc2ccccc2)c(Cc2ccc(C(O)=NO)cc2)s1

>  <score_type>  (30) 
oracle

>  <origin>  (30) 
adg

>  <m_score__min__energy>  (30) 
-8.75

>  <m_primary>  (30) 
energy

$$$$
30:0
     RDKit          3D

 46 47  0  0  0  0  0  0  0  0999 V2000
   59.9060   35.0607   44.3136 H   0  0  0  0  0  0  0  0  0  0  0  0
   59.3250   34.5980   45.1250 C   0  0  0  0  0  0  0  0  0  0  0  0
   59.3390   35.1340   46.3080 N   0  0  0  0  0  0  0  0  0  0  0  0
   60.4010   35.0760   47.1990 O   0  0  0  0  0  0  0  0  0  0  0  0
   60.3890   34.3520   48.4310 C   0  0  0  0  0  0  0  0  0  0  0  0
   61.1966   34.7281   49.0762 H   0  0  0  0  0  0  0  0  0  0  0  0
   59.4100   34.4971   48.9111 H   0  0  0  0  0  0  0  0  0  0  0  0
   60.5940   32.8670   48.1960 C   0  0  0  0  0  0  0  0  0  0  0  0
   59.7060   31.9050   48.7400 C   0  0  0  0  0  0  0  0  0  0  0  0
   58.3340   32.3430   49.7580 Cl  0  0  0  0  0  0  0  0  0  0  0  0
   59.9120   30.5430   48.4950 C   0  0  0  0  0  0  0  0  0  0  0  0
   59.2111   29.8021   48.9072 H   0  0  0  0  0  0  0  0  0  0  0  0
   60.9980   30.1180   47.7330 C   0  0  0  0  0  0  0  0  0  0  0  0
   61.1452   29.0458   47.5361 H   0  0  0  0  0  0  0  0  0  0  0  0
   61.8980   31.0500   47.2200 C   0  0  0  0  0  0  0  0  0  0  0  0
   62.7604   30.7085   46.6287 H   0  0  0  0  0  0  0  0  0  0  0  0
   61.7120   32.4180   47.4520 C   0  0  0  0  0  0  0  0  0  0  0  0
   62.9210   33.5290   46.8150 Cl  0  0  0  0  0  0  0  0  0  0  0  0
   58.5410   33.3770   44.8530 C   0  0  0  0  0  0  0  0  0  0  0  0
   58.1700   33.0770   43.5330 C   0  0  0  0  0  0  0  0  0  0  0  0
   58.4648   33.7522   42.7161 H   0  0  0  0  0  0  0  0  0  0  0  0
   57.4290   31.9270   43.2490 C   0  0  0  0  0  0  0  0  0  0  0  0
   57.1321   31.7093   42.2124 H   0  0  0  0  0  0  0  0  0  0  0  0
   57.0620   31.0490   44.2790 C   0  0  0  0  0  0  0  0  0  0  0  0
   56.2960   29.8210   43.9880 C   0  0  0  0  0  0  0  0  0  0  0  0
   55.9930   29.5590   42.7940 O   0  0  0  0  0  0  0  0  0  0  0  0
   55.8590   28.9290   45.0230 N   0  0  0  0  0  0  0  0  0  0  0  0
   56.6410   27.8290   45.5830 C   0  0  0  0  0  0  0  0  0  0  0  0
   56.7499   27.0406   44.8237 H   0  0  0  0  0  0  0  0  0  0  0  0
   56.1171   27.4382   46.4678 H   0  0  0  0  0  0  0  0  0  0  0  0
   58.0330   28.3130   46.0090 C   0  0  0  0  0  0  0  0  0  0  0  0
   58.2568   27.9312   47.0160 H   0  0  0  0  0  0  0  0  0  0  0  0
   58.0428   29.4130   46.0103 H   0  0  0  0  0  0  0  0  0  0  0  0
   59.0610   27.8260   45.0640 N   0  0  0  0  0  0  0  0  0  0  0  0
   60.0700   28.8700   44.8230 C   0  0  0  0  0  0  0  0  0  0  0  0
   60.4394   29.2522   45.7861 H   0  0  0  0  0  0  0  0  0  0  0  0
   60.9082   28.4449   44.2514 H   0  0  0  0  0  0  0  0  0  0  0  0
   59.6166   29.6932   44.2514 H   0  0  0  0  0  0  0  0  0  0  0  0
   58.4490   27.4330   43.7810 C   0  0  0  0  0  0  0  0  0  0  0  0
   57.5377   26.8478   43.9735 H   0  0  0  0  0  0  0  0  0  0  0  0
   58.1911   28.3348   43.2063 H   0  0  0  0  0  0  0  0  0  0  0  0
   59.1617   26.8233   43.2063 H   0  0  0  0  0  0  0  0  0  0  0  0
   57.4060   31.3590   45.6020 C   0  0  0  0  0  0  0  0  0  0  0  0
   57.0923   30.6927   46.4191 H   0  0  0  0  0  0  0  0  0  0  0  0
   58.1460   32.5110   45.8890 C   0  0  0  0  0  0  0  0  0  0  0  0
   58.4202   32.7407   46.9292 H   0  0  0  0  0  0  0  0  0  0  0  0
  1  2  1  0
  2  3  2  0
  3  4  1  0
  4  5  1  0
  5  6  1  0
  5  7  1  0
  5  8  1  0
  8  9  2  0
  9 10  1  0
  9 11  1  0
 11 12  1  0
 11 13  2  0
 13 14  1  0
 13 15  1  0
 15 16  1  0
 15 17  2  0
 17 18  1  0
  2 19  1  0
 19 20  2  0
 20 21  1  0
 20 22  1  0
 22 23  1  0
 22 24  2  0
 24 25  1  0
 25 26  2  0
 25 27  1  0
 27 28  1  0
 28 29  1  0
 28 30  1  0
 28 31  1  0
 31 32  1  0
 31 33  1  0
 31 34  1  0
 34 35  1  0
 35 36  1  0
 35 37  1  0
 35 38  1  0
 34 39  1  0
 39 40  1  0
 39 41  1  0
 39 42  1  0
 24 43  1  0
 43 44  1  0
 43 45  2  0
 45 46  1  0
 17  8  1  0
 45 19  1  0
M  CHG  1  27  -1
M  END
>  <UniqueID>  (31) 
30

>  <SMILES>  (31) 
CN(C)CC[N-]C(=O)c1ccc(/C=N/OCc2c(Cl)cccc2Cl)cc1

>  <Energy>  (31) 
52.52047010537919

>  <Genealogy>  (31) 
CN(C)CC[N-]C(=O)c1ccc(C=NOCc2c(Cl)cccc2Cl)cc1 (protonated)
CN(C)CC[N-]C(=O)c1ccc(/C=N/OCc2c(Cl)cccc2Cl)cc1 (cis-trans isomerization)
CN(C)CC[N-]C(=O)c1ccc(/C=N/OCc2c(Cl)cccc2Cl)cc1 (3D coordinates assigned)
CN(C)CC[N-]C(=O)c1ccc(/C=N/OCc2c(Cl)cccc2Cl)cc1 (optimized conformer: 52.52047010537919 kcal/mol)

>  <smiles>  (31) 
CN(C)CCNC(=O)c1ccc(C=NOCc2c(Cl)cccc2Cl)cc1

>  <score_type>  (31) 
oracle

>  <origin>  (31) 
adg

>  <m_score__min__energy>  (31) 
-9.8300000000000001

>  <m_primary>  (31) 
energy

$$$$
31:0
     RDKit          3D

 44 46  0  0  0  0  0  0  0  0999 V2000
   55.5200   29.0580   45.1780 O   0  0  0  0  0  0  0  0  0  0  0  0
   56.2970   29.7120   44.4330 C   0  0  0  0  0  0  0  0  0  0  0  0
   57.2980   28.9660   43.5780 C   0  0  0  0  0  0  0  0  0  0  0  0
   58.4430   28.4370   44.3510 N   0  0  0  0  0  0  0  0  0  0  0  0
   58.0540   27.6810   45.5710 C   0  0  0  0  0  0  0  0  0  0  0  0
   58.4380   28.4090   46.8650 C   0  0  0  0  0  0  0  0  0  0  0  0
   59.9500   28.6910   46.9230 C   0  0  0  0  0  0  0  0  0  0  0  0
   60.5690   28.9300   45.5330 C   0  0  0  0  0  0  0  0  0  0  0  0
   59.5200   29.4360   44.5390 C   0  0  0  0  0  0  0  0  0  0  0  0
   56.2700   31.1430   44.5010 N   0  0  0  0  0  0  0  0  0  0  0  0
   57.3250   31.9830   44.9830 C   0  0  0  0  0  0  0  0  0  0  0  0
   57.8120   31.7870   46.2800 C   0  0  0  0  0  0  0  0  0  0  0  0
   58.8200   32.6140   46.7870 C   0  0  0  0  0  0  0  0  0  0  0  0
   59.3290   33.6670   46.0180 C   0  0  0  0  0  0  0  0  0  0  0  0
   60.3500   34.4620   46.5570 O   0  0  0  0  0  0  0  0  0  0  0  0
   61.4850   33.9840   47.2270 C   0  0  0  0  0  0  0  0  0  0  0  0
   61.5210   33.8480   48.6290 C   0  0  0  0  0  0  0  0  0  0  0  0
   62.6680   33.3560   49.2590 C   0  0  0  0  0  0  0  0  0  0  0  0
   63.7790   32.9820   48.4980 C   0  0  0  0  0  0  0  0  0  0  0  0
   63.7420   33.0940   47.1060 C   0  0  0  0  0  0  0  0  0  0  0  0
   62.5970   33.5870   46.4740 C   0  0  0  0  0  0  0  0  0  0  0  0
   58.8330   33.8690   44.7170 C   0  0  0  0  0  0  0  0  0  0  0  0
   57.8250   33.0440   44.2100 C   0  0  0  0  0  0  0  0  0  0  0  0
   56.7842   28.1231   43.0927 H   0  0  0  0  0  0  0  0  0  0  0  0
   57.7000   29.6811   42.8452 H   0  0  0  0  0  0  0  0  0  0  0  0
   56.9641   27.5326   45.5607 H   0  0  0  0  0  0  0  0  0  0  0  0
   58.5947   26.7232   45.5552 H   0  0  0  0  0  0  0  0  0  0  0  0
   57.8937   29.3637   46.9136 H   0  0  0  0  0  0  0  0  0  0  0  0
   58.1730   27.7649   47.7164 H   0  0  0  0  0  0  0  0  0  0  0  0
   60.1166   29.5863   47.5400 H   0  0  0  0  0  0  0  0  0  0  0  0
   60.4353   27.8019   47.3520 H   0  0  0  0  0  0  0  0  0  0  0  0
   61.3703   29.6785   45.6210 H   0  0  0  0  0  0  0  0  0  0  0  0
   60.9691   27.9752   45.1611 H   0  0  0  0  0  0  0  0  0  0  0  0
   59.0821   30.3696   44.9220 H   0  0  0  0  0  0  0  0  0  0  0  0
   60.0102   29.6101   43.5698 H   0  0  0  0  0  0  0  0  0  0  0  0
   57.4006   30.9795   46.9034 H   0  0  0  0  0  0  0  0  0  0  0  0
   59.2156   32.4354   47.7977 H   0  0  0  0  0  0  0  0  0  0  0  0
   60.6437   34.1299   49.2298 H   0  0  0  0  0  0  0  0  0  0  0  0
   62.6961   33.2632   50.3547 H   0  0  0  0  0  0  0  0  0  0  0  0
   64.6826   32.5994   48.9951 H   0  0  0  0  0  0  0  0  0  0  0  0
   64.6145   32.7940   46.5070 H   0  0  0  0  0  0  0  0  0  0  0  0
   62.5691   33.6637   45.3770 H   0  0  0  0  0  0  0  0  0  0  0  0
   59.2405   34.6802   44.0957 H   0  0  0  0  0  0  0  0  0  0  0  0
   57.4221   33.2261   43.2028 H   0  0  0  0  0  0  0  0  0  0  0  0
  1  2  2  0
  2  3  1  0
  3  4  1  0
  4  5  1  0
  5  6  1  0
  6  7  1  0
  7  8  1  0
  8  9  1  0
  2 10  1  0
 10 11  1  0
 11 12  2  0
 12 13  1  0
 13 14  2  0
 14 15  1  0
 15 16  1  0
 16 17  2  0
 17 18  1  0
 18 19  2  0
 19 20  1  0
 20 21  2  0
 14 22  1  0
 22 23  2  0
  9  4  1  0
 23 11  1  0
 21 16  1  0
  3 24  1  0
  3 25  1  0
  5 26  1  0
  5 27  1  0
  6 28  1  0
  6 29  1  0
  7 30  1  0
  7 31  1  0
  8 32  1  0
  8 33  1  0
  9 34  1  0
  9 35  1  0
 12 36  1  0
 13 37  1  0
 17 38  1  0
 18 39  1  0
 19 40  1  0
 20 41  1  0
 21 42  1  0
 22 43  1  0
 23 44  1  0
M  CHG  1  10  -1
M  END
>  <UniqueID>  (32) 
31

>  <SMILES>  (32) 
O=C(CN1CCCCC1)[N-]c1ccc(Oc2ccccc2)cc1

>  <Energy>  (32) 
65.58368041261856

>  <Genealogy>  (32) 
O=C(CN1CCCCC1)[N-]c1ccc(Oc2ccccc2)cc1 (protonated)
O=C(CN1CCCCC1)[N-]c1ccc(Oc2ccccc2)cc1 (3D coordinates assigned)
O=C(CN1CCCCC1)[N-]c1ccc(Oc2ccccc2)cc1 (nonaromatic ring conformer: 65.58368041261856 kcal/mol)

>  <smiles>  (32) 
O=C(CN1CCCCC1)Nc1ccc(Oc2ccccc2)cc1

>  <score_type>  (32) 
oracle

>  <origin>  (32) 
adg

>  <m_score__min__energy>  (32) 
-9.6999999999999993

>  <m_primary>  (32) 
energy

$$$$
32:0
     RDKit          3D

 40 41  0  0  0  0  0  0  0  0999 V2000
   61.9548   34.9296   50.4155 H   0  0  0  0  0  0  0  0  0  0  0  0
   61.9800   34.0170   49.8020 C   0  0  0  0  0  0  0  0  0  0  0  0
   61.0414   33.5690   49.4438 H   0  0  0  0  0  0  0  0  0  0  0  0
   63.1500   33.4530   49.4920 C   0  0  0  0  0  0  0  0  0  0  0  0
   64.0768   33.9172   49.8603 H   0  0  0  0  0  0  0  0  0  0  0  0
   63.2460   32.2010   48.6540 C   0  0  0  0  0  0  0  0  0  0  0  0
   63.6966   32.4564   47.6835 H   0  0  0  0  0  0  0  0  0  0  0  0
   63.8644   31.4726   49.1991 H   0  0  0  0  0  0  0  0  0  0  0  0
   61.9170   31.5900   48.4190 N   0  0  0  0  0  0  0  0  0  0  0  0
   61.4730   30.5670   49.2360 C   0  0  0  0  0  0  0  0  0  0  0  0
   62.2040   30.1500   50.4000 N   0  0  0  0  0  0  0  0  0  0  0  0
   62.6230   29.1950   50.4450 H   0  0  0  0  0  0  0  0  0  0  0  0
   62.2750   30.7320   51.2610 H   0  0  0  0  0  0  0  0  0  0  0  0
   60.2730   29.9090   48.9470 C   0  0  0  0  0  0  0  0  0  0  0  0
   59.9372   29.0648   49.5672 H   0  0  0  0  0  0  0  0  0  0  0  0
   59.5130   30.3340   47.8700 C   0  0  0  0  0  0  0  0  0  0  0  0
   58.4270   29.7540   47.5970 O   0  0  0  0  0  0  0  0  0  0  0  0
   59.9320   31.3840   47.1240 N   0  0  0  0  0  0  0  0  0  0  0  0
   59.3350   31.7160   46.3340 H   0  0  0  0  0  0  0  0  0  0  0  0
   61.1080   32.0190   47.3830 C   0  0  0  0  0  0  0  0  0  0  0  0
   61.4970   33.4660   46.3690 S   0  0  0  0  0  0  0  0  0  0  0  0
   60.0760   34.4480   46.9480 C   0  0  0  0  0  0  0  0  0  0  0  0
   59.7108   34.0396   47.9018 H   0  0  0  0  0  0  0  0  0  0  0  0
   60.3847   35.4936   47.0947 H   0  0  0  0  0  0  0  0  0  0  0  0
   58.9880   34.3850   45.9290 C   0  0  0  0  0  0  0  0  0  0  0  0
   58.8740   35.3210   45.0920 O   0  0  0  0  0  0  0  0  0  0  0  0
   58.0560   33.2900   45.9640 N   0  0  0  0  0  0  0  0  0  0  0  0
   57.7360   32.4390   45.0290 C   0  0  0  0  0  0  0  0  0  0  0  0
   57.3790   31.1810   45.4050 N   0  0  0  0  0  0  0  0  0  0  0  0
   57.0260   30.2210   44.5110 C   0  0  0  0  0  0  0  0  0  0  0  0
   56.7423   29.2186   44.8643 H   0  0  0  0  0  0  0  0  0  0  0  0
   57.0230   30.5050   43.1470 C   0  0  0  0  0  0  0  0  0  0  0  0
   56.7345   29.7316   42.4200 H   0  0  0  0  0  0  0  0  0  0  0  0
   57.3900   31.7820   42.7100 C   0  0  0  0  0  0  0  0  0  0  0  0
   57.4420   32.0830   41.2420 C   0  0  0  0  0  0  0  0  0  0  0  0
   57.6276   33.1571   41.0943 H   0  0  0  0  0  0  0  0  0  0  0  0
   58.2533   31.5034   40.7774 H   0  0  0  0  0  0  0  0  0  0  0  0
   56.4833   31.8092   40.7774 H   0  0  0  0  0  0  0  0  0  0  0  0
   57.7690   32.7520   43.6520 C   0  0  0  0  0  0  0  0  0  0  0  0
   58.0899   33.7502   43.3194 H   0  0  0  0  0  0  0  0  0  0  0  0
  1  2  1  0
  2  3  1  0
  2  4  2  0
  4  5  1  0
  4  6  1  0
  6  7  1  0
  6  8  1  0
  6  9  1  0
  9 10  1  0
 10 11  1  0
 11 12  1  0
 11 13  1  0
 10 14  2  0
 14 15  1  0
 14 16  1  0
 16 17  2  0
 16 18  1  0
 18 19  1  0
 18 20  2  0
 20 21  1  0
 21 22  1  0
 22 23  1  0
 22 24  1  0
 22 25  1  0
 25 26  2  0
 25 27  1  0
 27 28  2  0
 28 29  1  0
 29 30  1  0
 30 31  1  0
 30 32  2  0
 32 33  1  0
 32 34  1  0
 34 35  1  0
 35 36  1  0
 35 37  1  0
 35 38  1  0
 34 39  2  0
 39 40  1  0
 20  9  1  0
 39 28  1  0
M  CHG  2  18   1  29  -1
M  END
>  <UniqueID>  (33) 
32

>  <SMILES>  (33) 
C=CCn1c(N)cc(=O)[nH+]c1SCC(=O)/N=c1\cc(C)cc[n-]1

>  <Energy>  (33) 
48.03019711648784

>  <Genealogy>  (33) 
C=CCn1c(N)cc(=O)[nH+]c1SCC(=O)N=c1cc(C)cc[n-]1 (protonated)
C=CCn1c(N)cc(=O)[nH+]c1SCC(=O)/N=c1\cc(C)cc[n-]1 (cis-trans isomerization)
C=CCn1c(N)cc(=O)[nH+]c1SCC(=O)/N=c1\cc(C)cc[n-]1 (3D coordinates assigned)
C=CCn1c(N)cc(=O)[nH+]c1SCC(=O)/N=c1\cc(C)cc[n-]1 (optimized conformer: 48.03019711648784 kcal/mol)

>  <smiles>  (33) 
C=CCn1c(N)cc(=O)nc1SCC(=O)N=c1cc(C)cc[nH]1

>  <score_type>  (33) 
oracle

>  <origin>  (33) 
adg

>  <m_score__min__energy>  (33) 
-7.1100000000000003

>  <m_primary>  (33) 
energy

$$$$
33:0
     RDKit          3D

 48 52  0  0  1  0  0  0  0  0999 V2000
   56.8110   28.6920   44.6900 O   0  0  0  0  0  0  0  0  0  0  0  0
   57.0590   29.8660   44.2510 C   0  0  0  0  0  0  0  0  0  0  0  0
   57.2810   30.2290   42.9720 N   0  0  0  0  0  0  0  0  0  0  0  0
   57.5090   31.5470   42.8830 C   0  0  0  0  0  0  0  0  0  0  0  0
   57.7750   32.2930   41.7510 O   0  0  0  0  0  0  0  0  0  0  0  0
   57.4250   32.0350   44.1840 C   0  0  0  0  0  0  0  0  0  0  0  0
   57.5910   33.4030   44.6530 C   0  0  0  0  0  0  0  0  0  0  0  0
   58.5950   33.7910   45.4220 C   0  0  0  0  0  0  0  0  0  0  0  0
   59.2020   35.0290   45.4720 C   0  0  0  0  0  0  0  0  0  0  0  0
   60.1610   34.9550   46.3900 N   0  0  0  0  0  0  0  0  0  0  0  0
   60.2060   33.7330   46.9350 N   0  0  0  0  0  0  0  0  0  0  0  0
   61.0190   33.2130   47.9010 C   0  0  0  0  0  0  0  0  0  0  0  0
   61.9330   33.9450   48.4450 N   0  0  0  0  0  0  0  0  0  0  0  0
   63.2700   33.8490   47.9270 C   0  0  0  0  0  0  0  0  0  0  0  0
   63.7450   32.6510   47.1870 C   0  0  0  0  0  0  0  0  0  0  0  0
   63.3340   33.8620   46.3770 C   0  0  0  0  0  0  0  0  0  0  0  0
   60.8010   31.8940   48.2430 C   0  0  0  0  0  0  0  0  0  0  0  0
   59.8170   31.1360   47.6460 C   0  0  0  0  0  0  0  0  0  0  0  0
   59.6050   29.7470   48.0220 C   0  0  0  0  0  0  0  0  0  0  0  0
   60.7350   29.0680   48.7250 C   0  0  0  0  0  0  0  0  0  0  0  0
   60.2100   27.7130   49.1650 C   0  0  0  0  0  0  0  0  0  0  0  0
   59.8230   26.9610   47.9960 N   0  0  0  0  0  0  0  0  0  0  0  0
   58.7960   27.6150   47.2390 C   0  0  0  0  0  0  0  0  0  0  0  0
   59.3550   28.9520   46.7330 C   0  0  0  0  0  0  0  0  0  0  0  0
   59.0500   31.7230   46.6940 N   0  0  0  0  0  0  0  0  0  0  0  0
   59.2510   33.0070   46.3520 C   0  0  0  0  0  0  0  0  0  0  0  0
   57.1480   30.9920   45.0170 N   0  0  0  0  0  0  0  0  0  0  0  0
   57.2640   29.5330   42.1960 H   0  0  0  0  0  0  0  0  0  0  0  0
   58.6490   32.3300   41.2580 H   0  0  0  0  0  0  0  0  0  0  0  0
   56.8436   34.1522   44.3527 H   0  0  0  0  0  0  0  0  0  0  0  0
   58.9419   35.9102   44.8671 H   0  0  0  0  0  0  0  0  0  0  0  0
   63.6972   34.3973   48.7796 H   0  0  0  0  0  0  0  0  0  0  0  0
   64.8062   32.3659   47.2381 H   0  0  0  0  0  0  0  0  0  0  0  0
   63.4510   31.5910   47.1796 H   0  0  0  0  0  0  0  0  0  0  0  0
   64.0923   34.4662   45.8574 H   0  0  0  0  0  0  0  0  0  0  0  0
   62.6258   34.0615   45.5593 H   0  0  0  0  0  0  0  0  0  0  0  0
   61.4326   31.4330   49.0166 H   0  0  0  0  0  0  0  0  0  0  0  0
   58.7667   29.7668   48.7339 H   0  0  0  0  0  0  0  0  0  0  0  0
   61.5881   28.9425   48.0421 H   0  0  0  0  0  0  0  0  0  0  0  0
   61.0849   29.6595   49.5839 H   0  0  0  0  0  0  0  0  0  0  0  0
   60.9972   27.1707   49.7093 H   0  0  0  0  0  0  0  0  0  0  0  0
   59.3419   27.8462   49.8273 H   0  0  0  0  0  0  0  0  0  0  0  0
   59.5060   26.0140   48.3000 H   0  0  0  0  0  0  0  0  0  0  0  0
   58.5041   26.9858   46.3852 H   0  0  0  0  0  0  0  0  0  0  0  0
   57.9095   27.7859   47.8674 H   0  0  0  0  0  0  0  0  0  0  0  0
   60.2916   28.8010   46.1763 H   0  0  0  0  0  0  0  0  0  0  0  0
   58.6741   29.4655   46.0383 H   0  0  0  0  0  0  0  0  0  0  0  0
   57.0230   31.0200   46.0430 H   0  0  0  0  0  0  0  0  0  0  0  0
  1  2  2  0
  2  3  1  0
  3  4  1  0
  4  5  1  0
  4  6  2  0
  6  7  1  0
  7  8  2  0
  8  9  1  0
  9 10  2  0
 10 11  1  0
 11 12  1  0
 12 13  2  0
 13 14  1  0
 14 15  1  0
 15 16  1  0
 12 17  1  0
 17 18  2  0
 18 19  1  0
 19 20  1  0
 20 21  1  0
 21 22  1  0
 22 23  1  0
 23 24  1  0
 18 25  1  0
 25 26  2  0
  6 27  1  0
 27  2  1  0
 26  8  1  0
 26 11  1  0
 16 14  1  0
 24 19  1  0
  3 28  1  0
  5 29  1  0
  7 30  1  0
  9 31  1  0
 14 32  1  0
 15 33  1  0
 15 34  1  0
 16 35  1  0
 16 36  1  0
 17 37  1  0
 19 38  1  0
 20 39  1  0
 20 40  1  0
 21 41  1  0
 21 42  1  0
 22 43  1  0
 23 44  1  0
 23 45  1  0
 24 46  1  0
 24 47  1  0
 27 48  1  0
M  END
>  <smiles>  (34) 
O=c1[nH]c(O)c(C=c2cnn3c(=NC4CC4)cc(C4CCNCC4)nc23)[nH]1

>  <score_type>  (34) 
oracle

>  <origin>  (34) 
adg

>  <m_score__min__energy>  (34) 
-9.0099999999999998

>  <m_primary>  (34) 
energy

$$$$
34:0
     RDKit          3D

 61 65  0  0  0  0  0  0  0  0999 V2000
   56.5340   29.7110   42.5160 N   0  0  0  0  0  0  0  0  0  0  0  0
   56.3430   29.9890   43.9050 C   0  0  0  0  0  0  0  0  0  0  0  0
   55.1720   30.0710   44.3620 O   0  0  0  0  0  0  0  0  0  0  0  0
   57.5060   30.2330   44.7900 C   0  0  0  0  0  0  0  0  0  0  0  0
   58.3360   29.1530   45.1040 C   0  0  0  0  0  0  0  0  0  0  0  0
   59.4850   29.3390   45.8710 C   0  0  0  0  0  0  0  0  0  0  0  0
   60.2120   28.3370   46.1160 O   0  0  0  0  0  0  0  0  0  0  0  0
   59.8210   30.5840   46.3430 N   0  0  0  0  0  0  0  0  0  0  0  0
   61.0730   30.7740   47.1070 C   0  0  0  0  0  0  0  0  0  0  0  0
   60.9070   30.2700   48.5180 C   0  0  0  0  0  0  0  0  0  0  0  0
   61.9140   30.4810   49.4740 C   0  0  0  0  0  0  0  0  0  0  0  0
   61.7820   29.9630   50.7640 C   0  0  0  0  0  0  0  0  0  0  0  0
   60.6450   29.2190   51.1200 C   0  0  0  0  0  0  0  0  0  0  0  0
   60.5100   28.6530   52.4820 C   0  0  0  0  0  0  0  0  0  0  0  0
   61.1590   27.4440   52.7890 C   0  0  0  0  0  0  0  0  0  0  0  0
   61.0330   26.8740   54.0550 C   0  0  0  0  0  0  0  0  0  0  0  0
   60.2710   27.5090   55.0340 C   0  0  0  0  0  0  0  0  0  0  0  0
   59.6310   28.7180   54.7500 C   0  0  0  0  0  0  0  0  0  0  0  0
   59.7350   29.2990   53.4730 C   0  0  0  0  0  0  0  0  0  0  0  0
   59.1010   30.5520   53.1590 N   0  0  0  0  0  0  0  0  0  0  0  0
   57.5080   30.7950   52.5130 S   0  0  0  0  0  0  0  0  0  0  0  0
   56.5420   30.8550   53.6640 O   0  0  0  0  0  0  0  0  0  0  0  0
   57.1100   29.6480   51.6280 O   0  0  0  0  0  0  0  0  0  0  0  0
   57.4100   32.3460   51.6300 C   0  0  0  0  0  0  0  0  0  0  0  0
   58.7630   32.7900   51.1530 C   0  0  0  0  0  0  0  0  0  0  0  0
   59.0100   32.9700   49.7820 C   0  0  0  0  0  0  0  0  0  0  0  0
   60.2530   33.4350   49.3440 C   0  0  0  0  0  0  0  0  0  0  0  0
   61.2600   33.7210   50.2700 C   0  0  0  0  0  0  0  0  0  0  0  0
   61.0250   33.5410   51.6370 C   0  0  0  0  0  0  0  0  0  0  0  0
   59.7810   33.0780   52.0790 C   0  0  0  0  0  0  0  0  0  0  0  0
   59.6290   29.0260   50.1700 C   0  0  0  0  0  0  0  0  0  0  0  0
   59.7620   29.5430   48.8780 C   0  0  0  0  0  0  0  0  0  0  0  0
   59.0140   31.6650   46.0710 C   0  0  0  0  0  0  0  0  0  0  0  0
   59.3380   32.9000   46.5520 N   0  0  0  0  0  0  0  0  0  0  0  0
   58.5700   33.9970   46.3290 C   0  0  0  0  0  0  0  0  0  0  0  0
   57.3920   33.8840   45.5980 C   0  0  0  0  0  0  0  0  0  0  0  0
   57.0180   32.6430   45.0870 C   0  0  0  0  0  0  0  0  0  0  0  0
   57.8350   31.5110   45.2960 C   0  0  0  0  0  0  0  0  0  0  0  0
   55.7090   29.5830   41.8880 H   0  0  0  0  0  0  0  0  0  0  0  0
   57.4930   29.6020   42.1170 H   0  0  0  0  0  0  0  0  0  0  0  0
   58.0799   28.1463   44.7422 H   0  0  0  0  0  0  0  0  0  0  0  0
   61.8854   30.2179   46.6163 H   0  0  0  0  0  0  0  0  0  0  0  0
   61.3146   31.8467   47.1365 H   0  0  0  0  0  0  0  0  0  0  0  0
   62.8115   31.0574   49.2051 H   0  0  0  0  0  0  0  0  0  0  0  0
   62.5741   30.1388   51.5067 H   0  0  0  0  0  0  0  0  0  0  0  0
   61.7711   26.9439   52.0240 H   0  0  0  0  0  0  0  0  0  0  0  0
   61.5355   25.9221   54.2814 H   0  0  0  0  0  0  0  0  0  0  0  0
   60.1733   27.0574   56.0323 H   0  0  0  0  0  0  0  0  0  0  0  0
   59.0410   29.2196   55.5312 H   0  0  0  0  0  0  0  0  0  0  0  0
   56.7468   32.2222   50.7612 H   0  0  0  0  0  0  0  0  0  0  0  0
   57.0158   33.1108   52.3153 H   0  0  0  0  0  0  0  0  0  0  0  0
   58.2212   32.7438   49.0495 H   0  0  0  0  0  0  0  0  0  0  0  0
   60.4390   33.5761   48.2691 H   0  0  0  0  0  0  0  0  0  0  0  0
   62.2375   34.0877   49.9237 H   0  0  0  0  0  0  0  0  0  0  0  0
   61.8189   33.7636   52.3651 H   0  0  0  0  0  0  0  0  0  0  0  0
   59.5987   32.9388   53.1548 H   0  0  0  0  0  0  0  0  0  0  0  0
   58.7234   28.4649   50.4440 H   0  0  0  0  0  0  0  0  0  0  0  0
   58.9640   29.3789   48.1389 H   0  0  0  0  0  0  0  0  0  0  0  0
   58.8792   34.9750   46.7263 H   0  0  0  0  0  0  0  0  0  0  0  0
   56.7605   34.7678   45.4247 H   0  0  0  0  0  0  0  0  0  0  0  0
   56.0817   32.5449   44.5180 H   0  0  0  0  0  0  0  0  0  0  0  0
  1  2  1  0
  2  3  2  0
  2  4  1  0
  4  5  2  0
  5  6  1  0
  6  7  2  0
  6  8  1  0
  8  9  1  0
  9 10  1  0
 10 11  2  0
 11 12  1  0
 12 13  2  0
 13 14  1  0
 14 15  2  0
 15 16  1  0
 16 17  2  0
 17 18  1  0
 18 19  2  0
 19 20  1  0
 20 21  1  0
 21 22  2  0
 21 23  2  0
 21 24  1  0
 24 25  1  0
 25 26  2  0
 26 27  1  0
 27 28  2  0
 28 29  1  0
 29 30  2  0
 13 31  1  0
 31 32  2  0
  8 33  1  0
 33 34  2  0
 34 35  1  0
 35 36  2  0
 36 37  1  0
 37 38  2  0
 38  4  1  0
 32 10  1  0
 38 33  1  0
 19 14  1  0
 30 25  1  0
  1 39  1  0
  1 40  1  0
  5 41  1  0
  9 42  1  0
  9 43  1  0
 11 44  1  0
 12 45  1  0
 15 46  1  0
 16 47  1  0
 17 48  1  0
 18 49  1  0
 24 50  1  0
 24 51  1  0
 26 52  1  0
 27 53  1  0
 28 54  1  0
 29 55  1  0
 30 56  1  0
 31 57  1  0
 32 58  1  0
 35 59  1  0
 36 60  1  0
 37 61  1  0
M  CHG  1  20  -1
M  END
>  <UniqueID>  (35) 
33

>  <SMILES>  (35) 
NC(=O)c1cc(=O)n(Cc2ccc(-c3ccccc3[N-]S(=O)(=O)Cc3ccccc3)cc2)c2ncccc12

>  <Energy>  (35) 
84.02956898884146

>  <Genealogy>  (35) 
NC(=O)c1cc(=O)n(Cc2ccc(-c3ccccc3[N-]S(=O)(=O)Cc3ccccc3)cc2)c2ncccc12 (protonated)
NC(=O)c1cc(=O)n(Cc2ccc(-c3ccccc3[N-]S(=O)(=O)Cc3ccccc3)cc2)c2ncccc12 (3D coordinates assigned)
NC(=O)c1cc(=O)n(Cc2ccc(-c3ccccc3[N-]S(=O)(=O)Cc3ccccc3)cc2)c2ncccc12 (optimized conformer: 84.02956898884146 kcal/mol)

>  <smiles>  (35) 
NC(=O)c1cc(=O)n(Cc2ccc(-c3ccccc3NS(=O)(=O)Cc3ccccc3)cc2)c2ncccc12

>  <score_type>  (35) 
oracle

>  <origin>  (35) 
adg

>  <m_score__min__energy>  (35) 
-11.67

>  <m_primary>  (35) 
energy

$$$$
35:0
     RDKit          3D

 40 42  0  0  0  0  0  0  0  0999 V2000
   58.4500   34.5400   45.2500 C   0  0  0  0  0  0  0  0  0  0  0  0
   58.9440   33.3150   44.7170 O   0  0  0  0  0  0  0  0  0  0  0  0
   58.2700   32.0870   44.7900 C   0  0  0  0  0  0  0  0  0  0  0  0
   57.0680   31.8570   44.0980 C   0  0  0  0  0  0  0  0  0  0  0  0
   56.4130   30.6330   44.2070 C   0  0  0  0  0  0  0  0  0  0  0  0
   56.9160   29.6370   45.0460 C   0  0  0  0  0  0  0  0  0  0  0  0
   56.2330   28.4680   45.1730 N   0  0  0  0  0  0  0  0  0  0  0  0
   56.6400   27.4740   46.0050 C   0  0  0  0  0  0  0  0  0  0  0  0
   55.8500   26.2340   46.0840 C   0  0  0  0  0  0  0  0  0  0  0  0
   56.4130   25.1170   46.2290 O   0  0  0  0  0  0  0  0  0  0  0  0
   54.4640   26.2900   45.9960 O   0  0  0  0  0  0  0  0  0  0  0  0
   57.7870   27.6590   46.7870 C   0  0  0  0  0  0  0  0  0  0  0  0
   58.5140   28.8500   46.6890 C   0  0  0  0  0  0  0  0  0  0  0  0
   59.5010   29.0180   47.4540 O   0  0  0  0  0  0  0  0  0  0  0  0
   58.1120   29.8500   45.7720 C   0  0  0  0  0  0  0  0  0  0  0  0
   58.8250   31.0650   45.5780 C   0  0  0  0  0  0  0  0  0  0  0  0
   60.0830   31.2830   46.1550 O   0  0  0  0  0  0  0  0  0  0  0  0
   60.3170   32.3180   47.1140 C   0  0  0  0  0  0  0  0  0  0  0  0
   61.5680   33.1330   46.7680 C   0  0  0  0  0  0  0  0  0  0  0  0
   62.5050   33.2930   47.9420 C   0  0  0  0  0  0  0  0  0  0  0  0
   62.1500   34.1010   49.0370 C   0  0  0  0  0  0  0  0  0  0  0  0
   63.0150   34.2280   50.1300 C   0  0  0  0  0  0  0  0  0  0  0  0
   64.2290   33.5390   50.1460 C   0  0  0  0  0  0  0  0  0  0  0  0
   64.5770   32.7110   49.0770 C   0  0  0  0  0  0  0  0  0  0  0  0
   63.7150   32.5800   47.9830 C   0  0  0  0  0  0  0  0  0  0  0  0
   58.4680   34.4954   46.3489 H   0  0  0  0  0  0  0  0  0  0  0  0
   59.0832   35.3712   44.9063 H   0  0  0  0  0  0  0  0  0  0  0  0
   57.4173   34.6994   44.9063 H   0  0  0  0  0  0  0  0  0  0  0  0
   56.6418   32.6498   43.4658 H   0  0  0  0  0  0  0  0  0  0  0  0
   55.4950   30.4500   43.6293 H   0  0  0  0  0  0  0  0  0  0  0  0
   58.1159   26.8685   47.4776 H   0  0  0  0  0  0  0  0  0  0  0  0
   59.4466   32.9904   47.1336 H   0  0  0  0  0  0  0  0  0  0  0  0
   60.4720   31.8488   48.0968 H   0  0  0  0  0  0  0  0  0  0  0  0
   62.1063   32.6229   45.9556 H   0  0  0  0  0  0  0  0  0  0  0  0
   61.2364   34.1384   46.4692 H   0  0  0  0  0  0  0  0  0  0  0  0
   61.1885   34.6354   49.0344 H   0  0  0  0  0  0  0  0  0  0  0  0
   62.7378   34.8718   50.9778 H   0  0  0  0  0  0  0  0  0  0  0  0
   64.9119   33.6485   51.0014 H   0  0  0  0  0  0  0  0  0  0  0  0
   65.5296   32.1613   49.0950 H   0  0  0  0  0  0  0  0  0  0  0  0
   63.9861   31.9148   47.1499 H   0  0  0  0  0  0  0  0  0  0  0  0
  1  2  1  0
  2  3  1  0
  3  4  2  0
  4  5  1  0
  5  6  2  0
  6  7  1  0
  7  8  1  0
  8  9  1  0
  9 10  2  0
  9 11  1  0
  8 12  2  0
 12 13  1  0
 13 14  2  0
 13 15  1  0
 15 16  2  0
 16 17  1  0
 17 18  1  0
 18 19  1  0
 19 20  1  0
 20 21  2  0
 21 22  1  0
 22 23  2  0
 23 24  1  0
 24 25  2  0
 16  3  1  0
 25 20  1  0
 15  6  1  0
  1 26  1  0
  1 27  1  0
  1 28  1  0
  4 29  1  0
  5 30  1  0
 12 31  1  0
 18 32  1  0
 18 33  1  0
 19 34  1  0
 19 35  1  0
 21 36  1  0
 22 37  1  0
 23 38  1  0
 24 39  1  0
 25 40  1  0
M  CHG  2   7  -1  11  -1
M  END
>  <UniqueID>  (36) 
34

>  <SMILES>  (36) 
COc1ccc2[n-]c(C(=O)[O-])cc(=O)c2c1OCCc1ccccc1

>  <Energy>  (36) 
53.44547853779397

>  <Genealogy>  (36) 
COc1ccc2[n-]c(C(=O)[O-])cc(=O)c2c1OCCc1ccccc1 (protonated)
COc1ccc2[n-]c(C(=O)[O-])cc(=O)c2c1OCCc1ccccc1 (3D coordinates assigned)
COc1ccc2[n-]c(C(=O)[O-])cc(=O)c2c1OCCc1ccccc1 (optimized conformer: 53.44547853779397 kcal/mol)

>  <smiles>  (36) 
COc1ccc2[nH]c(C(=O)O)cc(=O)c2c1OCCc1ccccc1

>  <score_type>  (36) 
oracle

>  <origin>  (36) 
adg

>  <m_score__min__energy>  (36) 
-11.51

>  <m_primary>  (36) 
energy

$$$$
36:0
     RDKit          3D

 55 58  0  0  0  0  0  0  0  0999 V2000
   56.5200   31.0440   52.4480 C   0  0  0  0  0  0  0  0  0  0  0  0
   57.5600   31.3550   51.4250 C   0  0  0  0  0  0  0  0  0  0  0  0
   58.1460   30.4430   50.5730 C   0  0  0  0  0  0  0  0  0  0  0  0
   59.0250   31.1970   49.8210 C   0  0  0  0  0  0  0  0  0  0  0  0
   59.8630   30.6800   48.7210 C   0  0  0  0  0  0  0  0  0  0  0  0
   60.9260   30.0580   48.9780 O   0  0  0  0  0  0  0  0  0  0  0  0
   59.4600   30.8440   47.3520 N   0  0  0  0  0  0  0  0  0  0  0  0
   59.3350   29.6520   46.4980 C   0  0  0  0  0  0  0  0  0  0  0  0
   58.2660   29.8480   45.4580 C   0  0  0  0  0  0  0  0  0  0  0  0
   58.5170   30.6570   44.3380 C   0  0  0  0  0  0  0  0  0  0  0  0
   57.5420   30.8100   43.3460 C   0  0  0  0  0  0  0  0  0  0  0  0
   56.3110   30.1560   43.4660 C   0  0  0  0  0  0  0  0  0  0  0  0
   56.0530   29.3500   44.5800 C   0  0  0  0  0  0  0  0  0  0  0  0
   57.0240   29.1970   45.5760 C   0  0  0  0  0  0  0  0  0  0  0  0
   59.1960   32.1710   46.8470 C   0  0  0  0  0  0  0  0  0  0  0  0
   60.2450   32.9500   46.3230 C   0  0  0  0  0  0  0  0  0  0  0  0
   59.9970   34.2300   45.8220 C   0  0  0  0  0  0  0  0  0  0  0  0
   58.7030   34.7530   45.8450 C   0  0  0  0  0  0  0  0  0  0  0  0
   57.6560   33.9990   46.3790 C   0  0  0  0  0  0  0  0  0  0  0  0
   57.8990   32.7170   46.8830 C   0  0  0  0  0  0  0  0  0  0  0  0
   58.9590   32.4830   50.2390 N   0  0  0  0  0  0  0  0  0  0  0  0
   59.6240   33.6470   49.6510 C   0  0  0  0  0  0  0  0  0  0  0  0
   61.0100   33.8350   50.2730 C   0  0  0  0  0  0  0  0  0  0  0  0
   62.0850   33.4140   49.3090 C   0  0  0  0  0  0  0  0  0  0  0  0
   62.3990   34.2140   48.2020 C   0  0  0  0  0  0  0  0  0  0  0  0
   63.4230   33.8210   47.3370 C   0  0  0  0  0  0  0  0  0  0  0  0
   64.1160   32.6730   47.5730 N   0  0  0  0  0  0  0  0  0  0  0  0
   63.8400   31.8870   48.6490 C   0  0  0  0  0  0  0  0  0  0  0  0
   62.8240   32.2450   49.5390 C   0  0  0  0  0  0  0  0  0  0  0  0
   58.0610   32.5850   51.2070 N   0  0  0  0  0  0  0  0  0  0  0  0
   56.9458   31.1713   53.4542 H   0  0  0  0  0  0  0  0  0  0  0  0
   55.6663   31.7262   52.3221 H   0  0  0  0  0  0  0  0  0  0  0  0
   56.1809   30.0052   52.3221 H   0  0  0  0  0  0  0  0  0  0  0  0
   57.9565   29.3614   50.5073 H   0  0  0  0  0  0  0  0  0  0  0  0
   60.2960   29.4657   45.9963 H   0  0  0  0  0  0  0  0  0  0  0  0
   59.0591   28.7943   47.1290 H   0  0  0  0  0  0  0  0  0  0  0  0
   59.4838   31.1725   44.2401 H   0  0  0  0  0  0  0  0  0  0  0  0
   57.7436   31.4452   42.4709 H   0  0  0  0  0  0  0  0  0  0  0  0
   55.5461   30.2755   42.6845 H   0  0  0  0  0  0  0  0  0  0  0  0
   55.0852   28.8356   44.6732 H   0  0  0  0  0  0  0  0  0  0  0  0
   56.8160   28.5665   46.4530 H   0  0  0  0  0  0  0  0  0  0  0  0
   61.2685   32.5473   46.3080 H   0  0  0  0  0  0  0  0  0  0  0  0
   60.8231   34.8271   45.4085 H   0  0  0  0  0  0  0  0  0  0  0  0
   58.5082   35.7582   45.4428 H   0  0  0  0  0  0  0  0  0  0  0  0
   56.6377   34.4142   46.4034 H   0  0  0  0  0  0  0  0  0  0  0  0
   57.0713   32.1318   47.3102 H   0  0  0  0  0  0  0  0  0  0  0  0
   59.7300   33.4955   48.5667 H   0  0  0  0  0  0  0  0  0  0  0  0
   59.0180   34.5437   49.8478 H   0  0  0  0  0  0  0  0  0  0  0  0
   61.1500   34.8954   50.5299 H   0  0  0  0  0  0  0  0  0  0  0  0
   61.0804   33.2117   51.1766 H   0  0  0  0  0  0  0  0  0  0  0  0
   61.8431   35.1447   48.0156 H   0  0  0  0  0  0  0  0  0  0  0  0
   63.6702   34.4408   46.4626 H   0  0  0  0  0  0  0  0  0  0  0  0
   64.8800   32.3930   46.9180 H   0  0  0  0  0  0  0  0  0  0  0  0
   64.4185   30.9669   48.8187 H   0  0  0  0  0  0  0  0  0  0  0  0
   62.6057   31.6144   50.4135 H   0  0  0  0  0  0  0  0  0  0  0  0
  1  2  1  0
  2  3  1  0
  3  4  2  0
  4  5  1  0
  5  6  2  0
  5  7  1  0
  7  8  1  0
  8  9  1  0
  9 10  2  0
 10 11  1  0
 11 12  2  0
 12 13  1  0
 13 14  2  0
  7 15  1  0
 15 16  2  0
 16 17  1  0
 17 18  2  0
 18 19  1  0
 19 20  2  0
  4 21  1  0
 21 22  1  0
 22 23  1  0
 23 24  1  0
 24 25  2  0
 25 26  1  0
 26 27  2  0
 27 28  1  0
 28 29  2  0
 21 30  1  0
 30  2  2  0
 14  9  1  0
 20 15  1  0
 29 24  1  0
  1 31  1  0
  1 32  1  0
  1 33  1  0
  3 34  1  0
  8 35  1  0
  8 36  1  0
 10 37  1  0
 11 38  1  0
 12 39  1  0
 13 40  1  0
 14 41  1  0
 16 42  1  0
 17 43  1  0
 18 44  1  0
 19 45  1  0
 20 46  1  0
 22 47  1  0
 22 48  1  0
 23 49  1  0
 23 50  1  0
 25 51  1  0
 26 52  1  0
 27 53  1  0
 28 54  1  0
 29 55  1  0
M  CHG  1  27   1
M  END
>  <UniqueID>  (37) 
35

>  <SMILES>  (37) 
Cc1cc(C(=O)N(Cc2ccccc2)c2ccccc2)n(CCc2cc[nH+]cc2)n1

>  <Energy>  (37) 
92.88638039200676

>  <Genealogy>  (37) 
Cc1cc(C(=O)N(Cc2ccccc2)c2ccccc2)n(CCc2cc[nH+]cc2)n1 (protonated)
Cc1cc(C(=O)N(Cc2ccccc2)c2ccccc2)n(CCc2cc[nH+]cc2)n1 (3D coordinates assigned)
Cc1cc(C(=O)N(Cc2ccccc2)c2ccccc2)n(CCc2cc[nH+]cc2)n1 (optimized conformer: 92.88638039200676 kcal/mol)

>  <smiles>  (37) 
Cc1cc(C(=O)N(Cc2ccccc2)c2ccccc2)n(CCc2ccncc2)n1

>  <score_type>  (37) 
oracle

>  <origin>  (37) 
adg

>  <m_score__min__energy>  (37) 
-7.3200000000000003

>  <m_primary>  (37) 
energy

$$$$
37:0
     RDKit          3D

 42 43  0  0  0  0  0  0  0  0999 V2000
   55.1290   24.9790   45.6130 C   0  0  0  0  0  0  0  0  0  0  0  0
   55.3960   26.2890   46.0650 O   0  0  0  0  0  0  0  0  0  0  0  0
   56.6380   26.3290   46.7440 C   0  0  0  0  0  0  0  0  0  0  0  0
   57.6450   27.1690   45.9540 C   0  0  0  0  0  0  0  0  0  0  0  0
   56.9850   27.8850   44.8650 N   0  0  0  0  0  0  0  0  0  0  0  0
   56.4190   29.2010   44.9550 C   0  0  0  0  0  0  0  0  0  0  0  0
   55.1710   29.3340   44.8510 O   0  0  0  0  0  0  0  0  0  0  0  0
   57.2490   30.3960   45.2000 C   0  0  0  0  0  0  0  0  0  0  0  0
   57.0070   31.5740   44.4780 C   0  0  0  0  0  0  0  0  0  0  0  0
   57.7660   32.7210   44.7280 C   0  0  0  0  0  0  0  0  0  0  0  0
   58.7840   32.6980   45.6890 C   0  0  0  0  0  0  0  0  0  0  0  0
   59.6890   34.1690   46.0340 S   0  0  0  0  0  0  0  0  0  0  0  0
   61.1650   33.9270   45.8720 O   0  0  0  0  0  0  0  0  0  0  0  0
   59.2730   35.2310   45.0560 O   0  0  0  0  0  0  0  0  0  0  0  0
   59.3660   34.7310   47.6500 N   0  0  0  0  0  0  0  0  0  0  0  0
   59.6290   33.6860   48.6440 C   0  0  0  0  0  0  0  0  0  0  0  0
   61.0800   33.2870   48.6420 C   0  0  0  0  0  0  0  0  0  0  0  0
   62.0650   34.2120   49.0290 C   0  0  0  0  0  0  0  0  0  0  0  0
   63.4150   33.8490   49.0190 C   0  0  0  0  0  0  0  0  0  0  0  0
   63.7900   32.5630   48.6220 C   0  0  0  0  0  0  0  0  0  0  0  0
   62.8170   31.6370   48.2350 C   0  0  0  0  0  0  0  0  0  0  0  0
   61.4660   31.9970   48.2450 C   0  0  0  0  0  0  0  0  0  0  0  0
   59.0510   31.5130   46.3870 C   0  0  0  0  0  0  0  0  0  0  0  0
   58.2920   30.3650   46.1390 C   0  0  0  0  0  0  0  0  0  0  0  0
   54.9933   24.3132   46.4780 H   0  0  0  0  0  0  0  0  0  0  0  0
   54.2127   24.9807   45.0043 H   0  0  0  0  0  0  0  0  0  0  0  0
   55.9729   24.6220   45.0043 H   0  0  0  0  0  0  0  0  0  0  0  0
   56.4940   26.7751   47.7391 H   0  0  0  0  0  0  0  0  0  0  0  0
   57.0255   25.3044   46.8446 H   0  0  0  0  0  0  0  0  0  0  0  0
   58.1160   27.8972   46.6306 H   0  0  0  0  0  0  0  0  0  0  0  0
   58.4032   26.4975   45.5248 H   0  0  0  0  0  0  0  0  0  0  0  0
   56.2173   31.5953   43.7125 H   0  0  0  0  0  0  0  0  0  0  0  0
   57.5626   33.6454   44.1675 H   0  0  0  0  0  0  0  0  0  0  0  0
   59.3621   34.0644   49.6418 H   0  0  0  0  0  0  0  0  0  0  0  0
   59.0242   32.8030   48.3900 H   0  0  0  0  0  0  0  0  0  0  0  0
   61.7725   35.2255   49.3409 H   0  0  0  0  0  0  0  0  0  0  0  0
   64.1822   34.5760   49.3238 H   0  0  0  0  0  0  0  0  0  0  0  0
   64.8526   32.2788   48.6140 H   0  0  0  0  0  0  0  0  0  0  0  0
   63.1142   30.6250   47.9226 H   0  0  0  0  0  0  0  0  0  0  0  0
   60.7023   31.2663   47.9405 H   0  0  0  0  0  0  0  0  0  0  0  0
   59.8598   31.4855   47.1321 H   0  0  0  0  0  0  0  0  0  0  0  0
   58.5131   29.4341   46.6818 H   0  0  0  0  0  0  0  0  0  0  0  0
  1  2  1  0
  2  3  1  0
  3  4  1  0
  4  5  1  0
  5  6  1  0
  6  7  2  0
  6  8  1  0
  8  9  2  0
  9 10  1  0
 10 11  2  0
 11 12  1  0
 12 13  2  0
 12 14  2  0
 12 15  1  0
 15 16  1  0
 16 17  1  0
 17 18  2  0
 18 19  1  0
 19 20  2  0
 20 21  1  0
 21 22  2  0
 11 23  1  0
 23 24  2  0
 24  8  1  0
 22 17  1  0
  1 25  1  0
  1 26  1  0
  1 27  1  0
  3 28  1  0
  3 29  1  0
  4 30  1  0
  4 31  1  0
  9 32  1  0
 10 33  1  0
 16 34  1  0
 16 35  1  0
 18 36  1  0
 19 37  1  0
 20 38  1  0
 21 39  1  0
 22 40  1  0
 23 41  1  0
 24 42  1  0
M  CHG  2   5  -1  15  -1
M  END
>  <UniqueID>  (38) 
36

>  <SMILES>  (38) 
COCC[N-]C(=O)c1ccc(S(=O)(=O)[N-]Cc2ccccc2)cc1

>  <Energy>  (38) 
42.53507341171016

>  <Genealogy>  (38) 
COCC[N-]C(=O)c1ccc(S(=O)(=O)[N-]Cc2ccccc2)cc1 (protonated)
COCC[N-]C(=O)c1ccc(S(=O)(=O)[N-]Cc2ccccc2)cc1 (3D coordinates assigned)
COCC[N-]C(=O)c1ccc(S(=O)(=O)[N-]Cc2ccccc2)cc1 (optimized conformer: 42.53507341171016 kcal/mol)

>  <smiles>  (38) 
COCCNC(=O)c1ccc(S(=O)(=O)NCc2ccccc2)cc1

>  <score_type>  (38) 
oracle

>  <origin>  (38) 
adg

>  <m_score__min__energy>  (38) 
-10.9

>  <m_primary>  (38) 
energy

$$$$
38:0
     RDKit          3D

 43 46  0  0  0  0  0  0  0  0999 V2000
   61.4148   31.7823   46.0384 H   0  0  0  0  0  0  0  0  0  0  0  0
   60.7750   31.2600   46.7650 C   0  0  0  0  0  0  0  0  0  0  0  0
   61.0300   29.9640   47.0880 N   0  0  0  0  0  0  0  0  0  0  0  0
   60.2670   29.2750   47.9810 C   0  0  0  0  0  0  0  0  0  0  0  0
   60.5120   28.0300   48.2810 N   0  0  0  0  0  0  0  0  0  0  0  0
   59.9400   26.8200   47.7480 C   0  0  0  0  0  0  0  0  0  0  0  0
   59.2540   26.1000   48.5230 O   0  0  0  0  0  0  0  0  0  0  0  0
   60.1720   26.3230   46.3430 C   0  0  0  0  0  0  0  0  0  0  0  0
   61.2481   26.3682   46.1194 H   0  0  0  0  0  0  0  0  0  0  0  0
   59.8051   25.2883   46.2741 H   0  0  0  0  0  0  0  0  0  0  0  0
   59.4070   27.1830   45.3140 C   0  0  1  0  0  0  0  0  0  0  0  0
   60.1263   27.8794   44.8583 H   0  0  0  0  0  0  0  0  0  0  0  0
   58.8590   26.3510   44.2950 O   0  0  0  0  0  0  0  0  0  0  0  0
   57.6900   25.5960   44.4300 C   0  0  0  0  0  0  0  0  0  0  0  0
   57.4050   24.6430   43.4450 C   0  0  0  0  0  0  0  0  0  0  0  0
   58.1143   24.4832   42.6196 H   0  0  0  0  0  0  0  0  0  0  0  0
   56.2290   23.8940   43.5010 C   0  0  0  0  0  0  0  0  0  0  0  0
   56.0174   23.1428   42.7259 H   0  0  0  0  0  0  0  0  0  0  0  0
   55.3210   24.0990   44.5420 C   0  0  0  0  0  0  0  0  0  0  0  0
   54.1450   23.3590   44.5940 O   0  0  0  0  0  0  0  0  0  0  0  0
   55.5930   25.0500   45.5290 C   0  0  0  0  0  0  0  0  0  0  0  0
   54.8705   25.2153   46.3418 H   0  0  0  0  0  0  0  0  0  0  0  0
   56.7800   25.7950   45.4910 C   0  0  0  0  0  0  0  0  0  0  0  0
   57.0380   27.0200   46.7930 S   0  0  0  0  0  0  0  0  0  0  0  0
   58.3170   28.0500   45.9710 C   0  0  2  0  0  0  0  0  0  0  0  0
   58.7828   28.6310   46.7806 H   0  0  0  0  0  0  0  0  0  0  0  0
   57.7640   29.0980   45.0080 C   0  0  0  0  0  0  0  0  0  0  0  0
   58.5760   30.1020   44.4390 C   0  0  0  0  0  0  0  0  0  0  0  0
   59.6524   30.1245   44.6646 H   0  0  0  0  0  0  0  0  0  0  0  0
   58.0260   31.0690   43.5910 C   0  0  0  0  0  0  0  0  0  0  0  0
   58.6725   31.8410   43.1482 H   0  0  0  0  0  0  0  0  0  0  0  0
   56.6620   31.0580   43.3050 C   0  0  0  0  0  0  0  0  0  0  0  0
   56.2335   31.8193   42.6366 H   0  0  0  0  0  0  0  0  0  0  0  0
   55.8410   30.0810   43.8670 C   0  0  0  0  0  0  0  0  0  0  0  0
   54.7644   30.0748   43.6413 H   0  0  0  0  0  0  0  0  0  0  0  0
   56.3800   29.1080   44.7170 C   0  0  0  0  0  0  0  0  0  0  0  0
   55.5290   28.1570   45.2700 O   0  0  0  0  0  0  0  0  0  0  0  0
   59.1770   29.9150   48.5870 C   0  0  0  0  0  0  0  0  0  0  0  0
   58.5456   29.3720   49.3057 H   0  0  0  0  0  0  0  0  0  0  0  0
   58.8980   31.2470   48.2720 C   0  0  0  0  0  0  0  0  0  0  0  0
   58.0469   31.7587   48.7452 H   0  0  0  0  0  0  0  0  0  0  0  0
   59.7010   31.9270   47.3560 C   0  0  0  0  0  0  0  0  0  0  0  0
   59.4901   32.9764   47.1026 H   0  0  0  0  0  0  0  0  0  0  0  0
  1  2  1  0
  2  3  1  0
  3  4  1  0
  4  5  2  0
  5  6  1  0
  6  7  2  0
  6  8  1  0
  8  9  1  0
  8 10  1  0
  8 11  1  0
 11 12  1  6
 11 13  1  0
 13 14  1  0
 14 15  2  0
 15 16  1  0
 15 17  1  0
 17 18  1  0
 17 19  2  0
 19 20  1  0
 19 21  1  0
 21 22  1  0
 21 23  2  0
 23 24  1  0
 24 25  1  0
 25 26  1  1
 25 27  1  0
 27 28  2  0
 28 29  1  0
 28 30  1  0
 30 31  1  0
 30 32  2  0
 32 33  1  0
 32 34  1  0
 34 35  1  0
 34 36  2  0
 36 37  1  0
  4 38  1  0
 38 39  1  0
 38 40  2  0
 40 41  1  0
 40 42  1  0
 42 43  1  0
 42  2  2  0
 25 11  1  0
 36 27  1  0
 23 14  1  0
M  CHG  3   3  -1  20  -1  37  -1
M  END
>  <UniqueID>  (39) 
37

>  <SMILES>  (39) 
O=C(C[C@H]1Oc2ccc([O-])cc2S[C@@H]1c1ccccc1[O-])/N=c1/cccc[n-]1

>  <Energy>  (39) 
63.192840648913986

>  <Genealogy>  (39) 
O=C(CC1Oc2ccc([O-])cc2SC1c1ccccc1[O-])N=c1cccc[n-]1 (protonated)
O=C(C[C@H]1Oc2ccc([O-])cc2S[C@@H]1c1ccccc1[O-])N=c1cccc[n-]1 (chirality)
O=C(C[C@H]1Oc2ccc([O-])cc2S[C@@H]1c1ccccc1[O-])/N=c1/cccc[n-]1 (cis-trans isomerization)
O=C(C[C@H]1Oc2ccc([O-])cc2S[C@@H]1c1ccccc1[O-])/N=c1/cccc[n-]1 (3D coordinates assigned)
O=C(C[C@H]1Oc2ccc([O-])cc2S[C@@H]1c1ccccc1[O-])/N=c1/cccc[n-]1 (nonaromatic ring conformer: 63.192840648913986 kcal/mol)

>  <smiles>  (39) 
O=C(CC1Oc2ccc(O)cc2SC1c1ccccc1O)N=c1cccc[nH]1

>  <score_type>  (39) 
oracle

>  <origin>  (39) 
adg

>  <m_score__min__energy>  (39) 
-12.82

>  <m_primary>  (39) 
energy

$$$$
39:0
     RDKit          3D

 37 38  0  0  0  0  0  0  0  0999 V2000
   63.9070   32.3530   48.2940 N   0  0  0  0  0  0  0  0  0  0  0  0
   62.7210   33.4270   47.6400 S   0  0  0  0  0  0  0  0  0  0  0  0
   62.2710   34.3880   48.7040 O   0  0  0  0  0  0  0  0  0  0  0  0
   63.3210   34.2080   46.5060 O   0  0  0  0  0  0  0  0  0  0  0  0
   61.3450   32.4930   47.0600 C   0  0  0  0  0  0  0  0  0  0  0  0
   61.3620   31.0940   47.1330 C   0  0  0  0  0  0  0  0  0  0  0  0
   60.2660   30.3520   46.6800 C   0  0  0  0  0  0  0  0  0  0  0  0
   59.1420   31.0030   46.1430 C   0  0  0  0  0  0  0  0  0  0  0  0
   57.9960   30.2660   45.6870 N   0  0  0  0  0  0  0  0  0  0  0  0
   57.3800   30.4590   44.4030 C   0  0  0  0  0  0  0  0  0  0  0  0
   57.8720   31.2640   43.5670 O   0  0  0  0  0  0  0  0  0  0  0  0
   56.0920   29.7650   44.0740 C   0  0  0  0  0  0  0  0  0  0  0  0
   55.6460   28.9630   45.2100 N   0  0  0  0  0  0  0  0  0  0  0  0
   56.2710   27.7390   45.6080 C   0  0  0  0  0  0  0  0  0  0  0  0
   57.5280   27.6700   45.6280 O   0  0  0  0  0  0  0  0  0  0  0  0
   55.4720   26.6230   46.0170 N   0  0  0  0  0  0  0  0  0  0  0  0
   55.6110   25.2630   45.5850 C   0  0  0  0  0  0  0  0  0  0  0  0
   56.8770   24.8100   45.1880 C   0  0  0  0  0  0  0  0  0  0  0  0
   57.0640   23.4790   44.8010 C   0  0  0  0  0  0  0  0  0  0  0  0
   55.9880   22.5880   44.8200 C   0  0  0  0  0  0  0  0  0  0  0  0
   54.7270   23.0240   45.2340 C   0  0  0  0  0  0  0  0  0  0  0  0
   54.5370   24.3540   45.6220 C   0  0  0  0  0  0  0  0  0  0  0  0
   59.1180   32.4050   46.1020 C   0  0  0  0  0  0  0  0  0  0  0  0
   60.2150   33.1460   46.5520 C   0  0  0  0  0  0  0  0  0  0  0  0
   64.6020   32.1700   47.5370 H   0  0  0  0  0  0  0  0  0  0  0  0
   62.2400   30.5773   47.5479 H   0  0  0  0  0  0  0  0  0  0  0  0
   60.2839   29.2540   46.7444 H   0  0  0  0  0  0  0  0  0  0  0  0
   57.4900   29.6810   46.3900 H   0  0  0  0  0  0  0  0  0  0  0  0
   55.3248   30.5166   43.8365 H   0  0  0  0  0  0  0  0  0  0  0  0
   56.2514   29.1043   43.2091 H   0  0  0  0  0  0  0  0  0  0  0  0
   57.7288   25.5059   45.1808 H   0  0  0  0  0  0  0  0  0  0  0  0
   58.0584   23.1337   44.4816 H   0  0  0  0  0  0  0  0  0  0  0  0
   56.1338   21.5430   44.5089 H   0  0  0  0  0  0  0  0  0  0  0  0
   53.8821   22.3199   45.2548 H   0  0  0  0  0  0  0  0  0  0  0  0
   53.5450   24.6909   45.9572 H   0  0  0  0  0  0  0  0  0  0  0  0
   58.2301   32.9250   45.7132 H   0  0  0  0  0  0  0  0  0  0  0  0
   60.1904   34.2448   46.5069 H   0  0  0  0  0  0  0  0  0  0  0  0
  1  2  1  0
  2  3  2  0
  2  4  2  0
  2  5  1  0
  5  6  2  0
  6  7  1  0
  7  8  2  0
  8  9  1  0
  9 10  1  0
 10 11  2  0
 10 12  1  0
 12 13  1  0
 13 14  1  0
 14 15  2  0
 14 16  1  0
 16 17  1  0
 17 18  2  0
 18 19  1  0
 19 20  2  0
 20 21  1  0
 21 22  2  0
  8 23  1  0
 23 24  2  0
 24  5  1  0
 22 17  1  0
  1 25  1  0
  6 26  1  0
  7 27  1  0
  9 28  1  0
 12 29  1  0
 12 30  1  0
 18 31  1  0
 19 32  1  0
 20 33  1  0
 21 34  1  0
 22 35  1  0
 23 36  1  0
 24 37  1  0
M  CHG  3   1  -1  13  -1  16  -1
M  END
>  <UniqueID>  (40) 
38

>  <SMILES>  (40) 
[NH-]S(=O)(=O)c1ccc(NC(=O)C[N-]C(=O)[N-]c2ccccc2)cc1

>  <Energy>  (40) 
39.532821139138974

>  <Genealogy>  (40) 
[NH-]S(=O)(=O)c1ccc(NC(=O)C[N-]C(=O)[N-]c2ccccc2)cc1 (protonated)
[NH-]S(=O)(=O)c1ccc(NC(=O)C[N-]C(=O)[N-]c2ccccc2)cc1 (3D coordinates assigned)
[NH-]S(=O)(=O)c1ccc(NC(=O)C[N-]C(=O)[N-]c2ccccc2)cc1 (optimized conformer: 39.532821139138974 kcal/mol)

>  <smiles>  (40) 
NS(=O)(=O)c1ccc(NC(=O)CNC(=O)Nc2ccccc2)cc1

>  <score_type>  (40) 
oracle

>  <origin>  (40) 
adg

>  <m_score__min__energy>  (40) 
-11.550000000000001

>  <m_primary>  (40) 
energy

$$$$
40:0
     RDKit          3D

 52 55  0  0  0  0  0  0  0  0999 V2000
   61.3120   33.9770   50.4320 O   0  0  0  0  0  0  0  0  0  0  0  0
   61.8990   33.2510   51.2810 C   0  0  0  0  0  0  0  0  0  0  0  0
   61.5120   31.8750   51.4300 N   0  0  0  0  0  0  0  0  0  0  0  0
   60.8280   31.1250   50.4120 C   0  0  0  0  0  0  0  0  0  0  0  0
   59.5280   31.4710   49.9970 C   0  0  0  0  0  0  0  0  0  0  0  0
   58.8900   30.7360   48.9950 C   0  0  0  0  0  0  0  0  0  0  0  0
   59.5350   29.6480   48.3940 C   0  0  0  0  0  0  0  0  0  0  0  0
   58.7000   28.7120   47.1580 S   0  0  0  0  0  0  0  0  0  0  0  0
   59.7100   28.3210   46.1160 O   0  0  0  0  0  0  0  0  0  0  0  0
   58.1480   27.4470   47.7540 O   0  0  0  0  0  0  0  0  0  0  0  0
   57.4300   29.6220   46.3720 N   0  0  0  0  0  0  0  0  0  0  0  0
   57.4730   29.6690   44.8970 C   0  0  2  0  0  0  0  0  0  0  0  0
   58.3270   30.8430   44.3780 C   0  0  0  0  0  0  0  0  0  0  0  0
   58.0770   32.0970   45.1670 C   0  0  0  0  0  0  0  0  0  0  0  0
   56.8890   32.8180   45.2380 C   0  0  0  0  0  0  0  0  0  0  0  0
   57.0250   33.8720   46.0740 N   0  0  0  0  0  0  0  0  0  0  0  0
   58.2870   33.8220   46.5350 C   0  0  0  0  0  0  0  0  0  0  0  0
   58.8940   34.7000   47.4310 C   0  0  0  0  0  0  0  0  0  0  0  0
   60.2350   34.4580   47.7810 C   0  0  0  0  0  0  0  0  0  0  0  0
   60.9310   33.3570   47.2340 C   0  0  0  0  0  0  0  0  0  0  0  0
   62.6030   33.0690   47.6810 Cl  0  0  0  0  0  0  0  0  0  0  0  0
   60.2900   32.4870   46.3310 C   0  0  0  0  0  0  0  0  0  0  0  0
   58.9600   32.7520   46.0050 C   0  0  0  0  0  0  0  0  0  0  0  0
   56.1110   29.6040   44.2520 C   0  0  0  0  0  0  0  0  0  0  0  0
   55.1500   29.0820   44.8750 O   0  0  0  0  0  0  0  0  0  0  0  0
   55.8990   30.1180   42.9780 O   0  0  0  0  0  0  0  0  0  0  0  0
   60.8440   29.3260   48.7770 C   0  0  0  0  0  0  0  0  0  0  0  0
   61.4860   30.0620   49.7770 C   0  0  0  0  0  0  0  0  0  0  0  0
   62.9460   33.8460   52.1490 C   0  0  0  0  0  0  0  0  0  0  0  0
   64.0750   34.4630   51.5750 C   0  0  0  0  0  0  0  0  0  0  0  0
   65.0670   35.0200   52.3880 C   0  0  0  0  0  0  0  0  0  0  0  0
   64.9490   34.9610   53.7780 C   0  0  0  0  0  0  0  0  0  0  0  0
   63.8400   34.3430   54.3580 C   0  0  0  0  0  0  0  0  0  0  0  0
   62.8430   33.7850   53.5510 C   0  0  0  0  0  0  0  0  0  0  0  0
   61.6280   31.4310   52.3690 H   0  0  0  0  0  0  0  0  0  0  0  0
   59.0126   32.3235   50.4636 H   0  0  0  0  0  0  0  0  0  0  0  0
   57.8745   31.0136   48.6760 H   0  0  0  0  0  0  0  0  0  0  0  0
   57.9814   28.7460   44.5813 H   0  0  0  0  0  0  0  0  0  0  0  0
   59.3907   30.5750   44.4603 H   0  0  0  0  0  0  0  0  0  0  0  0
   58.0511   31.0337   43.3304 H   0  0  0  0  0  0  0  0  0  0  0  0
   55.9686   32.5659   44.6909 H   0  0  0  0  0  0  0  0  0  0  0  0
   56.2930   34.5790   46.3130 H   0  0  0  0  0  0  0  0  0  0  0  0
   58.3427   35.5543   47.8508 H   0  0  0  0  0  0  0  0  0  0  0  0
   60.7453   35.1310   48.4857 H   0  0  0  0  0  0  0  0  0  0  0  0
   60.8207   31.6268   45.8971 H   0  0  0  0  0  0  0  0  0  0  0  0
   61.3681   28.4911   48.2889 H   0  0  0  0  0  0  0  0  0  0  0  0
   62.5153   29.8053   50.0680 H   0  0  0  0  0  0  0  0  0  0  0  0
   64.1768   34.5068   50.4806 H   0  0  0  0  0  0  0  0  0  0  0  0
   65.9421   35.5056   51.9316 H   0  0  0  0  0  0  0  0  0  0  0  0
   65.7297   35.4014   54.4157 H   0  0  0  0  0  0  0  0  0  0  0  0
   63.7498   34.2946   55.4532 H   0  0  0  0  0  0  0  0  0  0  0  0
   61.9738   33.2959   54.0149 H   0  0  0  0  0  0  0  0  0  0  0  0
  1  2  2  0
  2  3  1  0
  3  4  1  0
  4  5  2  0
  5  6  1  0
  6  7  2  0
  7  8  1  0
  8  9  2  0
  8 10  2  0
  8 11  1  0
 11 12  1  0
 12 13  1  0
 13 14  1  0
 14 15  2  0
 15 16  1  0
 16 17  1  0
 17 18  2  0
 18 19  1  0
 19 20  2  0
 20 21  1  0
 20 22  1  0
 22 23  2  0
 12 24  1  0
 24 25  2  0
 24 26  1  0
  7 27  1  0
 27 28  2  0
  2 29  1  0
 29 30  2  0
 30 31  1  0
 31 32  2  0
 32 33  1  0
 33 34  2  0
 28  4  1  0
 34 29  1  0
 23 14  1  0
 23 17  1  0
  3 35  1  0
  5 36  1  0
  6 37  1  0
 12 38  1  6
 13 39  1  0
 13 40  1  0
 15 41  1  0
 16 42  1  0
 18 43  1  0
 19 44  1  0
 22 45  1  0
 27 46  1  0
 28 47  1  0
 30 48  1  0
 31 49  1  0
 32 50  1  0
 33 51  1  0
 34 52  1  0
M  CHG  2  11  -1  26  -1
M  END
>  <UniqueID>  (41) 
39

>  <SMILES>  (41) 
O=C(Nc1ccc(S(=O)(=O)[N-][C@H](Cc2c[nH]c3ccc(Cl)cc23)C(=O)[O-])cc1)c1ccccc1

>  <Energy>  (41) 
97.07719128389016

>  <Genealogy>  (41) 
O=C(Nc1ccc(S(=O)(=O)[N-]C(Cc2c[nH]c3ccc(Cl)cc23)C(=O)[O-])cc1)c1ccccc1 (protonated)
O=C(Nc1ccc(S(=O)(=O)[N-][C@H](Cc2c[nH]c3ccc(Cl)cc23)C(=O)[O-])cc1)c1ccccc1 (chirality)
O=C(Nc1ccc(S(=O)(=O)[N-][C@H](Cc2c[nH]c3ccc(Cl)cc23)C(=O)[O-])cc1)c1ccccc1 (3D coordinates assigned)
O=C(Nc1ccc(S(=O)(=O)[N-][C@H](Cc2c[nH]c3ccc(Cl)cc23)C(=O)[O-])cc1)c1ccccc1 (optimized conformer: 97.07719128389016 kcal/mol)

>  <smiles>  (41) 
O=C(Nc1ccc(S(=O)(=O)NC(Cc2c[nH]c3ccc(Cl)cc23)C(=O)O)cc1)c1ccccc1

>  <score_type>  (41) 
oracle

>  <origin>  (41) 
adg

>  <m_score__min__energy>  (41) 
-13.33

>  <m_primary>  (41) 
energy

$$$$
41:0
     RDKit          3D

 80 83  0  0  1  0  0  0  0  0999 V2000
   56.5250   29.3530   43.2700 C   0  0  0  0  0  0  0  0  0  0  0  0
   56.6030   30.6130   42.8380 C   0  0  0  0  0  0  0  0  0  0  0  0
   57.4190   31.5110   43.6720 C   0  0  0  0  0  0  0  0  0  0  0  0
   58.5460   31.8530   43.2330 O   0  0  0  0  0  0  0  0  0  0  0  0
   56.8950   31.9450   44.9210 N   0  0  0  0  0  0  0  0  0  0  0  0
   57.7050   32.8120   45.7030 C   0  0  0  0  0  0  0  0  0  0  0  0
   58.1060   33.9970   45.0990 C   0  0  0  0  0  0  0  0  0  0  0  0
   58.9030   34.9200   45.7750 C   0  0  0  0  0  0  0  0  0  0  0  0
   59.2980   34.6350   47.0820 C   0  0  0  0  0  0  0  0  0  0  0  0
   58.9000   33.4430   47.7040 C   0  0  0  0  0  0  0  0  0  0  0  0
   59.2980   33.2030   49.0420 N   0  0  0  0  0  0  0  0  0  0  0  0
   59.3830   32.0710   49.5960 C   0  0  0  0  0  0  0  0  0  0  0  0
   59.8120   30.9650   48.9180 N   0  0  0  0  0  0  0  0  0  0  0  0
   59.8950   29.7670   49.5260 C   0  0  0  0  0  0  0  0  0  0  0  0
   60.3000   28.7260   48.8800 N   0  0  0  0  0  0  0  0  0  0  0  0
   59.5140   27.9750   47.9740 C   0  0  0  0  0  0  0  0  0  0  0  0
   59.3620   26.6300   48.2300 C   0  0  0  0  0  0  0  0  0  0  0  0
   58.6020   25.8240   47.3810 C   0  0  0  0  0  0  0  0  0  0  0  0
   57.9810   26.3370   46.2700 C   0  0  0  0  0  0  0  0  0  0  0  0
   57.1850   25.5250   45.3830 N   0  0  0  0  0  0  0  0  0  0  0  0
   57.3940   25.4760   43.9670 C   0  0  0  0  0  0  0  0  0  0  0  0
   57.3430   24.0540   43.4340 C   0  0  0  0  0  0  0  0  0  0  0  0
   56.3520   23.2700   44.1580 N   0  0  0  0  0  0  0  0  0  0  0  0
   56.3880   21.8530   44.0760 C   0  0  0  0  0  0  0  0  0  0  0  0
   57.3180   21.3650   43.3550 O   0  0  0  0  0  0  0  0  0  0  0  0
   55.4750   21.0430   44.7330 O   0  0  0  0  0  0  0  0  0  0  0  0
   55.8760   20.4770   46.0030 C   0  0  1  0  0  0  0  0  0  0  0  0
   56.1800   19.0140   45.7790 C   0  0  0  0  0  0  0  0  0  0  0  0
   57.0290   21.2970   46.4630 C   0  0  0  0  0  0  0  0  0  0  0  0
   57.1950   21.4860   47.8540 N   0  0  0  0  0  0  0  0  0  0  0  0
   57.0150   20.3750   48.7170 C   0  0  0  0  0  0  0  0  0  0  0  0
   56.6130   22.7130   48.3570 C   0  0  0  0  0  0  0  0  0  0  0  0
   55.3830   24.0110   44.9330 C   0  0  0  0  0  0  0  0  0  0  0  0
   56.1350   24.7470   46.0150 C   0  0  0  0  0  0  0  0  0  0  0  0
   58.1510   27.6950   46.0390 C   0  0  0  0  0  0  0  0  0  0  0  0
   58.8980   28.5080   46.8640 C   0  0  0  0  0  0  0  0  0  0  0  0
   59.0340   29.8450   46.5880 O   0  0  0  0  0  0  0  0  0  0  0  0
   59.9630   30.4020   45.7030 C   0  0  0  0  0  0  0  0  0  0  0  0
   59.5660   29.5880   50.8180 N   0  0  0  0  0  0  0  0  0  0  0  0
   59.1430   30.6760   51.4890 C   0  0  0  0  0  0  0  0  0  0  0  0
   59.0410   31.9150   50.9180 C   0  0  0  0  0  0  0  0  0  0  0  0
   58.4770   33.2320   51.9160 Cl  0  0  0  0  0  0  0  0  0  0  0  0
   58.0980   32.5400   46.9910 C   0  0  0  0  0  0  0  0  0  0  0  0
   55.9357   28.6141   42.7072 H   0  0  0  0  0  0  0  0  0  0  0  0
   57.0500   29.0532   44.1890 H   0  0  0  0  0  0  0  0  0  0  0  0
   56.0945   30.9560   41.9249 H   0  0  0  0  0  0  0  0  0  0  0  0
   55.9390   31.6260   45.2370 H   0  0  0  0  0  0  0  0  0  0  0  0
   57.7887   34.2112   44.0678 H   0  0  0  0  0  0  0  0  0  0  0  0
   59.2144   35.8553   45.2868 H   0  0  0  0  0  0  0  0  0  0  0  0
   59.9274   35.3518   47.6297 H   0  0  0  0  0  0  0  0  0  0  0  0
   60.0860   31.0190   47.9130 H   0  0  0  0  0  0  0  0  0  0  0  0
   59.8449   26.1864   49.1132 H   0  0  0  0  0  0  0  0  0  0  0  0
   58.4984   24.7526   47.6077 H   0  0  0  0  0  0  0  0  0  0  0  0
   56.6115   26.0694   43.4716 H   0  0  0  0  0  0  0  0  0  0  0  0
   58.3942   25.8826   43.7565 H   0  0  0  0  0  0  0  0  0  0  0  0
   57.0763   24.0773   42.3671 H   0  0  0  0  0  0  0  0  0  0  0  0
   58.3307   23.5891   43.5695 H   0  0  0  0  0  0  0  0  0  0  0  0
   55.1082   20.5055   46.7902 H   0  0  0  0  0  0  0  0  0  0  0  0
   56.2851   18.5084   46.7503 H   0  0  0  0  0  0  0  0  0  0  0  0
   55.3588   18.5515   45.2118 H   0  0  0  0  0  0  0  0  0  0  0  0
   57.1175   18.9170   45.2118 H   0  0  0  0  0  0  0  0  0  0  0  0
   57.9437   20.8157   46.0867 H   0  0  0  0  0  0  0  0  0  0  0  0
   56.8240   22.3042   46.0711 H   0  0  0  0  0  0  0  0  0  0  0  0
   57.0694   20.7107   49.7631 H   0  0  0  0  0  0  0  0  0  0  0  0
   56.0314   19.9199   48.5286 H   0  0  0  0  0  0  0  0  0  0  0  0
   57.8046   19.6327   48.5286 H   0  0  0  0  0  0  0  0  0  0  0  0
   56.6200   22.6982   49.4569 H   0  0  0  0  0  0  0  0  0  0  0  0
   57.1999   23.5713   47.9981 H   0  0  0  0  0  0  0  0  0  0  0  0
   55.5770   22.8015   47.9981 H   0  0  0  0  0  0  0  0  0  0  0  0
   54.8554   24.7287   44.2876 H   0  0  0  0  0  0  0  0  0  0  0  0
   54.6373   23.3321   45.3724 H   0  0  0  0  0  0  0  0  0  0  0  0
   55.4499   25.4156   46.5568 H   0  0  0  0  0  0  0  0  0  0  0  0
   56.5674   24.0337   46.7321 H   0  0  0  0  0  0  0  0  0  0  0  0
   57.6678   28.1425   45.1579 H   0  0  0  0  0  0  0  0  0  0  0  0
   60.7693   30.8854   46.2741 H   0  0  0  0  0  0  0  0  0  0  0  0
   60.3870   29.6090   45.0694 H   0  0  0  0  0  0  0  0  0  0  0  0
   59.4633   31.1496   45.0694 H   0  0  0  0  0  0  0  0  0  0  0  0
   59.6300   28.6680   51.2800 H   0  0  0  0  0  0  0  0  0  0  0  0
   58.8660   30.5632   52.5476 H   0  0  0  0  0  0  0  0  0  0  0  0
   57.7796   31.6020   47.4692 H   0  0  0  0  0  0  0  0  0  0  0  0
  1  2  2  0
  2  3  1  0
  3  4  2  0
  3  5  1  0
  5  6  1  0
  6  7  2  0
  7  8  1  0
  8  9  2  0
  9 10  1  0
 10 11  1  0
 11 12  2  0
 12 13  1  0
 13 14  1  0
 14 15  2  0
 15 16  1  0
 16 17  2  0
 17 18  1  0
 18 19  2  0
 19 20  1  0
 20 21  1  0
 21 22  1  0
 22 23  1  0
 23 24  1  0
 24 25  2  0
 24 26  1  0
 26 27  1  0
 27 28  1  0
 27 29  1  0
 29 30  1  0
 30 31  1  0
 30 32  1  0
 23 33  1  0
 33 34  1  0
 19 35  1  0
 35 36  2  0
 36 37  1  0
 37 38  1  0
 14 39  1  0
 39 40  1  0
 40 41  2  0
 41 42  1  0
 10 43  2  0
 43  6  1  0
 41 12  1  0
 36 16  1  0
 34 20  1  0
  1 44  1  0
  1 45  1  0
  2 46  1  0
  5 47  1  0
  7 48  1  0
  8 49  1  0
  9 50  1  0
 13 51  1  0
 17 52  1  0
 18 53  1  0
 21 54  1  0
 21 55  1  0
 22 56  1  0
 22 57  1  0
 27 58  1  1
 28 59  1  0
 28 60  1  0
 28 61  1  0
 29 62  1  0
 29 63  1  0
 31 64  1  0
 31 65  1  0
 31 66  1  0
 32 67  1  0
 32 68  1  0
 32 69  1  0
 33 70  1  0
 33 71  1  0
 34 72  1  0
 34 73  1  0
 35 74  1  0
 38 75  1  0
 38 76  1  0
 38 77  1  0
 39 78  1  0
 40 79  1  0
 43 80  1  0
M  END
>  <smiles>  (42) 
C=CC(=O)Nc1cccc(N=c2[nH]c(=Nc3ccc(N4CCN(C(=O)OC(C)CN(C)C)CC4)cc3OC)[nH]cc2Cl)c1

>  <score_type>  (42) 
oracle

>  <origin>  (42) 
adg

>  <m_score__min__energy>  (42) 
-9.5700000000000003

>  <m_primary>  (42) 
energy

$$$$
42:0
     RDKit          3D

 20 21  0  0  0  0  0  0  0  0999 V2000
   54.9460   30.3930   51.5080 O   0  0  0  0  0  0  0  0  0  0  0  0
   54.1510   30.4480   52.6480 C   0  0  0  0  0  0  0  0  0  0  0  0
   54.7460   30.2480   53.8990 C   0  0  0  0  0  0  0  0  0  0  0  0
   53.9810   30.3250   55.0640 C   0  0  0  0  0  0  0  0  0  0  0  0
   52.6160   30.6010   54.9850 C   0  0  0  0  0  0  0  0  0  0  0  0
   52.0100   30.7980   53.7410 C   0  0  0  0  0  0  0  0  0  0  0  0
   52.7690   30.7230   52.5570 C   0  0  0  0  0  0  0  0  0  0  0  0
   52.1100   30.9210   51.2450 C   0  0  0  0  0  0  0  0  0  0  0  0
   52.1500   30.0650   50.1610 C   0  0  0  0  0  0  0  0  0  0  0  0
   51.3720   30.6580   49.1900 C   0  0  0  0  0  0  0  0  0  0  0  0
   51.1410   30.1160   47.9310 O   0  0  0  0  0  0  0  0  0  0  0  0
   50.8500   31.8300   49.6000 N   0  0  0  0  0  0  0  0  0  0  0  0
   51.3050   31.9800   50.8570 C   0  0  0  0  0  0  0  0  0  0  0  0
   51.0080   33.0900   51.6400 O   0  0  0  0  0  0  0  0  0  0  0  0
   55.8220   30.0290   53.9644 H   0  0  0  0  0  0  0  0  0  0  0  0
   54.4546   30.1680   56.0444 H   0  0  0  0  0  0  0  0  0  0  0  0
   52.0149   30.6638   55.9041 H   0  0  0  0  0  0  0  0  0  0  0  0
   50.9326   31.0131   53.6863 H   0  0  0  0  0  0  0  0  0  0  0  0
   52.6901   29.1095   50.0882 H   0  0  0  0  0  0  0  0  0  0  0  0
   50.2460   30.2370   47.4730 H   0  0  0  0  0  0  0  0  0  0  0  0
  1  2  1  0
  2  3  2  0
  3  4  1  0
  4  5  2  0
  5  6  1  0
  6  7  2  0
  7  8  1  0
  8  9  1  0
  9 10  2  0
 10 11  1  0
 10 12  1  0
 12 13  1  0
 13 14  1  0
  7  2  1  0
 13  8  2  0
  3 15  1  0
  4 16  1  0
  5 17  1  0
  6 18  1  0
  9 19  1  0
 11 20  1  0
M  CHG  3   1  -1  12  -1  14  -1
M  END
>  <UniqueID>  (43) 
40

>  <SMILES>  (43) 
[O-]c1ccccc1-c1cc(O)[n-]c1[O-]

>  <Energy>  (43) 
51.734613369931004

>  <Genealogy>  (43) 
[O-]c1ccccc1-c1cc(O)[n-]c1[O-] (protonated)
[O-]c1ccccc1-c1cc(O)[n-]c1[O-] (3D coordinates assigned)
[O-]c1ccccc1-c1cc(O)[n-]c1[O-] (optimized conformer: 51.734613369931004 kcal/mol)

>  <smiles>  (43) 
Oc1cc(-c2ccccc2O)c(O)[nH]1

>  <score_type>  (43) 
oracle

>  <origin>  (43) 
adg

>  <m_score__min__energy>  (43) 
-13.6

>  <m_primary>  (43) 
energy

$$$$
43:0
     RDKit          3D

 43 45  0  0  0  0  0  0  0  0999 V2000
   57.3240   31.5920   43.1840 O   0  0  0  0  0  0  0  0  0  0  0  0
   56.9150   30.7770   44.0550 C   0  0  0  0  0  0  0  0  0  0  0  0
   55.9360   29.7160   43.6650 C   0  0  0  0  0  0  0  0  0  0  0  0
   55.5250   28.9800   44.8520 N   0  0  0  0  0  0  0  0  0  0  0  0
   56.2640   27.8730   45.3780 C   0  0  0  0  0  0  0  0  0  0  0  0
   55.6440   26.8440   45.7670 O   0  0  0  0  0  0  0  0  0  0  0  0
   57.7470   27.9240   45.4690 C   0  0  0  0  0  0  0  0  0  0  0  0
   58.5090   28.1590   44.3070 C   0  0  0  0  0  0  0  0  0  0  0  0
   59.9040   28.2110   44.3680 C   0  0  0  0  0  0  0  0  0  0  0  0
   60.5590   28.0300   45.5870 C   0  0  0  0  0  0  0  0  0  0  0  0
   59.8190   27.7960   46.7480 C   0  0  0  0  0  0  0  0  0  0  0  0
   58.4220   27.7410   46.6970 C   0  0  0  0  0  0  0  0  0  0  0  0
   57.7440   27.5060   47.8480 F   0  0  0  0  0  0  0  0  0  0  0  0
   57.3560   30.8760   45.4180 N   0  0  0  0  0  0  0  0  0  0  0  0
   58.4510   31.7010   45.8550 C   0  0  0  0  0  0  0  0  0  0  0  0
   59.5410   31.1610   46.5610 C   0  0  0  0  0  0  0  0  0  0  0  0
   60.5820   31.9880   46.9910 C   0  0  0  0  0  0  0  0  0  0  0  0
   60.5520   33.3620   46.7310 C   0  0  0  0  0  0  0  0  0  0  0  0
   61.6120   34.1580   47.1880 O   0  0  0  0  0  0  0  0  0  0  0  0
   62.4740   33.8370   48.2470 C   0  0  0  0  0  0  0  0  0  0  0  0
   63.6260   33.0900   47.9730 C   0  0  0  0  0  0  0  0  0  0  0  0
   64.5190   32.7650   49.0000 C   0  0  0  0  0  0  0  0  0  0  0  0
   64.2700   33.1960   50.3060 C   0  0  0  0  0  0  0  0  0  0  0  0
   63.1330   33.9580   50.5860 C   0  0  0  0  0  0  0  0  0  0  0  0
   62.2390   34.2850   49.5600 C   0  0  0  0  0  0  0  0  0  0  0  0
   59.4410   33.9100   46.0650 C   0  0  0  0  0  0  0  0  0  0  0  0
   58.3990   33.0850   45.6340 C   0  0  0  0  0  0  0  0  0  0  0  0
   55.0555   30.1821   43.1986 H   0  0  0  0  0  0  0  0  0  0  0  0
   56.4063   29.0264   42.9486 H   0  0  0  0  0  0  0  0  0  0  0  0
   58.0005   28.3029   43.3423 H   0  0  0  0  0  0  0  0  0  0  0  0
   60.4870   28.3949   43.4535 H   0  0  0  0  0  0  0  0  0  0  0  0
   61.6572   28.0716   45.6333 H   0  0  0  0  0  0  0  0  0  0  0  0
   60.3374   27.6542   47.7078 H   0  0  0  0  0  0  0  0  0  0  0  0
   56.8000   30.3720   46.1460 H   0  0  0  0  0  0  0  0  0  0  0  0
   59.5742   30.0827   46.7757 H   0  0  0  0  0  0  0  0  0  0  0  0
   61.4321   31.5549   47.5385 H   0  0  0  0  0  0  0  0  0  0  0  0
   63.8302   32.7568   46.9448 H   0  0  0  0  0  0  0  0  0  0  0  0
   65.4175   32.1700   48.7794 H   0  0  0  0  0  0  0  0  0  0  0  0
   64.9696   32.9351   51.1138 H   0  0  0  0  0  0  0  0  0  0  0  0
   62.9403   34.3011   51.6132 H   0  0  0  0  0  0  0  0  0  0  0  0
   61.3500   34.8941   49.7807 H   0  0  0  0  0  0  0  0  0  0  0  0
   59.3922   34.9937   45.8825 H   0  0  0  0  0  0  0  0  0  0  0  0
   57.5323   33.5238   45.1180 H   0  0  0  0  0  0  0  0  0  0  0  0
  1  2  2  0
  2  3  1  0
  3  4  1  0
  4  5  1  0
  5  6  2  0
  5  7  1  0
  7  8  2  0
  8  9  1  0
  9 10  2  0
 10 11  1  0
 11 12  2  0
 12 13  1  0
  2 14  1  0
 14 15  1  0
 15 16  2  0
 16 17  1  0
 17 18  2  0
 18 19  1  0
 19 20  1  0
 20 21  2  0
 21 22  1  0
 22 23  2  0
 23 24  1  0
 24 25  2  0
 18 26  1  0
 26 27  2  0
 12  7  1  0
 27 15  1  0
 25 20  1  0
  3 28  1  0
  3 29  1  0
  8 30  1  0
  9 31  1  0
 10 32  1  0
 11 33  1  0
 14 34  1  0
 16 35  1  0
 17 36  1  0
 21 37  1  0
 22 38  1  0
 23 39  1  0
 24 40  1  0
 25 41  1  0
 26 42  1  0
 27 43  1  0
M  CHG  1   4  -1
M  END
>  <UniqueID>  (44) 
41

>  <SMILES>  (44) 
O=C(C[N-]C(=O)c1ccccc1F)Nc1ccc(Oc2ccccc2)cc1

>  <Energy>  (44) 
54.08736371387353

>  <Genealogy>  (44) 
O=C(C[N-]C(=O)c1ccccc1F)Nc1ccc(Oc2ccccc2)cc1 (protonated)
O=C(C[N-]C(=O)c1ccccc1F)Nc1ccc(Oc2ccccc2)cc1 (3D coordinates assigned)
O=C(C[N-]C(=O)c1ccccc1F)Nc1ccc(Oc2ccccc2)cc1 (optimized conformer: 54.08736371387353 kcal/mol)

>  <smiles>  (44) 
O=C(CNC(=O)c1ccccc1F)Nc1ccc(Oc2ccccc2)cc1

>  <score_type>  (44) 
oracle

>  <origin>  (44) 
adg

>  <m_score__min__energy>  (44) 
-9.9700000000000006

>  <m_primary>  (44) 
energy

$$$$
44:0
     RDKit          3D

 54 56  0  0  0  0  0  0  0  0999 V2000
   57.0030   24.4660   43.5570 C   0  0  0  0  0  0  0  0  0  0  0  0
   57.7460   25.1840   44.6790 C   0  0  0  0  0  0  0  0  0  0  0  0
   57.5500   26.6340   44.5970 N   0  0  0  0  0  0  0  0  0  0  0  0
   58.1330   27.5530   45.5450 C   0  0  0  0  0  0  0  0  0  0  0  0
   59.1220   27.1090   46.4430 C   0  0  0  0  0  0  0  0  0  0  0  0
   59.6900   27.9780   47.3730 C   0  0  0  0  0  0  0  0  0  0  0  0
   59.2940   29.3200   47.4270 C   0  0  0  0  0  0  0  0  0  0  0  0
   59.9000   30.2380   48.4190 C   0  0  0  0  0  0  0  0  0  0  0  0
   60.9130   30.9190   48.1020 O   0  0  0  0  0  0  0  0  0  0  0  0
   59.3610   30.3150   49.7460 N   0  0  0  0  0  0  0  0  0  0  0  0
   59.1500   31.4960   50.5330 C   0  0  0  0  0  0  0  0  0  0  0  0
   59.9610   32.6450   50.4890 C   0  0  0  0  0  0  0  0  0  0  0  0
   59.5280   33.6630   51.3290 C   0  0  0  0  0  0  0  0  0  0  0  0
   58.1330   33.1500   52.1080 S   0  0  0  0  0  0  0  0  0  0  0  0
   58.0600   31.6290   51.3950 C   0  0  0  0  0  0  0  0  0  0  0  0
   57.0060   30.6370   51.6600 C   0  0  0  0  0  0  0  0  0  0  0  0
   55.7890   30.9710   51.6070 O   0  0  0  0  0  0  0  0  0  0  0  0
   57.3640   29.3230   51.9740 O   0  0  0  0  0  0  0  0  0  0  0  0
   58.4920   29.0050   52.7850 C   0  0  0  0  0  0  0  0  0  0  0  0
   58.3170   29.7780   46.5290 C   0  0  0  0  0  0  0  0  0  0  0  0
   57.7290   28.9110   45.5930 C   0  0  0  0  0  0  0  0  0  0  0  0
   56.5360   29.5690   44.4620 S   0  0  0  0  0  0  0  0  0  0  0  0
   56.8350   29.0790   43.0750 O   0  0  0  0  0  0  0  0  0  0  0  0
   55.1520   29.1230   44.8400 O   0  0  0  0  0  0  0  0  0  0  0  0
   56.5890   31.2990   44.4950 N   0  0  0  0  0  0  0  0  0  0  0  0
   57.8170   31.6640   44.0440 O   0  0  0  0  0  0  0  0  0  0  0  0
   57.8180   33.0690   44.0040 C   0  0  0  0  0  0  0  0  0  0  0  0
   58.4050   33.6000   45.2800 C   0  0  0  0  0  0  0  0  0  0  0  0
   57.9720   33.0870   46.5160 C   0  0  0  0  0  0  0  0  0  0  0  0
   58.5350   33.5530   47.7080 C   0  0  0  0  0  0  0  0  0  0  0  0
   59.5300   34.5350   47.6740 C   0  0  0  0  0  0  0  0  0  0  0  0
   59.9640   35.0500   46.4510 C   0  0  0  0  0  0  0  0  0  0  0  0
   59.4060   34.5840   45.2570 C   0  0  0  0  0  0  0  0  0  0  0  0
   56.2758   23.7633   43.9898 H   0  0  0  0  0  0  0  0  0  0  0  0
   56.4746   25.2043   42.9360 H   0  0  0  0  0  0  0  0  0  0  0  0
   57.7228   23.9126   42.9360 H   0  0  0  0  0  0  0  0  0  0  0  0
   57.3685   24.8245   45.6476 H   0  0  0  0  0  0  0  0  0  0  0  0
   58.8204   24.9701   44.5798 H   0  0  0  0  0  0  0  0  0  0  0  0
   57.0170   27.0090   43.7830 H   0  0  0  0  0  0  0  0  0  0  0  0
   59.4516   26.0601   46.4102 H   0  0  0  0  0  0  0  0  0  0  0  0
   60.4555   27.6066   48.0702 H   0  0  0  0  0  0  0  0  0  0  0  0
   60.8527   32.7290   49.8504 H   0  0  0  0  0  0  0  0  0  0  0  0
   60.0166   34.6396   51.4611 H   0  0  0  0  0  0  0  0  0  0  0  0
   58.2142   29.0833   53.8465 H   0  0  0  0  0  0  0  0  0  0  0  0
   58.8225   27.9787   52.5672 H   0  0  0  0  0  0  0  0  0  0  0  0
   59.3099   29.7076   52.5672 H   0  0  0  0  0  0  0  0  0  0  0  0
   58.0068   30.8329   46.5587 H   0  0  0  0  0  0  0  0  0  0  0  0
   58.4216   33.4121   43.1508 H   0  0  0  0  0  0  0  0  0  0  0  0
   56.7871   33.4357   43.8913 H   0  0  0  0  0  0  0  0  0  0  0  0
   57.1876   32.3164   46.5450 H   0  0  0  0  0  0  0  0  0  0  0  0
   58.1953   33.1472   48.6723 H   0  0  0  0  0  0  0  0  0  0  0  0
   59.9714   34.9023   48.6122 H   0  0  0  0  0  0  0  0  0  0  0  0
   60.7459   35.8233   46.4270 H   0  0  0  0  0  0  0  0  0  0  0  0
   59.7527   34.9901   44.2953 H   0  0  0  0  0  0  0  0  0  0  0  0
  1  2  1  0
  2  3  1  0
  3  4  1  0
  4  5  2  0
  5  6  1  0
  6  7  2  0
  7  8  1  0
  8  9  2  0
  8 10  1  0
 10 11  1  0
 11 12  1  0
 12 13  2  0
 13 14  1  0
 14 15  1  0
 15 16  1  0
 16 17  2  0
 16 18  1  0
 18 19  1  0
  7 20  1  0
 20 21  2  0
 21 22  1  0
 22 23  2  0
 22 24  2  0
 22 25  1  0
 25 26  1  0
 26 27  1  0
 27 28  1  0
 28 29  2  0
 29 30  1  0
 30 31  2  0
 31 32  1  0
 32 33  2  0
 21  4  1  0
 33 28  1  0
 15 11  2  0
  1 34  1  0
  1 35  1  0
  1 36  1  0
  2 37  1  0
  2 38  1  0
  3 39  1  0
  5 40  1  0
  6 41  1  0
 12 42  1  0
 13 43  1  0
 19 44  1  0
 19 45  1  0
 19 46  1  0
 20 47  1  0
 27 48  1  0
 27 49  1  0
 29 50  1  0
 30 51  1  0
 31 52  1  0
 32 53  1  0
 33 54  1  0
M  CHG  2  10  -1  25  -1
M  END
>  <UniqueID>  (45) 
42

>  <SMILES>  (45) 
CCNc1ccc(C(=O)[N-]c2ccsc2C(=O)OC)cc1S(=O)(=O)[N-]OCc1ccccc1

>  <Energy>  (45) 
77.1911221161415

>  <Genealogy>  (45) 
CCNc1ccc(C(=O)[N-]c2ccsc2C(=O)OC)cc1S(=O)(=O)[N-]OCc1ccccc1 (protonated)
CCNc1ccc(C(=O)[N-]c2ccsc2C(=O)OC)cc1S(=O)(=O)[N-]OCc1ccccc1 (3D coordinates assigned)
CCNc1ccc(C(=O)[N-]c2ccsc2C(=O)OC)cc1S(=O)(=O)[N-]OCc1ccccc1 (optimized conformer: 77.1911221161415 kcal/mol)

>  <smiles>  (45) 
CCNc1ccc(C(=O)Nc2ccsc2C(=O)OC)cc1S(=O)(=O)NOCc1ccccc1

>  <score_type>  (45) 
oracle

>  <origin>  (45) 
adg

>  <m_score__min__energy>  (45) 
-11.869999999999999

>  <m_primary>  (45) 
energy

$$$$
45:0
     RDKit          3D

 29 30  0  0  0  0  0  0  0  0999 V2000
   56.3610   29.3610   45.6250 O   0  0  0  0  0  0  0  0  0  0  0  0
   57.5220   28.9190   45.4010 C   0  0  0  0  0  0  0  0  0  0  0  0
   57.7690   27.5050   45.3590 N   0  0  0  0  0  0  0  0  0  0  0  0
   56.7530   26.5040   45.5440 C   0  0  0  0  0  0  0  0  0  0  0  0
   55.5560   26.8370   45.7570 O   0  0  0  0  0  0  0  0  0  0  0  0
   57.1060   25.0770   45.4830 C   0  0  0  0  0  0  0  0  0  0  0  0
   56.2600   24.0200   45.7710 C   0  0  0  0  0  0  0  0  0  0  0  0
   57.0070   22.8750   45.5830 C   0  0  0  0  0  0  0  0  0  0  0  0
   58.2580   23.3150   45.1950 C   0  0  0  0  0  0  0  0  0  0  0  0
   59.3760   22.4810   44.8850 N   0  0  0  0  0  0  0  0  0  0  0  0
   60.3940   22.4890   45.6090 O   0  0  0  0  0  0  0  0  0  0  0  0
   59.3370   21.6640   43.7800 O   0  0  0  0  0  0  0  0  0  0  0  0
   58.2920   24.6260   45.1420 O   0  0  0  0  0  0  0  0  0  0  0  0
   58.6100   29.8330   45.2040 N   0  0  0  0  0  0  0  0  0  0  0  0
   58.4270   31.2560   45.1970 C   0  0  0  0  0  0  0  0  0  0  0  0
   58.9440   32.0570   46.2370 C   0  0  0  0  0  0  0  0  0  0  0  0
   59.7780   31.3480   47.6150 Cl  0  0  0  0  0  0  0  0  0  0  0  0
   58.7490   33.4430   46.2140 C   0  0  0  0  0  0  0  0  0  0  0  0
   58.0360   34.0370   45.1720 C   0  0  0  0  0  0  0  0  0  0  0  0
   57.5030   33.2480   44.1510 C   0  0  0  0  0  0  0  0  0  0  0  0
   57.6900   31.8610   44.1620 C   0  0  0  0  0  0  0  0  0  0  0  0
   57.0190   30.9040   42.8470 Cl  0  0  0  0  0  0  0  0  0  0  0  0
   58.7490   27.1890   45.1780 H   0  0  0  0  0  0  0  0  0  0  0  0
   55.2076   24.0803   46.0854 H   0  0  0  0  0  0  0  0  0  0  0  0
   56.6769   21.8339   45.7141 H   0  0  0  0  0  0  0  0  0  0  0  0
   59.5850   29.4580   45.2240 H   0  0  0  0  0  0  0  0  0  0  0  0
   59.1599   34.0669   47.0214 H   0  0  0  0  0  0  0  0  0  0  0  0
   57.8938   35.1276   45.1550 H   0  0  0  0  0  0  0  0  0  0  0  0
   56.9342   33.7180   43.3352 H   0  0  0  0  0  0  0  0  0  0  0  0
  1  2  2  0
  2  3  1  0
  3  4  1  0
  4  5  2  0
  4  6  1  0
  6  7  2  0
  7  8  1  0
  8  9  2  0
  9 10  1  0
 10 11  2  0
 10 12  1  0
  9 13  1  0
  2 14  1  0
 14 15  1  0
 15 16  2  0
 16 17  1  0
 16 18  1  0
 18 19  2  0
 19 20  1  0
 20 21  2  0
 21 22  1  0
 13  6  1  0
 21 15  1  0
  3 23  1  0
  7 24  1  0
  8 25  1  0
 14 26  1  0
 18 27  1  0
 19 28  1  0
 20 29  1  0
M  CHG  2  10   1  12  -1
M  END
>  <UniqueID>  (46) 
43

>  <SMILES>  (46) 
O=C(NC(=O)c1ccc([N+](=O)[O-])o1)Nc1c(Cl)cccc1Cl

>  <Energy>  (46) 
61.125899913039476

>  <Genealogy>  (46) 
O=C(NC(=O)c1ccc([N+](=O)[O-])o1)Nc1c(Cl)cccc1Cl (3D coordinates assigned)
O=C(NC(=O)c1ccc([N+](=O)[O-])o1)Nc1c(Cl)cccc1Cl (optimized conformer: 61.125899913039476 kcal/mol)

>  <smiles>  (46) 
O=C(NC(=O)c1ccc([N+](=O)[O-])o1)Nc1c(Cl)cccc1Cl

>  <score_type>  (46) 
oracle

>  <origin>  (46) 
adg

>  <m_score__min__energy>  (46) 
-7.6200000000000001

>  <m_primary>  (46) 
energy

$$$$
46:0
     RDKit          3D

 54 57  0  0  0  0  0  0  0  0999 V2000
   64.0540   32.5300   46.7630 N   0  0  0  0  0  0  0  0  0  0  0  0
   63.5130   33.0000   48.0460 C   0  0  2  0  0  0  0  0  0  0  0  0
   63.4590   31.8620   49.0900 C   0  0  0  0  0  0  0  0  0  0  0  0
   62.1370   31.1970   49.0930 N   0  0  0  0  0  0  0  0  0  0  0  0
   61.4200   31.0730   50.2540 C   0  0  0  0  0  0  0  0  0  0  0  0
   61.8970   31.5160   51.3360 O   0  0  0  0  0  0  0  0  0  0  0  0
   60.1860   30.4760   50.2490 N   0  0  0  0  0  0  0  0  0  0  0  0
   59.4400   30.3080   51.5140 C   0  0  0  0  0  0  0  0  0  0  0  0
   59.2190   31.6430   52.1770 C   0  0  0  0  0  0  0  0  0  0  0  0
   58.8550   32.7640   51.4120 C   0  0  0  0  0  0  0  0  0  0  0  0
   58.6180   33.9950   52.0320 C   0  0  0  0  0  0  0  0  0  0  0  0
   58.7390   34.1160   53.4190 C   0  0  0  0  0  0  0  0  0  0  0  0
   59.0970   33.0050   54.1880 C   0  0  0  0  0  0  0  0  0  0  0  0
   59.3350   31.7720   53.5720 C   0  0  0  0  0  0  0  0  0  0  0  0
   59.6730   30.0040   49.0720 C   0  0  0  0  0  0  0  0  0  0  0  0
   58.5290   29.4650   49.0530 O   0  0  0  0  0  0  0  0  0  0  0  0
   60.3810   30.1240   47.9110 N   0  0  0  0  0  0  0  0  0  0  0  0
   59.8340   29.6210   46.6730 C   0  0  0  0  0  0  0  0  0  0  0  0
   60.3410   28.4440   46.1010 C   0  0  0  0  0  0  0  0  0  0  0  0
   59.8090   27.9580   44.9020 C   0  0  0  0  0  0  0  0  0  0  0  0
   58.7700   28.6450   44.2680 C   0  0  0  0  0  0  0  0  0  0  0  0
   58.2600   29.8190   44.8310 C   0  0  0  0  0  0  0  0  0  0  0  0
   56.9550   30.6800   44.0350 Cl  0  0  0  0  0  0  0  0  0  0  0  0
   58.7900   30.3070   46.0320 C   0  0  0  0  0  0  0  0  0  0  0  0
   61.6100   30.7200   47.9230 C   0  0  0  0  0  0  0  0  0  0  0  0
   62.2700   30.8200   46.8490 O   0  0  0  0  0  0  0  0  0  0  0  0
   62.1350   33.6100   47.8570 C   0  0  0  0  0  0  0  0  0  0  0  0
   61.3630   34.0120   48.9640 C   0  0  0  0  0  0  0  0  0  0  0  0
   60.0990   34.5800   48.7760 C   0  0  0  0  0  0  0  0  0  0  0  0
   59.5940   34.7560   47.4850 C   0  0  0  0  0  0  0  0  0  0  0  0
   60.3540   34.3650   46.3800 C   0  0  0  0  0  0  0  0  0  0  0  0
   61.6180   33.7970   46.5620 C   0  0  0  0  0  0  0  0  0  0  0  0
   64.3660   31.5370   46.8520 H   0  0  0  0  0  0  0  0  0  0  0  0
   64.8880   33.1040   46.4980 H   0  0  0  0  0  0  0  0  0  0  0  0
   63.3370   32.5970   46.0050 H   0  0  0  0  0  0  0  0  0  0  0  0
   64.1933   33.7757   48.4274 H   0  0  0  0  0  0  0  0  0  0  0  0
   64.2334   31.1186   48.8500 H   0  0  0  0  0  0  0  0  0  0  0  0
   63.6314   32.2962   50.0859 H   0  0  0  0  0  0  0  0  0  0  0  0
   58.4658   29.8438   51.3009 H   0  0  0  0  0  0  0  0  0  0  0  0
   60.0252   29.6673   52.1900 H   0  0  0  0  0  0  0  0  0  0  0  0
   58.7560   32.6729   50.3203 H   0  0  0  0  0  0  0  0  0  0  0  0
   58.3359   34.8693   51.4270 H   0  0  0  0  0  0  0  0  0  0  0  0
   58.5526   35.0849   53.9052 H   0  0  0  0  0  0  0  0  0  0  0  0
   59.1917   33.1006   55.2797 H   0  0  0  0  0  0  0  0  0  0  0  0
   59.6140   30.8999   54.1815 H   0  0  0  0  0  0  0  0  0  0  0  0
   61.1595   27.9018   46.5972 H   0  0  0  0  0  0  0  0  0  0  0  0
   60.2087   27.0344   44.4578 H   0  0  0  0  0  0  0  0  0  0  0  0
   58.3530   28.2617   43.3250 H   0  0  0  0  0  0  0  0  0  0  0  0
   58.3873   31.2302   46.4743 H   0  0  0  0  0  0  0  0  0  0  0  0
   61.7565   33.8785   49.9825 H   0  0  0  0  0  0  0  0  0  0  0  0
   59.5011   34.8889   49.6461 H   0  0  0  0  0  0  0  0  0  0  0  0
   58.5991   35.2019   47.3390 H   0  0  0  0  0  0  0  0  0  0  0  0
   59.9565   34.5045   45.3639 H   0  0  0  0  0  0  0  0  0  0  0  0
   62.2123   33.4943   45.6872 H   0  0  0  0  0  0  0  0  0  0  0  0
  1  2  1  0
  2  3  1  0
  3  4  1  0
  4  5  1  0
  5  6  2  0
  5  7  1  0
  7  8  1  0
  8  9  1  0
  9 10  2  0
 10 11  1  0
 11 12  2  0
 12 13  1  0
 13 14  2  0
  7 15  1  0
 15 16  2  0
 15 17  1  0
 17 18  1  0
 18 19  2  0
 19 20  1  0
 20 21  2  0
 21 22  1  0
 22 23  1  0
 22 24  2  0
 17 25  1  0
 25 26  2  0
  2 27  1  0
 27 28  2  0
 28 29  1  0
 29 30  2  0
 30 31  1  0
 31 32  2  0
 25  4  1  0
 32 27  1  0
 14  9  1  0
 24 18  1  0
  1 33  1  0
  1 34  1  0
  1 35  1  0
  2 36  1  1
  3 37  1  0
  3 38  1  0
  8 39  1  0
  8 40  1  0
 10 41  1  0
 11 42  1  0
 12 43  1  0
 13 44  1  0
 14 45  1  0
 19 46  1  0
 20 47  1  0
 21 48  1  0
 24 49  1  0
 28 50  1  0
 29 51  1  0
 30 52  1  0
 31 53  1  0
 32 54  1  0
M  CHG  1   1   1
M  END
>  <UniqueID>  (47) 
44

>  <SMILES>  (47) 
[NH3+][C@H](Cn1c(=O)n(Cc2ccccc2)c(=O)n(-c2cccc(Cl)c2)c1=O)c1ccccc1

>  <Energy>  (47) 
74.01264641696208

>  <Genealogy>  (47) 
[NH3+]C(Cn1c(=O)n(Cc2ccccc2)c(=O)n(-c2cccc(Cl)c2)c1=O)c1ccccc1 (protonated)
[NH3+][C@H](Cn1c(=O)n(Cc2ccccc2)c(=O)n(-c2cccc(Cl)c2)c1=O)c1ccccc1 (chirality)
[NH3+][C@H](Cn1c(=O)n(Cc2ccccc2)c(=O)n(-c2cccc(Cl)c2)c1=O)c1ccccc1 (3D coordinates assigned)
[NH3+][C@H](Cn1c(=O)n(Cc2ccccc2)c(=O)n(-c2cccc(Cl)c2)c1=O)c1ccccc1 (optimized conformer: 74.01264641696208 kcal/mol)

>  <smiles>  (47) 
NC(Cn1c(=O)n(Cc2ccccc2)c(=O)n(-c2cccc(Cl)c2)c1=O)c1ccccc1

>  <score_type>  (47) 
oracle

>  <origin>  (47) 
adg

>  <m_score__min__energy>  (47) 
-6.8799999999999999

>  <m_primary>  (47) 
energy

$$$$
47:0
     RDKit          3D

 50 52  0  0  0  0  0  0  0  0999 V2000
   56.3070   24.8030   46.9780 C   0  0  0  0  0  0  0  0  0  0  0  0
   56.2860   26.1730   46.3860 C   0  0  0  0  0  0  0  0  0  0  0  0
   55.1940   26.6510   45.9690 O   0  0  0  0  0  0  0  0  0  0  0  0
   57.5150   26.8930   46.2090 N   0  0  0  0  0  0  0  0  0  0  0  0
   57.5760   28.1890   45.5890 C   0  0  0  0  0  0  0  0  0  0  0  0
   56.4510   28.7070   44.9240 C   0  0  0  0  0  0  0  0  0  0  0  0
   56.5040   29.9680   44.3250 C   0  0  0  0  0  0  0  0  0  0  0  0
   57.6760   30.7260   44.3920 C   0  0  0  0  0  0  0  0  0  0  0  0
   58.7980   30.2210   45.0530 C   0  0  0  0  0  0  0  0  0  0  0  0
   58.7640   28.9440   45.6380 C   0  0  0  0  0  0  0  0  0  0  0  0
   59.9210   28.4080   46.2950 N   0  0  0  0  0  0  0  0  0  0  0  0
   60.0170   28.0900   47.6900 C   0  0  0  0  0  0  0  0  0  0  0  0
   59.5340   27.0010   48.0980 O   0  0  0  0  0  0  0  0  0  0  0  0
   60.7450   28.9790   48.6630 C   0  0  0  0  0  0  0  0  0  0  0  0
   59.8910   30.1720   49.0290 C   0  0  0  0  0  0  0  0  0  0  0  0
   59.6810   31.1070   48.0630 N   0  0  0  0  0  0  0  0  0  0  0  0
   58.9010   32.1990   48.2590 C   0  0  0  0  0  0  0  0  0  0  0  0
   58.6730   33.1180   47.1630 N   0  0  0  0  0  0  0  0  0  0  0  0
   59.7900   34.0060   46.7810 C   0  0  0  0  0  0  0  0  0  0  0  0
   59.4540   34.9460   45.6140 C   0  0  0  0  0  0  0  0  0  0  0  0
   58.5370   34.3550   44.7220 O   0  0  0  0  0  0  0  0  0  0  0  0
   57.2980   34.2070   45.3810 C   0  0  0  0  0  0  0  0  0  0  0  0
   57.3790   33.1160   46.4500 C   0  0  0  0  0  0  0  0  0  0  0  0
   58.2740   32.3570   49.4980 C   0  0  0  0  0  0  0  0  0  0  0  0
   58.4560   31.3850   50.4820 C   0  0  0  0  0  0  0  0  0  0  0  0
   57.8370   31.5080   51.5730 O   0  0  0  0  0  0  0  0  0  0  0  0
   59.2730   30.3030   50.2540 N   0  0  0  0  0  0  0  0  0  0  0  0
   59.4290   29.2640   51.2910 C   0  0  0  0  0  0  0  0  0  0  0  0
   56.3059   24.8777   48.0755 H   0  0  0  0  0  0  0  0  0  0  0  0
   55.4173   24.2470   46.6474 H   0  0  0  0  0  0  0  0  0  0  0  0
   57.2133   24.2746   46.6474 H   0  0  0  0  0  0  0  0  0  0  0  0
   58.4180   26.3800   46.3650 H   0  0  0  0  0  0  0  0  0  0  0  0
   55.5243   28.1165   44.8750 H   0  0  0  0  0  0  0  0  0  0  0  0
   55.6224   30.3645   43.8002 H   0  0  0  0  0  0  0  0  0  0  0  0
   57.7150   31.7207   43.9240 H   0  0  0  0  0  0  0  0  0  0  0  0
   59.7140   30.8268   45.1160 H   0  0  0  0  0  0  0  0  0  0  0  0
   60.9768   28.4065   49.5732 H   0  0  0  0  0  0  0  0  0  0  0  0
   61.6736   29.3359   48.1937 H   0  0  0  0  0  0  0  0  0  0  0  0
   60.0624   34.6179   47.6536 H   0  0  0  0  0  0  0  0  0  0  0  0
   60.6170   33.3611   46.4491 H   0  0  0  0  0  0  0  0  0  0  0  0
   59.0160   35.8717   46.0155 H   0  0  0  0  0  0  0  0  0  0  0  0
   60.3825   35.1584   45.0638 H   0  0  0  0  0  0  0  0  0  0  0  0
   57.0271   35.1603   45.8583 H   0  0  0  0  0  0  0  0  0  0  0  0
   56.5367   33.9199   44.6408 H   0  0  0  0  0  0  0  0  0  0  0  0
   56.5731   33.2778   47.1810 H   0  0  0  0  0  0  0  0  0  0  0  0
   57.2772   32.1443   45.9445 H   0  0  0  0  0  0  0  0  0  0  0  0
   57.6445   33.2373   49.6950 H   0  0  0  0  0  0  0  0  0  0  0  0
   59.3596   29.7264   52.2867 H   0  0  0  0  0  0  0  0  0  0  0  0
   58.6336   28.5123   51.1795 H   0  0  0  0  0  0  0  0  0  0  0  0
   60.4100   28.7791   51.1795 H   0  0  0  0  0  0  0  0  0  0  0  0
  1  2  1  0
  2  3  2  0
  2  4  1  0
  4  5  1  0
  5  6  2  0
  6  7  1  0
  7  8  2  0
  8  9  1  0
  9 10  2  0
 10 11  1  0
 11 12  1  0
 12 13  2  0
 12 14  1  0
 14 15  1  0
 15 16  2  0
 16 17  1  0
 17 18  1  0
 18 19  1  0
 19 20  1  0
 20 21  1  0
 21 22  1  0
 22 23  1  0
 17 24  2  0
 24 25  1  0
 25 26  2  0
 25 27  1  0
 27 28  1  0
 10  5  1  0
 27 15  1  0
 23 18  1  0
  1 29  1  0
  1 30  1  0
  1 31  1  0
  4 32  1  0
  6 33  1  0
  7 34  1  0
  8 35  1  0
  9 36  1  0
 14 37  1  0
 14 38  1  0
 19 39  1  0
 19 40  1  0
 20 41  1  0
 20 42  1  0
 22 43  1  0
 22 44  1  0
 23 45  1  0
 23 46  1  0
 24 47  1  0
 28 48  1  0
 28 49  1  0
 28 50  1  0
M  CHG  1  11  -1
M  END
>  <UniqueID>  (48) 
45

>  <SMILES>  (48) 
CC(=O)Nc1ccccc1[N-]C(=O)Cc1nc(N2CCOCC2)cc(=O)n1C

>  <Energy>  (48) 
68.02503134427695

>  <Genealogy>  (48) 
CC(=O)Nc1ccccc1[N-]C(=O)Cc1nc(N2CCOCC2)cc(=O)n1C (protonated)
CC(=O)Nc1ccccc1[N-]C(=O)Cc1nc(N2CCOCC2)cc(=O)n1C (3D coordinates assigned)
CC(=O)Nc1ccccc1[N-]C(=O)Cc1nc(N2CCOCC2)cc(=O)n1C (nonaromatic ring conformer: 68.02503134427695 kcal/mol)

>  <smiles>  (48) 
CC(=O)Nc1ccccc1NC(=O)Cc1nc(N2CCOCC2)cc(=O)n1C

>  <score_type>  (48) 
oracle

>  <origin>  (48) 
adg

>  <m_score__min__energy>  (48) 
-9.6999999999999993

>  <m_primary>  (48) 
energy

$$$$
48:0
     RDKit          3D

 51 55  0  0  0  0  0  0  0  0999 V2000
   56.8910   30.0480   44.5300 H   0  0  0  0  0  0  0  0  0  0  0  0
   56.5690   30.9980   44.8210 N   0  0  0  0  0  0  0  0  0  0  0  0
   57.3990   31.8940   45.2460 C   0  0  0  0  0  0  0  0  0  0  0  0
   57.0400   33.2110   45.2450 N   0  0  0  0  0  0  0  0  0  0  0  0
   57.8580   34.1830   45.7420 C   0  0  0  0  0  0  0  0  0  0  0  0
   57.5424   35.2365   45.7185 H   0  0  0  0  0  0  0  0  0  0  0  0
   59.1010   33.8330   46.2820 C   0  0  0  0  0  0  0  0  0  0  0  0
   59.7668   34.5938   46.7155 H   0  0  0  0  0  0  0  0  0  0  0  0
   59.4580   32.5220   46.2530 N   0  0  0  0  0  0  0  0  0  0  0  0
   60.5540   31.9020   46.7410 C   0  0  0  0  0  0  0  0  0  0  0  0
   61.7090   32.5800   47.3590 C   0  0  0  0  0  0  0  0  0  0  0  0
   62.4180   33.4680   46.6580 C   0  0  0  0  0  0  0  0  0  0  0  0
   62.1444   33.7065   45.6196 H   0  0  0  0  0  0  0  0  0  0  0  0
   63.5910   34.1340   47.3070 C   0  0  0  0  0  0  0  0  0  0  0  0
   64.2549   34.5432   46.5313 H   0  0  0  0  0  0  0  0  0  0  0  0
   63.2357   34.9487   47.9551 H   0  0  0  0  0  0  0  0  0  0  0  0
   64.3290   33.1550   48.1150 N   0  0  0  0  0  0  0  0  0  0  0  0
   64.6460   32.3770   47.4890 H   0  0  0  0  0  0  0  0  0  0  0  0
   63.4960   32.5860   49.1950 C   0  0  0  0  0  0  0  0  0  0  0  0
   63.9018   31.5976   49.4567 H   0  0  0  0  0  0  0  0  0  0  0  0
   63.5342   33.3028   50.0285 H   0  0  0  0  0  0  0  0  0  0  0  0
   61.9960   32.4130   48.8320 C   0  0  0  0  0  0  0  0  0  0  0  0
   61.6783   31.4048   49.1364 H   0  0  0  0  0  0  0  0  0  0  0  0
   61.4422   33.2027   49.3608 H   0  0  0  0  0  0  0  0  0  0  0  0
   60.4750   30.5650   46.5820 N   0  0  0  0  0  0  0  0  0  0  0  0
   61.1960   29.8590   46.8530 H   0  0  0  0  0  0  0  0  0  0  0  0
   59.3040   30.3270   45.9450 C   0  0  0  0  0  0  0  0  0  0  0  0
   58.8930   28.9760   45.5200 C   0  0  0  0  0  0  0  0  0  0  0  0
   58.4050   28.8210   44.3680 O   0  0  0  0  0  0  0  0  0  0  0  0
   59.0200   27.8610   46.4090 N   0  0  0  0  0  0  0  0  0  0  0  0
   58.3390   26.6020   46.3120 C   0  0  0  0  0  0  0  0  0  0  0  0
   58.0280   25.9170   47.4940 C   0  0  0  0  0  0  0  0  0  0  0  0
   58.3248   26.3404   48.4649 H   0  0  0  0  0  0  0  0  0  0  0  0
   57.3430   24.6990   47.4480 C   0  0  0  0  0  0  0  0  0  0  0  0
   57.1214   24.1601   48.3810 H   0  0  0  0  0  0  0  0  0  0  0  0
   56.9370   24.1610   46.2180 C   0  0  0  0  0  0  0  0  0  0  0  0
   56.2290   22.8350   46.1650 C   0  0  0  0  0  0  0  0  0  0  0  0
   56.6364   22.2378   45.3359 H   0  0  0  0  0  0  0  0  0  0  0  0
   56.3824   22.3062   47.1173 H   0  0  0  0  0  0  0  0  0  0  0  0
   54.7630   23.0440   45.9510 C   0  0  0  0  0  0  0  0  0  0  0  0
   54.2000   24.2410   45.7110 N   0  0  0  0  0  0  0  0  0  0  0  0
   52.8970   23.9480   45.5230 C   0  0  0  0  0  0  0  0  0  0  0  0
   52.1334   24.7105   45.3099 H   0  0  0  0  0  0  0  0  0  0  0  0
   52.6180   22.6300   45.6210 N   0  0  0  0  0  0  0  0  0  0  0  0
   53.8060   22.0610   45.8870 C   0  0  0  0  0  0  0  0  0  0  0  0
   53.9829   20.9848   46.0300 H   0  0  0  0  0  0  0  0  0  0  0  0
   57.2390   24.8490   45.0330 C   0  0  0  0  0  0  0  0  0  0  0  0
   56.9348   24.4284   44.0632 H   0  0  0  0  0  0  0  0  0  0  0  0
   57.9250   26.0670   45.0790 C   0  0  0  0  0  0  0  0  0  0  0  0
   58.1417   26.6089   44.1466 H   0  0  0  0  0  0  0  0  0  0  0  0
   58.6630   31.5540   45.7560 C   0  0  0  0  0  0  0  0  0  0  0  0
  1  2  1  0
  2  3  2  0
  3  4  1  0
  4  5  1  0
  5  6  1  0
  5  7  2  0
  7  8  1  0
  7  9  1  0
  9 10  1  0
 10 11  1  0
 11 12  2  0
 12 13  1  0
 12 14  1  0
 14 15  1  0
 14 16  1  0
 14 17  1  0
 17 18  1  0
 17 19  1  0
 19 20  1  0
 19 21  1  0
 19 22  1  0
 22 23  1  0
 22 24  1  0
 10 25  2  0
 25 26  1  0
 25 27  1  0
 27 28  1  0
 28 29  2  0
 28 30  1  0
 30 31  1  0
 31 32  2  0
 32 33  1  0
 32 34  1  0
 34 35  1  0
 34 36  2  0
 36 37  1  0
 37 38  1  0
 37 39  1  0
 37 40  1  0
 40 41  1  0
 41 42  2  0
 42 43  1  0
 42 44  1  0
 44 45  1  0
 45 46  1  0
 36 47  1  0
 47 48  1  0
 47 49  2  0
 49 50  1  0
 27 51  2  0
 51  3  1  0
 51  9  1  0
 22 11  1  0
 49 31  1  0
 45 40  2  0
M  CHG  4   4  -1  25   1  30  -1  44  -1
M  END
>  <UniqueID>  (49) 
46

>  <SMILES>  (49) 
[H]/N=c1\[n-]ccn2c(C3=CCNCC3)[nH+]c(C(=O)[N-]c3ccc(Cc4c[n-]cn4)cc3)c12

>  <Energy>  (49) 
139.58616375403716

>  <Genealogy>  (49) 
N=c1[n-]ccn2c(C3=CCNCC3)[nH+]c(C(=O)[N-]c3ccc(Cc4c[n-]cn4)cc3)c12 (protonated)
[H]/N=c1\[n-]ccn2c(C3=CCNCC3)[nH+]c(C(=O)[N-]c3ccc(Cc4c[n-]cn4)cc3)c12 (cis-trans isomerization)
[H]/N=c1\[n-]ccn2c(C3=CCNCC3)[nH+]c(C(=O)[N-]c3ccc(Cc4c[n-]cn4)cc3)c12 (3D coordinates assigned)
[H]/N=c1\[n-]ccn2c(C3=CCNCC3)[nH+]c(C(=O)[N-]c3ccc(Cc4c[n-]cn4)cc3)c12 (nonaromatic ring conformer: 139.58616375403716 kcal/mol)

>  <smiles>  (49) 
N=c1[nH]ccn2c(C3=CCNCC3)nc(C(=O)Nc3ccc(Cc4c[nH]cn4)cc3)c12

>  <score_type>  (49) 
oracle

>  <origin>  (49) 
adg

>  <m_score__min__energy>  (49) 
-11.16

>  <m_primary>  (49) 
energy

$$$$
49:0
     RDKit          3D

 52 55  0  0  0  0  0  0  0  0999 V2000
   61.0300   33.8640   51.2900 O   0  0  0  0  0  0  0  0  0  0  0  0
   60.9590   32.9870   50.3860 C   0  0  0  0  0  0  0  0  0  0  0  0
   60.1860   31.7980   50.5980 N   0  0  0  0  0  0  0  0  0  0  0  0
   60.4100   30.5210   49.9830 C   0  0  0  0  0  0  0  0  0  0  0  0
   60.1010   30.3610   48.6270 C   0  0  0  0  0  0  0  0  0  0  0  0
   60.2740   29.1220   48.0030 C   0  0  0  0  0  0  0  0  0  0  0  0
   60.7460   28.0190   48.7260 C   0  0  0  0  0  0  0  0  0  0  0  0
   60.8990   26.7680   48.0380 N   0  0  0  0  0  0  0  0  0  0  0  0
   60.4230   26.3980   46.4090 S   0  0  0  0  0  0  0  0  0  0  0  0
   61.0120   27.3800   45.4370 O   0  0  0  0  0  0  0  0  0  0  0  0
   60.9620   25.0370   46.0620 O   0  0  0  0  0  0  0  0  0  0  0  0
   58.6630   26.3790   46.2780 C   0  0  0  0  0  0  0  0  0  0  0  0
   57.9350   25.2560   46.6900 C   0  0  0  0  0  0  0  0  0  0  0  0
   56.5430   25.2410   46.5820 C   0  0  0  0  0  0  0  0  0  0  0  0
   55.8660   26.3510   46.0690 C   0  0  0  0  0  0  0  0  0  0  0  0
   54.4790   26.3220   45.9680 O   0  0  0  0  0  0  0  0  0  0  0  0
   56.5790   27.4880   45.6610 C   0  0  0  0  0  0  0  0  0  0  0  0
   55.8510   28.6200   45.1630 N   0  0  0  0  0  0  0  0  0  0  0  0
   56.3400   29.6500   43.8550 S   0  0  0  0  0  0  0  0  0  0  0  0
   57.2320   28.8690   42.9320 O   0  0  0  0  0  0  0  0  0  0  0  0
   55.1340   30.0910   43.0750 O   0  0  0  0  0  0  0  0  0  0  0  0
   57.2350   31.0360   44.4710 C   0  0  0  0  0  0  0  0  0  0  0  0
   57.7700   31.0300   45.7690 C   0  0  0  0  0  0  0  0  0  0  0  0
   58.4760   32.1390   46.2430 C   0  0  0  0  0  0  0  0  0  0  0  0
   58.6380   33.2650   45.4300 C   0  0  0  0  0  0  0  0  0  0  0  0
   58.1030   33.2800   44.1380 C   0  0  0  0  0  0  0  0  0  0  0  0
   57.4090   32.1660   43.6570 C   0  0  0  0  0  0  0  0  0  0  0  0
   57.9820   27.4910   45.7630 C   0  0  0  0  0  0  0  0  0  0  0  0
   61.0300   28.1710   50.0950 C   0  0  0  0  0  0  0  0  0  0  0  0
   60.8590   29.4110   50.7180 C   0  0  0  0  0  0  0  0  0  0  0  0
   61.7060   33.1710   49.1210 C   0  0  0  0  0  0  0  0  0  0  0  0
   61.0680   33.7050   47.9860 C   0  0  0  0  0  0  0  0  0  0  0  0
   61.7810   33.8410   46.7940 C   0  0  0  0  0  0  0  0  0  0  0  0
   63.0850   33.4660   46.7310 N   0  0  0  0  0  0  0  0  0  0  0  0
   63.7320   32.9550   47.8110 C   0  0  0  0  0  0  0  0  0  0  0  0
   63.0560   32.7930   49.0220 C   0  0  0  0  0  0  0  0  0  0  0  0
   59.7197   31.2156   48.0488 H   0  0  0  0  0  0  0  0  0  0  0  0
   60.0373   29.0123   46.9344 H   0  0  0  0  0  0  0  0  0  0  0  0
   58.4620   24.3820   47.1004 H   0  0  0  0  0  0  0  0  0  0  0  0
   55.9776   24.3532   46.9015 H   0  0  0  0  0  0  0  0  0  0  0  0
   57.6331   30.1500   46.4146 H   0  0  0  0  0  0  0  0  0  0  0  0
   58.9044   32.1261   47.2561 H   0  0  0  0  0  0  0  0  0  0  0  0
   59.1871   34.1403   45.8072 H   0  0  0  0  0  0  0  0  0  0  0  0
   58.2282   34.1678   43.5007 H   0  0  0  0  0  0  0  0  0  0  0  0
   56.9978   32.1751   42.6368 H   0  0  0  0  0  0  0  0  0  0  0  0
   58.5502   28.3742   45.4356 H   0  0  0  0  0  0  0  0  0  0  0  0
   61.3884   27.3101   50.6785 H   0  0  0  0  0  0  0  0  0  0  0  0
   61.0775   29.5182   51.7907 H   0  0  0  0  0  0  0  0  0  0  0  0
   60.0134   34.0134   48.0380 H   0  0  0  0  0  0  0  0  0  0  0  0
   61.2854   34.2532   45.9027 H   0  0  0  0  0  0  0  0  0  0  0  0
   64.7910   32.6682   47.7312 H   0  0  0  0  0  0  0  0  0  0  0  0
   63.5775   32.3717   49.8941 H   0  0  0  0  0  0  0  0  0  0  0  0
  1  2  2  0
  2  3  1  0
  3  4  1  0
  4  5  2  0
  5  6  1  0
  6  7  2  0
  7  8  1  0
  8  9  1  0
  9 10  2  0
  9 11  2  0
  9 12  1  0
 12 13  2  0
 13 14  1  0
 14 15  2  0
 15 16  1  0
 15 17  1  0
 17 18  1  0
 18 19  1  0
 19 20  2  0
 19 21  2  0
 19 22  1  0
 22 23  2  0
 23 24  1  0
 24 25  2  0
 25 26  1  0
 26 27  2  0
 17 28  2  0
  7 29  1  0
 29 30  2  0
  2 31  1  0
 31 32  2  0
 32 33  1  0
 33 34  2  0
 34 35  1  0
 35 36  2  0
 30  4  1  0
 36 31  1  0
 28 12  1  0
 27 22  1  0
  5 37  1  0
  6 38  1  0
 13 39  1  0
 14 40  1  0
 23 41  1  0
 24 42  1  0
 25 43  1  0
 26 44  1  0
 27 45  1  0
 28 46  1  0
 29 47  1  0
 30 48  1  0
 32 49  1  0
 33 50  1  0
 35 51  1  0
 36 52  1  0
M  CHG  4   3  -1   8  -1  16  -1  18  -1
M  END
>  <UniqueID>  (50) 
47

>  <SMILES>  (50) 
O=C([N-]c1ccc([N-]S(=O)(=O)c2ccc([O-])c([N-]S(=O)(=O)c3ccccc3)c2)cc1)c1ccncc1

>  <Energy>  (50) 
71.73915432294761

>  <Genealogy>  (50) 
O=C([N-]c1ccc([N-]S(=O)(=O)c2ccc([O-])c([N-]S(=O)(=O)c3ccccc3)c2)cc1)c1ccncc1 (protonated)
O=C([N-]c1ccc([N-]S(=O)(=O)c2ccc([O-])c([N-]S(=O)(=O)c3ccccc3)c2)cc1)c1ccncc1 (3D coordinates assigned)
O=C([N-]c1ccc([N-]S(=O)(=O)c2ccc([O-])c([N-]S(=O)(=O)c3ccccc3)c2)cc1)c1ccncc1 (optimized conformer: 71.73915432294761 kcal/mol)

>  <smiles>  (50) 
O=C(Nc1ccc(NS(=O)(=O)c2ccc(O)c(NS(=O)(=O)c3ccccc3)c2)cc1)c1ccncc1

>  <score_type>  (50) 
oracle

>  <origin>  (50) 
adg

>  <m_score__min__energy>  (50) 
-16.989999999999998

>  <m_primary>  (50) 
energy

$$$$
50:0
     RDKit          3D

 48 51  0  0  0  0  0  0  0  0999 V2000
   55.1140   26.7170   45.9950 O   0  0  0  0  0  0  0  0  0  0  0  0
   56.3190   26.5300   45.6760 C   0  0  0  0  0  0  0  0  0  0  0  0
   56.6590   25.3420   45.0390 O   0  0  0  0  0  0  0  0  0  0  0  0
   57.3480   27.5630   45.9770 C   0  0  0  0  0  0  0  0  0  0  0  0
   57.5350   28.6330   45.0900 C   0  0  0  0  0  0  0  0  0  0  0  0
   58.4670   29.6090   45.3180 N   0  0  0  0  0  0  0  0  0  0  0  0
   58.5890   30.6820   44.3060 C   0  0  0  0  0  0  0  0  0  0  0  0
   58.2720   32.0330   44.9010 C   0  0  0  0  0  0  0  0  0  0  0  0
   59.3090   32.9180   45.2490 C   0  0  0  0  0  0  0  0  0  0  0  0
   59.0140   34.1630   45.8110 C   0  0  0  0  0  0  0  0  0  0  0  0
   57.6860   34.5310   46.0440 C   0  0  0  0  0  0  0  0  0  0  0  0
   56.6510   33.6510   45.7200 C   0  0  0  0  0  0  0  0  0  0  0  0
   56.9400   32.4040   45.1570 C   0  0  0  0  0  0  0  0  0  0  0  0
   59.2630   29.5620   46.4470 C   0  0  0  0  0  0  0  0  0  0  0  0
   60.2430   30.5500   46.7140 C   0  0  0  0  0  0  0  0  0  0  0  0
   61.0540   30.4840   47.8550 C   0  0  0  0  0  0  0  0  0  0  0  0
   62.0510   31.4980   48.0990 N   0  0  0  0  0  0  0  0  0  0  0  0
   62.6930   31.5970   49.4170 C   0  0  0  0  0  0  0  0  0  0  0  0
   64.1670   32.0450   49.2980 C   0  0  0  0  0  0  0  0  0  0  0  0
   64.4540   32.8770   48.1100 N   0  0  0  0  0  0  0  0  0  0  0  0
   63.2730   33.5890   47.6080 C   0  0  0  0  0  0  0  0  0  0  0  0
   62.2260   32.5820   47.1230 C   0  0  0  0  0  0  0  0  0  0  0  0
   60.8880   29.4240   48.7530 C   0  0  0  0  0  0  0  0  0  0  0  0
   59.9280   28.4430   48.5170 C   0  0  0  0  0  0  0  0  0  0  0  0
   59.1120   28.4970   47.3720 C   0  0  0  0  0  0  0  0  0  0  0  0
   58.1480   27.5020   47.1300 C   0  0  0  0  0  0  0  0  0  0  0  0
   58.0070   26.5520   47.9510 O   0  0  0  0  0  0  0  0  0  0  0  0
   56.9140   28.6896   44.1838 H   0  0  0  0  0  0  0  0  0  0  0  0
   59.6181   30.6936   43.9177 H   0  0  0  0  0  0  0  0  0  0  0  0
   57.8713   30.4808   43.4971 H   0  0  0  0  0  0  0  0  0  0  0  0
   60.3564   32.6287   45.0780 H   0  0  0  0  0  0  0  0  0  0  0  0
   59.8288   34.8549   46.0706 H   0  0  0  0  0  0  0  0  0  0  0  0
   57.4561   35.5133   46.4824 H   0  0  0  0  0  0  0  0  0  0  0  0
   55.6063   33.9394   45.9081 H   0  0  0  0  0  0  0  0  0  0  0  0
   56.1218   31.7103   44.9133 H   0  0  0  0  0  0  0  0  0  0  0  0
   60.3699   31.3864   46.0109 H   0  0  0  0  0  0  0  0  0  0  0  0
   62.1450   32.3301   50.0271 H   0  0  0  0  0  0  0  0  0  0  0  0
   62.6719   30.6023   49.8862 H   0  0  0  0  0  0  0  0  0  0  0  0
   64.4246   32.6256   50.1961 H   0  0  0  0  0  0  0  0  0  0  0  0
   64.7681   31.1295   49.1952 H   0  0  0  0  0  0  0  0  0  0  0  0
   64.8390   32.2720   47.3450 H   0  0  0  0  0  0  0  0  0  0  0  0
   65.1890   33.5800   48.3550 H   0  0  0  0  0  0  0  0  0  0  0  0
   62.8446   34.2003   48.4159 H   0  0  0  0  0  0  0  0  0  0  0  0
   63.5691   34.2366   46.7696 H   0  0  0  0  0  0  0  0  0  0  0  0
   61.2656   33.0998   46.9835 H   0  0  0  0  0  0  0  0  0  0  0  0
   62.5694   32.1476   46.1725 H   0  0  0  0  0  0  0  0  0  0  0  0
   61.5200   29.3650   49.6514 H   0  0  0  0  0  0  0  0  0  0  0  0
   59.8064   27.6172   49.2334 H   0  0  0  0  0  0  0  0  0  0  0  0
  1  2  2  0
  2  3  1  0
  2  4  1  0
  4  5  2  0
  5  6  1  0
  6  7  1  0
  7  8  1  0
  8  9  2  0
  9 10  1  0
 10 11  2  0
 11 12  1  0
 12 13  2  0
  6 14  1  0
 14 15  2  0
 15 16  1  0
 16 17  1  0
 17 18  1  0
 18 19  1  0
 19 20  1  0
 20 21  1  0
 21 22  1  0
 16 23  2  0
 23 24  1  0
 24 25  2  0
 25 26  1  0
 26 27  2  0
 26  4  1  0
 13  8  1  0
 25 14  1  0
 22 17  1  0
  5 28  1  0
  7 29  1  0
  7 30  1  0
  9 31  1  0
 10 32  1  0
 11 33  1  0
 12 34  1  0
 13 35  1  0
 15 36  1  0
 18 37  1  0
 18 38  1  0
 19 39  1  0
 19 40  1  0
 20 41  1  0
 20 42  1  0
 21 43  1  0
 21 44  1  0
 22 45  1  0
 22 46  1  0
 23 47  1  0
 24 48  1  0
M  CHG  2   3  -1  20   1
M  END
>  <UniqueID>  (51) 
48

>  <SMILES>  (51) 
O=C([O-])c1cn(Cc2ccccc2)c2cc(N3CC[NH2+]CC3)ccc2c1=O

>  <Energy>  (51) 
70.94631906934545

>  <Genealogy>  (51) 
O=C([O-])c1cn(Cc2ccccc2)c2cc(N3CC[NH2+]CC3)ccc2c1=O (protonated)
O=C([O-])c1cn(Cc2ccccc2)c2cc(N3CC[NH2+]CC3)ccc2c1=O (3D coordinates assigned)
O=C([O-])c1cn(Cc2ccccc2)c2cc(N3CC[NH2+]CC3)ccc2c1=O (nonaromatic ring conformer: 70.94631906934545 kcal/mol)

>  <smiles>  (51) 
O=C(O)c1cn(Cc2ccccc2)c2cc(N3CCNCC3)ccc2c1=O

>  <score_type>  (51) 
oracle

>  <origin>  (51) 
adg

>  <m_score__min__energy>  (51) 
-9.5800000000000001

>  <m_primary>  (51) 
energy

$$$$
51:0
     RDKit          3D

 30 32  0  0  0  0  0  0  0  0999 V2000
   56.6130   30.2860   43.1490 Cl  0  0  0  0  0  0  0  0  0  0  0  0
   57.5910   29.2300   44.1670 C   0  0  0  0  0  0  0  0  0  0  0  0
   57.7770   27.9520   43.7450 C   0  0  0  0  0  0  0  0  0  0  0  0
   58.5290   27.0900   44.4990 C   0  0  0  0  0  0  0  0  0  0  0  0
   59.0930   27.5090   45.6740 C   0  0  0  0  0  0  0  0  0  0  0  0
   58.8880   28.8100   46.0780 C   0  0  0  0  0  0  0  0  0  0  0  0
   58.1460   29.7320   45.3730 C   0  0  0  0  0  0  0  0  0  0  0  0
   57.8830   30.9920   45.6570 O   0  0  0  0  0  0  0  0  0  0  0  0
   58.3970   32.1860   45.9070 C   0  0  0  0  0  0  0  0  0  0  0  0
   57.8510   33.4320   45.6980 C   0  0  0  0  0  0  0  0  0  0  0  0
   58.5010   34.6160   46.0080 C   0  0  0  0  0  0  0  0  0  0  0  0
   59.7470   34.5640   46.5500 C   0  0  0  0  0  0  0  0  0  0  0  0
   60.3500   33.3560   46.7850 C   0  0  0  0  0  0  0  0  0  0  0  0
   61.6880   33.3480   47.3680 C   0  0  0  0  0  0  0  0  0  0  0  0
   62.8850   33.1430   46.6970 C   0  0  0  0  0  0  0  0  0  0  0  0
   63.8870   33.2160   47.6100 N   0  0  0  0  0  0  0  0  0  0  0  0
   63.3590   33.4550   48.8020 N   0  0  0  0  0  0  0  0  0  0  0  0
   62.0040   33.5450   48.7040 C   0  0  0  0  0  0  0  0  0  0  0  0
   60.8890   33.8510   50.0230 Cl  0  0  0  0  0  0  0  0  0  0  0  0
   59.6950   32.2020   46.4740 C   0  0  0  0  0  0  0  0  0  0  0  0
   57.3256   27.6107   42.8017 H   0  0  0  0  0  0  0  0  0  0  0  0
   58.6805   26.0551   44.1583 H   0  0  0  0  0  0  0  0  0  0  0  0
   59.6975   26.8209   46.2831 H   0  0  0  0  0  0  0  0  0  0  0  0
   59.3462   29.1333   47.0243 H   0  0  0  0  0  0  0  0  0  0  0  0
   56.8433   33.4913   45.2609 H   0  0  0  0  0  0  0  0  0  0  0  0
   58.0156   35.5847   45.8182 H   0  0  0  0  0  0  0  0  0  0  0  0
   60.2737   35.4965   46.8011 H   0  0  0  0  0  0  0  0  0  0  0  0
   63.0011   32.9552   45.6194 H   0  0  0  0  0  0  0  0  0  0  0  0
   64.8950   33.0940   47.3520 H   0  0  0  0  0  0  0  0  0  0  0  0
   60.1954   31.2426   46.6716 H   0  0  0  0  0  0  0  0  0  0  0  0
  1  2  1  0
  2  3  2  0
  3  4  1  0
  4  5  2  0
  5  6  1  0
  6  7  2  0
  7  8  1  0
  8  9  1  0
  9 10  2  0
 10 11  1  0
 11 12  2  0
 12 13  1  0
 13 14  1  0
 14 15  2  0
 15 16  1  0
 16 17  1  0
 17 18  2  0
 18 19  1  0
 13 20  2  0
  7  2  1  0
 20  9  1  0
 18 14  1  0
  3 21  1  0
  4 22  1  0
  5 23  1  0
  6 24  1  0
 10 25  1  0
 11 26  1  0
 12 27  1  0
 15 28  1  0
 16 29  1  0
 20 30  1  0
M  END
>  <smiles>  (52) 
Clc1ccccc1Oc1cccc(-c2c[nH]nc2Cl)c1

>  <score_type>  (52) 
oracle

>  <origin>  (52) 
adg

>  <m_score__min__energy>  (52) 
-7.75

>  <m_primary>  (52) 
energy

$$$$
52:0
     RDKit          3D

 42 45  0  0  0  0  0  0  0  0999 V2000
   59.4980   30.0770   48.6870 C   0  0  0  0  0  0  0  0  0  0  0  0
   59.0510   30.7250   47.4590 N   0  0  0  0  0  0  0  0  0  0  0  0
   58.8570   32.0350   47.3950 N   0  0  0  0  0  0  0  0  0  0  0  0
   58.3190   32.3170   46.1930 C   0  0  0  0  0  0  0  0  0  0  0  0
   57.8530   33.6550   45.8160 C   0  0  0  0  0  0  0  0  0  0  0  0
   56.6320   33.9340   45.9390 O   0  0  0  0  0  0  0  0  0  0  0  0
   58.7430   34.6330   45.2630 N   0  0  0  0  0  0  0  0  0  0  0  0
   59.6860   35.4470   46.0300 C   0  0  0  0  0  0  0  0  0  0  0  0
   60.5430   34.5890   46.9250 C   0  0  0  0  0  0  0  0  0  0  0  0
   61.5950   33.8280   46.3870 C   0  0  0  0  0  0  0  0  0  0  0  0
   62.4100   33.0620   47.2260 C   0  0  0  0  0  0  0  0  0  0  0  0
   62.1730   33.0390   48.6030 C   0  0  0  0  0  0  0  0  0  0  0  0
   61.1180   33.7810   49.1420 C   0  0  0  0  0  0  0  0  0  0  0  0
   60.3040   34.5520   48.3080 C   0  0  0  0  0  0  0  0  0  0  0  0
   58.1540   31.1490   45.4770 C   0  0  0  0  0  0  0  0  0  0  0  0
   58.6620   30.1500   46.2910 C   0  0  0  0  0  0  0  0  0  0  0  0
   58.6350   28.6980   45.9380 C   0  0  0  0  0  0  0  0  0  0  0  0
   59.5110   27.7680   46.5300 C   0  0  0  0  0  0  0  0  0  0  0  0
   59.4450   26.4120   46.1930 C   0  0  0  0  0  0  0  0  0  0  0  0
   58.5260   25.9700   45.2420 C   0  0  0  0  0  0  0  0  0  0  0  0
   57.6890   26.8840   44.6030 C   0  0  0  0  0  0  0  0  0  0  0  0
   57.7520   28.2450   44.9280 C   0  0  0  0  0  0  0  0  0  0  0  0
   56.7580   29.3950   44.0350 S   0  0  0  0  0  0  0  0  0  0  0  0
   55.3970   29.4930   44.6640 O   0  0  0  0  0  0  0  0  0  0  0  0
   56.6270   28.9710   42.5980 O   0  0  0  0  0  0  0  0  0  0  0  0
   57.5840   30.9700   44.1060 C   0  0  0  0  0  0  0  0  0  0  0  0
   59.1146   30.6328   49.5554 H   0  0  0  0  0  0  0  0  0  0  0  0
   59.1189   29.0448   48.7158 H   0  0  0  0  0  0  0  0  0  0  0  0
   60.5976   30.0648   48.7158 H   0  0  0  0  0  0  0  0  0  0  0  0
   60.3344   35.9979   45.3328 H   0  0  0  0  0  0  0  0  0  0  0  0
   59.1133   36.1440   46.6594 H   0  0  0  0  0  0  0  0  0  0  0  0
   61.7778   33.8350   45.3023 H   0  0  0  0  0  0  0  0  0  0  0  0
   63.2390   32.4766   46.8015 H   0  0  0  0  0  0  0  0  0  0  0  0
   62.8161   32.4375   49.2623 H   0  0  0  0  0  0  0  0  0  0  0  0
   60.9282   33.7579   50.2252 H   0  0  0  0  0  0  0  0  0  0  0  0
   59.4732   35.1319   48.7364 H   0  0  0  0  0  0  0  0  0  0  0  0
   60.2544   28.1111   47.2646 H   0  0  0  0  0  0  0  0  0  0  0  0
   60.1199   25.6924   46.6795 H   0  0  0  0  0  0  0  0  0  0  0  0
   58.4613   24.8999   44.9958 H   0  0  0  0  0  0  0  0  0  0  0  0
   56.9767   26.5350   43.8409 H   0  0  0  0  0  0  0  0  0  0  0  0
   58.3935   30.9977   43.3617 H   0  0  0  0  0  0  0  0  0  0  0  0
   56.8708   31.7784   43.8873 H   0  0  0  0  0  0  0  0  0  0  0  0
  1  2  1  0
  2  3  1  0
  3  4  2  0
  4  5  1  0
  5  6  2  0
  5  7  1  0
  7  8  1  0
  8  9  1  0
  9 10  2  0
 10 11  1  0
 11 12  2  0
 12 13  1  0
 13 14  2  0
  4 15  1  0
 15 16  2  0
 16 17  1  0
 17 18  2  0
 18 19  1  0
 19 20  2  0
 20 21  1  0
 21 22  2  0
 22 23  1  0
 23 24  2  0
 23 25  2  0
 23 26  1  0
 16  2  1  0
 22 17  1  0
 14  9  1  0
 26 15  1  0
  1 27  1  0
  1 28  1  0
  1 29  1  0
  8 30  1  0
  8 31  1  0
 10 32  1  0
 11 33  1  0
 12 34  1  0
 13 35  1  0
 14 36  1  0
 18 37  1  0
 19 38  1  0
 20 39  1  0
 21 40  1  0
 26 41  1  0
 26 42  1  0
M  CHG  1   7  -1
M  END
>  <UniqueID>  (53) 
49

>  <SMILES>  (53) 
Cn1nc(C(=O)[N-]Cc2ccccc2)c2c1-c1ccccc1S(=O)(=O)C2

>  <Energy>  (53) 
85.07048820997393

>  <Genealogy>  (53) 
Cn1nc(C(=O)[N-]Cc2ccccc2)c2c1-c1ccccc1S(=O)(=O)C2 (protonated)
Cn1nc(C(=O)[N-]Cc2ccccc2)c2c1-c1ccccc1S(=O)(=O)C2 (3D coordinates assigned)
Cn1nc(C(=O)[N-]Cc2ccccc2)c2c1-c1ccccc1S(=O)(=O)C2 (nonaromatic ring conformer: 85.07048820997393 kcal/mol)

>  <smiles>  (53) 
Cn1nc(C(=O)NCc2ccccc2)c2c1-c1ccccc1S(=O)(=O)C2

>  <score_type>  (53) 
oracle

>  <origin>  (53) 
adg

>  <m_score__min__energy>  (53) 
-9.8200000000000003

>  <m_primary>  (53) 
energy

$$$$
53:0
     RDKit          3D

 29 30  0  0  0  0  0  0  0  0999 V2000
   55.1480   28.6080   45.6370 H   0  0  0  0  0  0  0  0  0  0  0  0
   55.1530   29.3510   44.9030 N   0  0  0  0  0  0  0  0  0  0  0  0
   56.8080   29.6900   44.5410 S   0  0  0  0  0  0  0  0  0  0  0  0
   57.1900   30.9880   45.1970 O   0  0  0  0  0  0  0  0  0  0  0  0
   56.9890   29.8300   43.0550 O   0  0  0  0  0  0  0  0  0  0  0  0
   57.8270   28.3720   45.1400 C   0  0  0  0  0  0  0  0  0  0  0  0
   57.5880   27.0650   44.6800 C   0  0  0  0  0  0  0  0  0  0  0  0
   56.7769   26.8814   43.9600 H   0  0  0  0  0  0  0  0  0  0  0  0
   58.3740   25.9910   45.1300 C   0  0  0  0  0  0  0  0  0  0  0  0
   58.1490   24.6510   44.6760 N   0  0  0  0  0  0  0  0  0  0  0  0
   57.3970   23.8380   45.3050 N   0  0  0  0  0  0  0  0  0  0  0  0
   55.9650   23.8580   45.2020 C   0  0  0  0  0  0  0  0  0  0  0  0
   55.2350   22.9150   44.4500 C   0  0  0  0  0  0  0  0  0  0  0  0
   55.8790   21.8950   43.7550 O   0  0  0  0  0  0  0  0  0  0  0  0
   56.8860   21.7940   43.7930 H   0  0  0  0  0  0  0  0  0  0  0  0
   53.8790   22.9990   44.3990 N   0  0  0  0  0  0  0  0  0  0  0  0
   53.2090   23.9760   45.0610 C   0  0  0  0  0  0  0  0  0  0  0  0
   51.5800   24.0460   44.9790 S   0  0  0  0  0  0  0  0  0  0  0  0
   53.8900   24.8940   45.7900 N   0  0  0  0  0  0  0  0  0  0  0  0
   55.2450   24.8570   45.8740 C   0  0  0  0  0  0  0  0  0  0  0  0
   55.8490   25.7240   46.5600 O   0  0  0  0  0  0  0  0  0  0  0  0
   59.4040   26.2280   46.0420 C   0  0  0  0  0  0  0  0  0  0  0  0
   60.0233   25.3913   46.3975 H   0  0  0  0  0  0  0  0  0  0  0  0
   59.6520   27.5210   46.5050 C   0  0  0  0  0  0  0  0  0  0  0  0
   60.4667   27.6941   47.2236 H   0  0  0  0  0  0  0  0  0  0  0  0
   58.8750   28.6020   46.0650 C   0  0  0  0  0  0  0  0  0  0  0  0
   59.1690   29.9110   46.5690 N   0  0  0  0  0  0  0  0  0  0  0  0
   59.9970   30.0670   47.1860 H   0  0  0  0  0  0  0  0  0  0  0  0
   58.5820   30.7450   46.3480 H   0  0  0  0  0  0  0  0  0  0  0  0
  1  2  1  0
  2  3  1  0
  3  4  2  0
  3  5  2  0
  3  6  1  0
  6  7  2  0
  7  8  1  0
  7  9  1  0
  9 10  1  0
 10 11  2  0
 11 12  1  0
 12 13  2  0
 13 14  1  0
 14 15  1  0
 13 16  1  0
 16 17  1  0
 17 18  2  0
 17 19  1  0
 19 20  1  0
 20 21  2  0
  9 22  2  0
 22 23  1  0
 22 24  1  0
 24 25  1  0
 24 26  2  0
 26 27  1  0
 27 28  1  0
 27 29  1  0
 26  6  1  0
 20 12  1  0
M  CHG  3   2  -1  16  -1  19  -1
M  END
>  <UniqueID>  (54) 
50

>  <SMILES>  (54) 
[NH-]S(=O)(=O)c1cc(/N=N/c2c(O)[n-]c(=S)[n-]c2=O)ccc1N

>  <Energy>  (54) 
33.438003518756325

>  <Genealogy>  (54) 
[NH-]S(=O)(=O)c1cc(N=Nc2c(O)[n-]c(=S)[n-]c2=O)ccc1N (protonated)
[NH-]S(=O)(=O)c1cc(/N=N/c2c(O)[n-]c(=S)[n-]c2=O)ccc1N (cis-trans isomerization)
[NH-]S(=O)(=O)c1cc(/N=N/c2c(O)[n-]c(=S)[n-]c2=O)ccc1N (3D coordinates assigned)
[NH-]S(=O)(=O)c1cc(/N=N/c2c(O)[n-]c(=S)[n-]c2=O)ccc1N (optimized conformer: 33.438003518756325 kcal/mol)

>  <smiles>  (54) 
Nc1ccc(N=Nc2c(O)[nH]c(=S)[nH]c2=O)cc1S(N)(=O)=O

>  <score_type>  (54) 
oracle

>  <origin>  (54) 
adg

>  <m_score__min__energy>  (54) 
-13.789999999999999

>  <m_primary>  (54) 
energy

$$$$
54:0
     RDKit          3D

 41 42  0  0  0  0  0  0  0  0999 V2000
   60.2482   35.1660   47.8767 H   0  0  0  0  0  0  0  0  0  0  0  0
   59.8800   34.2340   47.4230 C   0  0  0  0  0  0  0  0  0  0  0  0
   59.3690   34.2440   46.1220 C   0  0  0  0  0  0  0  0  0  0  0  0
   59.3359   35.1843   45.5522 H   0  0  0  0  0  0  0  0  0  0  0  0
   58.9000   33.0610   45.5440 C   0  0  0  0  0  0  0  0  0  0  0  0
   58.5009   33.0717   44.5190 H   0  0  0  0  0  0  0  0  0  0  0  0
   58.9370   31.8600   46.2680 C   0  0  0  0  0  0  0  0  0  0  0  0
   58.4830   30.6390   45.6680 N   0  0  0  0  0  0  0  0  0  0  0  0
   59.2730   29.4120   45.8210 C   0  0  0  0  0  0  0  0  0  0  0  0
   60.0851   29.5928   46.5406 H   0  0  0  0  0  0  0  0  0  0  0  0
   59.6868   29.1333   44.8407 H   0  0  0  0  0  0  0  0  0  0  0  0
   58.4120   28.2840   46.3210 C   0  0  0  0  0  0  0  0  0  0  0  0
   58.2780   28.1120   47.5610 O   0  0  0  0  0  0  0  0  0  0  0  0
   57.9010   27.2880   45.4260 N   0  0  0  0  0  0  0  0  0  0  0  0
   56.8460   26.5550   45.6230 C   0  0  0  0  0  0  0  0  0  0  0  0
   55.6350   27.0790   45.8890 N   0  0  0  0  0  0  0  0  0  0  0  0
   54.8110   26.0760   45.9880 O   0  0  0  0  0  0  0  0  0  0  0  0
   55.4290   24.9340   45.7890 C   0  0  0  0  0  0  0  0  0  0  0  0
   54.7710   23.5960   45.8120 C   0  0  0  0  0  0  0  0  0  0  0  0
   54.6163   23.2814   46.8546 H   0  0  0  0  0  0  0  0  0  0  0  0
   53.7997   23.6562   45.2992 H   0  0  0  0  0  0  0  0  0  0  0  0
   55.4116   22.8635   45.2992 H   0  0  0  0  0  0  0  0  0  0  0  0
   56.7620   25.1770   45.5390 C   0  0  0  0  0  0  0  0  0  0  0  0
   57.5623   24.4533   45.3252 H   0  0  0  0  0  0  0  0  0  0  0  0
   57.0120   30.6210   44.7330 S   0  0  0  0  0  0  0  0  0  0  0  0
   56.3220   31.9510   44.8700 O   0  0  0  0  0  0  0  0  0  0  0  0
   56.0860   29.5620   45.2630 O   0  0  0  0  0  0  0  0  0  0  0  0
   57.3480   30.3230   43.0460 N   0  0  0  0  0  0  0  0  0  0  0  0
   58.2760   29.8430   42.9800 H   0  0  0  0  0  0  0  0  0  0  0  0
   56.3210   29.4420   42.4750 C   0  0  0  0  0  0  0  0  0  0  0  0
   55.7586   28.9595   43.2879 H   0  0  0  0  0  0  0  0  0  0  0  0
   55.6328   30.0350   41.8547 H   0  0  0  0  0  0  0  0  0  0  0  0
   56.8024   28.6716   41.8547 H   0  0  0  0  0  0  0  0  0  0  0  0
   57.4190   31.5880   42.3030 C   0  0  0  0  0  0  0  0  0  0  0  0
   57.4661   32.4276   43.0121 H   0  0  0  0  0  0  0  0  0  0  0  0
   58.3188   31.5916   41.6702 H   0  0  0  0  0  0  0  0  0  0  0  0
   56.5253   31.6922   41.6702 H   0  0  0  0  0  0  0  0  0  0  0  0
   59.4540   31.8540   47.5720 C   0  0  0  0  0  0  0  0  0  0  0  0
   59.4904   30.9145   48.1430 H   0  0  0  0  0  0  0  0  0  0  0  0
   59.9230   33.0380   48.1480 C   0  0  0  0  0  0  0  0  0  0  0  0
   60.3260   33.0296   49.1715 H   0  0  0  0  0  0  0  0  0  0  0  0
  1  2  1  0
  2  3  2  0
  3  4  1  0
  3  5  1  0
  5  6  1  0
  5  7  2  0
  7  8  1  0
  8  9  1  0
  9 10  1  0
  9 11  1  0
  9 12  1  0
 12 13  2  0
 12 14  1  0
 14 15  2  0
 15 16  1  0
 16 17  1  0
 17 18  1  0
 18 19  1  0
 19 20  1  0
 19 21  1  0
 19 22  1  0
 18 23  2  0
 23 24  1  0
  8 25  1  0
 25 26  2  0
 25 27  2  0
 25 28  1  0
 28 29  1  0
 28 30  1  0
 30 31  1  0
 30 32  1  0
 30 33  1  0
 28 34  1  0
 34 35  1  0
 34 36  1  0
 34 37  1  0
  7 38  1  0
 38 39  1  0
 38 40  2  0
 40 41  1  0
 40  2  1  0
 23 15  1  0
M  CHG  2  16  -1  28   1
M  END
>  <UniqueID>  (55) 
51

>  <SMILES>  (55) 
Cc1c/c(=N\C(=O)CN(c2ccccc2)S(=O)(=O)[NH+](C)C)[n-]o1

>  <Energy>  (55) 
77.43568211453957

>  <Genealogy>  (55) 
Cc1cc(=NC(=O)CN(c2ccccc2)S(=O)(=O)[NH+](C)C)[n-]o1 (protonated)
Cc1c/c(=N\C(=O)CN(c2ccccc2)S(=O)(=O)[NH+](C)C)[n-]o1 (cis-trans isomerization)
Cc1c/c(=N\C(=O)CN(c2ccccc2)S(=O)(=O)[NH+](C)C)[n-]o1 (3D coordinates assigned)
Cc1c/c(=N\C(=O)CN(c2ccccc2)S(=O)(=O)[NH+](C)C)[n-]o1 (optimized conformer: 77.43568211453957 kcal/mol)

>  <smiles>  (55) 
Cc1cc(=NC(=O)CN(c2ccccc2)S(=O)(=O)N(C)C)[nH]o1

>  <score_type>  (55) 
oracle

>  <origin>  (55) 
adg

>  <m_score__min__energy>  (55) 
-8.8900000000000006

>  <m_primary>  (55) 
energy

$$$$
55:0
     RDKit          3D

 48 50  0  0  0  0  0  0  0  0999 V2000
   59.3860   24.6130   45.9810 C   0  0  0  0  0  0  0  0  0  0  0  0
   59.0640   26.0860   45.9270 C   0  0  0  0  0  0  0  0  0  0  0  0
   60.1150   26.9980   45.7300 C   0  0  0  0  0  0  0  0  0  0  0  0
   59.8610   28.3670   45.6370 C   0  0  0  0  0  0  0  0  0  0  0  0
   58.5480   28.8520   45.7240 C   0  0  0  0  0  0  0  0  0  0  0  0
   58.3050   30.3050   45.6340 C   0  0  0  0  0  0  0  0  0  0  0  0
   57.1440   30.8340   45.1900 N   0  0  0  0  0  0  0  0  0  0  0  0
   57.2630   32.1510   45.2420 N   0  0  0  0  0  0  0  0  0  0  0  0
   58.4920   32.4150   45.7280 C   0  0  0  0  0  0  0  0  0  0  0  0
   59.0970   34.0750   46.0410 S   0  0  0  0  0  0  0  0  0  0  0  0
   58.8600   33.9800   47.8550 C   0  0  0  0  0  0  0  0  0  0  0  0
   60.1040   33.4750   48.5210 C   0  0  0  0  0  0  0  0  0  0  0  0
   60.1590   32.2630   48.8720 O   0  0  0  0  0  0  0  0  0  0  0  0
   61.1920   34.3640   48.8150 N   0  0  0  0  0  0  0  0  0  0  0  0
   62.4500   33.9020   49.3450 C   0  0  0  0  0  0  0  0  0  0  0  0
   62.8110   34.2560   50.6620 C   0  0  0  0  0  0  0  0  0  0  0  0
   64.0410   33.8700   51.1930 C   0  0  0  0  0  0  0  0  0  0  0  0
   64.9340   33.1260   50.4230 C   0  0  0  0  0  0  0  0  0  0  0  0
   64.5960   32.7590   49.1220 C   0  0  0  0  0  0  0  0  0  0  0  0
   63.3460   33.1090   48.5730 C   0  0  0  0  0  0  0  0  0  0  0  0
   63.0380   32.6500   47.1940 C   0  0  0  0  0  0  0  0  0  0  0  0
   63.3800   31.3230   46.7950 N   0  0  0  0  0  0  0  0  0  0  0  0
   62.4480   33.4050   46.3770 O   0  0  0  0  0  0  0  0  0  0  0  0
   59.1720   31.2810   45.9680 N   0  0  0  0  0  0  0  0  0  0  0  0
   60.4400   31.1650   46.5650 N   0  0  0  0  0  0  0  0  0  0  0  0
   57.4950   27.9500   45.9360 C   0  0  0  0  0  0  0  0  0  0  0  0
   57.7320   26.5680   46.0080 C   0  0  0  0  0  0  0  0  0  0  0  0
   56.3460   25.4760   46.1460 S   0  0  0  0  0  0  0  0  0  0  0  0
   54.8780   26.3680   45.9770 N   0  0  0  0  0  0  0  0  0  0  0  0
   56.3770   24.7930   47.4870 O   0  0  0  0  0  0  0  0  0  0  0  0
   56.4010   24.4210   45.0730 O   0  0  0  0  0  0  0  0  0  0  0  0
   59.4563   24.2913   47.0305 H   0  0  0  0  0  0  0  0  0  0  0  0
   58.5908   24.0451   45.4759 H   0  0  0  0  0  0  0  0  0  0  0  0
   60.3456   24.4287   45.4759 H   0  0  0  0  0  0  0  0  0  0  0  0
   61.1480   26.6290   45.6483 H   0  0  0  0  0  0  0  0  0  0  0  0
   60.6953   29.0696   45.4947 H   0  0  0  0  0  0  0  0  0  0  0  0
   58.6234   34.9821   48.2422 H   0  0  0  0  0  0  0  0  0  0  0  0
   58.0343   33.2857   48.0701 H   0  0  0  0  0  0  0  0  0  0  0  0
   61.0650   35.3770   48.6060 H   0  0  0  0  0  0  0  0  0  0  0  0
   62.1138   34.8436   51.2773 H   0  0  0  0  0  0  0  0  0  0  0  0
   64.3075   34.1531   52.2220 H   0  0  0  0  0  0  0  0  0  0  0  0
   65.9062   32.8285   50.8429 H   0  0  0  0  0  0  0  0  0  0  0  0
   65.3145   32.1884   48.5152 H   0  0  0  0  0  0  0  0  0  0  0  0
   64.3750   31.0290   46.6950 H   0  0  0  0  0  0  0  0  0  0  0  0
   60.5720   30.6630   47.4680 H   0  0  0  0  0  0  0  0  0  0  0  0
   61.2770   31.6010   46.1200 H   0  0  0  0  0  0  0  0  0  0  0  0
   56.4690   28.3307   46.0474 H   0  0  0  0  0  0  0  0  0  0  0  0
   55.1400   27.3790   45.9980 H   0  0  0  0  0  0  0  0  0  0  0  0
  1  2  1  0
  2  3  2  0
  3  4  1  0
  4  5  2  0
  5  6  1  0
  6  7  2  0
  7  8  1  0
  8  9  2  0
  9 10  1  0
 10 11  1  0
 11 12  1  0
 12 13  2  0
 12 14  1  0
 14 15  1  0
 15 16  2  0
 16 17  1  0
 17 18  2  0
 18 19  1  0
 19 20  2  0
 20 21  1  0
 21 22  1  0
 21 23  2  0
  9 24  1  0
 24 25  1  0
  5 26  1  0
 26 27  2  0
 27 28  1  0
 28 29  1  0
 28 30  2  0
 28 31  2  0
 27  2  1  0
 24  6  1  0
 20 15  1  0
  1 32  1  0
  1 33  1  0
  1 34  1  0
  3 35  1  0
  4 36  1  0
 11 37  1  0
 11 38  1  0
 14 39  1  0
 16 40  1  0
 17 41  1  0
 18 42  1  0
 19 43  1  0
 22 44  1  0
 25 45  1  0
 25 46  1  0
 26 47  1  0
 29 48  1  0
M  CHG  2  22  -1  29  -1
M  END
>  <UniqueID>  (56) 
52

>  <SMILES>  (56) 
Cc1ccc(-c2nnc(SCC(=O)Nc3ccccc3C([NH-])=O)n2N)cc1S([NH-])(=O)=O

>  <Energy>  (56) 
92.9237536207787

>  <Genealogy>  (56) 
Cc1ccc(-c2nnc(SCC(=O)Nc3ccccc3C([NH-])=O)n2N)cc1S([NH-])(=O)=O (protonated)
Cc1ccc(-c2nnc(SCC(=O)Nc3ccccc3C([NH-])=O)n2N)cc1S([NH-])(=O)=O (3D coordinates assigned)
Cc1ccc(-c2nnc(SCC(=O)Nc3ccccc3C([NH-])=O)n2N)cc1S([NH-])(=O)=O (optimized conformer: 92.9237536207787 kcal/mol)

>  <smiles>  (56) 
Cc1ccc(-c2nnc(SCC(=O)Nc3ccccc3C(N)=O)n2N)cc1S(N)(=O)=O

>  <score_type>  (56) 
oracle

>  <origin>  (56) 
adg

>  <m_score__min__energy>  (56) 
-15.24

>  <m_primary>  (56) 
energy

$$$$
56:0
     RDKit          3D

 66 70  0  0  0  0  0  0  0  0999 V2000
   58.1400   29.6970   49.9870 O   0  0  0  0  0  0  0  0  0  0  0  0
   58.8070   30.6000   49.4110 C   0  0  0  0  0  0  0  0  0  0  0  0
   59.9340   30.2350   48.4900 C   0  0  0  0  0  0  0  0  0  0  0  0
   59.4000   29.6650   47.2260 N   0  0  0  0  0  0  0  0  0  0  0  0
   59.5670   28.3160   46.9970 C   0  0  0  0  0  0  0  0  0  0  0  0
   60.2170   27.6180   47.8280 O   0  0  0  0  0  0  0  0  0  0  0  0
   59.0350   27.7140   45.8820 N   0  0  0  0  0  0  0  0  0  0  0  0
   59.2610   26.2730   45.6220 C   0  0  0  0  0  0  0  0  0  0  0  0
   57.9530   25.5280   45.5030 C   0  0  0  0  0  0  0  0  0  0  0  0
   57.1470   25.3150   46.6330 C   0  0  0  0  0  0  0  0  0  0  0  0
   55.9410   24.6150   46.5220 C   0  0  0  0  0  0  0  0  0  0  0  0
   55.5160   24.1220   45.2760 C   0  0  0  0  0  0  0  0  0  0  0  0
   54.2730   23.3300   45.1680 C   0  0  0  0  0  0  0  0  0  0  0  0
   53.3500   23.7120   44.3970 O   0  0  0  0  0  0  0  0  0  0  0  0
   54.1100   22.1340   45.9420 N   0  0  0  0  0  0  0  0  0  0  0  0
   54.8400   20.8940   45.6900 C   0  0  0  0  0  0  0  0  0  0  0  0
   56.2290   21.1890   45.1850 C   0  0  0  0  0  0  0  0  0  0  0  0
   56.5140   21.1360   43.8080 C   0  0  0  0  0  0  0  0  0  0  0  0
   57.7910   21.4640   43.3420 C   0  0  0  0  0  0  0  0  0  0  0  0
   58.7910   21.8420   44.2440 C   0  0  0  0  0  0  0  0  0  0  0  0
   58.5160   21.8930   45.6140 C   0  0  0  0  0  0  0  0  0  0  0  0
   57.2420   21.5640   46.0850 C   0  0  0  0  0  0  0  0  0  0  0  0
   56.3030   24.3750   44.1390 C   0  0  0  0  0  0  0  0  0  0  0  0
   57.5120   25.0690   44.2530 C   0  0  0  0  0  0  0  0  0  0  0  0
   58.2900   28.4410   44.9960 C   0  0  0  0  0  0  0  0  0  0  0  0
   57.7700   27.8740   43.9930 O   0  0  0  0  0  0  0  0  0  0  0  0
   58.1020   29.8140   45.1890 C   0  0  0  0  0  0  0  0  0  0  0  0
   57.3500   30.5770   44.2730 C   0  0  0  0  0  0  0  0  0  0  0  0
   57.1580   31.9410   44.4770 C   0  0  0  0  0  0  0  0  0  0  0  0
   57.7140   32.5600   45.5920 C   0  0  0  0  0  0  0  0  0  0  0  0
   58.4700   31.8230   46.5050 C   0  0  0  0  0  0  0  0  0  0  0  0
   58.6780   30.4300   46.3270 C   0  0  0  0  0  0  0  0  0  0  0  0
   58.4880   31.9770   49.6130 N   0  0  0  0  0  0  0  0  0  0  0  0
   59.4440   33.0010   50.0000 C   0  0  0  0  0  0  0  0  0  0  0  0
   60.1770   33.4580   48.7720 C   0  0  0  0  0  0  0  0  0  0  0  0
   61.4470   32.9460   48.4600 C   0  0  0  0  0  0  0  0  0  0  0  0
   62.0860   33.3300   47.2760 C   0  0  0  0  0  0  0  0  0  0  0  0
   61.4600   34.2180   46.3960 C   0  0  0  0  0  0  0  0  0  0  0  0
   60.1960   34.7290   46.6990 C   0  0  0  0  0  0  0  0  0  0  0  0
   59.5870   35.5830   45.8400 F   0  0  0  0  0  0  0  0  0  0  0  0
   59.5570   34.3550   47.8860 C   0  0  0  0  0  0  0  0  0  0  0  0
   60.5231   31.1356   48.2621 H   0  0  0  0  0  0  0  0  0  0  0  0
   60.5703   29.4843   48.9815 H   0  0  0  0  0  0  0  0  0  0  0  0
   59.8240   26.1617   44.6836 H   0  0  0  0  0  0  0  0  0  0  0  0
   59.8266   25.8513   46.4659 H   0  0  0  0  0  0  0  0  0  0  0  0
   57.4662   25.7013   47.6122 H   0  0  0  0  0  0  0  0  0  0  0  0
   55.3212   24.4492   47.4155 H   0  0  0  0  0  0  0  0  0  0  0  0
   54.9099   20.3193   46.6253 H   0  0  0  0  0  0  0  0  0  0  0  0
   54.3009   20.3142   44.9263 H   0  0  0  0  0  0  0  0  0  0  0  0
   55.7305   20.8359   43.0966 H   0  0  0  0  0  0  0  0  0  0  0  0
   58.0094   21.4247   42.2646 H   0  0  0  0  0  0  0  0  0  0  0  0
   59.7948   22.0994   43.8752 H   0  0  0  0  0  0  0  0  0  0  0  0
   59.3031   22.1923   46.3217 H   0  0  0  0  0  0  0  0  0  0  0  0
   57.0310   21.5986   47.1640 H   0  0  0  0  0  0  0  0  0  0  0  0
   55.9655   24.0246   43.1524 H   0  0  0  0  0  0  0  0  0  0  0  0
   58.1211   25.2561   43.3564 H   0  0  0  0  0  0  0  0  0  0  0  0
   56.9110   30.0907   43.3893 H   0  0  0  0  0  0  0  0  0  0  0  0
   56.5678   32.5280   43.7579 H   0  0  0  0  0  0  0  0  0  0  0  0
   57.5569   33.6365   45.7550 H   0  0  0  0  0  0  0  0  0  0  0  0
   58.9115   32.3294   47.3760 H   0  0  0  0  0  0  0  0  0  0  0  0
   58.9135   33.8514   50.4533 H   0  0  0  0  0  0  0  0  0  0  0  0
   60.1555   32.5940   50.7336 H   0  0  0  0  0  0  0  0  0  0  0  0
   61.9398   32.2424   49.1471 H   0  0  0  0  0  0  0  0  0  0  0  0
   63.0833   32.9323   47.0369 H   0  0  0  0  0  0  0  0  0  0  0  0
   61.9635   34.5145   45.4640 H   0  0  0  0  0  0  0  0  0  0  0  0
   58.5650   34.7649   48.1267 H   0  0  0  0  0  0  0  0  0  0  0  0
  1  2  2  0
  2  3  1  0
  3  4  1  0
  4  5  1  0
  5  6  2  0
  5  7  1  0
  7  8  1  0
  8  9  1  0
  9 10  2  0
 10 11  1  0
 11 12  2  0
 12 13  1  0
 13 14  2  0
 13 15  1  0
 15 16  1  0
 16 17  1  0
 17 18  2  0
 18 19  1  0
 19 20  2  0
 20 21  1  0
 21 22  2  0
 12 23  1  0
 23 24  2  0
  7 25  1  0
 25 26  2  0
 25 27  1  0
 27 28  2  0
 28 29  1  0
 29 30  2  0
 30 31  1  0
 31 32  2  0
  2 33  1  0
 33 34  1  0
 34 35  1  0
 35 36  2  0
 36 37  1  0
 37 38  2  0
 38 39  1  0
 39 40  1  0
 39 41  2  0
 32  4  1  0
 41 35  1  0
 24  9  1  0
 32 27  1  0
 22 17  1  0
  3 42  1  0
  3 43  1  0
  8 44  1  0
  8 45  1  0
 10 46  1  0
 11 47  1  0
 16 48  1  0
 16 49  1  0
 18 50  1  0
 19 51  1  0
 20 52  1  0
 21 53  1  0
 22 54  1  0
 23 55  1  0
 24 56  1  0
 28 57  1  0
 29 58  1  0
 30 59  1  0
 31 60  1  0
 34 61  1  0
 34 62  1  0
 36 63  1  0
 37 64  1  0
 38 65  1  0
 41 66  1  0
M  CHG  2  15  -1  33  -1
M  END
>  <UniqueID>  (57) 
53

>  <SMILES>  (57) 
O=C(Cn1c(=O)n(Cc2ccc(C(=O)[N-]Cc3ccccc3)cc2)c(=O)c2ccccc21)[N-]Cc1cccc(F)c1

>  <Energy>  (57) 
84.74321478637256

>  <Genealogy>  (57) 
O=C(Cn1c(=O)n(Cc2ccc(C(=O)[N-]Cc3ccccc3)cc2)c(=O)c2ccccc21)[N-]Cc1cccc(F)c1 (protonated)
O=C(Cn1c(=O)n(Cc2ccc(C(=O)[N-]Cc3ccccc3)cc2)c(=O)c2ccccc21)[N-]Cc1cccc(F)c1 (3D coordinates assigned)
O=C(Cn1c(=O)n(Cc2ccc(C(=O)[N-]Cc3ccccc3)cc2)c(=O)c2ccccc21)[N-]Cc1cccc(F)c1 (optimized conformer: 84.74321478637256 kcal/mol)

>  <smiles>  (57) 
O=C(Cn1c(=O)n(Cc2ccc(C(=O)NCc3ccccc3)cc2)c(=O)c2ccccc21)NCc1cccc(F)c1

>  <score_type>  (57) 
oracle

>  <origin>  (57) 
adg

>  <m_score__min__energy>  (57) 
-12.73

>  <m_primary>  (57) 
energy

$$$$
57:0
     RDKit          3D

 49 52  0  0  0  0  0  0  0  0999 V2000
   57.6290   32.7210   48.2580 O   0  0  0  0  0  0  0  0  0  0  0  0
   58.2870   33.4710   47.4880 C   0  0  0  0  0  0  0  0  0  0  0  0
   57.7710   33.7640   46.1190 C   0  0  0  0  0  0  0  0  0  0  0  0
   58.9710   33.1640   44.8840 S   0  0  0  0  0  0  0  0  0  0  0  0
   58.1150   31.6050   44.6450 C   0  0  0  0  0  0  0  0  0  0  0  0
   56.8870   31.5270   44.1270 C   0  0  0  0  0  0  0  0  0  0  0  0
   56.3340   29.8670   44.0040 S   0  0  0  0  0  0  0  0  0  0  0  0
   55.1460   29.5870   44.8800 O   0  0  0  0  0  0  0  0  0  0  0  0
   56.1210   29.4360   42.5790 O   0  0  0  0  0  0  0  0  0  0  0  0
   57.8150   29.2550   44.6760 C   0  0  0  0  0  0  0  0  0  0  0  0
   58.1610   27.9200   44.8930 C   0  0  0  0  0  0  0  0  0  0  0  0
   59.4240   27.6360   45.4350 C   0  0  0  0  0  0  0  0  0  0  0  0
   60.3150   28.6810   45.7470 C   0  0  0  0  0  0  0  0  0  0  0  0
   59.9460   30.0200   45.5200 C   0  0  0  0  0  0  0  0  0  0  0  0
   58.6820   30.2890   44.9810 C   0  0  0  0  0  0  0  0  0  0  0  0
   59.5740   33.9700   47.8700 N   0  0  0  0  0  0  0  0  0  0  0  0
   60.8370   33.3180   47.6700 C   0  0  0  0  0  0  0  0  0  0  0  0
   61.9770   34.0440   47.2720 C   0  0  0  0  0  0  0  0  0  0  0  0
   63.1990   33.3930   47.0850 C   0  0  0  0  0  0  0  0  0  0  0  0
   63.2950   32.0170   47.2840 C   0  0  0  0  0  0  0  0  0  0  0  0
   62.1690   31.2810   47.6610 C   0  0  0  0  0  0  0  0  0  0  0  0
   60.9290   31.9210   47.8490 C   0  0  0  0  0  0  0  0  0  0  0  0
   59.7640   31.1660   48.2290 N   0  0  0  0  0  0  0  0  0  0  0  0
   59.5490   30.5170   49.8250 S   0  0  0  0  0  0  0  0  0  0  0  0
   60.8470   29.9230   50.2960 O   0  0  0  0  0  0  0  0  0  0  0  0
   58.5020   29.4400   49.7870 O   0  0  0  0  0  0  0  0  0  0  0  0
   59.0100   31.7910   50.9150 C   0  0  0  0  0  0  0  0  0  0  0  0
   57.7770   31.6680   51.5740 C   0  0  0  0  0  0  0  0  0  0  0  0
   57.3380   32.6800   52.4340 C   0  0  0  0  0  0  0  0  0  0  0  0
   58.1290   33.8100   52.6500 C   0  0  0  0  0  0  0  0  0  0  0  0
   59.3630   33.9330   52.0030 C   0  0  0  0  0  0  0  0  0  0  0  0
   59.8040   32.9260   51.1370 C   0  0  0  0  0  0  0  0  0  0  0  0
   56.8069   33.2550   45.9726 H   0  0  0  0  0  0  0  0  0  0  0  0
   57.6311   34.8487   46.0014 H   0  0  0  0  0  0  0  0  0  0  0  0
   56.2934   32.3989   43.8149 H   0  0  0  0  0  0  0  0  0  0  0  0
   57.4599   27.1095   44.6449 H   0  0  0  0  0  0  0  0  0  0  0  0
   59.7194   26.5922   45.6170 H   0  0  0  0  0  0  0  0  0  0  0  0
   61.3037   28.4496   46.1700 H   0  0  0  0  0  0  0  0  0  0  0  0
   60.6379   30.8403   45.7616 H   0  0  0  0  0  0  0  0  0  0  0  0
   61.9046   35.1292   47.1076 H   0  0  0  0  0  0  0  0  0  0  0  0
   64.0864   33.9672   46.7803 H   0  0  0  0  0  0  0  0  0  0  0  0
   64.2604   31.5088   47.1438 H   0  0  0  0  0  0  0  0  0  0  0  0
   62.2517   30.1945   47.8119 H   0  0  0  0  0  0  0  0  0  0  0  0
   58.9350   31.1390   47.5960 H   0  0  0  0  0  0  0  0  0  0  0  0
   57.1552   30.7748   51.4140 H   0  0  0  0  0  0  0  0  0  0  0  0
   56.3667   32.5853   52.9416 H   0  0  0  0  0  0  0  0  0  0  0  0
   57.7820   34.6031   53.3286 H   0  0  0  0  0  0  0  0  0  0  0  0
   59.9874   34.8221   52.1750 H   0  0  0  0  0  0  0  0  0  0  0  0
   60.7749   33.0246   50.6295 H   0  0  0  0  0  0  0  0  0  0  0  0
  1  2  2  0
  2  3  1  0
  3  4  1  0
  4  5  1  0
  5  6  2  0
  6  7  1  0
  7  8  2  0
  7  9  2  0
  7 10  1  0
 10 11  2  0
 11 12  1  0
 12 13  2  0
 13 14  1  0
 14 15  2  0
  2 16  1  0
 16 17  1  0
 17 18  2  0
 18 19  1  0
 19 20  2  0
 20 21  1  0
 21 22  2  0
 22 23  1  0
 23 24  1  0
 24 25  2  0
 24 26  2  0
 24 27  1  0
 27 28  2  0
 28 29  1  0
 29 30  2  0
 30 31  1  0
 31 32  2  0
 15  5  1  0
 22 17  1  0
 32 27  1  0
 15 10  1  0
  3 33  1  0
  3 34  1  0
  6 35  1  0
 11 36  1  0
 12 37  1  0
 13 38  1  0
 14 39  1  0
 18 40  1  0
 19 41  1  0
 20 42  1  0
 21 43  1  0
 23 44  1  0
 28 45  1  0
 29 46  1  0
 30 47  1  0
 31 48  1  0
 32 49  1  0
M  CHG  1  16  -1
M  END
>  <UniqueID>  (58) 
54

>  <SMILES>  (58) 
O=C(CSC1=CS(=O)(=O)c2ccccc21)[N-]c1ccccc1NS(=O)(=O)c1ccccc1

>  <Energy>  (58) 
75.36884464904851

>  <Genealogy>  (58) 
O=C(CSC1=CS(=O)(=O)c2ccccc21)[N-]c1ccccc1NS(=O)(=O)c1ccccc1 (protonated)
O=C(CSC1=CS(=O)(=O)c2ccccc21)[N-]c1ccccc1NS(=O)(=O)c1ccccc1 (3D coordinates assigned)
O=C(CSC1=CS(=O)(=O)c2ccccc21)[N-]c1ccccc1NS(=O)(=O)c1ccccc1 (nonaromatic ring conformer: 75.36884464904851 kcal/mol)

>  <smiles>  (58) 
O=C(CSC1=CS(=O)(=O)c2ccccc21)Nc1ccccc1NS(=O)(=O)c1ccccc1

>  <score_type>  (58) 
oracle

>  <origin>  (58) 
adg

>  <m_score__min__energy>  (58) 
-12.460000000000001

>  <m_primary>  (58) 
energy

$$$$
58:0
     RDKit          3D

 52 55  0  0  0  0  0  0  0  0999 V2000
   51.7484   31.2297   51.4772 H   0  0  0  0  0  0  0  0  0  0  0  0
   52.5640   30.5630   51.7940 C   0  0  0  0  0  0  0  0  0  0  0  0
   52.3910   29.3790   52.4180 N   0  0  0  0  0  0  0  0  0  0  0  0
   53.5250   28.7350   52.7010 N   0  0  0  0  0  0  0  0  0  0  0  0
   53.4570   27.4990   53.4730 C   0  0  0  0  0  0  0  0  0  0  0  0
   53.4701   27.7363   54.5470 H   0  0  0  0  0  0  0  0  0  0  0  0
   52.5280   26.9637   53.2270 H   0  0  0  0  0  0  0  0  0  0  0  0
   54.3216   26.8650   53.2270 H   0  0  0  0  0  0  0  0  0  0  0  0
   54.6360   29.4240   52.2940 C   0  0  0  0  0  0  0  0  0  0  0  0
   55.8910   29.0710   52.3820 N   0  0  0  0  0  0  0  0  0  0  0  0
   57.3570   29.9690   52.6440 S   0  0  0  0  0  0  0  0  0  0  0  0
   58.3680   29.0380   53.2530 O   0  0  0  0  0  0  0  0  0  0  0  0
   57.1040   31.0810   53.6240 O   0  0  0  0  0  0  0  0  0  0  0  0
   58.0360   30.5690   51.1380 C   0  0  0  0  0  0  0  0  0  0  0  0
   58.5780   29.6690   50.2110 C   0  0  0  0  0  0  0  0  0  0  0  0
   58.6177   28.5953   50.4467 H   0  0  0  0  0  0  0  0  0  0  0  0
   59.0680   30.1330   48.9880 C   0  0  0  0  0  0  0  0  0  0  0  0
   59.5078   29.4240   48.2711 H   0  0  0  0  0  0  0  0  0  0  0  0
   59.0030   31.4970   48.6680 C   0  0  0  0  0  0  0  0  0  0  0  0
   59.4170   31.9410   47.3680 N   0  0  0  0  0  0  0  0  0  0  0  0
   60.2740   31.5070   46.9540 H   0  0  0  0  0  0  0  0  0  0  0  0
   58.5360   32.6540   46.4850 C   0  0  0  0  0  0  0  0  0  0  0  0
   57.4520   33.1380   46.9130 O   0  0  0  0  0  0  0  0  0  0  0  0
   58.8570   32.7760   45.0240 C   0  0  0  0  0  0  0  0  0  0  0  0
   59.6074   32.0132   44.7690 H   0  0  0  0  0  0  0  0  0  0  0  0
   59.2249   33.7998   44.8614 H   0  0  0  0  0  0  0  0  0  0  0  0
   57.4030   32.5490   43.9230 S   0  0  0  0  0  0  0  0  0  0  0  0
   56.8800   30.9470   44.5380 C   0  0  0  0  0  0  0  0  0  0  0  0
   55.6620   30.4260   44.3130 N   0  0  0  0  0  0  0  0  0  0  0  0
   55.6600   29.2320   44.8810 N   0  0  0  0  0  0  0  0  0  0  0  0
   56.8790   29.0690   45.4320 C   0  0  0  0  0  0  0  0  0  0  0  0
   57.3230   27.8510   46.1460 C   0  0  0  0  0  0  0  0  0  0  0  0
   58.6360   27.7880   46.6460 C   0  0  0  0  0  0  0  0  0  0  0  0
   59.3076   28.6503   46.5220 H   0  0  0  0  0  0  0  0  0  0  0  0
   59.1000   26.6320   47.3040 C   0  0  0  0  0  0  0  0  0  0  0  0
   60.4040   26.5260   47.8110 O   0  0  0  0  0  0  0  0  0  0  0  0
   60.7930   26.9300   49.1200 C   0  0  0  0  0  0  0  0  0  0  0  0
   60.2320   26.3473   49.8655 H   0  0  0  0  0  0  0  0  0  0  0  0
   61.8707   26.7544   49.2528 H   0  0  0  0  0  0  0  0  0  0  0  0
   60.5768   28.0003   49.2528 H   0  0  0  0  0  0  0  0  0  0  0  0
   58.2390   25.5420   47.4600 C   0  0  0  0  0  0  0  0  0  0  0  0
   58.5941   24.6339   47.9691 H   0  0  0  0  0  0  0  0  0  0  0  0
   56.9310   25.5980   46.9740 C   0  0  0  0  0  0  0  0  0  0  0  0
   56.2616   24.7350   47.1049 H   0  0  0  0  0  0  0  0  0  0  0  0
   56.4680   26.7430   46.3230 C   0  0  0  0  0  0  0  0  0  0  0  0
   55.1550   26.7680   45.8630 O   0  0  0  0  0  0  0  0  0  0  0  0
   57.6320   30.1260   45.2280 O   0  0  0  0  0  0  0  0  0  0  0  0
   58.5120   32.4020   49.6240 C   0  0  0  0  0  0  0  0  0  0  0  0
   58.5052   33.4798   49.4042 H   0  0  0  0  0  0  0  0  0  0  0  0
   58.0320   31.9400   50.8530 C   0  0  0  0  0  0  0  0  0  0  0  0
   57.6506   32.6545   51.5973 H   0  0  0  0  0  0  0  0  0  0  0  0
   54.1970   30.8760   51.5690 S   0  0  0  0  0  0  0  0  0  0  0  0
  1  2  1  0
  2  3  2  0
  3  4  1  0
  4  5  1  0
  5  6  1  0
  5  7  1  0
  5  8  1  0
  4  9  1  0
  9 10  2  0
 10 11  1  0
 11 12  2  0
 11 13  2  0
 11 14  1  0
 14 15  2  0
 15 16  1  0
 15 17  1  0
 17 18  1  0
 17 19  2  0
 19 20  1  0
 20 21  1  0
 20 22  1  0
 22 23  2  0
 22 24  1  0
 24 25  1  0
 24 26  1  0
 24 27  1  0
 27 28  1  0
 28 29  2  0
 29 30  1  0
 30 31  2  0
 31 32  1  0
 32 33  2  0
 33 34  1  0
 33 35  1  0
 35 36  1  0
 36 37  1  0
 37 38  1  0
 37 39  1  0
 37 40  1  0
 35 41  2  0
 41 42  1  0
 41 43  1  0
 43 44  1  0
 43 45  2  0
 45 46  1  0
 31 47  1  0
 19 48  1  0
 48 49  1  0
 48 50  2  0
 50 51  1  0
  9 52  1  0
 52  2  1  0
 50 14  1  0
 47 28  1  0
 45 32  1  0
M  CHG  1  46  -1
M  END
>  <UniqueID>  (59) 
55

>  <SMILES>  (59) 
COc1ccc([O-])c(-c2nnc(SCC(=O)Nc3ccc(S(=O)(=O)/N=c4/scnn4C)cc3)o2)c1

>  <Energy>  (59) 
138.41573978047117

>  <Genealogy>  (59) 
COc1ccc([O-])c(-c2nnc(SCC(=O)Nc3ccc(S(=O)(=O)N=c4scnn4C)cc3)o2)c1 (protonated)
COc1ccc([O-])c(-c2nnc(SCC(=O)Nc3ccc(S(=O)(=O)/N=c4/scnn4C)cc3)o2)c1 (cis-trans isomerization)
COc1ccc([O-])c(-c2nnc(SCC(=O)Nc3ccc(S(=O)(=O)/N=c4/scnn4C)cc3)o2)c1 (3D coordinates assigned)
COc1ccc([O-])c(-c2nnc(SCC(=O)Nc3ccc(S(=O)(=O)/N=c4/scnn4C)cc3)o2)c1 (optimized conformer: 138.41573978047117 kcal/mol)

>  <smiles>  (59) 
COc1ccc(O)c(-c2nnc(SCC(=O)Nc3ccc(S(=O)(=O)N=c4scnn4C)cc3)o2)c1

>  <score_type>  (59) 
oracle

>  <origin>  (59) 
adg

>  <m_score__min__energy>  (59) 
-12.609999999999999

>  <m_primary>  (59) 
energy

$$$$
59:0
     RDKit          3D

 38 40  0  0  0  0  0  0  0  0999 V2000
   51.2400   30.2610   48.4020 O   0  0  0  0  0  0  0  0  0  0  0  0
   51.3870   30.8390   49.5090 C   0  0  0  0  0  0  0  0  0  0  0  0
   50.9330   32.0910   49.7410 N   0  0  0  0  0  0  0  0  0  0  0  0
   51.2940   32.3010   51.0170 C   0  0  0  0  0  0  0  0  0  0  0  0
   51.0210   33.4720   51.7140 O   0  0  0  0  0  0  0  0  0  0  0  0
   51.9510   31.2020   51.5130 C   0  0  0  0  0  0  0  0  0  0  0  0
   52.4520   31.0140   52.9120 C   0  0  0  0  0  0  0  0  0  0  0  0
   53.8530   30.4670   52.8890 C   0  0  0  0  0  0  0  0  0  0  0  0
   54.2000   29.3720   53.6940 C   0  0  0  0  0  0  0  0  0  0  0  0
   55.4920   28.8440   53.6450 C   0  0  0  0  0  0  0  0  0  0  0  0
   56.4450   29.3980   52.7870 C   0  0  0  0  0  0  0  0  0  0  0  0
   56.1090   30.4870   51.9640 C   0  0  0  0  0  0  0  0  0  0  0  0
   57.0510   31.0810   51.0620 N   0  0  0  0  0  0  0  0  0  0  0  0
   58.4620   31.9700   51.5350 S   0  0  0  0  0  0  0  0  0  0  0  0
   58.1250   33.4300   51.6530 O   0  0  0  0  0  0  0  0  0  0  0  0
   58.9710   31.4520   52.8510 O   0  0  0  0  0  0  0  0  0  0  0  0
   59.7190   31.7520   50.2870 C   0  0  0  0  0  0  0  0  0  0  0  0
   59.4540   32.6500   49.1120 C   0  0  0  0  0  0  0  0  0  0  0  0
   60.1580   33.8570   48.9670 C   0  0  0  0  0  0  0  0  0  0  0  0
   59.8870   34.7050   47.8900 C   0  0  0  0  0  0  0  0  0  0  0  0
   58.9080   34.3590   46.9540 C   0  0  0  0  0  0  0  0  0  0  0  0
   58.1960   33.1660   47.0970 C   0  0  0  0  0  0  0  0  0  0  0  0
   58.4630   32.3140   48.1740 C   0  0  0  0  0  0  0  0  0  0  0  0
   54.8110   31.0120   52.0180 C   0  0  0  0  0  0  0  0  0  0  0  0
   52.0050   30.2570   50.5590 N   0  0  0  0  0  0  0  0  0  0  0  0
   52.4479   31.9826   53.4334 H   0  0  0  0  0  0  0  0  0  0  0  0
   51.7964   30.3040   53.4374 H   0  0  0  0  0  0  0  0  0  0  0  0
   53.4516   28.9274   54.3665 H   0  0  0  0  0  0  0  0  0  0  0  0
   55.7599   27.9895   54.2838 H   0  0  0  0  0  0  0  0  0  0  0  0
   57.4622   28.9805   52.7552 H   0  0  0  0  0  0  0  0  0  0  0  0
   60.7017   31.9974   50.7160 H   0  0  0  0  0  0  0  0  0  0  0  0
   59.7050   30.7062   49.9463 H   0  0  0  0  0  0  0  0  0  0  0  0
   60.9255   34.1356   49.7041 H   0  0  0  0  0  0  0  0  0  0  0  0
   60.4449   35.6464   47.7785 H   0  0  0  0  0  0  0  0  0  0  0  0
   58.6985   35.0263   46.1050 H   0  0  0  0  0  0  0  0  0  0  0  0
   57.4239   32.8958   46.3615 H   0  0  0  0  0  0  0  0  0  0  0  0
   57.8956   31.3784   48.2869 H   0  0  0  0  0  0  0  0  0  0  0  0
   54.5394   31.8596   51.3717 H   0  0  0  0  0  0  0  0  0  0  0  0
  1  2  2  0
  2  3  1  0
  3  4  1  0
  4  5  1  0
  4  6  2  0
  6  7  1  0
  7  8  1  0
  8  9  2  0
  9 10  1  0
 10 11  2  0
 11 12  1  0
 12 13  1  0
 13 14  1  0
 14 15  2  0
 14 16  2  0
 14 17  1  0
 17 18  1  0
 18 19  2  0
 19 20  1  0
 20 21  2  0
 21 22  1  0
 22 23  2  0
 12 24  2  0
  6 25  1  0
 25  2  1  0
 24  8  1  0
 23 18  1  0
  7 26  1  0
  7 27  1  0
  9 28  1  0
 10 29  1  0
 11 30  1  0
 17 31  1  0
 17 32  1  0
 19 33  1  0
 20 34  1  0
 21 35  1  0
 22 36  1  0
 23 37  1  0
 24 38  1  0
M  CHG  4   3  -1   5  -1  13  -1  25  -1
M  END
>  <UniqueID>  (60) 
56

>  <SMILES>  (60) 
O=c1[n-]c([O-])c(Cc2cccc([N-]S(=O)(=O)Cc3ccccc3)c2)[n-]1

>  <Energy>  (60) 
66.65557130624298

>  <Genealogy>  (60) 
O=c1[n-]c([O-])c(Cc2cccc([N-]S(=O)(=O)Cc3ccccc3)c2)[n-]1 (protonated)
O=c1[n-]c([O-])c(Cc2cccc([N-]S(=O)(=O)Cc3ccccc3)c2)[n-]1 (3D coordinates assigned)
O=c1[n-]c([O-])c(Cc2cccc([N-]S(=O)(=O)Cc3ccccc3)c2)[n-]1 (optimized conformer: 66.65557130624298 kcal/mol)

>  <smiles>  (60) 
O=c1[nH]c(O)c(Cc2cccc(NS(=O)(=O)Cc3ccccc3)c2)[nH]1

>  <score_type>  (60) 
oracle

>  <origin>  (60) 
adg

>  <m_score__min__energy>  (60) 
-17.879999999999999

>  <m_primary>  (60) 
energy

$$$$
60:0
     RDKit          3D

 51 54  0  0  0  0  0  0  0  0999 V2000
   57.3830   24.4750   48.5880 O   0  0  0  0  0  0  0  0  0  0  0  0
   56.5110   24.0170   47.8010 C   0  0  0  0  0  0  0  0  0  0  0  0
   56.0350   22.6070   47.9720 C   0  0  0  0  0  0  0  0  0  0  0  0
   56.9540   21.6810   47.3900 O   0  0  0  0  0  0  0  0  0  0  0  0
   57.2990   21.6270   46.0290 C   0  0  0  0  0  0  0  0  0  0  0  0
   58.5660   22.0200   45.5530 C   0  0  0  0  0  0  0  0  0  0  0  0
   58.8630   21.9360   44.1890 C   0  0  0  0  0  0  0  0  0  0  0  0
   57.9040   21.4640   43.2910 C   0  0  0  0  0  0  0  0  0  0  0  0
   56.6440   21.0770   43.7540 C   0  0  0  0  0  0  0  0  0  0  0  0
   56.3420   21.1590   45.1180 C   0  0  0  0  0  0  0  0  0  0  0  0
   55.1170   20.7770   45.5560 F   0  0  0  0  0  0  0  0  0  0  0  0
   55.9620   24.8320   46.7580 N   0  0  0  0  0  0  0  0  0  0  0  0
   56.6960   25.5790   45.7780 C   0  0  0  0  0  0  0  0  0  0  0  0
   57.0470   25.0310   44.5330 C   0  0  0  0  0  0  0  0  0  0  0  0
   57.7340   25.8030   43.5950 C   0  0  0  0  0  0  0  0  0  0  0  0
   58.0690   27.1280   43.8840 C   0  0  0  0  0  0  0  0  0  0  0  0
   57.7200   27.6990   45.1210 C   0  0  0  0  0  0  0  0  0  0  0  0
   58.0710   29.1130   45.4070 C   0  0  0  0  0  0  0  0  0  0  0  0
   59.2750   29.4650   46.0330 C   0  0  0  0  0  0  0  0  0  0  0  0
   59.5540   30.8080   46.2740 C   0  0  0  0  0  0  0  0  0  0  0  0
   58.6320   31.7840   45.8830 C   0  0  0  0  0  0  0  0  0  0  0  0
   58.8930   33.1770   46.1370 N   0  0  0  0  0  0  0  0  0  0  0  0
   58.6330   34.1770   45.0950 C   0  0  0  0  0  0  0  0  0  0  0  0
   59.5580   35.3820   45.2960 C   0  0  0  0  0  0  0  0  0  0  0  0
   59.4630   35.8740   46.6200 O   0  0  0  0  0  0  0  0  0  0  0  0
   59.9410   34.9000   47.5290 C   0  0  0  0  0  0  0  0  0  0  0  0
   59.0470   33.6550   47.5130 C   0  0  0  0  0  0  0  0  0  0  0  0
   57.4760   31.3930   45.2740 N   0  0  0  0  0  0  0  0  0  0  0  0
   57.2140   30.1050   45.0430 N   0  0  0  0  0  0  0  0  0  0  0  0
   57.0140   26.9150   46.0540 C   0  0  0  0  0  0  0  0  0  0  0  0
   55.9361   22.3887   49.0456 H   0  0  0  0  0  0  0  0  0  0  0  0
   55.0642   22.5016   47.4656 H   0  0  0  0  0  0  0  0  0  0  0  0
   59.3240   22.3941   46.2569 H   0  0  0  0  0  0  0  0  0  0  0  0
   59.8541   22.2424   43.8230 H   0  0  0  0  0  0  0  0  0  0  0  0
   58.1405   21.3968   42.2188 H   0  0  0  0  0  0  0  0  0  0  0  0
   55.8882   20.7073   43.0454 H   0  0  0  0  0  0  0  0  0  0  0  0
   56.7796   23.9905   44.2968 H   0  0  0  0  0  0  0  0  0  0  0  0
   58.0127   25.3665   42.6245 H   0  0  0  0  0  0  0  0  0  0  0  0
   58.6099   27.7293   43.1384 H   0  0  0  0  0  0  0  0  0  0  0  0
   59.9932   28.6871   46.3313 H   0  0  0  0  0  0  0  0  0  0  0  0
   60.4927   31.0989   46.7683 H   0  0  0  0  0  0  0  0  0  0  0  0
   58.8204   33.7326   44.1064 H   0  0  0  0  0  0  0  0  0  0  0  0
   57.5854   34.5064   45.1583 H   0  0  0  0  0  0  0  0  0  0  0  0
   60.5961   35.0765   45.0985 H   0  0  0  0  0  0  0  0  0  0  0  0
   59.2544   36.1790   44.6013 H   0  0  0  0  0  0  0  0  0  0  0  0
   60.9641   34.6129   47.2448 H   0  0  0  0  0  0  0  0  0  0  0  0
   59.9308   35.3283   48.5421 H   0  0  0  0  0  0  0  0  0  0  0  0
   59.5079   32.8657   48.1251 H   0  0  0  0  0  0  0  0  0  0  0  0
   58.0588   33.9101   47.9233 H   0  0  0  0  0  0  0  0  0  0  0  0
   56.7810   32.1050   44.9620 H   0  0  0  0  0  0  0  0  0  0  0  0
   56.7079   27.3581   47.0131 H   0  0  0  0  0  0  0  0  0  0  0  0
  1  2  2  0
  2  3  1  0
  3  4  1  0
  4  5  1  0
  5  6  2  0
  6  7  1  0
  7  8  2  0
  8  9  1  0
  9 10  2  0
 10 11  1  0
  2 12  1  0
 12 13  1  0
 13 14  2  0
 14 15  1  0
 15 16  2  0
 16 17  1  0
 17 18  1  0
 18 19  2  0
 19 20  1  0
 20 21  2  0
 21 22  1  0
 22 23  1  0
 23 24  1  0
 24 25  1  0
 25 26  1  0
 26 27  1  0
 21 28  1  0
 28 29  2  0
 17 30  2  0
 10  5  1  0
 30 13  1  0
 29 18  1  0
 27 22  1  0
  3 31  1  0
  3 32  1  0
  6 33  1  0
  7 34  1  0
  8 35  1  0
  9 36  1  0
 14 37  1  0
 15 38  1  0
 16 39  1  0
 19 40  1  0
 20 41  1  0
 23 42  1  0
 23 43  1  0
 24 44  1  0
 24 45  1  0
 26 46  1  0
 26 47  1  0
 27 48  1  0
 27 49  1  0
 28 50  1  0
 30 51  1  0
M  CHG  2  12  -1  28   1
M  END
>  <UniqueID>  (61) 
57

>  <SMILES>  (61) 
O=C(COc1ccccc1F)[N-]c1cccc(-c2ccc(N3CCOCC3)[nH+]n2)c1

>  <Energy>  (61) 
66.68290813611235

>  <Genealogy>  (61) 
O=C(COc1ccccc1F)[N-]c1cccc(-c2ccc(N3CCOCC3)[nH+]n2)c1 (protonated)
O=C(COc1ccccc1F)[N-]c1cccc(-c2ccc(N3CCOCC3)[nH+]n2)c1 (3D coordinates assigned)
O=C(COc1ccccc1F)[N-]c1cccc(-c2ccc(N3CCOCC3)[nH+]n2)c1 (nonaromatic ring conformer: 66.68290813611235 kcal/mol)

>  <smiles>  (61) 
O=C(COc1ccccc1F)Nc1cccc(-c2ccc(N3CCOCC3)nn2)c1

>  <score_type>  (61) 
oracle

>  <origin>  (61) 
adg

>  <m_score__min__energy>  (61) 
-9.2899999999999991

>  <m_primary>  (61) 
energy

$$$$
61:0
     RDKit          3D

 31 32  0  0  1  0  0  0  0  0999 V2000
   66.8860   32.6720   50.4410 C   0  0  0  0  0  0  0  0  0  0  0  0
   65.7900   33.1200   49.7690 O   0  0  0  0  0  0  0  0  0  0  0  0
   64.6720   32.3390   49.7910 C   0  0  0  0  0  0  0  0  0  0  0  0
   63.5780   32.8990   48.9960 C   0  0  0  0  0  0  0  0  0  0  0  0
   62.6350   33.6120   49.1440 N   0  0  0  0  0  0  0  0  0  0  0  0
   61.7310   33.9900   48.3330 N   0  0  0  0  0  0  0  0  0  0  0  0
   61.8580   33.4880   47.0590 C   0  0  0  0  0  0  0  0  0  0  0  0
   61.1610   33.6490   46.0500 N   0  0  0  0  0  0  0  0  0  0  0  0
   59.7660   33.9580   46.0260 C   0  0  0  0  0  0  0  0  0  0  0  0
   59.2880   35.0810   46.3080 O   0  0  0  0  0  0  0  0  0  0  0  0
   58.9040   32.8170   45.6260 C   0  0  0  0  0  0  0  0  0  0  0  0
   59.1220   31.5430   46.0380 C   0  0  0  0  0  0  0  0  0  0  0  0
   58.2780   30.5400   45.5520 C   0  0  0  0  0  0  0  0  0  0  0  0
   57.2560   30.8460   44.6760 C   0  0  0  0  0  0  0  0  0  0  0  0
   56.3400   29.8460   44.1160 C   0  0  0  0  0  0  0  0  0  0  0  0
   56.4760   29.3950   42.9420 O   0  0  0  0  0  0  0  0  0  0  0  0
   55.2610   29.3440   44.8700 O   0  0  0  0  0  0  0  0  0  0  0  0
   57.0590   32.1450   44.2770 C   0  0  0  0  0  0  0  0  0  0  0  0
   57.8830   33.1840   44.7430 C   0  0  0  0  0  0  0  0  0  0  0  0
   63.3760   32.4460   47.1580 S   0  0  0  0  0  0  0  0  0  0  0  0
   66.7073   32.7450   51.5239 H   0  0  0  0  0  0  0  0  0  0  0  0
   67.0783   31.6231   50.1710 H   0  0  0  0  0  0  0  0  0  0  0  0
   67.7579   33.2859   50.1710 H   0  0  0  0  0  0  0  0  0  0  0  0
   64.9272   31.3472   49.3896 H   0  0  0  0  0  0  0  0  0  0  0  0
   64.3285   32.2786   50.8342 H   0  0  0  0  0  0  0  0  0  0  0  0
   60.9010   34.6370   48.5220 H   0  0  0  0  0  0  0  0  0  0  0  0
   59.9396   31.3059   46.7346 H   0  0  0  0  0  0  0  0  0  0  0  0
   58.4296   29.4981   45.8704 H   0  0  0  0  0  0  0  0  0  0  0  0
   54.7700   28.4970   44.5150 H   0  0  0  0  0  0  0  0  0  0  0  0
   56.2407   32.3769   43.5794 H   0  0  0  0  0  0  0  0  0  0  0  0
   57.7333   34.2280   44.4306 H   0  0  0  0  0  0  0  0  0  0  0  0
  1  2  1  0
  2  3  1  0
  3  4  1  0
  4  5  2  0
  5  6  1  0
  6  7  1  0
  7  8  2  0
  8  9  1  0
  9 10  2  0
  9 11  1  0
 11 12  2  0
 12 13  1  0
 13 14  2  0
 14 15  1  0
 15 16  2  0
 15 17  1  0
 14 18  1  0
 18 19  2  0
  7 20  1  0
 20  4  1  0
 19 11  1  0
  1 21  1  0
  1 22  1  0
  1 23  1  0
  3 24  1  0
  3 25  1  0
  6 26  1  0
 12 27  1  0
 13 28  1  0
 17 29  1  0
 18 30  1  0
 19 31  1  0
M  END
>  <smiles>  (62) 
COCc1n[nH]c(=NC(=O)c2ccc(C(=O)O)cc2)s1

>  <score_type>  (62) 
oracle

>  <origin>  (62) 
adg

>  <m_score__min__energy>  (62) 
-7.2699999999999996

>  <m_primary>  (62) 
energy

$$$$
62:0
     RDKit          3D

 42 43  0  0  0  0  0  0  0  0999 V2000
   59.8570   29.3990   48.2850 C   0  0  0  0  0  0  0  0  0  0  0  0
   61.0270   30.1930   48.1190 O   0  0  0  0  0  0  0  0  0  0  0  0
   61.0210   31.5400   47.7280 C   0  0  0  0  0  0  0  0  0  0  0  0
   62.2380   32.1340   47.3750 C   0  0  0  0  0  0  0  0  0  0  0  0
   62.2830   33.4680   46.9640 C   0  0  0  0  0  0  0  0  0  0  0  0
   61.1100   34.2230   46.9030 C   0  0  0  0  0  0  0  0  0  0  0  0
   59.8810   33.6480   47.2590 C   0  0  0  0  0  0  0  0  0  0  0  0
   58.6010   34.4370   47.1290 C   0  0  0  0  0  0  0  0  0  0  0  0
   57.5700   33.6190   46.4930 N   0  0  0  0  0  0  0  0  0  0  0  0
   57.7780   33.0080   45.2170 C   0  0  0  0  0  0  0  0  0  0  0  0
   58.6440   33.4710   44.4250 O   0  0  0  0  0  0  0  0  0  0  0  0
   57.0530   31.8260   44.8760 N   0  0  0  0  0  0  0  0  0  0  0  0
   57.6000   30.7890   44.0060 C   0  0  0  0  0  0  0  0  0  0  0  0
   57.4540   29.4320   44.6730 C   0  0  0  0  0  0  0  0  0  0  0  0
   58.5720   28.6470   45.0560 C   0  0  0  0  0  0  0  0  0  0  0  0
   59.9870   29.0620   44.7440 C   0  0  0  0  0  0  0  0  0  0  0  0
   58.3600   27.4400   45.7400 C   0  0  0  0  0  0  0  0  0  0  0  0
   57.0590   27.0180   46.0270 C   0  0  0  0  0  0  0  0  0  0  0  0
   56.8190   25.7220   46.7350 C   0  0  0  0  0  0  0  0  0  0  0  0
   56.0030   27.7660   45.6190 N   0  0  0  0  0  0  0  0  0  0  0  0
   56.1620   28.9430   44.9630 C   0  0  0  0  0  0  0  0  0  0  0  0
   55.1380   29.5940   44.6210 O   0  0  0  0  0  0  0  0  0  0  0  0
   59.8400   32.3060   47.6740 C   0  0  0  0  0  0  0  0  0  0  0  0
   59.6557   29.2624   49.3578 H   0  0  0  0  0  0  0  0  0  0  0  0
   59.0013   29.9037   47.8127 H   0  0  0  0  0  0  0  0  0  0  0  0
   60.0100   28.4174   47.8127 H   0  0  0  0  0  0  0  0  0  0  0  0
   63.1663   31.5457   47.4216 H   0  0  0  0  0  0  0  0  0  0  0  0
   63.2447   33.9249   46.6877 H   0  0  0  0  0  0  0  0  0  0  0  0
   61.1498   35.2721   46.5747 H   0  0  0  0  0  0  0  0  0  0  0  0
   58.2583   34.7420   48.1288 H   0  0  0  0  0  0  0  0  0  0  0  0
   58.7876   35.3270   46.5101 H   0  0  0  0  0  0  0  0  0  0  0  0
   56.7390   33.3300   47.0570 H   0  0  0  0  0  0  0  0  0  0  0  0
   57.0543   30.7876   43.0509 H   0  0  0  0  0  0  0  0  0  0  0  0
   58.6654   30.9920   43.8223 H   0  0  0  0  0  0  0  0  0  0  0  0
   60.5372   29.2234   45.6827 H   0  0  0  0  0  0  0  0  0  0  0  0
   60.4810   28.2709   44.1608 H   0  0  0  0  0  0  0  0  0  0  0  0
   59.9755   29.9946   44.1608 H   0  0  0  0  0  0  0  0  0  0  0  0
   59.2182   26.8259   46.0503 H   0  0  0  0  0  0  0  0  0  0  0  0
   56.8495   25.8870   47.8221 H   0  0  0  0  0  0  0  0  0  0  0  0
   55.8324   25.3266   46.4517 H   0  0  0  0  0  0  0  0  0  0  0  0
   57.5986   24.9996   46.4517 H   0  0  0  0  0  0  0  0  0  0  0  0
   58.8798   31.8509   47.9584 H   0  0  0  0  0  0  0  0  0  0  0  0
  1  2  1  0
  2  3  1  0
  3  4  2  0
  4  5  1  0
  5  6  2  0
  6  7  1  0
  7  8  1  0
  8  9  1  0
  9 10  1  0
 10 11  2  0
 10 12  1  0
 12 13  1  0
 13 14  1  0
 14 15  2  0
 15 16  1  0
 15 17  1  0
 17 18  2  0
 18 19  1  0
 18 20  1  0
 20 21  1  0
 21 22  2  0
  7 23  2  0
 23  3  1  0
 21 14  1  0
  1 24  1  0
  1 25  1  0
  1 26  1  0
  4 27  1  0
  5 28  1  0
  6 29  1  0
  8 30  1  0
  8 31  1  0
  9 32  1  0
 13 33  1  0
 13 34  1  0
 16 35  1  0
 16 36  1  0
 16 37  1  0
 17 38  1  0
 19 39  1  0
 19 40  1  0
 19 41  1  0
 23 42  1  0
M  CHG  2  12  -1  20  -1
M  END
>  <UniqueID>  (63) 
58

>  <SMILES>  (63) 
COc1cccc(CNC(=O)[N-]Cc2c(C)cc(C)[n-]c2=O)c1

>  <Energy>  (63) 
36.08594918714474

>  <Genealogy>  (63) 
COc1cccc(CNC(=O)[N-]Cc2c(C)cc(C)[n-]c2=O)c1 (protonated)
COc1cccc(CNC(=O)[N-]Cc2c(C)cc(C)[n-]c2=O)c1 (3D coordinates assigned)
COc1cccc(CNC(=O)[N-]Cc2c(C)cc(C)[n-]c2=O)c1 (optimized conformer: 36.08594918714474 kcal/mol)

>  <smiles>  (63) 
COc1cccc(CNC(=O)NCc2c(C)cc(C)[nH]c2=O)c1

>  <score_type>  (63) 
oracle

>  <origin>  (63) 
adg

>  <m_score__min__energy>  (63) 
-11.02

>  <m_primary>  (63) 
energy

$$$$
63:0
     RDKit          3D

 39 41  0  0  0  0  0  0  0  0999 V2000
   53.1590   24.2780   45.1250 C   0  0  0  0  0  0  0  0  0  0  0  0
   54.8140   24.6020   45.7050 S   0  0  0  0  0  0  0  0  0  0  0  0
   55.7740   24.1560   44.6390 O   0  0  0  0  0  0  0  0  0  0  0  0
   55.0930   23.8270   46.9630 O   0  0  0  0  0  0  0  0  0  0  0  0
   55.0450   26.3010   45.9780 N   0  0  0  0  0  0  0  0  0  0  0  0
   56.2680   27.0390   45.8190 C   0  0  0  0  0  0  0  0  0  0  0  0
   57.4530   26.4400   46.2590 C   0  0  0  0  0  0  0  0  0  0  0  0
   58.6800   27.0810   46.0880 C   0  0  0  0  0  0  0  0  0  0  0  0
   58.7350   28.3390   45.4870 C   0  0  0  0  0  0  0  0  0  0  0  0
   57.5580   28.9870   45.0900 C   0  0  0  0  0  0  0  0  0  0  0  0
   57.6570   30.2650   44.4370 N   0  0  0  0  0  0  0  0  0  0  0  0
   58.4830   31.3360   44.9130 C   0  0  0  0  0  0  0  0  0  0  0  0
   59.5760   31.0870   45.4900 O   0  0  0  0  0  0  0  0  0  0  0  0
   58.0320   32.7540   44.7500 C   0  0  0  0  0  0  0  0  0  0  0  0
   58.7180   33.6150   45.7670 C   0  0  0  0  0  0  0  0  0  0  0  0
   59.1020   34.9450   45.6020 C   0  0  0  0  0  0  0  0  0  0  0  0
   59.5260   35.4670   46.7780 N   0  0  0  0  0  0  0  0  0  0  0  0
   59.3970   34.4800   47.6780 C   0  0  0  0  0  0  0  0  0  0  0  0
   59.6350   34.5770   49.0090 N   0  0  0  0  0  0  0  0  0  0  0  0
   59.3900   33.4960   49.8090 C   0  0  0  0  0  0  0  0  0  0  0  0
   58.8840   32.2960   49.2580 C   0  0  0  0  0  0  0  0  0  0  0  0
   58.6320   32.2130   47.8780 C   0  0  0  0  0  0  0  0  0  0  0  0
   58.9080   33.3390   47.1070 C   0  0  0  0  0  0  0  0  0  0  0  0
   56.3160   28.3340   45.2590 C   0  0  0  0  0  0  0  0  0  0  0  0
   55.1450   28.9730   44.8750 O   0  0  0  0  0  0  0  0  0  0  0  0
   52.4877   24.1466   45.9865 H   0  0  0  0  0  0  0  0  0  0  0  0
   52.8117   25.1252   44.5154 H   0  0  0  0  0  0  0  0  0  0  0  0
   53.1568   23.3624   44.5154 H   0  0  0  0  0  0  0  0  0  0  0  0
   57.4169   25.4537   46.7447 H   0  0  0  0  0  0  0  0  0  0  0  0
   59.6059   26.5938   46.4276 H   0  0  0  0  0  0  0  0  0  0  0  0
   59.7083   28.8249   45.3239 H   0  0  0  0  0  0  0  0  0  0  0  0
   57.0860   30.4290   43.5780 H   0  0  0  0  0  0  0  0  0  0  0  0
   58.2866   33.1061   43.7395 H   0  0  0  0  0  0  0  0  0  0  0  0
   56.9430   32.8119   44.8943 H   0  0  0  0  0  0  0  0  0  0  0  0
   59.0658   35.4941   44.6495 H   0  0  0  0  0  0  0  0  0  0  0  0
   59.8440   36.4460   46.9530 H   0  0  0  0  0  0  0  0  0  0  0  0
   59.5879   33.5600   50.8892 H   0  0  0  0  0  0  0  0  0  0  0  0
   58.6882   31.4302   49.9076 H   0  0  0  0  0  0  0  0  0  0  0  0
   58.2322   31.2940   47.4245 H   0  0  0  0  0  0  0  0  0  0  0  0
  1  2  1  0
  2  3  2  0
  2  4  2  0
  2  5  1  0
  5  6  1  0
  6  7  2  0
  7  8  1  0
  8  9  2  0
  9 10  1  0
 10 11  1  0
 11 12  1  0
 12 13  2  0
 12 14  1  0
 14 15  1  0
 15 16  2  0
 16 17  1  0
 17 18  1  0
 18 19  2  0
 19 20  1  0
 20 21  2  0
 21 22  1  0
 22 23  2  0
 10 24  2  0
 24 25  1  0
 24  6  1  0
 23 15  1  0
 23 18  1  0
  1 26  1  0
  1 27  1  0
  1 28  1  0
  7 29  1  0
  8 30  1  0
  9 31  1  0
 11 32  1  0
 14 33  1  0
 14 34  1  0
 16 35  1  0
 17 36  1  0
 20 37  1  0
 21 38  1  0
 22 39  1  0
M  CHG  2   5  -1  25  -1
M  END
>  <UniqueID>  (64) 
59

>  <SMILES>  (64) 
CS(=O)(=O)[N-]c1cccc(NC(=O)Cc2c[nH]c3ncccc23)c1[O-]

>  <Energy>  (64) 
80.50377760404137

>  <Genealogy>  (64) 
CS(=O)(=O)[N-]c1cccc(NC(=O)Cc2c[nH]c3ncccc23)c1[O-] (protonated)
CS(=O)(=O)[N-]c1cccc(NC(=O)Cc2c[nH]c3ncccc23)c1[O-] (3D coordinates assigned)
CS(=O)(=O)[N-]c1cccc(NC(=O)Cc2c[nH]c3ncccc23)c1[O-] (optimized conformer: 80.50377760404137 kcal/mol)

>  <smiles>  (64) 
CS(=O)(=O)Nc1cccc(NC(=O)Cc2c[nH]c3ncccc23)c1O

>  <score_type>  (64) 
oracle

>  <origin>  (64) 
adg

>  <m_score__min__energy>  (64) 
-14.369999999999999

>  <m_primary>  (64) 
energy

$$$$
64:0
     RDKit          3D

 62 65  0  0  0  0  0  0  0  0999 V2000
   57.3040   24.8390   42.9390 N   0  0  0  0  0  0  0  0  0  0  0  0
   56.7190   23.3570   43.6130 S   0  0  0  0  0  0  0  0  0  0  0  0
   55.4420   22.9770   42.9160 O   0  0  0  0  0  0  0  0  0  0  0  0
   57.7510   22.2900   43.3720 O   0  0  0  0  0  0  0  0  0  0  0  0
   56.4110   23.5000   45.3550 C   0  0  0  0  0  0  0  0  0  0  0  0
   55.4560   22.6730   45.9740 C   0  0  0  0  0  0  0  0  0  0  0  0
   55.1950   22.7960   47.3430 C   0  0  0  0  0  0  0  0  0  0  0  0
   55.8840   23.7420   48.1070 C   0  0  0  0  0  0  0  0  0  0  0  0
   56.8290   24.5760   47.5010 C   0  0  0  0  0  0  0  0  0  0  0  0
   57.1010   24.4620   46.1290 C   0  0  0  0  0  0  0  0  0  0  0  0
   58.0490   25.3380   45.5110 N   0  0  0  0  0  0  0  0  0  0  0  0
   57.6700   26.9970   45.2000 S   0  0  0  0  0  0  0  0  0  0  0  0
   56.2550   27.2700   45.6370 O   0  0  0  0  0  0  0  0  0  0  0  0
   57.7680   27.2350   43.7180 O   0  0  0  0  0  0  0  0  0  0  0  0
   58.7660   28.0950   46.0300 C   0  0  0  0  0  0  0  0  0  0  0  0
   59.6510   28.9140   45.3130 C   0  0  0  0  0  0  0  0  0  0  0  0
   60.4620   29.8290   45.9910 C   0  0  0  0  0  0  0  0  0  0  0  0
   60.3850   29.9470   47.3870 C   0  0  0  0  0  0  0  0  0  0  0  0
   61.3520   31.1620   48.2150 S   0  0  0  0  0  0  0  0  0  0  0  0
   62.3730   31.7370   47.2720 O   0  0  0  0  0  0  0  0  0  0  0  0
   62.0700   30.4740   49.3400 O   0  0  0  0  0  0  0  0  0  0  0  0
   60.3290   32.4400   48.8450 N   0  0  0  0  0  0  0  0  0  0  0  0
   60.5540   33.7220   48.1500 C   0  0  0  0  0  0  0  0  0  0  0  0
   59.5490   33.9080   47.0440 C   0  0  0  0  0  0  0  0  0  0  0  0
   58.3100   33.2470   47.1090 C   0  0  0  0  0  0  0  0  0  0  0  0
   57.3910   33.3740   46.0640 C   0  0  0  0  0  0  0  0  0  0  0  0
   57.6960   34.1690   44.9540 C   0  0  0  0  0  0  0  0  0  0  0  0
   58.9180   34.8430   44.8870 C   0  0  0  0  0  0  0  0  0  0  0  0
   59.8400   34.7220   45.9320 C   0  0  0  0  0  0  0  0  0  0  0  0
   60.4230   32.5540   50.3180 C   0  0  0  0  0  0  0  0  0  0  0  0
   59.1470   32.1940   51.0510 C   0  0  0  0  0  0  0  0  0  0  0  0
   58.5600   30.9260   50.8820 C   0  0  0  0  0  0  0  0  0  0  0  0
   57.3740   30.5980   51.5450 C   0  0  0  0  0  0  0  0  0  0  0  0
   56.7530   31.5360   52.3710 C   0  0  0  0  0  0  0  0  0  0  0  0
   57.3150   32.8070   52.5280 C   0  0  0  0  0  0  0  0  0  0  0  0
   58.5050   33.1360   51.8700 C   0  0  0  0  0  0  0  0  0  0  0  0
   59.5100   29.1190   48.1040 C   0  0  0  0  0  0  0  0  0  0  0  0
   58.7110   28.1920   47.4290 C   0  0  0  0  0  0  0  0  0  0  0  0
   58.1490   25.1190   43.4790 H   0  0  0  0  0  0  0  0  0  0  0  0
   56.5720   25.5690   43.1010 H   0  0  0  0  0  0  0  0  0  0  0  0
   54.9115   21.9255   45.3784 H   0  0  0  0  0  0  0  0  0  0  0  0
   54.4457   22.1466   47.8192 H   0  0  0  0  0  0  0  0  0  0  0  0
   55.6830   23.8306   49.1848 H   0  0  0  0  0  0  0  0  0  0  0  0
   57.3624   25.3260   48.1035 H   0  0  0  0  0  0  0  0  0  0  0  0
   59.7069   28.8362   44.2172 H   0  0  0  0  0  0  0  0  0  0  0  0
   61.1645   30.4600   45.4268 H   0  0  0  0  0  0  0  0  0  0  0  0
   60.4548   34.5466   48.8712 H   0  0  0  0  0  0  0  0  0  0  0  0
   61.5641   33.7172   47.7146 H   0  0  0  0  0  0  0  0  0  0  0  0
   58.0634   32.6284   47.9845 H   0  0  0  0  0  0  0  0  0  0  0  0
   56.4262   32.8480   46.1143 H   0  0  0  0  0  0  0  0  0  0  0  0
   56.9716   34.2637   44.1316 H   0  0  0  0  0  0  0  0  0  0  0  0
   59.1548   35.4681   44.0134 H   0  0  0  0  0  0  0  0  0  0  0  0
   60.7958   35.2645   45.8851 H   0  0  0  0  0  0  0  0  0  0  0  0
   61.2219   31.8825   50.6658 H   0  0  0  0  0  0  0  0  0  0  0  0
   60.6282   33.6114   50.5409 H   0  0  0  0  0  0  0  0  0  0  0  0
   59.0386   30.1869   50.2226 H   0  0  0  0  0  0  0  0  0  0  0  0
   56.9299   29.6000   51.4156 H   0  0  0  0  0  0  0  0  0  0  0  0
   55.8230   31.2760   52.8977 H   0  0  0  0  0  0  0  0  0  0  0  0
   56.8200   33.5500   53.1706 H   0  0  0  0  0  0  0  0  0  0  0  0
   58.9400   34.1386   51.9952 H   0  0  0  0  0  0  0  0  0  0  0  0
   59.4522   29.1990   49.1996 H   0  0  0  0  0  0  0  0  0  0  0  0
   58.0357   27.5352   47.9970 H   0  0  0  0  0  0  0  0  0  0  0  0
  1  2  1  0
  2  3  2  0
  2  4  2  0
  2  5  1  0
  5  6  2  0
  6  7  1  0
  7  8  2  0
  8  9  1  0
  9 10  2  0
 10 11  1  0
 11 12  1  0
 12 13  2  0
 12 14  2  0
 12 15  1  0
 15 16  2  0
 16 17  1  0
 17 18  2  0
 18 19  1  0
 19 20  2  0
 19 21  2  0
 19 22  1  0
 22 23  1  0
 23 24  1  0
 24 25  2  0
 25 26  1  0
 26 27  2  0
 27 28  1  0
 28 29  2  0
 22 30  1  0
 30 31  1  0
 31 32  2  0
 32 33  1  0
 33 34  2  0
 34 35  1  0
 35 36  2  0
 18 37  1  0
 37 38  2  0
 10  5  1  0
 38 15  1  0
 29 24  1  0
 36 31  1  0
  1 39  1  0
  1 40  1  0
  6 41  1  0
  7 42  1  0
  8 43  1  0
  9 44  1  0
 16 45  1  0
 17 46  1  0
 23 47  1  0
 23 48  1  0
 25 49  1  0
 26 50  1  0
 27 51  1  0
 28 52  1  0
 29 53  1  0
 30 54  1  0
 30 55  1  0
 32 56  1  0
 33 57  1  0
 34 58  1  0
 35 59  1  0
 36 60  1  0
 37 61  1  0
 38 62  1  0
M  CHG  1  11  -1
M  END
>  <UniqueID>  (65) 
60

>  <SMILES>  (65) 
NS(=O)(=O)c1ccccc1[N-]S(=O)(=O)c1ccc(S(=O)(=O)N(Cc2ccccc2)Cc2ccccc2)cc1

>  <Energy>  (65) 
72.61554259593552

>  <Genealogy>  (65) 
NS(=O)(=O)c1ccccc1[N-]S(=O)(=O)c1ccc(S(=O)(=O)N(Cc2ccccc2)Cc2ccccc2)cc1 (protonated)
NS(=O)(=O)c1ccccc1[N-]S(=O)(=O)c1ccc(S(=O)(=O)N(Cc2ccccc2)Cc2ccccc2)cc1 (3D coordinates assigned)
NS(=O)(=O)c1ccccc1[N-]S(=O)(=O)c1ccc(S(=O)(=O)N(Cc2ccccc2)Cc2ccccc2)cc1 (optimized conformer: 72.61554259593552 kcal/mol)

>  <smiles>  (65) 
NS(=O)(=O)c1ccccc1NS(=O)(=O)c1ccc(S(=O)(=O)N(Cc2ccccc2)Cc2ccccc2)cc1

>  <score_type>  (65) 
oracle

>  <origin>  (65) 
adg

>  <m_score__min__energy>  (65) 
-12.68

>  <m_primary>  (65) 
energy

$$$$
65:0
     RDKit          3D

 47 50  0  0  0  0  0  0  0  0999 V2000
   56.5836   32.1921   46.5670 H   0  0  0  0  0  0  0  0  0  0  0  0
   57.4840   32.2400   45.9370 C   0  0  0  0  0  0  0  0  0  0  0  0
   57.3410   31.9770   44.6300 C   0  0  0  0  0  0  0  0  0  0  0  0
   58.1120   33.0230   43.3840 S   0  0  0  0  0  0  0  0  0  0  0  0
   57.4770   31.8960   42.1390 C   0  0  0  0  0  0  0  0  0  0  0  0
   57.7460   32.0260   40.9160 O   0  0  0  0  0  0  0  0  0  0  0  0
   56.6560   30.8420   42.6150 N   0  0  0  0  0  0  0  0  0  0  0  0
   56.1830   30.1350   42.0090 H   0  0  0  0  0  0  0  0  0  0  0  0
   56.5520   30.8950   44.0250 C   0  0  0  0  0  0  0  0  0  0  0  0
   55.7980   30.1150   44.6640 O   0  0  0  0  0  0  0  0  0  0  0  0
   58.7590   32.5890   46.5940 C   0  0  0  0  0  0  0  0  0  0  0  0
   59.4300   31.6220   47.3530 C   0  0  0  0  0  0  0  0  0  0  0  0
   59.0225   30.6027   47.4240 H   0  0  0  0  0  0  0  0  0  0  0  0
   60.6150   31.9450   48.0210 C   0  0  0  0  0  0  0  0  0  0  0  0
   61.1467   31.1722   48.5955 H   0  0  0  0  0  0  0  0  0  0  0  0
   61.1310   33.2510   47.9630 C   0  0  0  0  0  0  0  0  0  0  0  0
   62.3580   33.5810   48.6420 N   0  0  0  0  0  0  0  0  0  0  0  0
   63.6590   33.2330   48.0510 C   0  0  0  0  0  0  0  0  0  0  0  0
   63.4961   32.6855   47.1109 H   0  0  0  0  0  0  0  0  0  0  0  0
   64.2225   34.1571   47.8550 H   0  0  0  0  0  0  0  0  0  0  0  0
   64.4630   32.3520   49.0180 C   0  0  0  0  0  0  0  0  0  0  0  0
   64.0928   31.3189   48.9433 H   0  0  0  0  0  0  0  0  0  0  0  0
   65.5226   32.4262   48.7321 H   0  0  0  0  0  0  0  0  0  0  0  0
   64.3420   32.8170   50.4930 C   0  0  0  0  0  0  0  0  0  0  0  0
   63.6520   32.0978   50.9585 H   0  0  0  0  0  0  0  0  0  0  0  0
   65.5880   32.7310   51.2000 O   0  0  0  0  0  0  0  0  0  0  0  0
   66.6420   33.6640   51.2270 C   0  0  0  0  0  0  0  0  0  0  0  0
   66.6090   34.8600   51.9760 C   0  0  0  0  0  0  0  0  0  0  0  0
   65.7234   35.1038   52.5812 H   0  0  0  0  0  0  0  0  0  0  0  0
   67.6990   35.7360   51.9510 C   0  0  0  0  0  0  0  0  0  0  0  0
   67.6682   36.6656   52.5382 H   0  0  0  0  0  0  0  0  0  0  0  0
   68.8270   35.4350   51.1830 C   0  0  0  0  0  0  0  0  0  0  0  0
   69.6835   36.1251   51.1679 H   0  0  0  0  0  0  0  0  0  0  0  0
   68.8650   34.2570   50.4350 C   0  0  0  0  0  0  0  0  0  0  0  0
   69.7515   34.0193   49.8286 H   0  0  0  0  0  0  0  0  0  0  0  0
   67.7770   33.3790   50.4560 C   0  0  0  0  0  0  0  0  0  0  0  0
   67.8124   32.4546   49.8609 H   0  0  0  0  0  0  0  0  0  0  0  0
   63.6740   34.1960   50.6660 C   0  0  0  0  0  0  0  0  0  0  0  0
   63.5379   34.4013   51.7381 H   0  0  0  0  0  0  0  0  0  0  0  0
   64.3179   34.9647   50.2138 H   0  0  0  0  0  0  0  0  0  0  0  0
   62.3050   34.2170   49.9680 C   0  0  0  0  0  0  0  0  0  0  0  0
   61.5783   33.6773   50.5930 H   0  0  0  0  0  0  0  0  0  0  0  0
   62.0066   35.2670   49.8320 H   0  0  0  0  0  0  0  0  0  0  0  0
   60.4420   34.2250   47.2220 C   0  0  0  0  0  0  0  0  0  0  0  0
   60.8369   35.2502   47.1676 H   0  0  0  0  0  0  0  0  0  0  0  0
   59.2580   33.9010   46.5530 C   0  0  0  0  0  0  0  0  0  0  0  0
   58.7153   34.6765   45.9925 H   0  0  0  0  0  0  0  0  0  0  0  0
  1  2  1  0
  2  3  2  0
  3  4  1  0
  4  5  1  0
  5  6  2  0
  5  7  1  0
  7  8  1  0
  7  9  1  0
  9 10  2  0
  2 11  1  0
 11 12  2  0
 12 13  1  0
 12 14  1  0
 14 15  1  0
 14 16  2  0
 16 17  1  0
 17 18  1  0
 18 19  1  0
 18 20  1  0
 18 21  1  0
 21 22  1  0
 21 23  1  0
 21 24  1  0
 24 25  1  0
 24 26  1  0
 26 27  1  0
 27 28  2  0
 28 29  1  0
 28 30  1  0
 30 31  1  0
 30 32  2  0
 32 33  1  0
 32 34  1  0
 34 35  1  0
 34 36  2  0
 36 37  1  0
 24 38  1  0
 38 39  1  0
 38 40  1  0
 38 41  1  0
 41 42  1  0
 41 43  1  0
 16 44  1  0
 44 45  1  0
 44 46  2  0
 46 47  1  0
  9  3  1  0
 46 11  1  0
 41 17  1  0
 36 27  1  0
M  END
>  <UniqueID>  (66) 
61

>  <SMILES>  (66) 
O=C1NC(=O)/C(=C\c2ccc(N3CCC(Oc4ccccc4)CC3)cc2)S1

>  <Energy>  (66) 
86.71143083351386

>  <Genealogy>  (66) 
O=C1NC(=O)/C(=C\c2ccc(N3CCC(Oc4ccccc4)CC3)cc2)S1 (cis-trans isomerization)
O=C1NC(=O)/C(=C\c2ccc(N3CCC(Oc4ccccc4)CC3)cc2)S1 (3D coordinates assigned)
O=C1NC(=O)/C(=C\c2ccc(N3CCC(Oc4ccccc4)CC3)cc2)S1 (nonaromatic ring conformer: 86.71143083351386 kcal/mol)

>  <smiles>  (66) 
O=C1NC(=O)C(=Cc2ccc(N3CCC(Oc4ccccc4)CC3)cc2)S1

>  <score_type>  (66) 
oracle

>  <origin>  (66) 
adg

>  <m_score__min__energy>  (66) 
-8.3599999999999994

>  <m_primary>  (66) 
energy

$$$$
66:0
     RDKit          3D

 39 40  0  0  0  0  0  0  0  0999 V2000
   58.7340   34.4820   45.2420 C   0  0  0  0  0  0  0  0  0  0  0  0
   57.8510   33.3060   44.8570 C   0  0  0  0  0  0  0  0  0  0  0  0
   58.3930   32.6590   43.7100 O   0  0  0  0  0  0  0  0  0  0  0  0
   57.7150   31.6470   43.0250 C   0  0  0  0  0  0  0  0  0  0  0  0
   57.6070   31.6830   41.7690 O   0  0  0  0  0  0  0  0  0  0  0  0
   57.1240   30.5330   43.7780 C   0  0  0  0  0  0  0  0  0  0  0  0
   55.8200   30.4500   44.2230 C   0  0  0  0  0  0  0  0  0  0  0  0
   55.6370   29.2860   44.8730 N   0  0  0  0  0  0  0  0  0  0  0  0
   56.8130   28.6260   44.8490 C   0  0  0  0  0  0  0  0  0  0  0  0
   57.0100   27.2960   45.4620 C   0  0  0  0  0  0  0  0  0  0  0  0
   56.0560   26.7680   46.0950 O   0  0  0  0  0  0  0  0  0  0  0  0
   58.2610   26.6000   45.3500 N   0  0  0  0  0  0  0  0  0  0  0  0
   58.4390   25.2650   45.9200 C   0  0  0  0  0  0  0  0  0  0  0  0
   57.8020   24.2180   45.0370 C   0  0  0  0  0  0  0  0  0  0  0  0
   56.5030   24.4260   44.5500 C   0  0  0  0  0  0  0  0  0  0  0  0
   55.8830   23.4610   43.7570 C   0  0  0  0  0  0  0  0  0  0  0  0
   56.5650   22.2750   43.4590 C   0  0  0  0  0  0  0  0  0  0  0  0
   56.0190   21.3600   42.7230 N   0  0  0  0  0  0  0  0  0  0  0  0
   57.8160   22.0780   43.9510 N   0  0  0  0  0  0  0  0  0  0  0  0
   58.4490   22.9970   44.7330 C   0  0  0  0  0  0  0  0  0  0  0  0
   59.8300   22.6850   45.2310 C   0  0  0  0  0  0  0  0  0  0  0  0
   57.7650   29.3740   44.1730 C   0  0  0  0  0  0  0  0  0  0  0  0
   58.7893   34.5556   46.3381 H   0  0  0  0  0  0  0  0  0  0  0  0
   59.7441   34.3314   44.8332 H   0  0  0  0  0  0  0  0  0  0  0  0
   58.3076   35.4100   44.8332 H   0  0  0  0  0  0  0  0  0  0  0  0
   57.8059   32.5925   45.6930 H   0  0  0  0  0  0  0  0  0  0  0  0
   56.8379   33.6685   44.6282 H   0  0  0  0  0  0  0  0  0  0  0  0
   55.0479   31.2184   44.0696 H   0  0  0  0  0  0  0  0  0  0  0  0
   54.7450   28.9640   45.3100 H   0  0  0  0  0  0  0  0  0  0  0  0
   59.0620   27.0520   44.8550 H   0  0  0  0  0  0  0  0  0  0  0  0
   59.5143   25.0528   46.0136 H   0  0  0  0  0  0  0  0  0  0  0  0
   57.9566   25.2352   46.9081 H   0  0  0  0  0  0  0  0  0  0  0  0
   55.9700   25.3564   44.7953 H   0  0  0  0  0  0  0  0  0  0  0  0
   54.8676   23.6299   43.3692 H   0  0  0  0  0  0  0  0  0  0  0  0
   56.4060   20.3920   42.6520 H   0  0  0  0  0  0  0  0  0  0  0  0
   59.8317   22.6846   46.3310 H   0  0  0  0  0  0  0  0  0  0  0  0
   60.1373   21.6948   44.8635 H   0  0  0  0  0  0  0  0  0  0  0  0
   60.5331   23.4469   44.8635 H   0  0  0  0  0  0  0  0  0  0  0  0
   58.8146   29.1011   43.9890 H   0  0  0  0  0  0  0  0  0  0  0  0
  1  2  1  0
  2  3  1  0
  3  4  1  0
  4  5  2  0
  4  6  1  0
  6  7  2  0
  7  8  1  0
  8  9  1  0
  9 10  1  0
 10 11  2  0
 10 12  1  0
 12 13  1  0
 13 14  1  0
 14 15  1  0
 15 16  2  0
 16 17  1  0
 17 18  2  3
 17 19  1  0
 19 20  1  0
 20 21  1  0
  9 22  2  0
 22  6  1  0
 20 14  2  0
  1 23  1  0
  1 24  1  0
  1 25  1  0
  2 26  1  0
  2 27  1  0
  7 28  1  0
  8 29  1  0
 12 30  1  0
 13 31  1  0
 13 32  1  0
 15 33  1  0
 16 34  1  0
 18 35  1  0
 21 36  1  0
 21 37  1  0
 21 38  1  0
 22 39  1  0
M  CHG  1  19  -1
M  END
>  <UniqueID>  (67) 
62

>  <SMILES>  (67) 
CCOC(=O)c1c[nH]c(C(=O)NCc2ccc(=N)[n-]c2C)c1

>  <Energy>  (67) 
57.069107625616944

>  <Genealogy>  (67) 
CCOC(=O)c1c[nH]c(C(=O)NCc2ccc(=N)[n-]c2C)c1 (protonated)
CCOC(=O)c1c[nH]c(C(=O)NCc2ccc(=N)[n-]c2C)c1 (3D coordinates assigned)
CCOC(=O)c1c[nH]c(C(=O)NCc2ccc(=N)[n-]c2C)c1 (optimized conformer: 57.069107625616944 kcal/mol)

>  <smiles>  (67) 
CCOC(=O)c1c[nH]c(C(=O)NCc2ccc(=N)[nH]c2C)c1

>  <score_type>  (67) 
oracle

>  <origin>  (67) 
adg

>  <m_score__min__energy>  (67) 
-8.6699999999999999

>  <m_primary>  (67) 
energy

$$$$
67:0
     RDKit          3D

 35 36  0  0  0  0  0  0  0  0999 V2000
   56.4630   24.4290   44.5630 C   0  0  0  0  0  0  0  0  0  0  0  0
   55.6250   24.8170   46.0810 S   0  0  0  0  0  0  0  0  0  0  0  0
   54.1810   24.4200   45.9610 O   0  0  0  0  0  0  0  0  0  0  0  0
   56.2720   24.0540   47.2030 O   0  0  0  0  0  0  0  0  0  0  0  0
   55.7350   26.5210   46.3630 N   0  0  0  0  0  0  0  0  0  0  0  0
   56.7670   27.3240   45.7870 C   0  0  0  0  0  0  0  0  0  0  0  0
   58.1000   26.9220   45.9250 C   0  0  0  0  0  0  0  0  0  0  0  0
   59.1290   27.7080   45.4040 C   0  0  0  0  0  0  0  0  0  0  0  0
   58.8340   28.9090   44.7550 C   0  0  0  0  0  0  0  0  0  0  0  0
   57.5030   29.3310   44.6190 C   0  0  0  0  0  0  0  0  0  0  0  0
   57.1350   30.8520   43.8010 S   0  0  0  0  0  0  0  0  0  0  0  0
   56.6830   30.5460   42.4010 O   0  0  0  0  0  0  0  0  0  0  0  0
   56.0240   31.5750   44.5110 O   0  0  0  0  0  0  0  0  0  0  0  0
   58.5510   31.8630   43.7310 N   0  0  0  0  0  0  0  0  0  0  0  0
   58.2390   33.2480   44.0890 C   0  0  0  0  0  0  0  0  0  0  0  0
   58.5680   33.5200   45.5320 C   0  0  0  0  0  0  0  0  0  0  0  0
   58.1790   32.6120   46.5270 C   0  0  0  0  0  0  0  0  0  0  0  0
   58.4910   32.8780   47.8620 C   0  0  0  0  0  0  0  0  0  0  0  0
   59.1610   34.0150   48.1920 N   0  0  0  0  0  0  0  0  0  0  0  0
   59.5510   34.9110   47.2480 C   0  0  0  0  0  0  0  0  0  0  0  0
   59.2700   34.6770   45.9010 C   0  0  0  0  0  0  0  0  0  0  0  0
   56.4670   28.5400   45.1460 C   0  0  0  0  0  0  0  0  0  0  0  0
   55.1480   28.9700   45.0550 O   0  0  0  0  0  0  0  0  0  0  0  0
   57.4400   23.9767   44.7888 H   0  0  0  0  0  0  0  0  0  0  0  0
   55.8566   23.7200   43.9802 H   0  0  0  0  0  0  0  0  0  0  0  0
   56.6113   25.3501   43.9802 H   0  0  0  0  0  0  0  0  0  0  0  0
   58.3379   25.9829   46.4461 H   0  0  0  0  0  0  0  0  0  0  0  0
   60.1744   27.3809   45.5047 H   0  0  0  0  0  0  0  0  0  0  0  0
   59.6486   29.5266   44.3488 H   0  0  0  0  0  0  0  0  0  0  0  0
   58.8272   33.9252   43.4523 H   0  0  0  0  0  0  0  0  0  0  0  0
   57.1622   33.4146   43.9380 H   0  0  0  0  0  0  0  0  0  0  0  0
   57.6318   31.6964   46.2580 H   0  0  0  0  0  0  0  0  0  0  0  0
   58.1946   32.1673   48.6476 H   0  0  0  0  0  0  0  0  0  0  0  0
   60.0894   35.8228   47.5460 H   0  0  0  0  0  0  0  0  0  0  0  0
   59.5967   35.3948   45.1342 H   0  0  0  0  0  0  0  0  0  0  0  0
  1  2  1  0
  2  3  2  0
  2  4  2  0
  2  5  1  0
  5  6  1  0
  6  7  2  0
  7  8  1  0
  8  9  2  0
  9 10  1  0
 10 11  1  0
 11 12  2  0
 11 13  2  0
 11 14  1  0
 14 15  1  0
 15 16  1  0
 16 17  2  0
 17 18  1  0
 18 19  2  0
 19 20  1  0
 20 21  2  0
 10 22  2  0
 22 23  1  0
 22  6  1  0
 21 16  1  0
  1 24  1  0
  1 25  1  0
  1 26  1  0
  7 27  1  0
  8 28  1  0
  9 29  1  0
 15 30  1  0
 15 31  1  0
 17 32  1  0
 18 33  1  0
 20 34  1  0
 21 35  1  0
M  CHG  3   5  -1  14  -1  23  -1
M  END
>  <UniqueID>  (68) 
63

>  <SMILES>  (68) 
CS(=O)(=O)[N-]c1cccc(S(=O)(=O)[N-]Cc2ccncc2)c1[O-]

>  <Energy>  (68) 
37.81409525144224

>  <Genealogy>  (68) 
CS(=O)(=O)[N-]c1cccc(S(=O)(=O)[N-]Cc2ccncc2)c1[O-] (protonated)
CS(=O)(=O)[N-]c1cccc(S(=O)(=O)[N-]Cc2ccncc2)c1[O-] (3D coordinates assigned)
CS(=O)(=O)[N-]c1cccc(S(=O)(=O)[N-]Cc2ccncc2)c1[O-] (optimized conformer: 37.81409525144224 kcal/mol)

>  <smiles>  (68) 
CS(=O)(=O)Nc1cccc(S(=O)(=O)NCc2ccncc2)c1O

>  <score_type>  (68) 
oracle

>  <origin>  (68) 
adg

>  <m_score__min__energy>  (68) 
-15.4

>  <m_primary>  (68) 
energy

$$$$
68:0
     RDKit          3D

 57 60  0  0  0  0  0  0  0  0999 V2000
   61.4580   33.8450   46.3500 C   0  0  0  0  0  0  0  0  0  0  0  0
   60.1070   34.3270   45.8300 C   0  0  0  0  0  0  0  0  0  0  0  0
   59.0760   34.2050   46.8850 N   0  0  0  0  0  0  0  0  0  0  0  0
   57.6990   34.2710   46.3400 C   0  0  0  0  0  0  0  0  0  0  0  0
   57.3680   33.0820   45.4120 C   0  0  0  0  0  0  0  0  0  0  0  0
   57.8430   31.7800   45.9990 C   0  0  0  0  0  0  0  0  0  0  0  0
   58.7570   31.7650   47.0430 C   0  0  0  0  0  0  0  0  0  0  0  0
   59.0580   30.1810   47.5120 S   0  0  0  0  0  0  0  0  0  0  0  0
   58.0720   29.4860   46.3390 C   0  0  0  0  0  0  0  0  0  0  0  0
   57.9260   28.0700   46.1760 N   0  0  0  0  0  0  0  0  0  0  0  0
   58.5860   27.3400   45.1300 C   0  0  0  0  0  0  0  0  0  0  0  0
   59.5230   27.8860   44.4840 O   0  0  0  0  0  0  0  0  0  0  0  0
   58.2000   25.9430   44.8150 C   0  0  0  0  0  0  0  0  0  0  0  0
   58.6560   24.8840   45.6210 C   0  0  0  0  0  0  0  0  0  0  0  0
   58.3060   23.5640   45.3240 C   0  0  0  0  0  0  0  0  0  0  0  0
   57.5070   23.2770   44.2100 C   0  0  0  0  0  0  0  0  0  0  0  0
   57.0850   21.6070   43.8230 S   0  0  0  0  0  0  0  0  0  0  0  0
   55.8990   21.5980   42.8990 O   0  0  0  0  0  0  0  0  0  0  0  0
   58.2370   20.9580   43.1070 O   0  0  0  0  0  0  0  0  0  0  0  0
   56.7020   20.6870   45.2600 N   0  0  0  0  0  0  0  0  0  0  0  0
   57.9350   20.3340   45.9890 C   0  0  0  0  0  0  0  0  0  0  0  0
   57.6180   19.9970   47.4560 C   0  0  0  0  0  0  0  0  0  0  0  0
   57.0170   21.0640   48.1800 O   0  0  0  0  0  0  0  0  0  0  0  0
   56.3490   22.0110   47.3560 C   0  0  0  0  0  0  0  0  0  0  0  0
   55.7070   21.3820   46.1060 C   0  0  0  0  0  0  0  0  0  0  0  0
   57.0490   24.3270   43.4040 C   0  0  0  0  0  0  0  0  0  0  0  0
   57.3970   25.6480   43.6990 C   0  0  0  0  0  0  0  0  0  0  0  0
   57.4540   30.4880   45.5770 C   0  0  0  0  0  0  0  0  0  0  0  0
   56.4490   30.2250   44.5240 C   0  0  0  0  0  0  0  0  0  0  0  0
   55.3600   29.3380   44.7660 N   0  0  0  0  0  0  0  0  0  0  0  0
   56.5480   30.7870   43.4010 O   0  0  0  0  0  0  0  0  0  0  0  0
   59.2630   32.9990   47.7270 C   0  0  0  0  0  0  0  0  0  0  0  0
   61.4498   33.8479   47.4500 H   0  0  0  0  0  0  0  0  0  0  0  0
   61.6473   32.8239   45.9875 H   0  0  0  0  0  0  0  0  0  0  0  0
   62.2509   34.5157   45.9875 H   0  0  0  0  0  0  0  0  0  0  0  0
   60.1907   35.3805   45.5248 H   0  0  0  0  0  0  0  0  0  0  0  0
   59.8133   33.7072   44.9700 H   0  0  0  0  0  0  0  0  0  0  0  0
   56.9879   34.2710   47.1793 H   0  0  0  0  0  0  0  0  0  0  0  0
   57.6221   35.1909   45.7418 H   0  0  0  0  0  0  0  0  0  0  0  0
   56.2787   33.0333   45.2671 H   0  0  0  0  0  0  0  0  0  0  0  0
   57.8823   33.2377   44.4522 H   0  0  0  0  0  0  0  0  0  0  0  0
   57.5230   27.5350   46.9760 H   0  0  0  0  0  0  0  0  0  0  0  0
   59.2932   25.0966   46.4921 H   0  0  0  0  0  0  0  0  0  0  0  0
   58.6599   22.7460   45.9686 H   0  0  0  0  0  0  0  0  0  0  0  0
   58.4009   19.4604   45.5098 H   0  0  0  0  0  0  0  0  0  0  0  0
   58.6214   21.1932   45.9625 H   0  0  0  0  0  0  0  0  0  0  0  0
   56.9309   19.1381   47.4725 H   0  0  0  0  0  0  0  0  0  0  0  0
   58.5786   19.7819   47.9469 H   0  0  0  0  0  0  0  0  0  0  0  0
   55.5587   22.4944   47.9491 H   0  0  0  0  0  0  0  0  0  0  0  0
   57.1040   22.7313   47.0081 H   0  0  0  0  0  0  0  0  0  0  0  0
   54.9445   20.6565   46.4257 H   0  0  0  0  0  0  0  0  0  0  0  0
   55.2616   22.1919   45.5096 H   0  0  0  0  0  0  0  0  0  0  0  0
   56.4118   24.1106   42.5339 H   0  0  0  0  0  0  0  0  0  0  0  0
   57.0399   26.4635   43.0530 H   0  0  0  0  0  0  0  0  0  0  0  0
   54.7670   29.4370   45.6200 H   0  0  0  0  0  0  0  0  0  0  0  0
   58.7148   33.1342   48.6710 H   0  0  0  0  0  0  0  0  0  0  0  0
   60.3398   32.8725   47.9128 H   0  0  0  0  0  0  0  0  0  0  0  0
  1  2  1  0
  2  3  1  0
  3  4  1  0
  4  5  1  0
  5  6  1  0
  6  7  2  0
  7  8  1  0
  8  9  1  0
  9 10  1  0
 10 11  1  0
 11 12  2  0
 11 13  1  0
 13 14  2  0
 14 15  1  0
 15 16  2  0
 16 17  1  0
 17 18  2  0
 17 19  2  0
 17 20  1  0
 20 21  1  0
 21 22  1  0
 22 23  1  0
 23 24  1  0
 24 25  1  0
 16 26  1  0
 26 27  2  0
  9 28  2  0
 28 29  1  0
 29 30  1  0
 29 31  2  0
  7 32  1  0
 32  3  1  0
 28  6  1  0
 27 13  1  0
 25 20  1  0
  1 33  1  0
  1 34  1  0
  1 35  1  0
  2 36  1  0
  2 37  1  0
  4 38  1  0
  4 39  1  0
  5 40  1  0
  5 41  1  0
 10 42  1  0
 14 43  1  0
 15 44  1  0
 21 45  1  0
 21 46  1  0
 22 47  1  0
 22 48  1  0
 24 49  1  0
 24 50  1  0
 25 51  1  0
 25 52  1  0
 26 53  1  0
 27 54  1  0
 30 55  1  0
 32 56  1  0
 32 57  1  0
M  CHG  1  30  -1
M  END
>  <UniqueID>  (69) 
64

>  <SMILES>  (69) 
CCN1CCc2c(sc(NC(=O)c3ccc(S(=O)(=O)N4CCOCC4)cc3)c2C([NH-])=O)C1

>  <Energy>  (69) 
110.49461692320905

>  <Genealogy>  (69) 
CCN1CCc2c(sc(NC(=O)c3ccc(S(=O)(=O)N4CCOCC4)cc3)c2C([NH-])=O)C1 (protonated)
CCN1CCc2c(sc(NC(=O)c3ccc(S(=O)(=O)N4CCOCC4)cc3)c2C([NH-])=O)C1 (3D coordinates assigned)
CCN1CCc2c(sc(NC(=O)c3ccc(S(=O)(=O)N4CCOCC4)cc3)c2C([NH-])=O)C1 (nonaromatic ring conformer: 110.49461692320905 kcal/mol)

>  <smiles>  (69) 
CCN1CCc2c(sc(NC(=O)c3ccc(S(=O)(=O)N4CCOCC4)cc3)c2C(N)=O)C1

>  <score_type>  (69) 
oracle

>  <origin>  (69) 
adg

>  <m_score__min__energy>  (69) 
-11.779999999999999

>  <m_primary>  (69) 
energy

$$$$
69:0
     RDKit          3D

 39 41  0  0  0  0  0  0  0  0999 V2000
   55.2110   29.5930   44.8620 O   0  0  0  0  0  0  0  0  0  0  0  0
   56.4560   29.4290   44.9680 C   0  0  0  0  0  0  0  0  0  0  0  0
   57.0310   28.1400   44.7130 N   0  0  0  0  0  0  0  0  0  0  0  0
   57.2430   27.1530   45.5430 C   0  0  0  0  0  0  0  0  0  0  0  0
   58.5360   26.8650   45.8580 N   0  0  0  0  0  0  0  0  0  0  0  0
   58.8790   25.8550   46.7010 C   0  0  0  0  0  0  0  0  0  0  0  0
   57.8890   25.0690   47.2860 C   0  0  0  0  0  0  0  0  0  0  0  0
   56.5510   25.3480   47.0130 C   0  0  0  0  0  0  0  0  0  0  0  0
   56.2100   26.4000   46.1580 C   0  0  0  0  0  0  0  0  0  0  0  0
   54.8630   26.7000   45.9880 O   0  0  0  0  0  0  0  0  0  0  0  0
   57.3330   30.5930   45.2390 C   0  0  0  0  0  0  0  0  0  0  0  0
   57.0890   31.8330   44.6180 C   0  0  0  0  0  0  0  0  0  0  0  0
   57.9150   32.9300   44.8750 C   0  0  0  0  0  0  0  0  0  0  0  0
   58.9980   32.8080   45.7550 C   0  0  0  0  0  0  0  0  0  0  0  0
   60.0430   34.1870   46.0830 S   0  0  0  0  0  0  0  0  0  0  0  0
   61.4690   33.8470   45.7450 O   0  0  0  0  0  0  0  0  0  0  0  0
   59.6010   35.3460   45.2370 O   0  0  0  0  0  0  0  0  0  0  0  0
   59.9370   34.6270   47.7610 N   0  0  0  0  0  0  0  0  0  0  0  0
   60.2070   33.4580   48.5990 C   0  0  0  0  0  0  0  0  0  0  0  0
   61.6830   33.2560   48.7130 C   0  0  0  0  0  0  0  0  0  0  0  0
   62.3100   32.0780   49.0650 C   0  0  0  0  0  0  0  0  0  0  0  0
   63.6580   32.3650   49.0700 C   0  0  0  0  0  0  0  0  0  0  0  0
   63.7680   33.6980   48.7270 C   0  0  0  0  0  0  0  0  0  0  0  0
   62.5730   34.2030   48.5240 O   0  0  0  0  0  0  0  0  0  0  0  0
   59.2420   31.5820   46.3840 C   0  0  0  0  0  0  0  0  0  0  0  0
   58.4180   30.4810   46.1290 C   0  0  0  0  0  0  0  0  0  0  0  0
   59.9387   25.6585   46.9211 H   0  0  0  0  0  0  0  0  0  0  0  0
   58.1597   24.2387   47.9549 H   0  0  0  0  0  0  0  0  0  0  0  0
   55.7597   24.7375   47.4725 H   0  0  0  0  0  0  0  0  0  0  0  0
   56.2413   31.9388   43.9250 H   0  0  0  0  0  0  0  0  0  0  0  0
   57.7141   33.8937   44.3842 H   0  0  0  0  0  0  0  0  0  0  0  0
   60.6860   35.3350   47.9390 H   0  0  0  0  0  0  0  0  0  0  0  0
   59.7806   33.6184   49.6002 H   0  0  0  0  0  0  0  0  0  0  0  0
   59.7495   32.5673   48.1436 H   0  0  0  0  0  0  0  0  0  0  0  0
   61.8340   31.1130   49.2935 H   0  0  0  0  0  0  0  0  0  0  0  0
   64.4804   31.6719   49.3007 H   0  0  0  0  0  0  0  0  0  0  0  0
   64.7136   34.2529   48.6374 H   0  0  0  0  0  0  0  0  0  0  0  0
   60.0861   31.4837   47.0825 H   0  0  0  0  0  0  0  0  0  0  0  0
   58.6191   29.5211   46.6272 H   0  0  0  0  0  0  0  0  0  0  0  0
  1  2  2  0
  2  3  1  0
  3  4  2  3
  4  5  1  0
  5  6  1  0
  6  7  2  0
  7  8  1  0
  8  9  2  0
  9 10  1  0
  2 11  1  0
 11 12  2  0
 12 13  1  0
 13 14  2  0
 14 15  1  0
 15 16  2  0
 15 17  2  0
 15 18  1  0
 18 19  1  0
 19 20  1  0
 20 21  2  0
 21 22  1  0
 22 23  2  0
 23 24  1  0
 14 25  1  0
 25 26  2  0
  9  4  1  0
 26 11  1  0
 24 20  1  0
  6 27  1  0
  7 28  1  0
  8 29  1  0
 12 30  1  0
 13 31  1  0
 18 32  1  0
 19 33  1  0
 19 34  1  0
 21 35  1  0
 22 36  1  0
 23 37  1  0
 25 38  1  0
 26 39  1  0
M  CHG  2   5  -1  10  -1
M  END
>  <UniqueID>  (70) 
65

>  <SMILES>  (70) 
O=C(N=c1[n-]cccc1[O-])c1ccc(S(=O)(=O)NCc2ccco2)cc1

>  <Energy>  (70) 
77.43974634707288

>  <Genealogy>  (70) 
O=C(N=c1[n-]cccc1[O-])c1ccc(S(=O)(=O)NCc2ccco2)cc1 (protonated)
O=C(N=c1[n-]cccc1[O-])c1ccc(S(=O)(=O)NCc2ccco2)cc1 (3D coordinates assigned)
O=C(N=c1[n-]cccc1[O-])c1ccc(S(=O)(=O)NCc2ccco2)cc1 (optimized conformer: 77.43974634707288 kcal/mol)

>  <smiles>  (70) 
O=C(N=c1[nH]cccc1O)c1ccc(S(=O)(=O)NCc2ccco2)cc1

>  <score_type>  (70) 
oracle

>  <origin>  (70) 
adg

>  <m_score__min__energy>  (70) 
-13.289999999999999

>  <m_primary>  (70) 
energy

$$$$
70:0
     RDKit          3D

 51 54  0  0  0  0  0  0  0  0999 V2000
   57.0140   21.4280   42.7430 C   0  0  0  0  0  0  0  0  0  0  0  0
   55.8990   20.9850   43.5100 O   0  0  0  0  0  0  0  0  0  0  0  0
   55.9120   20.8190   44.9030 C   0  0  0  0  0  0  0  0  0  0  0  0
   56.1160   19.5330   45.4160 C   0  0  0  0  0  0  0  0  0  0  0  0
   56.1330   19.3140   46.7950 C   0  0  0  0  0  0  0  0  0  0  0  0
   55.9480   20.3810   47.6760 C   0  0  0  0  0  0  0  0  0  0  0  0
   55.7500   21.6790   47.1820 C   0  0  0  0  0  0  0  0  0  0  0  0
   55.5270   22.8200   48.1390 C   0  0  0  0  0  0  0  0  0  0  0  0
   55.8740   24.0890   47.5030 N   0  0  0  0  0  0  0  0  0  0  0  0
   57.1400   24.3030   46.8560 C   0  0  0  0  0  0  0  0  0  0  0  0
   57.9550   23.3450   46.7510 O   0  0  0  0  0  0  0  0  0  0  0  0
   57.5010   25.6260   46.2920 C   0  0  0  0  0  0  0  0  0  0  0  0
   58.8510   25.9480   46.0670 C   0  0  0  0  0  0  0  0  0  0  0  0
   59.2100   27.1910   45.5400 C   0  0  0  0  0  0  0  0  0  0  0  0
   58.2200   28.1420   45.2350 C   0  0  0  0  0  0  0  0  0  0  0  0
   58.5300   29.4070   44.7060 C   0  0  0  0  0  0  0  0  0  0  0  0
   59.7350   29.7110   44.4840 O   0  0  0  0  0  0  0  0  0  0  0  0
   57.5270   30.3070   44.4300 N   0  0  0  0  0  0  0  0  0  0  0  0
   57.8530   31.6510   43.9090 C   0  0  0  0  0  0  0  0  0  0  0  0
   58.2520   32.5700   45.0350 C   0  0  0  0  0  0  0  0  0  0  0  0
   58.1150   32.1580   46.3720 C   0  0  0  0  0  0  0  0  0  0  0  0
   58.5140   32.9990   47.4140 C   0  0  0  0  0  0  0  0  0  0  0  0
   59.0570   34.2560   47.1310 C   0  0  0  0  0  0  0  0  0  0  0  0
   59.4440   35.0710   48.1440 F   0  0  0  0  0  0  0  0  0  0  0  0
   59.1990   34.6730   45.8050 C   0  0  0  0  0  0  0  0  0  0  0  0
   58.8000   33.8340   44.7600 C   0  0  0  0  0  0  0  0  0  0  0  0
   56.2200   29.9650   44.6800 C   0  0  0  0  0  0  0  0  0  0  0  0
   55.2830   30.7730   44.4380 O   0  0  0  0  0  0  0  0  0  0  0  0
   55.9120   28.7450   45.1900 N   0  0  0  0  0  0  0  0  0  0  0  0
   56.8710   27.8310   45.4710 C   0  0  0  0  0  0  0  0  0  0  0  0
   56.5150   26.5850   45.9980 C   0  0  0  0  0  0  0  0  0  0  0  0
   55.7280   21.8950   45.7940 C   0  0  0  0  0  0  0  0  0  0  0  0
   57.8202   21.7483   43.4193 H   0  0  0  0  0  0  0  0  0  0  0  0
   57.3732   20.6043   42.1086 H   0  0  0  0  0  0  0  0  0  0  0  0
   56.7099   22.2736   42.1086 H   0  0  0  0  0  0  0  0  0  0  0  0
   56.2641   18.6880   44.7275 H   0  0  0  0  0  0  0  0  0  0  0  0
   56.2924   18.2990   47.1878 H   0  0  0  0  0  0  0  0  0  0  0  0
   55.9575   20.2033   48.7615 H   0  0  0  0  0  0  0  0  0  0  0  0
   54.4687   22.8413   48.4383 H   0  0  0  0  0  0  0  0  0  0  0  0
   56.1653   22.6760   49.0232 H   0  0  0  0  0  0  0  0  0  0  0  0
   55.1390   24.8280   47.4660 H   0  0  0  0  0  0  0  0  0  0  0  0
   59.6331   25.2132   46.3086 H   0  0  0  0  0  0  0  0  0  0  0  0
   60.2699   27.4264   45.3632 H   0  0  0  0  0  0  0  0  0  0  0  0
   58.6858   31.5704   43.1949 H   0  0  0  0  0  0  0  0  0  0  0  0
   56.9645   32.0646   43.4095 H   0  0  0  0  0  0  0  0  0  0  0  0
   57.6915   31.1685   46.5990 H   0  0  0  0  0  0  0  0  0  0  0  0
   58.4008   32.6718   48.4581 H   0  0  0  0  0  0  0  0  0  0  0  0
   59.6252   35.6625   45.5829 H   0  0  0  0  0  0  0  0  0  0  0  0
   58.9158   34.1653   43.7175 H   0  0  0  0  0  0  0  0  0  0  0  0
   55.4558   26.3535   46.1839 H   0  0  0  0  0  0  0  0  0  0  0  0
   55.5663   22.9095   45.4007 H   0  0  0  0  0  0  0  0  0  0  0  0
  1  2  1  0
  2  3  1  0
  3  4  2  0
  4  5  1  0
  5  6  2  0
  6  7  1  0
  7  8  1  0
  8  9  1  0
  9 10  1  0
 10 11  2  0
 10 12  1  0
 12 13  2  0
 13 14  1  0
 14 15  2  0
 15 16  1  0
 16 17  2  0
 16 18  1  0
 18 19  1  0
 19 20  1  0
 20 21  2  0
 21 22  1  0
 22 23  2  0
 23 24  1  0
 23 25  1  0
 25 26  2  0
 18 27  1  0
 27 28  2  0
 27 29  1  0
 29 30  1  0
 30 31  2  0
  7 32  2  0
 32  3  1  0
 31 12  1  0
 30 15  1  0
 26 20  1  0
  1 33  1  0
  1 34  1  0
  1 35  1  0
  4 36  1  0
  5 37  1  0
  6 38  1  0
  8 39  1  0
  8 40  1  0
  9 41  1  0
 13 42  1  0
 14 43  1  0
 19 44  1  0
 19 45  1  0
 21 46  1  0
 22 47  1  0
 25 48  1  0
 26 49  1  0
 31 50  1  0
 32 51  1  0
M  CHG  1  29  -1
M  END
>  <UniqueID>  (71) 
66

>  <SMILES>  (71) 
COc1cccc(CNC(=O)c2ccc3c(=O)n(Cc4ccc(F)cc4)c(=O)[n-]c3c2)c1

>  <Energy>  (71) 
62.930039353650905

>  <Genealogy>  (71) 
COc1cccc(CNC(=O)c2ccc3c(=O)n(Cc4ccc(F)cc4)c(=O)[n-]c3c2)c1 (protonated)
COc1cccc(CNC(=O)c2ccc3c(=O)n(Cc4ccc(F)cc4)c(=O)[n-]c3c2)c1 (3D coordinates assigned)
COc1cccc(CNC(=O)c2ccc3c(=O)n(Cc4ccc(F)cc4)c(=O)[n-]c3c2)c1 (optimized conformer: 62.930039353650905 kcal/mol)

>  <smiles>  (71) 
COc1cccc(CNC(=O)c2ccc3c(=O)n(Cc4ccc(F)cc4)c(=O)[nH]c3c2)c1

>  <score_type>  (71) 
oracle

>  <origin>  (71) 
adg

>  <m_score__min__energy>  (71) 
-10.33

>  <m_primary>  (71) 
energy

$$$$
71:0
     RDKit          3D

 37 39  0  0  0  0  0  0  0  0999 V2000
   55.8580   23.4220   48.1450 C   0  0  0  0  0  0  0  0  0  0  0  0
   55.7100   24.1030   46.9050 O   0  0  0  0  0  0  0  0  0  0  0  0
   56.5690   25.0870   46.3820 C   0  0  0  0  0  0  0  0  0  0  0  0
   57.9300   24.7640   46.3080 C   0  0  0  0  0  0  0  0  0  0  0  0
   58.3720   23.5180   46.7400 O   0  0  0  0  0  0  0  0  0  0  0  0
   58.8550   25.6760   45.8030 C   0  0  0  0  0  0  0  0  0  0  0  0
   58.4400   26.9320   45.3620 C   0  0  0  0  0  0  0  0  0  0  0  0
   59.3440   27.7790   44.8830 O   0  0  0  0  0  0  0  0  0  0  0  0
   59.0330   28.9920   44.4440 C   0  0  0  0  0  0  0  0  0  0  0  0
   57.7090   29.4460   44.4740 C   0  0  0  0  0  0  0  0  0  0  0  0
   57.3740   30.8150   43.9330 C   0  0  0  0  0  0  0  0  0  0  0  0
   57.9080   31.8850   44.8480 C   0  0  0  0  0  0  0  0  0  0  0  0
   58.0990   33.1910   44.3700 C   0  0  0  0  0  0  0  0  0  0  0  0
   58.5620   34.1950   45.2250 C   0  0  0  0  0  0  0  0  0  0  0  0
   58.8460   33.9050   46.5680 C   0  0  0  0  0  0  0  0  0  0  0  0
   59.3020   34.9920   47.4950 C   0  0  0  0  0  0  0  0  0  0  0  0
   58.6300   32.6070   47.0530 C   0  0  0  0  0  0  0  0  0  0  0  0
   58.1670   31.6020   46.1980 C   0  0  0  0  0  0  0  0  0  0  0  0
   56.7140   28.5800   44.9630 C   0  0  0  0  0  0  0  0  0  0  0  0
   55.5120   28.9620   44.9840 O   0  0  0  0  0  0  0  0  0  0  0  0
   57.0740   27.2930   45.4240 C   0  0  0  0  0  0  0  0  0  0  0  0
   56.1340   26.3620   45.9370 C   0  0  0  0  0  0  0  0  0  0  0  0
   54.7880   26.7070   46.0020 O   0  0  0  0  0  0  0  0  0  0  0  0
   55.7041   24.1299   48.9728 H   0  0  0  0  0  0  0  0  0  0  0  0
   55.1145   22.6140   48.2106 H   0  0  0  0  0  0  0  0  0  0  0  0
   56.8698   22.9955   48.2106 H   0  0  0  0  0  0  0  0  0  0  0  0
   59.9194   25.4032   45.7520 H   0  0  0  0  0  0  0  0  0  0  0  0
   59.8242   29.6481   44.0522 H   0  0  0  0  0  0  0  0  0  0  0  0
   57.8252   30.9316   42.9366 H   0  0  0  0  0  0  0  0  0  0  0  0
   56.2806   30.9150   43.8663 H   0  0  0  0  0  0  0  0  0  0  0  0
   57.8832   33.4254   43.3172 H   0  0  0  0  0  0  0  0  0  0  0  0
   58.7043   35.2168   44.8434 H   0  0  0  0  0  0  0  0  0  0  0  0
   59.1655   34.6666   48.5369 H   0  0  0  0  0  0  0  0  0  0  0  0
   60.3657   35.2059   47.3141 H   0  0  0  0  0  0  0  0  0  0  0  0
   58.7093   35.9008   47.3141 H   0  0  0  0  0  0  0  0  0  0  0  0
   58.8257   32.3784   48.1110 H   0  0  0  0  0  0  0  0  0  0  0  0
   58.0051   30.5852   46.5852 H   0  0  0  0  0  0  0  0  0  0  0  0
  1  2  1  0
  2  3  1  0
  3  4  2  0
  4  5  1  0
  4  6  1  0
  6  7  2  0
  7  8  1  0
  8  9  1  0
  9 10  2  0
 10 11  1  0
 11 12  1  0
 12 13  2  0
 13 14  1  0
 14 15  2  0
 15 16  1  0
 15 17  1  0
 17 18  2  0
 10 19  1  0
 19 20  2  0
 19 21  1  0
 21 22  2  0
 22 23  1  0
 22  3  1  0
 21  7  1  0
 18 12  1  0
  1 24  1  0
  1 25  1  0
  1 26  1  0
  6 27  1  0
  9 28  1  0
 11 29  1  0
 11 30  1  0
 13 31  1  0
 14 32  1  0
 16 33  1  0
 16 34  1  0
 16 35  1  0
 17 36  1  0
 18 37  1  0
M  CHG  2   5  -1  23  -1
M  END
>  <UniqueID>  (72) 
67

>  <SMILES>  (72) 
COc1c([O-])cc2occ(Cc3ccc(C)cc3)c(=O)c2c1[O-]

>  <Energy>  (72) 
48.23944310220394

>  <Genealogy>  (72) 
COc1c([O-])cc2occ(Cc3ccc(C)cc3)c(=O)c2c1[O-] (protonated)
COc1c([O-])cc2occ(Cc3ccc(C)cc3)c(=O)c2c1[O-] (3D coordinates assigned)
COc1c([O-])cc2occ(Cc3ccc(C)cc3)c(=O)c2c1[O-] (optimized conformer: 48.23944310220394 kcal/mol)

>  <smiles>  (72) 
COc1c(O)cc2occ(Cc3ccc(C)cc3)c(=O)c2c1O

>  <score_type>  (72) 
oracle

>  <origin>  (72) 
adg

>  <m_score__min__energy>  (72) 
-14.130000000000001

>  <m_primary>  (72) 
energy

$$$$
72:0
     RDKit          3D

 50 52  0  0  0  0  0  0  0  0999 V2000
   57.7740   23.8420   44.6440 C   0  0  0  0  0  0  0  0  0  0  0  0
   56.4450   23.9620   43.8790 C   0  0  0  0  0  0  0  0  0  0  0  0
   56.2590   22.7350   42.9760 C   0  0  0  0  0  0  0  0  0  0  0  0
   55.2390   24.1070   44.8410 C   0  0  0  0  0  0  0  0  0  0  0  0
   55.4870   25.1350   45.9180 C   0  0  0  0  0  0  0  0  0  0  0  0
   55.7250   24.7600   47.0960 O   0  0  0  0  0  0  0  0  0  0  0  0
   55.5190   26.5380   45.6220 N   0  0  0  0  0  0  0  0  0  0  0  0
   56.6360   27.4140   45.8230 C   0  0  0  0  0  0  0  0  0  0  0  0
   57.8880   26.9230   46.2770 C   0  0  0  0  0  0  0  0  0  0  0  0
   58.9820   27.7910   46.4280 C   0  0  0  0  0  0  0  0  0  0  0  0
   58.7980   29.1370   46.1170 C   0  0  0  0  0  0  0  0  0  0  0  0
   57.6070   29.6090   45.6570 C   0  0  0  0  0  0  0  0  0  0  0  0
   56.5030   28.7750   45.4840 C   0  0  0  0  0  0  0  0  0  0  0  0
   57.7900   31.0220   45.3660 C   0  0  0  0  0  0  0  0  0  0  0  0
   56.9160   31.7420   44.8100 O   0  0  0  0  0  0  0  0  0  0  0  0
   59.1150   31.4990   45.7130 N   0  0  1  0  0  0  0  0  0  0  0  0
   59.0550   32.4850   46.8290 C   0  0  1  0  0  0  0  0  0  0  0  0
   59.8900   32.0270   48.0570 C   0  0  0  0  0  0  0  0  0  0  0  0
   61.2540   32.6730   48.1030 C   0  0  0  0  0  0  0  0  0  0  0  0
   62.2170   32.3770   47.1240 C   0  0  0  0  0  0  0  0  0  0  0  0
   63.4750   32.9860   47.1680 C   0  0  0  0  0  0  0  0  0  0  0  0
   63.7800   33.8950   48.1860 C   0  0  0  0  0  0  0  0  0  0  0  0
   62.8260   34.1980   49.1600 C   0  0  0  0  0  0  0  0  0  0  0  0
   61.5650   33.5920   49.1200 C   0  0  0  0  0  0  0  0  0  0  0  0
   59.5510   33.8370   46.3660 C   0  0  0  0  0  0  0  0  0  0  0  0
   60.0770   33.9700   45.2290 O   0  0  0  0  0  0  0  0  0  0  0  0
   59.4460   34.9410   47.2050 O   0  0  0  0  0  0  0  0  0  0  0  0
   59.7340   30.2490   46.1070 C   0  0  0  0  0  0  0  0  0  0  0  0
   60.9760   30.1120   46.2750 O   0  0  0  0  0  0  0  0  0  0  0  0
   57.5771   23.8598   45.7261 H   0  0  0  0  0  0  0  0  0  0  0  0
   58.2669   22.8957   44.3765 H   0  0  0  0  0  0  0  0  0  0  0  0
   58.4284   24.6847   44.3765 H   0  0  0  0  0  0  0  0  0  0  0  0
   56.4862   24.8727   43.2634 H   0  0  0  0  0  0  0  0  0  0  0  0
   56.1231   21.8386   43.5989 H   0  0  0  0  0  0  0  0  0  0  0  0
   55.3723   22.8781   42.3410 H   0  0  0  0  0  0  0  0  0  0  0  0
   57.1483   22.6089   42.3410 H   0  0  0  0  0  0  0  0  0  0  0  0
   54.3563   24.4102   44.2588 H   0  0  0  0  0  0  0  0  0  0  0  0
   55.0812   23.1356   45.3323 H   0  0  0  0  0  0  0  0  0  0  0  0
   58.0024   25.8546   46.5124 H   0  0  0  0  0  0  0  0  0  0  0  0
   59.9552   27.4193   46.7813 H   0  0  0  0  0  0  0  0  0  0  0  0
   55.5534   29.1693   45.0932 H   0  0  0  0  0  0  0  0  0  0  0  0
   59.5930   31.8840   44.8640 H   0  0  0  0  0  0  0  0  0  0  0  0
   58.0015   32.5578   47.1369 H   0  0  0  0  0  0  0  0  0  0  0  0
   59.3432   32.2920   48.9739 H   0  0  0  0  0  0  0  0  0  0  0  0
   60.0379   30.9402   47.9737 H   0  0  0  0  0  0  0  0  0  0  0  0
   61.9808   31.6640   46.3204 H   0  0  0  0  0  0  0  0  0  0  0  0
   64.2263   32.7495   46.4002 H   0  0  0  0  0  0  0  0  0  0  0  0
   64.7710   34.3712   48.2196 H   0  0  0  0  0  0  0  0  0  0  0  0
   63.0660   34.9140   49.9598 H   0  0  0  0  0  0  0  0  0  0  0  0
   60.8150   33.8357   49.8869 H   0  0  0  0  0  0  0  0  0  0  0  0
  1  2  1  0
  2  3  1  0
  2  4  1  0
  4  5  1  0
  5  6  2  0
  5  7  1  0
  7  8  1  0
  8  9  2  0
  9 10  1  0
 10 11  2  0
 11 12  1  0
 12 13  2  0
 12 14  1  0
 14 15  2  0
 14 16  1  0
 16 17  1  0
 17 18  1  0
 18 19  1  0
 19 20  2  0
 20 21  1  0
 21 22  2  0
 22 23  1  0
 23 24  2  0
 17 25  1  0
 25 26  2  0
 25 27  1  0
 16 28  1  0
 28 29  2  0
 13  8  1  0
 24 19  1  0
 28 11  1  0
  1 30  1  0
  1 31  1  0
  1 32  1  0
  2 33  1  0
  3 34  1  0
  3 35  1  0
  3 36  1  0
  4 37  1  0
  4 38  1  0
  9 39  1  0
 10 40  1  0
 13 41  1  0
 16 42  1  6
 17 43  1  1
 18 44  1  0
 18 45  1  0
 20 46  1  0
 21 47  1  0
 22 48  1  0
 23 49  1  0
 24 50  1  0
M  CHG  3   7  -1  16   1  27  -1
M  END
>  <UniqueID>  (73) 
68

>  <SMILES>  (73) 
CC(C)CC(=O)[N-]c1ccc2c(c1)C(=O)[N@@H+]([C@@H](Cc1ccccc1)C(=O)[O-])C2=O

>  <Energy>  (73) 
81.24044146712083

>  <Genealogy>  (73) 
CC(C)CC(=O)[N-]c1ccc2c(c1)C(=O)[NH+](C(Cc1ccccc1)C(=O)[O-])C2=O (protonated)
CC(C)CC(=O)[N-]c1ccc2c(c1)C(=O)[N@@H+]([C@@H](Cc1ccccc1)C(=O)[O-])C2=O (chirality)
CC(C)CC(=O)[N-]c1ccc2c(c1)C(=O)[N@@H+]([C@@H](Cc1ccccc1)C(=O)[O-])C2=O (3D coordinates assigned)
CC(C)CC(=O)[N-]c1ccc2c(c1)C(=O)[N@@H+]([C@@H](Cc1ccccc1)C(=O)[O-])C2=O (nonaromatic ring conformer: 81.24044146712083 kcal/mol)

>  <smiles>  (73) 
CC(C)CC(=O)Nc1ccc2c(c1)C(=O)N(C(Cc1ccccc1)C(=O)O)C2=O

>  <score_type>  (73) 
oracle

>  <origin>  (73) 
adg

>  <m_score__min__energy>  (73) 
-11.869999999999999

>  <m_primary>  (73) 
energy

$$$$
73:0
     RDKit          3D

 46 48  0  0  0  0  0  0  0  0999 V2000
   57.0260   21.5010   42.9950 C   0  0  0  0  0  0  0  0  0  0  0  0
   55.9320   20.9650   43.7330 O   0  0  0  0  0  0  0  0  0  0  0  0
   55.9410   20.7280   45.1160 C   0  0  0  0  0  0  0  0  0  0  0  0
   56.9270   19.9230   45.7230 C   0  0  0  0  0  0  0  0  0  0  0  0
   56.8790   19.6600   47.0940 C   0  0  0  0  0  0  0  0  0  0  0  0
   55.8480   20.1870   47.8730 C   0  0  0  0  0  0  0  0  0  0  0  0
   54.8710   20.9930   47.2850 C   0  0  0  0  0  0  0  0  0  0  0  0
   54.9250   21.2930   45.9190 C   0  0  0  0  0  0  0  0  0  0  0  0
   53.8970   22.1270   45.3620 N   0  0  0  0  0  0  0  0  0  0  0  0
   54.0800   23.4330   44.8000 C   0  0  0  0  0  0  0  0  0  0  0  0
   53.4870   23.7190   43.7270 O   0  0  0  0  0  0  0  0  0  0  0  0
   54.8920   24.4630   45.4780 C   0  0  0  0  0  0  0  0  0  0  0  0
   54.5310   25.7560   45.6320 N   0  0  0  0  0  0  0  0  0  0  0  0
   55.5200   26.3690   46.2730 N   0  0  0  0  0  0  0  0  0  0  0  0
   56.5010   25.5210   46.5400 N   0  0  0  0  0  0  0  0  0  0  0  0
   57.7470   25.8940   47.2100 C   0  0  0  0  0  0  0  0  0  0  0  0
   58.9480   25.5260   46.3750 C   0  0  0  0  0  0  0  0  0  0  0  0
   59.1150   24.3310   46.0120 O   0  0  0  0  0  0  0  0  0  0  0  0
   59.8260   26.5300   45.8490 N   0  0  0  0  0  0  0  0  0  0  0  0
   59.5140   27.9200   45.7000 C   0  0  0  0  0  0  0  0  0  0  0  0
   60.3910   28.8770   46.2200 C   0  0  0  0  0  0  0  0  0  0  0  0
   60.0960   30.2400   46.1060 C   0  0  0  0  0  0  0  0  0  0  0  0
   58.9100   30.6510   45.4900 C   0  0  0  0  0  0  0  0  0  0  0  0
   58.0060   29.6970   44.9990 C   0  0  0  0  0  0  0  0  0  0  0  0
   56.5010   30.1910   44.2310 S   0  0  0  0  0  0  0  0  0  0  0  0
   55.1980   29.2450   44.8590 N   0  0  0  0  0  0  0  0  0  0  0  0
   56.5830   29.9870   42.7440 O   0  0  0  0  0  0  0  0  0  0  0  0
   56.2500   31.6460   44.5090 O   0  0  0  0  0  0  0  0  0  0  0  0
   58.3050   28.3340   45.1170 C   0  0  0  0  0  0  0  0  0  0  0  0
   56.1390   24.3220   46.0440 C   0  0  0  0  0  0  0  0  0  0  0  0
   56.8450   23.2370   46.0940 N   0  0  0  0  0  0  0  0  0  0  0  0
   57.7902   21.8754   43.6920 H   0  0  0  0  0  0  0  0  0  0  0  0
   57.4615   20.7142   42.3615 H   0  0  0  0  0  0  0  0  0  0  0  0
   56.6712   22.3273   42.3615 H   0  0  0  0  0  0  0  0  0  0  0  0
   57.7387   19.4997   45.1132 H   0  0  0  0  0  0  0  0  0  0  0  0
   57.6556   19.0361   47.5607 H   0  0  0  0  0  0  0  0  0  0  0  0
   55.8050   19.9675   48.9500 H   0  0  0  0  0  0  0  0  0  0  0  0
   54.0526   21.3953   47.9002 H   0  0  0  0  0  0  0  0  0  0  0  0
   57.7498   26.9803   47.3830 H   0  0  0  0  0  0  0  0  0  0  0  0
   57.8060   25.3486   48.1635 H   0  0  0  0  0  0  0  0  0  0  0  0
   61.3166   28.5570   46.7208 H   0  0  0  0  0  0  0  0  0  0  0  0
   60.7979   30.9890   46.5014 H   0  0  0  0  0  0  0  0  0  0  0  0
   58.6855   31.7232   45.3903 H   0  0  0  0  0  0  0  0  0  0  0  0
   55.5180   28.2510   44.8680 H   0  0  0  0  0  0  0  0  0  0  0  0
   57.5890   27.5834   44.7511 H   0  0  0  0  0  0  0  0  0  0  0  0
   57.8590   23.2200   45.8490 H   0  0  0  0  0  0  0  0  0  0  0  0
  1  2  1  0
  2  3  1  0
  3  4  2  0
  4  5  1  0
  5  6  2  0
  6  7  1  0
  7  8  2  0
  8  9  1  0
  9 10  1  0
 10 11  2  0
 10 12  1  0
 12 13  2  0
 13 14  1  0
 14 15  1  0
 15 16  1  0
 16 17  1  0
 17 18  2  0
 17 19  1  0
 19 20  1  0
 20 21  2  0
 21 22  1  0
 22 23  2  0
 23 24  1  0
 24 25  1  0
 25 26  1  0
 25 27  2  0
 25 28  2  0
 24 29  2  0
 15 30  1  0
 30 31  2  3
  8  3  1  0
 30 12  1  0
 29 20  1  0
  1 32  1  0
  1 33  1  0
  1 34  1  0
  4 35  1  0
  5 36  1  0
  6 37  1  0
  7 38  1  0
 16 39  1  0
 16 40  1  0
 21 41  1  0
 22 42  1  0
 23 43  1  0
 26 44  1  0
 29 45  1  0
 31 46  1  0
M  CHG  4   9  -1  14  -1  19  -1  26  -1
M  END
>  <UniqueID>  (74) 
69

>  <SMILES>  (74) 
COc1ccccc1[N-]C(=O)c1n[n-]n(CC(=O)[N-]c2cccc(S([NH-])(=O)=O)c2)c1=N

>  <Energy>  (74) 
96.81262254430777

>  <Genealogy>  (74) 
COc1ccccc1[N-]C(=O)c1n[n-]n(CC(=O)[N-]c2cccc(S([NH-])(=O)=O)c2)c1=N (protonated)
COc1ccccc1[N-]C(=O)c1n[n-]n(CC(=O)[N-]c2cccc(S([NH-])(=O)=O)c2)c1=N (3D coordinates assigned)
COc1ccccc1[N-]C(=O)c1n[n-]n(CC(=O)[N-]c2cccc(S([NH-])(=O)=O)c2)c1=N (optimized conformer: 96.81262254430777 kcal/mol)

>  <smiles>  (74) 
COc1ccccc1NC(=O)c1n[nH]n(CC(=O)Nc2cccc(S(N)(=O)=O)c2)c1=N

>  <score_type>  (74) 
oracle

>  <origin>  (74) 
adg

>  <m_score__min__energy>  (74) 
-15.449999999999999

>  <m_primary>  (74) 
energy

$$$$
74:0
     RDKit          3D

 32 34  0  0  0  0  0  0  0  0999 V2000
   60.5480   23.4280   45.6230 N   0  0  0  0  0  0  0  0  0  0  0  0
   59.5070   23.9320   45.6730 C   0  0  0  0  0  0  0  0  0  0  0  0
   58.2120   24.5590   45.7360 C   0  0  0  0  0  0  0  0  0  0  0  0
   57.0840   23.7990   46.0600 C   0  0  0  0  0  0  0  0  0  0  0  0
   55.8300   24.4070   46.1280 C   0  0  0  0  0  0  0  0  0  0  0  0
   55.6910   25.7750   45.8720 C   0  0  0  0  0  0  0  0  0  0  0  0
   54.4210   26.3410   45.9380 O   0  0  0  0  0  0  0  0  0  0  0  0
   56.8210   26.5560   45.5440 C   0  0  0  0  0  0  0  0  0  0  0  0
   56.6990   28.0140   45.2790 C   0  0  0  0  0  0  0  0  0  0  0  0
   57.7260   28.9410   45.2810 C   0  0  0  0  0  0  0  0  0  0  0  0
   57.0990   30.1390   45.0030 C   0  0  0  0  0  0  0  0  0  0  0  0
   57.7420   31.4590   44.8610 C   0  0  0  0  0  0  0  0  0  0  0  0
   58.0240   31.8800   43.7080 O   0  0  0  0  0  0  0  0  0  0  0  0
   58.1090   32.2530   45.9960 N   0  0  0  0  0  0  0  0  0  0  0  0
   59.4460   32.5670   46.4090 C   0  0  0  0  0  0  0  0  0  0  0  0
   60.2870   31.5310   46.8340 C   0  0  0  0  0  0  0  0  0  0  0  0
   61.5990   31.8050   47.2350 C   0  0  0  0  0  0  0  0  0  0  0  0
   62.0840   33.1160   47.1990 C   0  0  0  0  0  0  0  0  0  0  0  0
   63.7280   33.4600   47.7040 Cl  0  0  0  0  0  0  0  0  0  0  0  0
   61.2580   34.1530   46.7500 C   0  0  0  0  0  0  0  0  0  0  0  0
   59.9470   33.8810   46.3480 C   0  0  0  0  0  0  0  0  0  0  0  0
   55.7810   29.9290   44.8270 N   0  0  0  0  0  0  0  0  0  0  0  0
   55.5370   28.6390   44.9990 N   0  0  0  0  0  0  0  0  0  0  0  0
   58.0820   25.9290   45.4810 C   0  0  0  0  0  0  0  0  0  0  0  0
   57.1851   22.7223   46.2612 H   0  0  0  0  0  0  0  0  0  0  0  0
   54.9448   23.8065   46.3846 H   0  0  0  0  0  0  0  0  0  0  0  0
   58.7964   28.7641   45.4624 H   0  0  0  0  0  0  0  0  0  0  0  0
   59.9140   30.4963   46.8526 H   0  0  0  0  0  0  0  0  0  0  0  0
   62.2500   30.9879   47.5791 H   0  0  0  0  0  0  0  0  0  0  0  0
   61.6410   35.1835   46.7134 H   0  0  0  0  0  0  0  0  0  0  0  0
   59.3050   34.6962   45.9829 H   0  0  0  0  0  0  0  0  0  0  0  0
   58.9731   26.5227   45.2288 H   0  0  0  0  0  0  0  0  0  0  0  0
  1  2  3  0
  2  3  1  0
  3  4  2  0
  4  5  1  0
  5  6  2  0
  6  7  1  0
  6  8  1  0
  8  9  1  0
  9 10  2  0
 10 11  1  0
 11 12  1  0
 12 13  2  0
 12 14  1  0
 14 15  1  0
 15 16  2  0
 16 17  1  0
 17 18  2  0
 18 19  1  0
 18 20  1  0
 20 21  2  0
 11 22  2  0
 22 23  1  0
  8 24  2  0
 24  3  1  0
 23  9  1  0
 21 15  1  0
  4 25  1  0
  5 26  1  0
 10 27  1  0
 16 28  1  0
 17 29  1  0
 20 30  1  0
 21 31  1  0
 24 32  1  0
M  CHG  3   7  -1  14  -1  23  -1
M  END
>  <UniqueID>  (75) 
70

>  <SMILES>  (75) 
N#Cc1ccc([O-])c(-c2cc(C(=O)[N-]c3ccc(Cl)cc3)n[n-]2)c1

>  <Energy>  (75) 
71.37031514540938

>  <Genealogy>  (75) 
N#Cc1ccc([O-])c(-c2cc(C(=O)[N-]c3ccc(Cl)cc3)n[n-]2)c1 (protonated)
N#Cc1ccc([O-])c(-c2cc(C(=O)[N-]c3ccc(Cl)cc3)n[n-]2)c1 (3D coordinates assigned)
N#Cc1ccc([O-])c(-c2cc(C(=O)[N-]c3ccc(Cl)cc3)n[n-]2)c1 (optimized conformer: 71.37031514540938 kcal/mol)

>  <smiles>  (75) 
N#Cc1ccc(O)c(-c2cc(C(=O)Nc3ccc(Cl)cc3)n[nH]2)c1

>  <score_type>  (75) 
oracle

>  <origin>  (75) 
adg

>  <m_score__min__energy>  (75) 
-15.32

>  <m_primary>  (75) 
energy

$$$$
75:0
     RDKit          3D

 37 39  0  0  0  0  0  0  0  0999 V2000
   55.1440   27.8930   45.0890 H   0  0  0  0  0  0  0  0  0  0  0  0
   55.7010   27.2270   45.6110 O   0  0  0  0  0  0  0  0  0  0  0  0
   57.0920   27.3150   45.6560 C   0  0  0  0  0  0  0  0  0  0  0  0
   57.8120   26.5600   46.5960 C   0  0  0  0  0  0  0  0  0  0  0  0
   57.2776   25.8921   47.2875 H   0  0  0  0  0  0  0  0  0  0  0  0
   59.2030   26.6540   46.6560 C   0  0  0  0  0  0  0  0  0  0  0  0
   59.7622   26.0578   47.3920 H   0  0  0  0  0  0  0  0  0  0  0  0
   59.8860   27.5030   45.7840 C   0  0  0  0  0  0  0  0  0  0  0  0
   60.9822   27.5776   45.8364 H   0  0  0  0  0  0  0  0  0  0  0  0
   59.1800   28.2580   44.8450 C   0  0  0  0  0  0  0  0  0  0  0  0
   59.7226   28.9318   44.1656 H   0  0  0  0  0  0  0  0  0  0  0  0
   57.7800   28.1620   44.7630 C   0  0  0  0  0  0  0  0  0  0  0  0
   57.0310   29.0110   43.7690 C   0  0  0  0  0  0  0  0  0  0  0  0
   56.4112   28.3635   43.1314 H   0  0  0  0  0  0  0  0  0  0  0  0
   57.7534   29.5637   43.1504 H   0  0  0  0  0  0  0  0  0  0  0  0
   56.1530   29.9860   44.4860 C   0  0  0  0  0  0  0  0  0  0  0  0
   55.1520   29.5640   45.1260 O   0  0  0  0  0  0  0  0  0  0  0  0
   56.4950   31.3830   44.4640 N   0  0  0  0  0  0  0  0  0  0  0  0
   57.4120   31.9850   45.1630 C   0  0  0  0  0  0  0  0  0  0  0  0
   58.0120   31.3920   46.2160 N   0  0  0  0  0  0  0  0  0  0  0  0
   58.9170   32.1660   46.8120 N   0  0  0  0  0  0  0  0  0  0  0  0
   59.0520   33.3780   46.2280 C   0  0  0  0  0  0  0  0  0  0  0  0
   59.9500   34.4520   46.7510 C   0  0  0  0  0  0  0  0  0  0  0  0
   60.1917   35.1524   45.9380 H   0  0  0  0  0  0  0  0  0  0  0  0
   59.4373   34.9863   47.5644 H   0  0  0  0  0  0  0  0  0  0  0  0
   61.2210   33.8480   47.2820 C   0  0  0  0  0  0  0  0  0  0  0  0
   61.2950   33.4110   48.6150 C   0  0  0  0  0  0  0  0  0  0  0  0
   60.4113   33.4840   49.2660 H   0  0  0  0  0  0  0  0  0  0  0  0
   62.4900   32.8830   49.1170 C   0  0  0  0  0  0  0  0  0  0  0  0
   62.5418   32.5346   50.1591 H   0  0  0  0  0  0  0  0  0  0  0  0
   63.6170   32.7980   48.2960 C   0  0  0  0  0  0  0  0  0  0  0  0
   64.5549   32.3811   48.6916 H   0  0  0  0  0  0  0  0  0  0  0  0
   63.5540   33.2420   46.9730 C   0  0  0  0  0  0  0  0  0  0  0  0
   64.4430   33.1760   46.3286 H   0  0  0  0  0  0  0  0  0  0  0  0
   62.3630   33.7700   46.4670 C   0  0  0  0  0  0  0  0  0  0  0  0
   62.3194   34.1258   45.4270 H   0  0  0  0  0  0  0  0  0  0  0  0
   58.0000   33.5530   44.9240 S   0  0  0  0  0  0  0  0  0  0  0  0
  1  2  1  0
  2  3  1  0
  3  4  2  0
  4  5  1  0
  4  6  1  0
  6  7  1  0
  6  8  2  0
  8  9  1  0
  8 10  1  0
 10 11  1  0
 10 12  2  0
 12 13  1  0
 13 14  1  0
 13 15  1  0
 13 16  1  0
 16 17  2  0
 16 18  1  0
 18 19  2  0
 19 20  1  0
 20 21  1  0
 21 22  2  0
 22 23  1  0
 23 24  1  0
 23 25  1  0
 23 26  1  0
 26 27  2  0
 27 28  1  0
 27 29  1  0
 29 30  1  0
 29 31  2  0
 31 32  1  0
 31 33  1  0
 33 34  1  0
 33 35  2  0
 35 36  1  0
 22 37  1  0
 12  3  1  0
 37 19  1  0
 35 26  1  0
M  CHG  1  20  -1
M  END
>  <UniqueID>  (76) 
71

>  <SMILES>  (76) 
O=C(Cc1ccccc1O)/N=c1/[n-]nc(Cc2ccccc2)s1

>  <Energy>  (76) 
73.19944304692778

>  <Genealogy>  (76) 
O=C(Cc1ccccc1O)N=c1[n-]nc(Cc2ccccc2)s1 (protonated)
O=C(Cc1ccccc1O)/N=c1/[n-]nc(Cc2ccccc2)s1 (cis-trans isomerization)
O=C(Cc1ccccc1O)/N=c1/[n-]nc(Cc2ccccc2)s1 (3D coordinates assigned)
O=C(Cc1ccccc1O)/N=c1/[n-]nc(Cc2ccccc2)s1 (optimized conformer: 73.19944304692778 kcal/mol)

>  <smiles>  (76) 
O=C(Cc1ccccc1O)N=c1[nH]nc(Cc2ccccc2)s1

>  <score_type>  (76) 
oracle

>  <origin>  (76) 
adg

>  <m_score__min__energy>  (76) 
-11.35

>  <m_primary>  (76) 
energy

$$$$
76:0
     RDKit          3D

 37 39  0  0  0  0  0  0  0  0999 V2000
   55.2856   23.9620   46.7276 H   0  0  0  0  0  0  0  0  0  0  0  0
   56.0510   24.7520   46.7220 C   0  0  0  0  0  0  0  0  0  0  0  0
   57.3610   24.4570   47.1060 C   0  0  0  0  0  0  0  0  0  0  0  0
   57.6960   23.1660   47.4950 O   0  0  0  0  0  0  0  0  0  0  0  0
   58.3360   25.4610   47.1000 C   0  0  0  0  0  0  0  0  0  0  0  0
   59.3662   25.2235   47.4039 H   0  0  0  0  0  0  0  0  0  0  0  0
   58.0080   26.7720   46.7080 C   0  0  0  0  0  0  0  0  0  0  0  0
   59.0390   27.8380   46.6950 C   0  0  0  0  0  0  0  0  0  0  0  0
   59.7390   28.0400   47.7240 O   0  0  0  0  0  0  0  0  0  0  0  0
   59.2320   28.6300   45.5080 N   0  0  0  0  0  0  0  0  0  0  0  0
   58.9080   29.8760   45.3210 C   0  0  0  0  0  0  0  0  0  0  0  0
   58.5180   30.3370   44.1140 N   0  0  0  0  0  0  0  0  0  0  0  0
   58.2220   31.6660   44.1370 C   0  0  0  0  0  0  0  0  0  0  0  0
   57.7690   32.3680   42.8970 C   0  0  0  0  0  0  0  0  0  0  0  0
   57.1916   33.2628   43.1724 H   0  0  0  0  0  0  0  0  0  0  0  0
   58.6457   32.6658   42.3032 H   0  0  0  0  0  0  0  0  0  0  0  0
   57.1364   31.6918   42.3032 H   0  0  0  0  0  0  0  0  0  0  0  0
   58.3780   32.2790   45.3920 C   0  0  0  0  0  0  0  0  0  0  0  0
   58.1450   33.6890   45.7580 C   0  0  0  0  0  0  0  0  0  0  0  0
   56.9680   34.1420   45.7340 O   0  0  0  0  0  0  0  0  0  0  0  0
   59.2430   34.5510   46.0820 N   0  0  0  0  0  0  0  0  0  0  0  0
   60.3430   34.2480   46.9510 C   0  0  0  0  0  0  0  0  0  0  0  0
   60.2170   34.2760   48.3530 C   0  0  0  0  0  0  0  0  0  0  0  0
   59.2577   34.5562   48.8125 H   0  0  0  0  0  0  0  0  0  0  0  0
   61.3100   33.9480   49.1630 C   0  0  0  0  0  0  0  0  0  0  0  0
   61.2109   33.9807   50.2580 H   0  0  0  0  0  0  0  0  0  0  0  0
   62.5270   33.5790   48.5840 C   0  0  0  0  0  0  0  0  0  0  0  0
   63.5840   33.2610   49.3710 F   0  0  0  0  0  0  0  0  0  0  0  0
   62.6510   33.5280   47.1930 C   0  0  0  0  0  0  0  0  0  0  0  0
   63.6072   33.2321   46.7367 H   0  0  0  0  0  0  0  0  0  0  0  0
   61.5600   33.8530   46.3810 C   0  0  0  0  0  0  0  0  0  0  0  0
   61.6582   33.7981   45.2868 H   0  0  0  0  0  0  0  0  0  0  0  0
   58.9040   31.1020   46.4780 S   0  0  0  0  0  0  0  0  0  0  0  0
   56.6830   27.0560   46.3220 C   0  0  0  0  0  0  0  0  0  0  0  0
   56.4105   28.0755   46.0117 H   0  0  0  0  0  0  0  0  0  0  0  0
   55.7120   26.0490   46.3310 C   0  0  0  0  0  0  0  0  0  0  0  0
   54.4080   26.3400   45.9470 O   0  0  0  0  0  0  0  0  0  0  0  0
  1  2  1  0
  2  3  2  0
  3  4  1  0
  3  5  1  0
  5  6  1  0
  5  7  2  0
  7  8  1  0
  8  9  2  0
  8 10  1  0
 10 11  2  0
 11 12  1  0
 12 13  1  0
 13 14  1  0
 14 15  1  0
 14 16  1  0
 14 17  1  0
 13 18  2  0
 18 19  1  0
 19 20  2  0
 19 21  1  0
 21 22  1  0
 22 23  2  0
 23 24  1  0
 23 25  1  0
 25 26  1  0
 25 27  2  0
 27 28  1  0
 27 29  1  0
 29 30  1  0
 29 31  2  0
 31 32  1  0
 18 33  1  0
  7 34  1  0
 34 35  1  0
 34 36  2  0
 36 37  1  0
 36  2  1  0
 33 11  1  0
 31 22  1  0
M  CHG  4   4  -1  12  -1  21  -1  37  -1
M  END
>  <UniqueID>  (77) 
72

>  <SMILES>  (77) 
Cc1[n-]/c(=N/C(=O)c2cc([O-])cc([O-])c2)sc1C(=O)[N-]c1ccc(F)cc1

>  <Energy>  (77) 
77.59596110313286

>  <Genealogy>  (77) 
Cc1[n-]c(=NC(=O)c2cc([O-])cc([O-])c2)sc1C(=O)[N-]c1ccc(F)cc1 (protonated)
Cc1[n-]/c(=N/C(=O)c2cc([O-])cc([O-])c2)sc1C(=O)[N-]c1ccc(F)cc1 (cis-trans isomerization)
Cc1[n-]/c(=N/C(=O)c2cc([O-])cc([O-])c2)sc1C(=O)[N-]c1ccc(F)cc1 (3D coordinates assigned)
Cc1[n-]/c(=N/C(=O)c2cc([O-])cc([O-])c2)sc1C(=O)[N-]c1ccc(F)cc1 (optimized conformer: 77.59596110313286 kcal/mol)

>  <smiles>  (77) 
Cc1[nH]c(=NC(=O)c2cc(O)cc(O)c2)sc1C(=O)Nc1ccc(F)cc1

>  <score_type>  (77) 
oracle

>  <origin>  (77) 
adg

>  <m_score__min__energy>  (77) 
-16.129999999999999

>  <m_primary>  (77) 
energy

$$$$
77:0
     RDKit          3D

 29 31  0  0  0  0  0  0  0  0999 V2000
   57.4480   27.3920   47.4650 O   0  0  0  0  0  0  0  0  0  0  0  0
   57.3200   27.7000   46.2500 C   0  0  0  0  0  0  0  0  0  0  0  0
   57.0790   26.6500   45.2980 N   0  0  0  0  0  0  0  0  0  0  0  0
   56.6490   25.4480   45.5590 C   0  0  0  0  0  0  0  0  0  0  0  0
   57.4890   24.3750   45.5210 N   0  0  0  0  0  0  0  0  0  0  0  0
   57.0660   23.1150   45.8030 C   0  0  0  0  0  0  0  0  0  0  0  0
   55.7330   22.8880   46.1530 C   0  0  0  0  0  0  0  0  0  0  0  0
   54.8510   23.9680   46.2110 C   0  0  0  0  0  0  0  0  0  0  0  0
   55.3060   25.2560   45.9180 C   0  0  0  0  0  0  0  0  0  0  0  0
   54.4260   26.3320   45.9790 O   0  0  0  0  0  0  0  0  0  0  0  0
   57.3670   29.1320   45.8610 C   0  0  0  0  0  0  0  0  0  0  0  0
   56.2880   29.7220   45.1760 C   0  0  0  0  0  0  0  0  0  0  0  0
   55.1520   28.9820   44.8660 O   0  0  0  0  0  0  0  0  0  0  0  0
   56.3370   31.0320   44.8210 N   0  0  0  0  0  0  0  0  0  0  0  0
   57.4030   31.8200   45.1130 C   0  0  0  0  0  0  0  0  0  0  0  0
   57.4030   33.1640   44.7220 C   0  0  0  0  0  0  0  0  0  0  0  0
   58.4960   33.9820   45.0230 C   0  0  0  0  0  0  0  0  0  0  0  0
   59.5920   33.4620   45.7160 C   0  0  0  0  0  0  0  0  0  0  0  0
   59.6020   32.1200   46.1130 C   0  0  0  0  0  0  0  0  0  0  0  0
   58.5070   31.2860   45.8140 C   0  0  0  0  0  0  0  0  0  0  0  0
   58.4810   29.9300   46.1910 C   0  0  0  0  0  0  0  0  0  0  0  0
   59.4590   29.4230   46.8100 O   0  0  0  0  0  0  0  0  0  0  0  0
   57.7732   22.2738   45.7557 H   0  0  0  0  0  0  0  0  0  0  0  0
   55.3826   21.8703   46.3802 H   0  0  0  0  0  0  0  0  0  0  0  0
   53.7987   23.8053   46.4871 H   0  0  0  0  0  0  0  0  0  0  0  0
   56.5415   33.5773   44.1770 H   0  0  0  0  0  0  0  0  0  0  0  0
   58.4931   35.0375   44.7135 H   0  0  0  0  0  0  0  0  0  0  0  0
   60.4498   34.1095   45.9504 H   0  0  0  0  0  0  0  0  0  0  0  0
   60.4667   31.7157   46.6596 H   0  0  0  0  0  0  0  0  0  0  0  0
  1  2  2  0
  2  3  1  0
  3  4  2  3
  4  5  1  0
  5  6  1  0
  6  7  2  0
  7  8  1  0
  8  9  2  0
  9 10  1  0
  2 11  1  0
 11 12  2  0
 12 13  1  0
 12 14  1  0
 14 15  1  0
 15 16  2  0
 16 17  1  0
 17 18  2  0
 18 19  1  0
 19 20  2  0
 20 21  1  0
 21 22  2  0
  9  4  1  0
 21 11  1  0
 20 15  1  0
  6 23  1  0
  7 24  1  0
  8 25  1  0
 16 26  1  0
 17 27  1  0
 18 28  1  0
 19 29  1  0
M  CHG  4   5  -1  10  -1  13  -1  14  -1
M  END
>  <UniqueID>  (78) 
73

>  <SMILES>  (78) 
O=C(N=c1[n-]cccc1[O-])c1c([O-])[n-]c2ccccc2c1=O

>  <Energy>  (78) 
48.60826960349204

>  <Genealogy>  (78) 
O=C(N=c1[n-]cccc1[O-])c1c([O-])[n-]c2ccccc2c1=O (protonated)
O=C(N=c1[n-]cccc1[O-])c1c([O-])[n-]c2ccccc2c1=O (3D coordinates assigned)
O=C(N=c1[n-]cccc1[O-])c1c([O-])[n-]c2ccccc2c1=O (optimized conformer: 48.60826960349204 kcal/mol)

>  <smiles>  (78) 
O=C(N=c1[nH]cccc1O)c1c(O)[nH]c2ccccc2c1=O

>  <score_type>  (78) 
oracle

>  <origin>  (78) 
adg

>  <m_score__min__energy>  (78) 
-17.23

>  <m_primary>  (78) 
energy

$$$$
78:0
     RDKit          3D

 41 43  0  0  0  0  0  0  0  0999 V2000
   58.1380   21.2560   43.6560 O   0  0  0  0  0  0  0  0  0  0  0  0
   57.2670   22.1500   43.6320 N   0  0  0  0  0  0  0  0  0  0  0  0
   56.0090   21.8390   43.1700 O   0  0  0  0  0  0  0  0  0  0  0  0
   57.5720   23.4830   44.0810 C   0  0  0  0  0  0  0  0  0  0  0  0
   58.3390   23.6900   45.2370 C   0  0  0  0  0  0  0  0  0  0  0  0
   58.6300   24.9850   45.6640 C   0  0  0  0  0  0  0  0  0  0  0  0
   58.1560   26.0820   44.9310 C   0  0  0  0  0  0  0  0  0  0  0  0
   58.4440   27.4260   45.3600 N   0  0  0  0  0  0  0  0  0  0  0  0
   57.5960   28.0790   46.3660 C   0  0  0  0  0  0  0  0  0  0  0  0
   57.7950   29.5970   46.3410 C   0  0  0  0  0  0  0  0  0  0  0  0
   57.9710   30.0310   44.9450 N   0  0  0  0  0  0  0  0  0  0  0  0
   57.8740   31.7710   44.8410 S   0  0  0  0  0  0  0  0  0  0  0  0
   58.3410   32.2210   43.4840 O   0  0  0  0  0  0  0  0  0  0  0  0
   56.4520   32.2170   45.0460 O   0  0  0  0  0  0  0  0  0  0  0  0
   58.8770   32.4960   46.0930 C   0  0  0  0  0  0  0  0  0  0  0  0
   58.5180   33.7210   46.6740 C   0  0  0  0  0  0  0  0  0  0  0  0
   59.3210   34.2880   47.6690 C   0  0  0  0  0  0  0  0  0  0  0  0
   60.4850   33.6350   48.0870 C   0  0  0  0  0  0  0  0  0  0  0  0
   60.8440   32.4110   47.5150 C   0  0  0  0  0  0  0  0  0  0  0  0
   60.0410   31.8410   46.5210 C   0  0  0  0  0  0  0  0  0  0  0  0
   59.2590   29.5610   44.3910 C   0  0  0  0  0  0  0  0  0  0  0  0
   59.6270   28.1370   44.8570 C   0  0  0  0  0  0  0  0  0  0  0  0
   57.4040   25.8630   43.8120 N   0  0  0  0  0  0  0  0  0  0  0  0
   57.1090   24.6070   43.3790 C   0  0  0  0  0  0  0  0  0  0  0  0
   58.7123   22.8276   45.8087 H   0  0  0  0  0  0  0  0  0  0  0  0
   59.2292   25.1453   46.5725 H   0  0  0  0  0  0  0  0  0  0  0  0
   56.5415   27.8498   46.1527 H   0  0  0  0  0  0  0  0  0  0  0  0
   57.8754   27.7027   47.3612 H   0  0  0  0  0  0  0  0  0  0  0  0
   56.9132   30.0924   46.7735 H   0  0  0  0  0  0  0  0  0  0  0  0
   58.6838   29.8666   46.9304 H   0  0  0  0  0  0  0  0  0  0  0  0
   57.6033   34.2368   46.3466 H   0  0  0  0  0  0  0  0  0  0  0  0
   59.0367   35.2486   48.1233 H   0  0  0  0  0  0  0  0  0  0  0  0
   61.1182   34.0846   48.8660 H   0  0  0  0  0  0  0  0  0  0  0  0
   61.7578   31.8960   47.8464 H   0  0  0  0  0  0  0  0  0  0  0  0
   60.3234   30.8764   46.0740 H   0  0  0  0  0  0  0  0  0  0  0  0
   59.1916   29.5649   43.2931 H   0  0  0  0  0  0  0  0  0  0  0  0
   60.0434   30.2412   44.7544 H   0  0  0  0  0  0  0  0  0  0  0  0
   60.0487   27.5784   44.0084 H   0  0  0  0  0  0  0  0  0  0  0  0
   60.3626   28.2136   45.6713 H   0  0  0  0  0  0  0  0  0  0  0  0
   57.0160   26.6740   43.2790 H   0  0  0  0  0  0  0  0  0  0  0  0
   56.5026   24.4714   42.4713 H   0  0  0  0  0  0  0  0  0  0  0  0
  1  2  2  0
  2  3  1  0
  2  4  1  0
  4  5  2  0
  5  6  1  0
  6  7  2  0
  7  8  1  0
  8  9  1  0
  9 10  1  0
 10 11  1  0
 11 12  1  0
 12 13  2  0
 12 14  2  0
 12 15  1  0
 15 16  2  0
 16 17  1  0
 17 18  2  0
 18 19  1  0
 19 20  2  0
 11 21  1  0
 21 22  1  0
  7 23  1  0
 23 24  2  0
 24  4  1  0
 22  8  1  0
 20 15  1  0
  5 25  1  0
  6 26  1  0
  9 27  1  0
  9 28  1  0
 10 29  1  0
 10 30  1  0
 16 31  1  0
 17 32  1  0
 18 33  1  0
 19 34  1  0
 20 35  1  0
 21 36  1  0
 21 37  1  0
 22 38  1  0
 22 39  1  0
 23 40  1  0
 24 41  1  0
M  CHG  3   2   1   3  -1  23   1
M  END
>  <UniqueID>  (79) 
74

>  <SMILES>  (79) 
O=[N+]([O-])c1ccc(N2CCN(S(=O)(=O)c3ccccc3)CC2)[nH+]c1

>  <Energy>  (79) 
51.35139771763535

>  <Genealogy>  (79) 
O=[N+]([O-])c1ccc(N2CCN(S(=O)(=O)c3ccccc3)CC2)[nH+]c1 (protonated)
O=[N+]([O-])c1ccc(N2CCN(S(=O)(=O)c3ccccc3)CC2)[nH+]c1 (3D coordinates assigned)
O=[N+]([O-])c1ccc(N2CCN(S(=O)(=O)c3ccccc3)CC2)[nH+]c1 (nonaromatic ring conformer: 51.35139771763535 kcal/mol)

>  <smiles>  (79) 
O=[N+]([O-])c1ccc(N2CCN(S(=O)(=O)c3ccccc3)CC2)nc1

>  <score_type>  (79) 
oracle

>  <origin>  (79) 
adg

>  <m_score__min__energy>  (79) 
-6.5300000000000002

>  <m_primary>  (79) 
energy

$$$$
79:0
     RDKit          3D

 32 34  0  0  0  0  0  0  0  0999 V2000
   55.1390   27.9750   45.9620 H   0  0  0  0  0  0  0  0  0  0  0  0
   55.5480   27.0500   45.9880 O   0  0  0  0  0  0  0  0  0  0  0  0
   56.9260   26.8240   45.9470 C   0  0  0  0  0  0  0  0  0  0  0  0
   57.4600   25.5720   46.3330 C   0  0  0  0  0  0  0  0  0  0  0  0
   56.6170   24.4700   46.7030 N   0  0  0  0  0  0  0  0  0  0  0  0
   56.7420   23.2580   46.2480 C   0  0  0  0  0  0  0  0  0  0  0  0
   57.2700   22.2690   47.0220 N   0  0  0  0  0  0  0  0  0  0  0  0
   57.3930   21.0010   46.5500 C   0  0  0  0  0  0  0  0  0  0  0  0
   57.8257   20.2155   47.1871 H   0  0  0  0  0  0  0  0  0  0  0  0
   56.9700   20.6970   45.2570 C   0  0  0  0  0  0  0  0  0  0  0  0
   57.0637   19.6756   44.8595 H   0  0  0  0  0  0  0  0  0  0  0  0
   56.4250   21.7190   44.4790 C   0  0  0  0  0  0  0  0  0  0  0  0
   56.0310   21.4820   43.3070 O   0  0  0  0  0  0  0  0  0  0  0  0
   56.3200   22.9750   44.9880 N   0  0  0  0  0  0  0  0  0  0  0  0
   58.8440   25.3970   46.3910 C   0  0  0  0  0  0  0  0  0  0  0  0
   59.2598   24.4394   46.7375 H   0  0  0  0  0  0  0  0  0  0  0  0
   59.7010   26.4270   46.0130 C   0  0  0  0  0  0  0  0  0  0  0  0
   60.7895   26.2740   46.0549 H   0  0  0  0  0  0  0  0  0  0  0  0
   59.1900   27.6530   45.5810 C   0  0  0  0  0  0  0  0  0  0  0  0
   60.3390   28.9010   45.1100 Cl  0  0  0  0  0  0  0  0  0  0  0  0
   57.7940   27.8650   45.5440 C   0  0  0  0  0  0  0  0  0  0  0  0
   57.1570   29.4420   45.0290 S   0  0  0  0  0  0  0  0  0  0  0  0
   55.6540   29.4690   44.9960 O   0  0  0  0  0  0  0  0  0  0  0  0
   57.6620   29.7360   43.6460 O   0  0  0  0  0  0  0  0  0  0  0  0
   57.7150   30.6800   46.1100 N   0  0  0  0  0  0  0  0  0  0  0  0
   57.8970   31.9210   45.7720 C   0  0  0  0  0  0  0  0  0  0  0  0
   56.9370   32.6440   45.1540 N   0  0  0  0  0  0  0  0  0  0  0  0
   57.3540   33.9130   44.8960 C   0  0  0  0  0  0  0  0  0  0  0  0
   56.7168   34.6583   44.3976 H   0  0  0  0  0  0  0  0  0  0  0  0
   58.6470   34.1910   45.3120 C   0  0  0  0  0  0  0  0  0  0  0  0
   59.2820   35.3800   45.1660 F   0  0  0  0  0  0  0  0  0  0  0  0
   59.3040   32.8200   46.0270 S   0  0  0  0  0  0  0  0  0  0  0  0
  1  2  1  0
  2  3  1  0
  3  4  2  0
  4  5  1  0
  5  6  2  3
  6  7  1  0
  7  8  1  0
  8  9  1  0
  8 10  2  0
 10 11  1  0
 10 12  1  0
 12 13  2  0
 12 14  1  0
  4 15  1  0
 15 16  1  0
 15 17  2  0
 17 18  1  0
 17 19  1  0
 19 20  1  0
 19 21  2  0
 21 22  1  0
 22 23  2  0
 22 24  2  0
 22 25  1  0
 25 26  2  0
 26 27  1  0
 27 28  1  0
 28 29  1  0
 28 30  2  0
 30 31  1  0
 30 32  1  0
 21  3  1  0
 32 26  1  0
 14  6  1  0
M  CHG  3   7  -1  14  -1  27  -1
M  END
>  <UniqueID>  (80) 
75

>  <SMILES>  (80) 
O=c1cc[n-]c(=Nc2ccc(Cl)c(S(=O)(=O)/N=c3/[n-]cc(F)s3)c2O)[n-]1

>  <Energy>  (80) 
82.5740155203715

>  <Genealogy>  (80) 
O=c1cc[n-]c(=Nc2ccc(Cl)c(S(=O)(=O)N=c3[n-]cc(F)s3)c2O)[n-]1 (protonated)
O=c1cc[n-]c(=Nc2ccc(Cl)c(S(=O)(=O)/N=c3/[n-]cc(F)s3)c2O)[n-]1 (cis-trans isomerization)
O=c1cc[n-]c(=Nc2ccc(Cl)c(S(=O)(=O)/N=c3/[n-]cc(F)s3)c2O)[n-]1 (3D coordinates assigned)
O=c1cc[n-]c(=Nc2ccc(Cl)c(S(=O)(=O)/N=c3/[n-]cc(F)s3)c2O)[n-]1 (optimized conformer: 82.5740155203715 kcal/mol)

>  <smiles>  (80) 
O=c1cc[nH]c(=Nc2ccc(Cl)c(S(=O)(=O)N=c3[nH]cc(F)s3)c2O)[nH]1

>  <score_type>  (80) 
oracle

>  <origin>  (80) 
adg

>  <m_score__min__energy>  (80) 
-13.91

>  <m_primary>  (80) 
energy

$$$$
80:0
     RDKit          3D

 64 68  0  0  0  0  0  0  0  0999 V2000
   57.8278   34.5760   53.0853 H   0  0  0  0  0  0  0  0  0  0  0  0
   58.1380   33.7440   52.4360 C   0  0  0  0  0  0  0  0  0  0  0  0
   59.2740   33.8710   51.6320 C   0  0  0  0  0  0  0  0  0  0  0  0
   59.8618   34.8005   51.6553 H   0  0  0  0  0  0  0  0  0  0  0  0
   59.6650   32.8190   50.7980 C   0  0  0  0  0  0  0  0  0  0  0  0
   60.5637   32.9215   50.1720 H   0  0  0  0  0  0  0  0  0  0  0  0
   58.9140   31.6300   50.7560 C   0  0  0  0  0  0  0  0  0  0  0  0
   59.3270   30.5190   49.9410 N   0  0  0  0  0  0  0  0  0  0  0  0
   58.5430   29.9700   49.0250 N   0  0  0  0  0  0  0  0  0  0  0  0
   59.2000   28.9190   48.4990 C   0  0  0  0  0  0  0  0  0  0  0  0
   58.6190   28.0210   47.4950 C   0  0  0  0  0  0  0  0  0  0  0  0
   58.9170   26.8000   47.5200 O   0  0  0  0  0  0  0  0  0  0  0  0
   57.7680   28.5130   46.4510 N   0  0  0  0  0  0  0  0  0  0  0  0
   57.9320   28.2060   45.0310 C   0  0  0  0  0  0  0  0  0  0  0  0
   58.9965   28.2845   44.7650 H   0  0  0  0  0  0  0  0  0  0  0  0
   57.3384   28.9216   44.4433 H   0  0  0  0  0  0  0  0  0  0  0  0
   57.4480   26.8110   44.7290 C   0  0  0  0  0  0  0  0  0  0  0  0
   57.7690   26.1990   43.5090 C   0  0  0  0  0  0  0  0  0  0  0  0
   58.3038   26.7714   42.7367 H   0  0  0  0  0  0  0  0  0  0  0  0
   57.4170   24.8720   43.2650 C   0  0  0  0  0  0  0  0  0  0  0  0
   57.6855   24.3994   42.3087 H   0  0  0  0  0  0  0  0  0  0  0  0
   56.7220   24.1400   44.2360 C   0  0  0  0  0  0  0  0  0  0  0  0
   56.3640   22.4410   43.9500 S   0  0  0  0  0  0  0  0  0  0  0  0
   55.3300   21.9530   44.9260 O   0  0  0  0  0  0  0  0  0  0  0  0
   55.8380   22.2650   42.5530 O   0  0  0  0  0  0  0  0  0  0  0  0
   57.8560   21.4930   44.1500 C   0  0  0  0  0  0  0  0  0  0  0  0
   58.0651   21.3601   45.2217 H   0  0  0  0  0  0  0  0  0  0  0  0
   57.7311   20.5083   43.6760 H   0  0  0  0  0  0  0  0  0  0  0  0
   58.6944   22.0244   43.6760 H   0  0  0  0  0  0  0  0  0  0  0  0
   56.3680   24.7540   45.4460 C   0  0  0  0  0  0  0  0  0  0  0  0
   55.8080   24.1886   46.2054 H   0  0  0  0  0  0  0  0  0  0  0  0
   56.7260   26.0850   45.6890 C   0  0  0  0  0  0  0  0  0  0  0  0
   56.4402   26.5644   46.6369 H   0  0  0  0  0  0  0  0  0  0  0  0
   60.4460   28.7870   49.0820 C   0  0  0  0  0  0  0  0  0  0  0  0
   61.2179   28.0312   48.8746 H   0  0  0  0  0  0  0  0  0  0  0  0
   60.4920   29.8330   49.9900 C   0  0  0  0  0  0  0  0  0  0  0  0
   61.5150   30.1940   50.7160 N   0  0  0  0  0  0  0  0  0  0  0  0
   62.6430   30.9700   50.2810 C   0  0  0  0  0  0  0  0  0  0  0  0
   63.7630   30.7630   50.8190 O   0  0  0  0  0  0  0  0  0  0  0  0
   62.5390   31.9220   49.1510 C   0  0  0  0  0  0  0  0  0  0  0  0
   61.3490   31.9590   48.4090 C   0  0  0  0  0  0  0  0  0  0  0  0
   60.5550   31.2284   48.6230 H   0  0  0  0  0  0  0  0  0  0  0  0
   61.1550   32.9130   47.3980 C   0  0  0  0  0  0  0  0  0  0  0  0
   59.8450   33.0290   46.7150 C   0  0  0  0  0  0  0  0  0  0  0  0
   59.5100   34.1820   45.9770 C   0  0  0  0  0  0  0  0  0  0  0  0
   60.3340   35.2590   45.9410 F   0  0  0  0  0  0  0  0  0  0  0  0
   58.2960   34.2240   45.2870 C   0  0  0  0  0  0  0  0  0  0  0  0
   58.0226   35.1194   44.7095 H   0  0  0  0  0  0  0  0  0  0  0  0
   57.4320   33.1330   45.3300 C   0  0  0  0  0  0  0  0  0  0  0  0
   56.4791   33.1564   44.7809 H   0  0  0  0  0  0  0  0  0  0  0  0
   57.7880   32.0100   46.0770 C   0  0  0  0  0  0  0  0  0  0  0  0
   57.1094   31.1455   46.1231 H   0  0  0  0  0  0  0  0  0  0  0  0
   58.9710   31.9790   46.7490 N   0  0  0  0  0  0  0  0  0  0  0  0
   59.2130   31.1110   47.2790 H   0  0  0  0  0  0  0  0  0  0  0  0
   62.1900   33.8120   47.1020 C   0  0  0  0  0  0  0  0  0  0  0  0
   62.0503   34.5669   46.3142 H   0  0  0  0  0  0  0  0  0  0  0  0
   63.3970   33.7540   47.8020 C   0  0  0  0  0  0  0  0  0  0  0  0
   64.2112   34.4472   47.5440 H   0  0  0  0  0  0  0  0  0  0  0  0
   63.5790   32.8210   48.8290 C   0  0  0  0  0  0  0  0  0  0  0  0
   65.0870   32.8660   49.7370 Cl  0  0  0  0  0  0  0  0  0  0  0  0
   57.7860   31.5050   51.5860 C   0  0  0  0  0  0  0  0  0  0  0  0
   57.2060   30.5703   51.5829 H   0  0  0  0  0  0  0  0  0  0  0  0
   57.3970   32.5610   52.4150 C   0  0  0  0  0  0  0  0  0  0  0  0
   56.5058   32.4598   53.0518 H   0  0  0  0  0  0  0  0  0  0  0  0
  1  2  1  0
  2  3  2  0
  3  4  1  0
  3  5  1  0
  5  6  1  0
  5  7  2  0
  7  8  1  0
  8  9  1  0
  9 10  1  0
 10 11  1  0
 11 12  2  0
 11 13  1  0
 13 14  1  0
 14 15  1  0
 14 16  1  0
 14 17  1  0
 17 18  2  0
 18 19  1  0
 18 20  1  0
 20 21  1  0
 20 22  2  0
 22 23  1  0
 23 24  2  0
 23 25  2  0
 23 26  1  0
 26 27  1  0
 26 28  1  0
 26 29  1  0
 22 30  1  0
 30 31  1  0
 30 32  2  0
 32 33  1  0
 10 34  2  0
 34 35  1  0
 34 36  1  0
 36 37  2  0
 37 38  1  0
 38 39  2  0
 38 40  1  0
 40 41  2  0
 41 42  1  0
 41 43  1  0
 43 44  1  0
 44 45  2  0
 45 46  1  0
 45 47  1  0
 47 48  1  0
 47 49  2  0
 49 50  1  0
 49 51  1  0
 51 52  1  0
 51 53  2  0
 53 54  1  0
 43 55  2  0
 55 56  1  0
 55 57  1  0
 57 58  1  0
 57 59  2  0
 59 60  1  0
  7 61  1  0
 61 62  1  0
 61 63  2  0
 63 64  1  0
 63  2  1  0
 36  8  1  0
 59 40  1  0
 32 17  1  0
 53 44  1  0
M  CHG  3   9  -1  13  -1  53   1
M  END
>  <UniqueID>  (81) 
76

>  <SMILES>  (81) 
CS(=O)(=O)c1ccc(C[N-]C(=O)c2c/c(=N\C(=O)c3cc(-c4[nH+]cccc4F)ccc3Cl)n(-c3ccccc3)[n-]2)cc1

>  <Energy>  (81) 
115.38265348221559

>  <Genealogy>  (81) 
CS(=O)(=O)c1ccc(C[N-]C(=O)c2cc(=NC(=O)c3cc(-c4[nH+]cccc4F)ccc3Cl)n(-c3ccccc3)[n-]2)cc1 (protonated)
CS(=O)(=O)c1ccc(C[N-]C(=O)c2c/c(=N\C(=O)c3cc(-c4[nH+]cccc4F)ccc3Cl)n(-c3ccccc3)[n-]2)cc1 (cis-trans isomerization)
CS(=O)(=O)c1ccc(C[N-]C(=O)c2c/c(=N\C(=O)c3cc(-c4[nH+]cccc4F)ccc3Cl)n(-c3ccccc3)[n-]2)cc1 (3D coordinates assigned)
CS(=O)(=O)c1ccc(C[N-]C(=O)c2c/c(=N\C(=O)c3cc(-c4[nH+]cccc4F)ccc3Cl)n(-c3ccccc3)[n-]2)cc1 (optimized conformer: 115.38265348221559 kcal/mol)

>  <smiles>  (81) 
CS(=O)(=O)c1ccc(CNC(=O)c2cc(=NC(=O)c3cc(-c4ncccc4F)ccc3Cl)n(-c3ccccc3)[nH]2)cc1

>  <score_type>  (81) 
oracle

>  <origin>  (81) 
adg

>  <m_score__min__energy>  (81) 
-11.91

>  <m_primary>  (81) 
energy

$$$$
81:0
     RDKit          3D

 48 50  0  0  1  0  0  0  0  0999 V2000
   56.0890   29.4280   45.0510 O   0  0  0  0  0  0  0  0  0  0  0  0
   57.0000   29.9210   44.3350 C   0  0  0  0  0  0  0  0  0  0  0  0
   56.8650   31.3330   43.8920 C   0  0  0  0  0  0  0  0  0  0  0  0
   57.5060   32.2870   44.8360 C   0  0  0  0  0  0  0  0  0  0  0  0
   57.8640   31.8400   46.1020 C   0  0  0  0  0  0  0  0  0  0  0  0
   58.4650   32.7160   47.0020 C   0  0  0  0  0  0  0  0  0  0  0  0
   58.7190   34.0440   46.6590 C   0  0  0  0  0  0  0  0  0  0  0  0
   59.3180   34.9090   47.5590 O   0  0  0  0  0  0  0  0  0  0  0  0
   58.3550   34.4780   45.3850 C   0  0  0  0  0  0  0  0  0  0  0  0
   57.7540   33.6100   44.4780 C   0  0  0  0  0  0  0  0  0  0  0  0
   58.1550   29.2040   43.9230 N   0  0  0  0  0  0  0  0  0  0  0  0
   58.3270   27.8270   44.3310 C   0  0  0  0  0  0  0  0  0  0  0  0
   58.7300   27.7160   45.8030 C   0  0  0  0  0  0  0  0  0  0  0  0
   57.4940   27.5600   46.5460 N   0  0  0  0  0  0  0  0  0  0  0  0
   56.7440   26.5140   46.3660 C   0  0  0  0  0  0  0  0  0  0  0  0
   57.1790   25.2430   46.7350 C   0  0  0  0  0  0  0  0  0  0  0  0
   56.3600   24.1540   46.5310 C   0  0  0  0  0  0  0  0  0  0  0  0
   55.1020   24.3230   45.9590 C   0  0  0  0  0  0  0  0  0  0  0  0
   54.3200   23.3260   45.7590 N   0  0  0  0  0  0  0  0  0  0  0  0
   52.9680   23.4730   45.3570 C   0  0  0  0  0  0  0  0  0  0  0  0
   52.0000   23.0810   46.2660 C   0  0  0  0  0  0  0  0  0  0  0  0
   50.6420   23.1780   45.9810 C   0  0  0  0  0  0  0  0  0  0  0  0
   50.2820   23.6810   44.7560 C   0  0  0  0  0  0  0  0  0  0  0  0
   51.2270   24.0820   43.8220 C   0  0  0  0  0  0  0  0  0  0  0  0
   52.5840   23.9750   44.1320 C   0  0  0  0  0  0  0  0  0  0  0  0
   54.7300   25.5570   45.6240 N   0  0  0  0  0  0  0  0  0  0  0  0
   55.5170   26.6020   45.8200 N   0  0  0  0  0  0  0  0  0  0  0  0
   57.3388   31.4405   42.9051 H   0  0  0  0  0  0  0  0  0  0  0  0
   55.7918   31.5708   43.8519 H   0  0  0  0  0  0  0  0  0  0  0  0
   57.6730   30.7964   46.3925 H   0  0  0  0  0  0  0  0  0  0  0  0
   58.7448   32.3540   48.0023 H   0  0  0  0  0  0  0  0  0  0  0  0
   58.8890   35.7630   47.8580 H   0  0  0  0  0  0  0  0  0  0  0  0
   58.5455   35.5212   45.0925 H   0  0  0  0  0  0  0  0  0  0  0  0
   57.4744   33.9695   43.4767 H   0  0  0  0  0  0  0  0  0  0  0  0
   58.8950   29.6450   43.3250 H   0  0  0  0  0  0  0  0  0  0  0  0
   57.3790   27.2899   44.1800 H   0  0  0  0  0  0  0  0  0  0  0  0
   59.1315   27.3883   43.7225 H   0  0  0  0  0  0  0  0  0  0  0  0
   59.3807   26.8424   45.9562 H   0  0  0  0  0  0  0  0  0  0  0  0
   59.2902   28.6026   46.1350 H   0  0  0  0  0  0  0  0  0  0  0  0
   58.1727   25.1094   47.1875 H   0  0  0  0  0  0  0  0  0  0  0  0
   56.7008   23.1490   46.8206 H   0  0  0  0  0  0  0  0  0  0  0  0
   52.3139   22.6814   47.2416 H   0  0  0  0  0  0  0  0  0  0  0  0
   49.8831   22.8625   46.7121 H   0  0  0  0  0  0  0  0  0  0  0  0
   49.2141   23.7689   44.5073 H   0  0  0  0  0  0  0  0  0  0  0  0
   50.9098   24.4803   42.8469 H   0  0  0  0  0  0  0  0  0  0  0  0
   53.3438   24.2900   43.4016 H   0  0  0  0  0  0  0  0  0  0  0  0
   53.7770   25.7040   45.1880 H   0  0  0  0  0  0  0  0  0  0  0  0
   55.1450   27.5320   45.5270 H   0  0  0  0  0  0  0  0  0  0  0  0
  1  2  2  0
  2  3  1  0
  3  4  1  0
  4  5  2  0
  5  6  1  0
  6  7  2  0
  7  8  1  0
  7  9  1  0
  9 10  2  0
  2 11  1  0
 11 12  1  0
 12 13  1  0
 13 14  1  0
 14 15  2  0
 15 16  1  0
 16 17  2  0
 17 18  1  0
 18 19  2  0
 19 20  1  0
 20 21  2  0
 21 22  1  0
 22 23  2  0
 23 24  1  0
 24 25  2  0
 18 26  1  0
 26 27  1  0
 10  4  1  0
 27 15  1  0
 25 20  1  0
  3 28  1  0
  3 29  1  0
  5 30  1  0
  6 31  1  0
  8 32  1  0
  9 33  1  0
 10 34  1  0
 11 35  1  0
 12 36  1  0
 12 37  1  0
 13 38  1  0
 13 39  1  0
 16 40  1  0
 17 41  1  0
 21 42  1  0
 22 43  1  0
 23 44  1  0
 24 45  1  0
 25 46  1  0
 26 47  1  0
 27 48  1  0
M  END
>  <smiles>  (82) 
O=C(Cc1ccc(O)cc1)NCCN=c1ccc(=Nc2ccccc2)[nH][nH]1

>  <score_type>  (82) 
oracle

>  <origin>  (82) 
adg

>  <m_score__min__energy>  (82) 
-9.1199999999999992

>  <m_primary>  (82) 
energy

$$$$
82:0
     RDKit          3D

 42 45  0  0  0  0  0  0  0  0999 V2000
   55.1570   29.3520   44.8650 O   0  0  0  0  0  0  0  0  0  0  0  0
   56.2930   29.8010   44.5560 C   0  0  0  0  0  0  0  0  0  0  0  0
   56.4560   31.2140   44.3890 N   0  0  0  0  0  0  0  0  0  0  0  0
   57.3920   32.0400   45.0940 C   0  0  0  0  0  0  0  0  0  0  0  0
   57.0800   33.4020   45.2950 C   0  0  0  0  0  0  0  0  0  0  0  0
   57.9550   34.2460   45.9990 C   0  0  0  0  0  0  0  0  0  0  0  0
   59.1350   33.7090   46.5140 C   0  0  0  0  0  0  0  0  0  0  0  0
   60.0540   34.4150   47.2180 N   0  0  0  0  0  0  0  0  0  0  0  0
   61.0880   33.6160   47.5880 C   0  0  0  0  0  0  0  0  0  0  0  0
   62.1030   34.0220   48.2910 N   0  0  0  0  0  0  0  0  0  0  0  0
   63.4480   33.5330   48.1780 C   0  0  0  0  0  0  0  0  0  0  0  0
   64.1130   33.8340   47.1520 O   0  0  0  0  0  0  0  0  0  0  0  0
   64.0930   32.7370   49.2500 C   0  0  0  0  0  0  0  0  0  0  0  0
   63.4060   31.6820   49.8780 C   0  0  0  0  0  0  0  0  0  0  0  0
   64.0200   30.9440   50.8940 C   0  0  0  0  0  0  0  0  0  0  0  0
   65.3190   31.2580   51.3020 C   0  0  0  0  0  0  0  0  0  0  0  0
   66.0040   32.3150   50.6960 C   0  0  0  0  0  0  0  0  0  0  0  0
   65.3940   33.0550   49.6790 C   0  0  0  0  0  0  0  0  0  0  0  0
   60.8930   32.0150   47.0810 S   0  0  0  0  0  0  0  0  0  0  0  0
   59.4290   32.3670   46.3360 C   0  0  0  0  0  0  0  0  0  0  0  0
   58.5800   31.5080   45.6440 C   0  0  0  0  0  0  0  0  0  0  0  0
   57.3740   28.8980   44.2750 N   0  0  0  0  0  0  0  0  0  0  0  0
   57.4290   27.5380   44.7420 C   0  0  0  0  0  0  0  0  0  0  0  0
   57.7710   26.4790   43.8800 C   0  0  0  0  0  0  0  0  0  0  0  0
   57.7900   25.1630   44.3540 C   0  0  0  0  0  0  0  0  0  0  0  0
   57.4590   24.8920   45.6840 C   0  0  0  0  0  0  0  0  0  0  0  0
   57.0980   25.9350   46.5400 C   0  0  0  0  0  0  0  0  0  0  0  0
   57.0760   27.2520   46.0700 C   0  0  0  0  0  0  0  0  0  0  0  0
   56.1391   33.8079   44.8950 H   0  0  0  0  0  0  0  0  0  0  0  0
   57.7143   35.3098   46.1414 H   0  0  0  0  0  0  0  0  0  0  0  0
   62.3796   31.4365   49.5676 H   0  0  0  0  0  0  0  0  0  0  0  0
   63.4795   30.1144   51.3733 H   0  0  0  0  0  0  0  0  0  0  0  0
   65.8020   30.6740   52.0992 H   0  0  0  0  0  0  0  0  0  0  0  0
   67.0250   32.5650   51.0200 H   0  0  0  0  0  0  0  0  0  0  0  0
   65.9348   33.8910   49.2115 H   0  0  0  0  0  0  0  0  0  0  0  0
   58.8275   30.4425   45.5283 H   0  0  0  0  0  0  0  0  0  0  0  0
   58.1230   29.2250   43.6240 H   0  0  0  0  0  0  0  0  0  0  0  0
   58.0242   26.6870   42.8299 H   0  0  0  0  0  0  0  0  0  0  0  0
   58.0661   24.3400   43.6783 H   0  0  0  0  0  0  0  0  0  0  0  0
   57.4827   23.8574   46.0570 H   0  0  0  0  0  0  0  0  0  0  0  0
   56.8307   25.7202   47.5852 H   0  0  0  0  0  0  0  0  0  0  0  0
   56.7803   28.0686   46.7451 H   0  0  0  0  0  0  0  0  0  0  0  0
  1  2  2  0
  2  3  1  0
  3  4  1  0
  4  5  2  0
  5  6  1  0
  6  7  2  0
  7  8  1  0
  8  9  1  0
  9 10  2  3
 10 11  1  0
 11 12  2  0
 11 13  1  0
 13 14  2  0
 14 15  1  0
 15 16  2  0
 16 17  1  0
 17 18  2  0
  9 19  1  0
 19 20  1  0
 20 21  2  0
  2 22  1  0
 22 23  1  0
 23 24  2  0
 24 25  1  0
 25 26  2  0
 26 27  1  0
 27 28  2  0
 21  4  1  0
 28 23  1  0
 20  7  1  0
 18 13  1  0
  5 29  1  0
  6 30  1  0
 14 31  1  0
 15 32  1  0
 16 33  1  0
 17 34  1  0
 18 35  1  0
 21 36  1  0
 22 37  1  0
 24 38  1  0
 25 39  1  0
 26 40  1  0
 27 41  1  0
 28 42  1  0
M  CHG  2   3  -1   8  -1
M  END
>  <UniqueID>  (83) 
77

>  <SMILES>  (83) 
O=C([N-]c1ccc2[n-]c(=NC(=O)c3ccccc3)sc2c1)Nc1ccccc1

>  <Energy>  (83) 
95.52334745793607

>  <Genealogy>  (83) 
O=C([N-]c1ccc2[n-]c(=NC(=O)c3ccccc3)sc2c1)Nc1ccccc1 (protonated)
O=C([N-]c1ccc2[n-]c(=NC(=O)c3ccccc3)sc2c1)Nc1ccccc1 (3D coordinates assigned)
O=C([N-]c1ccc2[n-]c(=NC(=O)c3ccccc3)sc2c1)Nc1ccccc1 (optimized conformer: 95.52334745793607 kcal/mol)

>  <smiles>  (83) 
O=C(Nc1ccccc1)Nc1ccc2[nH]c(=NC(=O)c3ccccc3)sc2c1

>  <score_type>  (83) 
oracle

>  <origin>  (83) 
adg

>  <m_score__min__energy>  (83) 
-11.710000000000001

>  <m_primary>  (83) 
energy

$$$$
83:0
     RDKit          3D

 31 32  0  0  0  0  0  0  0  0999 V2000
   56.6740   31.0720   44.7820 O   0  0  0  0  0  0  0  0  0  0  0  0
   56.3630   29.7920   44.0600 S   0  0  0  0  0  0  0  0  0  0  0  0
   55.8880   30.1140   42.6710 O   0  0  0  0  0  0  0  0  0  0  0  0
   55.1470   28.9700   44.8800 O   0  0  0  0  0  0  0  0  0  0  0  0
   57.8290   28.7730   43.9560 C   0  0  0  0  0  0  0  0  0  0  0  0
   57.6120   27.3740   44.5410 C   0  0  0  0  0  0  0  0  0  0  0  0
   57.0300   27.4070   46.2770 S   0  0  0  0  0  0  0  0  0  0  0  0
   58.3510   28.4630   46.8810 C   0  0  0  0  0  0  0  0  0  0  0  0
   59.3980   27.9130   47.6210 C   0  0  0  0  0  0  0  0  0  0  0  0
   60.4120   28.7570   48.0640 C   0  0  0  0  0  0  0  0  0  0  0  0
   60.3570   30.0840   47.7850 N   0  0  0  0  0  0  0  0  0  0  0  0
   59.3220   30.6190   47.0800 C   0  0  0  0  0  0  0  0  0  0  0  0
   59.3090   32.0760   46.8020 C   0  0  0  0  0  0  0  0  0  0  0  0
   58.0830   32.7470   46.6240 C   0  0  0  0  0  0  0  0  0  0  0  0
   58.0550   34.1180   46.3580 C   0  0  0  0  0  0  0  0  0  0  0  0
   59.2480   34.8370   46.2600 C   0  0  0  0  0  0  0  0  0  0  0  0
   60.4720   34.1830   46.4210 C   0  0  0  0  0  0  0  0  0  0  0  0
   60.5050   32.8100   46.6880 C   0  0  0  0  0  0  0  0  0  0  0  0
   58.3240   29.8000   46.6300 N   0  0  0  0  0  0  0  0  0  0  0  0
   58.1151   28.6730   42.8986 H   0  0  0  0  0  0  0  0  0  0  0  0
   58.6195   29.2627   44.5436 H   0  0  0  0  0  0  0  0  0  0  0  0
   56.8619   26.8509   43.9297 H   0  0  0  0  0  0  0  0  0  0  0  0
   58.5834   26.8581   44.5293 H   0  0  0  0  0  0  0  0  0  0  0  0
   59.4215   26.8372   47.8490 H   0  0  0  0  0  0  0  0  0  0  0  0
   61.2564   28.3493   48.6392 H   0  0  0  0  0  0  0  0  0  0  0  0
   57.1394   32.1862   46.6951 H   0  0  0  0  0  0  0  0  0  0  0  0
   57.0916   34.6321   46.2255 H   0  0  0  0  0  0  0  0  0  0  0  0
   59.2241   35.9177   46.0562 H   0  0  0  0  0  0  0  0  0  0  0  0
   61.4117   34.7487   46.3377 H   0  0  0  0  0  0  0  0  0  0  0  0
   61.4722   32.3004   46.8097 H   0  0  0  0  0  0  0  0  0  0  0  0
   57.5380   30.1840   46.0600 H   0  0  0  0  0  0  0  0  0  0  0  0
  1  2  2  0
  2  3  2  0
  2  4  1  0
  2  5  1  0
  5  6  1  0
  6  7  1  0
  7  8  1  0
  8  9  2  0
  9 10  1  0
 10 11  2  0
 11 12  1  0
 12 13  1  0
 13 14  2  0
 14 15  1  0
 15 16  2  0
 16 17  1  0
 17 18  2  0
 12 19  2  0
 19  8  1  0
 18 13  1  0
  5 20  1  0
  5 21  1  0
  6 22  1  0
  6 23  1  0
  9 24  1  0
 10 25  1  0
 14 26  1  0
 15 27  1  0
 16 28  1  0
 17 29  1  0
 18 30  1  0
 19 31  1  0
M  CHG  2   4  -1  19   1
M  END
>  <UniqueID>  (84) 
78

>  <SMILES>  (84) 
O=S(=O)([O-])CCSc1ccnc(-c2ccccc2)[nH+]1

>  <Energy>  (84) 
26.59986602363867

>  <Genealogy>  (84) 
O=S(=O)([O-])CCSc1ccnc(-c2ccccc2)[nH+]1 (protonated)
O=S(=O)([O-])CCSc1ccnc(-c2ccccc2)[nH+]1 (3D coordinates assigned)
O=S(=O)([O-])CCSc1ccnc(-c2ccccc2)[nH+]1 (optimized conformer: 26.59986602363867 kcal/mol)

>  <smiles>  (84) 
O=S(=O)(O)CCSc1ccnc(-c2ccccc2)n1

>  <score_type>  (84) 
oracle

>  <origin>  (84) 
adg

>  <m_score__min__energy>  (84) 
-9.6699999999999999

>  <m_primary>  (84) 
energy

$$$$
84:0
     RDKit          3D

 39 41  0  0  0  0  0  0  0  0999 V2000
   59.4897   34.9165   46.7613 H   0  0  0  0  0  0  0  0  0  0  0  0
   58.8610   34.1580   46.2720 C   0  0  0  0  0  0  0  0  0  0  0  0
   58.7390   32.8810   46.8240 C   0  0  0  0  0  0  0  0  0  0  0  0
   59.4230   32.5740   48.0070 O   0  0  0  0  0  0  0  0  0  0  0  0
   60.7970   32.7680   48.2080 C   0  0  0  0  0  0  0  0  0  0  0  0
   61.2150   33.6060   49.2470 C   0  0  0  0  0  0  0  0  0  0  0  0
   60.4669   34.1194   49.8689 H   0  0  0  0  0  0  0  0  0  0  0  0
   62.5770   33.7960   49.5010 C   0  0  0  0  0  0  0  0  0  0  0  0
   62.8915   34.4627   50.3175 H   0  0  0  0  0  0  0  0  0  0  0  0
   63.5440   33.1450   48.7250 C   0  0  0  0  0  0  0  0  0  0  0  0
   64.8980   33.3620   49.0220 O   0  0  0  0  0  0  0  0  0  0  0  0
   65.6070   32.7080   50.0700 C   0  0  0  0  0  0  0  0  0  0  0  0
   65.2286   33.0570   51.0421 H   0  0  0  0  0  0  0  0  0  0  0  0
   65.4610   31.6208   49.9886 H   0  0  0  0  0  0  0  0  0  0  0  0
   66.6789   32.9411   49.9886 H   0  0  0  0  0  0  0  0  0  0  0  0
   63.1260   32.2950   47.6830 C   0  0  0  0  0  0  0  0  0  0  0  0
   63.8747   31.7787   47.0642 H   0  0  0  0  0  0  0  0  0  0  0  0
   61.7640   32.1040   47.4310 C   0  0  0  0  0  0  0  0  0  0  0  0
   61.4467   31.4309   46.6209 H   0  0  0  0  0  0  0  0  0  0  0  0
   57.9820   31.9410   46.1890 N   0  0  0  0  0  0  0  0  0  0  0  0
   57.3020   32.2030   45.0400 C   0  0  0  0  0  0  0  0  0  0  0  0
   56.6240   31.2360   44.4860 N   0  0  0  0  0  0  0  0  0  0  0  0
   56.6250   29.8560   44.8810 C   0  0  0  0  0  0  0  0  0  0  0  0
   55.5280   29.2380   44.9340 O   0  0  0  0  0  0  0  0  0  0  0  0
   57.8920   29.1270   45.1360 C   0  0  0  0  0  0  0  0  0  0  0  0
   57.8750   27.7480   45.4080 C   0  0  0  0  0  0  0  0  0  0  0  0
   56.9203   27.2030   45.4472 H   0  0  0  0  0  0  0  0  0  0  0  0
   59.0780   27.0750   45.6280 C   0  0  0  0  0  0  0  0  0  0  0  0
   59.0740   25.9975   45.8491 H   0  0  0  0  0  0  0  0  0  0  0  0
   60.2850   27.7710   45.5670 C   0  0  0  0  0  0  0  0  0  0  0  0
   61.2374   27.2477   45.7373 H   0  0  0  0  0  0  0  0  0  0  0  0
   60.2720   29.1370   45.2880 C   0  0  0  0  0  0  0  0  0  0  0  0
   61.2190   29.6934   45.2283 H   0  0  0  0  0  0  0  0  0  0  0  0
   59.0900   29.7850   45.0890 N   0  0  0  0  0  0  0  0  0  0  0  0
   59.1240   30.8030   44.8600 H   0  0  0  0  0  0  0  0  0  0  0  0
   57.3890   33.4910   44.4730 C   0  0  0  0  0  0  0  0  0  0  0  0
   56.8405   33.7287   43.5496 H   0  0  0  0  0  0  0  0  0  0  0  0
   58.1780   34.4630   45.0940 C   0  0  0  0  0  0  0  0  0  0  0  0
   58.2606   35.4680   44.6544 H   0  0  0  0  0  0  0  0  0  0  0  0
  1  2  1  0
  2  3  2  0
  3  4  1  0
  4  5  1  0
  5  6  2  0
  6  7  1  0
  6  8  1  0
  8  9  1  0
  8 10  2  0
 10 11  1  0
 11 12  1  0
 12 13  1  0
 12 14  1  0
 12 15  1  0
 10 16  1  0
 16 17  1  0
 16 18  2  0
 18 19  1  0
  3 20  1  0
 20 21  1  0
 21 22  2  0
 22 23  1  0
 23 24  2  0
 23 25  1  0
 25 26  2  0
 26 27  1  0
 26 28  1  0
 28 29  1  0
 28 30  2  0
 30 31  1  0
 30 32  1  0
 32 33  1  0
 32 34  2  0
 34 35  1  0
 21 36  1  0
 36 37  1  0
 36 38  2  0
 38 39  1  0
 38  2  1  0
 18  5  1  0
 34 25  1  0
M  CHG  2  20  -1  34   1
M  END
>  <UniqueID>  (85) 
79

>  <SMILES>  (85) 
COc1ccc(Oc2ccc/c(=N\C(=O)c3cccc[nH+]3)[n-]2)cc1

>  <Energy>  (85) 
57.176383682953116

>  <Genealogy>  (85) 
COc1ccc(Oc2cccc(=NC(=O)c3cccc[nH+]3)[n-]2)cc1 (protonated)
COc1ccc(Oc2ccc/c(=N\C(=O)c3cccc[nH+]3)[n-]2)cc1 (cis-trans isomerization)
COc1ccc(Oc2ccc/c(=N\C(=O)c3cccc[nH+]3)[n-]2)cc1 (3D coordinates assigned)
COc1ccc(Oc2ccc/c(=N\C(=O)c3cccc[nH+]3)[n-]2)cc1 (optimized conformer: 57.176383682953116 kcal/mol)

>  <smiles>  (85) 
COc1ccc(Oc2cccc(=NC(=O)c3ccccn3)[nH]2)cc1

>  <score_type>  (85) 
oracle

>  <origin>  (85) 
adg

>  <m_score__min__energy>  (85) 
-8.6899999999999995

>  <m_primary>  (85) 
energy

$$$$
85:0
     RDKit          3D

 47 49  0  0  0  0  0  0  0  0999 V2000
   58.5271   34.6955   48.3428 H   0  0  0  0  0  0  0  0  0  0  0  0
   58.5660   34.4600   47.2690 C   0  0  0  0  0  0  0  0  0  0  0  0
   57.7900   33.4640   46.7630 N   0  0  0  0  0  0  0  0  0  0  0  0
   57.8000   33.1250   45.4450 C   0  0  0  0  0  0  0  0  0  0  0  0
   57.0180   32.1520   45.0620 N   0  0  0  0  0  0  0  0  0  0  0  0
   57.1250   30.7300   45.2560 C   0  0  0  0  0  0  0  0  0  0  0  0
   56.2090   29.9500   44.8810 O   0  0  0  0  0  0  0  0  0  0  0  0
   58.3610   30.1770   45.8590 C   0  0  0  0  0  0  0  0  0  0  0  0
   58.8520   30.7530   47.0460 C   0  0  0  0  0  0  0  0  0  0  0  0
   58.3470   31.6316   47.4738 H   0  0  0  0  0  0  0  0  0  0  0  0
   59.9730   30.2210   47.6860 C   0  0  0  0  0  0  0  0  0  0  0  0
   60.3464   30.6821   48.6122 H   0  0  0  0  0  0  0  0  0  0  0  0
   60.6200   29.1070   47.1540 C   0  0  0  0  0  0  0  0  0  0  0  0
   61.4944   28.6815   47.6682 H   0  0  0  0  0  0  0  0  0  0  0  0
   60.1590   28.5310   45.9690 C   0  0  0  0  0  0  0  0  0  0  0  0
   60.6697   27.6480   45.5574 H   0  0  0  0  0  0  0  0  0  0  0  0
   59.0510   29.0680   45.2990 C   0  0  0  0  0  0  0  0  0  0  0  0
   58.6530   28.4740   44.0540 N   0  0  0  0  0  0  0  0  0  0  0  0
   58.7580   29.0490   43.1870 H   0  0  0  0  0  0  0  0  0  0  0  0
   57.9740   27.2120   43.9560 C   0  0  0  0  0  0  0  0  0  0  0  0
   57.9170   26.4750   42.4890 S   0  0  0  0  0  0  0  0  0  0  0  0
   57.4200   26.5810   45.1290 N   0  0  0  0  0  0  0  0  0  0  0  0
   57.5700   27.0270   46.0600 H   0  0  0  0  0  0  0  0  0  0  0  0
   56.7890   25.2900   45.1300 C   0  0  0  0  0  0  0  0  0  0  0  0
   57.4800   24.1600   44.6660 C   0  0  0  0  0  0  0  0  0  0  0  0
   58.5231   24.2544   44.3299 H   0  0  0  0  0  0  0  0  0  0  0  0
   56.8470   22.9170   44.6300 C   0  0  0  0  0  0  0  0  0  0  0  0
   57.3899   22.0352   44.2589 H   0  0  0  0  0  0  0  0  0  0  0  0
   55.5260   22.7900   45.0640 C   0  0  0  0  0  0  0  0  0  0  0  0
   55.0341   21.8066   45.0333 H   0  0  0  0  0  0  0  0  0  0  0  0
   54.8220   23.9040   45.5380 C   0  0  0  0  0  0  0  0  0  0  0  0
   53.4720   23.7050   45.9830 N   0  0  0  0  0  0  0  0  0  0  0  0
   52.9610   22.6170   47.2350 S   0  0  0  0  0  0  0  0  0  0  0  0
   53.7190   22.8900   48.5030 O   0  0  0  0  0  0  0  0  0  0  0  0
   51.4960   22.8340   47.4870 O   0  0  0  0  0  0  0  0  0  0  0  0
   53.1900   20.9260   46.7200 C   0  0  0  0  0  0  0  0  0  0  0  0
   53.2773   20.2812   47.6069 H   0  0  0  0  0  0  0  0  0  0  0  0
   52.3270   20.6061   46.1176 H   0  0  0  0  0  0  0  0  0  0  0  0
   54.1070   20.8471   46.1176 H   0  0  0  0  0  0  0  0  0  0  0  0
   55.4460   25.1700   45.5280 C   0  0  0  0  0  0  0  0  0  0  0  0
   54.7430   26.3140   45.8840 O   0  0  0  0  0  0  0  0  0  0  0  0
   58.6330   33.8510   44.5640 C   0  0  0  0  0  0  0  0  0  0  0  0
   58.6464   33.6123   43.4903 H   0  0  0  0  0  0  0  0  0  0  0  0
   59.4390   34.8740   45.0680 C   0  0  0  0  0  0  0  0  0  0  0  0
   60.0979   35.4378   44.3913 H   0  0  0  0  0  0  0  0  0  0  0  0
   59.4100   35.1820   46.4280 C   0  0  0  0  0  0  0  0  0  0  0  0
   60.0452   35.9844   46.8313 H   0  0  0  0  0  0  0  0  0  0  0  0
  1  2  1  0
  2  3  1  0
  3  4  1  0
  4  5  2  0
  5  6  1  0
  6  7  2  0
  6  8  1  0
  8  9  2  0
  9 10  1  0
  9 11  1  0
 11 12  1  0
 11 13  2  0
 13 14  1  0
 13 15  1  0
 15 16  1  0
 15 17  2  0
 17 18  1  0
 18 19  1  0
 18 20  1  0
 20 21  2  0
 20 22  1  0
 22 23  1  0
 22 24  1  0
 24 25  2  0
 25 26  1  0
 25 27  1  0
 27 28  1  0
 27 29  2  0
 29 30  1  0
 29 31  1  0
 31 32  1  0
 32 33  1  0
 33 34  2  0
 33 35  2  0
 33 36  1  0
 36 37  1  0
 36 38  1  0
 36 39  1  0
 31 40  2  0
 40 41  1  0
  4 42  1  0
 42 43  1  0
 42 44  2  0
 44 45  1  0
 44 46  1  0
 46 47  1  0
 46  2  2  0
 17  8  1  0
 40 24  1  0
M  CHG  3   3  -1  32  -1  41  -1
M  END
>  <UniqueID>  (86) 
80

>  <SMILES>  (86) 
CS(=O)(=O)[N-]c1cccc(NC(=S)Nc2ccccc2C(=O)/N=c2\cccc[n-]2)c1[O-]

>  <Energy>  (86) 
73.00142869952181

>  <Genealogy>  (86) 
CS(=O)(=O)[N-]c1cccc(NC(=S)Nc2ccccc2C(=O)N=c2cccc[n-]2)c1[O-] (protonated)
CS(=O)(=O)[N-]c1cccc(NC(=S)Nc2ccccc2C(=O)/N=c2\cccc[n-]2)c1[O-] (cis-trans isomerization)
CS(=O)(=O)[N-]c1cccc(NC(=S)Nc2ccccc2C(=O)/N=c2\cccc[n-]2)c1[O-] (3D coordinates assigned)
CS(=O)(=O)[N-]c1cccc(NC(=S)Nc2ccccc2C(=O)/N=c2\cccc[n-]2)c1[O-] (optimized conformer: 73.00142869952181 kcal/mol)

>  <smiles>  (86) 
CS(=O)(=O)Nc1cccc(NC(=S)Nc2ccccc2C(=O)N=c2cccc[nH]2)c1O

>  <score_type>  (86) 
oracle

>  <origin>  (86) 
adg

>  <m_score__min__energy>  (86) 
-15.970000000000001

>  <m_primary>  (86) 
energy

$$$$
86:0
     RDKit          3D

 49 52  0  0  0  0  0  0  0  0999 V2000
   63.4130   33.7280   50.2160 C   0  0  0  0  0  0  0  0  0  0  0  0
   62.2140   33.8370   49.3800 N   0  0  0  0  0  0  0  0  0  0  0  0
   60.9100   34.1540   49.9720 C   0  0  0  0  0  0  0  0  0  0  0  0
   60.0640   32.9230   50.0140 C   0  0  0  0  0  0  0  0  0  0  0  0
   60.4260   31.7150   50.5690 C   0  0  0  0  0  0  0  0  0  0  0  0
   59.3720   30.8810   50.2690 C   0  0  0  0  0  0  0  0  0  0  0  0
   58.4470   31.5610   49.5630 N   0  0  0  0  0  0  0  0  0  0  0  0
   58.8720   32.8050   49.4000 N   0  0  0  0  0  0  0  0  0  0  0  0
   62.3310   33.7090   47.9530 C   0  0  0  0  0  0  0  0  0  0  0  0
   63.3330   34.2040   47.3700 O   0  0  0  0  0  0  0  0  0  0  0  0
   61.2850   33.0310   47.1560 C   0  0  0  0  0  0  0  0  0  0  0  0
   61.2220   31.6290   47.1060 C   0  0  0  0  0  0  0  0  0  0  0  0
   60.2170   30.9910   46.3720 C   0  0  0  0  0  0  0  0  0  0  0  0
   59.2530   31.7420   45.6750 C   0  0  0  0  0  0  0  0  0  0  0  0
   58.1890   31.0630   44.8900 C   0  0  0  0  0  0  0  0  0  0  0  0
   57.8180   31.5480   43.6220 C   0  0  0  0  0  0  0  0  0  0  0  0
   56.8230   30.9040   42.8830 C   0  0  0  0  0  0  0  0  0  0  0  0
   56.1840   29.7740   43.3970 C   0  0  0  0  0  0  0  0  0  0  0  0
   56.5310   29.2820   44.6660 C   0  0  0  0  0  0  0  0  0  0  0  0
   55.8890   28.1370   45.2440 N   0  0  0  0  0  0  0  0  0  0  0  0
   56.6880   26.6750   45.7220 S   0  0  0  0  0  0  0  0  0  0  0  0
   55.7570   25.8570   46.5740 O   0  0  0  0  0  0  0  0  0  0  0  0
   57.0530   25.8890   44.4960 O   0  0  0  0  0  0  0  0  0  0  0  0
   58.1520   27.0540   46.6110 C   0  0  0  0  0  0  0  0  0  0  0  0
   58.2410   27.8960   47.7090 C   0  0  0  0  0  0  0  0  0  0  0  0
   59.5480   28.0200   48.1950 C   0  0  0  0  0  0  0  0  0  0  0  0
   60.4810   27.2780   47.4830 C   0  0  0  0  0  0  0  0  0  0  0  0
   59.6830   26.4670   46.2420 S   0  0  0  0  0  0  0  0  0  0  0  0
   57.5350   29.9270   45.4010 C   0  0  0  0  0  0  0  0  0  0  0  0
   59.3130   33.1460   45.7380 C   0  0  0  0  0  0  0  0  0  0  0  0
   60.3140   33.7830   46.4760 C   0  0  0  0  0  0  0  0  0  0  0  0
   63.1238   33.7543   51.2770 H   0  0  0  0  0  0  0  0  0  0  0  0
   63.9262   32.7795   49.9992 H   0  0  0  0  0  0  0  0  0  0  0  0
   64.0888   34.5684   49.9992 H   0  0  0  0  0  0  0  0  0  0  0  0
   61.0549   34.5333   50.9943 H   0  0  0  0  0  0  0  0  0  0  0  0
   60.4091   34.9199   49.3617 H   0  0  0  0  0  0  0  0  0  0  0  0
   61.3446   31.4727   51.1235 H   0  0  0  0  0  0  0  0  0  0  0  0
   59.2967   29.8230   50.5606 H   0  0  0  0  0  0  0  0  0  0  0  0
   61.9679   31.0288   47.6476 H   0  0  0  0  0  0  0  0  0  0  0  0
   60.1799   29.8921   46.3394 H   0  0  0  0  0  0  0  0  0  0  0  0
   58.3144   32.4393   43.2106 H   0  0  0  0  0  0  0  0  0  0  0  0
   56.5416   31.2888   41.8917 H   0  0  0  0  0  0  0  0  0  0  0  0
   55.4064   29.2675   42.8063 H   0  0  0  0  0  0  0  0  0  0  0  0
   57.3761   28.4120   48.1514 H   0  0  0  0  0  0  0  0  0  0  0  0
   59.8112   28.6466   49.0599 H   0  0  0  0  0  0  0  0  0  0  0  0
   61.5594   27.2284   47.6941 H   0  0  0  0  0  0  0  0  0  0  0  0
   57.8157   29.5395   46.3915 H   0  0  0  0  0  0  0  0  0  0  0  0
   58.5650   33.7480   45.2013 H   0  0  0  0  0  0  0  0  0  0  0  0
   60.3414   34.8816   46.5245 H   0  0  0  0  0  0  0  0  0  0  0  0
  1  2  1  0
  2  3  1  0
  3  4  1  0
  4  5  1  0
  5  6  2  0
  6  7  1  0
  7  8  1  0
  2  9  1  0
  9 10  2  0
  9 11  1  0
 11 12  2  0
 12 13  1  0
 13 14  2  0
 14 15  1  0
 15 16  2  0
 16 17  1  0
 17 18  2  0
 18 19  1  0
 19 20  1  0
 20 21  1  0
 21 22  2  0
 21 23  2  0
 21 24  1  0
 24 25  2  0
 25 26  1  0
 26 27  2  0
 27 28  1  0
 19 29  2  0
 14 30  1  0
 30 31  2  0
  8  4  2  0
 31 11  1  0
 29 15  1  0
 28 24  1  0
  1 32  1  0
  1 33  1  0
  1 34  1  0
  3 35  1  0
  3 36  1  0
  5 37  1  0
  6 38  1  0
 12 39  1  0
 13 40  1  0
 16 41  1  0
 17 42  1  0
 18 43  1  0
 25 44  1  0
 26 45  1  0
 27 46  1  0
 29 47  1  0
 30 48  1  0
 31 49  1  0
M  CHG  2   7  -1  20  -1
M  END
>  <UniqueID>  (87) 
81

>  <SMILES>  (87) 
CN(Cc1cc[n-]n1)C(=O)c1ccc(-c2cccc([N-]S(=O)(=O)c3cccs3)c2)cc1

>  <Energy>  (87) 
118.94565598612496

>  <Genealogy>  (87) 
CN(Cc1cc[n-]n1)C(=O)c1ccc(-c2cccc([N-]S(=O)(=O)c3cccs3)c2)cc1 (protonated)
CN(Cc1cc[n-]n1)C(=O)c1ccc(-c2cccc([N-]S(=O)(=O)c3cccs3)c2)cc1 (3D coordinates assigned)
CN(Cc1cc[n-]n1)C(=O)c1ccc(-c2cccc([N-]S(=O)(=O)c3cccs3)c2)cc1 (optimized conformer: 118.94565598612496 kcal/mol)

>  <smiles>  (87) 
CN(Cc1cc[nH]n1)C(=O)c1ccc(-c2cccc(NS(=O)(=O)c3cccs3)c2)cc1

>  <score_type>  (87) 
oracle

>  <origin>  (87) 
adg

>  <m_score__min__energy>  (87) 
-12.94

>  <m_primary>  (87) 
energy

$$$$
87:0
     RDKit          3D

 43 45  0  0  0  0  0  0  0  0999 V2000
   54.7600   26.3330   45.9580 O   0  0  0  0  0  0  0  0  0  0  0  0
   54.6020   25.1280   45.6290 C   0  0  0  0  0  0  0  0  0  0  0  0
   53.3670   24.5280   45.8440 O   0  0  0  0  0  0  0  0  0  0  0  0
   55.7250   24.3340   45.0770 C   0  0  0  0  0  0  0  0  0  0  0  0
   55.4920   23.5920   43.9040 C   0  0  0  0  0  0  0  0  0  0  0  0
   56.4720   22.7450   43.3860 C   0  0  0  0  0  0  0  0  0  0  0  0
   57.6980   22.6190   44.0370 C   0  0  0  0  0  0  0  0  0  0  0  0
   57.9590   23.3590   45.1890 C   0  0  0  0  0  0  0  0  0  0  0  0
   56.9950   24.2400   45.7130 C   0  0  0  0  0  0  0  0  0  0  0  0
   57.3860   25.0810   46.8670 C   0  0  0  0  0  0  0  0  0  0  0  0
   56.5950   25.2000   47.8440 O   0  0  0  0  0  0  0  0  0  0  0  0
   58.6460   25.7620   46.8770 N   0  0  0  0  0  0  0  0  0  0  0  0
   58.9330   26.9610   46.1460 C   0  0  0  0  0  0  0  0  0  0  0  0
   60.2550   27.3930   45.9360 C   0  0  0  0  0  0  0  0  0  0  0  0
   60.5070   28.5710   45.2270 C   0  0  0  0  0  0  0  0  0  0  0  0
   59.4460   29.3240   44.7180 C   0  0  0  0  0  0  0  0  0  0  0  0
   58.1220   28.9030   44.9210 C   0  0  0  0  0  0  0  0  0  0  0  0
   56.7770   29.8920   44.3530 S   0  0  0  0  0  0  0  0  0  0  0  0
   56.7100   29.8260   42.8500 O   0  0  0  0  0  0  0  0  0  0  0  0
   55.4990   29.3360   44.9270 O   0  0  0  0  0  0  0  0  0  0  0  0
   57.0180   31.5410   44.8940 N   0  0  0  0  0  0  0  0  0  0  0  0
   57.6790   32.3560   43.8590 C   0  0  0  0  0  0  0  0  0  0  0  0
   58.0870   33.7310   44.4260 C   0  0  0  0  0  0  0  0  0  0  0  0
   57.4660   33.9710   45.6740 O   0  0  0  0  0  0  0  0  0  0  0  0
   57.9320   33.0360   46.6340 C   0  0  0  0  0  0  0  0  0  0  0  0
   57.7970   31.5780   46.1420 C   0  0  0  0  0  0  0  0  0  0  0  0
   57.8710   27.7120   45.6200 C   0  0  0  0  0  0  0  0  0  0  0  0
   54.5242   23.6811   43.3888 H   0  0  0  0  0  0  0  0  0  0  0  0
   56.2773   22.1769   42.4644 H   0  0  0  0  0  0  0  0  0  0  0  0
   58.4617   21.9337   43.6405 H   0  0  0  0  0  0  0  0  0  0  0  0
   58.9302   23.2530   45.6946 H   0  0  0  0  0  0  0  0  0  0  0  0
   61.0939   26.8014   46.3313 H   0  0  0  0  0  0  0  0  0  0  0  0
   61.5429   28.9058   45.0695 H   0  0  0  0  0  0  0  0  0  0  0  0
   59.6482   30.2484   44.1572 H   0  0  0  0  0  0  0  0  0  0  0  0
   58.5780   31.8302   43.5049 H   0  0  0  0  0  0  0  0  0  0  0  0
   56.9753   32.5109   43.0279 H   0  0  0  0  0  0  0  0  0  0  0  0
   59.1789   33.7561   44.5571 H   0  0  0  0  0  0  0  0  0  0  0  0
   57.7649   34.5102   43.7195 H   0  0  0  0  0  0  0  0  0  0  0  0
   58.9919   33.2423   46.8440 H   0  0  0  0  0  0  0  0  0  0  0  0
   57.3159   33.1455   47.5387 H   0  0  0  0  0  0  0  0  0  0  0  0
   58.7982   31.1603   45.9596 H   0  0  0  0  0  0  0  0  0  0  0  0
   57.2802   30.9830   46.9094 H   0  0  0  0  0  0  0  0  0  0  0  0
   56.8359   27.3655   45.7562 H   0  0  0  0  0  0  0  0  0  0  0  0
  1  2  2  0
  2  3  1  0
  2  4  1  0
  4  5  2  0
  5  6  1  0
  6  7  2  0
  7  8  1  0
  8  9  2  0
  9 10  1  0
 10 11  2  0
 10 12  1  0
 12 13  1  0
 13 14  2  0
 14 15  1  0
 15 16  2  0
 16 17  1  0
 17 18  1  0
 18 19  2  0
 18 20  2  0
 18 21  1  0
 21 22  1  0
 22 23  1  0
 23 24  1  0
 24 25  1  0
 25 26  1  0
 17 27  2  0
  9  4  1  0
 27 13  1  0
 26 21  1  0
  5 28  1  0
  6 29  1  0
  7 30  1  0
  8 31  1  0
 14 32  1  0
 15 33  1  0
 16 34  1  0
 22 35  1  0
 22 36  1  0
 23 37  1  0
 23 38  1  0
 25 39  1  0
 25 40  1  0
 26 41  1  0
 26 42  1  0
 27 43  1  0
M  CHG  2   3  -1  12  -1
M  END
>  <UniqueID>  (88) 
82

>  <SMILES>  (88) 
O=C([O-])c1ccccc1C(=O)[N-]c1cccc(S(=O)(=O)N2CCOCC2)c1

>  <Energy>  (88) 
67.57267801885388

>  <Genealogy>  (88) 
O=C([O-])c1ccccc1C(=O)[N-]c1cccc(S(=O)(=O)N2CCOCC2)c1 (protonated)
O=C([O-])c1ccccc1C(=O)[N-]c1cccc(S(=O)(=O)N2CCOCC2)c1 (3D coordinates assigned)
O=C([O-])c1ccccc1C(=O)[N-]c1cccc(S(=O)(=O)N2CCOCC2)c1 (nonaromatic ring conformer: 67.57267801885388 kcal/mol)

>  <smiles>  (88) 
O=C(O)c1ccccc1C(=O)Nc1cccc(S(=O)(=O)N2CCOCC2)c1

>  <score_type>  (88) 
oracle

>  <origin>  (88) 
adg

>  <m_score__min__energy>  (88) 
-13.99

>  <m_primary>  (88) 
energy

$$$$
88:0
     RDKit          3D

 25 26  0  0  0  0  0  0  0  0999 V2000
   59.0366   35.7673   45.8392 H   0  0  0  0  0  0  0  0  0  0  0  0
   59.2490   34.6940   45.9530 C   0  0  0  0  0  0  0  0  0  0  0  0
   60.2819   34.3256   45.8670 H   0  0  0  0  0  0  0  0  0  0  0  0
   58.2550   33.8400   46.1950 C   0  0  0  0  0  0  0  0  0  0  0  0
   57.2244   34.2149   46.2798 H   0  0  0  0  0  0  0  0  0  0  0  0
   58.5790   32.0860   46.3840 S   0  0  0  0  0  0  0  0  0  0  0  0
   57.9620   31.6920   44.7430 C   0  0  0  0  0  0  0  0  0  0  0  0
   58.1350   32.6170   43.7590 N   0  0  0  0  0  0  0  0  0  0  0  0
   57.6900   32.4180   42.4910 C   0  0  0  0  0  0  0  0  0  0  0  0
   57.8476   33.1915   41.7250 H   0  0  0  0  0  0  0  0  0  0  0  0
   57.0340   31.2340   42.1610 C   0  0  0  0  0  0  0  0  0  0  0  0
   56.6705   31.0674   41.1363 H   0  0  0  0  0  0  0  0  0  0  0  0
   56.8430   30.2630   43.1420 C   0  0  0  0  0  0  0  0  0  0  0  0
   56.3313   29.3230   42.8881 H   0  0  0  0  0  0  0  0  0  0  0  0
   57.3000   30.4770   44.4540 C   0  0  0  0  0  0  0  0  0  0  0  0
   57.1040   29.4170   45.4730 C   0  0  0  0  0  0  0  0  0  0  0  0
   57.7980   29.4350   46.5230 O   0  0  0  0  0  0  0  0  0  0  0  0
   56.2270   28.3010   45.2550 N   0  0  0  0  0  0  0  0  0  0  0  0
   56.4240   27.0680   45.6230 C   0  0  0  0  0  0  0  0  0  0  0  0
   55.4090   26.2660   46.0070 N   0  0  0  0  0  0  0  0  0  0  0  0
   55.8420   25.0110   46.3060 C   0  0  0  0  0  0  0  0  0  0  0  0
   55.1605   24.2176   46.6465 H   0  0  0  0  0  0  0  0  0  0  0  0
   57.2080   24.8040   46.1500 C   0  0  0  0  0  0  0  0  0  0  0  0
   57.7449   23.8631   46.3412 H   0  0  0  0  0  0  0  0  0  0  0  0
   57.8960   26.2430   45.6180 S   0  0  0  0  0  0  0  0  0  0  0  0
  1  2  1  0
  2  3  1  0
  2  4  2  0
  4  5  1  0
  4  6  1  0
  6  7  1  0
  7  8  2  0
  8  9  1  0
  9 10  1  0
  9 11  2  0
 11 12  1  0
 11 13  1  0
 13 14  1  0
 13 15  2  0
 15 16  1  0
 16 17  2  0
 16 18  1  0
 18 19  2  0
 19 20  1  0
 20 21  1  0
 21 22  1  0
 21 23  2  0
 23 24  1  0
 23 25  1  0
 15  7  1  0
 25 19  1  0
M  CHG  1  20  -1
M  END
>  <UniqueID>  (89) 
83

>  <SMILES>  (89) 
C=CSc1ncccc1C(=O)/N=c1/[n-]ccs1

>  <Energy>  (89) 
60.78143127573797

>  <Genealogy>  (89) 
C=CSc1ncccc1C(=O)N=c1[n-]ccs1 (protonated)
C=CSc1ncccc1C(=O)/N=c1/[n-]ccs1 (cis-trans isomerization)
C=CSc1ncccc1C(=O)/N=c1/[n-]ccs1 (3D coordinates assigned)
C=CSc1ncccc1C(=O)/N=c1/[n-]ccs1 (optimized conformer: 60.78143127573797 kcal/mol)

>  <smiles>  (89) 
C=CSc1ncccc1C(=O)N=c1[nH]ccs1

>  <score_type>  (89) 
oracle

>  <origin>  (89) 
adg

>  <m_score__min__energy>  (89) 
-8.4399999999999995

>  <m_primary>  (89) 
energy

$$$$
89:0
     RDKit          3D

 26 26  0  0  0  0  0  0  0  0999 V2000
   56.1400   30.1870   44.8600 O   0  0  0  0  0  0  0  0  0  0  0  0
   56.9940   30.1150   43.9350 C   0  0  0  0  0  0  0  0  0  0  0  0
   56.6410   30.6080   42.5690 C   0  0  0  0  0  0  0  0  0  0  0  0
   57.6800   31.9890   42.1470 Cl  0  0  0  0  0  0  0  0  0  0  0  0
   58.2760   29.5180   44.1760 N   0  0  0  0  0  0  0  0  0  0  0  0
   58.6710   28.9960   45.4840 C   0  0  0  0  0  0  0  0  0  0  0  0
   59.6630   29.9280   46.1840 C   0  0  0  0  0  0  0  0  0  0  0  0
   58.8540   30.9100   47.5010 S   0  0  0  0  0  0  0  0  0  0  0  0
   58.8670   32.4650   46.6030 C   0  0  0  0  0  0  0  0  0  0  0  0
   59.9620   33.3310   46.7120 C   0  0  0  0  0  0  0  0  0  0  0  0
   59.9710   34.5420   46.0120 C   0  0  0  0  0  0  0  0  0  0  0  0
   58.8800   34.8960   45.2120 C   0  0  0  0  0  0  0  0  0  0  0  0
   57.7760   34.0410   45.1170 C   0  0  0  0  0  0  0  0  0  0  0  0
   57.7660   32.8310   45.8160 C   0  0  0  0  0  0  0  0  0  0  0  0
   56.7911   29.7999   41.8379 H   0  0  0  0  0  0  0  0  0  0  0  0
   55.5878   30.9253   42.5556 H   0  0  0  0  0  0  0  0  0  0  0  0
   58.9290   29.3800   43.3720 H   0  0  0  0  0  0  0  0  0  0  0  0
   57.7744   28.8913   46.1126 H   0  0  0  0  0  0  0  0  0  0  0  0
   59.1599   28.0222   45.3335 H   0  0  0  0  0  0  0  0  0  0  0  0
   60.4654   29.3234   46.6318 H   0  0  0  0  0  0  0  0  0  0  0  0
   60.0667   30.6250   45.4348 H   0  0  0  0  0  0  0  0  0  0  0  0
   60.8164   33.0585   47.3491 H   0  0  0  0  0  0  0  0  0  0  0  0
   60.8366   35.2162   46.0908 H   0  0  0  0  0  0  0  0  0  0  0  0
   58.8895   35.8460   44.6576 H   0  0  0  0  0  0  0  0  0  0  0  0
   56.9156   34.3217   44.4917 H   0  0  0  0  0  0  0  0  0  0  0  0
   56.8932   32.1649   45.7487 H   0  0  0  0  0  0  0  0  0  0  0  0
  1  2  2  0
  2  3  1  0
  3  4  1  0
  2  5  1  0
  5  6  1  0
  6  7  1  0
  7  8  1  0
  8  9  1  0
  9 10  2  0
 10 11  1  0
 11 12  2  0
 12 13  1  0
 13 14  2  0
 14  9  1  0
  3 15  1  0
  3 16  1  0
  5 17  1  0
  6 18  1  0
  6 19  1  0
  7 20  1  0
  7 21  1  0
 10 22  1  0
 11 23  1  0
 12 24  1  0
 13 25  1  0
 14 26  1  0
M  END
>  <UniqueID>  (90) 
84

>  <SMILES>  (90) 
O=C(CCl)NCCSc1ccccc1

>  <Energy>  (90) 
13.59062392949821

>  <Genealogy>  (90) 
O=C(CCl)NCCSc1ccccc1 (3D coordinates assigned)
O=C(CCl)NCCSc1ccccc1 (optimized conformer: 13.59062392949821 kcal/mol)

>  <smiles>  (90) 
O=C(CCl)NCCSc1ccccc1

>  <score_type>  (90) 
oracle

>  <origin>  (90) 
adg

>  <m_score__min__energy>  (90) 
-5.8600000000000003

>  <m_primary>  (90) 
energy

$$$$
90:0
     RDKit          3D

 43 45  0  0  0  0  0  0  0  0999 V2000
   54.8040   29.3410   44.1560 O   0  0  0  0  0  0  0  0  0  0  0  0
   56.0050   29.6740   44.3410 C   0  0  0  0  0  0  0  0  0  0  0  0
   56.7790   30.3140   43.2300 C   0  0  0  0  0  0  0  0  0  0  0  0
   57.3700   31.5670   43.6970 N   0  0  0  0  0  0  0  0  0  0  0  0
   58.0320   32.4640   42.9380 C   0  0  0  0  0  0  0  0  0  0  0  0
   58.6140   33.4210   43.7440 C   0  0  0  0  0  0  0  0  0  0  0  0
   58.2970   33.0710   45.0410 C   0  0  0  0  0  0  0  0  0  0  0  0
   58.8610   33.8710   46.5000 S   0  0  0  0  0  0  0  0  0  0  0  0
   59.2460   35.2810   46.1420 O   0  0  0  0  0  0  0  0  0  0  0  0
   57.7250   33.9360   47.4830 O   0  0  0  0  0  0  0  0  0  0  0  0
   60.2390   33.0710   47.2350 N   0  0  0  0  0  0  0  0  0  0  0  0
   60.4210   31.6890   46.7270 C   0  0  0  0  0  0  0  0  0  0  0  0
   59.8950   30.6180   47.7010 C   0  0  0  0  0  0  0  0  0  0  0  0
   58.8000   31.1140   48.4320 O   0  0  0  0  0  0  0  0  0  0  0  0
   59.2340   32.1080   49.3410 C   0  0  0  0  0  0  0  0  0  0  0  0
   60.2030   33.1390   48.7120 C   0  0  0  0  0  0  0  0  0  0  0  0
   57.5240   31.9320   44.9830 C   0  0  0  0  0  0  0  0  0  0  0  0
   56.6660   29.3760   45.5770 N   0  0  0  0  0  0  0  0  0  0  0  0
   57.8690   28.6100   45.7400 C   0  0  0  0  0  0  0  0  0  0  0  0
   58.9740   28.9220   44.9390 C   0  0  0  0  0  0  0  0  0  0  0  0
   60.1830   28.2390   45.1040 C   0  0  0  0  0  0  0  0  0  0  0  0
   60.2980   27.2470   46.0830 C   0  0  0  0  0  0  0  0  0  0  0  0
   59.2060   26.9400   46.8980 C   0  0  0  0  0  0  0  0  0  0  0  0
   59.3300   25.9990   47.8710 F   0  0  0  0  0  0  0  0  0  0  0  0
   57.9940   27.6180   46.7310 C   0  0  0  0  0  0  0  0  0  0  0  0
   57.5782   29.6330   42.9020 H   0  0  0  0  0  0  0  0  0  0  0  0
   56.1020   30.5228   42.3885 H   0  0  0  0  0  0  0  0  0  0  0  0
   58.0981   32.4368   41.8403 H   0  0  0  0  0  0  0  0  0  0  0  0
   59.2095   34.2868   43.4189 H   0  0  0  0  0  0  0  0  0  0  0  0
   61.0710   33.6280   46.9290 H   0  0  0  0  0  0  0  0  0  0  0  0
   59.8812   31.5917   45.7735 H   0  0  0  0  0  0  0  0  0  0  0  0
   61.5014   31.5219   46.6049 H   0  0  0  0  0  0  0  0  0  0  0  0
   59.5782   29.7330   47.1297 H   0  0  0  0  0  0  0  0  0  0  0  0
   60.6987   30.3482   48.4019 H   0  0  0  0  0  0  0  0  0  0  0  0
   58.3509   32.6448   49.7177 H   0  0  0  0  0  0  0  0  0  0  0  0
   59.7839   31.5948   50.1436 H   0  0  0  0  0  0  0  0  0  0  0  0
   59.8820   34.1484   49.0088 H   0  0  0  0  0  0  0  0  0  0  0  0
   61.2141   32.9060   49.0771 H   0  0  0  0  0  0  0  0  0  0  0  0
   57.1000   31.4047   45.8503 H   0  0  0  0  0  0  0  0  0  0  0  0
   58.8907   29.7092   44.1752 H   0  0  0  0  0  0  0  0  0  0  0  0
   61.0437   28.4820   44.4636 H   0  0  0  0  0  0  0  0  0  0  0  0
   61.2485   26.7084   46.2112 H   0  0  0  0  0  0  0  0  0  0  0  0
   57.1363   27.3754   47.3757 H   0  0  0  0  0  0  0  0  0  0  0  0
  1  2  2  0
  2  3  1  0
  3  4  1  0
  4  5  1  0
  5  6  2  0
  6  7  1  0
  7  8  1  0
  8  9  2  0
  8 10  2  0
  8 11  1  0
 11 12  1  0
 12 13  1  0
 13 14  1  0
 14 15  1  0
 15 16  1  0
  7 17  2  0
  2 18  1  0
 18 19  1  0
 19 20  2  0
 20 21  1  0
 21 22  2  0
 22 23  1  0
 23 24  1  0
 23 25  2  0
 17  4  1  0
 25 19  1  0
 16 11  1  0
  3 26  1  0
  3 27  1  0
  5 28  1  0
  6 29  1  0
 11 30  1  0
 12 31  1  0
 12 32  1  0
 13 33  1  0
 13 34  1  0
 15 35  1  0
 15 36  1  0
 16 37  1  0
 16 38  1  0
 17 39  1  0
 20 40  1  0
 21 41  1  0
 22 42  1  0
 25 43  1  0
M  CHG  2  11   1  18  -1
M  END
>  <UniqueID>  (91) 
85

>  <SMILES>  (91) 
O=C(Cn1ccc(S(=O)(=O)[NH+]2CCOCC2)c1)[N-]c1cccc(F)c1

>  <Energy>  (91) 
79.0324688599497

>  <Genealogy>  (91) 
O=C(Cn1ccc(S(=O)(=O)[NH+]2CCOCC2)c1)[N-]c1cccc(F)c1 (protonated)
O=C(Cn1ccc(S(=O)(=O)[NH+]2CCOCC2)c1)[N-]c1cccc(F)c1 (3D coordinates assigned)
O=C(Cn1ccc(S(=O)(=O)[NH+]2CCOCC2)c1)[N-]c1cccc(F)c1 (nonaromatic ring conformer: 79.0324688599497 kcal/mol)

>  <smiles>  (91) 
O=C(Cn1ccc(S(=O)(=O)N2CCOCC2)c1)Nc1cccc(F)c1

>  <score_type>  (91) 
oracle

>  <origin>  (91) 
adg

>  <m_score__min__energy>  (91) 
-8.2699999999999996

>  <m_primary>  (91) 
energy

$$$$
91:0
     RDKit          3D

 30 31  0  0  0  0  0  0  0  0999 V2000
   59.0100   29.7210   50.5680 C   0  0  0  0  0  0  0  0  0  0  0  0
   59.0160   29.0250   51.8680 N   0  0  0  0  0  0  0  0  0  0  0  0
   57.9170   29.0540   52.6950 C   0  0  0  0  0  0  0  0  0  0  0  0
   56.7090   29.8540   52.3860 C   0  0  0  0  0  0  0  0  0  0  0  0
   56.8390   30.9600   51.7950 O   0  0  0  0  0  0  0  0  0  0  0  0
   55.4020   29.3450   52.6940 N   0  0  0  0  0  0  0  0  0  0  0  0
   54.2050   30.1290   52.6200 C   0  0  0  0  0  0  0  0  0  0  0  0
   53.3710   30.3390   53.6630 N   0  0  0  0  0  0  0  0  0  0  0  0
   52.3040   31.1030   53.3080 C   0  0  0  0  0  0  0  0  0  0  0  0
   52.2890   31.4980   51.9730 C   0  0  0  0  0  0  0  0  0  0  0  0
   51.2620   32.3200   51.3240 C   0  0  0  0  0  0  0  0  0  0  0  0
   51.3930   32.6710   50.1220 O   0  0  0  0  0  0  0  0  0  0  0  0
   50.1360   32.7170   52.0350 O   0  0  0  0  0  0  0  0  0  0  0  0
   53.6560   30.8710   51.2140 S   0  0  0  0  0  0  0  0  0  0  0  0
   57.9260   28.3240   53.8830 C   0  0  0  0  0  0  0  0  0  0  0  0
   59.0650   27.6150   54.2400 C   0  0  0  0  0  0  0  0  0  0  0  0
   59.0700   26.9800   55.3310 O   0  0  0  0  0  0  0  0  0  0  0  0
   60.1630   27.6200   53.4250 N   0  0  0  0  0  0  0  0  0  0  0  0
   61.3860   26.9070   53.8320 C   0  0  0  0  0  0  0  0  0  0  0  0
   60.1480   28.3480   52.2610 C   0  0  0  0  0  0  0  0  0  0  0  0
   61.1880   28.3990   51.5430 O   0  0  0  0  0  0  0  0  0  0  0  0
   59.0006   30.8083   50.7343 H   0  0  0  0  0  0  0  0  0  0  0  0
   59.9106   29.4447   50.0000 H   0  0  0  0  0  0  0  0  0  0  0  0
   58.1143   29.4292   50.0000 H   0  0  0  0  0  0  0  0  0  0  0  0
   55.3100   28.3430   52.9750 H   0  0  0  0  0  0  0  0  0  0  0  0
   51.5146   31.3868   54.0195 H   0  0  0  0  0  0  0  0  0  0  0  0
   57.0380   28.3100   54.5320 H   0  0  0  0  0  0  0  0  0  0  0  0
   61.4429   26.8738   54.9300 H   0  0  0  0  0  0  0  0  0  0  0  0
   61.3619   25.8814   53.4350 H   0  0  0  0  0  0  0  0  0  0  0  0
   62.2666   27.4333   53.4350 H   0  0  0  0  0  0  0  0  0  0  0  0
  1  2  1  0
  2  3  1  0
  3  4  1  0
  4  5  2  0
  4  6  1  0
  6  7  1  0
  7  8  2  0
  8  9  1  0
  9 10  2  0
 10 11  1  0
 11 12  2  0
 11 13  1  0
 10 14  1  0
  3 15  2  0
 15 16  1  0
 16 17  2  0
 16 18  1  0
 18 19  1  0
 18 20  1  0
 20 21  2  0
 20  2  1  0
 14  7  1  0
  1 22  1  0
  1 23  1  0
  1 24  1  0
  6 25  1  0
  9 26  1  0
 15 27  1  0
 19 28  1  0
 19 29  1  0
 19 30  1  0
M  CHG  1  13  -1
M  END
>  <UniqueID>  (92) 
86

>  <SMILES>  (92) 
Cn1c(C(=O)Nc2ncc(C(=O)[O-])s2)cc(=O)n(C)c1=O

>  <Energy>  (92) 
73.31971963700155

>  <Genealogy>  (92) 
Cn1c(C(=O)Nc2ncc(C(=O)[O-])s2)cc(=O)n(C)c1=O (protonated)
Cn1c(C(=O)Nc2ncc(C(=O)[O-])s2)cc(=O)n(C)c1=O (3D coordinates assigned)
Cn1c(C(=O)Nc2ncc(C(=O)[O-])s2)cc(=O)n(C)c1=O (optimized conformer: 73.31971963700155 kcal/mol)

>  <smiles>  (92) 
Cn1c(C(=O)Nc2ncc(C(=O)O)s2)cc(=O)n(C)c1=O

>  <score_type>  (92) 
oracle

>  <origin>  (92) 
adg

>  <m_score__min__energy>  (92) 
-8.6199999999999992

>  <m_primary>  (92) 
energy

$$$$
92:0
     RDKit          3D

 59 63  0  0  0  0  0  0  0  0999 V2000
   55.1850   29.6490   43.5230 N   0  0  0  0  0  0  0  0  0  0  0  0
   56.1280   30.1200   44.2700 C   0  0  0  0  0  0  0  0  0  0  0  0
   57.0350   29.2840   44.8370 N   0  0  0  0  0  0  0  0  0  0  0  0
   58.0360   29.7460   45.6330 C   0  0  0  0  0  0  0  0  0  0  0  0
   58.9320   28.7490   46.2450 C   0  0  0  0  0  0  0  0  0  0  0  0
   59.8630   28.0610   45.4520 C   0  0  0  0  0  0  0  0  0  0  0  0
   60.6890   27.0890   46.0240 C   0  0  0  0  0  0  0  0  0  0  0  0
   60.5790   26.7890   47.3840 C   0  0  0  0  0  0  0  0  0  0  0  0
   59.6390   27.4560   48.1750 C   0  0  0  0  0  0  0  0  0  0  0  0
   58.8100   28.4290   47.6070 C   0  0  0  0  0  0  0  0  0  0  0  0
   58.1590   31.1400   45.8550 C   0  0  0  0  0  0  0  0  0  0  0  0
   57.1940   31.9840   45.2640 C   0  0  0  0  0  0  0  0  0  0  0  0
   56.2050   31.4530   44.4990 N   0  0  0  0  0  0  0  0  0  0  0  0
   57.1950   33.4680   45.5230 C   0  0  0  0  0  0  0  0  0  0  0  0
   58.6210   33.9880   45.7010 C   0  0  0  0  0  0  0  0  0  0  0  0
   59.3090   33.2100   46.7400 N   0  0  0  0  0  0  0  0  0  0  0  0
   59.9580   33.8580   47.8980 C   0  0  1  0  0  0  0  0  0  0  0  0
   59.2730   33.4910   49.2020 C   0  0  0  0  0  0  0  0  0  0  0  0
   59.4160   34.2220   50.2170 O   0  0  0  0  0  0  0  0  0  0  0  0
   58.4340   32.3340   49.3070 N   0  0  0  0  0  0  0  0  0  0  0  0
   58.8750   31.0240   49.7780 C   0  0  0  0  0  0  0  0  0  0  0  0
   58.4430   30.8050   51.2340 C   0  0  1  0  0  0  0  0  0  0  0  0
   58.3780   32.1110   52.0270 C   0  0  0  0  0  0  0  0  0  0  0  0
   56.9140   32.3010   52.2790 C   0  0  0  0  0  0  0  0  0  0  0  0
   56.3650   30.8990   52.1500 C   0  0  0  0  0  0  0  0  0  0  0  0
   57.1790   30.1740   51.2610 O   0  0  0  0  0  0  0  0  0  0  0  0
   61.4490   33.5690   47.8930 C   0  0  0  0  0  0  0  0  0  0  0  0
   62.2330   33.6700   46.7250 C   0  0  0  0  0  0  0  0  0  0  0  0
   63.6110   33.4370   46.7760 C   0  0  0  0  0  0  0  0  0  0  0  0
   64.2230   33.1130   47.9880 C   0  0  0  0  0  0  0  0  0  0  0  0
   63.4600   33.0250   49.1540 C   0  0  0  0  0  0  0  0  0  0  0  0
   62.0820   33.2580   49.1090 C   0  0  0  0  0  0  0  0  0  0  0  0
   59.2660   31.7740   46.6290 C   0  0  0  0  0  0  0  0  0  0  0  0
   60.1720   31.0790   47.1610 O   0  0  0  0  0  0  0  0  0  0  0  0
   55.3550   29.3900   42.5250 H   0  0  0  0  0  0  0  0  0  0  0  0
   59.9430   28.2869   44.3784 H   0  0  0  0  0  0  0  0  0  0  0  0
   61.4264   26.5598   45.4026 H   0  0  0  0  0  0  0  0  0  0  0  0
   61.2329   26.0269   47.8330 H   0  0  0  0  0  0  0  0  0  0  0  0
   59.5512   27.2155   49.2448 H   0  0  0  0  0  0  0  0  0  0  0  0
   58.0619   28.9439   48.2276 H   0  0  0  0  0  0  0  0  0  0  0  0
   56.7273   33.9829   44.6709 H   0  0  0  0  0  0  0  0  0  0  0  0
   56.6307   33.6646   46.4465 H   0  0  0  0  0  0  0  0  0  0  0  0
   59.1664   33.8905   44.7507 H   0  0  0  0  0  0  0  0  0  0  0  0
   58.5867   35.0454   46.0023 H   0  0  0  0  0  0  0  0  0  0  0  0
   59.8439   34.9484   47.8081 H   0  0  0  0  0  0  0  0  0  0  0  0
   58.4281   30.2424   49.1460 H   0  0  0  0  0  0  0  0  0  0  0  0
   59.9724   30.9754   49.7206 H   0  0  0  0  0  0  0  0  0  0  0  0
   59.2025   30.1676   51.7104 H   0  0  0  0  0  0  0  0  0  0  0  0
   58.9308   32.0228   52.9739 H   0  0  0  0  0  0  0  0  0  0  0  0
   58.8317   32.9579   51.4914 H   0  0  0  0  0  0  0  0  0  0  0  0
   56.7349   32.7051   53.2863 H   0  0  0  0  0  0  0  0  0  0  0  0
   56.4436   33.0171   51.5891 H   0  0  0  0  0  0  0  0  0  0  0  0
   56.3658   30.4095   53.1351 H   0  0  0  0  0  0  0  0  0  0  0  0
   55.3339   30.9348   51.7684 H   0  0  0  0  0  0  0  0  0  0  0  0
   61.7579   33.9335   45.7685 H   0  0  0  0  0  0  0  0  0  0  0  0
   64.2140   33.5092   45.8589 H   0  0  0  0  0  0  0  0  0  0  0  0
   65.3065   32.9270   48.0245 H   0  0  0  0  0  0  0  0  0  0  0  0
   63.9435   32.7721   50.1091 H   0  0  0  0  0  0  0  0  0  0  0  0
   61.4882   33.1974   50.0330 H   0  0  0  0  0  0  0  0  0  0  0  0
  1  2  2  3
  2  3  1  0
  3  4  2  0
  4  5  1  0
  5  6  2  0
  6  7  1  0
  7  8  2  0
  8  9  1  0
  9 10  2  0
  4 11  1  0
 11 12  2  0
 12 13  1  0
 12 14  1  0
 14 15  1  0
 15 16  1  0
 16 17  1  0
 17 18  1  0
 18 19  2  0
 18 20  1  0
 20 21  1  0
 21 22  1  0
 22 23  1  0
 23 24  1  0
 24 25  1  0
 25 26  1  0
 17 27  1  0
 27 28  2  0
 28 29  1  0
 29 30  2  0
 30 31  1  0
 31 32  2  0
 16 33  1  0
 33 34  2  0
 13  2  1  0
 26 22  1  0
 32 27  1  0
 10  5  1  0
 33 11  1  0
  1 35  1  0
  6 36  1  0
  7 37  1  0
  8 38  1  0
  9 39  1  0
 10 40  1  0
 14 41  1  0
 14 42  1  0
 15 43  1  0
 15 44  1  0
 17 45  1  6
 21 46  1  0
 21 47  1  0
 22 48  1  1
 23 49  1  0
 23 50  1  0
 24 51  1  0
 24 52  1  0
 25 53  1  0
 25 54  1  0
 28 55  1  0
 29 56  1  0
 30 57  1  0
 31 58  1  0
 32 59  1  0
M  CHG  2  13  -1  20  -1
M  END
>  <UniqueID>  (93) 
87

>  <SMILES>  (93) 
N=c1nc(-c2ccccc2)c2c([n-]1)CCN([C@@H](C(=O)[N-]C[C@H]1CCCO1)c1ccccc1)C2=O

>  <Energy>  (93) 
73.90938419923283

>  <Genealogy>  (93) 
N=c1nc(-c2ccccc2)c2c([n-]1)CCN(C(C(=O)[N-]CC1CCCO1)c1ccccc1)C2=O (protonated)
N=c1nc(-c2ccccc2)c2c([n-]1)CCN([C@@H](C(=O)[N-]C[C@H]1CCCO1)c1ccccc1)C2=O (chirality)
N=c1nc(-c2ccccc2)c2c([n-]1)CCN([C@@H](C(=O)[N-]C[C@H]1CCCO1)c1ccccc1)C2=O (3D coordinates assigned)
N=c1nc(-c2ccccc2)c2c([n-]1)CCN([C@@H](C(=O)[N-]C[C@H]1CCCO1)c1ccccc1)C2=O (nonaromatic ring conformer: 73.90938419923283 kcal/mol)

>  <smiles>  (93) 
N=c1nc(-c2ccccc2)c2c([nH]1)CCN(C(C(=O)NCC1CCCO1)c1ccccc1)C2=O

>  <score_type>  (93) 
oracle

>  <origin>  (93) 
adg

>  <m_score__min__energy>  (93) 
-12.779999999999999

>  <m_primary>  (93) 
energy

$$$$
93:0
     RDKit          3D

 25 27  0  0  0  0  0  0  0  0999 V2000
   55.8700   29.6070   42.7790 O   0  0  0  0  0  0  0  0  0  0  0  0
   55.9950   29.7480   44.0240 C   0  0  0  0  0  0  0  0  0  0  0  0
   55.1520   29.0490   44.8810 O   0  0  0  0  0  0  0  0  0  0  0  0
   57.0210   30.6430   44.5710 C   0  0  0  0  0  0  0  0  0  0  0  0
   57.0660   32.0250   44.4210 C   0  0  0  0  0  0  0  0  0  0  0  0
   58.1680   32.6170   45.0570 C   0  0  0  0  0  0  0  0  0  0  0  0
   59.0080   31.6920   45.6880 C   0  0  0  0  0  0  0  0  0  0  0  0
   58.3530   30.1530   45.4700 S   0  0  0  0  0  0  0  0  0  0  0  0
   60.2440   32.0160   46.4420 C   0  0  0  0  0  0  0  0  0  0  0  0
   61.1310   30.9970   46.8370 C   0  0  0  0  0  0  0  0  0  0  0  0
   62.2900   31.3070   47.5530 C   0  0  0  0  0  0  0  0  0  0  0  0
   62.5750   32.6330   47.8880 C   0  0  0  0  0  0  0  0  0  0  0  0
   61.7010   33.6530   47.5060 C   0  0  0  0  0  0  0  0  0  0  0  0
   60.5400   33.3510   46.7820 C   0  0  0  0  0  0  0  0  0  0  0  0
   59.4300   34.6390   46.3360 S   0  0  0  0  0  0  0  0  0  0  0  0
   58.5200   34.9480   47.4920 O   0  0  0  0  0  0  0  0  0  0  0  0
   60.1940   35.8740   45.9450 O   0  0  0  0  0  0  0  0  0  0  0  0
   58.4710   34.0830   44.9420 C   0  0  0  0  0  0  0  0  0  0  0  0
   56.3127   32.5971   43.8596 H   0  0  0  0  0  0  0  0  0  0  0  0
   60.9104   29.9503   46.5805 H   0  0  0  0  0  0  0  0  0  0  0  0
   62.9800   30.5048   47.8538 H   0  0  0  0  0  0  0  0  0  0  0  0
   63.4878   32.8736   48.4527 H   0  0  0  0  0  0  0  0  0  0  0  0
   61.9246   34.6961   47.7742 H   0  0  0  0  0  0  0  0  0  0  0  0
   57.5262   34.6453   44.9064 H   0  0  0  0  0  0  0  0  0  0  0  0
   59.0513   34.2531   44.0231 H   0  0  0  0  0  0  0  0  0  0  0  0
  1  2  2  0
  2  3  1  0
  2  4  1  0
  4  5  2  0
  5  6  1  0
  6  7  2  0
  7  8  1  0
  7  9  1  0
  9 10  2  0
 10 11  1  0
 11 12  2  0
 12 13  1  0
 13 14  2  0
 14 15  1  0
 15 16  2  0
 15 17  2  0
 15 18  1  0
  8  4  1  0
 14  9  1  0
 18  6  1  0
  5 19  1  0
 10 20  1  0
 11 21  1  0
 12 22  1  0
 13 23  1  0
 18 24  1  0
 18 25  1  0
M  CHG  1   3  -1
M  END
>  <UniqueID>  (94) 
88

>  <SMILES>  (94) 
O=C([O-])c1cc2c(s1)-c1ccccc1S(=O)(=O)C2

>  <Energy>  (94) 
55.01024843944501

>  <Genealogy>  (94) 
O=C([O-])c1cc2c(s1)-c1ccccc1S(=O)(=O)C2 (protonated)
O=C([O-])c1cc2c(s1)-c1ccccc1S(=O)(=O)C2 (3D coordinates assigned)
O=C([O-])c1cc2c(s1)-c1ccccc1S(=O)(=O)C2 (nonaromatic ring conformer: 55.01024843944501 kcal/mol)

>  <smiles>  (94) 
O=C(O)c1cc2c(s1)-c1ccccc1S(=O)(=O)C2

>  <score_type>  (94) 
oracle

>  <origin>  (94) 
adg

>  <m_score__min__energy>  (94) 
-9.7400000000000002

>  <m_primary>  (94) 
energy

$$$$
94:0
     RDKit          3D

 42 44  0  0  0  0  0  0  0  0999 V2000
   64.8420   32.7870   49.4270 C   0  0  0  0  0  0  0  0  0  0  0  0
   63.6150   33.1530   48.7500 C   0  0  0  0  0  0  0  0  0  0  0  0
   63.4480   33.1810   46.9400 S   0  0  0  0  0  0  0  0  0  0  0  0
   61.7300   33.7090   46.9790 C   0  0  0  0  0  0  0  0  0  0  0  0
   60.8580   33.9660   45.9870 N   0  0  0  0  0  0  0  0  0  0  0  0
   59.6080   34.3560   46.2670 C   0  0  0  0  0  0  0  0  0  0  0  0
   58.6020   34.6640   45.2180 C   0  0  0  0  0  0  0  0  0  0  0  0
   57.2970   33.3980   45.3550 S   0  0  0  0  0  0  0  0  0  0  0  0
   57.5740   32.0610   44.2290 C   0  0  0  0  0  0  0  0  0  0  0  0
   57.3240   30.7300   44.7700 C   0  0  0  0  0  0  0  0  0  0  0  0
   56.0980   30.3200   44.5650 O   0  0  0  0  0  0  0  0  0  0  0  0
   58.1620   29.8110   45.4700 C   0  0  0  0  0  0  0  0  0  0  0  0
   58.2400   28.4510   45.2700 C   0  0  0  0  0  0  0  0  0  0  0  0
   59.0760   27.6230   46.0300 C   0  0  0  0  0  0  0  0  0  0  0  0
   59.8640   28.1420   47.0190 C   0  0  0  0  0  0  0  0  0  0  0  0
   59.8070   29.4890   47.2370 C   0  0  0  0  0  0  0  0  0  0  0  0
   60.6600   30.0750   48.3150 C   0  0  0  0  0  0  0  0  0  0  0  0
   61.7580   30.6780   47.7380 F   0  0  0  0  0  0  0  0  0  0  0  0
   61.1000   29.1040   49.1730 F   0  0  0  0  0  0  0  0  0  0  0  0
   59.9470   31.0570   48.9810 F   0  0  0  0  0  0  0  0  0  0  0  0
   58.9850   30.2990   46.4910 C   0  0  0  0  0  0  0  0  0  0  0  0
   59.2460   34.4830   47.5410 N   0  0  0  0  0  0  0  0  0  0  0  0
   60.0830   34.2370   48.5430 C   0  0  0  0  0  0  0  0  0  0  0  0
   59.6310   34.3910   49.7130 O   0  0  0  0  0  0  0  0  0  0  0  0
   61.4160   33.8220   48.3280 C   0  0  0  0  0  0  0  0  0  0  0  0
   62.3660   33.5430   49.2170 C   0  0  0  0  0  0  0  0  0  0  0  0
   62.1560   33.6290   50.7220 C   0  0  0  0  0  0  0  0  0  0  0  0
   64.6881   32.8329   50.5152 H   0  0  0  0  0  0  0  0  0  0  0  0
   65.1282   31.7644   49.1400 H   0  0  0  0  0  0  0  0  0  0  0  0
   65.6416   33.4857   49.1400 H   0  0  0  0  0  0  0  0  0  0  0  0
   61.1720   33.8560   44.9990 H   0  0  0  0  0  0  0  0  0  0  0  0
   58.1774   35.6653   45.3824 H   0  0  0  0  0  0  0  0  0  0  0  0
   59.0586   34.6547   44.2173 H   0  0  0  0  0  0  0  0  0  0  0  0
   56.9135   32.2049   43.3612 H   0  0  0  0  0  0  0  0  0  0  0  0
   58.6444   32.0915   43.9773 H   0  0  0  0  0  0  0  0  0  0  0  0
   57.6213   27.9967   44.4821 H   0  0  0  0  0  0  0  0  0  0  0  0
   59.0987   26.5419   45.8285 H   0  0  0  0  0  0  0  0  0  0  0  0
   60.5220   27.4964   47.6192 H   0  0  0  0  0  0  0  0  0  0  0  0
   58.9735   31.3778   46.7058 H   0  0  0  0  0  0  0  0  0  0  0  0
   63.0544   33.2611   51.2392 H   0  0  0  0  0  0  0  0  0  0  0  0
   61.9713   34.6752   51.0073 H   0  0  0  0  0  0  0  0  0  0  0  0
   61.2905   33.0129   51.0073 H   0  0  0  0  0  0  0  0  0  0  0  0
  1  2  1  0
  2  3  1  0
  3  4  1  0
  4  5  1  0
  5  6  1  0
  6  7  1  0
  7  8  1  0
  8  9  1  0
  9 10  1  0
 10 11  2  0
 10 12  1  0
 12 13  2  0
 13 14  1  0
 14 15  2  0
 15 16  1  0
 16 17  1  0
 17 18  1  0
 17 19  1  0
 17 20  1  0
 16 21  2  0
  6 22  2  0
 22 23  1  0
 23 24  2  0
 23 25  1  0
 25 26  1  0
 26 27  1  0
 26  2  2  0
 25  4  2  0
 21 12  1  0
  1 28  1  0
  1 29  1  0
  1 30  1  0
  5 31  1  0
  7 32  1  0
  7 33  1  0
  9 34  1  0
  9 35  1  0
 13 36  1  0
 14 37  1  0
 15 38  1  0
 21 39  1  0
 27 40  1  0
 27 41  1  0
 27 42  1  0
M  END
>  <smiles>  (95) 
Cc1sc2[nH]c(CSCC(=O)c3cccc(C(F)(F)F)c3)nc(=O)c2c1C

>  <score_type>  (95) 
oracle

>  <origin>  (95) 
adg

>  <m_score__min__energy>  (95) 
-8.5199999999999996

>  <m_primary>  (95) 
energy

$$$$
95:0
     RDKit          3D

 41 43  0  0  0  0  0  0  0  0999 V2000
   57.3200   35.2617   44.9343 H   0  0  0  0  0  0  0  0  0  0  0  0
   57.8940   34.4170   45.3430 C   0  0  0  0  0  0  0  0  0  0  0  0
   59.2790   34.5150   45.4790 C   0  0  0  0  0  0  0  0  0  0  0  0
   59.7959   35.4370   45.1746 H   0  0  0  0  0  0  0  0  0  0  0  0
   60.0120   33.4450   46.0010 C   0  0  0  0  0  0  0  0  0  0  0  0
   61.1047   33.5285   46.0957 H   0  0  0  0  0  0  0  0  0  0  0  0
   59.3640   32.2580   46.4080 C   0  0  0  0  0  0  0  0  0  0  0  0
   60.1450   31.0640   46.9630 C   0  0  1  0  0  0  0  0  0  0  0  0
   61.6410   31.4260   47.1270 C   0  0  0  0  0  0  0  0  0  0  0  0
   61.9047   32.1663   46.3573 H   0  0  0  0  0  0  0  0  0  0  0  0
   62.2093   30.4898   47.0245 H   0  0  0  0  0  0  0  0  0  0  0  0
   61.9910   32.0110   48.4990 C   0  0  0  0  0  0  0  0  0  0  0  0
   61.5979   31.3540   49.2888 H   0  0  0  0  0  0  0  0  0  0  0  0
   63.0839   32.0884   48.5966 H   0  0  0  0  0  0  0  0  0  0  0  0
   61.5425   33.0106   48.5966 H   0  0  0  0  0  0  0  0  0  0  0  0
   59.5920   30.6260   48.2530 N   0  0  0  0  0  0  0  0  0  0  0  0
   59.0660   29.3170   48.0790 C   0  0  0  0  0  0  0  0  0  0  0  0
   58.5300   28.6640   49.0120 O   0  0  0  0  0  0  0  0  0  0  0  0
   59.2260   28.8160   46.7650 N   0  0  0  0  0  0  0  0  0  0  0  0
   59.0400   27.4350   46.3220 C   0  0  0  0  0  0  0  0  0  0  0  0
   59.3527   27.3530   45.2706 H   0  0  0  0  0  0  0  0  0  0  0  0
   59.6483   26.7838   46.9669 H   0  0  0  0  0  0  0  0  0  0  0  0
   57.6000   26.9990   46.4390 C   0  0  0  0  0  0  0  0  0  0  0  0
   57.2760   26.1640   47.3250 O   0  0  0  0  0  0  0  0  0  0  0  0
   56.5650   27.5060   45.5770 N   0  0  0  0  0  0  0  0  0  0  0  0
   56.4840   28.6780   45.0160 C   0  0  0  0  0  0  0  0  0  0  0  0
   55.5070   29.5800   45.2330 N   0  0  0  0  0  0  0  0  0  0  0  0
   55.7810   30.6040   44.4770 O   0  0  0  0  0  0  0  0  0  0  0  0
   56.8850   30.4060   43.7930 C   0  0  0  0  0  0  0  0  0  0  0  0
   57.4560   31.3720   42.8100 C   0  0  0  0  0  0  0  0  0  0  0  0
   57.9441   32.1977   43.3485 H   0  0  0  0  0  0  0  0  0  0  0  0
   58.1957   30.8583   42.1783 H   0  0  0  0  0  0  0  0  0  0  0  0
   56.6493   31.7723   42.1783 H   0  0  0  0  0  0  0  0  0  0  0  0
   57.3890   29.1590   44.0970 C   0  0  0  0  0  0  0  0  0  0  0  0
   58.2916   28.6694   43.7025 H   0  0  0  0  0  0  0  0  0  0  0  0
   59.9390   29.8440   46.0910 C   0  0  0  0  0  0  0  0  0  0  0  0
   60.3780   29.7150   44.9150 O   0  0  0  0  0  0  0  0  0  0  0  0
   57.9630   32.1730   46.2490 C   0  0  0  0  0  0  0  0  0  0  0  0
   57.4376   31.2515   46.5403 H   0  0  0  0  0  0  0  0  0  0  0  0
   57.2370   33.2460   45.7260 C   0  0  0  0  0  0  0  0  0  0  0  0
   56.1453   33.1681   45.6157 H   0  0  0  0  0  0  0  0  0  0  0  0
  1  2  1  0
  2  3  2  0
  3  4  1  0
  3  5  1  0
  5  6  1  0
  5  7  2  0
  7  8  1  0
  8  9  1  1
  9 10  1  0
  9 11  1  0
  9 12  1  0
 12 13  1  0
 12 14  1  0
 12 15  1  0
  8 16  1  0
 16 17  1  0
 17 18  2  0
 17 19  1  0
 19 20  1  0
 20 21  1  0
 20 22  1  0
 20 23  1  0
 23 24  2  0
 23 25  1  0
 25 26  2  0
 26 27  1  0
 27 28  1  0
 28 29  1  0
 29 30  1  0
 30 31  1  0
 30 32  1  0
 30 33  1  0
 29 34  2  0
 34 35  1  0
 19 36  1  0
 36 37  2  0
  7 38  1  0
 38 39  1  0
 38 40  2  0
 40 41  1  0
 40  2  1  0
 36  8  1  0
 34 26  1  0
M  CHG  2  16  -1  27  -1
M  END
>  <UniqueID>  (96) 
89

>  <SMILES>  (96) 
CC[C@]1(c2ccccc2)[N-]C(=O)N(CC(=O)/N=c2/cc(C)o[n-]2)C1=O

>  <Energy>  (96) 
95.58384635873968

>  <Genealogy>  (96) 
CCC1(c2ccccc2)[N-]C(=O)N(CC(=O)N=c2cc(C)o[n-]2)C1=O (protonated)
CC[C@]1(c2ccccc2)[N-]C(=O)N(CC(=O)N=c2cc(C)o[n-]2)C1=O (chirality)
CC[C@]1(c2ccccc2)[N-]C(=O)N(CC(=O)/N=c2/cc(C)o[n-]2)C1=O (cis-trans isomerization)
CC[C@]1(c2ccccc2)[N-]C(=O)N(CC(=O)/N=c2/cc(C)o[n-]2)C1=O (3D coordinates assigned)
CC[C@]1(c2ccccc2)[N-]C(=O)N(CC(=O)/N=c2/cc(C)o[n-]2)C1=O (nonaromatic ring conformer: 95.58384635873968 kcal/mol)

>  <smiles>  (96) 
CCC1(c2ccccc2)NC(=O)N(CC(=O)N=c2cc(C)o[nH]2)C1=O

>  <score_type>  (96) 
oracle

>  <origin>  (96) 
adg

>  <m_score__min__energy>  (96) 
-11.74

>  <m_primary>  (96) 
energy

$$$$
96:0
     RDKit          3D

 38 40  0  0  0  0  0  0  0  0999 V2000
   58.0540   31.2850   43.5270 C   0  0  0  0  0  0  0  0  0  0  0  0
   57.2030   31.1220   44.7820 C   0  0  0  0  0  0  0  0  0  0  0  0
   57.5870   29.9070   45.5120 N   0  0  0  0  0  0  0  0  0  0  0  0
   56.9200   28.6620   45.2010 C   0  0  0  0  0  0  0  0  0  0  0  0
   55.6650   28.6430   45.0780 O   0  0  0  0  0  0  0  0  0  0  0  0
   57.6750   27.3680   45.0310 C   0  0  0  0  0  0  0  0  0  0  0  0
   57.2250   26.3360   46.0260 C   0  0  0  0  0  0  0  0  0  0  0  0
   58.0600   25.7040   46.8720 N   0  0  0  0  0  0  0  0  0  0  0  0
   57.2420   24.8980   47.5790 C   0  0  0  0  0  0  0  0  0  0  0  0
   57.6630   24.1280   48.4820 O   0  0  0  0  0  0  0  0  0  0  0  0
   55.9380   24.9820   47.2460 N   0  0  0  0  0  0  0  0  0  0  0  0
   55.9360   25.9000   46.2660 C   0  0  0  0  0  0  0  0  0  0  0  0
   54.7740   26.3200   45.6220 O   0  0  0  0  0  0  0  0  0  0  0  0
   58.6870   29.9520   46.4460 C   0  0  0  0  0  0  0  0  0  0  0  0
   59.6130   30.9340   46.4610 N   0  0  0  0  0  0  0  0  0  0  0  0
   60.5530   30.7550   47.4300 C   0  0  0  0  0  0  0  0  0  0  0  0
   61.6710   31.7170   47.6060 C   0  0  0  0  0  0  0  0  0  0  0  0
   62.7070   31.4860   48.5350 C   0  0  0  0  0  0  0  0  0  0  0  0
   63.7530   32.4030   48.6740 C   0  0  0  0  0  0  0  0  0  0  0  0
   63.7830   33.5580   47.8910 C   0  0  0  0  0  0  0  0  0  0  0  0
   62.7680   33.7980   46.9630 C   0  0  0  0  0  0  0  0  0  0  0  0
   61.7190   32.8850   46.8190 C   0  0  0  0  0  0  0  0  0  0  0  0
   60.3610   29.6100   48.2120 C   0  0  0  0  0  0  0  0  0  0  0  0
   58.9850   28.8210   47.6560 S   0  0  0  0  0  0  0  0  0  0  0  0
   59.0968   31.4847   43.8145 H   0  0  0  0  0  0  0  0  0  0  0  0
   58.0085   30.3618   42.9306 H   0  0  0  0  0  0  0  0  0  0  0  0
   57.6705   32.1260   42.9306 H   0  0  0  0  0  0  0  0  0  0  0  0
   57.3482   31.9964   45.4335 H   0  0  0  0  0  0  0  0  0  0  0  0
   56.1467   31.0394   44.4863 H   0  0  0  0  0  0  0  0  0  0  0  0
   57.5030   26.9841   44.0146 H   0  0  0  0  0  0  0  0  0  0  0  0
   58.7441   27.5665   45.1975 H   0  0  0  0  0  0  0  0  0  0  0  0
   54.7700   27.0930   44.9690 H   0  0  0  0  0  0  0  0  0  0  0  0
   62.6917   30.5774   49.1548 H   0  0  0  0  0  0  0  0  0  0  0  0
   64.5549   32.2137   49.4028 H   0  0  0  0  0  0  0  0  0  0  0  0
   64.6060   34.2789   48.0050 H   0  0  0  0  0  0  0  0  0  0  0  0
   62.7936   34.7070   46.3441 H   0  0  0  0  0  0  0  0  0  0  0  0
   60.9237   33.0802   46.0845 H   0  0  0  0  0  0  0  0  0  0  0  0
   60.9998   29.2833   49.0458 H   0  0  0  0  0  0  0  0  0  0  0  0
  1  2  1  0
  2  3  1  0
  3  4  1  0
  4  5  2  0
  4  6  1  0
  6  7  1  0
  7  8  1  0
  8  9  1  0
  9 10  2  0
  9 11  1  0
 11 12  1  0
 12 13  1  0
  3 14  1  0
 14 15  2  0
 15 16  1  0
 16 17  1  0
 17 18  2  0
 18 19  1  0
 19 20  2  0
 20 21  1  0
 21 22  2  0
 16 23  2  0
 23 24  1  0
 12  7  2  0
 24 14  1  0
 22 17  1  0
  1 25  1  0
  1 26  1  0
  1 27  1  0
  2 28  1  0
  2 29  1  0
  6 30  1  0
  6 31  1  0
 13 32  1  0
 18 33  1  0
 19 34  1  0
 20 35  1  0
 21 36  1  0
 22 37  1  0
 23 38  1  0
M  CHG  2   8  -1  11  -1
M  END
>  <UniqueID>  (97) 
90

>  <SMILES>  (97) 
CCN(C(=O)Cc1[n-]c(=O)[n-]c1O)c1nc(-c2ccccc2)cs1

>  <Energy>  (97) 
99.29707655816149

>  <Genealogy>  (97) 
CCN(C(=O)Cc1[n-]c(=O)[n-]c1O)c1nc(-c2ccccc2)cs1 (protonated)
CCN(C(=O)Cc1[n-]c(=O)[n-]c1O)c1nc(-c2ccccc2)cs1 (3D coordinates assigned)
CCN(C(=O)Cc1[n-]c(=O)[n-]c1O)c1nc(-c2ccccc2)cs1 (optimized conformer: 99.29707655816149 kcal/mol)

>  <smiles>  (97) 
CCN(C(=O)Cc1[nH]c(=O)[nH]c1O)c1nc(-c2ccccc2)cs1

>  <score_type>  (97) 
oracle

>  <origin>  (97) 
adg

>  <m_score__min__energy>  (97) 
-12.08

>  <m_primary>  (97) 
energy

$$$$
