0:0
     RDKit          3D

 38 39  0  0  0  0  0  0  0  0999 V2000
   56.6700   24.7470   44.7640 C   0  0  0  0  0  0  0  0  0  0  0  0
   56.5560   25.7900   45.7250 O   0  0  0  0  0  0  0  0  0  0  0  0
   57.4550   26.8600   45.8430 C   0  0  0  0  0  0  0  0  0  0  0  0
   58.0610   27.4640   44.7240 C   0  0  0  0  0  0  0  0  0  0  0  0
   58.9540   28.5270   44.8930 C   0  0  0  0  0  0  0  0  0  0  0  0
   59.2520   29.0050   46.1790 C   0  0  0  0  0  0  0  0  0  0  0  0
   60.2290   30.1320   46.3710 C   0  0  0  0  0  0  0  0  0  0  0  0
   59.6170   31.4020   45.9880 N   0  0  0  0  0  0  0  0  0  0  0  0
   60.1520   32.6690   46.3990 C   0  0  0  0  0  0  0  0  0  0  0  0
   61.1940   32.7210   47.1070 O   0  0  0  0  0  0  0  0  0  0  0  0
   59.4890   33.9390   45.9640 C   0  0  0  0  0  0  0  0  0  0  0  0
   57.6920   33.8660   46.2750 S   0  0  0  0  0  0  0  0  0  0  0  0
   57.3630   32.6870   44.9690 C   0  0  0  0  0  0  0  0  0  0  0  0
   57.8270   32.9180   43.7130 N   0  0  0  0  0  0  0  0  0  0  0  0
   57.5960   32.0330   42.7060 C   0  0  0  0  0  0  0  0  0  0  0  0
   58.0990   32.3250   41.3280 C   0  0  0  0  0  0  0  0  0  0  0  0
   56.8500   30.8770   42.9600 C   0  0  0  0  0  0  0  0  0  0  0  0
   56.3790   30.6600   44.2550 C   0  0  0  0  0  0  0  0  0  0  0  0
   55.7090   29.6290   44.5220 O   0  0  0  0  0  0  0  0  0  0  0  0
   56.6420   31.5650   45.2330 N   0  0  0  0  0  0  0  0  0  0  0  0
   58.6500   28.4000   47.2930 C   0  0  0  0  0  0  0  0  0  0  0  0
   57.7590   27.3360   47.1230 C   0  0  0  0  0  0  0  0  0  0  0  0
   56.7755   23.7819   45.2811 H   0  0  0  0  0  0  0  0  0  0  0  0
   55.7685   24.7288   44.1340 H   0  0  0  0  0  0  0  0  0  0  0  0
   57.5542   24.9240   44.1340 H   0  0  0  0  0  0  0  0  0  0  0  0
   57.8308   27.0979   43.7126 H   0  0  0  0  0  0  0  0  0  0  0  0
   59.4252   28.9909   44.0139 H   0  0  0  0  0  0  0  0  0  0  0  0
   60.5280   30.1773   47.4286 H   0  0  0  0  0  0  0  0  0  0  0  0
   61.1110   29.9537   45.7383 H   0  0  0  0  0  0  0  0  0  0  0  0
   58.7710   31.3840   45.3770 H   0  0  0  0  0  0  0  0  0  0  0  0
   59.9189   34.7817   46.5253 H   0  0  0  0  0  0  0  0  0  0  0  0
   59.6566   34.0747   44.8853 H   0  0  0  0  0  0  0  0  0  0  0  0
   59.0486   32.8763   41.3935 H   0  0  0  0  0  0  0  0  0  0  0  0
   58.2601   31.3800   40.7885 H   0  0  0  0  0  0  0  0  0  0  0  0
   57.3582   32.9335   40.7885 H   0  0  0  0  0  0  0  0  0  0  0  0
   56.6396   30.1556   42.1567 H   0  0  0  0  0  0  0  0  0  0  0  0
   58.8803   28.7647   48.3049 H   0  0  0  0  0  0  0  0  0  0  0  0
   57.2930   26.8691   48.0033 H   0  0  0  0  0  0  0  0  0  0  0  0
  1  2  1  0
  2  3  1  0
  3  4  2  0
  4  5  1  0
  5  6  2  0
  6  7  1  0
  7  8  1  0
  8  9  1  0
  9 10  2  0
  9 11  1  0
 11 12  1  0
 12 13  1  0
 13 14  2  0
 14 15  1  0
 15 16  1  0
 15 17  2  0
 17 18  1  0
 18 19  2  0
 18 20  1  0
  6 21  1  0
 21 22  2  0
 22  3  1  0
 20 13  1  0
  1 23  1  0
  1 24  1  0
  1 25  1  0
  4 26  1  0
  5 27  1  0
  7 28  1  0
  7 29  1  0
  8 30  1  0
 11 31  1  0
 11 32  1  0
 16 33  1  0
 16 34  1  0
 16 35  1  0
 17 36  1  0
 21 37  1  0
 22 38  1  0
M  CHG  1  20  -1
M  END
>  <UniqueID>  (1) 
1

>  <SMILES>  (1) 
COc1ccc(CNC(=O)CSc2nc(C)cc(=O)[n-]2)cc1

>  <Energy>  (1) 
29.39854950516077

>  <Genealogy>  (1) 
COc1ccc(CNC(=O)CSc2nc(C)cc(=O)[n-]2)cc1 (protonated)
COc1ccc(CNC(=O)CSc2nc(C)cc(=O)[n-]2)cc1 (3D coordinates assigned)
COc1ccc(CNC(=O)CSc2nc(C)cc(=O)[n-]2)cc1 (optimized conformer: 29.39854950516077 kcal/mol)

>  <smiles>  (1) 
COc1ccc(CNC(=O)CSc2nc(C)cc(=O)[nH]2)cc1

>  <score_type>  (1) 
oracle

>  <origin>  (1) 
adg

>  <m_score__min__energy>  (1) 
-9.4299999999999997

>  <m_primary>  (1) 
energy

$$$$
1:0
     RDKit          3D

 35 36  0  0  0  0  0  0  0  0999 V2000
   55.5170   28.8920   44.8840 N   0  0  0  0  0  0  0  0  0  0  0  0
   56.6540   30.0600   44.3100 S   0  0  0  0  0  0  0  0  0  0  0  0
   56.6890   30.0350   42.8070 O   0  0  0  0  0  0  0  0  0  0  0  0
   56.2270   31.4270   44.7660 O   0  0  0  0  0  0  0  0  0  0  0  0
   58.2530   29.6760   44.9400 C   0  0  0  0  0  0  0  0  0  0  0  0
   58.9710   28.5760   44.4500 C   0  0  0  0  0  0  0  0  0  0  0  0
   60.2430   28.2910   44.9520 C   0  0  0  0  0  0  0  0  0  0  0  0
   60.8120   29.1110   45.9300 C   0  0  0  0  0  0  0  0  0  0  0  0
   60.1150   30.2360   46.4010 C   0  0  0  0  0  0  0  0  0  0  0  0
   60.6880   31.1190   47.3760 N   0  0  0  0  0  0  0  0  0  0  0  0
   62.0230   31.6510   47.3670 C   0  0  0  0  0  0  0  0  0  0  0  0
   62.9420   30.9670   46.8450 O   0  0  0  0  0  0  0  0  0  0  0  0
   62.3660   32.9830   47.9710 C   0  0  0  0  0  0  0  0  0  0  0  0
   61.6770   33.1570   49.2040 O   0  0  0  0  0  0  0  0  0  0  0  0
   60.2920   33.3150   49.2880 C   0  0  0  0  0  0  0  0  0  0  0  0
   59.5740   32.4340   49.8360 O   0  0  0  0  0  0  0  0  0  0  0  0
   59.6660   34.5690   48.7670 C   0  0  0  0  0  0  0  0  0  0  0  0
   59.2390   34.3860   47.3420 C   0  0  0  0  0  0  0  0  0  0  0  0
   58.0450   33.7470   46.9740 C   0  0  0  0  0  0  0  0  0  0  0  0
   57.8630   33.6600   45.6010 C   0  0  0  0  0  0  0  0  0  0  0  0
   59.1940   34.3670   44.8520 S   0  0  0  0  0  0  0  0  0  0  0  0
   60.0110   34.7910   46.2570 C   0  0  0  0  0  0  0  0  0  0  0  0
   58.8240   30.4930   45.9270 C   0  0  0  0  0  0  0  0  0  0  0  0
   54.6670   29.4170   45.1880 H   0  0  0  0  0  0  0  0  0  0  0  0
   58.5323   27.9369   43.6696 H   0  0  0  0  0  0  0  0  0  0  0  0
   60.7982   27.4188   44.5765 H   0  0  0  0  0  0  0  0  0  0  0  0
   61.8083   28.8749   46.3321 H   0  0  0  0  0  0  0  0  0  0  0  0
   63.4501   33.0318   48.1508 H   0  0  0  0  0  0  0  0  0  0  0  0
   62.0637   33.7802   47.2759 H   0  0  0  0  0  0  0  0  0  0  0  0
   58.7869   34.8171   49.3799 H   0  0  0  0  0  0  0  0  0  0  0  0
   60.4034   35.3837   48.8170 H   0  0  0  0  0  0  0  0  0  0  0  0
   57.3226   33.3529   47.7039 H   0  0  0  0  0  0  0  0  0  0  0  0
   56.9995   33.2078   45.0912 H   0  0  0  0  0  0  0  0  0  0  0  0
   60.9850   35.2994   46.3103 H   0  0  0  0  0  0  0  0  0  0  0  0
   58.2527   31.3417   46.3311 H   0  0  0  0  0  0  0  0  0  0  0  0
  1  2  1  0
  2  3  2  0
  2  4  2  0
  2  5  1  0
  5  6  2  0
  6  7  1  0
  7  8  2  0
  8  9  1  0
  9 10  1  0
 10 11  1  0
 11 12  2  0
 11 13  1  0
 13 14  1  0
 14 15  1  0
 15 16  2  0
 15 17  1  0
 17 18  1  0
 18 19  1  0
 19 20  2  0
 20 21  1  0
 21 22  1  0
  9 23  2  0
 23  5  1  0
 22 18  2  0
  1 24  1  0
  6 25  1  0
  7 26  1  0
  8 27  1  0
 13 28  1  0
 13 29  1  0
 17 30  1  0
 17 31  1  0
 19 32  1  0
 20 33  1  0
 22 34  1  0
 23 35  1  0
M  CHG  2   1  -1  10  -1
M  END
>  <UniqueID>  (2) 
2

>  <SMILES>  (2) 
[NH-]S(=O)(=O)c1cccc([N-]C(=O)COC(=O)Cc2ccsc2)c1

>  <Energy>  (2) 
58.29784088877545

>  <Genealogy>  (2) 
[NH-]S(=O)(=O)c1cccc([N-]C(=O)COC(=O)Cc2ccsc2)c1 (protonated)
[NH-]S(=O)(=O)c1cccc([N-]C(=O)COC(=O)Cc2ccsc2)c1 (3D coordinates assigned)
[NH-]S(=O)(=O)c1cccc([N-]C(=O)COC(=O)Cc2ccsc2)c1 (optimized conformer: 58.29784088877545 kcal/mol)

>  <smiles>  (2) 
NS(=O)(=O)c1cccc(NC(=O)COC(=O)Cc2ccsc2)c1

>  <score_type>  (2) 
oracle

>  <origin>  (2) 
adg

>  <m_score__min__energy>  (2) 
-11.91

>  <m_primary>  (2) 
energy

$$$$
2:0
     RDKit          3D

 50 52  0  0  0  0  0  0  0  0999 V2000
   63.0660   32.4590   47.4100 O   0  0  0  0  0  0  0  0  0  0  0  0
   62.1580   32.1710   48.2400 C   0  0  0  0  0  0  0  0  0  0  0  0
   62.2880   30.9600   49.1190 C   0  0  0  0  0  0  0  0  0  0  0  0
   61.1220   30.7930   49.9810 N   0  0  0  0  0  0  0  0  0  0  0  0
   59.8100   30.4880   49.4910 C   0  0  0  0  0  0  0  0  0  0  0  0
   58.8380   31.2310   49.8040 O   0  0  0  0  0  0  0  0  0  0  0  0
   59.5930   29.3070   48.6240 C   0  0  0  0  0  0  0  0  0  0  0  0
   60.2780   28.1070   48.8700 C   0  0  0  0  0  0  0  0  0  0  0  0
   60.0770   26.9970   48.0490 C   0  0  0  0  0  0  0  0  0  0  0  0
   59.1830   27.0560   46.9740 C   0  0  0  0  0  0  0  0  0  0  0  0
   59.0010   25.6030   46.0010 Cl  0  0  0  0  0  0  0  0  0  0  0  0
   58.4720   28.2520   46.7180 C   0  0  0  0  0  0  0  0  0  0  0  0
   57.3030   28.4170   45.3880 S   0  0  0  0  0  0  0  0  0  0  0  0
   56.1230   27.5130   45.6070 O   0  0  0  0  0  0  0  0  0  0  0  0
   57.9690   27.9770   44.1130 O   0  0  0  0  0  0  0  0  0  0  0  0
   56.7420   30.0660   45.1840 N   0  0  0  0  0  0  0  0  0  0  0  0
   57.8540   30.9900   44.9470 C   0  0  0  0  0  0  0  0  0  0  0  0
   57.9910   31.1900   43.4440 C   0  0  0  0  0  0  0  0  0  0  0  0
   56.6830   30.7070   42.8470 C   0  0  0  0  0  0  0  0  0  0  0  0
   55.8590   30.1890   44.0190 C   0  0  0  0  0  0  0  0  0  0  0  0
   58.6990   29.3690   47.5400 C   0  0  0  0  0  0  0  0  0  0  0  0
   60.9790   32.9820   48.3250 N   0  0  0  0  0  0  0  0  0  0  0  0
   60.8060   34.1690   47.4910 C   0  0  0  0  0  0  0  0  0  0  0  0
   59.4760   34.1340   46.7890 C   0  0  0  0  0  0  0  0  0  0  0  0
   58.3650   33.5380   47.4100 C   0  0  0  0  0  0  0  0  0  0  0  0
   57.1370   33.4710   46.7430 C   0  0  0  0  0  0  0  0  0  0  0  0
   57.0140   33.9860   45.4480 C   0  0  0  0  0  0  0  0  0  0  0  0
   58.1190   34.5650   44.8170 C   0  0  0  0  0  0  0  0  0  0  0  0
   59.3470   34.6360   45.4820 C   0  0  0  0  0  0  0  0  0  0  0  0
   62.3931   30.0679   48.4841 H   0  0  0  0  0  0  0  0  0  0  0  0
   63.1724   31.0934   49.7593 H   0  0  0  0  0  0  0  0  0  0  0  0
   60.9781   28.0412   49.7159 H   0  0  0  0  0  0  0  0  0  0  0  0
   60.6271   26.0656   48.2488 H   0  0  0  0  0  0  0  0  0  0  0  0
   57.6476   31.9544   45.4341 H   0  0  0  0  0  0  0  0  0  0  0  0
   58.7858   30.5794   45.3632 H   0  0  0  0  0  0  0  0  0  0  0  0
   58.1499   32.2533   43.2111 H   0  0  0  0  0  0  0  0  0  0  0  0
   58.8519   30.6393   43.0371 H   0  0  0  0  0  0  0  0  0  0  0  0
   56.1603   31.5362   42.3479 H   0  0  0  0  0  0  0  0  0  0  0  0
   56.8470   29.9257   42.0903 H   0  0  0  0  0  0  0  0  0  0  0  0
   55.0450   30.8945   44.2420 H   0  0  0  0  0  0  0  0  0  0  0  0
   55.4202   29.2113   43.7711 H   0  0  0  0  0  0  0  0  0  0  0  0
   58.1676   30.3093   47.3317 H   0  0  0  0  0  0  0  0  0  0  0  0
   60.2270   32.7020   48.9980 H   0  0  0  0  0  0  0  0  0  0  0  0
   60.8566   35.0666   48.1248 H   0  0  0  0  0  0  0  0  0  0  0  0
   61.6052   34.1909   46.7354 H   0  0  0  0  0  0  0  0  0  0  0  0
   58.4613   33.1227   48.4240 H   0  0  0  0  0  0  0  0  0  0  0  0
   56.2675   33.0130   47.2372 H   0  0  0  0  0  0  0  0  0  0  0  0
   56.0471   33.9353   44.9259 H   0  0  0  0  0  0  0  0  0  0  0  0
   58.0224   34.9649   43.7968 H   0  0  0  0  0  0  0  0  0  0  0  0
   60.2160   35.0866   44.9803 H   0  0  0  0  0  0  0  0  0  0  0  0
  1  2  2  0
  2  3  1  0
  3  4  1  0
  4  5  1  0
  5  6  2  0
  5  7  1  0
  7  8  2  0
  8  9  1  0
  9 10  2  0
 10 11  1  0
 10 12  1  0
 12 13  1  0
 13 14  2  0
 13 15  2  0
 13 16  1  0
 16 17  1  0
 17 18  1  0
 18 19  1  0
 19 20  1  0
 12 21  2  0
  2 22  1  0
 22 23  1  0
 23 24  1  0
 24 25  2  0
 25 26  1  0
 26 27  2  0
 27 28  1  0
 28 29  2  0
 21  7  1  0
 29 24  1  0
 20 16  1  0
  3 30  1  0
  3 31  1  0
  8 32  1  0
  9 33  1  0
 17 34  1  0
 17 35  1  0
 18 36  1  0
 18 37  1  0
 19 38  1  0
 19 39  1  0
 20 40  1  0
 20 41  1  0
 21 42  1  0
 22 43  1  0
 23 44  1  0
 23 45  1  0
 25 46  1  0
 26 47  1  0
 27 48  1  0
 28 49  1  0
 29 50  1  0
M  CHG  1   4  -1
M  END
>  <UniqueID>  (3) 
3

>  <SMILES>  (3) 
O=C(C[N-]C(=O)c1ccc(Cl)c(S(=O)(=O)N2CCCC2)c1)NCc1ccccc1

>  <Energy>  (3) 
50.61827174921437

>  <Genealogy>  (3) 
O=C(C[N-]C(=O)c1ccc(Cl)c(S(=O)(=O)N2CCCC2)c1)NCc1ccccc1 (protonated)
O=C(C[N-]C(=O)c1ccc(Cl)c(S(=O)(=O)N2CCCC2)c1)NCc1ccccc1 (3D coordinates assigned)
O=C(C[N-]C(=O)c1ccc(Cl)c(S(=O)(=O)N2CCCC2)c1)NCc1ccccc1 (nonaromatic ring conformer: 50.61827174921437 kcal/mol)

>  <smiles>  (3) 
O=C(CNC(=O)c1ccc(Cl)c(S(=O)(=O)N2CCCC2)c1)NCc1ccccc1

>  <score_type>  (3) 
oracle

>  <origin>  (3) 
adg

>  <m_score__min__energy>  (3) 
-10.66

>  <m_primary>  (3) 
energy

$$$$
3:0
     RDKit          3D

 44 46  0  0  0  0  0  0  0  0999 V2000
   61.9880   32.0720   51.7990 C   0  0  0  0  0  0  0  0  0  0  0  0
   62.2730   33.4950   51.3140 C   0  0  0  0  0  0  0  0  0  0  0  0
   62.5930   33.4930   49.8660 N   0  0  0  0  0  0  0  0  0  0  0  0
   63.9150   33.4240   49.4860 C   0  0  0  0  0  0  0  0  0  0  0  0
   64.8330   33.3720   50.3530 O   0  0  0  0  0  0  0  0  0  0  0  0
   64.2620   33.4160   48.1720 N   0  0  0  0  0  0  0  0  0  0  0  0
   63.3320   33.4940   47.1900 C   0  0  0  0  0  0  0  0  0  0  0  0
   63.7020   33.4800   45.9840 O   0  0  0  0  0  0  0  0  0  0  0  0
   61.9740   33.5980   47.5240 C   0  0  0  0  0  0  0  0  0  0  0  0
   60.9880   33.7070   46.5260 C   0  0  0  0  0  0  0  0  0  0  0  0
   59.6400   33.8360   46.8690 C   0  0  0  0  0  0  0  0  0  0  0  0
   58.4400   34.0170   45.5930 S   0  0  0  0  0  0  0  0  0  0  0  0
   58.6340   35.3050   44.8420 O   0  0  0  0  0  0  0  0  0  0  0  0
   57.0740   34.0120   46.2180 O   0  0  0  0  0  0  0  0  0  0  0  0
   58.5700   32.6780   44.4950 N   0  0  0  0  0  0  0  0  0  0  0  0
   57.8620   31.4370   44.6460 C   0  0  0  0  0  0  0  0  0  0  0  0
   56.6570   31.2070   43.9540 C   0  0  0  0  0  0  0  0  0  0  0  0
   56.0000   29.9820   44.0620 C   0  0  0  0  0  0  0  0  0  0  0  0
   56.5310   28.9640   44.8510 C   0  0  0  0  0  0  0  0  0  0  0  0
   57.7320   29.1640   45.5600 C   0  0  0  0  0  0  0  0  0  0  0  0
   58.2720   28.0330   46.3990 C   0  0  0  0  0  0  0  0  0  0  0  0
   58.3880   30.4290   45.4880 C   0  0  0  0  0  0  0  0  0  0  0  0
   59.6920   30.6670   46.2090 C   0  0  0  0  0  0  0  0  0  0  0  0
   59.2660   33.8540   48.2130 C   0  0  0  0  0  0  0  0  0  0  0  0
   60.2330   33.7460   49.2160 C   0  0  0  0  0  0  0  0  0  0  0  0
   61.6090   33.6070   48.8960 C   0  0  0  0  0  0  0  0  0  0  0  0
   61.9843   32.0533   52.8988 H   0  0  0  0  0  0  0  0  0  0  0  0
   61.0068   31.7462   51.4234 H   0  0  0  0  0  0  0  0  0  0  0  0
   62.7681   31.3935   51.4234 H   0  0  0  0  0  0  0  0  0  0  0  0
   61.3861   34.1219   51.4884 H   0  0  0  0  0  0  0  0  0  0  0  0
   63.1339   33.8956   51.8692 H   0  0  0  0  0  0  0  0  0  0  0  0
   65.2750   33.3540   47.9100 H   0  0  0  0  0  0  0  0  0  0  0  0
   61.2814   33.6905   45.4660 H   0  0  0  0  0  0  0  0  0  0  0  0
   56.2306   32.0007   43.3229 H   0  0  0  0  0  0  0  0  0  0  0  0
   55.0564   29.8183   43.5208 H   0  0  0  0  0  0  0  0  0  0  0  0
   56.0094   27.9981   44.9209 H   0  0  0  0  0  0  0  0  0  0  0  0
   58.1547   28.2787   47.4648 H   0  0  0  0  0  0  0  0  0  0  0  0
   57.7171   27.1107   46.1721 H   0  0  0  0  0  0  0  0  0  0  0  0
   59.3381   27.8847   46.1721 H   0  0  0  0  0  0  0  0  0  0  0  0
   59.5214   30.6359   47.2952 H   0  0  0  0  0  0  0  0  0  0  0  0
   60.4139   29.8858   45.9287 H   0  0  0  0  0  0  0  0  0  0  0  0
   60.0914   31.6529   45.9287 H   0  0  0  0  0  0  0  0  0  0  0  0
   58.2047   33.9537   48.4845 H   0  0  0  0  0  0  0  0  0  0  0  0
   59.9228   33.7691   50.2711 H   0  0  0  0  0  0  0  0  0  0  0  0
  1  2  1  0
  2  3  1  0
  3  4  1  0
  4  5  2  0
  4  6  1  0
  6  7  1  0
  7  8  2  0
  7  9  1  0
  9 10  2  0
 10 11  1  0
 11 12  1  0
 12 13  2  0
 12 14  2  0
 12 15  1  0
 15 16  1  0
 16 17  2  0
 17 18  1  0
 18 19  2  0
 19 20  1  0
 20 21  1  0
 20 22  2  0
 22 23  1  0
 11 24  2  0
 24 25  1  0
 25 26  2  0
 26  3  1  0
 26  9  1  0
 22 16  1  0
  1 27  1  0
  1 28  1  0
  1 29  1  0
  2 30  1  0
  2 31  1  0
  6 32  1  0
 10 33  1  0
 17 34  1  0
 18 35  1  0
 19 36  1  0
 21 37  1  0
 21 38  1  0
 21 39  1  0
 23 40  1  0
 23 41  1  0
 23 42  1  0
 24 43  1  0
 25 44  1  0
M  CHG  1  15  -1
M  END
>  <UniqueID>  (4) 
4

>  <SMILES>  (4) 
CCn1c(=O)[nH]c(=O)c2cc(S(=O)(=O)[N-]c3cccc(C)c3C)ccc21

>  <Energy>  (4) 
60.968114555830596

>  <Genealogy>  (4) 
CCn1c(=O)[nH]c(=O)c2cc(S(=O)(=O)[N-]c3cccc(C)c3C)ccc21 (protonated)
CCn1c(=O)[nH]c(=O)c2cc(S(=O)(=O)[N-]c3cccc(C)c3C)ccc21 (3D coordinates assigned)
CCn1c(=O)[nH]c(=O)c2cc(S(=O)(=O)[N-]c3cccc(C)c3C)ccc21 (optimized conformer: 60.968114555830596 kcal/mol)

>  <smiles>  (4) 
CCn1c(=O)[nH]c(=O)c2cc(S(=O)(=O)Nc3cccc(C)c3C)ccc21

>  <score_type>  (4) 
oracle

>  <origin>  (4) 
adg

>  <m_score__min__energy>  (4) 
-9.3200000000000003

>  <m_primary>  (4) 
energy

$$$$
4:0
     RDKit          3D

 50 52  0  0  0  0  0  0  0  0999 V2000
   55.8900   28.4940   44.1580 H   0  0  0  0  0  0  0  0  0  0  0  0
   55.5380   29.1710   44.8230 O   0  0  0  0  0  0  0  0  0  0  0  0
   56.0320   30.4560   44.8220 N   0  0  0  0  0  0  0  0  0  0  0  0
   57.2910   30.6970   44.6220 C   0  0  0  0  0  0  0  0  0  0  0  0
   57.8980   31.9660   45.0960 C   0  0  0  0  0  0  0  0  0  0  0  0
   59.0190   31.9850   45.9540 C   0  0  0  0  0  0  0  0  0  0  0  0
   59.6120   30.7820   46.3620 O   0  0  0  0  0  0  0  0  0  0  0  0
   59.9030   30.4300   47.6860 C   0  0  0  0  0  0  0  0  0  0  0  0
   59.0030   29.6740   48.4610 C   0  0  0  0  0  0  0  0  0  0  0  0
   58.0420   29.3572   48.0297 H   0  0  0  0  0  0  0  0  0  0  0  0
   59.3240   29.3240   49.7750 C   0  0  0  0  0  0  0  0  0  0  0  0
   58.6144   28.7364   50.3760 H   0  0  0  0  0  0  0  0  0  0  0  0
   60.5440   29.7190   50.3260 C   0  0  0  0  0  0  0  0  0  0  0  0
   60.7914   29.4484   51.3631 H   0  0  0  0  0  0  0  0  0  0  0  0
   61.4510   30.4570   49.5630 C   0  0  0  0  0  0  0  0  0  0  0  0
   62.4093   30.7693   50.0037 H   0  0  0  0  0  0  0  0  0  0  0  0
   61.1470   30.8030   48.2360 C   0  0  0  0  0  0  0  0  0  0  0  0
   62.1180   31.6130   47.4270 C   0  0  0  0  0  0  0  0  0  0  0  0
   62.7844   32.1689   48.1030 H   0  0  0  0  0  0  0  0  0  0  0  0
   62.7159   30.9422   46.7926 H   0  0  0  0  0  0  0  0  0  0  0  0
   61.5653   32.3215   46.7926 H   0  0  0  0  0  0  0  0  0  0  0  0
   59.5580   33.1780   46.3360 N   0  0  0  0  0  0  0  0  0  0  0  0
   59.0510   34.3710   45.9260 C   0  0  0  0  0  0  0  0  0  0  0  0
   59.6880   35.6480   46.3780 C   0  0  0  0  0  0  0  0  0  0  0  0
   59.7042   35.6806   47.4774 H   0  0  0  0  0  0  0  0  0  0  0  0
   60.7176   35.7000   45.9944 H   0  0  0  0  0  0  0  0  0  0  0  0
   59.1102   36.5018   45.9944 H   0  0  0  0  0  0  0  0  0  0  0  0
   57.9440   34.3970   45.0740 C   0  0  0  0  0  0  0  0  0  0  0  0
   57.5270   35.3564   44.7340 H   0  0  0  0  0  0  0  0  0  0  0  0
   57.3730   33.1940   44.6590 C   0  0  0  0  0  0  0  0  0  0  0  0
   56.5045   33.2067   43.9840 H   0  0  0  0  0  0  0  0  0  0  0  0
   58.1040   29.7240   43.9560 N   0  0  0  0  0  0  0  0  0  0  0  0
   58.2910   29.8340   42.9330 H   0  0  0  0  0  0  0  0  0  0  0  0
   58.7740   28.6630   44.7030 C   0  0  0  0  0  0  0  0  0  0  0  0
   59.8535   28.6978   44.4944 H   0  0  0  0  0  0  0  0  0  0  0  0
   58.5940   28.8123   45.7778 H   0  0  0  0  0  0  0  0  0  0  0  0
   58.2300   27.3130   44.2950 C   0  0  0  0  0  0  0  0  0  0  0  0
   57.8570   26.3200   45.2340 C   0  0  0  0  0  0  0  0  0  0  0  0
   57.8930   26.5710   46.7170 C   0  0  0  0  0  0  0  0  0  0  0  0
   57.7566   25.6203   47.2532 H   0  0  0  0  0  0  0  0  0  0  0  0
   58.8634   27.0106   46.9910 H   0  0  0  0  0  0  0  0  0  0  0  0
   57.0853   27.2656   46.9910 H   0  0  0  0  0  0  0  0  0  0  0  0
   57.4300   25.0670   44.7660 C   0  0  0  0  0  0  0  0  0  0  0  0
   57.1263   24.2863   45.4789 H   0  0  0  0  0  0  0  0  0  0  0  0
   57.3920   24.8150   43.3950 C   0  0  0  0  0  0  0  0  0  0  0  0
   57.0587   23.8330   43.0282 H   0  0  0  0  0  0  0  0  0  0  0  0
   57.7640   25.7750   42.5110 N   0  0  0  0  0  0  0  0  0  0  0  0
   57.7370   25.5650   41.4880 H   0  0  0  0  0  0  0  0  0  0  0  0
   58.1770   27.0010   42.9260 C   0  0  0  0  0  0  0  0  0  0  0  0
   58.4727   27.7565   42.1832 H   0  0  0  0  0  0  0  0  0  0  0  0
  1  2  1  0
  2  3  1  0
  3  4  2  0
  4  5  1  0
  5  6  1  0
  6  7  1  0
  7  8  1  0
  8  9  2  0
  9 10  1  0
  9 11  1  0
 11 12  1  0
 11 13  2  0
 13 14  1  0
 13 15  1  0
 15 16  1  0
 15 17  2  0
 17 18  1  0
 18 19  1  0
 18 20  1  0
 18 21  1  0
  6 22  2  0
 22 23  1  0
 23 24  1  0
 24 25  1  0
 24 26  1  0
 24 27  1  0
 23 28  2  0
 28 29  1  0
 28 30  1  0
 30 31  1  0
  4 32  1  0
 32 33  1  0
 32 34  1  0
 34 35  1  0
 34 36  1  0
 34 37  1  0
 37 38  2  0
 38 39  1  0
 39 40  1  0
 39 41  1  0
 39 42  1  0
 38 43  1  0
 43 44  1  0
 43 45  2  0
 45 46  1  0
 45 47  1  0
 47 48  1  0
 47 49  2  0
 49 50  1  0
 30  5  2  0
 49 37  1  0
 17  8  1  0
M  CHG  1  47   1
M  END
>  <UniqueID>  (5) 
5

>  <SMILES>  (5) 
Cc1ccc(/C(=N/O)NCc2c[nH+]ccc2C)c(Oc2ccccc2C)n1

>  <Energy>  (5) 
59.73924187121774

>  <Genealogy>  (5) 
Cc1ccc(C(=NO)NCc2c[nH+]ccc2C)c(Oc2ccccc2C)n1 (protonated)
Cc1ccc(/C(=N/O)NCc2c[nH+]ccc2C)c(Oc2ccccc2C)n1 (cis-trans isomerization)
Cc1ccc(/C(=N/O)NCc2c[nH+]ccc2C)c(Oc2ccccc2C)n1 (3D coordinates assigned)
Cc1ccc(/C(=N/O)NCc2c[nH+]ccc2C)c(Oc2ccccc2C)n1 (optimized conformer: 59.73924187121774 kcal/mol)

>  <smiles>  (5) 
Cc1ccc(C(=NO)NCc2cnccc2C)c(Oc2ccccc2C)n1

>  <score_type>  (5) 
oracle

>  <origin>  (5) 
adg

>  <m_score__min__energy>  (5) 
-8.1500000000000004

>  <m_primary>  (5) 
energy

$$$$
5:0
     RDKit          3D

 66 70  0  0  0  0  0  0  0  0999 V2000
   57.0123   24.8788   46.9764 H   0  0  0  0  0  0  0  0  0  0  0  0
   57.2770   25.9000   46.6650 C   0  0  0  0  0  0  0  0  0  0  0  0
   56.3450   26.6850   45.9870 C   0  0  0  0  0  0  0  0  0  0  0  0
   55.3454   26.2802   45.7705 H   0  0  0  0  0  0  0  0  0  0  0  0
   56.6710   27.9830   45.5800 C   0  0  0  0  0  0  0  0  0  0  0  0
   55.6630   28.7590   44.9160 N   0  0  0  0  0  0  0  0  0  0  0  0
   55.8530   29.8570   44.0140 C   0  0  0  0  0  0  0  0  0  0  0  0
   55.9140   29.6640   42.7720 O   0  0  0  0  0  0  0  0  0  0  0  0
   55.8580   31.2020   44.5080 N   0  0  0  0  0  0  0  0  0  0  0  0
   57.0280   31.9390   44.8930 C   0  0  0  0  0  0  0  0  0  0  0  0
   57.7830   31.5840   46.0220 C   0  0  0  0  0  0  0  0  0  0  0  0
   57.4935   30.7080   46.6210 H   0  0  0  0  0  0  0  0  0  0  0  0
   58.9000   32.3380   46.3880 C   0  0  0  0  0  0  0  0  0  0  0  0
   59.4704   32.0653   47.2882 H   0  0  0  0  0  0  0  0  0  0  0  0
   59.3010   33.4390   45.6190 C   0  0  0  0  0  0  0  0  0  0  0  0
   60.4090   34.2280   46.0850 N   0  0  0  0  0  0  0  0  0  0  0  0
   61.4320   33.8390   46.7860 C   0  0  0  0  0  0  0  0  0  0  0  0
   61.2170   33.3020   48.0210 N   0  0  0  0  0  0  0  0  0  0  0  0
   62.2750   32.8740   48.7490 C   0  0  0  0  0  0  0  0  0  0  0  0
   63.5470   32.9510   48.2700 C   0  0  0  0  0  0  0  0  0  0  0  0
   63.7840   33.4840   47.0120 C   0  0  0  0  0  0  0  0  0  0  0  0
   64.8050   33.5555   46.6090 H   0  0  0  0  0  0  0  0  0  0  0  0
   62.7100   33.9170   46.2900 N   0  0  0  0  0  0  0  0  0  0  0  0
   64.3850   32.3970   49.2090 C   0  0  0  0  0  0  0  0  0  0  0  0
   65.4784   32.2897   49.1538 H   0  0  0  0  0  0  0  0  0  0  0  0
   63.5430   32.0020   50.2450 C   0  0  0  0  0  0  0  0  0  0  0  0
   64.0000   31.2900   51.4480 C   0  0  0  0  0  0  0  0  0  0  0  0
   64.4420   30.1160   51.3190 O   0  0  0  0  0  0  0  0  0  0  0  0
   63.9510   31.9090   52.7500 N   0  0  0  0  0  0  0  0  0  0  0  0
   64.3340   31.1320   53.9340 C   0  0  0  0  0  0  0  0  0  0  0  0
   64.0597   31.6885   54.8423 H   0  0  0  0  0  0  0  0  0  0  0  0
   63.8092   30.1653   53.9237 H   0  0  0  0  0  0  0  0  0  0  0  0
   65.4203   30.9595   53.9237 H   0  0  0  0  0  0  0  0  0  0  0  0
   63.5870   33.3250   52.8790 C   0  0  0  0  0  0  0  0  0  0  0  0
   63.5188   33.5905   53.9443 H   0  0  0  0  0  0  0  0  0  0  0  0
   64.3546   33.9465   52.3947 H   0  0  0  0  0  0  0  0  0  0  0  0
   62.6149   33.4993   52.3947 H   0  0  0  0  0  0  0  0  0  0  0  0
   62.2430   32.3020   49.9730 N   0  0  0  0  0  0  0  0  0  0  0  0
   61.0680   31.8840   50.7640 C   0  0  0  0  0  0  0  0  0  0  0  0
   61.4404   31.7634   51.7920 H   0  0  0  0  0  0  0  0  0  0  0  0
   60.4790   30.5870   50.2210 C   0  0  0  0  0  0  0  0  0  0  0  0
   61.2248   30.0564   49.6109 H   0  0  0  0  0  0  0  0  0  0  0  0
   60.1792   29.9125   51.0366 H   0  0  0  0  0  0  0  0  0  0  0  0
   59.2870   30.9830   49.3670 C   0  0  0  0  0  0  0  0  0  0  0  0
   59.5839   31.0505   48.3100 H   0  0  0  0  0  0  0  0  0  0  0  0
   58.4822   30.2369   49.4415 H   0  0  0  0  0  0  0  0  0  0  0  0
   58.8200   32.3440   49.8690 C   0  0  0  0  0  0  0  0  0  0  0  0
   58.6260   33.0127   49.0174 H   0  0  0  0  0  0  0  0  0  0  0  0
   57.8887   32.2467   50.4463 H   0  0  0  0  0  0  0  0  0  0  0  0
   59.9370   32.9170   50.7390 C   0  0  0  0  0  0  0  0  0  0  0  0
   60.3002   33.8630   50.3110 H   0  0  0  0  0  0  0  0  0  0  0  0
   59.5729   33.1216   51.7566 H   0  0  0  0  0  0  0  0  0  0  0  0
   58.5510   33.7890   44.4790 C   0  0  0  0  0  0  0  0  0  0  0  0
   58.8421   34.6625   43.8771 H   0  0  0  0  0  0  0  0  0  0  0  0
   57.4360   33.0270   44.1110 C   0  0  0  0  0  0  0  0  0  0  0  0
   56.8756   33.2848   43.2002 H   0  0  0  0  0  0  0  0  0  0  0  0
   57.9410   28.5040   45.8950 C   0  0  0  0  0  0  0  0  0  0  0  0
   58.1957   29.5350   45.6085 H   0  0  0  0  0  0  0  0  0  0  0  0
   58.8870   27.7120   46.5750 C   0  0  0  0  0  0  0  0  0  0  0  0
   60.1690   28.1790   46.8990 O   0  0  0  0  0  0  0  0  0  0  0  0
   60.6610   29.4750   46.5750 C   0  0  0  0  0  0  0  0  0  0  0  0
   60.8715   30.0295   47.5014 H   0  0  0  0  0  0  0  0  0  0  0  0
   61.5855   29.3797   45.9866 H   0  0  0  0  0  0  0  0  0  0  0  0
   59.9062   30.0172   45.9866 H   0  0  0  0  0  0  0  0  0  0  0  0
   58.5460   26.4090   46.9490 C   0  0  0  0  0  0  0  0  0  0  0  0
   59.2825   25.7801   47.4707 H   0  0  0  0  0  0  0  0  0  0  0  0
  1  2  1  0
  2  3  2  0
  3  4  1  0
  3  5  1  0
  5  6  1  0
  6  7  1  0
  7  8  2  0
  7  9  1  0
  9 10  1  0
 10 11  2  0
 11 12  1  0
 11 13  1  0
 13 14  1  0
 13 15  2  0
 15 16  1  0
 16 17  2  0
 17 18  1  0
 18 19  2  0
 19 20  1  0
 20 21  2  0
 21 22  1  0
 21 23  1  0
 20 24  1  0
 24 25  1  0
 24 26  2  0
 26 27  1  0
 27 28  2  0
 27 29  1  0
 29 30  1  0
 30 31  1  0
 30 32  1  0
 30 33  1  0
 29 34  1  0
 34 35  1  0
 34 36  1  0
 34 37  1  0
 26 38  1  0
 38 39  1  0
 39 40  1  0
 39 41  1  0
 41 42  1  0
 41 43  1  0
 41 44  1  0
 44 45  1  0
 44 46  1  0
 44 47  1  0
 47 48  1  0
 47 49  1  0
 47 50  1  0
 50 51  1  0
 50 52  1  0
 15 53  1  0
 53 54  1  0
 53 55  2  0
 55 56  1  0
  5 57  2  0
 57 58  1  0
 57 59  1  0
 59 60  1  0
 60 61  1  0
 61 62  1  0
 61 63  1  0
 61 64  1  0
 59 65  2  0
 65 66  1  0
 65  2  1  0
 55 10  1  0
 23 17  1  0
 50 39  1  0
 38 19  1  0
M  CHG  3   6  -1   9  -1  23  -1
M  END
>  <UniqueID>  (6) 
6

>  <SMILES>  (6) 
COc1cccc([N-]C(=O)[N-]c2ccc(/N=c3/nc4c(c[n-]3)cc(C(=O)N(C)C)n4C3CCCC3)cc2)c1

>  <Energy>  (6) 
125.67714915697728

>  <Genealogy>  (6) 
COc1cccc([N-]C(=O)[N-]c2ccc(N=c3nc4c(c[n-]3)cc(C(=O)N(C)C)n4C3CCCC3)cc2)c1 (protonated)
COc1cccc([N-]C(=O)[N-]c2ccc(/N=c3/nc4c(c[n-]3)cc(C(=O)N(C)C)n4C3CCCC3)cc2)c1 (cis-trans isomerization)
COc1cccc([N-]C(=O)[N-]c2ccc(/N=c3/nc4c(c[n-]3)cc(C(=O)N(C)C)n4C3CCCC3)cc2)c1 (3D coordinates assigned)
COc1cccc([N-]C(=O)[N-]c2ccc(/N=c3/nc4c(c[n-]3)cc(C(=O)N(C)C)n4C3CCCC3)cc2)c1 (nonaromatic ring conformer: 125.67714915697728 kcal/mol)

>  <smiles>  (6) 
COc1cccc(NC(=O)Nc2ccc(N=c3nc4c(c[nH]3)cc(C(=O)N(C)C)n4C3CCCC3)cc2)c1

>  <score_type>  (6) 
oracle

>  <origin>  (6) 
adg

>  <m_score__min__energy>  (6) 
-13.34

>  <m_primary>  (6) 
energy

$$$$
6:0
     RDKit          3D

 37 38  0  0  0  0  0  0  0  0999 V2000
   55.9413   30.9763   42.9103 H   0  0  0  0  0  0  0  0  0  0  0  0
   56.8500   30.9620   43.5300 C   0  0  0  0  0  0  0  0  0  0  0  0
   57.6660   32.0330   43.4610 C   0  0  0  0  0  0  0  0  0  0  0  0
   58.0970   32.7930   44.6620 C   0  0  0  0  0  0  0  0  0  0  0  0
   58.9290   33.9150   44.5230 C   0  0  0  0  0  0  0  0  0  0  0  0
   59.2590   34.2297   43.5220 H   0  0  0  0  0  0  0  0  0  0  0  0
   59.3410   34.6350   45.6480 C   0  0  0  0  0  0  0  0  0  0  0  0
   59.9856   35.5182   45.5275 H   0  0  0  0  0  0  0  0  0  0  0  0
   58.9340   34.2340   46.9350 C   0  0  0  0  0  0  0  0  0  0  0  0
   59.3180   34.9240   48.0950 O   0  0  0  0  0  0  0  0  0  0  0  0
   59.9880   34.3270   49.2000 C   0  0  0  0  0  0  0  0  0  0  0  0
   59.5595   34.7088   50.1384 H   0  0  0  0  0  0  0  0  0  0  0  0
   59.8636   33.2349   49.1577 H   0  0  0  0  0  0  0  0  0  0  0  0
   61.0586   34.5760   49.1577 H   0  0  0  0  0  0  0  0  0  0  0  0
   58.1190   33.1050   47.0720 C   0  0  0  0  0  0  0  0  0  0  0  0
   57.7998   32.7814   48.0737 H   0  0  0  0  0  0  0  0  0  0  0  0
   57.7070   32.3850   45.9480 C   0  0  0  0  0  0  0  0  0  0  0  0
   57.0739   31.4939   46.0708 H   0  0  0  0  0  0  0  0  0  0  0  0
   58.1600   32.4790   42.1120 C   0  0  0  0  0  0  0  0  0  0  0  0
   58.9707   33.2110   42.2420 H   0  0  0  0  0  0  0  0  0  0  0  0
   58.5371   31.6094   41.5537 H   0  0  0  0  0  0  0  0  0  0  0  0
   57.3334   32.9427   41.5537 H   0  0  0  0  0  0  0  0  0  0  0  0
   57.0810   29.7690   44.3740 C   0  0  0  0  0  0  0  0  0  0  0  0
   58.3950   29.4110   44.7050 C   0  0  0  0  0  0  0  0  0  0  0  0
   59.2351   30.0245   44.3473 H   0  0  0  0  0  0  0  0  0  0  0  0
   58.6450   28.2790   45.4870 C   0  0  0  0  0  0  0  0  0  0  0  0
   59.6791   28.0168   45.7551 H   0  0  0  0  0  0  0  0  0  0  0  0
   57.5800   27.4730   45.9330 C   0  0  0  0  0  0  0  0  0  0  0  0
   57.7850   26.3310   46.7240 O   0  0  0  0  0  0  0  0  0  0  0  0
   57.4380   25.0080   46.3320 C   0  0  0  0  0  0  0  0  0  0  0  0
   57.2761   24.3907   47.2279 H   0  0  0  0  0  0  0  0  0  0  0  0
   56.5161   25.0331   45.7325 H   0  0  0  0  0  0  0  0  0  0  0  0
   58.2536   24.5774   45.7325 H   0  0  0  0  0  0  0  0  0  0  0  0
   56.2690   27.8150   45.5750 C   0  0  0  0  0  0  0  0  0  0  0  0
   55.2060   27.0240   45.9940 O   0  0  0  0  0  0  0  0  0  0  0  0
   56.0210   28.9470   44.7940 C   0  0  0  0  0  0  0  0  0  0  0  0
   54.9891   29.1965   44.5059 H   0  0  0  0  0  0  0  0  0  0  0  0
  1  2  1  0
  2  3  2  0
  3  4  1  0
  4  5  2  0
  5  6  1  0
  5  7  1  0
  7  8  1  0
  7  9  2  0
  9 10  1  0
 10 11  1  0
 11 12  1  0
 11 13  1  0
 11 14  1  0
  9 15  1  0
 15 16  1  0
 15 17  2  0
 17 18  1  0
  3 19  1  0
 19 20  1  0
 19 21  1  0
 19 22  1  0
  2 23  1  0
 23 24  2  0
 24 25  1  0
 24 26  1  0
 26 27  1  0
 26 28  2  0
 28 29  1  0
 29 30  1  0
 30 31  1  0
 30 32  1  0
 30 33  1  0
 28 34  1  0
 34 35  1  0
 34 36  2  0
 36 37  1  0
 17  4  1  0
 36 23  1  0
M  CHG  1  35  -1
M  END
>  <UniqueID>  (7) 
7

>  <SMILES>  (7) 
COc1ccc(/C(C)=C\c2ccc(OC)c([O-])c2)cc1

>  <Energy>  (7) 
45.85868898729975

>  <Genealogy>  (7) 
COc1ccc(C(C)=Cc2ccc(OC)c([O-])c2)cc1 (protonated)
COc1ccc(/C(C)=C\c2ccc(OC)c([O-])c2)cc1 (cis-trans isomerization)
COc1ccc(/C(C)=C\c2ccc(OC)c([O-])c2)cc1 (3D coordinates assigned)
COc1ccc(/C(C)=C\c2ccc(OC)c([O-])c2)cc1 (optimized conformer: 45.85868898729975 kcal/mol)

>  <smiles>  (7) 
COc1ccc(C(C)=Cc2ccc(OC)c(O)c2)cc1

>  <score_type>  (7) 
oracle

>  <origin>  (7) 
adg

>  <m_score__min__energy>  (7) 
-10.390000000000001

>  <m_primary>  (7) 
energy

$$$$
7:0
     RDKit          3D

 46 48  0  0  0  0  0  0  0  0999 V2000
   60.3520   30.2230   48.7750 C   0  0  0  0  0  0  0  0  0  0  0  0
   60.3710   31.6300   48.5620 O   0  0  0  0  0  0  0  0  0  0  0  0
   61.3930   32.3220   47.8920 C   0  0  0  0  0  0  0  0  0  0  0  0
   62.7300   31.8740   47.9130 C   0  0  0  0  0  0  0  0  0  0  0  0
   63.7210   32.5770   47.2240 C   0  0  0  0  0  0  0  0  0  0  0  0
   63.3950   33.7280   46.5060 C   0  0  0  0  0  0  0  0  0  0  0  0
   62.0750   34.1830   46.4760 C   0  0  0  0  0  0  0  0  0  0  0  0
   61.0670   33.4930   47.1720 C   0  0  0  0  0  0  0  0  0  0  0  0
   59.6420   33.9840   47.1070 C   0  0  0  0  0  0  0  0  0  0  0  0
   58.8420   33.1370   46.1630 C   0  0  0  0  0  0  0  0  0  0  0  0
   57.9800   33.6820   45.4200 O   0  0  0  0  0  0  0  0  0  0  0  0
   59.0830   31.7240   46.0860 N   0  0  0  0  0  0  0  0  0  0  0  0
   58.1520   30.7870   45.5190 C   0  0  0  0  0  0  0  0  0  0  0  0
   57.4180   31.0960   44.3610 C   0  0  0  0  0  0  0  0  0  0  0  0
   56.4930   30.1850   43.8500 C   0  0  0  0  0  0  0  0  0  0  0  0
   56.2880   28.9600   44.4870 C   0  0  0  0  0  0  0  0  0  0  0  0
   57.0180   28.6320   45.6420 C   0  0  0  0  0  0  0  0  0  0  0  0
   56.8230   27.3900   46.3350 N   0  0  0  0  0  0  0  0  0  0  0  0
   56.0360   26.2790   45.8810 C   0  0  0  0  0  0  0  0  0  0  0  0
   54.7810   26.3510   45.9710 O   0  0  0  0  0  0  0  0  0  0  0  0
   56.6490   25.0540   45.3230 C   0  0  0  0  0  0  0  0  0  0  0  0
   55.8670   24.2140   44.5120 C   0  0  0  0  0  0  0  0  0  0  0  0
   56.4210   23.0660   43.9390 C   0  0  0  0  0  0  0  0  0  0  0  0
   57.7560   22.7370   44.1810 C   0  0  0  0  0  0  0  0  0  0  0  0
   58.5380   23.5490   45.0060 C   0  0  0  0  0  0  0  0  0  0  0  0
   57.9940   24.7040   45.5840 C   0  0  0  0  0  0  0  0  0  0  0  0
   59.0030   25.6280   46.6920 Cl  0  0  0  0  0  0  0  0  0  0  0  0
   57.9250   29.5630   46.1670 C   0  0  0  0  0  0  0  0  0  0  0  0
   60.3492   30.0157   49.8553 H   0  0  0  0  0  0  0  0  0  0  0  0
   59.4480   29.7950   48.3172 H   0  0  0  0  0  0  0  0  0  0  0  0
   61.2441   29.7708   48.3172 H   0  0  0  0  0  0  0  0  0  0  0  0
   62.9939   30.9660   48.4750 H   0  0  0  0  0  0  0  0  0  0  0  0
   64.7619   32.2220   47.2476 H   0  0  0  0  0  0  0  0  0  0  0  0
   64.1782   34.2775   45.9632 H   0  0  0  0  0  0  0  0  0  0  0  0
   61.8221   35.0877   45.9037 H   0  0  0  0  0  0  0  0  0  0  0  0
   59.1940   33.9314   48.1102 H   0  0  0  0  0  0  0  0  0  0  0  0
   59.6378   35.0232   46.7463 H   0  0  0  0  0  0  0  0  0  0  0  0
   60.0030   31.3640   46.4270 H   0  0  0  0  0  0  0  0  0  0  0  0
   57.5735   32.0604   43.8553 H   0  0  0  0  0  0  0  0  0  0  0  0
   55.9234   30.4329   42.9422 H   0  0  0  0  0  0  0  0  0  0  0  0
   55.5523   28.2488   44.0833 H   0  0  0  0  0  0  0  0  0  0  0  0
   54.8114   24.4618   44.3269 H   0  0  0  0  0  0  0  0  0  0  0  0
   55.8042   22.4206   43.2963 H   0  0  0  0  0  0  0  0  0  0  0  0
   58.1924   21.8378   43.7217 H   0  0  0  0  0  0  0  0  0  0  0  0
   59.5863   23.2804   45.2030 H   0  0  0  0  0  0  0  0  0  0  0  0
   58.4648   29.3316   47.0971 H   0  0  0  0  0  0  0  0  0  0  0  0
  1  2  1  0
  2  3  1  0
  3  4  2  0
  4  5  1  0
  5  6  2  0
  6  7  1  0
  7  8  2  0
  8  9  1  0
  9 10  1  0
 10 11  2  0
 10 12  1  0
 12 13  1  0
 13 14  2  0
 14 15  1  0
 15 16  2  0
 16 17  1  0
 17 18  1  0
 18 19  1  0
 19 20  2  0
 19 21  1  0
 21 22  2  0
 22 23  1  0
 23 24  2  0
 24 25  1  0
 25 26  2  0
 26 27  1  0
 17 28  2  0
  8  3  1  0
 28 13  1  0
 26 21  1  0
  1 29  1  0
  1 30  1  0
  1 31  1  0
  4 32  1  0
  5 33  1  0
  6 34  1  0
  7 35  1  0
  9 36  1  0
  9 37  1  0
 12 38  1  0
 14 39  1  0
 15 40  1  0
 16 41  1  0
 22 42  1  0
 23 43  1  0
 24 44  1  0
 25 45  1  0
 28 46  1  0
M  CHG  1  18  -1
M  END
>  <UniqueID>  (8) 
8

>  <SMILES>  (8) 
COc1ccccc1CC(=O)Nc1cccc([N-]C(=O)c2ccccc2Cl)c1

>  <Energy>  (8) 
59.25425301900919

>  <Genealogy>  (8) 
COc1ccccc1CC(=O)Nc1cccc([N-]C(=O)c2ccccc2Cl)c1 (protonated)
COc1ccccc1CC(=O)Nc1cccc([N-]C(=O)c2ccccc2Cl)c1 (3D coordinates assigned)
COc1ccccc1CC(=O)Nc1cccc([N-]C(=O)c2ccccc2Cl)c1 (optimized conformer: 59.25425301900919 kcal/mol)

>  <smiles>  (8) 
COc1ccccc1CC(=O)Nc1cccc(NC(=O)c2ccccc2Cl)c1

>  <score_type>  (8) 
oracle

>  <origin>  (8) 
adg

>  <m_score__min__energy>  (8) 
-11.23

>  <m_primary>  (8) 
energy

$$$$
8:0
     RDKit          3D

 54 57  0  0  0  0  0  0  0  0999 V2000
   65.6700   32.4870   50.1190 C   0  0  0  0  0  0  0  0  0  0  0  0
   64.7540   33.5460   49.8630 O   0  0  0  0  0  0  0  0  0  0  0  0
   63.6600   33.4540   48.9890 C   0  0  0  0  0  0  0  0  0  0  0  0
   63.8170   33.3690   47.5910 C   0  0  0  0  0  0  0  0  0  0  0  0
   62.6940   33.3080   46.7590 C   0  0  0  0  0  0  0  0  0  0  0  0
   61.4030   33.3010   47.3040 C   0  0  0  0  0  0  0  0  0  0  0  0
   60.2650   33.2760   46.4290 N   0  0  0  0  0  0  0  0  0  0  0  0
   59.6750   34.4510   45.8570 C   0  0  0  0  0  0  0  0  0  0  0  0
   59.9940   35.5950   46.2780 O   0  0  0  0  0  0  0  0  0  0  0  0
   58.6400   34.3260   44.7820 C   0  0  0  0  0  0  0  0  0  0  0  0
   57.0340   33.8430   45.5020 S   0  0  0  0  0  0  0  0  0  0  0  0
   57.3940   32.0880   45.4940 C   0  0  0  0  0  0  0  0  0  0  0  0
   57.9820   31.4430   46.5360 N   0  0  0  0  0  0  0  0  0  0  0  0
   58.0480   30.1820   46.0740 C   0  0  0  0  0  0  0  0  0  0  0  0
   58.5610   29.0600   46.7210 C   0  0  0  0  0  0  0  0  0  0  0  0
   58.5370   27.8310   46.0260 C   0  0  0  0  0  0  0  0  0  0  0  0
   59.1300   26.3630   46.8050 S   0  0  0  0  0  0  0  0  0  0  0  0
   59.6510   26.7110   48.1670 O   0  0  0  0  0  0  0  0  0  0  0  0
   60.2520   25.7630   46.0080 O   0  0  0  0  0  0  0  0  0  0  0  0
   57.8360   25.2230   46.9830 N   0  0  0  0  0  0  0  0  0  0  0  0
   57.4910   24.2660   45.9760 C   0  0  0  0  0  0  0  0  0  0  0  0
   57.3400   24.7080   44.6540 C   0  0  0  0  0  0  0  0  0  0  0  0
   57.0300   23.8050   43.6360 C   0  0  0  0  0  0  0  0  0  0  0  0
   56.8570   22.4520   43.9350 C   0  0  0  0  0  0  0  0  0  0  0  0
   56.9740   22.0020   45.2550 C   0  0  0  0  0  0  0  0  0  0  0  0
   57.2810   22.9080   46.2920 C   0  0  0  0  0  0  0  0  0  0  0  0
   57.3780   22.4930   47.6310 O   0  0  0  0  0  0  0  0  0  0  0  0
   56.3250   22.5870   48.5830 C   0  0  0  0  0  0  0  0  0  0  0  0
   58.0070   27.7740   44.7120 C   0  0  0  0  0  0  0  0  0  0  0  0
   57.4820   28.9260   44.0980 C   0  0  0  0  0  0  0  0  0  0  0  0
   57.5250   30.1130   44.8190 C   0  0  0  0  0  0  0  0  0  0  0  0
   57.1130   31.3000   44.4690 O   0  0  0  0  0  0  0  0  0  0  0  0
   61.2450   33.3770   48.7010 C   0  0  0  0  0  0  0  0  0  0  0  0
   62.3690   33.4560   49.5320 C   0  0  0  0  0  0  0  0  0  0  0  0
   65.7839   32.3553   51.2051 H   0  0  0  0  0  0  0  0  0  0  0  0
   65.2877   31.5561   49.6749 H   0  0  0  0  0  0  0  0  0  0  0  0
   66.6463   32.7312   49.6749 H   0  0  0  0  0  0  0  0  0  0  0  0
   64.8257   33.3506   47.1527 H   0  0  0  0  0  0  0  0  0  0  0  0
   62.8255   33.2652   45.6677 H   0  0  0  0  0  0  0  0  0  0  0  0
   59.7730   32.3620   46.2950 H   0  0  0  0  0  0  0  0  0  0  0  0
   58.5315   35.2928   44.2686 H   0  0  0  0  0  0  0  0  0  0  0  0
   58.9584   33.5532   44.0669 H   0  0  0  0  0  0  0  0  0  0  0  0
   58.9711   29.1291   47.7393 H   0  0  0  0  0  0  0  0  0  0  0  0
   57.4668   25.7747   44.4174 H   0  0  0  0  0  0  0  0  0  0  0  0
   56.9221   24.1585   42.5999 H   0  0  0  0  0  0  0  0  0  0  0  0
   56.6280   21.7376   43.1305 H   0  0  0  0  0  0  0  0  0  0  0  0
   56.8259   20.9366   45.4851 H   0  0  0  0  0  0  0  0  0  0  0  0
   56.7449   22.5495   49.5990 H   0  0  0  0  0  0  0  0  0  0  0  0
   55.7878   23.5367   48.4430 H   0  0  0  0  0  0  0  0  0  0  0  0
   55.6281   21.7475   48.4430 H   0  0  0  0  0  0  0  0  0  0  0  0
   58.0063   26.8187   44.1667 H   0  0  0  0  0  0  0  0  0  0  0  0
   57.0537   28.8883   43.0855 H   0  0  0  0  0  0  0  0  0  0  0  0
   60.2366   33.3743   49.1404 H   0  0  0  0  0  0  0  0  0  0  0  0
   62.2368   33.5203   50.6221 H   0  0  0  0  0  0  0  0  0  0  0  0
  1  2  1  0
  2  3  1  0
  3  4  2  0
  4  5  1  0
  5  6  2  0
  6  7  1  0
  7  8  1  0
  8  9  2  0
  8 10  1  0
 10 11  1  0
 11 12  1  0
 12 13  2  0
 13 14  1  0
 14 15  2  0
 15 16  1  0
 16 17  1  0
 17 18  2  0
 17 19  2  0
 17 20  1  0
 20 21  1  0
 21 22  2  0
 22 23  1  0
 23 24  2  0
 24 25  1  0
 25 26  2  0
 26 27  1  0
 27 28  1  0
 16 29  2  0
 29 30  1  0
 30 31  2  0
 31 32  1  0
  6 33  1  0
 33 34  2  0
 34  3  1  0
 32 12  1  0
 31 14  1  0
 26 21  1  0
  1 35  1  0
  1 36  1  0
  1 37  1  0
  4 38  1  0
  5 39  1  0
  7 40  1  0
 10 41  1  0
 10 42  1  0
 15 43  1  0
 22 44  1  0
 23 45  1  0
 24 46  1  0
 25 47  1  0
 28 48  1  0
 28 49  1  0
 28 50  1  0
 29 51  1  0
 30 52  1  0
 33 53  1  0
 34 54  1  0
M  CHG  1  20  -1
M  END
>  <UniqueID>  (9) 
9

>  <SMILES>  (9) 
COc1ccc(NC(=O)CSc2nc3cc(S(=O)(=O)[N-]c4ccccc4OC)ccc3o2)cc1

>  <Energy>  (9) 
102.04096388455037

>  <Genealogy>  (9) 
COc1ccc(NC(=O)CSc2nc3cc(S(=O)(=O)[N-]c4ccccc4OC)ccc3o2)cc1 (protonated)
COc1ccc(NC(=O)CSc2nc3cc(S(=O)(=O)[N-]c4ccccc4OC)ccc3o2)cc1 (3D coordinates assigned)
COc1ccc(NC(=O)CSc2nc3cc(S(=O)(=O)[N-]c4ccccc4OC)ccc3o2)cc1 (optimized conformer: 102.04096388455037 kcal/mol)

>  <smiles>  (9) 
COc1ccc(NC(=O)CSc2nc3cc(S(=O)(=O)Nc4ccccc4OC)ccc3o2)cc1

>  <score_type>  (9) 
oracle

>  <origin>  (9) 
adg

>  <m_score__min__energy>  (9) 
-10.83

>  <m_primary>  (9) 
energy

$$$$
9:0
     RDKit          3D

 24 25  0  0  0  0  0  0  0  0999 V2000
   58.9032   25.2354   46.6495 H   0  0  0  0  0  0  0  0  0  0  0  0
   58.1070   25.4970   45.9370 C   0  0  0  0  0  0  0  0  0  0  0  0
   57.7320   26.7860   45.8500 C   0  0  0  0  0  0  0  0  0  0  0  0
   58.9460   28.1120   45.7180 S   0  0  0  0  0  0  0  0  0  0  0  0
   58.1000   28.8740   44.2990 C   0  0  0  0  0  0  0  0  0  0  0  0
   57.9291   28.1164   43.5200 H   0  0  0  0  0  0  0  0  0  0  0  0
   58.7204   29.6817   43.8834 H   0  0  0  0  0  0  0  0  0  0  0  0
   56.7600   29.4380   44.7700 C   0  0  0  0  0  0  0  0  0  0  0  0
   56.2768   29.9574   43.9293 H   0  0  0  0  0  0  0  0  0  0  0  0
   56.9536   30.1299   45.6029 H   0  0  0  0  0  0  0  0  0  0  0  0
   55.8670   28.3840   45.2520 N   0  0  0  0  0  0  0  0  0  0  0  0
   56.3020   27.1580   45.8540 C   0  0  0  0  0  0  0  0  0  0  0  0
   55.4380   26.3740   46.3290 O   0  0  0  0  0  0  0  0  0  0  0  0
   57.5110   24.4140   45.1310 C   0  0  0  0  0  0  0  0  0  0  0  0
   57.1590   24.6680   43.7970 C   0  0  0  0  0  0  0  0  0  0  0  0
   57.3113   25.6710   43.3719 H   0  0  0  0  0  0  0  0  0  0  0  0
   56.6150   23.6510   43.0050 C   0  0  0  0  0  0  0  0  0  0  0  0
   56.3264   23.8598   41.9643 H   0  0  0  0  0  0  0  0  0  0  0  0
   56.4380   22.3700   43.5350 C   0  0  0  0  0  0  0  0  0  0  0  0
   55.8970   21.3620   42.7470 O   0  0  0  0  0  0  0  0  0  0  0  0
   56.8120   22.1010   44.8560 C   0  0  0  0  0  0  0  0  0  0  0  0
   56.6788   21.0904   45.2694 H   0  0  0  0  0  0  0  0  0  0  0  0
   57.3550   23.1150   45.6520 C   0  0  0  0  0  0  0  0  0  0  0  0
   57.7590   22.8210   46.9140 F   0  0  0  0  0  0  0  0  0  0  0  0
  1  2  1  0
  2  3  2  0
  3  4  1  0
  4  5  1  0
  5  6  1  0
  5  7  1  0
  5  8  1  0
  8  9  1  0
  8 10  1  0
  8 11  1  0
 11 12  1  0
 12 13  2  0
  2 14  1  0
 14 15  2  0
 15 16  1  0
 15 17  1  0
 17 18  1  0
 17 19  2  0
 19 20  1  0
 19 21  1  0
 21 22  1  0
 21 23  2  0
 23 24  1  0
 12  3  1  0
 23 14  1  0
M  CHG  2  11  -1  20  -1
M  END
>  <UniqueID>  (10) 
10

>  <SMILES>  (10) 
O=C1[N-]CCS/C1=C\c1ccc([O-])cc1F

>  <Energy>  (10) 
33.42145945621871

>  <Genealogy>  (10) 
O=C1[N-]CCSC1=Cc1ccc([O-])cc1F (protonated)
O=C1[N-]CCS/C1=C\c1ccc([O-])cc1F (cis-trans isomerization)
O=C1[N-]CCS/C1=C\c1ccc([O-])cc1F (3D coordinates assigned)
O=C1[N-]CCS/C1=C\c1ccc([O-])cc1F (nonaromatic ring conformer: 33.42145945621871 kcal/mol)

>  <smiles>  (10) 
O=C1NCCSC1=Cc1ccc(O)cc1F

>  <score_type>  (10) 
oracle

>  <origin>  (10) 
adg

>  <m_score__min__energy>  (10) 
-10.390000000000001

>  <m_primary>  (10) 
energy

$$$$
10:0
     RDKit          3D

 58 60  0  0  0  0  0  0  0  0999 V2000
   58.1390   30.5320   51.3160 C   0  0  0  0  0  0  0  0  0  0  0  0
   57.4800   31.9130   51.2910 C   0  0  0  0  0  0  0  0  0  0  0  0
   58.2790   32.9410   52.0960 C   0  0  0  0  0  0  0  0  0  0  0  0
   60.0070   32.3860   52.3340 S   0  0  0  0  0  0  0  0  0  0  0  0
   60.5370   33.0130   50.7320 C   0  0  0  0  0  0  0  0  0  0  0  0
   59.7640   34.0090   50.1260 C   0  0  0  0  0  0  0  0  0  0  0  0
   60.0610   34.4520   48.8350 C   0  0  0  0  0  0  0  0  0  0  0  0
   61.1250   33.8860   48.1220 C   0  0  0  0  0  0  0  0  0  0  0  0
   61.3060   34.2040   46.6980 C   0  0  0  0  0  0  0  0  0  0  0  0
   62.4540   34.1450   46.1770 O   0  0  0  0  0  0  0  0  0  0  0  0
   60.2300   34.7300   45.9760 O   0  0  0  0  0  0  0  0  0  0  0  0
   59.1730   33.9040   45.6080 C   0  0  0  0  0  0  0  0  0  0  0  0
   58.3780   33.2850   46.5780 C   0  0  0  0  0  0  0  0  0  0  0  0
   57.4190   32.3380   46.2010 C   0  0  0  0  0  0  0  0  0  0  0  0
   57.1920   32.0610   44.8430 C   0  0  0  0  0  0  0  0  0  0  0  0
   56.2950   30.9970   44.4890 N   0  0  0  0  0  0  0  0  0  0  0  0
   56.4930   29.6100   44.7900 C   0  0  0  0  0  0  0  0  0  0  0  0
   55.5210   28.8910   45.1570 O   0  0  0  0  0  0  0  0  0  0  0  0
   57.8650   29.0060   44.6490 C   0  0  2  0  0  0  0  0  0  0  0  0
   57.7680   27.1790   44.5050 S   0  0  0  0  0  0  0  0  0  0  0  0
   58.1220   27.0960   42.7170 C   0  0  0  0  0  0  0  0  0  0  0  0
   58.7420   29.3800   45.8260 C   0  0  0  0  0  0  0  0  0  0  0  0
   58.3470   29.0410   47.1370 C   0  0  0  0  0  0  0  0  0  0  0  0
   59.1220   29.4290   48.2360 C   0  0  0  0  0  0  0  0  0  0  0  0
   60.3000   30.1540   48.0390 C   0  0  0  0  0  0  0  0  0  0  0  0
   60.7170   30.4780   46.7400 C   0  0  0  0  0  0  0  0  0  0  0  0
   59.9440   30.0920   45.6390 C   0  0  0  0  0  0  0  0  0  0  0  0
   57.9640   32.7230   43.8730 C   0  0  0  0  0  0  0  0  0  0  0  0
   58.9480   33.6380   44.2540 C   0  0  0  0  0  0  0  0  0  0  0  0
   61.9310   32.9140   48.7370 C   0  0  0  0  0  0  0  0  0  0  0  0
   61.6740   32.5030   50.0590 C   0  0  0  0  0  0  0  0  0  0  0  0
   62.5570   31.4540   50.6810 C   0  0  0  0  0  0  0  0  0  0  0  0
   58.2896   30.2164   52.3589 H   0  0  0  0  0  0  0  0  0  0  0  0
   57.4900   29.8067   50.8035 H   0  0  0  0  0  0  0  0  0  0  0  0
   59.1111   30.5803   50.8035 H   0  0  0  0  0  0  0  0  0  0  0  0
   57.4098   32.2548   50.2478 H   0  0  0  0  0  0  0  0  0  0  0  0
   56.4828   31.8234   51.7467 H   0  0  0  0  0  0  0  0  0  0  0  0
   58.2799   33.8993   51.5559 H   0  0  0  0  0  0  0  0  0  0  0  0
   57.8082   33.0564   53.0834 H   0  0  0  0  0  0  0  0  0  0  0  0
   58.9148   34.4472   50.6709 H   0  0  0  0  0  0  0  0  0  0  0  0
   59.4567   35.2487   48.3766 H   0  0  0  0  0  0  0  0  0  0  0  0
   58.5068   33.5430   47.6395 H   0  0  0  0  0  0  0  0  0  0  0  0
   56.8403   31.8081   46.9719 H   0  0  0  0  0  0  0  0  0  0  0  0
   58.3123   29.4096   43.7287 H   0  0  0  0  0  0  0  0  0  0  0  0
   59.1826   26.8473   42.5644 H   0  0  0  0  0  0  0  0  0  0  0  0
   57.4934   26.3209   42.2544 H   0  0  0  0  0  0  0  0  0  0  0  0
   57.9034   28.0697   42.2544 H   0  0  0  0  0  0  0  0  0  0  0  0
   57.4224   28.4670   47.2969 H   0  0  0  0  0  0  0  0  0  0  0  0
   58.8037   29.1631   49.2548 H   0  0  0  0  0  0  0  0  0  0  0  0
   60.9011   30.4710   48.9040 H   0  0  0  0  0  0  0  0  0  0  0  0
   61.6524   31.0360   46.5862 H   0  0  0  0  0  0  0  0  0  0  0  0
   60.2765   30.3458   44.6216 H   0  0  0  0  0  0  0  0  0  0  0  0
   57.7920   32.5190   42.8059 H   0  0  0  0  0  0  0  0  0  0  0  0
   59.5473   34.1505   43.4871 H   0  0  0  0  0  0  0  0  0  0  0  0
   62.7701   32.4701   48.1812 H   0  0  0  0  0  0  0  0  0  0  0  0
   62.4961   31.5263   51.7769 H   0  0  0  0  0  0  0  0  0  0  0  0
   62.2229   30.4563   50.3602 H   0  0  0  0  0  0  0  0  0  0  0  0
   63.5971   31.6130   50.3602 H   0  0  0  0  0  0  0  0  0  0  0  0
  1  2  1  0
  2  3  1  0
  3  4  1  0
  4  5  1  0
  5  6  2  0
  6  7  1  0
  7  8  2  0
  8  9  1  0
  9 10  2  0
  9 11  1  0
 11 12  1  0
 12 13  2  0
 13 14  1  0
 14 15  2  0
 15 16  1  0
 16 17  1  0
 17 18  2  0
 17 19  1  0
 19 20  1  0
 20 21  1  0
 19 22  1  0
 22 23  2  0
 23 24  1  0
 24 25  2  0
 25 26  1  0
 26 27  2  0
 15 28  1  0
 28 29  2  0
  8 30  1  0
 30 31  2  0
 31 32  1  0
 31  5  1  0
 29 12  1  0
 27 22  1  0
  1 33  1  0
  1 34  1  0
  1 35  1  0
  2 36  1  0
  2 37  1  0
  3 38  1  0
  3 39  1  0
  6 40  1  0
  7 41  1  0
 13 42  1  0
 14 43  1  0
 19 44  1  6
 21 45  1  0
 21 46  1  0
 21 47  1  0
 23 48  1  0
 24 49  1  0
 25 50  1  0
 26 51  1  0
 27 52  1  0
 28 53  1  0
 29 54  1  0
 30 55  1  0
 32 56  1  0
 32 57  1  0
 32 58  1  0
M  CHG  1  16  -1
M  END
>  <UniqueID>  (11) 
11

>  <SMILES>  (11) 
CCCSc1ccc(C(=O)Oc2ccc([N-]C(=O)[C@H](SC)c3ccccc3)cc2)cc1C

>  <Energy>  (11) 
74.04893698284364

>  <Genealogy>  (11) 
CCCSc1ccc(C(=O)Oc2ccc([N-]C(=O)C(SC)c3ccccc3)cc2)cc1C (protonated)
CCCSc1ccc(C(=O)Oc2ccc([N-]C(=O)[C@H](SC)c3ccccc3)cc2)cc1C (chirality)
CCCSc1ccc(C(=O)Oc2ccc([N-]C(=O)[C@H](SC)c3ccccc3)cc2)cc1C (3D coordinates assigned)
CCCSc1ccc(C(=O)Oc2ccc([N-]C(=O)[C@H](SC)c3ccccc3)cc2)cc1C (optimized conformer: 74.04893698284364 kcal/mol)

>  <smiles>  (11) 
CCCSc1ccc(C(=O)Oc2ccc(NC(=O)C(SC)c3ccccc3)cc2)cc1C

>  <score_type>  (11) 
oracle

>  <origin>  (11) 
adg

>  <m_score__min__energy>  (11) 
-11.859999999999999

>  <m_primary>  (11) 
energy

$$$$
11:0
     RDKit          3D

 35 36  0  0  0  0  0  0  0  0999 V2000
   58.2220   23.9960   45.8360 C   0  0  0  0  0  0  0  0  0  0  0  0
   57.1770   25.0070   45.6750 N   0  0  0  0  0  0  0  0  0  0  0  0
   57.5130   26.3360   45.2270 C   0  0  0  0  0  0  0  0  0  0  0  0
   57.4530   27.4250   46.1110 C   0  0  0  0  0  0  0  0  0  0  0  0
   57.7840   28.7120   45.6800 C   0  0  0  0  0  0  0  0  0  0  0  0
   58.1820   28.9380   44.3490 C   0  0  0  0  0  0  0  0  0  0  0  0
   58.5190   30.2510   43.8670 N   0  0  0  0  0  0  0  0  0  0  0  0
   57.4410   31.6110   43.9260 S   0  0  0  0  0  0  0  0  0  0  0  0
   56.1230   31.1770   44.5030 O   0  0  0  0  0  0  0  0  0  0  0  0
   57.2200   32.1300   42.5330 O   0  0  0  0  0  0  0  0  0  0  0  0
   58.1200   32.8650   44.9460 C   0  0  0  0  0  0  0  0  0  0  0  0
   58.8640   33.9520   44.5120 C   0  0  0  0  0  0  0  0  0  0  0  0
   59.2930   34.7710   45.5620 C   0  0  0  0  0  0  0  0  0  0  0  0
   58.8880   34.3300   46.8150 C   0  0  0  0  0  0  0  0  0  0  0  0
   57.9960   32.9160   46.6200 S   0  0  0  0  0  0  0  0  0  0  0  0
   58.2580   27.8470   43.4710 C   0  0  0  0  0  0  0  0  0  0  0  0
   57.9280   26.5610   43.9030 C   0  0  0  0  0  0  0  0  0  0  0  0
   55.5340   24.5870   46.0680 S   0  0  0  0  0  0  0  0  0  0  0  0
   54.9410   23.3520   44.9330 C   0  0  0  0  0  0  0  0  0  0  0  0
   55.4590   24.0570   47.4730 O   0  0  0  0  0  0  0  0  0  0  0  0
   54.6690   25.8110   45.9720 O   0  0  0  0  0  0  0  0  0  0  0  0
   58.4019   23.8220   46.9071 H   0  0  0  0  0  0  0  0  0  0  0  0
   57.9004   23.0574   45.3610 H   0  0  0  0  0  0  0  0  0  0  0  0
   59.1494   24.3484   45.3610 H   0  0  0  0  0  0  0  0  0  0  0  0
   57.1422   27.2632   47.1537 H   0  0  0  0  0  0  0  0  0  0  0  0
   57.7332   29.5544   46.3856 H   0  0  0  0  0  0  0  0  0  0  0  0
   59.4300   30.3930   43.3760 H   0  0  0  0  0  0  0  0  0  0  0  0
   59.0926   34.1493   43.4543 H   0  0  0  0  0  0  0  0  0  0  0  0
   59.8947   35.6791   45.4094 H   0  0  0  0  0  0  0  0  0  0  0  0
   59.1123   34.8217   47.7731 H   0  0  0  0  0  0  0  0  0  0  0  0
   58.5808   28.0061   42.4316 H   0  0  0  0  0  0  0  0  0  0  0  0
   57.9933   25.7165   43.2011 H   0  0  0  0  0  0  0  0  0  0  0  0
   54.5324   22.5010   45.4977 H   0  0  0  0  0  0  0  0  0  0  0  0
   54.1523   23.7844   44.2998 H   0  0  0  0  0  0  0  0  0  0  0  0
   55.7716   23.0069   44.2998 H   0  0  0  0  0  0  0  0  0  0  0  0
  1  2  1  0
  2  3  1  0
  3  4  2  0
  4  5  1  0
  5  6  2  0
  6  7  1  0
  7  8  1  0
  8  9  2  0
  8 10  2  0
  8 11  1  0
 11 12  2  0
 12 13  1  0
 13 14  2  0
 14 15  1  0
  6 16  1  0
 16 17  2  0
  2 18  1  0
 18 19  1  0
 18 20  2  0
 18 21  2  0
 17  3  1  0
 15 11  1  0
  1 22  1  0
  1 23  1  0
  1 24  1  0
  4 25  1  0
  5 26  1  0
  7 27  1  0
 12 28  1  0
 13 29  1  0
 14 30  1  0
 16 31  1  0
 17 32  1  0
 19 33  1  0
 19 34  1  0
 19 35  1  0
M  END
>  <UniqueID>  (12) 
12

>  <SMILES>  (12) 
CN(c1ccc(NS(=O)(=O)c2cccs2)cc1)S(C)(=O)=O

>  <Energy>  (12) 
63.510286048670785

>  <Genealogy>  (12) 
CN(c1ccc(NS(=O)(=O)c2cccs2)cc1)S(C)(=O)=O (3D coordinates assigned)
CN(c1ccc(NS(=O)(=O)c2cccs2)cc1)S(C)(=O)=O (optimized conformer: 63.510286048670785 kcal/mol)

>  <smiles>  (12) 
CN(c1ccc(NS(=O)(=O)c2cccs2)cc1)S(C)(=O)=O

>  <score_type>  (12) 
oracle

>  <origin>  (12) 
adg

>  <m_score__min__energy>  (12) 
-8.0199999999999996

>  <m_primary>  (12) 
energy

$$$$
12:0
     RDKit          3D

 48 51  0  0  0  0  0  0  0  0999 V2000
   58.5100   34.1370   46.2380 C   0  0  0  0  0  0  0  0  0  0  0  0
   59.2930   32.9560   46.3760 O   0  0  0  0  0  0  0  0  0  0  0  0
   58.7870   31.6470   46.3270 C   0  0  0  0  0  0  0  0  0  0  0  0
   57.7640   31.2810   45.4290 C   0  0  0  0  0  0  0  0  0  0  0  0
   57.2650   29.9680   45.4030 C   0  0  0  0  0  0  0  0  0  0  0  0
   56.1900   29.5860   44.4590 C   0  0  0  0  0  0  0  0  0  0  0  0
   55.1690   28.9700   44.8650 O   0  0  0  0  0  0  0  0  0  0  0  0
   56.2920   29.9030   43.1090 O   0  0  0  0  0  0  0  0  0  0  0  0
   57.7950   29.0180   46.2880 C   0  0  0  0  0  0  0  0  0  0  0  0
   58.8080   29.3720   47.1810 C   0  0  0  0  0  0  0  0  0  0  0  0
   59.3190   30.6790   47.2010 C   0  0  0  0  0  0  0  0  0  0  0  0
   60.3860   31.0420   48.2040 C   0  0  0  0  0  0  0  0  0  0  0  0
   59.8550   31.9950   49.1790 N   0  0  0  0  0  0  0  0  0  0  0  0
   60.2220   33.2940   49.3180 C   0  0  0  0  0  0  0  0  0  0  0  0
   59.6080   33.9170   50.3570 N   0  0  0  0  0  0  0  0  0  0  0  0
   58.8320   32.9490   50.8760 C   0  0  0  0  0  0  0  0  0  0  0  0
   57.9880   33.0410   51.9790 C   0  0  0  0  0  0  0  0  0  0  0  0
   57.2740   31.8910   52.3590 C   0  0  0  0  0  0  0  0  0  0  0  0
   57.4170   30.6770   51.6320 C   0  0  0  0  0  0  0  0  0  0  0  0
   56.7100   29.4840   51.9970 N   0  0  0  0  0  0  0  0  0  0  0  0
   55.4770   29.3830   53.2110 S   0  0  0  0  0  0  0  0  0  0  0  0
   55.1120   27.9460   53.4550 O   0  0  0  0  0  0  0  0  0  0  0  0
   55.9850   30.0080   54.4810 O   0  0  0  0  0  0  0  0  0  0  0  0
   54.0520   30.2480   52.6480 C   0  0  0  0  0  0  0  0  0  0  0  0
   53.9550   30.6720   51.3140 C   0  0  0  0  0  0  0  0  0  0  0  0
   52.8190   31.3610   50.8780 C   0  0  0  0  0  0  0  0  0  0  0  0
   51.7780   31.6340   51.7700 C   0  0  0  0  0  0  0  0  0  0  0  0
   50.6780   32.3030   51.3460 F   0  0  0  0  0  0  0  0  0  0  0  0
   51.8750   31.2210   53.1030 C   0  0  0  0  0  0  0  0  0  0  0  0
   53.0090   30.5300   53.5410 C   0  0  0  0  0  0  0  0  0  0  0  0
   58.2760   30.6290   50.5160 C   0  0  0  0  0  0  0  0  0  0  0  0
   58.9740   31.7890   50.1740 C   0  0  0  0  0  0  0  0  0  0  0  0
   58.2528   34.5249   47.2347 H   0  0  0  0  0  0  0  0  0  0  0  0
   59.0847   34.8956   45.6864 H   0  0  0  0  0  0  0  0  0  0  0  0
   57.5875   33.9030   45.6864 H   0  0  0  0  0  0  0  0  0  0  0  0
   57.3513   32.0327   44.7401 H   0  0  0  0  0  0  0  0  0  0  0  0
   57.4102   27.9876   46.2785 H   0  0  0  0  0  0  0  0  0  0  0  0
   59.2095   28.6194   47.8756 H   0  0  0  0  0  0  0  0  0  0  0  0
   60.7182   30.1331   48.7271 H   0  0  0  0  0  0  0  0  0  0  0  0
   61.2351   31.5013   47.6766 H   0  0  0  0  0  0  0  0  0  0  0  0
   60.9446   33.7926   48.6553 H   0  0  0  0  0  0  0  0  0  0  0  0
   57.8829   33.9838   52.5359 H   0  0  0  0  0  0  0  0  0  0  0  0
   56.5987   31.9305   53.2264 H   0  0  0  0  0  0  0  0  0  0  0  0
   54.7738   30.4621   50.6101 H   0  0  0  0  0  0  0  0  0  0  0  0
   52.7444   31.6889   49.8307 H   0  0  0  0  0  0  0  0  0  0  0  0
   51.0587   31.4400   53.8071 H   0  0  0  0  0  0  0  0  0  0  0  0
   53.0828   30.2066   54.5898 H   0  0  0  0  0  0  0  0  0  0  0  0
   58.3933   29.7047   49.9313 H   0  0  0  0  0  0  0  0  0  0  0  0
  1  2  1  0
  2  3  1  0
  3  4  2  0
  4  5  1  0
  5  6  1  0
  6  7  2  0
  6  8  1  0
  5  9  2  0
  9 10  1  0
 10 11  2  0
 11 12  1  0
 12 13  1  0
 13 14  1  0
 14 15  2  0
 15 16  1  0
 16 17  2  0
 17 18  1  0
 18 19  2  0
 19 20  1  0
 20 21  1  0
 21 22  2  0
 21 23  2  0
 21 24  1  0
 24 25  2  0
 25 26  1  0
 26 27  2  0
 27 28  1  0
 27 29  1  0
 29 30  2  0
 19 31  1  0
 31 32  2  0
 11  3  1  0
 32 13  1  0
 32 16  1  0
 30 24  1  0
  1 33  1  0
  1 34  1  0
  1 35  1  0
  4 36  1  0
  9 37  1  0
 10 38  1  0
 12 39  1  0
 12 40  1  0
 14 41  1  0
 17 42  1  0
 18 43  1  0
 25 44  1  0
 26 45  1  0
 29 46  1  0
 30 47  1  0
 31 48  1  0
M  CHG  2   8  -1  20  -1
M  END
>  <UniqueID>  (13) 
13

>  <SMILES>  (13) 
COc1cc(C(=O)[O-])ccc1Cn1cnc2ccc([N-]S(=O)(=O)c3ccc(F)cc3)cc21

>  <Energy>  (13) 
92.91485746629697

>  <Genealogy>  (13) 
COc1cc(C(=O)[O-])ccc1Cn1cnc2ccc([N-]S(=O)(=O)c3ccc(F)cc3)cc21 (protonated)
COc1cc(C(=O)[O-])ccc1Cn1cnc2ccc([N-]S(=O)(=O)c3ccc(F)cc3)cc21 (3D coordinates assigned)
COc1cc(C(=O)[O-])ccc1Cn1cnc2ccc([N-]S(=O)(=O)c3ccc(F)cc3)cc21 (optimized conformer: 92.91485746629697 kcal/mol)

>  <smiles>  (13) 
COc1cc(C(=O)O)ccc1Cn1cnc2ccc(NS(=O)(=O)c3ccc(F)cc3)cc21

>  <score_type>  (13) 
oracle

>  <origin>  (13) 
adg

>  <m_score__min__energy>  (13) 
-11.609999999999999

>  <m_primary>  (13) 
energy

$$$$
13:0
     RDKit          3D

 63 66  0  0  0  0  0  0  0  0999 V2000
   60.9560   30.4230   48.6090 C   0  0  0  0  0  0  0  0  0  0  0  0
   60.2100   29.8350   47.4480 C   0  0  0  0  0  0  0  0  0  0  0  0
   60.8330   29.7120   46.1950 C   0  0  0  0  0  0  0  0  0  0  0  0
   60.1200   29.2130   45.0990 C   0  0  0  0  0  0  0  0  0  0  0  0
   58.7750   28.8480   45.2420 C   0  0  0  0  0  0  0  0  0  0  0  0
   58.0320   28.3800   44.1070 N   0  0  0  0  0  0  0  0  0  0  0  0
   56.8090   29.0800   43.6940 C   0  0  0  0  0  0  0  0  0  0  0  0
   57.1040   30.5560   43.3980 C   0  0  0  0  0  0  0  0  0  0  0  0
   56.5590   31.4890   44.4880 C   0  0  0  0  0  0  0  0  0  0  0  0
   57.6210   31.9580   45.3740 N   0  0  0  0  0  0  0  0  0  0  0  0
   57.5900   33.2060   46.0770 C   0  0  0  0  0  0  0  0  0  0  0  0
   56.6920   33.4360   46.9310 O   0  0  0  0  0  0  0  0  0  0  0  0
   58.5730   34.2070   45.8110 N   0  0  0  0  0  0  0  0  0  0  0  0
   59.9590   33.8830   45.4910 C   0  0  0  0  0  0  0  0  0  0  0  0
   60.7900   33.8180   46.7440 C   0  0  0  0  0  0  0  0  0  0  0  0
   60.2190   34.1540   47.9850 C   0  0  0  0  0  0  0  0  0  0  0  0
   61.0040   34.1710   49.1430 C   0  0  0  0  0  0  0  0  0  0  0  0
   62.3650   33.8590   49.0710 C   0  0  0  0  0  0  0  0  0  0  0  0
   62.9440   33.5370   47.8400 C   0  0  0  0  0  0  0  0  0  0  0  0
   62.1660   33.5270   46.6780 C   0  0  0  0  0  0  0  0  0  0  0  0
   58.4750   27.1610   43.4220 C   0  0  0  0  0  0  0  0  0  0  0  0
   58.1440   25.9550   44.2590 C   0  0  0  0  0  0  0  0  0  0  0  0
   58.4930   25.9300   45.6130 C   0  0  0  0  0  0  0  0  0  0  0  0
   58.1260   24.8530   46.4170 C   0  0  0  0  0  0  0  0  0  0  0  0
   57.3950   23.7790   45.8800 C   0  0  0  0  0  0  0  0  0  0  0  0
   57.0220   22.6930   46.6970 C   0  0  0  0  0  0  0  0  0  0  0  0
   57.3860   22.6490   48.0420 O   0  0  0  0  0  0  0  0  0  0  0  0
   56.2800   21.6410   46.1660 C   0  0  0  0  0  0  0  0  0  0  0  0
   55.9050   21.6500   44.8240 C   0  0  0  0  0  0  0  0  0  0  0  0
   56.2800   22.7020   43.9790 C   0  0  0  0  0  0  0  0  0  0  0  0
   55.9050   22.6080   42.6370 O   0  0  0  0  0  0  0  0  0  0  0  0
   57.0270   23.7910   44.5040 C   0  0  0  0  0  0  0  0  0  0  0  0
   57.4050   24.8960   43.7120 C   0  0  0  0  0  0  0  0  0  0  0  0
   58.1490   28.9740   46.4900 C   0  0  0  0  0  0  0  0  0  0  0  0
   58.8620   29.4660   47.5880 C   0  0  0  0  0  0  0  0  0  0  0  0
   60.5080   30.0698   49.5495 H   0  0  0  0  0  0  0  0  0  0  0  0
   62.0095   30.1098   48.5644 H   0  0  0  0  0  0  0  0  0  0  0  0
   60.8976   31.5205   48.5644 H   0  0  0  0  0  0  0  0  0  0  0  0
   61.8853   30.0090   46.0748 H   0  0  0  0  0  0  0  0  0  0  0  0
   60.6167   29.1072   44.1232 H   0  0  0  0  0  0  0  0  0  0  0  0
   56.4082   28.6028   42.7875 H   0  0  0  0  0  0  0  0  0  0  0  0
   56.0750   29.0226   44.5113 H   0  0  0  0  0  0  0  0  0  0  0  0
   58.1933   30.6919   43.3283 H   0  0  0  0  0  0  0  0  0  0  0  0
   56.6053   30.8158   42.4526 H   0  0  0  0  0  0  0  0  0  0  0  0
   56.0836   32.3579   44.0094 H   0  0  0  0  0  0  0  0  0  0  0  0
   55.8314   30.9259   45.0909 H   0  0  0  0  0  0  0  0  0  0  0  0
   59.9944   32.9082   44.9826 H   0  0  0  0  0  0  0  0  0  0  0  0
   60.3649   34.6682   44.8363 H   0  0  0  0  0  0  0  0  0  0  0  0
   59.1496   34.4047   48.0453 H   0  0  0  0  0  0  0  0  0  0  0  0
   60.5500   34.4300   50.1109 H   0  0  0  0  0  0  0  0  0  0  0  0
   62.9801   33.8669   49.9829 H   0  0  0  0  0  0  0  0  0  0  0  0
   64.0147   33.2908   47.7852 H   0  0  0  0  0  0  0  0  0  0  0  0
   62.6306   33.2910   45.7092 H   0  0  0  0  0  0  0  0  0  0  0  0
   57.9646   27.0823   42.4507 H   0  0  0  0  0  0  0  0  0  0  0  0
   59.5631   27.2072   43.2672 H   0  0  0  0  0  0  0  0  0  0  0  0
   59.0612   26.7664   46.0462 H   0  0  0  0  0  0  0  0  0  0  0  0
   58.4103   24.8430   47.4796 H   0  0  0  0  0  0  0  0  0  0  0  0
   55.9882   20.7980   46.8097 H   0  0  0  0  0  0  0  0  0  0  0  0
   55.3061   20.8192   44.4227 H   0  0  0  0  0  0  0  0  0  0  0  0
   56.4830   22.8950   41.8620 H   0  0  0  0  0  0  0  0  0  0  0  0
   57.1161   24.9272   42.6511 H   0  0  0  0  0  0  0  0  0  0  0  0
   57.0940   28.6851   46.6060 H   0  0  0  0  0  0  0  0  0  0  0  0
   58.3654   29.5643   48.5646 H   0  0  0  0  0  0  0  0  0  0  0  0
  1  2  1  0
  2  3  2  0
  3  4  1  0
  4  5  2  0
  5  6  1  0
  6  7  1  0
  7  8  1  0
  8  9  1  0
  9 10  1  0
 10 11  1  0
 11 12  2  0
 11 13  1  0
 13 14  1  0
 14 15  1  0
 15 16  2  0
 16 17  1  0
 17 18  2  0
 18 19  1  0
 19 20  2  0
  6 21  1  0
 21 22  1  0
 22 23  2  0
 23 24  1  0
 24 25  2  0
 25 26  1  0
 26 27  1  0
 26 28  2  0
 28 29  1  0
 29 30  2  0
 30 31  1  0
 30 32  1  0
 32 33  2  0
  5 34  1  0
 34 35  2  0
 35  2  1  0
 20 15  1  0
 33 22  1  0
 32 25  1  0
  1 36  1  0
  1 37  1  0
  1 38  1  0
  3 39  1  0
  4 40  1  0
  7 41  1  0
  7 42  1  0
  8 43  1  0
  8 44  1  0
  9 45  1  0
  9 46  1  0
 14 47  1  0
 14 48  1  0
 16 49  1  0
 17 50  1  0
 18 51  1  0
 19 52  1  0
 20 53  1  0
 21 54  1  0
 21 55  1  0
 23 56  1  0
 24 57  1  0
 28 58  1  0
 29 59  1  0
 31 60  1  0
 33 61  1  0
 34 62  1  0
 35 63  1  0
M  CHG  3  10  -1  13  -1  27  -1
M  END
>  <UniqueID>  (14) 
14

>  <SMILES>  (14) 
Cc1ccc(N(CCC[N-]C(=O)[N-]Cc2ccccc2)Cc2ccc3c([O-])ccc(O)c3c2)cc1

>  <Energy>  (14) 
67.82965242721166

>  <Genealogy>  (14) 
Cc1ccc(N(CCC[N-]C(=O)[N-]Cc2ccccc2)Cc2ccc3c([O-])ccc(O)c3c2)cc1 (protonated)
Cc1ccc(N(CCC[N-]C(=O)[N-]Cc2ccccc2)Cc2ccc3c([O-])ccc(O)c3c2)cc1 (3D coordinates assigned)
Cc1ccc(N(CCC[N-]C(=O)[N-]Cc2ccccc2)Cc2ccc3c([O-])ccc(O)c3c2)cc1 (optimized conformer: 67.82965242721166 kcal/mol)

>  <smiles>  (14) 
Cc1ccc(N(CCCNC(=O)NCc2ccccc2)Cc2ccc3c(O)ccc(O)c3c2)cc1

>  <score_type>  (14) 
oracle

>  <origin>  (14) 
adg

>  <m_score__min__energy>  (14) 
-15.4

>  <m_primary>  (14) 
energy

$$$$
14:0
     RDKit          3D

 44 48  0  0  0  0  0  0  0  0999 V2000
   55.1460   27.5540   45.4420 H   0  0  0  0  0  0  0  0  0  0  0  0
   54.9810   26.7080   45.9740 O   0  0  0  0  0  0  0  0  0  0  0  0
   56.0280   25.8720   46.3550 C   0  0  0  0  0  0  0  0  0  0  0  0
   55.8770   24.8470   47.2090 N   0  0  0  0  0  0  0  0  0  0  0  0
   57.1350   24.3710   47.3290 C   0  0  0  0  0  0  0  0  0  0  0  0
   57.4200   23.3900   48.0640 O   0  0  0  0  0  0  0  0  0  0  0  0
   58.0640   25.0320   46.6070 N   0  0  0  0  0  0  0  0  0  0  0  0
   57.3490   25.9750   45.9680 C   0  0  0  0  0  0  0  0  0  0  0  0
   57.9520   26.9940   45.0950 C   0  0  0  0  0  0  0  0  0  0  0  0
   58.6688   26.6609   44.3300 H   0  0  0  0  0  0  0  0  0  0  0  0
   57.6800   28.3050   45.1760 C   0  0  0  0  0  0  0  0  0  0  0  0
   56.8200   29.0160   44.3450 C   0  0  0  0  0  0  0  0  0  0  0  0
   56.2637   28.5883   43.4979 H   0  0  0  0  0  0  0  0  0  0  0  0
   56.7690   30.3120   44.7330 N   0  0  0  0  0  0  0  0  0  0  0  0
   57.5640   30.4360   45.7850 N   0  0  0  0  0  0  0  0  0  0  0  0
   57.8170   31.5420   46.5430 C   0  0  0  0  0  0  0  0  0  0  0  0
   57.3040   32.7140   46.2920 N   0  0  0  0  0  0  0  0  0  0  0  0
   57.4660   33.4890   45.0670 C   0  0  0  0  0  0  0  0  0  0  0  0
   56.4253   33.4340   44.7150 H   0  0  0  0  0  0  0  0  0  0  0  0
   58.4980   34.5980   45.1710 C   0  0  0  0  0  0  0  0  0  0  0  0
   58.3634   35.5300   44.6024 H   0  0  0  0  0  0  0  0  0  0  0  0
   58.9478   35.1677   45.9975 H   0  0  0  0  0  0  0  0  0  0  0  0
   58.8380   33.3050   44.4440 C   0  0  0  0  0  0  0  0  0  0  0  0
   58.9494   33.3021   43.3497 H   0  0  0  0  0  0  0  0  0  0  0  0
   59.6357   32.5522   44.5270 H   0  0  0  0  0  0  0  0  0  0  0  0
   58.6440   31.4020   47.6150 N   0  0  0  0  0  0  0  0  0  0  0  0
   59.2020   30.1890   47.9220 C   0  0  0  0  0  0  0  0  0  0  0  0
   59.9920   30.0600   48.9450 N   0  0  0  0  0  0  0  0  0  0  0  0
   60.6910   31.1620   49.6070 C   0  0  0  0  0  0  0  0  0  0  0  0
   59.9532   31.8243   50.0835 H   0  0  0  0  0  0  0  0  0  0  0  0
   61.3730   30.7469   50.3637 H   0  0  0  0  0  0  0  0  0  0  0  0
   61.4940   31.9520   48.6100 C   0  0  0  0  0  0  0  0  0  0  0  0
   62.8350   31.6240   48.3490 C   0  0  0  0  0  0  0  0  0  0  0  0
   63.3000   30.7703   48.8636 H   0  0  0  0  0  0  0  0  0  0  0  0
   63.5810   32.3780   47.4380 C   0  0  0  0  0  0  0  0  0  0  0  0
   64.6300   32.1150   47.2368 H   0  0  0  0  0  0  0  0  0  0  0  0
   62.9960   33.4660   46.7820 C   0  0  0  0  0  0  0  0  0  0  0  0
   63.7230   34.1950   45.9010 F   0  0  0  0  0  0  0  0  0  0  0  0
   61.6620   33.8000   47.0390 C   0  0  0  0  0  0  0  0  0  0  0  0
   61.0940   34.8570   46.4060 F   0  0  0  0  0  0  0  0  0  0  0  0
   60.9130   33.0480   47.9500 C   0  0  0  0  0  0  0  0  0  0  0  0
   59.8651   33.3156   48.1505 H   0  0  0  0  0  0  0  0  0  0  0  0
   58.9290   29.1000   47.1510 N   0  0  0  0  0  0  0  0  0  0  0  0
   58.1170   29.2550   46.0780 C   0  0  0  0  0  0  0  0  0  0  0  0
  1  2  1  0
  2  3  1  0
  3  4  1  0
  4  5  1  0
  5  6  2  0
  5  7  1  0
  7  8  1  0
  8  9  1  0
  9 10  1  0
  9 11  2  0
 11 12  1  0
 12 13  1  0
 12 14  2  0
 14 15  1  0
 15 16  1  0
 16 17  2  3
 17 18  1  0
 18 19  1  0
 18 20  1  0
 20 21  1  0
 20 22  1  0
 20 23  1  0
 23 24  1  0
 23 25  1  0
 16 26  1  0
 26 27  1  0
 27 28  2  0
 28 29  1  0
 29 30  1  0
 29 31  1  0
 29 32  1  0
 32 33  2  0
 33 34  1  0
 33 35  1  0
 35 36  1  0
 35 37  2  0
 37 38  1  0
 37 39  1  0
 39 40  1  0
 39 41  2  0
 41 42  1  0
 27 43  1  0
 43 44  2  0
  8  3  2  0
 44 11  1  0
 44 15  1  0
 23 18  1  0
 41 32  1  0
M  CHG  3   4  -1   7  -1  26  -1
M  END
>  <UniqueID>  (15) 
15

>  <SMILES>  (15) 
O=c1[n-]c(O)c(/C=c2/cnn3c(=NC4CC4)[n-]/c(=N\Cc4ccc(F)c(F)c4)nc23)[n-]1

>  <Energy>  (15) 
389.8786334752045

>  <Genealogy>  (15) 
O=c1[n-]c(O)c(C=c2cnn3c(=NC4CC4)[n-]c(=NCc4ccc(F)c(F)c4)nc23)[n-]1 (protonated)
O=c1[n-]c(O)c(/C=c2/cnn3c(=NC4CC4)[n-]/c(=N\Cc4ccc(F)c(F)c4)nc23)[n-]1 (cis-trans isomerization)
O=c1[n-]c(O)c(/C=c2/cnn3c(=NC4CC4)[n-]/c(=N\Cc4ccc(F)c(F)c4)nc23)[n-]1 (3D coordinates assigned)
O=c1[n-]c(O)c(/C=c2/cnn3c(=NC4CC4)[n-]/c(=N\Cc4ccc(F)c(F)c4)nc23)[n-]1 (nonaromatic ring conformer: 389.8786334752045 kcal/mol)

>  <smiles>  (15) 
O=c1[nH]c(O)c(C=c2cnn3c(=NC4CC4)[nH]c(=NCc4ccc(F)c(F)c4)nc23)[nH]1

>  <score_type>  (15) 
oracle

>  <origin>  (15) 
adg

>  <m_score__min__energy>  (15) 
-14.390000000000001

>  <m_primary>  (15) 
energy

$$$$
15:0
     RDKit          3D

 48 52  0  0  0  0  0  0  0  0999 V2000
   54.5460   25.2020   45.8400 O   0  0  0  0  0  0  0  0  0  0  0  0
   55.6640   24.6230   45.7880 C   0  0  0  0  0  0  0  0  0  0  0  0
   55.6900   23.1990   45.5960 N   0  0  0  0  0  0  0  0  0  0  0  0
   56.3260   22.5410   44.6710 C   0  0  0  0  0  0  0  0  0  0  0  0
   55.8490   22.4380   43.4130 N   0  0  0  0  0  0  0  0  0  0  0  0
   56.6560   21.6770   42.6260 C   0  0  0  0  0  0  0  0  0  0  0  0
   57.7800   21.1570   43.2580 C   0  0  0  0  0  0  0  0  0  0  0  0
   57.7600   21.6700   44.8600 S   0  0  0  0  0  0  0  0  0  0  0  0
   56.9080   25.4450   45.8580 C   0  0  0  0  0  0  0  0  0  0  0  0
   58.0650   24.7170   46.1290 C   0  0  0  0  0  0  0  0  0  0  0  0
   59.3560   25.1630   46.3010 C   0  0  0  0  0  0  0  0  0  0  0  0
   59.8660   26.4310   46.1220 C   0  0  0  0  0  0  0  0  0  0  0  0
   59.2290   27.6110   45.7100 C   0  0  0  0  0  0  0  0  0  0  0  0
   60.1090   28.7040   45.5170 C   0  0  0  0  0  0  0  0  0  0  0  0
   59.6520   29.9580   45.1350 C   0  0  0  0  0  0  0  0  0  0  0  0
   58.3000   30.1690   44.9340 C   0  0  0  0  0  0  0  0  0  0  0  0
   57.7090   31.7590   44.4580 S   0  0  0  0  0  0  0  0  0  0  0  0
   56.2620   31.8790   44.8410 O   0  0  0  0  0  0  0  0  0  0  0  0
   57.8430   31.9440   42.9730 O   0  0  0  0  0  0  0  0  0  0  0  0
   58.6300   32.9890   45.2600 N   0  0  0  0  0  0  0  0  0  0  0  0
   59.0200   34.2560   44.6490 C   0  0  0  0  0  0  0  0  0  0  0  0
   59.6280   35.1080   45.7900 C   0  0  0  0  0  0  0  0  0  0  0  0
   59.4680   34.2390   46.9910 C   0  0  0  0  0  0  0  0  0  0  0  0
   59.8080   34.5270   48.3150 C   0  0  0  0  0  0  0  0  0  0  0  0
   59.5500   33.5560   49.2970 C   0  0  0  0  0  0  0  0  0  0  0  0
   58.9610   32.3270   48.9430 C   0  0  0  0  0  0  0  0  0  0  0  0
   58.6280   32.0620   47.6050 C   0  0  0  0  0  0  0  0  0  0  0  0
   58.8980   33.0450   46.6480 C   0  0  0  0  0  0  0  0  0  0  0  0
   57.4060   29.1130   45.1120 C   0  0  0  0  0  0  0  0  0  0  0  0
   57.8250   27.8080   45.5110 C   0  0  0  0  0  0  0  0  0  0  0  0
   56.7870   26.8430   45.6790 C   0  0  0  0  0  0  0  0  0  0  0  0
   55.5960   27.2730   45.6450 O   0  0  0  0  0  0  0  0  0  0  0  0
   56.4352   21.4865   41.5653 H   0  0  0  0  0  0  0  0  0  0  0  0
   58.5477   20.5216   42.7922 H   0  0  0  0  0  0  0  0  0  0  0  0
   57.9268   23.6294   46.2183 H   0  0  0  0  0  0  0  0  0  0  0  0
   60.0808   24.4022   46.6263 H   0  0  0  0  0  0  0  0  0  0  0  0
   60.9402   26.5337   46.3356 H   0  0  0  0  0  0  0  0  0  0  0  0
   61.1874   28.5547   45.6746 H   0  0  0  0  0  0  0  0  0  0  0  0
   60.3649   30.7835   44.9922 H   0  0  0  0  0  0  0  0  0  0  0  0
   59.7663   34.0861   43.8590 H   0  0  0  0  0  0  0  0  0  0  0  0
   58.1613   34.7604   44.1819 H   0  0  0  0  0  0  0  0  0  0  0  0
   60.6895   35.3232   45.5981 H   0  0  0  0  0  0  0  0  0  0  0  0
   59.1416   36.0884   45.9007 H   0  0  0  0  0  0  0  0  0  0  0  0
   60.2665   35.4905   48.5821 H   0  0  0  0  0  0  0  0  0  0  0  0
   59.8093   33.7567   50.3470 H   0  0  0  0  0  0  0  0  0  0  0  0
   58.7610   31.5718   49.7174 H   0  0  0  0  0  0  0  0  0  0  0  0
   58.1667   31.1058   47.3171 H   0  0  0  0  0  0  0  0  0  0  0  0
   56.3349   29.2932   44.9379 H   0  0  0  0  0  0  0  0  0  0  0  0
  1  2  2  0
  2  3  1  0
  3  4  2  3
  4  5  1  0
  5  6  1  0
  6  7  2  0
  7  8  1  0
  2  9  1  0
  9 10  2  0
 10 11  1  0
 11 12  2  0
 12 13  1  0
 13 14  2  0
 14 15  1  0
 15 16  2  0
 16 17  1  0
 17 18  2  0
 17 19  2  0
 17 20  1  0
 20 21  1  0
 21 22  1  0
 22 23  1  0
 23 24  2  0
 24 25  1  0
 25 26  2  0
 26 27  1  0
 27 28  2  0
 16 29  1  0
 29 30  2  0
 30 31  1  0
 31 32  2  0
  8  4  1  0
 31  9  1  0
 30 13  1  0
 28 20  1  0
 28 23  1  0
  6 33  1  0
  7 34  1  0
 10 35  1  0
 11 36  1  0
 12 37  1  0
 14 38  1  0
 15 39  1  0
 21 40  1  0
 21 41  1  0
 22 42  1  0
 22 43  1  0
 24 44  1  0
 25 45  1  0
 26 46  1  0
 27 47  1  0
 29 48  1  0
M  CHG  1   5  -1
M  END
>  <UniqueID>  (16) 
16

>  <SMILES>  (16) 
O=C(N=c1[n-]ccs1)c1cccc2ccc(S(=O)(=O)N3CCc4ccccc43)cc2c1=O

>  <Energy>  (16) 
143.4179906883274

>  <Genealogy>  (16) 
O=C(N=c1[n-]ccs1)c1cccc2ccc(S(=O)(=O)N3CCc4ccccc43)cc2c1=O (protonated)
O=C(N=c1[n-]ccs1)c1cccc2ccc(S(=O)(=O)N3CCc4ccccc43)cc2c1=O (3D coordinates assigned)
O=C(N=c1[n-]ccs1)c1cccc2ccc(S(=O)(=O)N3CCc4ccccc43)cc2c1=O (nonaromatic ring conformer: 143.4179906883274 kcal/mol)

>  <smiles>  (16) 
O=C(N=c1[nH]ccs1)c1cccc2ccc(S(=O)(=O)N3CCc4ccccc43)cc2c1=O

>  <score_type>  (16) 
oracle

>  <origin>  (16) 
adg

>  <m_score__min__energy>  (16) 
-12.98

>  <m_primary>  (16) 
energy

$$$$
16:0
     RDKit          3D

 51 52  0  0  0  0  0  0  0  0999 V2000
   56.0510   29.3960   44.6180 C   0  0  0  0  0  0  0  0  0  0  0  0
   56.9130   30.5930   44.1730 C   0  0  0  0  0  0  0  0  0  0  0  0
   58.4120   30.2740   44.3500 C   0  0  0  0  0  0  0  0  0  0  0  0
   56.6520   30.8400   42.6770 C   0  0  0  0  0  0  0  0  0  0  0  0
   56.5040   31.8270   44.8770 N   0  0  0  0  0  0  0  0  0  0  0  0
   57.5260   33.2360   44.6980 S   0  0  0  0  0  0  0  0  0  0  0  0
   58.2200   33.2050   43.3640 O   0  0  0  0  0  0  0  0  0  0  0  0
   56.6520   34.4570   44.7300 O   0  0  0  0  0  0  0  0  0  0  0  0
   58.7000   33.3860   46.0010 C   0  0  0  0  0  0  0  0  0  0  0  0
   59.9710   33.9110   45.7340 C   0  0  0  0  0  0  0  0  0  0  0  0
   60.9130   34.0350   46.7600 C   0  0  0  0  0  0  0  0  0  0  0  0
   60.5930   33.6330   48.0660 C   0  0  0  0  0  0  0  0  0  0  0  0
   61.6370   33.6780   49.1540 C   0  0  0  0  0  0  0  0  0  0  0  0
   62.7330   32.6240   48.9400 C   0  0  0  0  0  0  0  0  0  0  0  0
   62.1600   31.2380   48.8570 C   0  0  0  0  0  0  0  0  0  0  0  0
   62.2140   30.4800   49.8610 O   0  0  0  0  0  0  0  0  0  0  0  0
   61.5340   30.7980   47.6410 N   0  0  0  0  0  0  0  0  0  0  0  0
   60.5210   29.7780   47.5690 C   0  0  0  0  0  0  0  0  0  0  0  0
   60.4470   28.9680   46.4290 C   0  0  0  0  0  0  0  0  0  0  0  0
   59.4450   28.0010   46.3080 C   0  0  0  0  0  0  0  0  0  0  0  0
   58.4950   27.8300   47.3220 C   0  0  0  0  0  0  0  0  0  0  0  0
   57.4780   26.8320   47.1420 N   0  0  0  0  0  0  0  0  0  0  0  0
   56.6740   26.6050   45.9780 C   0  0  0  0  0  0  0  0  0  0  0  0
   55.4160   26.6000   46.0370 O   0  0  0  0  0  0  0  0  0  0  0  0
   58.5360   28.6760   48.4470 C   0  0  0  0  0  0  0  0  0  0  0  0
   59.5440   29.6370   48.5700 C   0  0  0  0  0  0  0  0  0  0  0  0
   59.3170   33.1120   48.3320 C   0  0  0  0  0  0  0  0  0  0  0  0
   58.3770   32.9840   47.3050 C   0  0  0  0  0  0  0  0  0  0  0  0
   56.0209   29.3542   45.7168 H   0  0  0  0  0  0  0  0  0  0  0  0
   55.0295   29.5145   44.2275 H   0  0  0  0  0  0  0  0  0  0  0  0
   56.4872   28.4647   44.2275 H   0  0  0  0  0  0  0  0  0  0  0  0
   58.6519   30.2230   45.4223 H   0  0  0  0  0  0  0  0  0  0  0  0
   58.6395   29.3073   43.8769 H   0  0  0  0  0  0  0  0  0  0  0  0
   59.0134   31.0643   43.8769 H   0  0  0  0  0  0  0  0  0  0  0  0
   55.8574   31.5920   42.5627 H   0  0  0  0  0  0  0  0  0  0  0  0
   57.5734   31.2046   42.1994 H   0  0  0  0  0  0  0  0  0  0  0  0
   56.3387   29.9000   42.1994 H   0  0  0  0  0  0  0  0  0  0  0  0
   60.2292   34.2272   44.7126 H   0  0  0  0  0  0  0  0  0  0  0  0
   61.9086   34.4492   46.5426 H   0  0  0  0  0  0  0  0  0  0  0  0
   62.0999   34.6758   49.1616 H   0  0  0  0  0  0  0  0  0  0  0  0
   61.1405   33.4638   50.1119 H   0  0  0  0  0  0  0  0  0  0  0  0
   63.2645   32.8471   48.0031 H   0  0  0  0  0  0  0  0  0  0  0  0
   63.4184   32.6616   49.7996 H   0  0  0  0  0  0  0  0  0  0  0  0
   61.8180   31.2680   46.7520 H   0  0  0  0  0  0  0  0  0  0  0  0
   61.1837   29.0938   45.6219 H   0  0  0  0  0  0  0  0  0  0  0  0
   59.4025   27.3691   45.4086 H   0  0  0  0  0  0  0  0  0  0  0  0
   57.1670   26.4310   45.0102 H   0  0  0  0  0  0  0  0  0  0  0  0
   57.7717   28.5803   49.2323 H   0  0  0  0  0  0  0  0  0  0  0  0
   59.5728   30.2876   49.4565 H   0  0  0  0  0  0  0  0  0  0  0  0
   59.0551   32.8026   49.3546 H   0  0  0  0  0  0  0  0  0  0  0  0
   57.3821   32.5671   47.5203 H   0  0  0  0  0  0  0  0  0  0  0  0
  1  2  1  0
  2  3  1  0
  2  4  1  0
  2  5  1  0
  5  6  1  0
  6  7  2  0
  6  8  2  0
  6  9  1  0
  9 10  2  0
 10 11  1  0
 11 12  2  0
 12 13  1  0
 13 14  1  0
 14 15  1  0
 15 16  2  0
 15 17  1  0
 17 18  1  0
 18 19  2  0
 19 20  1  0
 20 21  2  0
 21 22  1  0
 22 23  1  0
 23 24  2  0
 21 25  1  0
 25 26  2  0
 12 27  1  0
 27 28  2  0
 28  9  1  0
 26 18  1  0
  1 29  1  0
  1 30  1  0
  1 31  1  0
  3 32  1  0
  3 33  1  0
  3 34  1  0
  4 35  1  0
  4 36  1  0
  4 37  1  0
 10 38  1  0
 11 39  1  0
 13 40  1  0
 13 41  1  0
 14 42  1  0
 14 43  1  0
 17 44  1  0
 19 45  1  0
 20 46  1  0
 23 47  1  0
 25 48  1  0
 26 49  1  0
 27 50  1  0
 28 51  1  0
M  CHG  2   5  -1  22  -1
M  END
>  <UniqueID>  (17) 
17

>  <SMILES>  (17) 
CC(C)(C)[N-]S(=O)(=O)c1ccc(CCC(=O)Nc2ccc([N-]C=O)cc2)cc1

>  <Energy>  (17) 
52.85307250744449

>  <Genealogy>  (17) 
CC(C)(C)[N-]S(=O)(=O)c1ccc(CCC(=O)Nc2ccc([N-]C=O)cc2)cc1 (protonated)
CC(C)(C)[N-]S(=O)(=O)c1ccc(CCC(=O)Nc2ccc([N-]C=O)cc2)cc1 (3D coordinates assigned)
CC(C)(C)[N-]S(=O)(=O)c1ccc(CCC(=O)Nc2ccc([N-]C=O)cc2)cc1 (optimized conformer: 52.85307250744449 kcal/mol)

>  <smiles>  (17) 
CC(C)(C)NS(=O)(=O)c1ccc(CCC(=O)Nc2ccc(NC=O)cc2)cc1

>  <score_type>  (17) 
oracle

>  <origin>  (17) 
adg

>  <m_score__min__energy>  (17) 
-11.07

>  <m_primary>  (17) 
energy

$$$$
17:0
     RDKit          3D

 55 57  0  0  0  0  0  0  0  0999 V2000
   60.3150   29.6520   47.8730 C   0  0  0  0  0  0  0  0  0  0  0  0
   58.9370   29.6040   48.5230 C   0  0  0  0  0  0  0  0  0  0  0  0
   58.5570   30.8960   48.9970 O   0  0  0  0  0  0  0  0  0  0  0  0
   58.8720   32.1230   48.3830 C   0  0  0  0  0  0  0  0  0  0  0  0
   58.4770   32.4370   47.0730 C   0  0  0  0  0  0  0  0  0  0  0  0
   58.8190   33.6790   46.5060 C   0  0  0  0  0  0  0  0  0  0  0  0
   58.3820   33.9830   45.1150 C   0  0  0  0  0  0  0  0  0  0  0  0
   58.8690   34.9770   44.5080 O   0  0  0  0  0  0  0  0  0  0  0  0
   57.4220   33.1570   44.4460 N   0  0  0  0  0  0  0  0  0  0  0  0
   57.7750   32.1210   43.4820 C   0  0  0  0  0  0  0  0  0  0  0  0
   57.5530   30.7580   44.0770 C   0  0  0  0  0  0  0  0  0  0  0  0
   56.2480   30.2650   44.2320 C   0  0  0  0  0  0  0  0  0  0  0  0
   56.0300   29.0110   44.8090 C   0  0  0  0  0  0  0  0  0  0  0  0
   57.1160   28.2380   45.2440 C   0  0  0  0  0  0  0  0  0  0  0  0
   56.8560   26.6580   45.9800 S   0  0  0  0  0  0  0  0  0  0  0  0
   57.4750   26.6510   47.3490 O   0  0  0  0  0  0  0  0  0  0  0  0
   57.4990   25.5840   45.1470 O   0  0  0  0  0  0  0  0  0  0  0  0
   55.1540   26.3350   46.1220 N   0  0  0  0  0  0  0  0  0  0  0  0
   54.8620   24.9980   45.6170 C   0  0  0  0  0  0  0  0  0  0  0  0
   58.4200   28.7250   45.0850 C   0  0  0  0  0  0  0  0  0  0  0  0
   58.6380   29.9800   44.5090 C   0  0  0  0  0  0  0  0  0  0  0  0
   59.5360   34.5790   47.2550 N   0  0  0  0  0  0  0  0  0  0  0  0
   59.8980   35.8040   46.7410 O   0  0  0  0  0  0  0  0  0  0  0  0
   59.9220   34.2920   48.5280 C   0  0  0  0  0  0  0  0  0  0  0  0
   59.6130   33.0560   49.1130 C   0  0  0  0  0  0  0  0  0  0  0  0
   60.0090   32.7420   50.4570 N   0  0  0  0  0  0  0  0  0  0  0  0
   59.1830   32.8480   51.6240 C   0  0  0  0  0  0  0  0  0  0  0  0
   59.3330   33.8380   52.3870 O   0  0  0  0  0  0  0  0  0  0  0  0
   58.1450   31.8420   51.9430 C   0  0  0  0  0  0  0  0  0  0  0  0
   56.8060   32.2560   52.0420 C   0  0  0  0  0  0  0  0  0  0  0  0
   55.8030   31.3430   52.3750 C   0  0  0  0  0  0  0  0  0  0  0  0
   56.1240   30.0030   52.6010 C   0  0  0  0  0  0  0  0  0  0  0  0
   54.8640   28.8600   53.0280 Cl  0  0  0  0  0  0  0  0  0  0  0  0
   57.4480   29.5720   52.4800 C   0  0  0  0  0  0  0  0  0  0  0  0
   58.4610   30.4790   52.1460 C   0  0  0  0  0  0  0  0  0  0  0  0
   60.0920   29.8530   51.9190 Cl  0  0  0  0  0  0  0  0  0  0  0  0
   61.0884   29.6789   48.6547 H   0  0  0  0  0  0  0  0  0  0  0  0
   60.4568   28.7582   47.2476 H   0  0  0  0  0  0  0  0  0  0  0  0
   60.3942   30.5534   47.2476 H   0  0  0  0  0  0  0  0  0  0  0  0
   58.2002   29.2601   47.7822 H   0  0  0  0  0  0  0  0  0  0  0  0
   58.9726   28.9108   49.3763 H   0  0  0  0  0  0  0  0  0  0  0  0
   57.8973   31.7088   46.4868 H   0  0  0  0  0  0  0  0  0  0  0  0
   57.1487   32.2317   42.5845 H   0  0  0  0  0  0  0  0  0  0  0  0
   58.8370   32.2267   43.2154 H   0  0  0  0  0  0  0  0  0  0  0  0
   55.3919   30.8692   43.8973 H   0  0  0  0  0  0  0  0  0  0  0  0
   55.0045   28.6296   44.9221 H   0  0  0  0  0  0  0  0  0  0  0  0
   54.7120   24.3112   46.4630 H   0  0  0  0  0  0  0  0  0  0  0  0
   53.9494   25.0289   45.0036 H   0  0  0  0  0  0  0  0  0  0  0  0
   55.7044   24.6457   45.0036 H   0  0  0  0  0  0  0  0  0  0  0  0
   59.2757   28.1175   45.4147 H   0  0  0  0  0  0  0  0  0  0  0  0
   59.6642   30.3592   44.3940 H   0  0  0  0  0  0  0  0  0  0  0  0
   60.4843   35.0402   49.1060 H   0  0  0  0  0  0  0  0  0  0  0  0
   56.5454   33.3083   51.8556 H   0  0  0  0  0  0  0  0  0  0  0  0
   54.7592   31.6798   52.4593 H   0  0  0  0  0  0  0  0  0  0  0  0
   57.6958   28.5136   52.6482 H   0  0  0  0  0  0  0  0  0  0  0  0
  1  2  1  0
  2  3  1  0
  3  4  1  0
  4  5  2  0
  5  6  1  0
  6  7  1  0
  7  8  2  0
  7  9  1  0
  9 10  1  0
 10 11  1  0
 11 12  2  0
 12 13  1  0
 13 14  2  0
 14 15  1  0
 15 16  2  0
 15 17  2  0
 15 18  1  0
 18 19  1  0
 14 20  1  0
 20 21  2  0
  6 22  2  0
 22 23  1  0
 22 24  1  0
 24 25  2  0
 25 26  1  0
 26 27  1  0
 27 28  2  0
 27 29  1  0
 29 30  2  0
 30 31  1  0
 31 32  2  0
 32 33  1  0
 32 34  1  0
 34 35  2  0
 35 36  1  0
 25  4  1  0
 35 29  1  0
 21 11  1  0
  1 37  1  0
  1 38  1  0
  1 39  1  0
  2 40  1  0
  2 41  1  0
  5 42  1  0
 10 43  1  0
 10 44  1  0
 12 45  1  0
 13 46  1  0
 19 47  1  0
 19 48  1  0
 19 49  1  0
 20 50  1  0
 21 51  1  0
 24 52  1  0
 30 53  1  0
 31 54  1  0
 34 55  1  0
M  CHG  5   9  -1  18  -1  22   1  23  -1  26  -1
M  END
>  <UniqueID>  (18) 
18

>  <SMILES>  (18) 
CCOc1cc(C(=O)[N-]Cc2ccc(S(=O)(=O)[N-]C)cc2)[n+]([O-])cc1[N-]C(=O)c1ccc(Cl)cc1Cl

>  <Energy>  (18) 
63.70797857521449

>  <Genealogy>  (18) 
CCOc1cc(C(=O)[N-]Cc2ccc(S(=O)(=O)[N-]C)cc2)[n+]([O-])cc1[N-]C(=O)c1ccc(Cl)cc1Cl (protonated)
CCOc1cc(C(=O)[N-]Cc2ccc(S(=O)(=O)[N-]C)cc2)[n+]([O-])cc1[N-]C(=O)c1ccc(Cl)cc1Cl (3D coordinates assigned)
CCOc1cc(C(=O)[N-]Cc2ccc(S(=O)(=O)[N-]C)cc2)[n+]([O-])cc1[N-]C(=O)c1ccc(Cl)cc1Cl (optimized conformer: 63.70797857521449 kcal/mol)

>  <smiles>  (18) 
CCOc1cc(C(=O)NCc2ccc(S(=O)(=O)NC)cc2)[n+]([O-])cc1NC(=O)c1ccc(Cl)cc1Cl

>  <score_type>  (18) 
oracle

>  <origin>  (18) 
adg

>  <m_score__min__energy>  (18) 
-12.52

>  <m_primary>  (18) 
energy

$$$$
18:0
     RDKit          3D

 41 44  0  0  0  0  0  0  0  0999 V2000
   54.8680   28.0820   53.4910 O   0  0  0  0  0  0  0  0  0  0  0  0
   55.0880   29.3050   53.2870 C   0  0  0  0  0  0  0  0  0  0  0  0
   56.3620   29.8480   53.6600 N   0  0  0  0  0  0  0  0  0  0  0  0
   57.0890   30.8630   52.9550 C   0  0  0  0  0  0  0  0  0  0  0  0
   57.6090   31.9610   53.6850 C   0  0  0  0  0  0  0  0  0  0  0  0
   58.3320   32.9800   53.0360 C   0  0  0  0  0  0  0  0  0  0  0  0
   58.5250   32.8560   51.6660 C   0  0  0  0  0  0  0  0  0  0  0  0
   59.1490   33.6600   50.8500 O   0  0  0  0  0  0  0  0  0  0  0  0
   59.0610   33.0940   49.6570 C   0  0  0  0  0  0  0  0  0  0  0  0
   59.6170   33.7100   48.4150 C   0  0  0  0  0  0  0  0  0  0  0  0
   59.0170   33.0500   47.2050 C   0  0  0  0  0  0  0  0  0  0  0  0
   57.9840   33.6820   46.4920 C   0  0  0  0  0  0  0  0  0  0  0  0
   57.3990   33.0490   45.3910 C   0  0  0  0  0  0  0  0  0  0  0  0
   57.8310   31.7770   45.0020 C   0  0  0  0  0  0  0  0  0  0  0  0
   57.0260   30.9120   43.5020 Br  0  0  0  0  0  0  0  0  0  0  0  0
   58.8470   31.1360   45.7160 C   0  0  0  0  0  0  0  0  0  0  0  0
   59.4370   31.7660   46.8170 C   0  0  0  0  0  0  0  0  0  0  0  0
   58.3790   31.9180   49.6610 N   0  0  0  0  0  0  0  0  0  0  0  0
   58.0510   31.7940   50.9580 C   0  0  0  0  0  0  0  0  0  0  0  0
   57.3340   30.7670   51.5640 C   0  0  0  0  0  0  0  0  0  0  0  0
   53.9960   30.1640   52.7730 C   0  0  0  0  0  0  0  0  0  0  0  0
   54.0530   30.6090   51.4400 C   0  0  0  0  0  0  0  0  0  0  0  0
   53.0610   31.4490   50.9280 C   0  0  0  0  0  0  0  0  0  0  0  0
   52.0040   31.8590   51.7410 C   0  0  0  0  0  0  0  0  0  0  0  0
   51.0220   32.6990   51.2320 O   0  0  0  0  0  0  0  0  0  0  0  0
   51.9330   31.4220   53.0660 C   0  0  0  0  0  0  0  0  0  0  0  0
   52.9120   30.5680   53.5890 C   0  0  0  0  0  0  0  0  0  0  0  0
   52.7590   30.1200   54.9020 O   0  0  0  0  0  0  0  0  0  0  0  0
   57.4458   32.0177   54.7713 H   0  0  0  0  0  0  0  0  0  0  0  0
   58.7290   33.8417   53.5927 H   0  0  0  0  0  0  0  0  0  0  0  0
   59.3777   34.7836   48.4014 H   0  0  0  0  0  0  0  0  0  0  0  0
   60.7083   33.5726   48.3993 H   0  0  0  0  0  0  0  0  0  0  0  0
   57.6344   34.6781   46.8011 H   0  0  0  0  0  0  0  0  0  0  0  0
   56.5978   33.5523   44.8300 H   0  0  0  0  0  0  0  0  0  0  0  0
   59.1835   30.1339   45.4117 H   0  0  0  0  0  0  0  0  0  0  0  0
   60.2317   31.2552   47.3805 H   0  0  0  0  0  0  0  0  0  0  0  0
   56.9694   29.9083   50.9811 H   0  0  0  0  0  0  0  0  0  0  0  0
   54.8860   30.2929   50.7949 H   0  0  0  0  0  0  0  0  0  0  0  0
   53.1134   31.7875   49.8827 H   0  0  0  0  0  0  0  0  0  0  0  0
   51.1002   31.7518   53.7046 H   0  0  0  0  0  0  0  0  0  0  0  0
   53.3380   29.3990   55.3130 H   0  0  0  0  0  0  0  0  0  0  0  0
  1  2  2  0
  2  3  1  0
  3  4  1  0
  4  5  2  0
  5  6  1  0
  6  7  2  0
  7  8  1  0
  8  9  1  0
  9 10  1  0
 10 11  1  0
 11 12  2  0
 12 13  1  0
 13 14  2  0
 14 15  1  0
 14 16  1  0
 16 17  2  0
  9 18  2  0
 18 19  1  0
 19 20  2  0
  2 21  1  0
 21 22  2  0
 22 23  1  0
 23 24  2  0
 24 25  1  0
 24 26  1  0
 26 27  2  0
 27 28  1  0
 20  4  1  0
 27 21  1  0
 19  7  1  0
 17 11  1  0
  5 29  1  0
  6 30  1  0
 10 31  1  0
 10 32  1  0
 12 33  1  0
 13 34  1  0
 16 35  1  0
 17 36  1  0
 20 37  1  0
 22 38  1  0
 23 39  1  0
 26 40  1  0
 28 41  1  0
M  CHG  2   3  -1  25  -1
M  END
>  <UniqueID>  (19) 
19

>  <SMILES>  (19) 
O=C([N-]c1ccc2oc(Cc3ccc(Br)cc3)nc2c1)c1ccc([O-])cc1O

>  <Energy>  (19) 
90.23169229410341

>  <Genealogy>  (19) 
O=C([N-]c1ccc2oc(Cc3ccc(Br)cc3)nc2c1)c1ccc([O-])cc1O (protonated)
O=C([N-]c1ccc2oc(Cc3ccc(Br)cc3)nc2c1)c1ccc([O-])cc1O (3D coordinates assigned)
O=C([N-]c1ccc2oc(Cc3ccc(Br)cc3)nc2c1)c1ccc([O-])cc1O (optimized conformer: 90.23169229410341 kcal/mol)

>  <smiles>  (19) 
O=C(Nc1ccc2oc(Cc3ccc(Br)cc3)nc2c1)c1ccc(O)cc1O

>  <score_type>  (19) 
oracle

>  <origin>  (19) 
adg

>  <m_score__min__energy>  (19) 
-13.52

>  <m_primary>  (19) 
energy

$$$$
19:0
     RDKit          3D

 29 30  0  0  0  0  0  0  0  0999 V2000
   59.2920   36.8380   47.0280 H   0  0  0  0  0  0  0  0  0  0  0  0
   59.6440   36.2200   46.3070 O   0  0  0  0  0  0  0  0  0  0  0  0
   59.6640   34.8380   46.4800 C   0  0  0  0  0  0  0  0  0  0  0  0
   60.7470   34.2120   47.1060 C   0  0  0  0  0  0  0  0  0  0  0  0
   61.5931   34.8141   47.4689 H   0  0  0  0  0  0  0  0  0  0  0  0
   60.7580   32.8250   47.2720 C   0  0  0  0  0  0  0  0  0  0  0  0
   61.6150   32.3430   47.7651 H   0  0  0  0  0  0  0  0  0  0  0  0
   59.6840   32.0370   46.8150 C   0  0  0  0  0  0  0  0  0  0  0  0
   59.7270   30.5650   47.0090 C   0  0  0  0  0  0  0  0  0  0  0  0
   58.7780   29.9690   47.5880 O   0  0  0  0  0  0  0  0  0  0  0  0
   60.8070   29.8300   46.4970 O   0  0  0  0  0  0  0  0  0  0  0  0
   60.7880   29.1680   45.2810 N   0  0  0  0  0  0  0  0  0  0  0  0
   60.3580   27.9520   45.1190 C   0  0  0  0  0  0  0  0  0  0  0  0
   61.0606   27.1674   44.8017 H   0  0  0  0  0  0  0  0  0  0  0  0
   58.9420   27.6070   45.3540 C   0  0  0  0  0  0  0  0  0  0  0  0
   58.5720   26.3720   45.9210 C   0  0  0  0  0  0  0  0  0  0  0  0
   59.3469   25.6424   46.1989 H   0  0  0  0  0  0  0  0  0  0  0  0
   57.2230   26.0700   46.1320 C   0  0  0  0  0  0  0  0  0  0  0  0
   56.9403   25.1036   46.5749 H   0  0  0  0  0  0  0  0  0  0  0  0
   56.2330   26.9920   45.7820 C   0  0  0  0  0  0  0  0  0  0  0  0
   54.8940   26.6860   45.9950 O   0  0  0  0  0  0  0  0  0  0  0  0
   56.5920   28.2210   45.2180 C   0  0  0  0  0  0  0  0  0  0  0  0
   55.6350   29.1180   44.8750 F   0  0  0  0  0  0  0  0  0  0  0  0
   57.9400   28.5270   45.0040 C   0  0  0  0  0  0  0  0  0  0  0  0
   58.2171   29.4940   44.5589 H   0  0  0  0  0  0  0  0  0  0  0  0
   58.5920   32.6790   46.1860 C   0  0  0  0  0  0  0  0  0  0  0  0
   57.5010   31.9530   45.7180 O   0  0  0  0  0  0  0  0  0  0  0  0
   58.5910   34.0690   46.0230 C   0  0  0  0  0  0  0  0  0  0  0  0
   57.7384   34.5600   45.5310 H   0  0  0  0  0  0  0  0  0  0  0  0
  1  2  1  0
  2  3  1  0
  3  4  2  0
  4  5  1  0
  4  6  1  0
  6  7  1  0
  6  8  2  0
  8  9  1  0
  9 10  2  0
  9 11  1  0
 11 12  1  0
 12 13  2  0
 13 14  1  0
 13 15  1  0
 15 16  2  0
 16 17  1  0
 16 18  1  0
 18 19  1  0
 18 20  2  0
 20 21  1  0
 20 22  1  0
 22 23  1  0
 22 24  2  0
 24 25  1  0
  8 26  1  0
 26 27  1  0
 26 28  2  0
 28 29  1  0
 28  3  1  0
 24 15  1  0
M  CHG  2  21  -1  27  -1
M  END
>  <UniqueID>  (20) 
20

>  <SMILES>  (20) 
O=C(O/N=C/c1ccc([O-])c(F)c1)c1ccc(O)cc1[O-]

>  <Energy>  (20) 
37.334620475691196

>  <Genealogy>  (20) 
O=C(ON=Cc1ccc([O-])c(F)c1)c1ccc(O)cc1[O-] (protonated)
O=C(O/N=C/c1ccc([O-])c(F)c1)c1ccc(O)cc1[O-] (cis-trans isomerization)
O=C(O/N=C/c1ccc([O-])c(F)c1)c1ccc(O)cc1[O-] (3D coordinates assigned)
O=C(O/N=C/c1ccc([O-])c(F)c1)c1ccc(O)cc1[O-] (optimized conformer: 37.334620475691196 kcal/mol)

>  <smiles>  (20) 
O=C(ON=Cc1ccc(O)c(F)c1)c1ccc(O)cc1O

>  <score_type>  (20) 
oracle

>  <origin>  (20) 
adg

>  <m_score__min__energy>  (20) 
-12

>  <m_primary>  (20) 
energy

$$$$
20:0
     RDKit          3D

 46 48  0  0  1  0  0  0  0  0999 V2000
   54.3820   24.6760   45.4160 C   0  0  0  0  0  0  0  0  0  0  0  0
   54.7460   26.0190   45.6810 O   0  0  0  0  0  0  0  0  0  0  0  0
   56.0490   26.2930   46.0750 C   0  0  0  0  0  0  0  0  0  0  0  0
   56.7280   25.4060   46.8840 C   0  0  0  0  0  0  0  0  0  0  0  0
   58.0130   25.7170   47.2500 C   0  0  0  0  0  0  0  0  0  0  0  0
   58.6530   26.8720   46.8480 C   0  0  0  0  0  0  0  0  0  0  0  0
   60.9460   31.4360   46.6840 N   0  0  0  0  0  0  0  0  0  0  0  0
   60.7790   30.4720   47.5470 C   0  0  0  0  0  0  0  0  0  0  0  0
   60.4000   28.3770   49.1700 N   0  0  0  0  0  0  0  0  0  0  0  0
   60.7100   29.5630   49.7260 C   0  0  0  0  0  0  0  0  0  0  0  0
   60.9110   30.6670   48.9020 C   0  0  0  0  0  0  0  0  0  0  0  0
   60.2770   28.2170   47.8240 C   0  0  0  0  0  0  0  0  0  0  0  0
   59.9810   27.0800   47.2920 N   0  0  0  0  0  0  0  0  0  0  0  0
   59.8940   32.3950   46.5830 C   0  0  0  0  0  0  0  0  0  0  0  0
   59.9270   33.5830   47.2870 C   0  0  0  0  0  0  0  0  0  0  0  0
   58.9030   34.4980   47.1780 C   0  0  0  0  0  0  0  0  0  0  0  0
   57.8480   34.1880   46.3450 C   0  0  0  0  0  0  0  0  0  0  0  0
   57.8230   33.0010   45.6470 C   0  0  0  0  0  0  0  0  0  0  0  0
   58.8350   32.0670   45.7370 C   0  0  0  0  0  0  0  0  0  0  0  0
   58.8090   30.8400   45.0150 N   0  0  0  0  0  0  0  0  0  0  0  0
   57.4650   30.5030   43.9630 S   0  0  0  0  0  0  0  0  0  0  0  0
   57.4120   31.5940   42.5750 C   0  0  0  0  0  0  0  0  0  0  0  0
   56.1790   30.5600   44.7190 O   0  0  0  0  0  0  0  0  0  0  0  0
   57.6220   29.1030   43.4160 O   0  0  0  0  0  0  0  0  0  0  0  0
   60.4670   29.2690   47.0120 N   0  0  0  0  0  0  0  0  0  0  0  0
   57.9700   27.7560   46.0410 C   0  0  0  0  0  0  0  0  0  0  0  0
   56.6620   27.4670   45.6510 C   0  0  0  0  0  0  0  0  0  0  0  0
   54.2370   24.1411   46.3662 H   0  0  0  0  0  0  0  0  0  0  0  0
   53.4463   24.6569   44.8380 H   0  0  0  0  0  0  0  0  0  0  0  0
   55.1800   24.1870   44.8380 H   0  0  0  0  0  0  0  0  0  0  0  0
   56.2524   24.4751   47.2262 H   0  0  0  0  0  0  0  0  0  0  0  0
   58.5593   25.0125   47.8944 H   0  0  0  0  0  0  0  0  0  0  0  0
   60.2450   27.5320   49.7760 H   0  0  0  0  0  0  0  0  0  0  0  0
   60.8034   29.6587   50.8178 H   0  0  0  0  0  0  0  0  0  0  0  0
   61.1647   31.6536   49.3171 H   0  0  0  0  0  0  0  0  0  0  0  0
   60.7823   33.8013   47.9434 H   0  0  0  0  0  0  0  0  0  0  0  0
   58.9258   35.4451   47.7370 H   0  0  0  0  0  0  0  0  0  0  0  0
   57.0153   34.8986   46.2368 H   0  0  0  0  0  0  0  0  0  0  0  0
   56.9641   32.7894   44.9932 H   0  0  0  0  0  0  0  0  0  0  0  0
   59.6010   30.1850   45.1450 H   0  0  0  0  0  0  0  0  0  0  0  0
   57.3614   32.6345   42.9282 H   0  0  0  0  0  0  0  0  0  0  0  0
   58.3179   31.4571   41.9662 H   0  0  0  0  0  0  0  0  0  0  0  0
   56.5237   31.3699   41.9662 H   0  0  0  0  0  0  0  0  0  0  0  0
   60.3710   29.1340   45.9930 H   0  0  0  0  0  0  0  0  0  0  0  0
   58.4539   28.6853   45.7059 H   0  0  0  0  0  0  0  0  0  0  0  0
   56.1140   28.1698   45.0062 H   0  0  0  0  0  0  0  0  0  0  0  0
  1  2  1  0
  2  3  1  0
  3  4  2  0
  4  5  1  0
  5  6  2  0
  6  7  1  0
  7  8  2  0
  8  9  1  0
  9 10  1  0
 10 11  2  0
 11 12  1  0
 12 13  2  0
 13 14  1  0
 14 15  2  0
 15 16  1  0
 16 17  2  0
 17 18  1  0
 18 19  2  0
 19 20  1  0
 20 21  1  0
 21 22  1  0
 21 23  2  0
 21 24  2  0
 12 25  1  0
  6 26  1  0
 26 27  2  0
 27  3  1  0
 25  8  1  0
 19 14  1  0
  1 28  1  0
  1 29  1  0
  1 30  1  0
  4 31  1  0
  5 32  1  0
  9 33  1  0
 10 34  1  0
 11 35  1  0
 15 36  1  0
 16 37  1  0
 17 38  1  0
 18 39  1  0
 20 40  1  0
 22 41  1  0
 22 42  1  0
 22 43  1  0
 25 44  1  0
 26 45  1  0
 27 46  1  0
M  END
>  <smiles>  (21) 
COc1ccc(N=c2[nH]ccc(=Nc3ccccc3NS(C)(=O)=O)[nH]2)cc1

>  <score_type>  (21) 
oracle

>  <origin>  (21) 
adg

>  <m_score__min__energy>  (21) 
-8.75

>  <m_primary>  (21) 
energy

$$$$
21:0
     RDKit          3D

 68 72  0  0  0  0  0  0  0  0999 V2000
   61.5830   26.4750   51.0300 H   0  0  0  0  0  0  0  0  0  0  0  0
   61.9250   27.3820   51.2470 O   0  0  0  0  0  0  0  0  0  0  0  0
   61.2000   28.3090   50.4780 C   0  0  1  0  0  0  0  0  0  0  0  0
   61.9216   28.9888   50.0015 H   0  0  0  0  0  0  0  0  0  0  0  0
   60.4060   27.6010   49.3640 C   0  0  0  0  0  0  0  0  0  0  0  0
   61.1134   27.1361   48.6616 H   0  0  0  0  0  0  0  0  0  0  0  0
   59.7601   26.8425   49.8305 H   0  0  0  0  0  0  0  0  0  0  0  0
   59.5500   28.5440   48.6260 N   0  0  0  0  0  0  0  0  0  0  0  0
   58.8370   28.0810   47.4620 C   0  0  0  0  0  0  0  0  0  0  0  0
   58.2140   28.9640   46.6340 N   0  0  0  0  0  0  0  0  0  0  0  0
   57.5350   28.5280   45.5460 C   0  0  0  0  0  0  0  0  0  0  0  0
   56.9230   29.3900   44.7890 N   0  0  0  0  0  0  0  0  0  0  0  0
   57.3800   30.7190   44.4900 C   0  0  0  0  0  0  0  0  0  0  0  0
   57.3990   31.1450   43.1570 C   0  0  0  0  0  0  0  0  0  0  0  0
   57.0648   30.4642   42.3603 H   0  0  0  0  0  0  0  0  0  0  0  0
   57.8400   32.4300   42.8330 C   0  0  0  0  0  0  0  0  0  0  0  0
   57.8724   32.7504   41.7812 H   0  0  0  0  0  0  0  0  0  0  0  0
   58.2400   33.3090   43.8420 C   0  0  0  0  0  0  0  0  0  0  0  0
   58.6015   34.3144   43.5803 H   0  0  0  0  0  0  0  0  0  0  0  0
   58.1830   32.9160   45.1880 C   0  0  0  0  0  0  0  0  0  0  0  0
   58.6010   33.8610   46.2500 C   0  0  0  0  0  0  0  0  0  0  0  0
   57.7820   34.1480   47.1640 O   0  0  0  0  0  0  0  0  0  0  0  0
   59.9390   34.4880   46.2920 C   0  0  0  0  0  0  0  0  0  0  0  0
   60.0152   35.5515   46.5623 H   0  0  0  0  0  0  0  0  0  0  0  0
   61.0630   33.8130   46.0140 C   0  0  0  0  0  0  0  0  0  0  0  0
   61.2932   33.5957   44.9606 H   0  0  0  0  0  0  0  0  0  0  0  0
   62.0100   33.3450   47.0490 C   0  0  0  0  0  0  0  0  0  0  0  0
   63.3080   33.8410   47.1210 C   0  0  0  0  0  0  0  0  0  0  0  0
   63.7489   34.5914   46.4483 H   0  0  0  0  0  0  0  0  0  0  0  0
   64.0870   33.0980   48.4110 S   0  0  0  0  0  0  0  0  0  0  0  0
   62.7940   32.1440   48.8980 C   0  0  0  0  0  0  0  0  0  0  0  0
   62.7950   31.4390   49.7424 H   0  0  0  0  0  0  0  0  0  0  0  0
   61.7240   32.3980   48.0520 C   0  0  0  0  0  0  0  0  0  0  0  0
   60.7453   31.9066   48.1547 H   0  0  0  0  0  0  0  0  0  0  0  0
   57.7550   31.6150   45.5070 C   0  0  0  0  0  0  0  0  0  0  0  0
   57.7133   31.2961   46.5589 H   0  0  0  0  0  0  0  0  0  0  0  0
   57.4620   27.1950   45.2920 N   0  0  0  0  0  0  0  0  0  0  0  0
   58.0800   26.3000   46.1080 C   0  0  0  0  0  0  0  0  0  0  0  0
   57.9660   24.8870   45.8470 N   0  0  0  0  0  0  0  0  0  0  0  0
   59.1400   24.0210   46.0480 C   0  0  0  0  0  0  0  0  0  0  0  0
   60.0026   24.4634   45.5281 H   0  0  0  0  0  0  0  0  0  0  0  0
   59.3285   23.9441   47.1290 H   0  0  0  0  0  0  0  0  0  0  0  0
   58.9010   22.6020   45.5000 C   0  0  2  0  0  0  0  0  0  0  0  0
   58.2161   22.0627   46.1709 H   0  0  0  0  0  0  0  0  0  0  0  0
   60.1640   21.8610   45.4520 N   0  0  0  0  0  0  0  0  0  0  0  0
   60.7580   22.2370   44.6750 H   0  0  0  0  0  0  0  0  0  0  0  0
   59.9550   20.8600   45.2280 H   0  0  0  0  0  0  0  0  0  0  0  0
   58.2470   22.6810   44.1060 C   0  0  0  0  0  0  0  0  0  0  0  0
   58.9443   23.1829   43.4191 H   0  0  0  0  0  0  0  0  0  0  0  0
   58.0266   21.6519   43.7860 H   0  0  0  0  0  0  0  0  0  0  0  0
   56.9040   23.4660   44.1110 C   0  0  2  0  0  0  0  0  0  0  0  0
   56.0942   22.7227   44.0697 H   0  0  0  0  0  0  0  0  0  0  0  0
   56.8360   24.3460   42.9410 N   0  0  0  0  0  0  0  0  0  0  0  0
   56.3640   25.2370   43.2210 H   0  0  0  0  0  0  0  0  0  0  0  0
   56.2060   23.9040   42.2330 H   0  0  0  0  0  0  0  0  0  0  0  0
   56.6980   24.2880   45.4040 C   0  0  0  0  0  0  0  0  0  0  0  0
   55.9687   25.0884   45.2106 H   0  0  0  0  0  0  0  0  0  0  0  0
   56.3286   23.6176   46.1940 H   0  0  0  0  0  0  0  0  0  0  0  0
   58.7660   26.7520   47.1890 N   0  0  0  0  0  0  0  0  0  0  0  0
   59.4940   29.9560   49.0350 C   0  0  0  0  0  0  0  0  0  0  0  0
   60.4297   30.4550   48.7427 H   0  0  0  0  0  0  0  0  0  0  0  0
   58.6375   30.4365   48.5395 H   0  0  0  0  0  0  0  0  0  0  0  0
   59.3150   30.0680   50.5570 C   0  0  0  0  0  0  0  0  0  0  0  0
   59.5016   31.1110   50.8524 H   0  0  0  0  0  0  0  0  0  0  0  0
   58.2887   29.7437   50.7839 H   0  0  0  0  0  0  0  0  0  0  0  0
   60.2660   29.1540   51.3660 C   0  0  0  0  0  0  0  0  0  0  0  0
   60.8840   29.7856   52.0211 H   0  0  0  0  0  0  0  0  0  0  0  0
   59.6382   28.4544   51.9373 H   0  0  0  0  0  0  0  0  0  0  0  0
  1  2  1  0
  2  3  1  0
  3  4  1  6
  3  5  1  0
  5  6  1  0
  5  7  1  0
  5  8  1  0
  8  9  1  0
  9 10  2  0
 10 11  1  0
 11 12  2  0
 12 13  1  0
 13 14  2  0
 14 15  1  0
 14 16  1  0
 16 17  1  0
 16 18  2  0
 18 19  1  0
 18 20  1  0
 20 21  1  0
 21 22  2  0
 21 23  1  0
 23 24  1  0
 23 25  2  3
 25 26  1  0
 25 27  1  0
 27 28  2  0
 28 29  1  0
 28 30  1  0
 30 31  1  0
 31 32  1  0
 31 33  2  0
 33 34  1  0
 20 35  2  0
 35 36  1  0
 11 37  1  0
 37 38  2  0
 38 39  1  0
 39 40  1  0
 40 41  1  0
 40 42  1  0
 40 43  1  0
 43 44  1  1
 43 45  1  0
 45 46  1  0
 45 47  1  0
 43 48  1  0
 48 49  1  0
 48 50  1  0
 48 51  1  0
 51 52  1  6
 51 53  1  0
 53 54  1  0
 53 55  1  0
 51 56  1  0
 56 57  1  0
 56 58  1  0
 38 59  1  0
  8 60  1  0
 60 61  1  0
 60 62  1  0
 60 63  1  0
 63 64  1  0
 63 65  1  0
 63 66  1  0
 66 67  1  0
 66 68  1  0
 66  3  1  0
 59  9  1  0
 35 13  1  0
 56 39  1  0
 33 27  1  0
M  CHG  1  59  -1
M  END
>  <UniqueID>  (22) 
21

>  <SMILES>  (22) 
N[C@@H]1C[C@H](N)CN(c2n/c(=N\c3cccc(C(=O)C=Cc4ccsc4)c3)nc(N3CCCC(O)C3)[n-]2)C1

>  <Energy>  (22) 
113.13609693941794

>  <Genealogy>  (22) 
NC1CC(N)CN(c2nc(=Nc3cccc(C(=O)C=Cc4ccsc4)c3)nc(N3CCCC(O)C3)[n-]2)C1 (protonated)
N[C@@H]1C[C@H](N)CN(c2nc(=Nc3cccc(C(=O)C=Cc4ccsc4)c3)nc(N3CCCC(O)C3)[n-]2)C1 (chirality)
N[C@@H]1C[C@H](N)CN(c2n/c(=N\c3cccc(C(=O)C=Cc4ccsc4)c3)nc(N3CCCC(O)C3)[n-]2)C1 (cis-trans isomerization)
N[C@@H]1C[C@H](N)CN(c2n/c(=N\c3cccc(C(=O)C=Cc4ccsc4)c3)nc(N3CCCC(O)C3)[n-]2)C1 (3D coordinates assigned)
N[C@@H]1C[C@H](N)CN(c2n/c(=N\c3cccc(C(=O)C=Cc4ccsc4)c3)nc(N3CCCC(O)C3)[n-]2)C1 (nonaromatic ring conformer: 113.13609693941794 kcal/mol)

>  <smiles>  (22) 
NC1CC(N)CN(c2nc(=Nc3cccc(C(=O)C=Cc4ccsc4)c3)nc(N3CCCC(O)C3)[nH]2)C1

>  <score_type>  (22) 
oracle

>  <origin>  (22) 
adg

>  <m_score__min__energy>  (22) 
-11.630000000000001

>  <m_primary>  (22) 
energy

$$$$
22:0
     RDKit          3D

 69 72  0  0  0  0  0  0  0  0999 V2000
   60.4530   28.7510   51.9730 C   0  0  0  0  0  0  0  0  0  0  0  0
   61.6720   28.8490   51.0640 C   0  0  0  0  0  0  0  0  0  0  0  0
   61.2620   29.1130   49.6860 N   0  0  0  0  0  0  0  0  0  0  0  0
   61.5080   30.2650   49.0750 N   0  0  0  0  0  0  0  0  0  0  0  0
   61.0960   30.1510   47.7950 C   0  0  0  0  0  0  0  0  0  0  0  0
   61.1450   31.2840   46.8220 C   0  0  0  0  0  0  0  0  0  0  0  0
   60.5760   28.8800   47.5850 C   0  0  0  0  0  0  0  0  0  0  0  0
   60.0170   28.3170   46.3070 C   0  0  0  0  0  0  0  0  0  0  0  0
   58.5600   28.5030   46.2620 N   0  0  0  0  0  0  0  0  0  0  0  0
   57.6840   27.6170   47.0480 C   0  0  0  0  0  0  0  0  0  0  0  0
   57.5180   26.2830   46.3660 C   0  0  0  0  0  0  0  0  0  0  0  0
   58.6310   25.4470   46.1840 C   0  0  0  0  0  0  0  0  0  0  0  0
   58.5000   24.2350   45.5050 C   0  0  0  0  0  0  0  0  0  0  0  0
   57.2560   23.8420   45.0010 C   0  0  0  0  0  0  0  0  0  0  0  0
   56.1270   24.6710   45.1680 C   0  0  0  0  0  0  0  0  0  0  0  0
   54.8580   24.3150   44.6790 O   0  0  0  0  0  0  0  0  0  0  0  0
   53.7190   24.0770   45.4970 C   0  0  0  0  0  0  0  0  0  0  0  0
   56.2670   25.8930   45.8460 C   0  0  0  0  0  0  0  0  0  0  0  0
   55.1600   26.7220   45.9960 O   0  0  0  0  0  0  0  0  0  0  0  0
   57.9990   29.5570   45.4500 C   0  0  0  0  0  0  0  0  0  0  0  0
   57.6100   29.2760   44.1310 C   0  0  0  0  0  0  0  0  0  0  0  0
   57.1210   30.2890   43.3070 C   0  0  0  0  0  0  0  0  0  0  0  0
   57.0420   31.5980   43.7820 C   0  0  0  0  0  0  0  0  0  0  0  0
   57.4420   31.8950   45.0850 C   0  0  0  0  0  0  0  0  0  0  0  0
   57.9020   30.8770   45.9410 C   0  0  0  0  0  0  0  0  0  0  0  0
   58.2620   31.1210   47.2790 O   0  0  0  0  0  0  0  0  0  0  0  0
   58.2250   32.3760   47.9580 C   0  0  0  0  0  0  0  0  0  0  0  0
   59.1330   32.3640   49.1940 C   0  0  0  0  0  0  0  0  0  0  0  0
   58.4230   31.8410   50.3740 N   0  0  0  0  0  0  0  0  0  0  0  0
   58.0910   32.7040   51.3830 C   0  0  0  0  0  0  0  0  0  0  0  0
   57.3710   32.2580   52.4910 C   0  0  0  0  0  0  0  0  0  0  0  0
   57.0100   30.9130   52.5510 C   0  0  0  0  0  0  0  0  0  0  0  0
   56.3580   30.4730   53.5350 O   0  0  0  0  0  0  0  0  0  0  0  0
   57.3590   30.0740   51.5420 N   0  0  0  0  0  0  0  0  0  0  0  0
   58.0550   30.5190   50.4610 C   0  0  0  0  0  0  0  0  0  0  0  0
   58.3510   29.7050   49.5450 O   0  0  0  0  0  0  0  0  0  0  0  0
   60.6840   28.2490   48.8150 C   0  0  0  0  0  0  0  0  0  0  0  0
   60.3550   26.8070   49.1000 C   0  0  0  0  0  0  0  0  0  0  0  0
   60.7764   28.7770   53.0241 H   0  0  0  0  0  0  0  0  0  0  0  0
   59.7793   29.5979   51.7756 H   0  0  0  0  0  0  0  0  0  0  0  0
   59.9233   27.8074   51.7756 H   0  0  0  0  0  0  0  0  0  0  0  0
   62.3188   29.6676   51.4126 H   0  0  0  0  0  0  0  0  0  0  0  0
   62.2182   27.8947   51.0965 H   0  0  0  0  0  0  0  0  0  0  0  0
   61.1862   32.2367   47.3703 H   0  0  0  0  0  0  0  0  0  0  0  0
   62.0397   31.1859   46.1897 H   0  0  0  0  0  0  0  0  0  0  0  0
   60.2451   31.2635   46.1897 H   0  0  0  0  0  0  0  0  0  0  0  0
   60.4755   28.8345   45.4514 H   0  0  0  0  0  0  0  0  0  0  0  0
   60.2419   27.2412   46.2614 H   0  0  0  0  0  0  0  0  0  0  0  0
   58.1282   27.4606   48.0421 H   0  0  0  0  0  0  0  0  0  0  0  0
   56.6955   28.0907   47.1396 H   0  0  0  0  0  0  0  0  0  0  0  0
   59.6122   25.7492   46.5790 H   0  0  0  0  0  0  0  0  0  0  0  0
   59.3777   23.5868   45.3657 H   0  0  0  0  0  0  0  0  0  0  0  0
   57.1576   22.8825   44.4722 H   0  0  0  0  0  0  0  0  0  0  0  0
   54.0092   24.1376   46.5563 H   0  0  0  0  0  0  0  0  0  0  0  0
   52.9498   24.8338   45.2837 H   0  0  0  0  0  0  0  0  0  0  0  0
   53.3172   23.0755   45.2837 H   0  0  0  0  0  0  0  0  0  0  0  0
   57.6915   28.2493   43.7446 H   0  0  0  0  0  0  0  0  0  0  0  0
   56.7974   30.0557   42.2819 H   0  0  0  0  0  0  0  0  0  0  0  0
   56.6636   32.3975   43.1281 H   0  0  0  0  0  0  0  0  0  0  0  0
   57.3975   32.9330   45.4462 H   0  0  0  0  0  0  0  0  0  0  0  0
   58.5638   33.1657   47.2713 H   0  0  0  0  0  0  0  0  0  0  0  0
   57.1921   32.5646   48.2860 H   0  0  0  0  0  0  0  0  0  0  0  0
   60.0070   31.7279   48.9905 H   0  0  0  0  0  0  0  0  0  0  0  0
   59.4450   33.3973   49.4060 H   0  0  0  0  0  0  0  0  0  0  0  0
   58.3949   33.7593   51.3195 H   0  0  0  0  0  0  0  0  0  0  0  0
   57.0944   32.9515   53.2988 H   0  0  0  0  0  0  0  0  0  0  0  0
   60.3186   26.6473   50.1877 H   0  0  0  0  0  0  0  0  0  0  0  0
   59.3774   26.5601   48.6602 H   0  0  0  0  0  0  0  0  0  0  0  0
   61.1287   26.1605   48.6602 H   0  0  0  0  0  0  0  0  0  0  0  0
  1  2  1  0
  2  3  1  0
  3  4  1  0
  4  5  2  0
  5  6  1  0
  5  7  1  0
  7  8  1  0
  8  9  1  0
  9 10  1  0
 10 11  1  0
 11 12  2  0
 12 13  1  0
 13 14  2  0
 14 15  1  0
 15 16  1  0
 16 17  1  0
 15 18  2  0
 18 19  1  0
  9 20  1  0
 20 21  2  0
 21 22  1  0
 22 23  2  0
 23 24  1  0
 24 25  2  0
 25 26  1  0
 26 27  1  0
 27 28  1  0
 28 29  1  0
 29 30  1  0
 30 31  2  0
 31 32  1  0
 32 33  2  0
 32 34  1  0
 34 35  1  0
 35 36  2  0
  7 37  2  0
 37 38  1  0
 37  3  1  0
 18 11  1  0
 25 20  1  0
 35 29  1  0
  1 39  1  0
  1 40  1  0
  1 41  1  0
  2 42  1  0
  2 43  1  0
  6 44  1  0
  6 45  1  0
  6 46  1  0
  8 47  1  0
  8 48  1  0
 10 49  1  0
 10 50  1  0
 12 51  1  0
 13 52  1  0
 14 53  1  0
 17 54  1  0
 17 55  1  0
 17 56  1  0
 21 57  1  0
 22 58  1  0
 23 59  1  0
 24 60  1  0
 27 61  1  0
 27 62  1  0
 28 63  1  0
 28 64  1  0
 30 65  1  0
 31 66  1  0
 38 67  1  0
 38 68  1  0
 38 69  1  0
M  CHG  2  19  -1  34  -1
M  END
>  <UniqueID>  (23) 
22

>  <SMILES>  (23) 
CCn1nc(C)c(CN(Cc2cccc(OC)c2[O-])c2ccccc2OCCn2ccc(=O)[n-]c2=O)c1C

>  <Energy>  (23) 
98.63707841701952

>  <Genealogy>  (23) 
CCn1nc(C)c(CN(Cc2cccc(OC)c2[O-])c2ccccc2OCCn2ccc(=O)[n-]c2=O)c1C (protonated)
CCn1nc(C)c(CN(Cc2cccc(OC)c2[O-])c2ccccc2OCCn2ccc(=O)[n-]c2=O)c1C (3D coordinates assigned)
CCn1nc(C)c(CN(Cc2cccc(OC)c2[O-])c2ccccc2OCCn2ccc(=O)[n-]c2=O)c1C (optimized conformer: 98.63707841701952 kcal/mol)

>  <smiles>  (23) 
CCn1nc(C)c(CN(Cc2cccc(OC)c2O)c2ccccc2OCCn2ccc(=O)[nH]c2=O)c1C

>  <score_type>  (23) 
oracle

>  <origin>  (23) 
adg

>  <m_score__min__energy>  (23) 
-12.98

>  <m_primary>  (23) 
energy

$$$$
23:0
     RDKit          3D

 46 48  0  0  0  0  0  0  0  0999 V2000
   59.0000   32.5520   48.5780 C   0  0  0  0  0  0  0  0  0  0  0  0
   58.8620   31.1740   47.9730 C   0  0  0  0  0  0  0  0  0  0  0  0
   58.3460   30.9840   46.6690 C   0  0  0  0  0  0  0  0  0  0  0  0
   57.8730   32.1060   45.8240 C   0  0  0  0  0  0  0  0  0  0  0  0
   57.6120   33.2170   46.3630 O   0  0  0  0  0  0  0  0  0  0  0  0
   57.6460   31.9390   44.3660 C   0  0  0  0  0  0  0  0  0  0  0  0
   56.8380   30.8960   43.8720 C   0  0  0  0  0  0  0  0  0  0  0  0
   56.6420   30.7430   42.4970 C   0  0  0  0  0  0  0  0  0  0  0  0
   57.2540   31.6210   41.6000 C   0  0  0  0  0  0  0  0  0  0  0  0
   58.0680   32.6500   42.0760 C   0  0  0  0  0  0  0  0  0  0  0  0
   58.2680   32.8080   43.4510 C   0  0  0  0  0  0  0  0  0  0  0  0
   58.2450   29.7230   46.1700 N   0  0  0  0  0  0  0  0  0  0  0  0
   58.6130   28.6360   46.8900 C   0  0  0  0  0  0  0  0  0  0  0  0
   58.4950   27.3630   46.3220 O   0  0  0  0  0  0  0  0  0  0  0  0
   57.3860   26.4980   46.5580 C   0  0  0  0  0  0  0  0  0  0  0  0
   56.1490   27.0410   45.9130 C   0  0  0  0  0  0  0  0  0  0  0  0
   56.1900   28.1310   45.2860 O   0  0  0  0  0  0  0  0  0  0  0  0
   54.9560   26.3330   45.9890 O   0  0  0  0  0  0  0  0  0  0  0  0
   59.0850   28.7940   48.1530 N   0  0  0  0  0  0  0  0  0  0  0  0
   59.2160   30.0240   48.7110 C   0  0  0  0  0  0  0  0  0  0  0  0
   59.7220   30.1230   50.0500 N   0  0  0  0  0  0  0  0  0  0  0  0
   60.8880   29.3070   50.3960 C   0  0  0  0  0  0  0  0  0  0  0  0
   58.9400   30.7950   51.0670 C   0  0  0  0  0  0  0  0  0  0  0  0
   57.5910   30.4510   51.2940 C   0  0  0  0  0  0  0  0  0  0  0  0
   56.8470   31.1070   52.2800 C   0  0  0  0  0  0  0  0  0  0  0  0
   57.4340   32.1110   53.0500 C   0  0  0  0  0  0  0  0  0  0  0  0
   58.7690   32.4630   52.8380 C   0  0  0  0  0  0  0  0  0  0  0  0
   59.5180   31.8120   51.8540 C   0  0  0  0  0  0  0  0  0  0  0  0
   58.9921   32.4732   49.6751 H   0  0  0  0  0  0  0  0  0  0  0  0
   59.9478   33.0034   48.2496 H   0  0  0  0  0  0  0  0  0  0  0  0
   58.1605   33.1824   48.2496 H   0  0  0  0  0  0  0  0  0  0  0  0
   56.3583   30.1975   44.5734 H   0  0  0  0  0  0  0  0  0  0  0  0
   56.0045   29.9295   42.1205 H   0  0  0  0  0  0  0  0  0  0  0  0
   57.0945   31.5016   40.5182 H   0  0  0  0  0  0  0  0  0  0  0  0
   58.5532   33.3381   41.3681 H   0  0  0  0  0  0  0  0  0  0  0  0
   58.9159   33.6170   43.8195 H   0  0  0  0  0  0  0  0  0  0  0  0
   57.6063   25.5050   46.1391 H   0  0  0  0  0  0  0  0  0  0  0  0
   57.2178   26.4241   47.6425 H   0  0  0  0  0  0  0  0  0  0  0  0
   60.9792   29.2432   51.4904 H   0  0  0  0  0  0  0  0  0  0  0  0
   60.7653   28.2966   49.9788 H   0  0  0  0  0  0  0  0  0  0  0  0
   61.7952   29.7683   49.9788 H   0  0  0  0  0  0  0  0  0  0  0  0
   57.1205   29.6606   50.6908 H   0  0  0  0  0  0  0  0  0  0  0  0
   55.7958   30.8303   52.4487 H   0  0  0  0  0  0  0  0  0  0  0  0
   56.8457   32.6255   53.8241 H   0  0  0  0  0  0  0  0  0  0  0  0
   59.2316   33.2540   53.4466 H   0  0  0  0  0  0  0  0  0  0  0  0
   60.5684   32.0957   51.6920 H   0  0  0  0  0  0  0  0  0  0  0  0
  1  2  1  0
  2  3  2  0
  3  4  1  0
  4  5  2  0
  4  6  1  0
  6  7  2  0
  7  8  1  0
  8  9  2  0
  9 10  1  0
 10 11  2  0
  3 12  1  0
 12 13  2  0
 13 14  1  0
 14 15  1  0
 15 16  1  0
 16 17  2  0
 16 18  1  0
 13 19  1  0
 19 20  2  0
 20 21  1  0
 21 22  1  0
 21 23  1  0
 23 24  2  0
 24 25  1  0
 25 26  2  0
 26 27  1  0
 27 28  2  0
 20  2  1  0
 28 23  1  0
 11  6  1  0
  1 29  1  0
  1 30  1  0
  1 31  1  0
  7 32  1  0
  8 33  1  0
  9 34  1  0
 10 35  1  0
 11 36  1  0
 15 37  1  0
 15 38  1  0
 22 39  1  0
 22 40  1  0
 22 41  1  0
 24 42  1  0
 25 43  1  0
 26 44  1  0
 27 45  1  0
 28 46  1  0
M  CHG  1  18  -1
M  END
>  <UniqueID>  (24) 
23

>  <SMILES>  (24) 
Cc1c(C(=O)c2ccccc2)nc(OCC(=O)[O-])nc1N(C)c1ccccc1

>  <Energy>  (24) 
64.1117042751436

>  <Genealogy>  (24) 
Cc1c(C(=O)c2ccccc2)nc(OCC(=O)[O-])nc1N(C)c1ccccc1 (protonated)
Cc1c(C(=O)c2ccccc2)nc(OCC(=O)[O-])nc1N(C)c1ccccc1 (3D coordinates assigned)
Cc1c(C(=O)c2ccccc2)nc(OCC(=O)[O-])nc1N(C)c1ccccc1 (optimized conformer: 64.1117042751436 kcal/mol)

>  <smiles>  (24) 
Cc1c(C(=O)c2ccccc2)nc(OCC(=O)O)nc1N(C)c1ccccc1

>  <score_type>  (24) 
oracle

>  <origin>  (24) 
adg

>  <m_score__min__energy>  (24) 
-9.9499999999999993

>  <m_primary>  (24) 
energy

$$$$
24:0
     RDKit          3D

 61 65  0  0  0  0  0  0  0  0999 V2000
   62.5330   33.8500   46.3850 C   0  0  0  0  0  0  0  0  0  0  0  0
   61.0660   33.7290   45.9840 C   0  0  0  0  0  0  0  0  0  0  0  0
   60.3660   35.0950   46.0280 C   0  0  0  0  0  0  0  0  0  0  0  0
   58.8380   34.9680   46.1070 C   0  0  0  0  0  0  0  0  0  0  0  0
   58.3340   33.6950   45.4830 C   0  0  0  0  0  0  0  0  0  0  0  0
   58.1840   33.5650   44.1340 N   0  0  0  0  0  0  0  0  0  0  0  0
   57.7360   32.3050   44.0000 C   0  0  0  0  0  0  0  0  0  0  0  0
   57.4120   31.6230   42.8330 C   0  0  0  0  0  0  0  0  0  0  0  0
   56.9640   30.2940   42.9670 C   0  0  0  0  0  0  0  0  0  0  0  0
   56.8640   29.7130   44.2540 C   0  0  0  0  0  0  0  0  0  0  0  0
   57.1970   30.4320   45.3690 N   0  0  0  0  0  0  0  0  0  0  0  0
   57.6250   31.7100   45.2130 C   0  0  0  0  0  0  0  0  0  0  0  0
   58.0070   32.5640   46.1740 N   0  0  0  0  0  0  0  0  0  0  0  0
   58.0290   32.3140   47.6190 C   0  0  0  0  0  0  0  0  0  0  0  0
   59.4430   32.2860   48.1470 C   0  0  0  0  0  0  0  0  0  0  0  0
   60.2550   31.1640   47.9160 C   0  0  0  0  0  0  0  0  0  0  0  0
   61.5460   31.1040   48.4490 C   0  0  0  0  0  0  0  0  0  0  0  0
   62.0320   32.1530   49.2410 C   0  0  0  0  0  0  0  0  0  0  0  0
   63.3830   32.0820   49.8290 C   0  0  0  0  0  0  0  0  0  0  0  0
   64.3980   32.8720   49.2670 C   0  0  0  0  0  0  0  0  0  0  0  0
   65.6960   32.8300   49.7780 C   0  0  0  0  0  0  0  0  0  0  0  0
   65.9930   32.0000   50.8590 C   0  0  0  0  0  0  0  0  0  0  0  0
   64.9920   31.2170   51.4370 C   0  0  0  0  0  0  0  0  0  0  0  0
   63.6790   31.2520   50.9400 C   0  0  0  0  0  0  0  0  0  0  0  0
   62.4350   30.2800   51.7490 S   0  0  0  0  0  0  0  0  0  0  0  0
   62.8910   29.8990   53.1290 O   0  0  0  0  0  0  0  0  0  0  0  0
   62.2160   29.0210   50.9580 O   0  0  0  0  0  0  0  0  0  0  0  0
   60.9490   31.1820   51.8930 N   0  0  0  0  0  0  0  0  0  0  0  0
   59.7840   30.6500   51.4200 C   0  0  0  0  0  0  0  0  0  0  0  0
   58.5890   31.3570   51.5320 C   0  0  0  0  0  0  0  0  0  0  0  0
   57.4330   30.8340   51.0520 F   0  0  0  0  0  0  0  0  0  0  0  0
   58.6070   32.6040   52.1510 C   0  0  0  0  0  0  0  0  0  0  0  0
   57.5450   33.2640   52.2870 O   0  0  0  0  0  0  0  0  0  0  0  0
   59.7790   33.1070   52.6140 N   0  0  0  0  0  0  0  0  0  0  0  0
   60.9410   32.4130   52.4930 C   0  0  0  0  0  0  0  0  0  0  0  0
   62.0070   32.9170   52.9400 O   0  0  0  0  0  0  0  0  0  0  0  0
   61.2310   33.2820   49.4610 C   0  0  0  0  0  0  0  0  0  0  0  0
   59.9420   33.3440   48.9270 C   0  0  0  0  0  0  0  0  0  0  0  0
   62.6139   33.8567   47.4820 H   0  0  0  0  0  0  0  0  0  0  0  0
   63.0952   32.9952   45.9811 H   0  0  0  0  0  0  0  0  0  0  0  0
   62.9476   34.7854   45.9811 H   0  0  0  0  0  0  0  0  0  0  0  0
   61.0050   33.3269   44.9619 H   0  0  0  0  0  0  0  0  0  0  0  0
   60.5640   33.0563   46.6949 H   0  0  0  0  0  0  0  0  0  0  0  0
   60.7208   35.6453   46.9119 H   0  0  0  0  0  0  0  0  0  0  0  0
   60.6104   35.6270   45.0967 H   0  0  0  0  0  0  0  0  0  0  0  0
   58.5365   34.9862   47.1647 H   0  0  0  0  0  0  0  0  0  0  0  0
   58.4027   35.8098   45.5486 H   0  0  0  0  0  0  0  0  0  0  0  0
   57.5016   32.1008   41.8463 H   0  0  0  0  0  0  0  0  0  0  0  0
   56.6930   29.7101   42.0750 H   0  0  0  0  0  0  0  0  0  0  0  0
   56.5157   28.6748   44.3583 H   0  0  0  0  0  0  0  0  0  0  0  0
   57.4711   33.1126   48.1298 H   0  0  0  0  0  0  0  0  0  0  0  0
   57.5665   31.3344   47.8100 H   0  0  0  0  0  0  0  0  0  0  0  0
   59.8732   30.3275   47.3123 H   0  0  0  0  0  0  0  0  0  0  0  0
   62.1826   30.2302   48.2460 H   0  0  0  0  0  0  0  0  0  0  0  0
   64.1683   33.5302   48.4161 H   0  0  0  0  0  0  0  0  0  0  0  0
   66.4846   33.4513   49.3284 H   0  0  0  0  0  0  0  0  0  0  0  0
   67.0178   31.9623   51.2568 H   0  0  0  0  0  0  0  0  0  0  0  0
   65.2342   30.5662   52.2901 H   0  0  0  0  0  0  0  0  0  0  0  0
   59.7890   29.6567   50.9474 H   0  0  0  0  0  0  0  0  0  0  0  0
   61.6189   34.1219   50.0561 H   0  0  0  0  0  0  0  0  0  0  0  0
   59.3132   34.2261   49.1179 H   0  0  0  0  0  0  0  0  0  0  0  0
  1  2  1  0
  2  3  1  0
  3  4  1  0
  4  5  1  0
  5  6  2  0
  6  7  1  0
  7  8  2  0
  8  9  1  0
  9 10  2  0
 10 11  1  0
 11 12  2  0
 12 13  1  0
 13 14  1  0
 14 15  1  0
 15 16  2  0
 16 17  1  0
 17 18  2  0
 18 19  1  0
 19 20  2  0
 20 21  1  0
 21 22  2  0
 22 23  1  0
 23 24  2  0
 24 25  1  0
 25 26  2  0
 25 27  2  0
 25 28  1  0
 28 29  1  0
 29 30  2  0
 30 31  1  0
 30 32  1  0
 32 33  2  0
 32 34  1  0
 34 35  1  0
 35 36  2  0
 18 37  1  0
 37 38  2  0
 13  5  1  0
 38 15  1  0
 12  7  1  0
 24 19  1  0
 35 28  1  0
  1 39  1  0
  1 40  1  0
  1 41  1  0
  2 42  1  0
  2 43  1  0
  3 44  1  0
  3 45  1  0
  4 46  1  0
  4 47  1  0
  8 48  1  0
  9 49  1  0
 10 50  1  0
 14 51  1  0
 14 52  1  0
 16 53  1  0
 17 54  1  0
 20 55  1  0
 21 56  1  0
 22 57  1  0
 23 58  1  0
 29 59  1  0
 37 60  1  0
 38 61  1  0
M  CHG  1  34  -1
M  END
>  <UniqueID>  (25) 
24

>  <SMILES>  (25) 
CCCCc1nc2cccnc2n1Cc1ccc(-c2ccccc2S(=O)(=O)n2cc(F)c(=O)[n-]c2=O)cc1

>  <Energy>  (25) 
105.93226590073952

>  <Genealogy>  (25) 
CCCCc1nc2cccnc2n1Cc1ccc(-c2ccccc2S(=O)(=O)n2cc(F)c(=O)[n-]c2=O)cc1 (protonated)
CCCCc1nc2cccnc2n1Cc1ccc(-c2ccccc2S(=O)(=O)n2cc(F)c(=O)[n-]c2=O)cc1 (3D coordinates assigned)
CCCCc1nc2cccnc2n1Cc1ccc(-c2ccccc2S(=O)(=O)n2cc(F)c(=O)[n-]c2=O)cc1 (optimized conformer: 105.93226590073952 kcal/mol)

>  <smiles>  (25) 
CCCCc1nc2cccnc2n1Cc1ccc(-c2ccccc2S(=O)(=O)n2cc(F)c(=O)[nH]c2=O)cc1

>  <score_type>  (25) 
oracle

>  <origin>  (25) 
adg

>  <m_score__min__energy>  (25) 
-11.300000000000001

>  <m_primary>  (25) 
energy

$$$$
25:0
     RDKit          3D

 42 44  0  0  0  0  0  0  0  0999 V2000
   55.8770   30.2540   44.5080 O   0  0  0  0  0  0  0  0  0  0  0  0
   56.9960   29.9300   44.0240 C   0  0  0  0  0  0  0  0  0  0  0  0
   57.4320   28.4960   44.0720 C   0  0  0  0  0  0  0  0  0  0  0  0
   57.8590   28.1340   45.4260 N   0  0  0  0  0  0  0  0  0  0  0  0
   58.7920   28.7930   46.1440 C   0  0  0  0  0  0  0  0  0  0  0  0
   58.9850   28.1660   47.3570 C   0  0  0  0  0  0  0  0  0  0  0  0
   58.1400   27.0750   47.3790 C   0  0  0  0  0  0  0  0  0  0  0  0
   57.4620   27.0740   46.1710 C   0  0  0  0  0  0  0  0  0  0  0  0
   56.4370   26.0800   45.7760 C   0  0  0  0  0  0  0  0  0  0  0  0
   55.2220   26.3250   46.0050 O   0  0  0  0  0  0  0  0  0  0  0  0
   56.8030   24.7890   45.1450 C   0  0  0  0  0  0  0  0  0  0  0  0
   55.9240   24.1410   44.2560 C   0  0  0  0  0  0  0  0  0  0  0  0
   56.2790   22.9210   43.6740 C   0  0  0  0  0  0  0  0  0  0  0  0
   57.5070   22.3290   43.9820 C   0  0  0  0  0  0  0  0  0  0  0  0
   58.3770   22.9530   44.8770 C   0  0  0  0  0  0  0  0  0  0  0  0
   58.0270   24.1750   45.4600 C   0  0  0  0  0  0  0  0  0  0  0  0
   57.8340   30.9210   43.4130 N   0  0  0  0  0  0  0  0  0  0  0  0
   57.5300   32.3470   43.4710 C   0  0  0  0  0  0  0  0  0  0  0  0
   58.0890   32.9440   44.7340 C   0  0  0  0  0  0  0  0  0  0  0  0
   57.7790   32.3690   45.9790 C   0  0  0  0  0  0  0  0  0  0  0  0
   58.2980   32.9160   47.1550 C   0  0  0  0  0  0  0  0  0  0  0  0
   59.1200   34.0450   47.1000 C   0  0  0  0  0  0  0  0  0  0  0  0
   59.4120   34.6370   45.8680 C   0  0  0  0  0  0  0  0  0  0  0  0
   58.8970   34.0910   44.6870 C   0  0  0  0  0  0  0  0  0  0  0  0
   56.5917   27.8521   43.7732 H   0  0  0  0  0  0  0  0  0  0  0  0
   58.2788   28.3586   43.3835 H   0  0  0  0  0  0  0  0  0  0  0  0
   59.3212   29.6979   45.8107 H   0  0  0  0  0  0  0  0  0  0  0  0
   59.6783   28.4755   48.1530 H   0  0  0  0  0  0  0  0  0  0  0  0
   58.0269   26.3478   48.1966 H   0  0  0  0  0  0  0  0  0  0  0  0
   54.9520   24.5978   44.0182 H   0  0  0  0  0  0  0  0  0  0  0  0
   55.5911   22.4261   42.9727 H   0  0  0  0  0  0  0  0  0  0  0  0
   57.7876   21.3714   43.5190 H   0  0  0  0  0  0  0  0  0  0  0  0
   59.3401   22.4827   45.1244 H   0  0  0  0  0  0  0  0  0  0  0  0
   58.7143   24.6586   46.1697 H   0  0  0  0  0  0  0  0  0  0  0  0
   58.7150   30.6220   42.9380 H   0  0  0  0  0  0  0  0  0  0  0  0
   57.9780   32.8502   42.6015 H   0  0  0  0  0  0  0  0  0  0  0  0
   56.4385   32.4831   43.4609 H   0  0  0  0  0  0  0  0  0  0  0  0
   57.1256   31.4854   46.0272 H   0  0  0  0  0  0  0  0  0  0  0  0
   58.0593   32.4574   48.1259 H   0  0  0  0  0  0  0  0  0  0  0  0
   59.5370   34.4675   48.0260 H   0  0  0  0  0  0  0  0  0  0  0  0
   60.0478   35.5337   45.8267 H   0  0  0  0  0  0  0  0  0  0  0  0
   59.1258   34.5617   43.7195 H   0  0  0  0  0  0  0  0  0  0  0  0
  1  2  2  0
  2  3  1  0
  3  4  1  0
  4  5  1  0
  5  6  2  0
  6  7  1  0
  7  8  2  0
  8  9  1  0
  9 10  2  0
  9 11  1  0
 11 12  2  0
 12 13  1  0
 13 14  2  0
 14 15  1  0
 15 16  2  0
  2 17  1  0
 17 18  1  0
 18 19  1  0
 19 20  2  0
 20 21  1  0
 21 22  2  0
 22 23  1  0
 23 24  2  0
  8  4  1  0
 16 11  1  0
 24 19  1  0
  3 25  1  0
  3 26  1  0
  5 27  1  0
  6 28  1  0
  7 29  1  0
 12 30  1  0
 13 31  1  0
 14 32  1  0
 15 33  1  0
 16 34  1  0
 17 35  1  0
 18 36  1  0
 18 37  1  0
 20 38  1  0
 21 39  1  0
 22 40  1  0
 23 41  1  0
 24 42  1  0
M  END
>  <UniqueID>  (26) 
25

>  <SMILES>  (26) 
O=C(Cn1cccc1C(=O)c1ccccc1)NCc1ccccc1

>  <Energy>  (26) 
66.38368711987357

>  <Genealogy>  (26) 
O=C(Cn1cccc1C(=O)c1ccccc1)NCc1ccccc1 (3D coordinates assigned)
O=C(Cn1cccc1C(=O)c1ccccc1)NCc1ccccc1 (optimized conformer: 66.38368711987357 kcal/mol)

>  <smiles>  (26) 
O=C(Cn1cccc1C(=O)c1ccccc1)NCc1ccccc1

>  <score_type>  (26) 
oracle

>  <origin>  (26) 
adg

>  <m_score__min__energy>  (26) 
-9.1400000000000006

>  <m_primary>  (26) 
energy

$$$$
26:0
     RDKit          3D

 49 52  0  0  1  0  0  0  0  0999 V2000
   53.1330   28.5710   53.3630 C   0  0  0  0  0  0  0  0  0  0  0  0
   52.9650   29.8070   52.5880 C   0  0  0  0  0  0  0  0  0  0  0  0
   51.7710   30.3400   52.3310 O   0  0  0  0  0  0  0  0  0  0  0  0
   51.9450   31.4300   51.6250 C   0  0  0  0  0  0  0  0  0  0  0  0
   51.0110   32.1890   51.2060 O   0  0  0  0  0  0  0  0  0  0  0  0
   53.2580   31.6000   51.4260 N   0  0  0  0  0  0  0  0  0  0  0  0
   53.9430   30.5810   52.0280 C   0  0  0  0  0  0  0  0  0  0  0  0
   55.3770   30.4840   51.9940 C   0  0  0  0  0  0  0  0  0  0  0  0
   55.9250   29.3840   52.3620 O   0  0  0  0  0  0  0  0  0  0  0  0
   56.2810   31.4900   51.5940 N   0  0  0  0  0  0  0  0  0  0  0  0
   57.7000   31.2460   51.6160 C   0  0  0  0  0  0  0  0  0  0  0  0
   58.5040   32.1360   52.2900 C   0  0  0  0  0  0  0  0  0  0  0  0
   59.8560   31.8830   52.2970 C   0  0  0  0  0  0  0  0  0  0  0  0
   60.3990   30.7860   51.6590 C   0  0  0  0  0  0  0  0  0  0  0  0
   59.6010   29.8640   50.9640 C   0  0  0  0  0  0  0  0  0  0  0  0
   60.1850   28.6830   50.2730 C   0  0  0  0  0  0  0  0  0  0  0  0
   60.3550   28.7760   48.9070 N   0  0  0  0  0  0  0  0  0  0  0  0
   59.6990   29.2990   48.0140 C   0  0  0  0  0  0  0  0  0  0  0  0
   59.6310   30.6460   47.9470 N   0  0  0  0  0  0  0  0  0  0  0  0
   58.9170   31.3240   47.0370 C   0  0  0  0  0  0  0  0  0  0  0  0
   58.2270   30.5980   46.1400 N   0  0  0  0  0  0  0  0  0  0  0  0
   58.2690   29.2530   46.1720 C   0  0  0  0  0  0  0  0  0  0  0  0
   57.5520   28.5750   45.2320 C   0  0  0  0  0  0  0  0  0  0  0  0
   56.7680   29.2940   44.2370 C   0  0  0  0  0  0  0  0  0  0  0  0
   56.9260   28.9930   42.8620 N   0  0  0  0  0  0  0  0  0  0  0  0
   55.9380   30.1920   44.5630 O   0  0  0  0  0  0  0  0  0  0  0  0
   57.6100   27.2000   45.2720 C   0  0  0  0  0  0  0  0  0  0  0  0
   58.3300   26.4910   46.1810 C   0  0  0  0  0  0  0  0  0  0  0  0
   59.0750   27.1900   47.1590 C   0  0  0  0  0  0  0  0  0  0  0  0
   59.0050   28.5410   47.1060 C   0  0  0  0  0  0  0  0  0  0  0  0
   58.2490   30.1560   50.9820 C   0  0  0  0  0  0  0  0  0  0  0  0
   53.1012   28.8047   54.4374 H   0  0  0  0  0  0  0  0  0  0  0  0
   52.3218   27.8703   53.1161 H   0  0  0  0  0  0  0  0  0  0  0  0
   54.1018   28.1122   53.1161 H   0  0  0  0  0  0  0  0  0  0  0  0
   53.6420   32.4060   50.8860 H   0  0  0  0  0  0  0  0  0  0  0  0
   55.9560   32.4130   51.2790 H   0  0  0  0  0  0  0  0  0  0  0  0
   58.0830   33.0137   52.8022 H   0  0  0  0  0  0  0  0  0  0  0  0
   60.5252   32.5764   52.8275 H   0  0  0  0  0  0  0  0  0  0  0  0
   61.4873   30.6301   51.6963 H   0  0  0  0  0  0  0  0  0  0  0  0
   61.1730   28.4935   50.7180 H   0  0  0  0  0  0  0  0  0  0  0  0
   59.4496   27.8773   50.4146 H   0  0  0  0  0  0  0  0  0  0  0  0
   60.1610   31.2350   48.6380 H   0  0  0  0  0  0  0  0  0  0  0  0
   58.8966   32.4237   47.0248 H   0  0  0  0  0  0  0  0  0  0  0  0
   56.5960   28.1100   42.4140 H   0  0  0  0  0  0  0  0  0  0  0  0
   57.4150   29.7360   42.2840 H   0  0  0  0  0  0  0  0  0  0  0  0
   57.0365   26.6389   44.5195 H   0  0  0  0  0  0  0  0  0  0  0  0
   58.3332   25.3913   46.1564 H   0  0  0  0  0  0  0  0  0  0  0  0
   59.6757   26.6670   47.9177 H   0  0  0  0  0  0  0  0  0  0  0  0
   57.5683   29.4715   50.4546 H   0  0  0  0  0  0  0  0  0  0  0  0
  1  2  1  0
  2  3  1  0
  3  4  1  0
  4  5  2  0
  4  6  1  0
  6  7  1  0
  7  8  1  0
  8  9  2  0
  8 10  1  0
 10 11  1  0
 11 12  2  0
 12 13  1  0
 13 14  2  0
 14 15  1  0
 15 16  1  0
 16 17  1  0
 17 18  2  0
 18 19  1  0
 19 20  1  0
 20 21  2  0
 21 22  1  0
 22 23  2  0
 23 24  1  0
 24 25  1  0
 24 26  2  0
 23 27  1  0
 27 28  2  0
 28 29  1  0
 29 30  2  0
 15 31  2  0
  7  2  2  0
 31 11  1  0
 30 18  1  0
 30 22  1  0
  1 32  1  0
  1 33  1  0
  1 34  1  0
  6 35  1  0
 10 36  1  0
 12 37  1  0
 13 38  1  0
 14 39  1  0
 16 40  1  0
 16 41  1  0
 19 42  1  0
 20 43  1  0
 25 44  1  0
 25 45  1  0
 27 46  1  0
 28 47  1  0
 29 48  1  0
 31 49  1  0
M  END
>  <smiles>  (27) 
Cc1oc(=O)[nH]c1C(=O)Nc1cccc(CN=c2[nH]cnc3c(C(N)=O)cccc23)c1

>  <score_type>  (27) 
oracle

>  <origin>  (27) 
adg

>  <m_score__min__energy>  (27) 
-9.6999999999999993

>  <m_primary>  (27) 
energy

$$$$
27:0
     RDKit          3D

 51 53  0  0  0  0  0  0  0  0999 V2000
   59.6510   35.0160   45.8990 C   0  0  0  0  0  0  0  0  0  0  0  0
   58.9160   33.7660   45.5150 C   0  0  0  0  0  0  0  0  0  0  0  0
   58.5370   33.5480   44.1800 C   0  0  0  0  0  0  0  0  0  0  0  0
   57.8160   32.4020   43.8310 C   0  0  0  0  0  0  0  0  0  0  0  0
   57.4570   31.4680   44.8120 C   0  0  0  0  0  0  0  0  0  0  0  0
   56.5230   30.0430   44.3620 S   0  0  0  0  0  0  0  0  0  0  0  0
   57.0630   29.4500   43.0910 O   0  0  0  0  0  0  0  0  0  0  0  0
   55.0950   30.4480   44.1300 O   0  0  0  0  0  0  0  0  0  0  0  0
   56.5810   28.8590   45.6310 N   0  0  0  0  0  0  0  0  0  0  0  0
   57.4240   27.7360   45.2220 C   0  0  0  0  0  0  0  0  0  0  0  0
   58.8520   28.1830   45.0740 C   0  0  0  0  0  0  0  0  0  0  0  0
   59.4980   27.8460   44.0430 O   0  0  0  0  0  0  0  0  0  0  0  0
   59.5100   28.9530   46.1030 N   0  0  0  0  0  0  0  0  0  0  0  0
   60.7300   29.6990   45.7610 C   0  0  0  0  0  0  0  0  0  0  0  0
   61.0520   30.7700   46.8060 C   0  0  0  0  0  0  0  0  0  0  0  0
   61.0320   30.2040   48.1620 N   0  0  0  0  0  0  0  0  0  0  0  0
   61.8830   30.7540   49.1930 C   0  0  0  0  0  0  0  0  0  0  0  0
   61.7020   30.3900   50.5400 C   0  0  0  0  0  0  0  0  0  0  0  0
   62.5340   30.9120   51.5340 C   0  0  0  0  0  0  0  0  0  0  0  0
   63.5520   31.8070   51.1980 C   0  0  0  0  0  0  0  0  0  0  0  0
   63.7390   32.1950   49.8640 C   0  0  0  0  0  0  0  0  0  0  0  0
   64.8580   33.1250   49.5010 C   0  0  0  0  0  0  0  0  0  0  0  0
   62.9150   31.6540   48.8650 C   0  0  0  0  0  0  0  0  0  0  0  0
   60.0660   29.1480   48.5020 C   0  0  0  0  0  0  0  0  0  0  0  0
   58.9490   29.0430   47.4600 C   0  0  0  0  0  0  0  0  0  0  0  0
   57.8130   31.6960   46.1480 C   0  0  0  0  0  0  0  0  0  0  0  0
   58.5340   32.8410   46.4990 C   0  0  0  0  0  0  0  0  0  0  0  0
   59.6961   35.0927   46.9954 H   0  0  0  0  0  0  0  0  0  0  0  0
   60.6722   34.9807   45.4916 H   0  0  0  0  0  0  0  0  0  0  0  0
   59.1237   35.8912   45.4916 H   0  0  0  0  0  0  0  0  0  0  0  0
   58.8084   34.2815   43.4065 H   0  0  0  0  0  0  0  0  0  0  0  0
   57.5295   32.2330   42.7825 H   0  0  0  0  0  0  0  0  0  0  0  0
   57.3686   26.9443   45.9836 H   0  0  0  0  0  0  0  0  0  0  0  0
   57.0664   27.3536   44.2546 H   0  0  0  0  0  0  0  0  0  0  0  0
   61.5730   28.9949   45.7011 H   0  0  0  0  0  0  0  0  0  0  0  0
   60.5652   30.2008   44.7961 H   0  0  0  0  0  0  0  0  0  0  0  0
   62.0514   31.1822   46.6027 H   0  0  0  0  0  0  0  0  0  0  0  0
   60.2898   31.5607   46.7445 H   0  0  0  0  0  0  0  0  0  0  0  0
   60.8993   29.6891   50.8128 H   0  0  0  0  0  0  0  0  0  0  0  0
   62.3867   30.6173   52.5835 H   0  0  0  0  0  0  0  0  0  0  0  0
   64.2095   32.2090   51.9830 H   0  0  0  0  0  0  0  0  0  0  0  0
   65.3247   33.5128   50.4185 H   0  0  0  0  0  0  0  0  0  0  0  0
   65.6091   32.5814   48.9091 H   0  0  0  0  0  0  0  0  0  0  0  0
   64.4610   33.9629   48.9091 H   0  0  0  0  0  0  0  0  0  0  0  0
   63.0772   31.9362   47.8142 H   0  0  0  0  0  0  0  0  0  0  0  0
   60.5951   28.1851   48.5553 H   0  0  0  0  0  0  0  0  0  0  0  0
   59.6085   29.4015   49.4697 H   0  0  0  0  0  0  0  0  0  0  0  0
   58.3492   28.1435   47.6631 H   0  0  0  0  0  0  0  0  0  0  0  0
   58.3204   29.9435   47.5236 H   0  0  0  0  0  0  0  0  0  0  0  0
   57.5240   30.9713   46.9234 H   0  0  0  0  0  0  0  0  0  0  0  0
   58.8031   33.0178   47.5508 H   0  0  0  0  0  0  0  0  0  0  0  0
  1  2  1  0
  2  3  2  0
  3  4  1  0
  4  5  2  0
  5  6  1  0
  6  7  2  0
  6  8  2  0
  6  9  1  0
  9 10  1  0
 10 11  1  0
 11 12  2  0
 11 13  1  0
 13 14  1  0
 14 15  1  0
 15 16  1  0
 16 17  1  0
 17 18  2  0
 18 19  1  0
 19 20  2  0
 20 21  1  0
 21 22  1  0
 21 23  2  0
 16 24  1  0
 24 25  1  0
  5 26  1  0
 26 27  2  0
 27  2  1  0
 25 13  1  0
 23 17  1  0
  1 28  1  0
  1 29  1  0
  1 30  1  0
  3 31  1  0
  4 32  1  0
 10 33  1  0
 10 34  1  0
 14 35  1  0
 14 36  1  0
 15 37  1  0
 15 38  1  0
 18 39  1  0
 19 40  1  0
 20 41  1  0
 22 42  1  0
 22 43  1  0
 22 44  1  0
 23 45  1  0
 24 46  1  0
 24 47  1  0
 25 48  1  0
 25 49  1  0
 26 50  1  0
 27 51  1  0
M  CHG  1   9  -1
M  END
>  <UniqueID>  (28) 
26

>  <SMILES>  (28) 
Cc1ccc(S(=O)(=O)[N-]CC(=O)N2CCN(c3cccc(C)c3)CC2)cc1

>  <Energy>  (28) 
52.48403789721663

>  <Genealogy>  (28) 
Cc1ccc(S(=O)(=O)[N-]CC(=O)N2CCN(c3cccc(C)c3)CC2)cc1 (protonated)
Cc1ccc(S(=O)(=O)[N-]CC(=O)N2CCN(c3cccc(C)c3)CC2)cc1 (3D coordinates assigned)
Cc1ccc(S(=O)(=O)[N-]CC(=O)N2CCN(c3cccc(C)c3)CC2)cc1 (nonaromatic ring conformer: 52.48403789721663 kcal/mol)

>  <smiles>  (28) 
Cc1ccc(S(=O)(=O)NCC(=O)N2CCN(c3cccc(C)c3)CC2)cc1

>  <score_type>  (28) 
oracle

>  <origin>  (28) 
adg

>  <m_score__min__energy>  (28) 
-10.41

>  <m_primary>  (28) 
energy

$$$$
28:0
     RDKit          3D

 56 58  0  0  0  0  0  0  0  0999 V2000
   63.5930   33.5260   51.2400 C   0  0  0  0  0  0  0  0  0  0  0  0
   63.7750   33.4390   49.7530 C   0  0  0  0  0  0  0  0  0  0  0  0
   64.9470   33.4960   49.2910 O   0  0  0  0  0  0  0  0  0  0  0  0
   62.6490   33.3210   48.8520 N   0  0  0  0  0  0  0  0  0  0  0  0
   62.8480   32.7080   47.5270 C   0  0  0  0  0  0  0  0  0  0  0  0
   61.9680   33.3890   46.4760 C   0  0  0  0  0  0  0  0  0  0  0  0
   60.5010   33.4050   46.9370 C   0  0  0  0  0  0  0  0  0  0  0  0
   59.5230   33.9430   45.8650 C   0  0  0  0  0  0  0  0  0  0  0  0
   57.8400   33.3200   45.9450 S   0  0  0  0  0  0  0  0  0  0  0  0
   56.9210   34.2070   45.1510 O   0  0  0  0  0  0  0  0  0  0  0  0
   57.3430   33.2490   47.3610 O   0  0  0  0  0  0  0  0  0  0  0  0
   57.8230   31.7000   45.2560 C   0  0  0  0  0  0  0  0  0  0  0  0
   56.7910   31.3040   44.3960 C   0  0  0  0  0  0  0  0  0  0  0  0
   56.7980   30.0240   43.8350 C   0  0  0  0  0  0  0  0  0  0  0  0
   57.8340   29.1340   44.1290 C   0  0  0  0  0  0  0  0  0  0  0  0
   58.8690   29.5140   44.9990 C   0  0  0  0  0  0  0  0  0  0  0  0
   59.9850   28.5900   45.2910 C   0  0  0  0  0  0  0  0  0  0  0  0
   61.0370   28.6730   44.6010 O   0  0  0  0  0  0  0  0  0  0  0  0
   59.8940   27.6040   46.3410 N   0  0  0  0  0  0  0  0  0  0  0  0
   60.7650   26.4240   46.3090 C   0  0  0  0  0  0  0  0  0  0  0  0
   58.8220   27.6960   47.3410 C   0  0  0  0  0  0  0  0  0  0  0  0
   57.7340   26.6930   47.0540 C   0  0  0  0  0  0  0  0  0  0  0  0
   57.7770   25.4090   47.6130 C   0  0  0  0  0  0  0  0  0  0  0  0
   56.7470   24.5100   47.3410 C   0  0  0  0  0  0  0  0  0  0  0  0
   55.7190   24.8920   46.5380 N   0  0  0  0  0  0  0  0  0  0  0  0
   55.6730   26.1120   46.0010 N   0  0  0  0  0  0  0  0  0  0  0  0
   56.6500   27.0280   46.2350 C   0  0  0  0  0  0  0  0  0  0  0  0
   58.8670   30.8090   45.5440 C   0  0  0  0  0  0  0  0  0  0  0  0
   60.3820   34.1390   48.2840 C   0  0  0  0  0  0  0  0  0  0  0  0
   61.2670   33.4710   49.3420 C   0  0  0  0  0  0  0  0  0  0  0  0
   64.4757   33.1040   51.7428 H   0  0  0  0  0  0  0  0  0  0  0  0
   63.4723   34.5792   51.5336 H   0  0  0  0  0  0  0  0  0  0  0  0
   62.6976   32.9585   51.5336 H   0  0  0  0  0  0  0  0  0  0  0  0
   63.9037   32.8124   47.2361 H   0  0  0  0  0  0  0  0  0  0  0  0
   62.5703   31.6452   47.5847 H   0  0  0  0  0  0  0  0  0  0  0  0
   62.3133   34.4229   46.3285 H   0  0  0  0  0  0  0  0  0  0  0  0
   62.0402   32.8291   45.5319 H   0  0  0  0  0  0  0  0  0  0  0  0
   60.1874   32.3614   47.0869 H   0  0  0  0  0  0  0  0  0  0  0  0
   59.4812   35.0374   45.9675 H   0  0  0  0  0  0  0  0  0  0  0  0
   59.9212   33.5941   44.9008 H   0  0  0  0  0  0  0  0  0  0  0  0
   55.9735   32.0017   44.1617 H   0  0  0  0  0  0  0  0  0  0  0  0
   55.9856   29.7164   43.1601 H   0  0  0  0  0  0  0  0  0  0  0  0
   57.8391   28.1311   43.6771 H   0  0  0  0  0  0  0  0  0  0  0  0
   60.9961   26.1109   47.3378 H   0  0  0  0  0  0  0  0  0  0  0  0
   60.2534   25.6048   45.7826 H   0  0  0  0  0  0  0  0  0  0  0  0
   61.6986   26.6715   45.7826 H   0  0  0  0  0  0  0  0  0  0  0  0
   59.2413   27.4975   48.3384 H   0  0  0  0  0  0  0  0  0  0  0  0
   58.3891   28.7064   47.3015 H   0  0  0  0  0  0  0  0  0  0  0  0
   58.6156   25.1131   48.2604 H   0  0  0  0  0  0  0  0  0  0  0  0
   56.7660   23.4986   47.7731 H   0  0  0  0  0  0  0  0  0  0  0  0
   56.5886   28.0286   45.7823 H   0  0  0  0  0  0  0  0  0  0  0  0
   59.6901   31.1262   46.2012 H   0  0  0  0  0  0  0  0  0  0  0  0
   60.6989   35.1845   48.1553 H   0  0  0  0  0  0  0  0  0  0  0  0
   59.3352   34.0973   48.6194 H   0  0  0  0  0  0  0  0  0  0  0  0
   61.2722   34.0907   50.2508 H   0  0  0  0  0  0  0  0  0  0  0  0
   60.8610   32.4724   49.5607 H   0  0  0  0  0  0  0  0  0  0  0  0
  1  2  1  0
  2  3  2  0
  2  4  1  0
  4  5  1  0
  5  6  1  0
  6  7  1  0
  7  8  1  0
  8  9  1  0
  9 10  2  0
  9 11  2  0
  9 12  1  0
 12 13  2  0
 13 14  1  0
 14 15  2  0
 15 16  1  0
 16 17  1  0
 17 18  2  0
 17 19  1  0
 19 20  1  0
 19 21  1  0
 21 22  1  0
 22 23  2  0
 23 24  1  0
 24 25  2  0
 25 26  1  0
 26 27  2  0
 16 28  2  0
  7 29  1  0
 29 30  1  0
 30  4  1  0
 28 12  1  0
 27 22  1  0
  1 31  1  0
  1 32  1  0
  1 33  1  0
  5 34  1  0
  5 35  1  0
  6 36  1  0
  6 37  1  0
  7 38  1  0
  8 39  1  0
  8 40  1  0
 13 41  1  0
 14 42  1  0
 15 43  1  0
 20 44  1  0
 20 45  1  0
 20 46  1  0
 21 47  1  0
 21 48  1  0
 23 49  1  0
 24 50  1  0
 27 51  1  0
 28 52  1  0
 29 53  1  0
 29 54  1  0
 30 55  1  0
 30 56  1  0
M  END
>  <UniqueID>  (29) 
27

>  <SMILES>  (29) 
CC(=O)N1CCC(CS(=O)(=O)c2cccc(C(=O)N(C)Cc3ccnnc3)c2)CC1

>  <Energy>  (29) 
58.122298608259264

>  <Genealogy>  (29) 
CC(=O)N1CCC(CS(=O)(=O)c2cccc(C(=O)N(C)Cc3ccnnc3)c2)CC1 (3D coordinates assigned)
CC(=O)N1CCC(CS(=O)(=O)c2cccc(C(=O)N(C)Cc3ccnnc3)c2)CC1 (nonaromatic ring conformer: 58.122298608259264 kcal/mol)

>  <smiles>  (29) 
CC(=O)N1CCC(CS(=O)(=O)c2cccc(C(=O)N(C)Cc3ccnnc3)c2)CC1

>  <score_type>  (29) 
oracle

>  <origin>  (29) 
adg

>  <m_score__min__energy>  (29) 
-10.15

>  <m_primary>  (29) 
energy

$$$$
29:0
     RDKit          3D

 39 41  0  0  0  0  0  0  0  0999 V2000
   59.9230   30.3710   48.8080 C   0  0  0  0  0  0  0  0  0  0  0  0
   60.9920   31.1990   48.1660 C   0  0  0  0  0  0  0  0  0  0  0  0
   62.1930   30.8490   48.3120 O   0  0  0  0  0  0  0  0  0  0  0  0
   60.6770   32.4100   47.3710 C   0  0  0  0  0  0  0  0  0  0  0  0
   61.4380   33.5810   47.2950 C   0  0  0  0  0  0  0  0  0  0  0  0
   62.7120   33.8600   48.0240 C   0  0  0  0  0  0  0  0  0  0  0  0
   60.8810   34.4430   46.4660 O   0  0  0  0  0  0  0  0  0  0  0  0
   59.7890   33.8940   45.9950 C   0  0  0  0  0  0  0  0  0  0  0  0
   58.8900   34.4520   45.0920 C   0  0  0  0  0  0  0  0  0  0  0  0
   57.7660   33.6930   44.7260 C   0  0  0  0  0  0  0  0  0  0  0  0
   57.5520   32.4070   45.2720 C   0  0  0  0  0  0  0  0  0  0  0  0
   56.3900   31.6730   44.8600 N   0  0  0  0  0  0  0  0  0  0  0  0
   56.3920   30.0160   44.3450 S   0  0  0  0  0  0  0  0  0  0  0  0
   55.1510   29.3420   44.8590 O   0  0  0  0  0  0  0  0  0  0  0  0
   56.3890   29.9660   42.8430 O   0  0  0  0  0  0  0  0  0  0  0  0
   57.8390   29.2050   44.9380 C   0  0  0  0  0  0  0  0  0  0  0  0
   59.0850   29.5160   44.3830 C   0  0  0  0  0  0  0  0  0  0  0  0
   60.2430   28.9100   44.8730 C   0  0  0  0  0  0  0  0  0  0  0  0
   60.1640   27.9920   45.9230 C   0  0  0  0  0  0  0  0  0  0  0  0
   58.9190   27.6660   46.4930 C   0  0  0  0  0  0  0  0  0  0  0  0
   58.8340   26.7320   47.5850 N   0  0  0  0  0  0  0  0  0  0  0  0
   57.9520   25.8490   47.5990 O   0  0  0  0  0  0  0  0  0  0  0  0
   59.7310   26.7900   48.6270 O   0  0  0  0  0  0  0  0  0  0  0  0
   57.7580   28.2770   45.9870 C   0  0  0  0  0  0  0  0  0  0  0  0
   58.4790   31.8780   46.2000 C   0  0  0  0  0  0  0  0  0  0  0  0
   59.6050   32.6410   46.5210 C   0  0  0  0  0  0  0  0  0  0  0  0
   60.0128   30.4406   49.9021 H   0  0  0  0  0  0  0  0  0  0  0  0
   58.9353   30.7420   48.4968 H   0  0  0  0  0  0  0  0  0  0  0  0
   60.0353   29.3219   48.4968 H   0  0  0  0  0  0  0  0  0  0  0  0
   62.5303   33.8202   49.1082 H   0  0  0  0  0  0  0  0  0  0  0  0
   63.4639   33.1052   47.7503 H   0  0  0  0  0  0  0  0  0  0  0  0
   63.0797   34.8599   47.7503 H   0  0  0  0  0  0  0  0  0  0  0  0
   59.0543   35.4574   44.6770 H   0  0  0  0  0  0  0  0  0  0  0  0
   57.0436   34.1045   44.0057 H   0  0  0  0  0  0  0  0  0  0  0  0
   59.1523   30.2404   43.5579 H   0  0  0  0  0  0  0  0  0  0  0  0
   61.2200   29.1558   44.4314 H   0  0  0  0  0  0  0  0  0  0  0  0
   61.0808   27.5208   46.3069 H   0  0  0  0  0  0  0  0  0  0  0  0
   56.7776   28.0251   46.4175 H   0  0  0  0  0  0  0  0  0  0  0  0
   58.3177   30.8908   46.6576 H   0  0  0  0  0  0  0  0  0  0  0  0
  1  2  1  0
  2  3  2  0
  2  4  1  0
  4  5  2  0
  5  6  1  0
  5  7  1  0
  7  8  1  0
  8  9  2  0
  9 10  1  0
 10 11  2  0
 11 12  1  0
 12 13  1  0
 13 14  2  0
 13 15  2  0
 13 16  1  0
 16 17  2  0
 17 18  1  0
 18 19  2  0
 19 20  1  0
 20 21  1  0
 21 22  2  0
 21 23  1  0
 20 24  2  0
 11 25  1  0
 25 26  2  0
 26  4  1  0
 26  8  1  0
 24 16  1  0
  1 27  1  0
  1 28  1  0
  1 29  1  0
  6 30  1  0
  6 31  1  0
  6 32  1  0
  9 33  1  0
 10 34  1  0
 17 35  1  0
 18 36  1  0
 19 37  1  0
 24 38  1  0
 25 39  1  0
M  CHG  3  12  -1  21   1  23  -1
M  END
>  <UniqueID>  (30) 
28

>  <SMILES>  (30) 
CC(=O)c1c(C)oc2ccc([N-]S(=O)(=O)c3cccc([N+](=O)[O-])c3)cc12

>  <Energy>  (30) 
78.08803792774661

>  <Genealogy>  (30) 
CC(=O)c1c(C)oc2ccc([N-]S(=O)(=O)c3cccc([N+](=O)[O-])c3)cc12 (protonated)
CC(=O)c1c(C)oc2ccc([N-]S(=O)(=O)c3cccc([N+](=O)[O-])c3)cc12 (3D coordinates assigned)
CC(=O)c1c(C)oc2ccc([N-]S(=O)(=O)c3cccc([N+](=O)[O-])c3)cc12 (optimized conformer: 78.08803792774661 kcal/mol)

>  <smiles>  (30) 
CC(=O)c1c(C)oc2ccc(NS(=O)(=O)c3cccc([N+](=O)[O-])c3)cc12

>  <score_type>  (30) 
oracle

>  <origin>  (30) 
adg

>  <m_score__min__energy>  (30) 
-10.33

>  <m_primary>  (30) 
energy

$$$$
30:0
     RDKit          3D

 35 36  0  0  0  0  0  0  0  0999 V2000
   55.5440   24.0510   44.3060 C   0  0  0  0  0  0  0  0  0  0  0  0
   54.8460   24.8340   45.7440 S   0  0  0  0  0  0  0  0  0  0  0  0
   55.1180   23.9710   46.9440 O   0  0  0  0  0  0  0  0  0  0  0  0
   53.3590   24.9890   45.5890 O   0  0  0  0  0  0  0  0  0  0  0  0
   55.5820   26.3850   45.9960 N   0  0  0  0  0  0  0  0  0  0  0  0
   56.9750   26.6230   46.2420 C   0  0  0  0  0  0  0  0  0  0  0  0
   57.9300   25.5920   46.2100 C   0  0  0  0  0  0  0  0  0  0  0  0
   59.2760   25.8750   46.4460 C   0  0  0  0  0  0  0  0  0  0  0  0
   59.6840   27.1830   46.7190 C   0  0  0  0  0  0  0  0  0  0  0  0
   58.7430   28.2260   46.7650 C   0  0  0  0  0  0  0  0  0  0  0  0
   59.1840   29.6130   47.0480 C   0  0  0  0  0  0  0  0  0  0  0  0
   60.3070   29.8090   47.5880 O   0  0  0  0  0  0  0  0  0  0  0  0
   58.3400   30.7340   46.7370 N   0  0  0  0  0  0  0  0  0  0  0  0
   58.8090   32.0890   46.8120 C   0  0  0  0  0  0  0  0  0  0  0  0
   59.6240   32.4600   47.8930 C   0  0  0  0  0  0  0  0  0  0  0  0
   60.1630   33.7450   47.9680 C   0  0  0  0  0  0  0  0  0  0  0  0
   59.8870   34.6770   46.9680 C   0  0  0  0  0  0  0  0  0  0  0  0
   59.0550   34.3340   45.9010 C   0  0  0  0  0  0  0  0  0  0  0  0
   58.4880   33.0480   45.8180 C   0  0  0  0  0  0  0  0  0  0  0  0
   57.5580   32.7500   44.7620 N   0  0  0  0  0  0  0  0  0  0  0  0
   57.4600   33.5100   43.7760 O   0  0  0  0  0  0  0  0  0  0  0  0
   56.6510   31.7240   44.9010 O   0  0  0  0  0  0  0  0  0  0  0  0
   57.3890   27.9340   46.5160 C   0  0  0  0  0  0  0  0  0  0  0  0
   56.2453   23.2643   44.6210 H   0  0  0  0  0  0  0  0  0  0  0  0
   54.7386   23.6048   43.7042 H   0  0  0  0  0  0  0  0  0  0  0  0
   56.0794   24.8001   43.7042 H   0  0  0  0  0  0  0  0  0  0  0  0
   57.6155   24.5594   45.9984 H   0  0  0  0  0  0  0  0  0  0  0  0
   60.0191   25.0645   46.4169 H   0  0  0  0  0  0  0  0  0  0  0  0
   60.7477   27.3978   46.8990 H   0  0  0  0  0  0  0  0  0  0  0  0
   57.3080   30.5810   46.6890 H   0  0  0  0  0  0  0  0  0  0  0  0
   59.8397   31.7312   48.6882 H   0  0  0  0  0  0  0  0  0  0  0  0
   60.8058   34.0229   48.8163 H   0  0  0  0  0  0  0  0  0  0  0  0
   60.3258   35.6843   47.0202 H   0  0  0  0  0  0  0  0  0  0  0  0
   58.8403   35.0756   45.1175 H   0  0  0  0  0  0  0  0  0  0  0  0
   56.6460   28.7449   46.5366 H   0  0  0  0  0  0  0  0  0  0  0  0
  1  2  1  0
  2  3  2  0
  2  4  2  0
  2  5  1  0
  5  6  1  0
  6  7  2  0
  7  8  1  0
  8  9  2  0
  9 10  1  0
 10 11  1  0
 11 12  2  0
 11 13  1  0
 13 14  1  0
 14 15  2  0
 15 16  1  0
 16 17  2  0
 17 18  1  0
 18 19  2  0
 19 20  1  0
 20 21  2  0
 20 22  1  0
 10 23  2  0
 23  6  1  0
 19 14  1  0
  1 24  1  0
  1 25  1  0
  1 26  1  0
  7 27  1  0
  8 28  1  0
  9 29  1  0
 13 30  1  0
 15 31  1  0
 16 32  1  0
 17 33  1  0
 18 34  1  0
 23 35  1  0
M  CHG  3   5  -1  20   1  22  -1
M  END
>  <UniqueID>  (31) 
29

>  <SMILES>  (31) 
CS(=O)(=O)[N-]c1cccc(C(=O)Nc2ccccc2[N+](=O)[O-])c1

>  <Energy>  (31) 
45.813406251748795

>  <Genealogy>  (31) 
CS(=O)(=O)[N-]c1cccc(C(=O)Nc2ccccc2[N+](=O)[O-])c1 (protonated)
CS(=O)(=O)[N-]c1cccc(C(=O)Nc2ccccc2[N+](=O)[O-])c1 (3D coordinates assigned)
CS(=O)(=O)[N-]c1cccc(C(=O)Nc2ccccc2[N+](=O)[O-])c1 (optimized conformer: 45.813406251748795 kcal/mol)

>  <smiles>  (31) 
CS(=O)(=O)Nc1cccc(C(=O)Nc2ccccc2[N+](=O)[O-])c1

>  <score_type>  (31) 
oracle

>  <origin>  (31) 
adg

>  <m_score__min__energy>  (31) 
-10.32

>  <m_primary>  (31) 
energy

$$$$
31:0
     RDKit          3D

 51 52  0  0  0  0  0  0  0  0999 V2000
   58.1120   27.1000   43.0930 C   0  0  0  0  0  0  0  0  0  0  0  0
   59.1900   27.7380   43.7680 O   0  0  0  0  0  0  0  0  0  0  0  0
   59.0750   28.3970   45.0010 C   0  0  0  0  0  0  0  0  0  0  0  0
   58.6110   27.7510   46.1610 C   0  0  0  0  0  0  0  0  0  0  0  0
   58.5160   28.4480   47.3670 C   0  0  0  0  0  0  0  0  0  0  0  0
   58.8790   29.8070   47.4370 C   0  0  0  0  0  0  0  0  0  0  0  0
   58.7810   30.5430   48.6290 O   0  0  0  0  0  0  0  0  0  0  0  0
   59.4200   30.1910   49.8510 C   0  0  0  0  0  0  0  0  0  0  0  0
   59.3450   30.4540   46.2770 C   0  0  0  0  0  0  0  0  0  0  0  0
   59.7340   31.8420   46.3280 N   0  0  0  0  0  0  0  0  0  0  0  0
   58.9210   32.8290   45.6010 C   0  0  0  0  0  0  0  0  0  0  0  0
   57.4720   32.3490   45.4800 C   0  0  0  0  0  0  0  0  0  0  0  0
   57.2220   31.7670   44.1620 N   0  0  0  0  0  0  0  0  0  0  0  0
   56.5170   30.5290   44.0130 C   0  0  0  0  0  0  0  0  0  0  0  0
   56.2760   29.9670   42.6500 C   0  0  0  0  0  0  0  0  0  0  0  0
   56.0880   29.9130   45.0270 O   0  0  0  0  0  0  0  0  0  0  0  0
   60.8610   32.2440   47.1420 C   0  0  0  0  0  0  0  0  0  0  0  0
   62.0330   31.4630   47.1650 C   0  0  0  0  0  0  0  0  0  0  0  0
   63.1200   31.8340   47.9590 C   0  0  0  0  0  0  0  0  0  0  0  0
   63.0550   32.9890   48.7450 C   0  0  0  0  0  0  0  0  0  0  0  0
   64.4180   33.4570   49.7440 S   0  0  0  0  0  0  0  0  0  0  0  0
   65.4080   32.0570   50.2150 C   0  0  0  0  0  0  0  0  0  0  0  0
   63.9150   34.3420   51.0820 O   0  0  0  0  0  0  0  0  0  0  0  0
   61.8980   33.7740   48.7320 C   0  0  0  0  0  0  0  0  0  0  0  0
   60.8070   33.4060   47.9370 C   0  0  0  0  0  0  0  0  0  0  0  0
   59.4370   29.7460   45.0700 C   0  0  0  0  0  0  0  0  0  0  0  0
   57.4108   26.6850   43.8320 H   0  0  0  0  0  0  0  0  0  0  0  0
   57.5885   27.8338   42.4626 H   0  0  0  0  0  0  0  0  0  0  0  0
   58.5033   26.2880   42.4626 H   0  0  0  0  0  0  0  0  0  0  0  0
   58.3213   26.6907   46.1178 H   0  0  0  0  0  0  0  0  0  0  0  0
   58.1551   27.9320   48.2689 H   0  0  0  0  0  0  0  0  0  0  0  0
   58.8047   30.5300   50.6974 H   0  0  0  0  0  0  0  0  0  0  0  0
   59.5413   29.0988   49.9000 H   0  0  0  0  0  0  0  0  0  0  0  0
   60.4080   30.6722   49.9000 H   0  0  0  0  0  0  0  0  0  0  0  0
   58.9410   33.7849   46.1449 H   0  0  0  0  0  0  0  0  0  0  0  0
   59.3378   32.9572   44.5911 H   0  0  0  0  0  0  0  0  0  0  0  0
   57.2790   31.5890   46.2515 H   0  0  0  0  0  0  0  0  0  0  0  0
   56.8040   33.2125   45.6147 H   0  0  0  0  0  0  0  0  0  0  0  0
   57.5600   32.2560   43.3010 H   0  0  0  0  0  0  0  0  0  0  0  0
   55.8439   28.9594   42.7400 H   0  0  0  0  0  0  0  0  0  0  0  0
   55.5779   30.6178   42.1032 H   0  0  0  0  0  0  0  0  0  0  0  0
   57.2288   29.9099   42.1032 H   0  0  0  0  0  0  0  0  0  0  0  0
   62.0925   30.5519   46.5515 H   0  0  0  0  0  0  0  0  0  0  0  0
   64.0300   31.2161   47.9663 H   0  0  0  0  0  0  0  0  0  0  0  0
   65.4535   31.9926   51.3122 H   0  0  0  0  0  0  0  0  0  0  0  0
   64.9581   31.1376   49.8121 H   0  0  0  0  0  0  0  0  0  0  0  0
   66.4248   32.1747   49.8121 H   0  0  0  0  0  0  0  0  0  0  0  0
   64.6550   34.9770   51.2600 H   0  0  0  0  0  0  0  0  0  0  0  0
   61.8453   34.6835   49.3485 H   0  0  0  0  0  0  0  0  0  0  0  0
   59.9002   34.0286   47.9326 H   0  0  0  0  0  0  0  0  0  0  0  0
   59.7985   30.2582   44.1661 H   0  0  0  0  0  0  0  0  0  0  0  0
  1  2  1  0
  2  3  1  0
  3  4  2  0
  4  5  1  0
  5  6  2  0
  6  7  1  0
  7  8  1  0
  6  9  1  0
  9 10  1  0
 10 11  1  0
 11 12  1  0
 12 13  1  0
 13 14  1  0
 14 15  1  0
 14 16  2  0
 10 17  1  0
 17 18  2  0
 18 19  1  0
 19 20  2  0
 20 21  1  0
 21 22  1  0
 21 23  1  1
 20 24  1  0
 24 25  2  0
  9 26  2  0
 26  3  1  0
 25 17  1  0
  1 27  1  0
  1 28  1  0
  1 29  1  0
  4 30  1  0
  5 31  1  0
  8 32  1  0
  8 33  1  0
  8 34  1  0
 11 35  1  0
 11 36  1  0
 12 37  1  0
 12 38  1  0
 13 39  1  0
 15 40  1  0
 15 41  1  0
 15 42  1  0
 18 43  1  0
 19 44  1  0
 22 45  1  0
 22 46  1  0
 22 47  1  0
 23 48  1  0
 24 49  1  0
 25 50  1  0
 26 51  1  0
M  CHG  1  21   1
M  END
>  <UniqueID>  (32) 
30

>  <SMILES>  (32) 
COc1ccc(OC)c(N(CCNC(C)=O)c2ccc([S@+](C)O)cc2)c1

>  <Energy>  (32) 
47.11756937461388

>  <Genealogy>  (32) 
COc1ccc(OC)c(N(CCNC(C)=O)c2ccc([S+](C)O)cc2)c1 (protonated)
COc1ccc(OC)c(N(CCNC(C)=O)c2ccc([S@+](C)O)cc2)c1 (chirality)
COc1ccc(OC)c(N(CCNC(C)=O)c2ccc([S@+](C)O)cc2)c1 (3D coordinates assigned)
COc1ccc(OC)c(N(CCNC(C)=O)c2ccc([S@+](C)O)cc2)c1 (optimized conformer: 47.11756937461388 kcal/mol)

>  <smiles>  (32) 
COc1ccc(OC)c(N(CCNC(C)=O)c2ccc([S+](C)[O-])cc2)c1

>  <score_type>  (32) 
oracle

>  <origin>  (32) 
adg

>  <m_score__min__energy>  (32) 
-5.7699999999999996

>  <m_primary>  (32) 
energy

$$$$
32:0
     RDKit          3D

 69 77  0  0  0  0  0  0  0  0999 V2000
   56.4130   29.2280   45.1710 O   0  0  0  0  0  0  0  0  0  0  0  0
   57.6330   29.5410   45.1930 C   0  0  0  0  0  0  0  0  0  0  0  0
   58.0390   30.7480   44.5220 N   0  0  0  0  0  0  0  0  0  0  0  0
   58.1220   32.0470   45.1170 C   0  0  0  0  0  0  0  0  0  0  0  0
   57.7660   32.2310   46.4620 C   0  0  0  0  0  0  0  0  0  0  0  0
   57.8410   33.5000   47.0430 C   0  0  0  0  0  0  0  0  0  0  0  0
   58.2280   34.5990   46.2720 C   0  0  0  0  0  0  0  0  0  0  0  0
   58.5230   34.4320   44.9140 C   0  0  0  0  0  0  0  0  0  0  0  0
   58.4510   33.1610   44.3340 C   0  0  0  0  0  0  0  0  0  0  0  0
   58.6230   28.5760   45.8350 C   0  0  2  0  0  0  0  0  0  0  0  0
   57.9590   27.2840   46.2510 C   0  0  0  0  0  0  0  0  0  0  0  0
   57.0000   26.6670   45.4100 C   0  0  0  0  0  0  0  0  0  0  0  0
   56.3570   25.5240   45.8720 C   0  0  0  0  0  0  0  0  0  0  0  0
   55.3570   24.8520   45.2780 N   0  0  0  0  0  0  0  0  0  0  0  0
   55.0280   23.8530   46.1260 C   0  0  0  0  0  0  0  0  0  0  0  0
   55.8300   23.8870   47.2630 C   0  0  0  0  0  0  0  0  0  0  0  0
   56.6660   24.9660   47.0790 C   0  0  0  0  0  0  0  0  0  0  0  0
   57.6770   25.4770   47.8850 C   0  0  0  0  0  0  0  0  0  0  0  0
   58.3620   26.6340   47.4440 C   0  0  0  0  0  0  0  0  0  0  0  0
   59.5580   27.1120   48.1680 C   0  0  0  0  0  0  0  0  0  0  0  0
   60.0920   26.3430   49.0160 O   0  0  0  0  0  0  0  0  0  0  0  0
   60.2370   28.3410   47.7900 N   0  0  2  0  0  0  0  0  0  0  0  0
   60.8780   28.9950   48.9840 C   0  0  2  0  0  0  0  0  0  0  0  0
   59.9160   29.2460   50.1500 C   0  0  0  0  0  0  0  0  0  0  0  0
   58.8150   30.1430   50.0370 C   0  0  0  0  0  0  0  0  0  0  0  0
   57.9270   30.3350   51.1080 C   0  0  0  0  0  0  0  0  0  0  0  0
   58.1620   29.6300   52.2800 C   0  0  0  0  0  0  0  0  0  0  0  0
   59.2170   28.7900   52.4120 C   0  0  0  0  0  0  0  0  0  0  0  0
   60.1280   28.5810   51.3820 C   0  0  0  0  0  0  0  0  0  0  0  0
   59.2040   28.2290   53.6750 O   0  0  0  0  0  0  0  0  0  0  0  0
   58.0550   28.7350   54.3710 C   0  0  0  0  0  0  0  0  0  0  0  0
   57.4310   29.6410   53.4500 O   0  0  0  0  0  0  0  0  0  0  0  0
   61.5440   30.2750   48.5800 C   0  0  0  0  0  0  0  0  0  0  0  0
   62.4860   30.9410   49.2860 N   0  0  0  0  0  0  0  0  0  0  0  0
   62.7290   32.0630   48.5800 C   0  0  0  0  0  0  0  0  0  0  0  0
   63.6360   33.0770   48.8860 C   0  0  0  0  0  0  0  0  0  0  0  0
   63.7350   34.1620   47.9960 C   0  0  0  0  0  0  0  0  0  0  0  0
   62.9340   34.2110   46.8330 C   0  0  0  0  0  0  0  0  0  0  0  0
   62.0230   33.1760   46.5500 C   0  0  0  0  0  0  0  0  0  0  0  0
   61.9460   32.1160   47.4500 C   0  0  0  0  0  0  0  0  0  0  0  0
   61.1690   30.9790   47.4590 C   0  0  0  0  0  0  0  0  0  0  0  0
   60.1810   30.4860   46.4580 C   0  0  0  0  0  0  0  0  0  0  0  0
   59.3610   29.2790   47.0150 C   0  0  1  0  0  0  0  0  0  0  0  0
   57.4266   31.3732   47.0612 H   0  0  0  0  0  0  0  0  0  0  0  0
   57.5954   33.6334   48.1069 H   0  0  0  0  0  0  0  0  0  0  0  0
   58.3009   35.5954   46.7322 H   0  0  0  0  0  0  0  0  0  0  0  0
   58.8114   35.3000   44.3029 H   0  0  0  0  0  0  0  0  0  0  0  0
   58.6533   33.0360   43.2600 H   0  0  0  0  0  0  0  0  0  0  0  0
   59.3779   28.2953   45.0858 H   0  0  0  0  0  0  0  0  0  0  0  0
   56.7701   27.0815   44.4173 H   0  0  0  0  0  0  0  0  0  0  0  0
   54.9090   25.0680   44.3610 H   0  0  0  0  0  0  0  0  0  0  0  0
   54.2345   23.1136   45.9428 H   0  0  0  0  0  0  0  0  0  0  0  0
   55.8022   23.2008   48.1223 H   0  0  0  0  0  0  0  0  0  0  0  0
   57.9372   24.9953   48.8391 H   0  0  0  0  0  0  0  0  0  0  0  0
   61.0110   28.0460   47.1480 H   0  0  0  0  0  0  0  0  0  0  0  0
   61.6260   28.2788   49.3549 H   0  0  0  0  0  0  0  0  0  0  0  0
   58.6581   30.6931   49.0974 H   0  0  0  0  0  0  0  0  0  0  0  0
   57.0725   31.0222   51.0206 H   0  0  0  0  0  0  0  0  0  0  0  0
   60.9924   27.9151   51.5211 H   0  0  0  0  0  0  0  0  0  0  0  0
   57.3691   27.9155   54.6315 H   0  0  0  0  0  0  0  0  0  0  0  0
   58.3287   29.2293   55.3148 H   0  0  0  0  0  0  0  0  0  0  0  0
   62.9250   30.6510   50.1890 H   0  0  0  0  0  0  0  0  0  0  0  0
   64.2545   33.0300   49.7945 H   0  0  0  0  0  0  0  0  0  0  0  0
   64.4413   34.9784   48.2071 H   0  0  0  0  0  0  0  0  0  0  0  0
   63.0230   35.0639   46.1440 H   0  0  0  0  0  0  0  0  0  0  0  0
   61.3932   33.2035   45.6485 H   0  0  0  0  0  0  0  0  0  0  0  0
   59.4890   31.3029   46.2055 H   0  0  0  0  0  0  0  0  0  0  0  0
   60.7297   30.1501   45.5657 H   0  0  0  0  0  0  0  0  0  0  0  0
   58.6033   29.6408   47.7256 H   0  0  0  0  0  0  0  0  0  0  0  0
  1  2  2  0
  2  3  1  0
  3  4  1  0
  4  5  2  0
  5  6  1  0
  6  7  2  0
  7  8  1  0
  8  9  2  0
  2 10  1  0
 10 11  1  0
 11 12  2  0
 12 13  1  0
 13 14  1  0
 14 15  1  0
 15 16  2  0
 16 17  1  0
 17 18  1  0
 18 19  2  0
 19 20  1  0
 20 21  2  0
 20 22  1  0
 22 23  1  0
 23 24  1  0
 24 25  2  0
 25 26  1  0
 26 27  2  0
 27 28  1  0
 28 29  2  0
 28 30  1  0
 30 31  1  0
 31 32  1  0
 23 33  1  0
 33 34  1  0
 34 35  1  0
 35 36  2  0
 36 37  1  0
 37 38  2  0
 38 39  1  0
 39 40  2  0
 40 41  1  0
 41 42  1  0
 42 43  1  0
  9  4  1  0
 43 10  1  0
 19 11  1  0
 43 22  1  0
 17 13  2  0
 29 24  1  0
 41 33  2  0
 32 27  1  0
 40 35  1  0
  5 44  1  0
  6 45  1  0
  7 46  1  0
  8 47  1  0
  9 48  1  0
 10 49  1  6
 12 50  1  0
 14 51  1  0
 15 52  1  0
 16 53  1  0
 18 54  1  0
 22 55  1  6
 23 56  1  1
 25 57  1  0
 26 58  1  0
 29 59  1  0
 31 60  1  0
 31 61  1  0
 34 62  1  0
 36 63  1  0
 37 64  1  0
 38 65  1  0
 39 66  1  0
 42 67  1  0
 42 68  1  0
 43 69  1  1
M  CHG  2   3  -1  22   1
M  END
>  <UniqueID>  (33) 
31

>  <SMILES>  (33) 
O=C([N-]c1ccccc1)[C@@H]1c2cc3[nH]ccc3cc2C(=O)[N@@H+]2C(c3ccc4c(c3)OCO4)c3[nH]c4ccccc4c3CC12

>  <Energy>  (33) 
200.99312969955258

>  <Genealogy>  (33) 
O=C([N-]c1ccccc1)C1c2cc3[nH]ccc3cc2C(=O)[NH+]2C(c3ccc4c(c3)OCO4)c3[nH]c4ccccc4c3CC12 (protonated)
O=C([N-]c1ccccc1)[C@@H]1c2cc3[nH]ccc3cc2C(=O)[N@@H+]2C(c3ccc4c(c3)OCO4)c3[nH]c4ccccc4c3CC12 (chirality)
O=C([N-]c1ccccc1)[C@@H]1c2cc3[nH]ccc3cc2C(=O)[N@@H+]2C(c3ccc4c(c3)OCO4)c3[nH]c4ccccc4c3CC12 (3D coordinates assigned)
O=C([N-]c1ccccc1)[C@@H]1c2cc3[nH]ccc3cc2C(=O)[N@@H+]2C(c3ccc4c(c3)OCO4)c3[nH]c4ccccc4c3CC12 (nonaromatic ring conformer: 200.99312969955258 kcal/mol)

>  <smiles>  (33) 
O=C(Nc1ccccc1)C1c2cc3[nH]ccc3cc2C(=O)N2C(c3ccc4c(c3)OCO4)c3[nH]c4ccccc4c3CC12

>  <score_type>  (33) 
oracle

>  <origin>  (33) 
adg

>  <m_score__min__energy>  (33) 
-10.279999999999999

>  <m_primary>  (33) 
energy

$$$$
33:0
     RDKit          3D

 59 62  0  0  0  0  0  0  0  0999 V2000
   58.0700   34.6810   44.8030 C   0  0  0  0  0  0  0  0  0  0  0  0
   58.5110   34.0380   46.0850 C   0  0  0  0  0  0  0  0  0  0  0  0
   58.8890   34.8260   47.1790 C   0  0  0  0  0  0  0  0  0  0  0  0
   59.2810   34.2290   48.3770 C   0  0  0  0  0  0  0  0  0  0  0  0
   59.2800   32.8270   48.5100 C   0  0  0  0  0  0  0  0  0  0  0  0
   59.6620   32.1910   49.7040 O   0  0  0  0  0  0  0  0  0  0  0  0
   61.0020   32.0410   50.1730 C   0  0  0  0  0  0  0  0  0  0  0  0
   61.9830   32.3620   49.0770 C   0  0  0  0  0  0  0  0  0  0  0  0
   62.5670   33.6370   48.9890 C   0  0  0  0  0  0  0  0  0  0  0  0
   63.4820   33.9220   47.9710 C   0  0  0  0  0  0  0  0  0  0  0  0
   63.8260   32.9370   47.0410 C   0  0  0  0  0  0  0  0  0  0  0  0
   63.2570   31.6640   47.1270 C   0  0  0  0  0  0  0  0  0  0  0  0
   62.3410   31.3750   48.1440 C   0  0  0  0  0  0  0  0  0  0  0  0
   58.8720   32.0290   47.4230 C   0  0  0  0  0  0  0  0  0  0  0  0
   58.9260   30.5950   47.5360 N   0  0  0  0  0  0  0  0  0  0  0  0
   58.3660   29.6900   46.5690 C   0  0  0  0  0  0  0  0  0  0  0  0
   57.4650   30.0890   45.7830 O   0  0  0  0  0  0  0  0  0  0  0  0
   58.7990   28.2730   46.5310 C   0  0  0  0  0  0  0  0  0  0  0  0
   60.1620   27.9420   46.6070 C   0  0  0  0  0  0  0  0  0  0  0  0
   60.5700   26.6060   46.5310 C   0  0  0  0  0  0  0  0  0  0  0  0
   59.6230   25.5900   46.3830 C   0  0  0  0  0  0  0  0  0  0  0  0
   58.2590   25.9020   46.3300 C   0  0  0  0  0  0  0  0  0  0  0  0
   57.0590   24.6260   46.1200 S   0  0  0  0  0  0  0  0  0  0  0  0
   57.3220   23.5380   47.1250 O   0  0  0  0  0  0  0  0  0  0  0  0
   55.6840   25.1820   46.3680 O   0  0  0  0  0  0  0  0  0  0  0  0
   57.1580   23.9670   44.5040 N   0  0  0  0  0  0  0  0  0  0  0  0
   55.8220   23.9550   43.8780 C   0  0  0  0  0  0  0  0  0  0  0  0
   55.7790   22.9550   42.7110 C   0  0  0  0  0  0  0  0  0  0  0  0
   56.0610   21.6110   43.0860 O   0  0  0  0  0  0  0  0  0  0  0  0
   56.7870   21.4950   44.3010 C   0  0  0  0  0  0  0  0  0  0  0  0
   57.8020   22.6330   44.5110 C   0  0  0  0  0  0  0  0  0  0  0  0
   57.8510   27.2410   46.4110 C   0  0  0  0  0  0  0  0  0  0  0  0
   58.4950   32.6420   46.2140 C   0  0  0  0  0  0  0  0  0  0  0  0
   57.4611   35.5689   45.0286 H   0  0  0  0  0  0  0  0  0  0  0  0
   58.9535   34.9808   44.2203 H   0  0  0  0  0  0  0  0  0  0  0  0
   57.4721   33.9648   44.2203 H   0  0  0  0  0  0  0  0  0  0  0  0
   58.8767   35.9226   47.0931 H   0  0  0  0  0  0  0  0  0  0  0  0
   59.5931   34.8577   49.2239 H   0  0  0  0  0  0  0  0  0  0  0  0
   61.1681   32.7241   51.0190 H   0  0  0  0  0  0  0  0  0  0  0  0
   61.1529   30.9991   50.4918 H   0  0  0  0  0  0  0  0  0  0  0  0
   62.3036   34.4129   49.7229 H   0  0  0  0  0  0  0  0  0  0  0  0
   63.9320   34.9234   47.9019 H   0  0  0  0  0  0  0  0  0  0  0  0
   64.5455   33.1643   46.2406 H   0  0  0  0  0  0  0  0  0  0  0  0
   63.5292   30.8891   46.3952 H   0  0  0  0  0  0  0  0  0  0  0  0
   61.8990   30.3701   48.2134 H   0  0  0  0  0  0  0  0  0  0  0  0
   59.3260   30.1850   48.4100 H   0  0  0  0  0  0  0  0  0  0  0  0
   60.9124   28.7373   46.7269 H   0  0  0  0  0  0  0  0  0  0  0  0
   61.6395   26.3550   46.5879 H   0  0  0  0  0  0  0  0  0  0  0  0
   59.9495   24.5423   46.3079 H   0  0  0  0  0  0  0  0  0  0  0  0
   55.0733   23.6652   44.6299 H   0  0  0  0  0  0  0  0  0  0  0  0
   55.6034   24.9610   43.4906 H   0  0  0  0  0  0  0  0  0  0  0  0
   54.7732   22.9858   42.2667 H   0  0  0  0  0  0  0  0  0  0  0  0
   56.5654   23.2586   42.0043 H   0  0  0  0  0  0  0  0  0  0  0  0
   56.0727   21.5046   45.1375 H   0  0  0  0  0  0  0  0  0  0  0  0
   57.3552   20.5543   44.2541 H   0  0  0  0  0  0  0  0  0  0  0  0
   58.3026   22.4866   45.4795 H   0  0  0  0  0  0  0  0  0  0  0  0
   58.5210   22.6013   43.6791 H   0  0  0  0  0  0  0  0  0  0  0  0
   56.7792   27.4867   46.3804 H   0  0  0  0  0  0  0  0  0  0  0  0
   58.1846   32.0199   45.3616 H   0  0  0  0  0  0  0  0  0  0  0  0
  1  2  1  0
  2  3  2  0
  3  4  1  0
  4  5  2  0
  5  6  1  0
  6  7  1  0
  7  8  1  0
  8  9  2  0
  9 10  1  0
 10 11  2  0
 11 12  1  0
 12 13  2  0
  5 14  1  0
 14 15  1  0
 15 16  1  0
 16 17  2  0
 16 18  1  0
 18 19  2  0
 19 20  1  0
 20 21  2  0
 21 22  1  0
 22 23  1  0
 23 24  2  0
 23 25  2  0
 23 26  1  0
 26 27  1  0
 27 28  1  0
 28 29  1  0
 29 30  1  0
 30 31  1  0
 22 32  2  0
 14 33  2  0
 33  2  1  0
 13  8  1  0
 32 18  1  0
 31 26  1  0
  1 34  1  0
  1 35  1  0
  1 36  1  0
  3 37  1  0
  4 38  1  0
  7 39  1  0
  7 40  1  0
  9 41  1  0
 10 42  1  0
 11 43  1  0
 12 44  1  0
 13 45  1  0
 15 46  1  0
 19 47  1  0
 20 48  1  0
 21 49  1  0
 27 50  1  0
 27 51  1  0
 28 52  1  0
 28 53  1  0
 30 54  1  0
 30 55  1  0
 31 56  1  0
 31 57  1  0
 32 58  1  0
 33 59  1  0
M  END
>  <UniqueID>  (34) 
32

>  <SMILES>  (34) 
Cc1ccc(OCc2ccccc2)c(NC(=O)c2cccc(S(=O)(=O)N3CCOCC3)c2)c1

>  <Energy>  (34) 
78.79639916739697

>  <Genealogy>  (34) 
Cc1ccc(OCc2ccccc2)c(NC(=O)c2cccc(S(=O)(=O)N3CCOCC3)c2)c1 (3D coordinates assigned)
Cc1ccc(OCc2ccccc2)c(NC(=O)c2cccc(S(=O)(=O)N3CCOCC3)c2)c1 (nonaromatic ring conformer: 78.79639916739697 kcal/mol)

>  <smiles>  (34) 
Cc1ccc(OCc2ccccc2)c(NC(=O)c2cccc(S(=O)(=O)N3CCOCC3)c2)c1

>  <score_type>  (34) 
oracle

>  <origin>  (34) 
adg

>  <m_score__min__energy>  (34) 
-10.26

>  <m_primary>  (34) 
energy

$$$$
34:0
     RDKit          3D

 49 52  0  0  0  0  0  0  0  0999 V2000
   60.2190   34.5330   49.2940 C   0  0  0  0  0  0  0  0  0  0  0  0
   60.0220   33.4070   48.3210 C   0  0  0  0  0  0  0  0  0  0  0  0
   60.4900   32.1260   48.6240 C   0  0  0  0  0  0  0  0  0  0  0  0
   60.3370   31.0890   47.7070 C   0  0  0  0  0  0  0  0  0  0  0  0
   59.7240   31.3110   46.4600 C   0  0  0  0  0  0  0  0  0  0  0  0
   59.2660   32.6110   46.1320 C   0  0  0  0  0  0  0  0  0  0  0  0
   59.4330   33.6470   47.0730 C   0  0  0  0  0  0  0  0  0  0  0  0
   58.7110   32.9570   44.7900 C   0  0  0  0  0  0  0  0  0  0  0  0
   58.8440   34.1450   44.3840 O   0  0  0  0  0  0  0  0  0  0  0  0
   58.0300   32.0090   43.9390 N   0  0  0  0  0  0  0  0  0  0  0  0
   57.7730   32.3740   42.5420 C   0  0  0  0  0  0  0  0  0  0  0  0
   57.4300   30.8070   44.4600 C   0  0  0  0  0  0  0  0  0  0  0  0
   56.1090   30.4620   44.1440 C   0  0  0  0  0  0  0  0  0  0  0  0
   55.6020   29.2690   44.5480 N   0  0  0  0  0  0  0  0  0  0  0  0
   56.3540   28.3890   45.2620 C   0  0  0  0  0  0  0  0  0  0  0  0
   55.8810   27.2330   45.6270 N   0  0  0  0  0  0  0  0  0  0  0  0
   56.5560   25.9660   45.5670 C   0  0  0  0  0  0  0  0  0  0  0  0
   56.2040   24.9710   46.4880 C   0  0  0  0  0  0  0  0  0  0  0  0
   56.8120   23.7150   46.4440 C   0  0  0  0  0  0  0  0  0  0  0  0
   57.7740   23.4310   45.4640 C   0  0  0  0  0  0  0  0  0  0  0  0
   58.5290   21.8430   45.3940 S   0  0  0  0  0  0  0  0  0  0  0  0
   58.1470   21.0900   43.8850 N   0  0  0  0  0  0  0  0  0  0  0  0
   58.0250   20.9880   46.5230 O   0  0  0  0  0  0  0  0  0  0  0  0
   60.0200   21.9840   45.5250 O   0  0  0  0  0  0  0  0  0  0  0  0
   58.1020   24.4080   44.5150 C   0  0  0  0  0  0  0  0  0  0  0  0
   57.4930   25.6660   44.5590 C   0  0  0  0  0  0  0  0  0  0  0  0
   57.6400   28.7040   45.5670 N   0  0  0  0  0  0  0  0  0  0  0  0
   58.1870   29.8920   45.1920 C   0  0  0  0  0  0  0  0  0  0  0  0
   59.5290   30.2050   45.5640 N   0  0  0  0  0  0  0  0  0  0  0  0
   60.5690   29.1900   45.3900 C   0  0  0  0  0  0  0  0  0  0  0  0
   60.1513   34.1459   50.3214 H   0  0  0  0  0  0  0  0  0  0  0  0
   61.2098   34.9843   49.1368 H   0  0  0  0  0  0  0  0  0  0  0  0
   59.4403   35.2939   49.1368 H   0  0  0  0  0  0  0  0  0  0  0  0
   60.9809   31.9358   49.5899 H   0  0  0  0  0  0  0  0  0  0  0  0
   60.7004   30.0823   47.9611 H   0  0  0  0  0  0  0  0  0  0  0  0
   59.0944   34.6632   46.8226 H   0  0  0  0  0  0  0  0  0  0  0  0
   57.1400   33.2730   42.5084 H   0  0  0  0  0  0  0  0  0  0  0  0
   58.7275   32.5785   42.0349 H   0  0  0  0  0  0  0  0  0  0  0  0
   57.2587   31.5443   42.0349 H   0  0  0  0  0  0  0  0  0  0  0  0
   55.4821   31.1586   43.5680 H   0  0  0  0  0  0  0  0  0  0  0  0
   55.4417   25.1811   47.2527 H   0  0  0  0  0  0  0  0  0  0  0  0
   56.5356   22.9459   47.1803 H   0  0  0  0  0  0  0  0  0  0  0  0
   57.6960   20.1750   44.1070 H   0  0  0  0  0  0  0  0  0  0  0  0
   59.0530   20.8750   43.4130 H   0  0  0  0  0  0  0  0  0  0  0  0
   58.8416   24.1846   43.7320 H   0  0  0  0  0  0  0  0  0  0  0  0
   57.7466   26.4242   43.8035 H   0  0  0  0  0  0  0  0  0  0  0  0
   60.9178   28.8496   46.3761 H   0  0  0  0  0  0  0  0  0  0  0  0
   60.1581   28.3360   44.8315 H   0  0  0  0  0  0  0  0  0  0  0  0
   61.4127   29.6215   44.8315 H   0  0  0  0  0  0  0  0  0  0  0  0
  1  2  1  0
  2  3  2  0
  3  4  1  0
  4  5  2  0
  5  6  1  0
  6  7  2  0
  6  8  1  0
  8  9  2  0
  8 10  1  0
 10 11  1  0
 10 12  1  0
 12 13  2  0
 13 14  1  0
 14 15  1  0
 15 16  2  3
 16 17  1  0
 17 18  2  0
 18 19  1  0
 19 20  2  0
 20 21  1  0
 21 22  1  0
 21 23  2  0
 21 24  2  0
 20 25  1  0
 25 26  2  0
 15 27  1  0
 27 28  2  0
 28 29  1  0
 29 30  1  0
  7  2  1  0
 28 12  1  0
 29  5  1  0
 26 17  1  0
  1 31  1  0
  1 32  1  0
  1 33  1  0
  3 34  1  0
  4 35  1  0
  7 36  1  0
 11 37  1  0
 11 38  1  0
 11 39  1  0
 13 40  1  0
 18 41  1  0
 19 42  1  0
 22 43  1  0
 22 44  1  0
 25 45  1  0
 26 46  1  0
 30 47  1  0
 30 48  1  0
 30 49  1  0
M  CHG  1  14  -1
M  END
>  <UniqueID>  (35) 
33

>  <SMILES>  (35) 
Cc1ccc2c(c1)C(=O)N(C)c1c[n-]c(=Nc3ccc(S(N)(=O)=O)cc3)nc1N2C

>  <Energy>  (35) 
80.6043973443006

>  <Genealogy>  (35) 
Cc1ccc2c(c1)C(=O)N(C)c1c[n-]c(=Nc3ccc(S(N)(=O)=O)cc3)nc1N2C (protonated)
Cc1ccc2c(c1)C(=O)N(C)c1c[n-]c(=Nc3ccc(S(N)(=O)=O)cc3)nc1N2C (3D coordinates assigned)
Cc1ccc2c(c1)C(=O)N(C)c1c[n-]c(=Nc3ccc(S(N)(=O)=O)cc3)nc1N2C (nonaromatic ring conformer: 80.6043973443006 kcal/mol)

>  <smiles>  (35) 
Cc1ccc2c(c1)C(=O)N(C)c1c[nH]c(=Nc3ccc(S(N)(=O)=O)cc3)nc1N2C

>  <score_type>  (35) 
oracle

>  <origin>  (35) 
adg

>  <m_score__min__energy>  (35) 
-11.869999999999999

>  <m_primary>  (35) 
energy

$$$$
35:0
     RDKit          3D

 45 47  0  0  0  0  0  0  0  0999 V2000
   57.4250   34.5990   44.9060 C   0  0  0  0  0  0  0  0  0  0  0  0
   58.0590   33.7990   45.9970 C   0  0  0  0  0  0  0  0  0  0  0  0
   58.5000   34.3180   47.1620 N   0  0  0  0  0  0  0  0  0  0  0  0
   59.0620   33.3510   47.8720 N   0  0  0  0  0  0  0  0  0  0  0  0
   59.7050   33.5480   49.1670 C   0  0  0  0  0  0  0  0  0  0  0  0
   59.0060   32.2080   47.1620 C   0  0  0  0  0  0  0  0  0  0  0  0
   59.5800   30.9590   47.5660 N   0  0  0  0  0  0  0  0  0  0  0  0
   60.6110   30.3150   46.7540 C   0  0  0  0  0  0  0  0  0  0  0  0
   60.4410   28.7950   46.8460 C   0  0  0  0  0  0  0  0  0  0  0  0
   60.4000   28.3760   48.1990 O   0  0  0  0  0  0  0  0  0  0  0  0
   59.2470   28.9030   48.8320 C   0  0  0  0  0  0  0  0  0  0  0  0
   59.3190   30.4300   48.9040 C   0  0  0  0  0  0  0  0  0  0  0  0
   58.3850   32.4510   45.9510 C   0  0  0  0  0  0  0  0  0  0  0  0
   58.1520   31.4780   44.8380 C   0  0  0  0  0  0  0  0  0  0  0  0
   56.7710   31.0160   44.8780 N   0  0  0  0  0  0  0  0  0  0  0  0
   56.3480   29.6770   44.5910 C   0  0  0  0  0  0  0  0  0  0  0  0
   55.1690   29.3410   44.8750 O   0  0  0  0  0  0  0  0  0  0  0  0
   57.2550   28.6690   43.9400 C   0  0  0  0  0  0  0  0  0  0  0  0
   57.5780   27.5650   44.9040 C   0  0  0  0  0  0  0  0  0  0  0  0
   58.1180   26.3320   44.5050 C   0  0  0  0  0  0  0  0  0  0  0  0
   58.3600   25.4650   45.5610 C   0  0  0  0  0  0  0  0  0  0  0  0
   57.9120   26.2390   46.9850 S   0  0  0  0  0  0  0  0  0  0  0  0
   57.4020   27.6770   46.2800 C   0  0  0  0  0  0  0  0  0  0  0  0
   56.7990   35.3889   45.3468 H   0  0  0  0  0  0  0  0  0  0  0  0
   58.2085   35.0564   44.2840 H   0  0  0  0  0  0  0  0  0  0  0  0
   56.8007   33.9407   44.2840 H   0  0  0  0  0  0  0  0  0  0  0  0
   58.4360   35.3170   47.4580 H   0  0  0  0  0  0  0  0  0  0  0  0
   58.9866   33.3279   49.9704 H   0  0  0  0  0  0  0  0  0  0  0  0
   60.5697   32.8736   49.2534 H   0  0  0  0  0  0  0  0  0  0  0  0
   60.0435   34.5911   49.2534 H   0  0  0  0  0  0  0  0  0  0  0  0
   60.5088   30.6348   45.7065 H   0  0  0  0  0  0  0  0  0  0  0  0
   61.6071   30.6007   47.1230 H   0  0  0  0  0  0  0  0  0  0  0  0
   59.5026   28.5060   46.3500 H   0  0  0  0  0  0  0  0  0  0  0  0
   61.2979   28.3131   46.3526 H   0  0  0  0  0  0  0  0  0  0  0  0
   58.3549   28.6103   48.2588 H   0  0  0  0  0  0  0  0  0  0  0  0
   59.1917   28.5032   49.8553 H   0  0  0  0  0  0  0  0  0  0  0  0
   58.3634   30.8269   49.2773 H   0  0  0  0  0  0  0  0  0  0  0  0
   60.1271   30.7317   49.5866 H   0  0  0  0  0  0  0  0  0  0  0  0
   58.3461   31.9705   43.8738 H   0  0  0  0  0  0  0  0  0  0  0  0
   58.8294   30.6192   44.9540 H   0  0  0  0  0  0  0  0  0  0  0  0
   56.7537   28.2456   43.0572 H   0  0  0  0  0  0  0  0  0  0  0  0
   58.1882   29.1672   43.6385 H   0  0  0  0  0  0  0  0  0  0  0  0
   58.3290   26.0776   43.4558 H   0  0  0  0  0  0  0  0  0  0  0  0
   58.7729   24.4486   45.4806 H   0  0  0  0  0  0  0  0  0  0  0  0
   57.0002   28.5519   46.8121 H   0  0  0  0  0  0  0  0  0  0  0  0
  1  2  1  0
  2  3  2  0
  3  4  1  0
  4  5  1  0
  4  6  1  0
  6  7  1  0
  7  8  1  0
  8  9  1  0
  9 10  1  0
 10 11  1  0
 11 12  1  0
  6 13  2  0
 13 14  1  0
 14 15  1  0
 15 16  1  0
 16 17  2  0
 16 18  1  0
 18 19  1  0
 19 20  1  0
 20 21  2  0
 21 22  1  0
 22 23  1  0
 13  2  1  0
 23 19  2  0
 12  7  1  0
  1 24  1  0
  1 25  1  0
  1 26  1  0
  3 27  1  0
  5 28  1  0
  5 29  1  0
  5 30  1  0
  8 31  1  0
  8 32  1  0
  9 33  1  0
  9 34  1  0
 11 35  1  0
 11 36  1  0
 12 37  1  0
 12 38  1  0
 14 39  1  0
 14 40  1  0
 18 41  1  0
 18 42  1  0
 20 43  1  0
 21 44  1  0
 23 45  1  0
M  CHG  2   3   1  15  -1
M  END
>  <UniqueID>  (36) 
34

>  <SMILES>  (36) 
Cc1[nH+]n(C)c(N2CCOCC2)c1C[N-]C(=O)Cc1ccsc1

>  <Energy>  (36) 
101.20218916793651

>  <Genealogy>  (36) 
Cc1[nH+]n(C)c(N2CCOCC2)c1C[N-]C(=O)Cc1ccsc1 (protonated)
Cc1[nH+]n(C)c(N2CCOCC2)c1C[N-]C(=O)Cc1ccsc1 (3D coordinates assigned)
Cc1[nH+]n(C)c(N2CCOCC2)c1C[N-]C(=O)Cc1ccsc1 (nonaromatic ring conformer: 101.20218916793651 kcal/mol)

>  <smiles>  (36) 
Cc1nn(C)c(N2CCOCC2)c1CNC(=O)Cc1ccsc1

>  <score_type>  (36) 
oracle

>  <origin>  (36) 
adg

>  <m_score__min__energy>  (36) 
-7.2199999999999998

>  <m_primary>  (36) 
energy

$$$$
36:0
     RDKit          3D

 50 53  0  0  0  0  0  0  0  0999 V2000
   58.0610   19.8630   46.5730 N   0  0  0  0  0  0  0  0  0  0  0  0
   57.6880   20.7780   45.9690 C   0  0  0  0  0  0  0  0  0  0  0  0
   57.2130   21.9200   45.2280 C   0  0  0  0  0  0  0  0  0  0  0  0
   57.0800   21.8400   43.8360 C   0  0  0  0  0  0  0  0  0  0  0  0
   56.6470   22.9530   43.1040 C   0  0  0  0  0  0  0  0  0  0  0  0
   56.3340   24.1430   43.7610 C   0  0  0  0  0  0  0  0  0  0  0  0
   56.4380   24.2250   45.1600 C   0  0  0  0  0  0  0  0  0  0  0  0
   55.9220   25.7010   45.9700 S   0  0  0  0  0  0  0  0  0  0  0  0
   56.2940   25.6020   47.4260 O   0  0  0  0  0  0  0  0  0  0  0  0
   54.4300   25.8940   45.8500 O   0  0  0  0  0  0  0  0  0  0  0  0
   56.7350   27.0590   45.2490 N   0  0  0  0  0  0  0  0  0  0  0  0
   58.0820   27.4110   45.6050 C   0  0  0  0  0  0  0  0  0  0  0  0
   59.0120   26.4200   45.9730 C   0  0  0  0  0  0  0  0  0  0  0  0
   60.3050   26.7780   46.3730 C   0  0  0  0  0  0  0  0  0  0  0  0
   60.6860   28.1230   46.3970 C   0  0  0  0  0  0  0  0  0  0  0  0
   59.7710   29.1130   46.0280 C   0  0  0  0  0  0  0  0  0  0  0  0
   58.4680   28.7640   45.6440 C   0  0  0  0  0  0  0  0  0  0  0  0
   57.5410   29.7620   45.3310 O   0  0  0  0  0  0  0  0  0  0  0  0
   57.8530   31.1290   45.3200 C   0  0  0  0  0  0  0  0  0  0  0  0
   57.4930   31.8920   44.2010 C   0  0  0  0  0  0  0  0  0  0  0  0
   57.7620   33.2640   44.1670 C   0  0  0  0  0  0  0  0  0  0  0  0
   58.3710   33.8870   45.2580 C   0  0  0  0  0  0  0  0  0  0  0  0
   58.7120   33.1390   46.4000 C   0  0  0  0  0  0  0  0  0  0  0  0
   59.3090   33.7280   47.5230 O   0  0  0  0  0  0  0  0  0  0  0  0
   60.6890   33.7640   47.7850 C   0  0  0  0  0  0  0  0  0  0  0  0
   61.6430   33.3880   46.8200 C   0  0  0  0  0  0  0  0  0  0  0  0
   63.0040   33.4250   47.1320 C   0  0  0  0  0  0  0  0  0  0  0  0
   63.4260   33.8550   48.3940 C   0  0  0  0  0  0  0  0  0  0  0  0
   62.4870   34.2670   49.3380 C   0  0  0  0  0  0  0  0  0  0  0  0
   61.1220   34.2260   49.0340 C   0  0  0  0  0  0  0  0  0  0  0  0
   58.4830   31.7590   46.4110 C   0  0  0  0  0  0  0  0  0  0  0  0
   56.8860   23.1130   45.8930 C   0  0  0  0  0  0  0  0  0  0  0  0
   57.3164   20.9000   43.3159 H   0  0  0  0  0  0  0  0  0  0  0  0
   56.5537   22.8885   42.0099 H   0  0  0  0  0  0  0  0  0  0  0  0
   56.0051   25.0191   43.1828 H   0  0  0  0  0  0  0  0  0  0  0  0
   56.1480   27.7410   44.7100 H   0  0  0  0  0  0  0  0  0  0  0  0
   58.7213   25.3595   45.9461 H   0  0  0  0  0  0  0  0  0  0  0  0
   61.0230   25.9991   46.6692 H   0  0  0  0  0  0  0  0  0  0  0  0
   61.7043   28.4016   46.7058 H   0  0  0  0  0  0  0  0  0  0  0  0
   60.0741   30.1704   46.0388 H   0  0  0  0  0  0  0  0  0  0  0  0
   56.9968   31.4098   43.3459 H   0  0  0  0  0  0  0  0  0  0  0  0
   57.4931   33.8539   43.2783 H   0  0  0  0  0  0  0  0  0  0  0  0
   58.5848   34.9655   45.2247 H   0  0  0  0  0  0  0  0  0  0  0  0
   61.3165   33.0651   45.8204 H   0  0  0  0  0  0  0  0  0  0  0  0
   63.7467   33.1147   46.3822 H   0  0  0  0  0  0  0  0  0  0  0  0
   64.4977   33.8681   48.6414 H   0  0  0  0  0  0  0  0  0  0  0  0
   62.8196   34.6249   50.3235 H   0  0  0  0  0  0  0  0  0  0  0  0
   60.3851   34.5584   49.7800 H   0  0  0  0  0  0  0  0  0  0  0  0
   58.7976   31.1609   47.2789 H   0  0  0  0  0  0  0  0  0  0  0  0
   56.9805   23.1769   46.9871 H   0  0  0  0  0  0  0  0  0  0  0  0
  1  2  3  0
  2  3  1  0
  3  4  2  0
  4  5  1  0
  5  6  2  0
  6  7  1  0
  7  8  1  0
  8  9  2  0
  8 10  2  0
  8 11  1  0
 11 12  1  0
 12 13  2  0
 13 14  1  0
 14 15  2  0
 15 16  1  0
 16 17  2  0
 17 18  1  0
 18 19  1  0
 19 20  2  0
 20 21  1  0
 21 22  2  0
 22 23  1  0
 23 24  1  0
 24 25  1  0
 25 26  2  0
 26 27  1  0
 27 28  2  0
 28 29  1  0
 29 30  2  0
 23 31  2  0
  7 32  2  0
 32  3  1  0
 17 12  1  0
 31 19  1  0
 30 25  1  0
  4 33  1  0
  5 34  1  0
  6 35  1  0
 11 36  1  0
 13 37  1  0
 14 38  1  0
 15 39  1  0
 16 40  1  0
 20 41  1  0
 21 42  1  0
 22 43  1  0
 26 44  1  0
 27 45  1  0
 28 46  1  0
 29 47  1  0
 30 48  1  0
 31 49  1  0
 32 50  1  0
M  END
>  <UniqueID>  (37) 
35

>  <SMILES>  (37) 
N#Cc1cccc(S(=O)(=O)Nc2ccccc2Oc2cccc(Oc3ccccc3)c2)c1

>  <Energy>  (37) 
70.57069625851696

>  <Genealogy>  (37) 
N#Cc1cccc(S(=O)(=O)Nc2ccccc2Oc2cccc(Oc3ccccc3)c2)c1 (3D coordinates assigned)
N#Cc1cccc(S(=O)(=O)Nc2ccccc2Oc2cccc(Oc3ccccc3)c2)c1 (optimized conformer: 70.57069625851696 kcal/mol)

>  <smiles>  (37) 
N#Cc1cccc(S(=O)(=O)Nc2ccccc2Oc2cccc(Oc3ccccc3)c2)c1

>  <score_type>  (37) 
oracle

>  <origin>  (37) 
adg

>  <m_score__min__energy>  (37) 
-9.4499999999999993

>  <m_primary>  (37) 
energy

$$$$
37:0
     RDKit          3D

 32 34  0  0  0  0  0  0  0  0999 V2000
   55.1110   26.6920   45.9920 O   0  0  0  0  0  0  0  0  0  0  0  0
   56.1690   26.2220   46.4860 C   0  0  0  0  0  0  0  0  0  0  0  0
   56.1240   24.9870   47.1200 O   0  0  0  0  0  0  0  0  0  0  0  0
   57.4470   26.9680   46.4330 C   0  0  0  0  0  0  0  0  0  0  0  0
   57.3930   28.3190   46.5740 N   0  0  0  0  0  0  0  0  0  0  0  0
   58.4970   29.1080   46.5120 C   0  0  0  0  0  0  0  0  0  0  0  0
   58.3710   30.4950   46.6610 C   0  0  0  0  0  0  0  0  0  0  0  0
   59.5020   31.3120   46.6000 C   0  0  0  0  0  0  0  0  0  0  0  0
   60.7640   30.7480   46.3900 C   0  0  0  0  0  0  0  0  0  0  0  0
   60.9010   29.3650   46.2410 C   0  0  0  0  0  0  0  0  0  0  0  0
   59.7670   28.5320   46.2990 C   0  0  0  0  0  0  0  0  0  0  0  0
   59.8600   27.1360   46.1600 C   0  0  0  0  0  0  0  0  0  0  0  0
   60.9860   26.5860   46.0000 O   0  0  0  0  0  0  0  0  0  0  0  0
   58.6980   26.3420   46.2160 C   0  0  0  0  0  0  0  0  0  0  0  0
   58.8050   24.9130   46.1200 N   0  0  0  0  0  0  0  0  0  0  0  0
   58.0770   24.1220   45.1630 C   0  0  0  0  0  0  0  0  0  0  0  0
   57.4180   24.7590   44.1000 C   0  0  0  0  0  0  0  0  0  0  0  0
   56.7150   24.0110   43.1510 C   0  0  0  0  0  0  0  0  0  0  0  0
   56.6690   22.6180   43.2470 C   0  0  0  0  0  0  0  0  0  0  0  0
   55.9650   21.8850   42.2950 O   0  0  0  0  0  0  0  0  0  0  0  0
   57.3330   21.9710   44.2980 C   0  0  0  0  0  0  0  0  0  0  0  0
   58.0370   22.7170   45.2490 C   0  0  0  0  0  0  0  0  0  0  0  0
   57.3794   30.9416   46.8264 H   0  0  0  0  0  0  0  0  0  0  0  0
   59.3998   32.4009   46.7174 H   0  0  0  0  0  0  0  0  0  0  0  0
   61.6523   31.3950   46.3419 H   0  0  0  0  0  0  0  0  0  0  0  0
   61.8965   28.9264   46.0781 H   0  0  0  0  0  0  0  0  0  0  0  0
   59.4560   24.4300   46.7810 H   0  0  0  0  0  0  0  0  0  0  0  0
   57.4550   25.8549   44.0130 H   0  0  0  0  0  0  0  0  0  0  0  0
   56.1963   24.5210   42.3259 H   0  0  0  0  0  0  0  0  0  0  0  0
   55.9120   22.1850   41.3280 H   0  0  0  0  0  0  0  0  0  0  0  0
   57.3005   20.8742   44.3752 H   0  0  0  0  0  0  0  0  0  0  0  0
   58.5620   22.2036   46.0681 H   0  0  0  0  0  0  0  0  0  0  0  0
  1  2  2  0
  2  3  1  0
  2  4  1  0
  4  5  1  0
  5  6  1  0
  6  7  2  0
  7  8  1  0
  8  9  2  0
  9 10  1  0
 10 11  2  0
 11 12  1  0
 12 13  2  0
 12 14  1  0
 14 15  1  0
 15 16  1  0
 16 17  2  0
 17 18  1  0
 18 19  2  0
 19 20  1  0
 19 21  1  0
 21 22  2  0
 14  4  2  0
 22 16  1  0
 11  6  1  0
  7 23  1  0
  8 24  1  0
  9 25  1  0
 10 26  1  0
 15 27  1  0
 17 28  1  0
 18 29  1  0
 20 30  1  0
 21 31  1  0
 22 32  1  0
M  CHG  2   3  -1   5  -1
M  END
>  <UniqueID>  (38) 
36

>  <SMILES>  (38) 
O=C([O-])c1[n-]c2ccccc2c(=O)c1Nc1ccc(O)cc1

>  <Energy>  (38) 
48.54042477896737

>  <Genealogy>  (38) 
O=C([O-])c1[n-]c2ccccc2c(=O)c1Nc1ccc(O)cc1 (protonated)
O=C([O-])c1[n-]c2ccccc2c(=O)c1Nc1ccc(O)cc1 (3D coordinates assigned)
O=C([O-])c1[n-]c2ccccc2c(=O)c1Nc1ccc(O)cc1 (optimized conformer: 48.54042477896737 kcal/mol)

>  <smiles>  (38) 
O=C(O)c1[nH]c2ccccc2c(=O)c1Nc1ccc(O)cc1

>  <score_type>  (38) 
oracle

>  <origin>  (38) 
adg

>  <m_score__min__energy>  (38) 
-12.06

>  <m_primary>  (38) 
energy

$$$$
38:0
     RDKit          3D

 55 57  0  0  0  0  0  0  0  0999 V2000
   56.1700   23.2810   48.4940 C   0  0  0  0  0  0  0  0  0  0  0  0
   57.2410   23.5900   47.6060 O   0  0  0  0  0  0  0  0  0  0  0  0
   57.4330   24.8370   46.9880 C   0  0  0  0  0  0  0  0  0  0  0  0
   58.6830   25.4910   47.0180 C   0  0  0  0  0  0  0  0  0  0  0  0
   58.8440   26.7430   46.4170 C   0  0  0  0  0  0  0  0  0  0  0  0
   57.7540   27.3840   45.8220 C   0  0  0  0  0  0  0  0  0  0  0  0
   57.9590   28.6260   45.1370 N   0  0  0  0  0  0  0  0  0  0  0  0
   57.0280   29.7120   45.1540 C   0  0  0  0  0  0  0  0  0  0  0  0
   55.7920   29.4760   45.2370 O   0  0  0  0  0  0  0  0  0  0  0  0
   57.5200   31.0970   45.0260 C   0  0  0  0  0  0  0  0  0  0  0  0
   58.1540   31.8460   46.4020 S   0  0  0  0  0  0  0  0  0  0  0  0
   58.8010   33.3680   46.0430 C   0  0  0  0  0  0  0  0  0  0  0  0
   59.4110   34.1040   46.9270 N   0  0  0  0  0  0  0  0  0  0  0  0
   60.7820   33.9870   47.3340 C   0  0  0  0  0  0  0  0  0  0  0  0
   61.1490   34.1090   48.6860 C   0  0  0  0  0  0  0  0  0  0  0  0
   62.4970   34.0310   49.0410 C   0  0  0  0  0  0  0  0  0  0  0  0
   63.4650   33.8460   48.0530 C   0  0  0  0  0  0  0  0  0  0  0  0
   63.0680   33.7500   46.7160 C   0  0  0  0  0  0  0  0  0  0  0  0
   61.7500   33.8360   46.3860 N   0  0  0  0  0  0  0  0  0  0  0  0
   58.7370   33.7870   44.7570 N   0  0  0  0  0  0  0  0  0  0  0  0
   58.1790   33.1010   43.7150 C   0  0  0  0  0  0  0  0  0  0  0  0
   57.5820   31.8140   43.8090 C   0  0  0  0  0  0  0  0  0  0  0  0
   57.0100   31.2160   42.5470 C   0  0  0  0  0  0  0  0  0  0  0  0
   56.5050   26.7450   45.8030 C   0  0  0  0  0  0  0  0  0  0  0  0
   56.3470   25.4640   46.3360 C   0  0  0  0  0  0  0  0  0  0  0  0
   55.0990   24.8450   46.1750 O   0  0  0  0  0  0  0  0  0  0  0  0
   54.9120   23.5530   45.6030 C   0  0  0  0  0  0  0  0  0  0  0  0
   55.1140   23.6310   44.1130 C   0  0  0  0  0  0  0  0  0  0  0  0
   56.3120   23.4610   43.5090 C   0  0  0  0  0  0  0  0  0  0  0  0
   57.3070   24.5900   43.3810 C   0  0  0  0  0  0  0  0  0  0  0  0
   56.6560   22.1060   42.9490 C   0  0  0  0  0  0  0  0  0  0  0  0
   56.5153   23.3806   49.5336 H   0  0  0  0  0  0  0  0  0  0  0  0
   55.3350   23.9749   48.3169 H   0  0  0  0  0  0  0  0  0  0  0  0
   55.8330   22.2490   48.3169 H   0  0  0  0  0  0  0  0  0  0  0  0
   59.5376   25.0119   47.5182 H   0  0  0  0  0  0  0  0  0  0  0  0
   59.8326   27.2254   46.4125 H   0  0  0  0  0  0  0  0  0  0  0  0
   60.3804   34.2646   49.4574 H   0  0  0  0  0  0  0  0  0  0  0  0
   62.7952   34.1151   50.0965 H   0  0  0  0  0  0  0  0  0  0  0  0
   64.5290   33.7765   48.3233 H   0  0  0  0  0  0  0  0  0  0  0  0
   63.8224   33.6046   45.9287 H   0  0  0  0  0  0  0  0  0  0  0  0
   61.4770   33.7660   45.3780 H   0  0  0  0  0  0  0  0  0  0  0  0
   58.1928   33.5823   42.7260 H   0  0  0  0  0  0  0  0  0  0  0  0
   56.2715   30.4440   42.8091 H   0  0  0  0  0  0  0  0  0  0  0  0
   56.5217   32.0049   41.9560 H   0  0  0  0  0  0  0  0  0  0  0  0
   57.8198   30.7632   41.9560 H   0  0  0  0  0  0  0  0  0  0  0  0
   55.6386   27.2600   45.3623 H   0  0  0  0  0  0  0  0  0  0  0  0
   55.6403   22.8513   46.0357 H   0  0  0  0  0  0  0  0  0  0  0  0
   53.8922   23.2007   45.8173 H   0  0  0  0  0  0  0  0  0  0  0  0
   54.2382   23.8378   43.4804 H   0  0  0  0  0  0  0  0  0  0  0  0
   57.6067   24.9300   44.3833 H   0  0  0  0  0  0  0  0  0  0  0  0
   58.1933   24.2373   42.8332 H   0  0  0  0  0  0  0  0  0  0  0  0
   56.8457   25.4250   42.8332 H   0  0  0  0  0  0  0  0  0  0  0  0
   56.8346   21.4023   43.7754 H   0  0  0  0  0  0  0  0  0  0  0  0
   55.8218   21.7420   42.3313 H   0  0  0  0  0  0  0  0  0  0  0  0
   57.5628   22.1840   42.3313 H   0  0  0  0  0  0  0  0  0  0  0  0
  1  2  1  0
  2  3  1  0
  3  4  2  0
  4  5  1  0
  5  6  2  0
  6  7  1  0
  7  8  1  0
  8  9  2  0
  8 10  1  0
 10 11  1  0
 11 12  1  0
 12 13  2  3
 13 14  1  0
 14 15  2  0
 15 16  1  0
 16 17  2  0
 17 18  1  0
 18 19  2  0
 12 20  1  0
 20 21  2  0
 21 22  1  0
 22 23  1  0
  6 24  1  0
 24 25  2  0
 25 26  1  0
 26 27  1  0
 27 28  1  0
 28 29  2  3
 29 30  1  0
 29 31  1  0
 25  3  1  0
 22 10  2  0
 19 14  1  0
  1 32  1  0
  1 33  1  0
  1 34  1  0
  4 35  1  0
  5 36  1  0
 15 37  1  0
 16 38  1  0
 17 39  1  0
 18 40  1  0
 19 41  1  0
 21 42  1  0
 23 43  1  0
 23 44  1  0
 23 45  1  0
 24 46  1  0
 27 47  1  0
 27 48  1  0
 28 49  1  0
 30 50  1  0
 30 51  1  0
 30 52  1  0
 31 53  1  0
 31 54  1  0
 31 55  1  0
M  CHG  2   7  -1  19   1
M  END
>  <UniqueID>  (39) 
37

>  <SMILES>  (39) 
COc1ccc([N-]C(=O)c2sc(=Nc3cccc[nH+]3)ncc2C)cc1OCC=C(C)C

>  <Energy>  (39) 
77.17800478643308

>  <Genealogy>  (39) 
COc1ccc([N-]C(=O)c2sc(=Nc3cccc[nH+]3)ncc2C)cc1OCC=C(C)C (protonated)
COc1ccc([N-]C(=O)c2sc(=Nc3cccc[nH+]3)ncc2C)cc1OCC=C(C)C (3D coordinates assigned)
COc1ccc([N-]C(=O)c2sc(=Nc3cccc[nH+]3)ncc2C)cc1OCC=C(C)C (optimized conformer: 77.17800478643308 kcal/mol)

>  <smiles>  (39) 
COc1ccc(NC(=O)c2sc(=Nc3ccccn3)ncc2C)cc1OCC=C(C)C

>  <score_type>  (39) 
oracle

>  <origin>  (39) 
adg

>  <m_score__min__energy>  (39) 
-8.9800000000000004

>  <m_primary>  (39) 
energy

$$$$
39:0
     RDKit          3D

 51 55  0  0  0  0  0  0  0  0999 V2000
   60.0010   33.5450   49.5010 O   0  0  0  0  0  0  0  0  0  0  0  0
   59.9180   32.3610   49.0730 C   0  0  0  0  0  0  0  0  0  0  0  0
   58.5740   31.7940   48.7180 C   0  0  0  0  0  0  0  0  0  0  0  0
   58.6670   30.9610   47.4940 N   0  0  0  0  0  0  0  0  0  0  0  0
   59.1030   29.6600   47.6050 C   0  0  0  0  0  0  0  0  0  0  0  0
   59.4070   29.1960   48.7410 O   0  0  0  0  0  0  0  0  0  0  0  0
   59.2190   28.8520   46.5000 N   0  0  0  0  0  0  0  0  0  0  0  0
   59.6480   27.4450   46.6580 C   0  0  0  0  0  0  0  0  0  0  0  0
   58.5080   26.5090   46.3550 C   0  0  0  0  0  0  0  0  0  0  0  0
   58.7670   25.1550   46.0140 C   0  0  0  0  0  0  0  0  0  0  0  0
   57.7090   24.2830   45.6960 C   0  0  0  0  0  0  0  0  0  0  0  0
   56.4150   24.7920   45.7250 C   0  0  0  0  0  0  0  0  0  0  0  0
   56.1590   26.0850   46.0480 C   0  0  0  0  0  0  0  0  0  0  0  0
   57.1740   26.9810   46.3690 C   0  0  0  0  0  0  0  0  0  0  0  0
   54.7970   26.3110   45.9960 O   0  0  0  0  0  0  0  0  0  0  0  0
   54.1580   25.0840   45.6170 C   0  0  0  0  0  0  0  0  0  0  0  0
   55.2280   24.1410   45.4550 O   0  0  0  0  0  0  0  0  0  0  0  0
   58.9020   29.3350   45.2590 C   0  0  0  0  0  0  0  0  0  0  0  0
   59.0030   28.5900   44.2440 O   0  0  0  0  0  0  0  0  0  0  0  0
   58.4700   30.6570   45.1040 C   0  0  0  0  0  0  0  0  0  0  0  0
   58.1550   31.1730   43.8300 C   0  0  0  0  0  0  0  0  0  0  0  0
   57.7360   32.4940   43.6860 C   0  0  0  0  0  0  0  0  0  0  0  0
   57.6260   33.3140   44.8030 C   0  0  0  0  0  0  0  0  0  0  0  0
   57.9310   32.8200   46.0720 C   0  0  0  0  0  0  0  0  0  0  0  0
   58.3580   31.4780   46.2510 C   0  0  0  0  0  0  0  0  0  0  0  0
   61.0950   31.5470   48.9620 N   0  0  0  0  0  0  0  0  0  0  0  0
   62.4160   32.0780   49.1260 C   0  0  0  0  0  0  0  0  0  0  0  0
   63.2040   31.6290   50.1960 C   0  0  0  0  0  0  0  0  0  0  0  0
   64.4960   32.1270   50.3820 C   0  0  0  0  0  0  0  0  0  0  0  0
   65.0180   33.0680   49.4900 C   0  0  0  0  0  0  0  0  0  0  0  0
   64.2530   33.5010   48.4040 C   0  0  0  0  0  0  0  0  0  0  0  0
   62.9560   33.0070   48.2110 C   0  0  0  0  0  0  0  0  0  0  0  0
   62.0740   33.5060   46.7730 Cl  0  0  0  0  0  0  0  0  0  0  0  0
   58.2115   31.1738   49.5510 H   0  0  0  0  0  0  0  0  0  0  0  0
   57.8766   32.6238   48.5308 H   0  0  0  0  0  0  0  0  0  0  0  0
   60.4784   27.2399   45.9664 H   0  0  0  0  0  0  0  0  0  0  0  0
   59.9720   27.2864   47.6972 H   0  0  0  0  0  0  0  0  0  0  0  0
   59.8027   24.7848   45.9983 H   0  0  0  0  0  0  0  0  0  0  0  0
   57.8995   23.2321   45.4328 H   0  0  0  0  0  0  0  0  0  0  0  0
   56.9461   28.0259   46.6262 H   0  0  0  0  0  0  0  0  0  0  0  0
   53.4648   24.7505   46.4032 H   0  0  0  0  0  0  0  0  0  0  0  0
   53.5633   25.1951   44.6983 H   0  0  0  0  0  0  0  0  0  0  0  0
   58.2407   30.5278   42.9433 H   0  0  0  0  0  0  0  0  0  0  0  0
   57.4922   32.8880   42.6883 H   0  0  0  0  0  0  0  0  0  0  0  0
   57.2970   34.3571   44.6861 H   0  0  0  0  0  0  0  0  0  0  0  0
   57.8392   33.4805   46.9468 H   0  0  0  0  0  0  0  0  0  0  0  0
   60.9800   30.5090   48.9380 H   0  0  0  0  0  0  0  0  0  0  0  0
   62.8019   30.8795   50.8936 H   0  0  0  0  0  0  0  0  0  0  0  0
   65.1027   31.7784   51.2308 H   0  0  0  0  0  0  0  0  0  0  0  0
   66.0313   33.4677   49.6430 H   0  0  0  0  0  0  0  0  0  0  0  0
   64.6708   34.2331   47.6972 H   0  0  0  0  0  0  0  0  0  0  0  0
  1  2  2  0
  2  3  1  0
  3  4  1  0
  4  5  1  0
  5  6  2  0
  5  7  1  0
  7  8  1  0
  8  9  1  0
  9 10  2  0
 10 11  1  0
 11 12  2  0
 12 13  1  0
 13 14  2  0
 13 15  1  0
 15 16  1  0
 16 17  1  0
  7 18  1  0
 18 19  2  0
 18 20  1  0
 20 21  2  0
 21 22  1  0
 22 23  2  0
 23 24  1  0
 24 25  2  0
  2 26  1  0
 26 27  1  0
 27 28  2  0
 28 29  1  0
 29 30  2  0
 30 31  1  0
 31 32  2  0
 32 33  1  0
 25  4  1  0
 32 27  1  0
 14  9  1  0
 25 20  1  0
 17 12  1  0
  3 34  1  0
  3 35  1  0
  8 36  1  0
  8 37  1  0
 10 38  1  0
 11 39  1  0
 14 40  1  0
 16 41  1  0
 16 42  1  0
 21 43  1  0
 22 44  1  0
 23 45  1  0
 24 46  1  0
 26 47  1  0
 28 48  1  0
 29 49  1  0
 30 50  1  0
 31 51  1  0
M  END
>  <UniqueID>  (40) 
38

>  <SMILES>  (40) 
O=C(Cn1c(=O)n(Cc2ccc3c(c2)OCO3)c(=O)c2ccccc21)Nc1ccccc1Cl

>  <Energy>  (40) 
104.08936899215148

>  <Genealogy>  (40) 
O=C(Cn1c(=O)n(Cc2ccc3c(c2)OCO3)c(=O)c2ccccc21)Nc1ccccc1Cl (3D coordinates assigned)
O=C(Cn1c(=O)n(Cc2ccc3c(c2)OCO3)c(=O)c2ccccc21)Nc1ccccc1Cl (nonaromatic ring conformer: 104.08936899215148 kcal/mol)

>  <smiles>  (40) 
O=C(Cn1c(=O)n(Cc2ccc3c(c2)OCO3)c(=O)c2ccccc21)Nc1ccccc1Cl

>  <score_type>  (40) 
oracle

>  <origin>  (40) 
adg

>  <m_score__min__energy>  (40) 
-9.0500000000000007

>  <m_primary>  (40) 
energy

$$$$
40:0
     RDKit          3D

 39 41  0  0  0  0  0  0  0  0999 V2000
   60.8780   32.4850   48.2850 C   0  0  0  0  0  0  0  0  0  0  0  0
   59.4760   33.1380   48.2800 C   0  0  0  0  0  0  0  0  0  0  0  0
   59.6560   34.5880   48.8000 C   0  0  0  0  0  0  0  0  0  0  0  0
   58.5540   32.4150   49.2890 C   0  0  0  0  0  0  0  0  0  0  0  0
   58.8600   33.0760   46.8500 C   0  0  0  0  0  0  0  0  0  0  0  0
   58.5070   34.2620   46.1570 C   0  0  0  0  0  0  0  0  0  0  0  0
   57.9540   34.2210   44.8780 C   0  0  0  0  0  0  0  0  0  0  0  0
   57.7340   33.0070   44.2420 C   0  0  0  0  0  0  0  0  0  0  0  0
   58.0660   31.8050   44.8810 C   0  0  0  0  0  0  0  0  0  0  0  0
   57.8460   30.5610   44.2510 C   0  0  0  0  0  0  0  0  0  0  0  0
   57.3110   30.5180   43.1080 O   0  0  0  0  0  0  0  0  0  0  0  0
   58.1990   29.3670   44.9100 C   0  0  0  0  0  0  0  0  0  0  0  0
   58.0020   28.0340   44.2900 C   0  0  0  0  0  0  0  0  0  0  0  0
   57.9160   27.8380   43.0180 N   0  0  0  0  0  0  0  0  0  0  0  0
   57.7690   26.4190   42.7280 C   0  0  0  0  0  0  0  0  0  0  0  0
   57.7740   25.7360   44.1050 C   0  0  0  0  0  0  0  0  0  0  0  0
   57.9430   26.8350   45.0390 N   0  0  0  0  0  0  0  0  0  0  0  0
   58.7350   29.4490   46.1980 C   0  0  0  0  0  0  0  0  0  0  0  0
   58.9340   30.6550   46.7860 N   0  0  0  0  0  0  0  0  0  0  0  0
   58.6270   31.8350   46.1840 C   0  0  0  0  0  0  0  0  0  0  0  0
   61.2073   32.3316   49.3233 H   0  0  0  0  0  0  0  0  0  0  0  0
   60.8327   31.5153   47.7676 H   0  0  0  0  0  0  0  0  0  0  0  0
   61.5911   33.1436   47.7676 H   0  0  0  0  0  0  0  0  0  0  0  0
   59.6557   34.5857   49.9000 H   0  0  0  0  0  0  0  0  0  0  0  0
   60.6113   34.9927   48.4344 H   0  0  0  0  0  0  0  0  0  0  0  0
   58.8287   35.2140   48.4344 H   0  0  0  0  0  0  0  0  0  0  0  0
   58.8679   32.6612   50.3141 H   0  0  0  0  0  0  0  0  0  0  0  0
   57.5149   32.7415   49.1353 H   0  0  0  0  0  0  0  0  0  0  0  0
   58.6233   31.3280   49.1353 H   0  0  0  0  0  0  0  0  0  0  0  0
   58.6733   35.2363   46.6397 H   0  0  0  0  0  0  0  0  0  0  0  0
   57.6896   35.1592   44.3682 H   0  0  0  0  0  0  0  0  0  0  0  0
   57.2974   32.9885   43.2325 H   0  0  0  0  0  0  0  0  0  0  0  0
   57.9910   28.5800   42.2870 H   0  0  0  0  0  0  0  0  0  0  0  0
   56.8216   26.2266   42.2031 H   0  0  0  0  0  0  0  0  0  0  0  0
   58.5698   26.0430   42.0743 H   0  0  0  0  0  0  0  0  0  0  0  0
   56.8240   25.2117   44.2853 H   0  0  0  0  0  0  0  0  0  0  0  0
   58.5626   24.9748   44.1982 H   0  0  0  0  0  0  0  0  0  0  0  0
   57.9600   26.7510   46.0790 H   0  0  0  0  0  0  0  0  0  0  0  0
   58.9976   28.5281   46.7393 H   0  0  0  0  0  0  0  0  0  0  0  0
  1  2  1  0
  2  3  1  0
  2  4  1  0
  2  5  1  0
  5  6  2  0
  6  7  1  0
  7  8  2  0
  8  9  1  0
  9 10  1  0
 10 11  2  0
 10 12  1  0
 12 13  1  0
 13 14  2  0
 14 15  1  0
 15 16  1  0
 16 17  1  0
 12 18  2  0
 18 19  1  0
 19 20  1  0
 20  5  1  0
 20  9  2  0
 17 13  1  0
  1 21  1  0
  1 22  1  0
  1 23  1  0
  3 24  1  0
  3 25  1  0
  3 26  1  0
  4 27  1  0
  4 28  1  0
  4 29  1  0
  6 30  1  0
  7 31  1  0
  8 32  1  0
 14 33  1  0
 15 34  1  0
 15 35  1  0
 16 36  1  0
 16 37  1  0
 17 38  1  0
 18 39  1  0
M  CHG  2  14   1  19  -1
M  END
>  <UniqueID>  (41) 
39

>  <SMILES>  (41) 
CC(C)(C)c1cccc2c(=O)c(C3=[NH+]CCN3)c[n-]c12

>  <Energy>  (41) 
66.07097174472247

>  <Genealogy>  (41) 
CC(C)(C)c1cccc2c(=O)c(C3=[NH+]CCN3)c[n-]c12 (protonated)
CC(C)(C)c1cccc2c(=O)c(C3=[NH+]CCN3)c[n-]c12 (3D coordinates assigned)
CC(C)(C)c1cccc2c(=O)c(C3=[NH+]CCN3)c[n-]c12 (nonaromatic ring conformer: 66.07097174472247 kcal/mol)

>  <smiles>  (41) 
CC(C)(C)c1cccc2c(=O)c(C3=NCCN3)c[nH]c12

>  <score_type>  (41) 
oracle

>  <origin>  (41) 
adg

>  <m_score__min__energy>  (41) 
-6.4699999999999998

>  <m_primary>  (41) 
energy

$$$$
41:0
     RDKit          3D

 31 33  0  0  0  0  0  0  0  0999 V2000
   54.8030   24.9030   45.6250 C   0  0  0  0  0  0  0  0  0  0  0  0
   55.1940   26.2210   45.9960 O   0  0  0  0  0  0  0  0  0  0  0  0
   56.4960   26.7270   45.8630 C   0  0  0  0  0  0  0  0  0  0  0  0
   57.6370   25.9110   45.9630 C   0  0  0  0  0  0  0  0  0  0  0  0
   58.9100   26.4610   45.8120 C   0  0  0  0  0  0  0  0  0  0  0  0
   59.0610   27.8270   45.5650 C   0  0  0  0  0  0  0  0  0  0  0  0
   57.9370   28.6650   45.4770 C   0  0  0  0  0  0  0  0  0  0  0  0
   58.1250   30.1130   45.2070 C   0  0  0  0  0  0  0  0  0  0  0  0
   57.8420   30.6750   43.9490 C   0  0  0  0  0  0  0  0  0  0  0  0
   58.0350   32.0440   43.7520 C   0  0  0  0  0  0  0  0  0  0  0  0
   57.7820   32.5510   42.6250 O   0  0  0  0  0  0  0  0  0  0  0  0
   58.5040   32.8330   44.8120 C   0  0  0  0  0  0  0  0  0  0  0  0
   58.7220   34.2180   44.6820 C   0  0  0  0  0  0  0  0  0  0  0  0
   59.1850   34.9590   45.7720 C   0  0  0  0  0  0  0  0  0  0  0  0
   59.4350   34.3310   46.9950 C   0  0  0  0  0  0  0  0  0  0  0  0
   59.2210   32.9560   47.1360 C   0  0  0  0  0  0  0  0  0  0  0  0
   58.7580   32.2030   46.0510 C   0  0  0  0  0  0  0  0  0  0  0  0
   58.5600   30.8960   46.1940 O   0  0  0  0  0  0  0  0  0  0  0  0
   56.6540   28.0990   45.6180 C   0  0  0  0  0  0  0  0  0  0  0  0
   54.6255   24.3046   46.5307 H   0  0  0  0  0  0  0  0  0  0  0  0
   53.8797   24.9486   45.0288 H   0  0  0  0  0  0  0  0  0  0  0  0
   55.6018   24.4377   45.0288 H   0  0  0  0  0  0  0  0  0  0  0  0
   57.5252   24.8348   46.1611 H   0  0  0  0  0  0  0  0  0  0  0  0
   59.7981   25.8163   45.8878 H   0  0  0  0  0  0  0  0  0  0  0  0
   60.0683   28.2504   45.4383 H   0  0  0  0  0  0  0  0  0  0  0  0
   57.4723   30.0424   43.1285 H   0  0  0  0  0  0  0  0  0  0  0  0
   58.5275   34.7170   43.7212 H   0  0  0  0  0  0  0  0  0  0  0  0
   59.3534   36.0410   45.6671 H   0  0  0  0  0  0  0  0  0  0  0  0
   59.8011   34.9196   47.8491 H   0  0  0  0  0  0  0  0  0  0  0  0
   59.4169   32.4658   48.1011 H   0  0  0  0  0  0  0  0  0  0  0  0
   55.7650   28.7415   45.5348 H   0  0  0  0  0  0  0  0  0  0  0  0
  1  2  1  0
  2  3  1  0
  3  4  2  0
  4  5  1  0
  5  6  2  0
  6  7  1  0
  7  8  1  0
  8  9  2  0
  9 10  1  0
 10 11  2  0
 10 12  1  0
 12 13  2  0
 13 14  1  0
 14 15  2  0
 15 16  1  0
 16 17  2  0
 17 18  1  0
  7 19  2  0
 19  3  1  0
 18  8  1  0
 17 12  1  0
  1 20  1  0
  1 21  1  0
  1 22  1  0
  4 23  1  0
  5 24  1  0
  6 25  1  0
  9 26  1  0
 13 27  1  0
 14 28  1  0
 15 29  1  0
 16 30  1  0
 19 31  1  0
M  END
>  <UniqueID>  (42) 
40

>  <SMILES>  (42) 
COc1cccc(-c2cc(=O)c3ccccc3o2)c1

>  <Energy>  (42) 
41.896143772373335

>  <Genealogy>  (42) 
COc1cccc(-c2cc(=O)c3ccccc3o2)c1 (3D coordinates assigned)
COc1cccc(-c2cc(=O)c3ccccc3o2)c1 (optimized conformer: 41.896143772373335 kcal/mol)

>  <smiles>  (42) 
COc1cccc(-c2cc(=O)c3ccccc3o2)c1

>  <score_type>  (42) 
oracle

>  <origin>  (42) 
adg

>  <m_score__min__energy>  (42) 
-7.1699999999999999

>  <m_primary>  (42) 
energy

$$$$
42:0
     RDKit          3D

 57 60  0  0  0  0  0  0  0  0999 V2000
   61.8670   30.8430   46.8640 N   0  0  0  0  0  0  0  0  0  0  0  0
   61.6690   31.4320   47.8460 C   0  0  0  0  0  0  0  0  0  0  0  0
   61.3730   32.1410   49.0820 C   0  0  0  0  0  0  0  0  0  0  0  0
   62.4560   32.4170   49.9300 C   0  0  0  0  0  0  0  0  0  0  0  0
   62.2500   33.0220   51.1730 C   0  0  0  0  0  0  0  0  0  0  0  0
   60.9630   33.3710   51.5750 C   0  0  0  0  0  0  0  0  0  0  0  0
   59.8860   33.1730   50.7120 C   0  0  0  0  0  0  0  0  0  0  0  0
   60.0750   32.5790   49.4490 C   0  0  0  0  0  0  0  0  0  0  0  0
   58.5590   32.2230   48.5210 S   0  0  0  0  0  0  0  0  0  0  0  0
   58.7580   33.2530   47.0470 C   0  0  0  0  0  0  0  0  0  0  0  0
   59.2780   34.5410   47.2710 C   0  0  0  0  0  0  0  0  0  0  0  0
   59.5190   35.4160   46.2110 C   0  0  0  0  0  0  0  0  0  0  0  0
   59.2760   35.0100   44.8950 C   0  0  0  0  0  0  0  0  0  0  0  0
   58.7930   33.7170   44.6520 C   0  0  0  0  0  0  0  0  0  0  0  0
   58.5390   32.8180   45.7130 C   0  0  0  0  0  0  0  0  0  0  0  0
   58.1240   31.4400   45.3710 C   0  0  0  0  0  0  0  0  0  0  0  0
   56.9310   31.2140   45.0100 O   0  0  0  0  0  0  0  0  0  0  0  0
   59.0520   30.3560   45.5310 N   0  0  0  0  0  0  0  0  0  0  0  0
   58.6690   28.9750   45.4080 C   0  0  0  0  0  0  0  0  0  0  0  0
   58.3300   28.4680   44.1460 C   0  0  0  0  0  0  0  0  0  0  0  0
   57.9010   27.1420   44.0120 C   0  0  0  0  0  0  0  0  0  0  0  0
   57.7990   26.3130   45.1450 C   0  0  0  0  0  0  0  0  0  0  0  0
   57.3060   24.8900   45.0060 C   0  0  0  0  0  0  0  0  0  0  0  0
   56.9490   24.2770   46.3670 C   0  0  0  0  0  0  0  0  0  0  0  0
   55.5180   24.5070   46.6900 N   0  0  0  0  0  0  0  0  0  0  0  0
   54.7250   24.9320   45.5020 C   0  0  0  0  0  0  0  0  0  0  0  0
   54.3700   23.7490   44.5770 C   0  0  0  0  0  0  0  0  0  0  0  0
   53.6910   22.7320   45.2970 O   0  0  0  0  0  0  0  0  0  0  0  0
   54.5450   22.2320   46.3140 C   0  0  0  0  0  0  0  0  0  0  0  0
   54.8820   23.3360   47.3320 C   0  0  0  0  0  0  0  0  0  0  0  0
   58.1730   26.8110   46.3970 C   0  0  0  0  0  0  0  0  0  0  0  0
   58.6000   28.1370   46.5330 C   0  0  0  0  0  0  0  0  0  0  0  0
   58.9240   28.7440   48.1460 Cl  0  0  0  0  0  0  0  0  0  0  0  0
   63.4765   32.1549   49.6138 H   0  0  0  0  0  0  0  0  0  0  0  0
   63.1055   33.2228   51.8347 H   0  0  0  0  0  0  0  0  0  0  0  0
   60.7963   33.8027   52.5729 H   0  0  0  0  0  0  0  0  0  0  0  0
   58.8772   33.4842   51.0210 H   0  0  0  0  0  0  0  0  0  0  0  0
   59.4983   34.8638   48.2992 H   0  0  0  0  0  0  0  0  0  0  0  0
   59.9012   36.4279   46.4111 H   0  0  0  0  0  0  0  0  0  0  0  0
   59.4623   35.6992   44.0582 H   0  0  0  0  0  0  0  0  0  0  0  0
   58.6081   33.3957   43.6164 H   0  0  0  0  0  0  0  0  0  0  0  0
   60.0210   30.5490   45.8720 H   0  0  0  0  0  0  0  0  0  0  0  0
   58.4012   29.1137   43.2583 H   0  0  0  0  0  0  0  0  0  0  0  0
   57.6429   26.7469   43.0184 H   0  0  0  0  0  0  0  0  0  0  0  0
   56.4110   24.8837   44.3665 H   0  0  0  0  0  0  0  0  0  0  0  0
   58.1131   24.2896   44.5608 H   0  0  0  0  0  0  0  0  0  0  0  0
   57.1424   23.1946   46.3368 H   0  0  0  0  0  0  0  0  0  0  0  0
   57.5665   24.7549   47.1418 H   0  0  0  0  0  0  0  0  0  0  0  0
   53.7925   25.4009   45.8492 H   0  0  0  0  0  0  0  0  0  0  0  0
   55.3400   25.6370   44.9234 H   0  0  0  0  0  0  0  0  0  0  0  0
   53.7224   24.1088   43.7639 H   0  0  0  0  0  0  0  0  0  0  0  0
   55.3011   23.3296   44.1681 H   0  0  0  0  0  0  0  0  0  0  0  0
   54.0415   21.4033   46.8333 H   0  0  0  0  0  0  0  0  0  0  0  0
   55.4788   21.8806   45.8509 H   0  0  0  0  0  0  0  0  0  0  0  0
   53.9532   23.6614   47.8234 H   0  0  0  0  0  0  0  0  0  0  0  0
   55.5934   22.9202   48.0607 H   0  0  0  0  0  0  0  0  0  0  0  0
   58.1314   26.1567   47.2803 H   0  0  0  0  0  0  0  0  0  0  0  0
  1  2  3  0
  2  3  1  0
  3  4  2  0
  4  5  1  0
  5  6  2  0
  6  7  1  0
  7  8  2  0
  8  9  1  0
  9 10  1  0
 10 11  2  0
 11 12  1  0
 12 13  2  0
 13 14  1  0
 14 15  2  0
 15 16  1  0
 16 17  2  0
 16 18  1  0
 18 19  1  0
 19 20  2  0
 20 21  1  0
 21 22  2  0
 22 23  1  0
 23 24  1  0
 24 25  1  0
 25 26  1  0
 26 27  1  0
 27 28  1  0
 28 29  1  0
 29 30  1  0
 22 31  1  0
 31 32  2  0
 32 33  1  0
  8  3  1  0
 15 10  1  0
 32 19  1  0
 30 25  1  0
  4 34  1  0
  5 35  1  0
  6 36  1  0
  7 37  1  0
 11 38  1  0
 12 39  1  0
 13 40  1  0
 14 41  1  0
 18 42  1  0
 20 43  1  0
 21 44  1  0
 23 45  1  0
 23 46  1  0
 24 47  1  0
 24 48  1  0
 26 49  1  0
 26 50  1  0
 27 51  1  0
 27 52  1  0
 29 53  1  0
 29 54  1  0
 30 55  1  0
 30 56  1  0
 31 57  1  0
M  END
>  <UniqueID>  (43) 
41

>  <SMILES>  (43) 
N#Cc1ccccc1Sc1ccccc1C(=O)Nc1ccc(CCN2CCOCC2)cc1Cl

>  <Energy>  (43) 
85.5981822083932

>  <Genealogy>  (43) 
N#Cc1ccccc1Sc1ccccc1C(=O)Nc1ccc(CCN2CCOCC2)cc1Cl (3D coordinates assigned)
N#Cc1ccccc1Sc1ccccc1C(=O)Nc1ccc(CCN2CCOCC2)cc1Cl (nonaromatic ring conformer: 85.5981822083932 kcal/mol)

>  <smiles>  (43) 
N#Cc1ccccc1Sc1ccccc1C(=O)Nc1ccc(CCN2CCOCC2)cc1Cl

>  <score_type>  (43) 
oracle

>  <origin>  (43) 
adg

>  <m_score__min__energy>  (43) 
-10.19

>  <m_primary>  (43) 
energy

$$$$
43:0
     RDKit          3D

 72 75  0  0  0  0  0  0  0  0999 V2000
   56.3660   29.6610   42.6350 C   0  0  0  0  0  0  0  0  0  0  0  0
   56.4630   29.8350   44.1490 C   0  0  0  0  0  0  0  0  0  0  0  0
   56.3600   31.2120   44.5100 O   0  0  0  0  0  0  0  0  0  0  0  0
   57.3630   31.9700   45.1390 C   0  0  0  0  0  0  0  0  0  0  0  0
   58.6800   31.4990   45.3150 C   0  0  0  0  0  0  0  0  0  0  0  0
   59.6350   32.2940   45.9560 C   0  0  0  0  0  0  0  0  0  0  0  0
   59.2980   33.5810   46.4110 C   0  0  0  0  0  0  0  0  0  0  0  0
   60.2320   34.4100   47.1190 N   0  0  0  0  0  0  0  0  0  0  0  0
   60.5370   34.3560   48.5190 C   0  0  0  0  0  0  0  0  0  0  0  0
   59.6770   34.6790   49.3820 O   0  0  0  0  0  0  0  0  0  0  0  0
   61.8760   33.8470   48.9600 C   0  0  0  0  0  0  0  0  0  0  0  0
   61.7790   32.4380   49.3750 N   0  0  0  0  0  0  0  0  0  0  0  0
   61.0310   31.5690   48.6230 C   0  0  0  0  0  0  0  0  0  0  0  0
   60.9280   30.2120   48.9750 C   0  0  0  0  0  0  0  0  0  0  0  0
   60.1570   29.2630   48.1310 C   0  0  0  0  0  0  0  0  0  0  0  0
   58.8180   29.5300   47.8120 C   0  0  0  0  0  0  0  0  0  0  0  0
   58.0840   28.6390   47.0340 C   0  0  0  0  0  0  0  0  0  0  0  0
   58.6650   27.4600   46.5470 C   0  0  0  0  0  0  0  0  0  0  0  0
   57.6120   26.3780   45.6090 S   0  0  0  0  0  0  0  0  0  0  0  0
   56.1830   26.6930   45.9510 O   0  0  0  0  0  0  0  0  0  0  0  0
   57.7790   26.5550   44.1260 O   0  0  0  0  0  0  0  0  0  0  0  0
   57.9380   24.7280   46.0490 N   0  0  0  0  0  0  0  0  0  0  0  0
   57.0010   24.2930   47.0870 C   0  0  0  0  0  0  0  0  0  0  0  0
   55.7440   23.6350   46.4790 C   0  0  0  0  0  0  0  0  0  0  0  0
   55.9530   22.8900   45.2140 N   0  0  0  0  0  0  0  0  0  0  0  0
   55.9040   23.7380   44.0070 C   0  0  0  0  0  0  0  0  0  0  0  0
   56.2980   22.9300   42.7550 C   0  0  0  0  0  0  0  0  0  0  0  0
   56.1250   21.5460   42.9820 O   0  0  0  0  0  0  0  0  0  0  0  0
   57.0660   21.0910   43.9430 C   0  0  0  0  0  0  0  0  0  0  0  0
   57.1100   21.9800   45.2060 C   0  0  0  0  0  0  0  0  0  0  0  0
   60.0170   27.1710   46.8650 C   0  0  0  0  0  0  0  0  0  0  0  0
   60.7160   25.9380   46.3620 C   0  0  0  0  0  0  0  0  0  0  0  0
   60.7480   28.0850   47.6480 C   0  0  0  0  0  0  0  0  0  0  0  0
   61.5910   29.7690   50.1260 C   0  0  0  0  0  0  0  0  0  0  0  0
   62.3370   30.6600   50.8910 C   0  0  0  0  0  0  0  0  0  0  0  0
   62.4280   31.9980   50.5010 C   0  0  0  0  0  0  0  0  0  0  0  0
   63.1120   32.7930   51.2030 O   0  0  0  0  0  0  0  0  0  0  0  0
   57.9880   34.0440   46.2390 C   0  0  0  0  0  0  0  0  0  0  0  0
   57.0320   33.2490   45.6010 C   0  0  0  0  0  0  0  0  0  0  0  0
   55.8420   28.7211   42.4068 H   0  0  0  0  0  0  0  0  0  0  0  0
   55.8086   30.5056   42.2038 H   0  0  0  0  0  0  0  0  0  0  0  0
   57.3775   29.6309   42.2038 H   0  0  0  0  0  0  0  0  0  0  0  0
   55.6473   29.2746   44.6291 H   0  0  0  0  0  0  0  0  0  0  0  0
   57.4391   29.4551   44.4851 H   0  0  0  0  0  0  0  0  0  0  0  0
   58.9578   30.5007   44.9460 H   0  0  0  0  0  0  0  0  0  0  0  0
   60.6552   31.9106   46.1051 H   0  0  0  0  0  0  0  0  0  0  0  0
   62.5881   33.9308   48.1258 H   0  0  0  0  0  0  0  0  0  0  0  0
   62.2218   34.4473   49.8145 H   0  0  0  0  0  0  0  0  0  0  0  0
   60.5039   31.9392   47.7313 H   0  0  0  0  0  0  0  0  0  0  0  0
   58.3433   30.4517   48.1797 H   0  0  0  0  0  0  0  0  0  0  0  0
   57.0333   28.8633   46.7981 H   0  0  0  0  0  0  0  0  0  0  0  0
   57.7600   24.1530   45.1930 H   0  0  0  0  0  0  0  0  0  0  0  0
   57.5046   23.5649   47.7399 H   0  0  0  0  0  0  0  0  0  0  0  0
   56.6839   25.1787   47.6570 H   0  0  0  0  0  0  0  0  0  0  0  0
   55.3384   22.9320   47.2215 H   0  0  0  0  0  0  0  0  0  0  0  0
   55.0647   24.4633   46.2290 H   0  0  0  0  0  0  0  0  0  0  0  0
   54.8824   24.1255   43.8796 H   0  0  0  0  0  0  0  0  0  0  0  0
   56.6154   24.5680   44.1297 H   0  0  0  0  0  0  0  0  0  0  0  0
   55.6648   23.2399   41.9106 H   0  0  0  0  0  0  0  0  0  0  0  0
   57.3568   23.1226   42.5271 H   0  0  0  0  0  0  0  0  0  0  0  0
   56.7954   20.0678   44.2427 H   0  0  0  0  0  0  0  0  0  0  0  0
   58.0612   21.1298   43.4760 H   0  0  0  0  0  0  0  0  0  0  0  0
   57.0802   21.3431   46.1024 H   0  0  0  0  0  0  0  0  0  0  0  0
   58.0377   22.5710   45.2028 H   0  0  0  0  0  0  0  0  0  0  0  0
   61.0575   25.3357   47.2167 H   0  0  0  0  0  0  0  0  0  0  0  0
   60.0196   25.3453   45.7507 H   0  0  0  0  0  0  0  0  0  0  0  0
   61.5822   26.2312   45.7507 H   0  0  0  0  0  0  0  0  0  0  0  0
   61.8008   27.8721   47.8853 H   0  0  0  0  0  0  0  0  0  0  0  0
   61.5218   28.7131   50.4264 H   0  0  0  0  0  0  0  0  0  0  0  0
   62.8525   30.3124   51.7984 H   0  0  0  0  0  0  0  0  0  0  0  0
   57.7090   35.0416   46.6090 H   0  0  0  0  0  0  0  0  0  0  0  0
   56.0104   33.6318   45.4607 H   0  0  0  0  0  0  0  0  0  0  0  0
  1  2  1  0
  2  3  1  0
  3  4  1  0
  4  5  2  0
  5  6  1  0
  6  7  2  0
  7  8  1  0
  8  9  1  0
  9 10  2  0
  9 11  1  0
 11 12  1  0
 12 13  1  0
 13 14  2  0
 14 15  1  0
 15 16  2  0
 16 17  1  0
 17 18  2  0
 18 19  1  0
 19 20  2  0
 19 21  2  0
 19 22  1  0
 22 23  1  0
 23 24  1  0
 24 25  1  0
 25 26  1  0
 26 27  1  0
 27 28  1  0
 28 29  1  0
 29 30  1  0
 18 31  1  0
 31 32  1  0
 31 33  2  0
 14 34  1  0
 34 35  2  0
 35 36  1  0
 36 37  2  0
  7 38  1  0
 38 39  2  0
 39  4  1  0
 36 12  1  0
 33 15  1  0
 30 25  1  0
  1 40  1  0
  1 41  1  0
  1 42  1  0
  2 43  1  0
  2 44  1  0
  5 45  1  0
  6 46  1  0
 11 47  1  0
 11 48  1  0
 13 49  1  0
 16 50  1  0
 17 51  1  0
 22 52  1  0
 23 53  1  0
 23 54  1  0
 24 55  1  0
 24 56  1  0
 26 57  1  0
 26 58  1  0
 27 59  1  0
 27 60  1  0
 29 61  1  0
 29 62  1  0
 30 63  1  0
 30 64  1  0
 32 65  1  0
 32 66  1  0
 32 67  1  0
 33 68  1  0
 34 69  1  0
 35 70  1  0
 38 71  1  0
 39 72  1  0
M  CHG  1   8  -1
M  END
>  <UniqueID>  (44) 
42

>  <SMILES>  (44) 
CCOc1ccc([N-]C(=O)Cn2cc(-c3ccc(S(=O)(=O)NCCN4CCOCC4)c(C)c3)ccc2=O)cc1

>  <Energy>  (44) 
96.10680744590091

>  <Genealogy>  (44) 
CCOc1ccc([N-]C(=O)Cn2cc(-c3ccc(S(=O)(=O)NCCN4CCOCC4)c(C)c3)ccc2=O)cc1 (protonated)
CCOc1ccc([N-]C(=O)Cn2cc(-c3ccc(S(=O)(=O)NCCN4CCOCC4)c(C)c3)ccc2=O)cc1 (3D coordinates assigned)
CCOc1ccc([N-]C(=O)Cn2cc(-c3ccc(S(=O)(=O)NCCN4CCOCC4)c(C)c3)ccc2=O)cc1 (nonaromatic ring conformer: 96.10680744590091 kcal/mol)

>  <smiles>  (44) 
CCOc1ccc(NC(=O)Cn2cc(-c3ccc(S(=O)(=O)NCCN4CCOCC4)c(C)c3)ccc2=O)cc1

>  <score_type>  (44) 
oracle

>  <origin>  (44) 
adg

>  <m_score__min__energy>  (44) 
-11.109999999999999

>  <m_primary>  (44) 
energy

$$$$
44:0
     RDKit          3D

 39 41  0  0  0  0  0  0  0  0999 V2000
   55.9220   25.8110   46.5460 O   0  0  0  0  0  0  0  0  0  0  0  0
   56.5870   26.7310   46.0050 C   0  0  0  0  0  0  0  0  0  0  0  0
   55.8890   27.8430   45.4280 N   0  0  0  0  0  0  0  0  0  0  0  0
   56.4860   29.0410   44.9120 C   0  0  0  0  0  0  0  0  0  0  0  0
   56.2600   29.3890   43.5760 C   0  0  0  0  0  0  0  0  0  0  0  0
   56.7980   30.5670   43.0500 C   0  0  0  0  0  0  0  0  0  0  0  0
   57.5720   31.4180   43.8580 C   0  0  0  0  0  0  0  0  0  0  0  0
   58.1240   32.6850   43.3210 C   0  0  0  0  0  0  0  0  0  0  0  0
   58.4310   32.7550   42.1010 O   0  0  0  0  0  0  0  0  0  0  0  0
   58.2750   33.8580   44.1320 N   0  0  0  0  0  0  0  0  0  0  0  0
   58.8350   33.9190   45.4520 C   0  0  0  0  0  0  0  0  0  0  0  0
   60.2140   34.1230   45.5910 C   0  0  0  0  0  0  0  0  0  0  0  0
   60.7970   34.1820   46.8600 C   0  0  0  0  0  0  0  0  0  0  0  0
   60.0050   34.0240   48.0020 C   0  0  0  0  0  0  0  0  0  0  0  0
   60.7350   34.1000   49.5950 Cl  0  0  0  0  0  0  0  0  0  0  0  0
   58.6320   33.7970   47.8710 C   0  0  0  0  0  0  0  0  0  0  0  0
   58.0470   33.7340   46.6030 C   0  0  0  0  0  0  0  0  0  0  0  0
   57.8450   31.0380   45.1830 C   0  0  0  0  0  0  0  0  0  0  0  0
   57.3140   29.8550   45.7040 C   0  0  0  0  0  0  0  0  0  0  0  0
   58.0170   26.6320   45.9840 N   0  0  0  0  0  0  0  0  0  0  0  0
   58.9420   27.6660   46.3480 C   0  0  0  0  0  0  0  0  0  0  0  0
   59.8700   28.1840   45.4290 C   0  0  0  0  0  0  0  0  0  0  0  0
   60.7630   29.1840   45.8200 C   0  0  0  0  0  0  0  0  0  0  0  0
   60.7320   29.6880   47.1250 C   0  0  0  0  0  0  0  0  0  0  0  0
   61.8670   30.9500   47.5810 Cl  0  0  0  0  0  0  0  0  0  0  0  0
   59.7910   29.1900   48.0420 C   0  0  0  0  0  0  0  0  0  0  0  0
   59.7140   29.7970   49.6890 Cl  0  0  0  0  0  0  0  0  0  0  0  0
   58.8950   28.1890   47.6450 C   0  0  0  0  0  0  0  0  0  0  0  0
   55.6548   28.7311   42.9350 H   0  0  0  0  0  0  0  0  0  0  0  0
   56.6147   30.8297   41.9977 H   0  0  0  0  0  0  0  0  0  0  0  0
   60.8423   34.2375   44.6954 H   0  0  0  0  0  0  0  0  0  0  0  0
   61.8790   34.3527   46.9606 H   0  0  0  0  0  0  0  0  0  0  0  0
   58.0097   33.6675   48.7688 H   0  0  0  0  0  0  0  0  0  0  0  0
   56.9688   33.5395   46.5048 H   0  0  0  0  0  0  0  0  0  0  0  0
   58.4809   31.6760   45.8143 H   0  0  0  0  0  0  0  0  0  0  0  0
   57.5450   29.5597   46.7381 H   0  0  0  0  0  0  0  0  0  0  0  0
   59.8932   27.8007   44.3982 H   0  0  0  0  0  0  0  0  0  0  0  0
   61.4943   29.5774   45.0986 H   0  0  0  0  0  0  0  0  0  0  0  0
   58.1483   27.8110   48.3588 H   0  0  0  0  0  0  0  0  0  0  0  0
  1  2  2  0
  2  3  1  0
  3  4  1  0
  4  5  2  0
  5  6  1  0
  6  7  2  0
  7  8  1  0
  8  9  2  0
  8 10  1  0
 10 11  1  0
 11 12  2  0
 12 13  1  0
 13 14  2  0
 14 15  1  0
 14 16  1  0
 16 17  2  0
  7 18  1  0
 18 19  2  0
  2 20  1  0
 20 21  1  0
 21 22  2  0
 22 23  1  0
 23 24  2  0
 24 25  1  0
 24 26  1  0
 26 27  1  0
 26 28  2  0
 19  4  1  0
 28 21  1  0
 17 11  1  0
  5 29  1  0
  6 30  1  0
 12 31  1  0
 13 32  1  0
 16 33  1  0
 17 34  1  0
 18 35  1  0
 19 36  1  0
 22 37  1  0
 23 38  1  0
 28 39  1  0
M  CHG  3   3  -1  10  -1  20  -1
M  END
>  <UniqueID>  (45) 
43

>  <SMILES>  (45) 
O=C([N-]c1ccc(C(=O)[N-]c2ccc(Cl)cc2)cc1)[N-]c1ccc(Cl)c(Cl)c1

>  <Energy>  (45) 
54.500297579570976

>  <Genealogy>  (45) 
O=C([N-]c1ccc(C(=O)[N-]c2ccc(Cl)cc2)cc1)[N-]c1ccc(Cl)c(Cl)c1 (protonated)
O=C([N-]c1ccc(C(=O)[N-]c2ccc(Cl)cc2)cc1)[N-]c1ccc(Cl)c(Cl)c1 (3D coordinates assigned)
O=C([N-]c1ccc(C(=O)[N-]c2ccc(Cl)cc2)cc1)[N-]c1ccc(Cl)c(Cl)c1 (optimized conformer: 54.500297579570976 kcal/mol)

>  <smiles>  (45) 
O=C(Nc1ccc(C(=O)Nc2ccc(Cl)cc2)cc1)Nc1ccc(Cl)c(Cl)c1

>  <score_type>  (45) 
oracle

>  <origin>  (45) 
adg

>  <m_score__min__energy>  (45) 
-12.65

>  <m_primary>  (45) 
energy

$$$$
45:0
     RDKit          3D

 39 41  0  0  0  0  0  0  0  0999 V2000
   60.4690   29.0010   49.2870 F   0  0  0  0  0  0  0  0  0  0  0  0
   59.9030   29.9970   48.5090 C   0  0  0  0  0  0  0  0  0  0  0  0
   58.7350   30.4290   49.1100 F   0  0  0  0  0  0  0  0  0  0  0  0
   60.7950   31.0540   48.4440 F   0  0  0  0  0  0  0  0  0  0  0  0
   59.5880   29.4810   47.1280 C   0  0  0  0  0  0  0  0  0  0  0  0
   60.5880   29.4240   46.1420 C   0  0  0  0  0  0  0  0  0  0  0  0
   60.3060   28.9060   44.8760 C   0  0  0  0  0  0  0  0  0  0  0  0
   59.0300   28.4210   44.5850 C   0  0  0  0  0  0  0  0  0  0  0  0
   58.0260   28.4420   45.5640 C   0  0  0  0  0  0  0  0  0  0  0  0
   56.6430   27.9190   45.2520 C   0  0  0  0  0  0  0  0  0  0  0  0
   55.6530   29.0010   45.1050 N   0  0  0  0  0  0  0  0  0  0  0  0
   55.7670   29.7220   43.8300 C   0  0  0  0  0  0  0  0  0  0  0  0
   56.6870   30.8970   43.9570 C   0  0  0  0  0  0  0  0  0  0  0  0
   57.3170   31.5510   42.9220 C   0  0  0  0  0  0  0  0  0  0  0  0
   58.0680   32.4840   43.4520 O   0  0  0  0  0  0  0  0  0  0  0  0
   57.9210   32.4110   44.7580 C   0  0  0  0  0  0  0  0  0  0  0  0
   58.6150   33.3000   45.7120 C   0  0  0  0  0  0  0  0  0  0  0  0
   59.2030   34.5010   45.2760 C   0  0  0  0  0  0  0  0  0  0  0  0
   59.8560   35.3370   46.1870 C   0  0  0  0  0  0  0  0  0  0  0  0
   59.9300   34.9830   47.5360 C   0  0  0  0  0  0  0  0  0  0  0  0
   59.3490   33.7920   47.9780 C   0  0  0  0  0  0  0  0  0  0  0  0
   58.6940   32.9520   47.0710 C   0  0  0  0  0  0  0  0  0  0  0  0
   57.0690   31.4310   45.1310 N   0  0  0  0  0  0  0  0  0  0  0  0
   58.3120   28.9640   46.8360 C   0  0  0  0  0  0  0  0  0  0  0  0
   61.6001   29.7900   46.3691 H   0  0  0  0  0  0  0  0  0  0  0  0
   61.0915   28.8802   44.1063 H   0  0  0  0  0  0  0  0  0  0  0  0
   58.8110   28.0208   43.5841 H   0  0  0  0  0  0  0  0  0  0  0  0
   56.6848   27.3484   44.3125 H   0  0  0  0  0  0  0  0  0  0  0  0
   56.3258   27.2864   46.0941 H   0  0  0  0  0  0  0  0  0  0  0  0
   55.7810   29.6870   45.8850 H   0  0  0  0  0  0  0  0  0  0  0  0
   56.1612   29.0379   43.0641 H   0  0  0  0  0  0  0  0  0  0  0  0
   54.7697   30.0877   43.5443 H   0  0  0  0  0  0  0  0  0  0  0  0
   57.2096   31.3309   41.8496 H   0  0  0  0  0  0  0  0  0  0  0  0
   59.1490   34.7837   44.2143 H   0  0  0  0  0  0  0  0  0  0  0  0
   60.3125   36.2758   45.8403 H   0  0  0  0  0  0  0  0  0  0  0  0
   60.4456   35.6418   48.2502 H   0  0  0  0  0  0  0  0  0  0  0  0
   59.4066   33.5142   49.0408 H   0  0  0  0  0  0  0  0  0  0  0  0
   58.2387   32.0147   47.4234 H   0  0  0  0  0  0  0  0  0  0  0  0
   57.5316   28.9688   47.6112 H   0  0  0  0  0  0  0  0  0  0  0  0
  1  2  1  0
  2  3  1  0
  2  4  1  0
  2  5  1  0
  5  6  2  0
  6  7  1  0
  7  8  2  0
  8  9  1  0
  9 10  1  0
 10 11  1  0
 11 12  1  0
 12 13  1  0
 13 14  2  0
 14 15  1  0
 15 16  1  0
 16 17  1  0
 17 18  2  0
 18 19  1  0
 19 20  2  0
 20 21  1  0
 21 22  2  0
 16 23  2  0
  9 24  2  0
 24  5  1  0
 23 13  1  0
 22 17  1  0
  6 25  1  0
  7 26  1  0
  8 27  1  0
 10 28  1  0
 10 29  1  0
 11 30  1  0
 12 31  1  0
 12 32  1  0
 14 33  1  0
 18 34  1  0
 19 35  1  0
 20 36  1  0
 21 37  1  0
 22 38  1  0
 24 39  1  0
M  END
>  <UniqueID>  (46) 
44

>  <SMILES>  (46) 
FC(F)(F)c1cccc(CNCc2coc(-c3ccccc3)n2)c1

>  <Energy>  (46) 
70.55752411136147

>  <Genealogy>  (46) 
FC(F)(F)c1cccc(CNCc2coc(-c3ccccc3)n2)c1 (3D coordinates assigned)
FC(F)(F)c1cccc(CNCc2coc(-c3ccccc3)n2)c1 (optimized conformer: 70.55752411136147 kcal/mol)

>  <smiles>  (46) 
FC(F)(F)c1cccc(CNCc2coc(-c3ccccc3)n2)c1

>  <score_type>  (46) 
oracle

>  <origin>  (46) 
adg

>  <m_score__min__energy>  (46) 
-7.4000000000000004

>  <m_primary>  (46) 
energy

$$$$
46:0
     RDKit          3D

 56 59  0  0  0  0  0  0  0  0999 V2000
   63.8431   34.7690   51.6527 H   0  0  0  0  0  0  0  0  0  0  0  0
   63.6930   34.1630   50.7470 C   0  0  0  0  0  0  0  0  0  0  0  0
   64.5480   33.0920   50.4740 C   0  0  0  0  0  0  0  0  0  0  0  0
   65.3728   32.8580   51.1631 H   0  0  0  0  0  0  0  0  0  0  0  0
   64.3560   32.3170   49.3250 C   0  0  0  0  0  0  0  0  0  0  0  0
   65.0349   31.4788   49.1093 H   0  0  0  0  0  0  0  0  0  0  0  0
   63.2990   32.6060   48.4460 C   0  0  0  0  0  0  0  0  0  0  0  0
   63.0900   31.7820   47.2020 C   0  0  0  0  0  0  0  0  0  0  0  0
   63.3860   30.7421   47.4043 H   0  0  0  0  0  0  0  0  0  0  0  0
   63.7034   32.2041   46.3923 H   0  0  0  0  0  0  0  0  0  0  0  0
   61.7200   31.8090   46.8000 O   0  0  0  0  0  0  0  0  0  0  0  0
   60.8160   30.7430   46.9290 C   0  0  0  0  0  0  0  0  0  0  0  0
   60.8420   29.6160   46.0850 C   0  0  0  0  0  0  0  0  0  0  0  0
   61.5910   29.5512   45.2820 H   0  0  0  0  0  0  0  0  0  0  0  0
   59.9210   28.5790   46.2620 C   0  0  0  0  0  0  0  0  0  0  0  0
   59.9463   27.7047   45.5949 H   0  0  0  0  0  0  0  0  0  0  0  0
   58.9650   28.6480   47.2860 C   0  0  0  0  0  0  0  0  0  0  0  0
   57.9500   27.5500   47.4550 C   0  0  0  0  0  0  0  0  0  0  0  0
   56.9805   27.9922   47.7280 H   0  0  0  0  0  0  0  0  0  0  0  0
   58.2925   26.8680   48.2472 H   0  0  0  0  0  0  0  0  0  0  0  0
   57.7940   26.7580   46.1530 C   0  0  0  0  0  0  0  0  0  0  0  0
   57.5101   25.7224   46.3918 H   0  0  0  0  0  0  0  0  0  0  0  0
   58.7510   26.7754   45.6110 H   0  0  0  0  0  0  0  0  0  0  0  0
   56.7620   27.3560   45.3060 N   0  0  0  0  0  0  0  0  0  0  0  0
   56.7520   28.5880   44.8920 C   0  0  0  0  0  0  0  0  0  0  0  0
   55.6740   29.3850   45.0110 N   0  0  0  0  0  0  0  0  0  0  0  0
   55.9940   30.5550   44.4800 N   0  0  0  0  0  0  0  0  0  0  0  0
   55.3410   31.3670   44.4130 H   0  0  0  0  0  0  0  0  0  0  0  0
   57.2630   30.5140   44.0310 C   0  0  0  0  0  0  0  0  0  0  0  0
   57.9370   31.6300   43.2900 C   0  0  0  0  0  0  0  0  0  0  0  0
   57.7173   31.5298   42.2168 H   0  0  0  0  0  0  0  0  0  0  0  0
   59.0189   31.5634   43.4773 H   0  0  0  0  0  0  0  0  0  0  0  0
   57.4500   33.0030   43.7720 C   0  0  0  0  0  0  0  0  0  0  0  0
   56.3647   32.9559   43.9449 H   0  0  0  0  0  0  0  0  0  0  0  0
   57.6936   33.7449   42.9972 H   0  0  0  0  0  0  0  0  0  0  0  0
   58.1310   33.4180   45.0510 C   0  0  0  0  0  0  0  0  0  0  0  0
   57.5870   33.0530   46.2930 C   0  0  0  0  0  0  0  0  0  0  0  0
   56.6778   32.4350   46.3319 H   0  0  0  0  0  0  0  0  0  0  0  0
   58.1950   33.4710   47.4800 C   0  0  0  0  0  0  0  0  0  0  0  0
   57.7671   33.1768   48.4497 H   0  0  0  0  0  0  0  0  0  0  0  0
   59.3470   34.2630   47.4360 C   0  0  0  0  0  0  0  0  0  0  0  0
   59.8252   34.5912   48.3706 H   0  0  0  0  0  0  0  0  0  0  0  0
   59.8900   34.6370   46.2040 C   0  0  0  0  0  0  0  0  0  0  0  0
   60.7954   35.2608   46.1698 H   0  0  0  0  0  0  0  0  0  0  0  0
   59.2850   34.2200   45.0150 C   0  0  0  0  0  0  0  0  0  0  0  0
   59.7135   34.5205   44.0475 H   0  0  0  0  0  0  0  0  0  0  0  0
   57.7910   29.2610   44.2660 C   0  0  0  0  0  0  0  0  0  0  0  0
   58.7946   28.8859   44.0168 H   0  0  0  0  0  0  0  0  0  0  0  0
   58.9260   29.7790   48.1160 C   0  0  0  0  0  0  0  0  0  0  0  0
   58.1674   29.8507   48.9094 H   0  0  0  0  0  0  0  0  0  0  0  0
   59.8480   30.8150   47.9380 C   0  0  0  0  0  0  0  0  0  0  0  0
   59.8125   31.6950   48.5970 H   0  0  0  0  0  0  0  0  0  0  0  0
   62.4520   33.6930   48.7210 C   0  0  0  0  0  0  0  0  0  0  0  0
   61.6323   33.9374   48.0294 H   0  0  0  0  0  0  0  0  0  0  0  0
   62.6470   34.4650   49.8700 C   0  0  0  0  0  0  0  0  0  0  0  0
   61.9770   35.3107   50.0842 H   0  0  0  0  0  0  0  0  0  0  0  0
  1  2  1  0
  2  3  2  0
  3  4  1  0
  3  5  1  0
  5  6  1  0
  5  7  2  0
  7  8  1  0
  8  9  1  0
  8 10  1  0
  8 11  1  0
 11 12  1  0
 12 13  2  0
 13 14  1  0
 13 15  1  0
 15 16  1  0
 15 17  2  0
 17 18  1  0
 18 19  1  0
 18 20  1  0
 18 21  1  0
 21 22  1  0
 21 23  1  0
 21 24  1  0
 24 25  2  0
 25 26  1  0
 26 27  1  0
 27 28  1  0
 27 29  1  0
 29 30  1  0
 30 31  1  0
 30 32  1  0
 30 33  1  0
 33 34  1  0
 33 35  1  0
 33 36  1  0
 36 37  2  0
 37 38  1  0
 37 39  1  0
 39 40  1  0
 39 41  2  0
 41 42  1  0
 41 43  1  0
 43 44  1  0
 43 45  2  0
 45 46  1  0
 29 47  2  0
 47 48  1  0
 17 49  1  0
 49 50  1  0
 49 51  2  0
 51 52  1  0
  7 53  1  0
 53 54  1  0
 53 55  2  0
 55 56  1  0
 55  2  1  0
 51 12  1  0
 47 25  1  0
 45 36  1  0
M  CHG  1  26  -1
M  END
>  <UniqueID>  (47) 
45

>  <SMILES>  (47) 
c1ccc(CCc2c/c(=N\CCc3ccc(OCc4ccccc4)cc3)[n-][nH]2)cc1

>  <Energy>  (47) 
83.46100747072794

>  <Genealogy>  (47) 
c1ccc(CCc2cc(=NCCc3ccc(OCc4ccccc4)cc3)[n-][nH]2)cc1 (protonated)
c1ccc(CCc2c/c(=N\CCc3ccc(OCc4ccccc4)cc3)[n-][nH]2)cc1 (cis-trans isomerization)
c1ccc(CCc2c/c(=N\CCc3ccc(OCc4ccccc4)cc3)[n-][nH]2)cc1 (3D coordinates assigned)
c1ccc(CCc2c/c(=N\CCc3ccc(OCc4ccccc4)cc3)[n-][nH]2)cc1 (optimized conformer: 83.46100747072794 kcal/mol)

>  <smiles>  (47) 
c1ccc(CCc2cc(=NCCc3ccc(OCc4ccccc4)cc3)[nH][nH]2)cc1

>  <score_type>  (47) 
oracle

>  <origin>  (47) 
adg

>  <m_score__min__energy>  (47) 
-11.109999999999999

>  <m_primary>  (47) 
energy

$$$$
47:0
     RDKit          3D

 63 66  0  0  0  0  0  0  0  0999 V2000
   57.9070   27.7410   43.5920 N   0  0  0  0  0  0  0  0  0  0  0  0
   58.4470   27.0790   44.5740 C   0  0  0  0  0  0  0  0  0  0  0  0
   57.9950   25.8130   45.0440 N   0  0  0  0  0  0  0  0  0  0  0  0
   56.8410   25.0100   44.6080 C   0  0  0  0  0  0  0  0  0  0  0  0
   57.2930   23.6360   44.0740 C   0  0  0  0  0  0  0  0  0  0  0  0
   56.1010   22.8200   43.5370 C   0  0  0  0  0  0  0  0  0  0  0  0
   54.7950   23.0180   44.3400 C   0  0  0  0  0  0  0  0  0  0  0  0
   55.0580   23.5460   45.7540 C   0  0  0  0  0  0  0  0  0  0  0  0
   55.7540   24.9190   45.7120 C   0  0  0  0  0  0  0  0  0  0  0  0
   58.8740   25.4090   46.1390 C   0  0  0  0  0  0  0  0  0  0  0  0
   59.8740   26.5710   46.3460 C   0  0  0  0  0  0  0  0  0  0  0  0
   59.5790   27.5340   45.2950 N   0  0  0  0  0  0  0  0  0  0  0  0
   60.3210   29.0970   45.1850 S   0  0  0  0  0  0  0  0  0  0  0  0
   61.6590   28.9730   44.5100 O   0  0  0  0  0  0  0  0  0  0  0  0
   59.4560   30.0080   44.3580 O   0  0  0  0  0  0  0  0  0  0  0  0
   60.5540   29.7550   46.8020 C   0  0  0  0  0  0  0  0  0  0  0  0
   61.5710   30.6890   47.0260 C   0  0  0  0  0  0  0  0  0  0  0  0
   61.7660   31.2280   48.3010 C   0  0  0  0  0  0  0  0  0  0  0  0
   60.9490   30.8300   49.3700 C   0  0  0  0  0  0  0  0  0  0  0  0
   61.1360   31.4360   50.7360 C   0  0  0  0  0  0  0  0  0  0  0  0
   60.5200   32.8400   50.8170 C   0  0  0  0  0  0  0  0  0  0  0  0
   60.2090   33.3660   49.4870 N   0  0  0  0  0  0  0  0  0  0  0  0
   58.9780   33.0680   48.8050 C   0  0  0  0  0  0  0  0  0  0  0  0
   58.1050   32.3580   49.3750 O   0  0  0  0  0  0  0  0  0  0  0  0
   58.7050   33.6000   47.4460 C   0  0  0  0  0  0  0  0  0  0  0  0
   57.5780   33.1520   46.7330 C   0  0  0  0  0  0  0  0  0  0  0  0
   57.3130   33.6330   45.4470 C   0  0  0  0  0  0  0  0  0  0  0  0
   58.1740   34.5580   44.8550 C   0  0  0  0  0  0  0  0  0  0  0  0
   59.3010   35.0060   45.5490 C   0  0  0  0  0  0  0  0  0  0  0  0
   59.5710   34.5290   46.8360 C   0  0  0  0  0  0  0  0  0  0  0  0
   59.9290   29.8900   49.1440 C   0  0  0  0  0  0  0  0  0  0  0  0
   59.7340   29.3540   47.8670 C   0  0  0  0  0  0  0  0  0  0  0  0
   56.9790   27.4920   43.1980 H   0  0  0  0  0  0  0  0  0  0  0  0
   58.3930   28.5560   43.1620 H   0  0  0  0  0  0  0  0  0  0  0  0
   56.3601   25.5260   43.7639 H   0  0  0  0  0  0  0  0  0  0  0  0
   58.0171   23.7891   43.2603 H   0  0  0  0  0  0  0  0  0  0  0  0
   57.7495   23.0760   44.9035 H   0  0  0  0  0  0  0  0  0  0  0  0
   55.9163   23.1210   42.4952 H   0  0  0  0  0  0  0  0  0  0  0  0
   56.3739   21.7582   43.6272 H   0  0  0  0  0  0  0  0  0  0  0  0
   54.1569   23.7378   43.8063 H   0  0  0  0  0  0  0  0  0  0  0  0
   54.3039   22.0380   44.4319 H   0  0  0  0  0  0  0  0  0  0  0  0
   54.0996   23.6451   46.2846 H   0  0  0  0  0  0  0  0  0  0  0  0
   55.7167   22.8359   46.2754 H   0  0  0  0  0  0  0  0  0  0  0  0
   54.9948   25.6920   45.5220 H   0  0  0  0  0  0  0  0  0  0  0  0
   56.2536   25.0663   46.6809 H   0  0  0  0  0  0  0  0  0  0  0  0
   58.2887   25.2427   47.0554 H   0  0  0  0  0  0  0  0  0  0  0  0
   59.3963   24.4694   45.9059 H   0  0  0  0  0  0  0  0  0  0  0  0
   59.7317   27.0280   47.3364 H   0  0  0  0  0  0  0  0  0  0  0  0
   60.9167   26.2237   46.2985 H   0  0  0  0  0  0  0  0  0  0  0  0
   62.2205   31.0009   46.1948 H   0  0  0  0  0  0  0  0  0  0  0  0
   62.5634   31.9673   48.4669 H   0  0  0  0  0  0  0  0  0  0  0  0
   60.6523   30.7897   51.4832 H   0  0  0  0  0  0  0  0  0  0  0  0
   62.2152   31.5204   50.9317 H   0  0  0  0  0  0  0  0  0  0  0  0
   59.5933   32.7904   51.4076 H   0  0  0  0  0  0  0  0  0  0  0  0
   61.2509   33.5111   51.2917 H   0  0  0  0  0  0  0  0  0  0  0  0
   60.9100   34.0060   49.0500 H   0  0  0  0  0  0  0  0  0  0  0  0
   56.8996   32.4172   47.1910 H   0  0  0  0  0  0  0  0  0  0  0  0
   56.4248   33.2818   44.9014 H   0  0  0  0  0  0  0  0  0  0  0  0
   57.9656   34.9342   43.8426 H   0  0  0  0  0  0  0  0  0  0  0  0
   59.9781   35.7362   45.0818 H   0  0  0  0  0  0  0  0  0  0  0  0
   60.4635   34.8808   47.3742 H   0  0  0  0  0  0  0  0  0  0  0  0
   59.2812   29.5744   49.9751 H   0  0  0  0  0  0  0  0  0  0  0  0
   58.9358   28.6163   47.6975 H   0  0  0  0  0  0  0  0  0  0  0  0
  1  2  2  0
  2  3  1  0
  3  4  1  0
  4  5  1  0
  5  6  1  0
  6  7  1  0
  7  8  1  0
  8  9  1  0
  3 10  1  0
 10 11  1  0
 11 12  1  0
 12 13  1  0
 13 14  2  0
 13 15  2  0
 13 16  1  0
 16 17  2  0
 17 18  1  0
 18 19  2  0
 19 20  1  0
 20 21  1  0
 21 22  1  0
 22 23  1  0
 23 24  2  0
 23 25  1  0
 25 26  2  0
 26 27  1  0
 27 28  2  0
 28 29  1  0
 29 30  2  0
 19 31  1  0
 31 32  2  0
 12  2  1  0
 32 16  1  0
  9  4  1  0
 30 25  1  0
  1 33  1  0
  1 34  1  0
  4 35  1  0
  5 36  1  0
  5 37  1  0
  6 38  1  0
  6 39  1  0
  7 40  1  0
  7 41  1  0
  8 42  1  0
  8 43  1  0
  9 44  1  0
  9 45  1  0
 10 46  1  0
 10 47  1  0
 11 48  1  0
 11 49  1  0
 17 50  1  0
 18 51  1  0
 20 52  1  0
 20 53  1  0
 21 54  1  0
 21 55  1  0
 22 56  1  0
 26 57  1  0
 27 58  1  0
 28 59  1  0
 29 60  1  0
 30 61  1  0
 31 62  1  0
 32 63  1  0
M  CHG  1   1   1
M  END
>  <UniqueID>  (48) 
46

>  <SMILES>  (48) 
[NH2+]=C1N(C2CCCCC2)CCN1S(=O)(=O)c1ccc(CCNC(=O)c2ccccc2)cc1

>  <Energy>  (48) 
79.19473712709438

>  <Genealogy>  (48) 
[NH2+]=C1N(C2CCCCC2)CCN1S(=O)(=O)c1ccc(CCNC(=O)c2ccccc2)cc1 (protonated)
[NH2+]=C1N(C2CCCCC2)CCN1S(=O)(=O)c1ccc(CCNC(=O)c2ccccc2)cc1 (3D coordinates assigned)
[NH2+]=C1N(C2CCCCC2)CCN1S(=O)(=O)c1ccc(CCNC(=O)c2ccccc2)cc1 (nonaromatic ring conformer: 79.19473712709438 kcal/mol)

>  <smiles>  (48) 
N=C1N(C2CCCCC2)CCN1S(=O)(=O)c1ccc(CCNC(=O)c2ccccc2)cc1

>  <score_type>  (48) 
oracle

>  <origin>  (48) 
adg

>  <m_score__min__energy>  (48) 
-8.5899999999999999

>  <m_primary>  (48) 
energy

$$$$
48:0
     RDKit          3D

 62 66  0  0  0  0  0  0  0  0999 V2000
   59.1630   23.1740   45.2880 C   0  0  0  0  0  0  0  0  0  0  0  0
   58.4040   23.9450   46.3620 C   0  0  0  0  0  0  0  0  0  0  0  0
   58.2610   25.3990   45.9840 C   0  0  0  0  0  0  0  0  0  0  0  0
   57.0510   26.0690   45.7510 C   0  0  0  0  0  0  0  0  0  0  0  0
   55.6790   25.5370   45.8880 C   0  0  0  0  0  0  0  0  0  0  0  0
   54.7090   26.3360   45.9740 O   0  0  0  0  0  0  0  0  0  0  0  0
   55.4600   24.1200   45.9180 N   0  0  0  0  0  0  0  0  0  0  0  0
   55.8390   23.1400   44.9400 C   0  0  0  0  0  0  0  0  0  0  0  0
   56.0850   23.5710   43.6260 C   0  0  0  0  0  0  0  0  0  0  0  0
   56.5160   22.6670   42.6490 C   0  0  0  0  0  0  0  0  0  0  0  0
   56.7040   21.3240   42.9770 C   0  0  0  0  0  0  0  0  0  0  0  0
   56.4610   20.8850   44.2830 C   0  0  0  0  0  0  0  0  0  0  0  0
   56.0480   21.7870   45.2660 C   0  0  0  0  0  0  0  0  0  0  0  0
   57.4010   27.3780   45.4570 C   0  0  0  0  0  0  0  0  0  0  0  0
   56.6160   28.5030   45.1940 C   0  0  0  0  0  0  0  0  0  0  0  0
   57.2650   29.7350   45.0040 C   0  0  0  0  0  0  0  0  0  0  0  0
   58.6730   29.8330   45.0780 C   0  0  0  0  0  0  0  0  0  0  0  0
   59.2650   31.0840   44.8640 O   0  0  0  0  0  0  0  0  0  0  0  0
   58.9040   32.2630   45.5310 C   0  0  0  0  0  0  0  0  0  0  0  0
   57.7900   32.9270   45.1220 N   0  0  0  0  0  0  0  0  0  0  0  0
   57.3970   34.0870   45.7160 C   0  0  0  0  0  0  0  0  0  0  0  0
   58.1170   34.6030   46.7440 N   0  0  0  0  0  0  0  0  0  0  0  0
   59.2480   33.9940   47.1860 C   0  0  0  0  0  0  0  0  0  0  0  0
   59.9880   34.5730   48.2230 C   0  0  0  0  0  0  0  0  0  0  0  0
   61.1830   33.9720   48.6660 C   0  0  0  0  0  0  0  0  0  0  0  0
   61.9470   34.5190   49.7100 O   0  0  0  0  0  0  0  0  0  0  0  0
   62.2430   33.8490   50.9290 C   0  0  0  0  0  0  0  0  0  0  0  0
   61.6350   32.7860   48.0630 C   0  0  0  0  0  0  0  0  0  0  0  0
   62.8520   32.2390   48.5000 O   0  0  0  0  0  0  0  0  0  0  0  0
   64.1350   32.8070   48.2540 C   0  0  0  0  0  0  0  0  0  0  0  0
   60.8860   32.2100   47.0150 C   0  0  0  0  0  0  0  0  0  0  0  0
   59.6830   32.7980   46.5820 C   0  0  0  0  0  0  0  0  0  0  0  0
   59.4410   28.6800   45.3680 C   0  0  0  0  0  0  0  0  0  0  0  0
   58.7690   27.4640   45.5460 C   0  0  0  0  0  0  0  0  0  0  0  0
   59.3050   26.2690   45.8710 N   0  0  0  0  0  0  0  0  0  0  0  0
   60.7330   26.0010   46.0660 C   0  0  0  0  0  0  0  0  0  0  0  0
   59.8581   22.4679   45.7657 H   0  0  0  0  0  0  0  0  0  0  0  0
   58.4492   22.6188   44.6617 H   0  0  0  0  0  0  0  0  0  0  0  0
   59.7293   23.8790   44.6617 H   0  0  0  0  0  0  0  0  0  0  0  0
   57.4033   23.5043   46.4819 H   0  0  0  0  0  0  0  0  0  0  0  0
   58.9682   23.8814   47.3041 H   0  0  0  0  0  0  0  0  0  0  0  0
   55.9375   24.6288   43.3627 H   0  0  0  0  0  0  0  0  0  0  0  0
   56.7065   23.0149   41.6230 H   0  0  0  0  0  0  0  0  0  0  0  0
   57.0426   20.6117   42.2102 H   0  0  0  0  0  0  0  0  0  0  0  0
   56.5960   19.8233   44.5370 H   0  0  0  0  0  0  0  0  0  0  0  0
   55.8858   21.4393   46.2969 H   0  0  0  0  0  0  0  0  0  0  0  0
   55.5201   28.4268   45.1372 H   0  0  0  0  0  0  0  0  0  0  0  0
   56.6689   30.6355   44.7948 H   0  0  0  0  0  0  0  0  0  0  0  0
   57.2160   32.5380   44.3390 H   0  0  0  0  0  0  0  0  0  0  0  0
   56.4945   34.6069   45.3622 H   0  0  0  0  0  0  0  0  0  0  0  0
   59.6350   35.5019   48.6947 H   0  0  0  0  0  0  0  0  0  0  0  0
   61.9601   34.4894   51.7774 H   0  0  0  0  0  0  0  0  0  0  0  0
   61.6774   32.9067   50.9762 H   0  0  0  0  0  0  0  0  0  0  0  0
   63.3205   33.6326   50.9762 H   0  0  0  0  0  0  0  0  0  0  0  0
   64.6290   33.0257   49.2122 H   0  0  0  0  0  0  0  0  0  0  0  0
   64.7469   32.0957   47.6799 H   0  0  0  0  0  0  0  0  0  0  0  0
   64.0198   33.7382   47.6799 H   0  0  0  0  0  0  0  0  0  0  0  0
   61.2467   31.2905   46.5308 H   0  0  0  0  0  0  0  0  0  0  0  0
   60.5363   28.7374   45.4514 H   0  0  0  0  0  0  0  0  0  0  0  0
   60.9546   25.9594   47.1427 H   0  0  0  0  0  0  0  0  0  0  0  0
   60.9923   25.0385   45.6008 H   0  0  0  0  0  0  0  0  0  0  0  0
   61.3236   26.8040   45.6008 H   0  0  0  0  0  0  0  0  0  0  0  0
  1  2  1  0
  2  3  1  0
  3  4  2  0
  4  5  1  0
  5  6  2  0
  5  7  1  0
  7  8  1  0
  8  9  2  0
  9 10  1  0
 10 11  2  0
 11 12  1  0
 12 13  2  0
  4 14  1  0
 14 15  2  0
 15 16  1  0
 16 17  2  0
 17 18  1  0
 18 19  1  0
 19 20  2  0
 20 21  1  0
 21 22  2  0
 22 23  1  0
 23 24  2  0
 24 25  1  0
 25 26  1  0
 26 27  1  0
 25 28  2  0
 28 29  1  0
 29 30  1  0
 28 31  1  0
 31 32  2  0
 17 33  1  0
 33 34  2  0
 34 35  1  0
 35 36  1  0
 35  3  1  0
 13  8  1  0
 34 14  1  0
 32 19  1  0
 32 23  1  0
  1 37  1  0
  1 38  1  0
  1 39  1  0
  2 40  1  0
  2 41  1  0
  9 42  1  0
 10 43  1  0
 11 44  1  0
 12 45  1  0
 13 46  1  0
 15 47  1  0
 16 48  1  0
 20 49  1  0
 21 50  1  0
 24 51  1  0
 27 52  1  0
 27 53  1  0
 27 54  1  0
 30 55  1  0
 30 56  1  0
 30 57  1  0
 31 58  1  0
 33 59  1  0
 36 60  1  0
 36 61  1  0
 36 62  1  0
M  CHG  2   7  -1  20   1
M  END
>  <UniqueID>  (49) 
47

>  <SMILES>  (49) 
CCc1c(C(=O)[N-]c2ccccc2)c2ccc(Oc3[nH+]cnc4cc(OC)c(OC)cc34)cc2n1C

>  <Energy>  (49) 
119.85000866998003

>  <Genealogy>  (49) 
CCc1c(C(=O)[N-]c2ccccc2)c2ccc(Oc3[nH+]cnc4cc(OC)c(OC)cc34)cc2n1C (protonated)
CCc1c(C(=O)[N-]c2ccccc2)c2ccc(Oc3[nH+]cnc4cc(OC)c(OC)cc34)cc2n1C (3D coordinates assigned)
CCc1c(C(=O)[N-]c2ccccc2)c2ccc(Oc3[nH+]cnc4cc(OC)c(OC)cc34)cc2n1C (optimized conformer: 119.85000866998003 kcal/mol)

>  <smiles>  (49) 
CCc1c(C(=O)Nc2ccccc2)c2ccc(Oc3ncnc4cc(OC)c(OC)cc34)cc2n1C

>  <score_type>  (49) 
oracle

>  <origin>  (49) 
adg

>  <m_score__min__energy>  (49) 
-8.7799999999999994

>  <m_primary>  (49) 
energy

$$$$
49:0
     RDKit          3D

 44 46  0  0  0  0  0  0  0  0999 V2000
   60.3970   22.5580   45.2430 C   0  0  0  0  0  0  0  0  0  0  0  0
   59.1280   21.9160   45.1940 O   0  0  0  0  0  0  0  0  0  0  0  0
   58.0270   22.3760   44.4530 C   0  0  0  0  0  0  0  0  0  0  0  0
   57.4620   21.6110   43.4100 C   0  0  0  0  0  0  0  0  0  0  0  0
   56.3650   22.0940   42.6920 C   0  0  0  0  0  0  0  0  0  0  0  0
   55.8190   23.3400   43.0050 C   0  0  0  0  0  0  0  0  0  0  0  0
   56.3630   24.1050   44.0400 C   0  0  0  0  0  0  0  0  0  0  0  0
   57.4700   23.6330   44.7730 C   0  0  0  0  0  0  0  0  0  0  0  0
   58.0450   24.4200   45.8350 N   0  0  0  0  0  0  0  0  0  0  0  0
   57.2500   25.7970   46.5330 S   0  0  0  0  0  0  0  0  0  0  0  0
   57.4910   25.8000   48.0170 O   0  0  0  0  0  0  0  0  0  0  0  0
   55.7710   25.6640   46.3000 O   0  0  0  0  0  0  0  0  0  0  0  0
   57.9380   27.2810   45.8500 C   0  0  0  0  0  0  0  0  0  0  0  0
   57.0300   28.2310   45.3550 C   0  0  0  0  0  0  0  0  0  0  0  0
   57.4770   29.4270   44.7690 C   0  0  0  0  0  0  0  0  0  0  0  0
   56.5150   30.4130   44.2210 C   0  0  0  0  0  0  0  0  0  0  0  0
   55.9020   30.1500   43.1510 O   0  0  0  0  0  0  0  0  0  0  0  0
   56.2880   31.6860   44.8410 N   0  0  0  0  0  0  0  0  0  0  0  0
   57.2800   32.6720   45.1720 C   0  0  0  0  0  0  0  0  0  0  0  0
   57.3930   33.0960   46.5050 C   0  0  0  0  0  0  0  0  0  0  0  0
   58.3270   34.0720   46.8630 C   0  0  0  0  0  0  0  0  0  0  0  0
   59.1630   34.6260   45.8900 C   0  0  0  0  0  0  0  0  0  0  0  0
   59.0780   34.1900   44.5630 C   0  0  0  0  0  0  0  0  0  0  0  0
   58.1510   33.2080   44.2030 C   0  0  0  0  0  0  0  0  0  0  0  0
   58.8530   29.6890   44.7190 C   0  0  0  0  0  0  0  0  0  0  0  0
   59.7670   28.7560   45.2140 C   0  0  0  0  0  0  0  0  0  0  0  0
   59.3260   27.5490   45.7710 C   0  0  0  0  0  0  0  0  0  0  0  0
   60.6910   26.3480   46.3950 Br  0  0  0  0  0  0  0  0  0  0  0  0
   60.6921   22.7073   46.2921 H   0  0  0  0  0  0  0  0  0  0  0  0
   61.1454   21.9301   44.7374 H   0  0  0  0  0  0  0  0  0  0  0  0
   60.3345   23.5329   44.7374 H   0  0  0  0  0  0  0  0  0  0  0  0
   57.8882   20.6280   43.1608 H   0  0  0  0  0  0  0  0  0  0  0  0
   55.9314   21.4921   41.8797 H   0  0  0  0  0  0  0  0  0  0  0  0
   54.9583   23.7206   42.4354 H   0  0  0  0  0  0  0  0  0  0  0  0
   55.9236   25.0834   44.2845 H   0  0  0  0  0  0  0  0  0  0  0  0
   58.9220   24.0950   46.3040 H   0  0  0  0  0  0  0  0  0  0  0  0
   55.9500   28.0353   45.4273 H   0  0  0  0  0  0  0  0  0  0  0  0
   56.7411   32.6565   47.2744 H   0  0  0  0  0  0  0  0  0  0  0  0
   58.4039   34.4035   47.9090 H   0  0  0  0  0  0  0  0  0  0  0  0
   59.8882   35.4052   46.1673 H   0  0  0  0  0  0  0  0  0  0  0  0
   59.7431   34.6217   43.8006 H   0  0  0  0  0  0  0  0  0  0  0  0
   58.1014   32.8535   43.1629 H   0  0  0  0  0  0  0  0  0  0  0  0
   59.2149   30.6341   44.2878 H   0  0  0  0  0  0  0  0  0  0  0  0
   60.8446   28.9715   45.1659 H   0  0  0  0  0  0  0  0  0  0  0  0
  1  2  1  0
  2  3  1  0
  3  4  2  0
  4  5  1  0
  5  6  2  0
  6  7  1  0
  7  8  2  0
  8  9  1  0
  9 10  1  0
 10 11  2  0
 10 12  2  0
 10 13  1  0
 13 14  2  0
 14 15  1  0
 15 16  1  0
 16 17  2  0
 16 18  1  0
 18 19  1  0
 19 20  2  0
 20 21  1  0
 21 22  2  0
 22 23  1  0
 23 24  2  0
 15 25  2  0
 25 26  1  0
 26 27  2  0
 27 28  1  0
  8  3  1  0
 27 13  1  0
 24 19  1  0
  1 29  1  0
  1 30  1  0
  1 31  1  0
  4 32  1  0
  5 33  1  0
  6 34  1  0
  7 35  1  0
  9 36  1  0
 14 37  1  0
 20 38  1  0
 21 39  1  0
 22 40  1  0
 23 41  1  0
 24 42  1  0
 25 43  1  0
 26 44  1  0
M  CHG  1  18  -1
M  END
>  <UniqueID>  (50) 
48

>  <SMILES>  (50) 
COc1ccccc1NS(=O)(=O)c1cc(C(=O)[N-]c2ccccc2)ccc1Br

>  <Energy>  (50) 
60.72531147172825

>  <Genealogy>  (50) 
COc1ccccc1NS(=O)(=O)c1cc(C(=O)[N-]c2ccccc2)ccc1Br (protonated)
COc1ccccc1NS(=O)(=O)c1cc(C(=O)[N-]c2ccccc2)ccc1Br (3D coordinates assigned)
COc1ccccc1NS(=O)(=O)c1cc(C(=O)[N-]c2ccccc2)ccc1Br (optimized conformer: 60.72531147172825 kcal/mol)

>  <smiles>  (50) 
COc1ccccc1NS(=O)(=O)c1cc(C(=O)Nc2ccccc2)ccc1Br

>  <score_type>  (50) 
oracle

>  <origin>  (50) 
adg

>  <m_score__min__energy>  (50) 
-10.970000000000001

>  <m_primary>  (50) 
energy

$$$$
50:0
     RDKit          3D

 64 68  0  0  1  0  0  0  0  0999 V2000
   56.5410   28.2760   45.2590 O   0  0  0  0  0  0  0  0  0  0  0  0
   57.1050   26.9810   45.3690 C   0  0  0  0  0  0  0  0  0  0  0  0
   58.5510   27.0960   45.8280 C   0  0  2  0  0  0  0  0  0  0  0  0
   58.6870   27.6600   47.0850 O   0  0  0  0  0  0  0  0  0  0  0  0
   58.5450   29.0140   46.8530 C   0  0  1  0  0  0  0  0  0  0  0  0
   58.8220   29.8120   48.0370 N   0  0  0  0  0  0  0  0  0  0  0  0
   58.8960   29.2860   49.2850 C   0  0  0  0  0  0  0  0  0  0  0  0
   59.1640   30.2860   50.1400 N   0  0  0  0  0  0  0  0  0  0  0  0
   59.2540   31.4130   49.4270 C   0  0  0  0  0  0  0  0  0  0  0  0
   59.5050   32.7320   49.7420 C   0  0  0  0  0  0  0  0  0  0  0  0
   59.7080   33.0360   50.9650 N   0  0  0  0  0  0  0  0  0  0  0  0
   60.9800   33.3440   51.5760 C   0  0  0  0  0  0  0  0  0  0  0  0
   62.1300   33.1340   50.6560 C   0  0  0  0  0  0  0  0  0  0  0  0
   62.4330   33.9920   49.6180 C   0  0  0  0  0  0  0  0  0  0  0  0
   63.5070   33.7940   48.7660 C   0  0  0  0  0  0  0  0  0  0  0  0
   64.3340   32.7050   48.9270 C   0  0  0  0  0  0  0  0  0  0  0  0
   64.0580   31.8360   49.9490 C   0  0  0  0  0  0  0  0  0  0  0  0
   62.9900   32.0370   50.7930 C   0  0  0  0  0  0  0  0  0  0  0  0
   59.5490   33.7190   48.8330 N   0  0  0  0  0  0  0  0  0  0  0  0
   59.3350   33.4100   47.5300 C   0  0  0  0  0  0  0  0  0  0  0  0
   59.3840   34.3770   46.6970 N   0  0  0  0  0  0  0  0  0  0  0  0
   59.5390   34.0890   45.2900 C   0  0  0  0  0  0  0  0  0  0  0  0
   58.2690   34.3750   44.5090 C   0  0  0  0  0  0  0  0  0  0  0  0
   57.7540   33.0640   44.0320 C   0  0  0  0  0  0  0  0  0  0  0  0
   57.0150   32.2640   44.8810 C   0  0  0  0  0  0  0  0  0  0  0  0
   56.5140   31.0400   44.4930 C   0  0  0  0  0  0  0  0  0  0  0  0
   56.7490   30.5800   43.2140 C   0  0  0  0  0  0  0  0  0  0  0  0
   56.2230   29.3440   42.8760 O   0  0  0  0  0  0  0  0  0  0  0  0
   57.4850   31.3590   42.3440 C   0  0  0  0  0  0  0  0  0  0  0  0
   57.9840   32.5940   42.7550 C   0  0  0  0  0  0  0  0  0  0  0  0
   59.0820   32.1220   47.1610 N   0  0  0  0  0  0  0  0  0  0  0  0
   59.0410   31.1380   48.0770 C   0  0  0  0  0  0  0  0  0  0  0  0
   59.5670   29.2520   45.7680 C   0  0  2  0  0  0  0  0  0  0  0  0
   59.2300   30.3680   44.9880 O   0  0  0  0  0  0  0  0  0  0  0  0
   59.3800   27.9940   44.9460 C   0  0  2  0  0  0  0  0  0  0  0  0
   58.7080   28.3000   43.7520 O   0  0  0  0  0  0  0  0  0  0  0  0
   57.1640   28.8950   44.8070 H   0  0  0  0  0  0  0  0  0  0  0  0
   56.5332   26.3929   46.1019 H   0  0  0  0  0  0  0  0  0  0  0  0
   57.0693   26.4807   44.3900 H   0  0  0  0  0  0  0  0  0  0  0  0
   58.8916   26.0503   45.8042 H   0  0  0  0  0  0  0  0  0  0  0  0
   57.5207   29.3033   46.5751 H   0  0  0  0  0  0  0  0  0  0  0  0
   58.7604   28.2270   49.5499 H   0  0  0  0  0  0  0  0  0  0  0  0
   60.9715   34.3975   51.8924 H   0  0  0  0  0  0  0  0  0  0  0  0
   61.1105   32.6615   52.4288 H   0  0  0  0  0  0  0  0  0  0  0  0
   61.7928   34.8725   49.4604 H   0  0  0  0  0  0  0  0  0  0  0  0
   63.7005   34.5117   47.9552 H   0  0  0  0  0  0  0  0  0  0  0  0
   65.1895   32.5382   48.2559 H   0  0  0  0  0  0  0  0  0  0  0  0
   64.7041   30.9584   50.0983 H   0  0  0  0  0  0  0  0  0  0  0  0
   62.8058   31.3134   51.6007 H   0  0  0  0  0  0  0  0  0  0  0  0
   59.7410   34.7080   49.1020 H   0  0  0  0  0  0  0  0  0  0  0  0
   60.3516   34.7114   44.8873 H   0  0  0  0  0  0  0  0  0  0  0  0
   59.7693   33.0185   45.1851 H   0  0  0  0  0  0  0  0  0  0  0  0
   57.5258   34.8601   45.1589 H   0  0  0  0  0  0  0  0  0  0  0  0
   58.4684   35.0517   43.6650 H   0  0  0  0  0  0  0  0  0  0  0  0
   56.8190   32.6165   45.9044 H   0  0  0  0  0  0  0  0  0  0  0  0
   55.9295   30.4329   45.1999 H   0  0  0  0  0  0  0  0  0  0  0  0
   56.6810   28.4720   43.1260 H   0  0  0  0  0  0  0  0  0  0  0  0
   57.6787   31.0034   41.3212 H   0  0  0  0  0  0  0  0  0  0  0  0
   58.5699   33.2031   42.0509 H   0  0  0  0  0  0  0  0  0  0  0  0
   58.9190   31.8880   46.1590 H   0  0  0  0  0  0  0  0  0  0  0  0
   60.5850   29.4405   46.1397 H   0  0  0  0  0  0  0  0  0  0  0  0
   59.3030   30.1260   44.0310 H   0  0  0  0  0  0  0  0  0  0  0  0
   60.3287   27.5194   44.6551 H   0  0  0  0  0  0  0  0  0  0  0  0
   58.0880   29.0410   43.9370 H   0  0  0  0  0  0  0  0  0  0  0  0
  1  2  1  0
  2  3  1  0
  3  4  1  0
  4  5  1  0
  5  6  1  0
  6  7  1  0
  7  8  2  0
  8  9  1  0
  9 10  1  0
 10 11  2  0
 11 12  1  0
 12 13  1  0
 13 14  2  0
 14 15  1  0
 15 16  2  0
 16 17  1  0
 17 18  2  0
 10 19  1  0
 19 20  1  0
 20 21  2  0
 21 22  1  0
 22 23  1  0
 23 24  1  0
 24 25  2  0
 25 26  1  0
 26 27  2  0
 27 28  1  0
 27 29  1  0
 29 30  2  0
 20 31  1  0
 31 32  1  0
  5 33  1  0
 33 34  1  0
 33 35  1  0
 35 36  1  0
 35  3  1  0
 32  6  1  0
 32  9  2  0
 18 13  1  0
 30 24  1  0
  1 37  1  0
  2 38  1  0
  2 39  1  0
  3 40  1  1
  5 41  1  6
  7 42  1  0
 12 43  1  0
 12 44  1  0
 14 45  1  0
 15 46  1  0
 16 47  1  0
 17 48  1  0
 18 49  1  0
 19 50  1  0
 22 51  1  0
 22 52  1  0
 23 53  1  0
 23 54  1  0
 25 55  1  0
 26 56  1  0
 28 57  1  0
 29 58  1  0
 30 59  1  0
 31 60  1  0
 33 61  1  1
 34 62  1  0
 35 63  1  6
 36 64  1  0
M  END
>  <smiles>  (51) 
OCC1OC(n2cnc3c(=NCc4ccccc4)[nH]c(=NCCc4ccc(O)cc4)[nH]c32)C(O)C1O

>  <score_type>  (51) 
oracle

>  <origin>  (51) 
adg

>  <m_score__min__energy>  (51) 
-10.15

>  <m_primary>  (51) 
energy

$$$$
51:0
     RDKit          3D

 51 53  0  0  0  0  0  0  0  0999 V2000
   57.3150   21.6180   43.5060 C   0  0  0  0  0  0  0  0  0  0  0  0
   56.8050   23.0250   43.7770 C   0  0  0  0  0  0  0  0  0  0  0  0
   57.2010   23.4340   45.0850 O   0  0  0  0  0  0  0  0  0  0  0  0
   57.4940   24.7580   45.4480 C   0  0  0  0  0  0  0  0  0  0  0  0
   56.4960   25.7410   45.5930 C   0  0  0  0  0  0  0  0  0  0  0  0
   56.8400   27.0460   45.9570 C   0  0  0  0  0  0  0  0  0  0  0  0
   58.1780   27.3850   46.1850 C   0  0  0  0  0  0  0  0  0  0  0  0
   58.6280   29.0350   46.5980 S   0  0  0  0  0  0  0  0  0  0  0  0
   59.9230   29.3730   45.9160 O   0  0  0  0  0  0  0  0  0  0  0  0
   58.8170   29.1930   48.0800 O   0  0  0  0  0  0  0  0  0  0  0  0
   57.3940   30.1060   46.0230 N   0  0  0  0  0  0  0  0  0  0  0  0
   57.4080   30.7570   44.7450 C   0  0  0  0  0  0  0  0  0  0  0  0
   56.8510   30.1270   43.6180 C   0  0  0  0  0  0  0  0  0  0  0  0
   56.8730   30.7560   42.3720 C   0  0  0  0  0  0  0  0  0  0  0  0
   57.4570   32.0130   42.2330 C   0  0  0  0  0  0  0  0  0  0  0  0
   58.0220   32.6490   43.3400 C   0  0  0  0  0  0  0  0  0  0  0  0
   57.9980   32.0370   44.6090 C   0  0  0  0  0  0  0  0  0  0  0  0
   58.6810   32.7080   45.7430 C   0  0  0  0  0  0  0  0  0  0  0  0
   58.5410   33.9500   45.9090 O   0  0  0  0  0  0  0  0  0  0  0  0
   59.5090   31.9720   46.6510 N   0  0  0  0  0  0  0  0  0  0  0  0
   60.8460   32.3750   47.0020 C   0  0  0  0  0  0  0  0  0  0  0  0
   61.4360   33.5100   46.4090 C   0  0  0  0  0  0  0  0  0  0  0  0
   62.7480   33.8690   46.7160 C   0  0  0  0  0  0  0  0  0  0  0  0
   63.4920   33.1010   47.6100 C   0  0  0  0  0  0  0  0  0  0  0  0
   62.9280   31.9660   48.1970 C   0  0  0  0  0  0  0  0  0  0  0  0
   61.6030   31.5910   47.8970 C   0  0  0  0  0  0  0  0  0  0  0  0
   61.0110   30.4520   48.4710 O   0  0  0  0  0  0  0  0  0  0  0  0
   61.2100   30.0270   49.8180 C   0  0  0  0  0  0  0  0  0  0  0  0
   59.1730   26.4110   46.0320 C   0  0  0  0  0  0  0  0  0  0  0  0
   58.8300   25.1060   45.6690 C   0  0  0  0  0  0  0  0  0  0  0  0
   57.5009   21.1051   44.4612 H   0  0  0  0  0  0  0  0  0  0  0  0
   56.5621   21.0596   42.9304 H   0  0  0  0  0  0  0  0  0  0  0  0
   58.2509   21.6717   42.9304 H   0  0  0  0  0  0  0  0  0  0  0  0
   57.2274   23.7170   43.0335 H   0  0  0  0  0  0  0  0  0  0  0  0
   55.7072   23.0352   43.7078 H   0  0  0  0  0  0  0  0  0  0  0  0
   55.4415   25.4808   45.4191 H   0  0  0  0  0  0  0  0  0  0  0  0
   56.0555   27.8095   46.0646 H   0  0  0  0  0  0  0  0  0  0  0  0
   56.3946   29.1313   43.7190 H   0  0  0  0  0  0  0  0  0  0  0  0
   56.4282   30.2579   41.4979 H   0  0  0  0  0  0  0  0  0  0  0  0
   57.4730   32.5053   41.2494 H   0  0  0  0  0  0  0  0  0  0  0  0
   58.4903   33.6371   43.2204 H   0  0  0  0  0  0  0  0  0  0  0  0
   59.1440   31.0560   46.9990 H   0  0  0  0  0  0  0  0  0  0  0  0
   60.8565   34.1174   45.6982 H   0  0  0  0  0  0  0  0  0  0  0  0
   63.1965   34.7597   46.2519 H   0  0  0  0  0  0  0  0  0  0  0  0
   64.5252   33.3893   47.8537 H   0  0  0  0  0  0  0  0  0  0  0  0
   63.5218   31.3609   48.8979 H   0  0  0  0  0  0  0  0  0  0  0  0
   60.8459   30.8047   50.5055 H   0  0  0  0  0  0  0  0  0  0  0  0
   60.6554   29.0934   49.9937 H   0  0  0  0  0  0  0  0  0  0  0  0
   62.2822   29.8551   49.9937 H   0  0  0  0  0  0  0  0  0  0  0  0
   60.2280   26.6744   46.1982 H   0  0  0  0  0  0  0  0  0  0  0  0
   59.6175   24.3463   45.5562 H   0  0  0  0  0  0  0  0  0  0  0  0
  1  2  1  0
  2  3  1  0
  3  4  1  0
  4  5  2  0
  5  6  1  0
  6  7  2  0
  7  8  1  0
  8  9  2  0
  8 10  2  0
  8 11  1  0
 11 12  1  0
 12 13  2  0
 13 14  1  0
 14 15  2  0
 15 16  1  0
 16 17  2  0
 17 18  1  0
 18 19  2  0
 18 20  1  0
 20 21  1  0
 21 22  2  0
 22 23  1  0
 23 24  2  0
 24 25  1  0
 25 26  2  0
 26 27  1  0
 27 28  1  0
  7 29  1  0
 29 30  2  0
 30  4  1  0
 17 12  1  0
 26 21  1  0
  1 31  1  0
  1 32  1  0
  1 33  1  0
  2 34  1  0
  2 35  1  0
  5 36  1  0
  6 37  1  0
 13 38  1  0
 14 39  1  0
 15 40  1  0
 16 41  1  0
 20 42  1  0
 22 43  1  0
 23 44  1  0
 24 45  1  0
 25 46  1  0
 28 47  1  0
 28 48  1  0
 28 49  1  0
 29 50  1  0
 30 51  1  0
M  CHG  1  11  -1
M  END
>  <UniqueID>  (52) 
49

>  <SMILES>  (52) 
CCOc1ccc(S(=O)(=O)[N-]c2ccccc2C(=O)Nc2ccccc2OC)cc1

>  <Energy>  (52) 
62.627442588331284

>  <Genealogy>  (52) 
CCOc1ccc(S(=O)(=O)[N-]c2ccccc2C(=O)Nc2ccccc2OC)cc1 (protonated)
CCOc1ccc(S(=O)(=O)[N-]c2ccccc2C(=O)Nc2ccccc2OC)cc1 (3D coordinates assigned)
CCOc1ccc(S(=O)(=O)[N-]c2ccccc2C(=O)Nc2ccccc2OC)cc1 (optimized conformer: 62.627442588331284 kcal/mol)

>  <smiles>  (52) 
CCOc1ccc(S(=O)(=O)Nc2ccccc2C(=O)Nc2ccccc2OC)cc1

>  <score_type>  (52) 
oracle

>  <origin>  (52) 
adg

>  <m_score__min__energy>  (52) 
-8.9600000000000009

>  <m_primary>  (52) 
energy

$$$$
52:0
     RDKit          3D

 46 48  0  0  0  0  0  0  0  0999 V2000
   57.7110   31.9610   41.9790 C   0  0  0  0  0  0  0  0  0  0  0  0
   58.0060   32.2320   43.4310 C   0  0  0  0  0  0  0  0  0  0  0  0
   58.6230   33.4020   43.7670 N   0  0  0  0  0  0  0  0  0  0  0  0
   58.9090   33.6730   45.0620 C   0  0  0  0  0  0  0  0  0  0  0  0
   59.6330   35.0800   45.6210 S   0  0  0  0  0  0  0  0  0  0  0  0
   59.5790   34.5740   47.2290 C   0  0  0  0  0  0  0  0  0  0  0  0
   58.9900   33.3080   47.2840 C   0  0  0  0  0  0  0  0  0  0  0  0
   58.7950   32.5910   48.5880 C   0  0  0  0  0  0  0  0  0  0  0  0
   58.6190   32.8090   46.0590 N   0  0  0  0  0  0  0  0  0  0  0  0
   58.0210   31.6090   45.7820 C   0  0  0  0  0  0  0  0  0  0  0  0
   57.7610   30.7960   46.7100 O   0  0  0  0  0  0  0  0  0  0  0  0
   57.6860   31.2910   44.4460 C   0  0  0  0  0  0  0  0  0  0  0  0
   56.8390   29.7670   44.0580 S   0  0  0  0  0  0  0  0  0  0  0  0
   56.0030   29.3600   45.2380 O   0  0  0  0  0  0  0  0  0  0  0  0
   55.9120   29.9560   42.8910 O   0  0  0  0  0  0  0  0  0  0  0  0
   57.9390   28.4680   43.6750 N   0  0  0  0  0  0  0  0  0  0  0  0
   58.2650   27.6390   44.8400 C   0  0  0  0  0  0  0  0  0  0  0  0
   59.1080   28.3730   45.8520 C   0  0  0  0  0  0  0  0  0  0  0  0
   58.8730   28.2250   47.2250 C   0  0  0  0  0  0  0  0  0  0  0  0
   59.6630   28.9040   48.1570 C   0  0  0  0  0  0  0  0  0  0  0  0
   60.7010   29.7680   47.7380 C   0  0  0  0  0  0  0  0  0  0  0  0
   61.5390   30.4620   48.7070 N   0  0  0  0  0  0  0  0  0  0  0  0
   62.4220   31.5590   48.2850 C   0  0  0  0  0  0  0  0  0  0  0  0
   61.5290   30.0710   50.1240 C   0  0  0  0  0  0  0  0  0  0  0  0
   60.9000   29.9370   46.3500 C   0  0  0  0  0  0  0  0  0  0  0  0
   60.1090   29.2550   45.4230 C   0  0  0  0  0  0  0  0  0  0  0  0
   56.9029   31.2187   41.9014 H   0  0  0  0  0  0  0  0  0  0  0  0
   57.3997   32.8946   41.4876 H   0  0  0  0  0  0  0  0  0  0  0  0
   58.6149   31.5718   41.4876 H   0  0  0  0  0  0  0  0  0  0  0  0
   58.8730   34.1030   43.0340 H   0  0  0  0  0  0  0  0  0  0  0  0
   59.9471   35.1468   48.0930 H   0  0  0  0  0  0  0  0  0  0  0  0
   58.9838   33.2853   49.4200 H   0  0  0  0  0  0  0  0  0  0  0  0
   57.7625   32.2168   48.6499 H   0  0  0  0  0  0  0  0  0  0  0  0
   59.4958   31.7454   48.6499 H   0  0  0  0  0  0  0  0  0  0  0  0
   57.3280   27.3245   45.3228 H   0  0  0  0  0  0  0  0  0  0  0  0
   58.8457   26.7752   44.4841 H   0  0  0  0  0  0  0  0  0  0  0  0
   58.0607   27.5696   47.5723 H   0  0  0  0  0  0  0  0  0  0  0  0
   59.4745   28.7642   49.2317 H   0  0  0  0  0  0  0  0  0  0  0  0
   62.8289   32.0645   49.1732 H   0  0  0  0  0  0  0  0  0  0  0  0
   63.2486   31.1535   47.6830 H   0  0  0  0  0  0  0  0  0  0  0  0
   61.8493   32.2798   47.6830 H   0  0  0  0  0  0  0  0  0  0  0  0
   61.5521   30.9729   50.7534 H   0  0  0  0  0  0  0  0  0  0  0  0
   60.6159   29.4967   50.3395 H   0  0  0  0  0  0  0  0  0  0  0  0
   62.4116   29.4508   50.3395 H   0  0  0  0  0  0  0  0  0  0  0  0
   61.6893   30.6155   45.9941 H   0  0  0  0  0  0  0  0  0  0  0  0
   60.2731   29.4115   44.3466 H   0  0  0  0  0  0  0  0  0  0  0  0
  1  2  1  0
  2  3  1  0
  3  4  2  0
  4  5  1  0
  5  6  1  0
  6  7  2  0
  7  8  1  0
  7  9  1  0
  9 10  1  0
 10 11  2  0
 10 12  1  0
 12 13  1  0
 13 14  2  0
 13 15  2  0
 13 16  1  0
 16 17  1  0
 17 18  1  0
 18 19  2  0
 19 20  1  0
 20 21  2  0
 21 22  1  0
 22 23  1  0
 22 24  1  0
 21 25  1  0
 25 26  2  0
 12  2  2  0
 26 18  1  0
  9  4  1  0
  1 27  1  0
  1 28  1  0
  1 29  1  0
  3 30  1  0
  6 31  1  0
  8 32  1  0
  8 33  1  0
  8 34  1  0
 17 35  1  0
 17 36  1  0
 19 37  1  0
 20 38  1  0
 23 39  1  0
 23 40  1  0
 23 41  1  0
 24 42  1  0
 24 43  1  0
 24 44  1  0
 25 45  1  0
 26 46  1  0
M  CHG  2   3   1  16  -1
M  END
>  <UniqueID>  (53) 
50

>  <SMILES>  (53) 
Cc1[nH+]c2scc(C)n2c(=O)c1S(=O)(=O)[N-]Cc1ccc(N(C)C)cc1

>  <Energy>  (53) 
85.40012554700522

>  <Genealogy>  (53) 
Cc1[nH+]c2scc(C)n2c(=O)c1S(=O)(=O)[N-]Cc1ccc(N(C)C)cc1 (protonated)
Cc1[nH+]c2scc(C)n2c(=O)c1S(=O)(=O)[N-]Cc1ccc(N(C)C)cc1 (3D coordinates assigned)
Cc1[nH+]c2scc(C)n2c(=O)c1S(=O)(=O)[N-]Cc1ccc(N(C)C)cc1 (optimized conformer: 85.40012554700522 kcal/mol)

>  <smiles>  (53) 
Cc1nc2scc(C)n2c(=O)c1S(=O)(=O)NCc1ccc(N(C)C)cc1

>  <score_type>  (53) 
oracle

>  <origin>  (53) 
adg

>  <m_score__min__energy>  (53) 
-8.1500000000000004

>  <m_primary>  (53) 
energy

$$$$
53:0
     RDKit          3D

 33 35  0  0  1  0  0  0  0  0999 V2000
   55.4160   24.6520   45.6280 C   0  0  0  0  0  0  0  0  0  0  0  0
   55.8020   25.7740   46.4610 N   0  0  0  0  0  0  0  0  0  0  0  0
   56.6370   26.6240   45.9650 C   0  0  0  0  0  0  0  0  0  0  0  0
   57.9450   26.3640   45.7870 N   0  0  0  0  0  0  0  0  0  0  0  0
   58.8030   27.2780   45.2610 C   0  0  0  0  0  0  0  0  0  0  0  0
   58.3430   28.5240   44.8900 C   0  0  0  0  0  0  0  0  0  0  0  0
   56.9930   28.7740   45.0800 C   0  0  0  0  0  0  0  0  0  0  0  0
   56.5150   29.9250   44.7480 N   0  0  0  0  0  0  0  0  0  0  0  0
   57.2410   31.1410   44.8670 C   0  0  0  0  0  0  0  0  0  0  0  0
   57.4170   31.8980   43.7330 C   0  0  0  0  0  0  0  0  0  0  0  0
   58.1090   33.0840   43.7800 C   0  0  0  0  0  0  0  0  0  0  0  0
   58.6570   33.5640   44.9730 C   0  0  0  0  0  0  0  0  0  0  0  0
   59.3450   34.7560   44.9890 C   0  0  0  0  0  0  0  0  0  0  0  0
   59.8710   35.1940   46.1890 C   0  0  0  0  0  0  0  0  0  0  0  0
   59.7120   34.4520   47.3630 C   0  0  0  0  0  0  0  0  0  0  0  0
   59.0120   33.2420   47.3400 C   0  0  0  0  0  0  0  0  0  0  0  0
   58.4820   32.8000   46.1250 C   0  0  0  0  0  0  0  0  0  0  0  0
   57.7740   31.5970   46.0530 C   0  0  0  0  0  0  0  0  0  0  0  0
   56.1660   27.8510   45.6020 N   0  0  0  0  0  0  0  0  0  0  0  0
   55.1245   23.8047   46.2661 H   0  0  0  0  0  0  0  0  0  0  0  0
   54.5660   24.9421   44.9929 H   0  0  0  0  0  0  0  0  0  0  0  0
   56.2646   24.3578   44.9929 H   0  0  0  0  0  0  0  0  0  0  0  0
   58.3090   25.4280   46.0630 H   0  0  0  0  0  0  0  0  0  0  0  0
   59.8652   27.0234   45.1312 H   0  0  0  0  0  0  0  0  0  0  0  0
   59.0153   29.2831   44.4637 H   0  0  0  0  0  0  0  0  0  0  0  0
   56.9989   31.5501   42.7769 H   0  0  0  0  0  0  0  0  0  0  0  0
   58.2347   33.6695   42.8573 H   0  0  0  0  0  0  0  0  0  0  0  0
   59.4729   35.3453   44.0690 H   0  0  0  0  0  0  0  0  0  0  0  0
   60.4249   36.1438   46.2213 H   0  0  0  0  0  0  0  0  0  0  0  0
   60.1387   34.8211   48.3073 H   0  0  0  0  0  0  0  0  0  0  0  0
   58.8813   32.6508   48.2584 H   0  0  0  0  0  0  0  0  0  0  0  0
   57.6389   30.9991   46.9664 H   0  0  0  0  0  0  0  0  0  0  0  0
   55.1500   28.0480   45.7420 H   0  0  0  0  0  0  0  0  0  0  0  0
  1  2  1  0
  2  3  2  0
  3  4  1  0
  4  5  1  0
  5  6  2  0
  6  7  1  0
  7  8  2  0
  8  9  1  0
  9 10  2  0
 10 11  1  0
 11 12  2  0
 12 13  1  0
 13 14  2  0
 14 15  1  0
 15 16  2  0
 16 17  1  0
 17 18  2  0
  7 19  1  0
 19  3  1  0
 18  9  1  0
 17 12  1  0
  1 20  1  0
  1 21  1  0
  1 22  1  0
  4 23  1  0
  5 24  1  0
  6 25  1  0
 10 26  1  0
 11 27  1  0
 13 28  1  0
 14 29  1  0
 15 30  1  0
 16 31  1  0
 18 32  1  0
 19 33  1  0
M  END
>  <smiles>  (54) 
CN=c1[nH]ccc(=Nc2ccc3ccccc3c2)[nH]1

>  <score_type>  (54) 
oracle

>  <origin>  (54) 
adg

>  <m_score__min__energy>  (54) 
-8.0199999999999996

>  <m_primary>  (54) 
energy

$$$$
54:0
     RDKit          3D

 50 52  0  0  0  0  0  0  0  0999 V2000
   56.2373   26.2117   46.0599 H   0  0  0  0  0  0  0  0  0  0  0  0
   57.2550   26.5670   46.2790 C   0  0  0  0  0  0  0  0  0  0  0  0
   58.2200   26.0650   47.5600 S   0  0  0  0  0  0  0  0  0  0  0  0
   59.4930   27.0690   47.1210 C   0  0  0  0  0  0  0  0  0  0  0  0
   60.5990   27.1560   47.7970 N   0  0  0  0  0  0  0  0  0  0  0  0
   60.7100   27.2720   49.2250 C   0  0  0  0  0  0  0  0  0  0  0  0
   60.4630   26.2930   49.9830 O   0  0  0  0  0  0  0  0  0  0  0  0
   61.1450   28.5690   49.8250 C   0  0  0  0  0  0  0  0  0  0  0  0
   61.8144   28.3685   50.6746 H   0  0  0  0  0  0  0  0  0  0  0  0
   61.6711   29.1571   49.0586 H   0  0  0  0  0  0  0  0  0  0  0  0
   59.9340   29.3650   50.3150 C   0  0  0  0  0  0  0  0  0  0  0  0
   59.1056   28.6715   50.5218 H   0  0  0  0  0  0  0  0  0  0  0  0
   60.2141   29.9082   51.2296 H   0  0  0  0  0  0  0  0  0  0  0  0
   59.4150   30.5470   49.0810 S   0  0  0  0  0  0  0  0  0  0  0  0
   58.3370   31.4340   49.6430 O   0  0  0  0  0  0  0  0  0  0  0  0
   58.8670   29.8260   47.8820 O   0  0  0  0  0  0  0  0  0  0  0  0
   60.7970   31.5270   48.6040 C   0  0  0  0  0  0  0  0  0  0  0  0
   61.7040   31.0460   47.6490 C   0  0  0  0  0  0  0  0  0  0  0  0
   61.5486   30.0569   47.1934 H   0  0  0  0  0  0  0  0  0  0  0  0
   62.8050   31.8210   47.2750 C   0  0  0  0  0  0  0  0  0  0  0  0
   63.5171   31.4394   46.5284 H   0  0  0  0  0  0  0  0  0  0  0  0
   63.0030   33.0820   47.8490 C   0  0  0  0  0  0  0  0  0  0  0  0
   63.8730   33.6885   47.5569 H   0  0  0  0  0  0  0  0  0  0  0  0
   62.0960   33.5710   48.7930 C   0  0  0  0  0  0  0  0  0  0  0  0
   62.2506   34.5636   49.2412 H   0  0  0  0  0  0  0  0  0  0  0  0
   60.9920   32.7990   49.1680 C   0  0  0  0  0  0  0  0  0  0  0  0
   60.2750   33.1882   49.9058 H   0  0  0  0  0  0  0  0  0  0  0  0
   59.2120   27.7960   46.0180 N   0  0  0  0  0  0  0  0  0  0  0  0
   57.9680   27.5120   45.5420 C   0  0  0  0  0  0  0  0  0  0  0  0
   57.3930   28.2310   44.3630 C   0  0  0  0  0  0  0  0  0  0  0  0
   56.4167   27.7923   44.1091 H   0  0  0  0  0  0  0  0  0  0  0  0
   58.0793   28.1319   43.5091 H   0  0  0  0  0  0  0  0  0  0  0  0
   57.2160   29.6810   44.6860 C   0  0  0  0  0  0  0  0  0  0  0  0
   56.0920   30.2240   44.4960 O   0  0  0  0  0  0  0  0  0  0  0  0
   58.2890   30.4260   45.2720 N   0  0  0  0  0  0  0  0  0  0  0  0
   59.0940   29.9010   45.6810 H   0  0  0  0  0  0  0  0  0  0  0  0
   58.2110   31.8400   45.5090 C   0  0  0  0  0  0  0  0  0  0  0  0
   58.2930   32.3080   46.8290 C   0  0  0  0  0  0  0  0  0  0  0  0
   58.4291   31.5938   47.6545 H   0  0  0  0  0  0  0  0  0  0  0  0
   58.2030   33.6750   47.1020 C   0  0  0  0  0  0  0  0  0  0  0  0
   58.2608   34.0330   48.1405 H   0  0  0  0  0  0  0  0  0  0  0  0
   58.0400   34.5860   46.0590 C   0  0  0  0  0  0  0  0  0  0  0  0
   57.9545   35.6606   46.2778 H   0  0  0  0  0  0  0  0  0  0  0  0
   57.9850   34.1380   44.7370 C   0  0  0  0  0  0  0  0  0  0  0  0
   57.8524   34.8622   43.9197 H   0  0  0  0  0  0  0  0  0  0  0  0
   58.0980   32.7670   44.4440 C   0  0  0  0  0  0  0  0  0  0  0  0
   58.0920   32.3320   43.0030 C   0  0  0  0  0  0  0  0  0  0  0  0
   58.0768   31.2333   42.9517 H   0  0  0  0  0  0  0  0  0  0  0  0
   57.1993   32.7348   42.5021 H   0  0  0  0  0  0  0  0  0  0  0  0
   58.9954   32.7100   42.5021 H   0  0  0  0  0  0  0  0  0  0  0  0
  1  2  1  0
  2  3  1  0
  3  4  1  0
  4  5  2  0
  5  6  1  0
  6  7  2  0
  6  8  1  0
  8  9  1  0
  8 10  1  0
  8 11  1  0
 11 12  1  0
 11 13  1  0
 11 14  1  0
 14 15  2  0
 14 16  2  0
 14 17  1  0
 17 18  2  0
 18 19  1  0
 18 20  1  0
 20 21  1  0
 20 22  2  0
 22 23  1  0
 22 24  1  0
 24 25  1  0
 24 26  2  0
 26 27  1  0
  4 28  1  0
 28 29  1  0
 29 30  1  0
 30 31  1  0
 30 32  1  0
 30 33  1  0
 33 34  2  0
 33 35  1  0
 35 36  1  0
 35 37  1  0
 37 38  2  0
 38 39  1  0
 38 40  1  0
 40 41  1  0
 40 42  2  0
 42 43  1  0
 42 44  1  0
 44 45  1  0
 44 46  2  0
 46 47  1  0
 47 48  1  0
 47 49  1  0
 47 50  1  0
 29  2  2  0
 46 37  1  0
 26 17  1  0
M  CHG  1  28  -1
M  END
>  <UniqueID>  (55) 
51

>  <SMILES>  (55) 
Cc1ccccc1NC(=O)Cc1cs/c(=N/C(=O)CCS(=O)(=O)c2ccccc2)[n-]1

>  <Energy>  (55) 
80.89444145221808

>  <Genealogy>  (55) 
Cc1ccccc1NC(=O)Cc1csc(=NC(=O)CCS(=O)(=O)c2ccccc2)[n-]1 (protonated)
Cc1ccccc1NC(=O)Cc1cs/c(=N/C(=O)CCS(=O)(=O)c2ccccc2)[n-]1 (cis-trans isomerization)
Cc1ccccc1NC(=O)Cc1cs/c(=N/C(=O)CCS(=O)(=O)c2ccccc2)[n-]1 (3D coordinates assigned)
Cc1ccccc1NC(=O)Cc1cs/c(=N/C(=O)CCS(=O)(=O)c2ccccc2)[n-]1 (optimized conformer: 80.89444145221808 kcal/mol)

>  <smiles>  (55) 
Cc1ccccc1NC(=O)Cc1csc(=NC(=O)CCS(=O)(=O)c2ccccc2)[nH]1

>  <score_type>  (55) 
oracle

>  <origin>  (55) 
adg

>  <m_score__min__energy>  (55) 
-11.15

>  <m_primary>  (55) 
energy

$$$$
55:0
     RDKit          3D

 46 48  0  0  0  0  0  0  0  0999 V2000
   60.5580   26.7420   48.5520 C   0  0  0  0  0  0  0  0  0  0  0  0
   59.4390   27.2360   47.6750 C   0  0  0  0  0  0  0  0  0  0  0  0
   58.5330   26.3120   47.1290 C   0  0  0  0  0  0  0  0  0  0  0  0
   57.4870   26.7440   46.3110 C   0  0  0  0  0  0  0  0  0  0  0  0
   57.3080   28.1040   46.0460 C   0  0  0  0  0  0  0  0  0  0  0  0
   56.2240   28.5020   45.1940 N   0  0  0  0  0  0  0  0  0  0  0  0
   56.1480   29.7040   44.4180 C   0  0  0  0  0  0  0  0  0  0  0  0
   55.1390   30.4570   44.4920 O   0  0  0  0  0  0  0  0  0  0  0  0
   57.2310   30.0160   43.4380 C   0  0  0  0  0  0  0  0  0  0  0  0
   58.3220   30.6340   44.1170 O   0  0  0  0  0  0  0  0  0  0  0  0
   58.2470   31.8670   44.7820 C   0  0  0  0  0  0  0  0  0  0  0  0
   58.4890   33.0350   44.0470 C   0  0  0  0  0  0  0  0  0  0  0  0
   58.4320   34.2870   44.6670 C   0  0  0  0  0  0  0  0  0  0  0  0
   58.1320   34.3800   46.0290 C   0  0  0  0  0  0  0  0  0  0  0  0
   57.8850   33.2210   46.7710 C   0  0  0  0  0  0  0  0  0  0  0  0
   57.9410   31.9680   46.1540 C   0  0  0  0  0  0  0  0  0  0  0  0
   58.2210   29.0330   46.5730 C   0  0  0  0  0  0  0  0  0  0  0  0
   59.2890   28.6130   47.3870 C   0  0  0  0  0  0  0  0  0  0  0  0
   60.1920   29.5840   47.9490 N   0  0  0  0  0  0  0  0  0  0  0  0
   61.0920   30.3700   47.1510 C   0  0  0  0  0  0  0  0  0  0  0  0
   61.4080   29.9730   45.9950 O   0  0  0  0  0  0  0  0  0  0  0  0
   61.6900   31.6190   47.6820 C   0  0  0  0  0  0  0  0  0  0  0  0
   63.0670   31.8800   47.5440 C   0  0  0  0  0  0  0  0  0  0  0  0
   63.6200   33.0550   48.0620 C   0  0  0  0  0  0  0  0  0  0  0  0
   62.8090   33.9800   48.7240 C   0  0  0  0  0  0  0  0  0  0  0  0
   61.4440   33.7280   48.8760 C   0  0  0  0  0  0  0  0  0  0  0  0
   60.8860   32.5550   48.3610 C   0  0  0  0  0  0  0  0  0  0  0  0
   60.2778   26.8657   49.6085 H   0  0  0  0  0  0  0  0  0  0  0  0
   60.7443   25.6780   48.3442 H   0  0  0  0  0  0  0  0  0  0  0  0
   61.4697   27.3213   48.3442 H   0  0  0  0  0  0  0  0  0  0  0  0
   58.6483   25.2401   47.3474 H   0  0  0  0  0  0  0  0  0  0  0  0
   56.7982   26.0074   45.8716 H   0  0  0  0  0  0  0  0  0  0  0  0
   57.5746   29.0855   42.9625 H   0  0  0  0  0  0  0  0  0  0  0  0
   56.8435   30.6994   42.6681 H   0  0  0  0  0  0  0  0  0  0  0  0
   58.7254   32.9666   42.9749 H   0  0  0  0  0  0  0  0  0  0  0  0
   58.6233   35.1991   44.0826 H   0  0  0  0  0  0  0  0  0  0  0  0
   58.0902   35.3649   46.5170 H   0  0  0  0  0  0  0  0  0  0  0  0
   57.6462   33.2953   47.8422 H   0  0  0  0  0  0  0  0  0  0  0  0
   57.7457   31.0584   46.7409 H   0  0  0  0  0  0  0  0  0  0  0  0
   58.0992   30.1025   46.3462 H   0  0  0  0  0  0  0  0  0  0  0  0
   60.2630   29.6580   48.9880 H   0  0  0  0  0  0  0  0  0  0  0  0
   63.7115   31.1549   47.0254 H   0  0  0  0  0  0  0  0  0  0  0  0
   64.6963   33.2516   47.9480 H   0  0  0  0  0  0  0  0  0  0  0  0
   63.2455   34.9065   49.1254 H   0  0  0  0  0  0  0  0  0  0  0  0
   60.8069   34.4542   49.4021 H   0  0  0  0  0  0  0  0  0  0  0  0
   59.8106   32.3612   48.4869 H   0  0  0  0  0  0  0  0  0  0  0  0
  1  2  1  0
  2  3  2  0
  3  4  1  0
  4  5  2  0
  5  6  1  0
  6  7  1  0
  7  8  2  0
  7  9  1  0
  9 10  1  0
 10 11  1  0
 11 12  2  0
 12 13  1  0
 13 14  2  0
 14 15  1  0
 15 16  2  0
  5 17  1  0
 17 18  2  0
 18 19  1  0
 19 20  1  0
 20 21  2  0
 20 22  1  0
 22 23  2  0
 23 24  1  0
 24 25  2  0
 25 26  1  0
 26 27  2  0
 18  2  1  0
 27 22  1  0
 16 11  1  0
  1 28  1  0
  1 29  1  0
  1 30  1  0
  3 31  1  0
  4 32  1  0
  9 33  1  0
  9 34  1  0
 12 35  1  0
 13 36  1  0
 14 37  1  0
 15 38  1  0
 16 39  1  0
 17 40  1  0
 19 41  1  0
 23 42  1  0
 24 43  1  0
 25 44  1  0
 26 45  1  0
 27 46  1  0
M  CHG  1   6  -1
M  END
>  <UniqueID>  (56) 
52

>  <SMILES>  (56) 
Cc1ccc([N-]C(=O)COc2ccccc2)cc1NC(=O)c1ccccc1

>  <Energy>  (56) 
56.847965943392026

>  <Genealogy>  (56) 
Cc1ccc([N-]C(=O)COc2ccccc2)cc1NC(=O)c1ccccc1 (protonated)
Cc1ccc([N-]C(=O)COc2ccccc2)cc1NC(=O)c1ccccc1 (3D coordinates assigned)
Cc1ccc([N-]C(=O)COc2ccccc2)cc1NC(=O)c1ccccc1 (optimized conformer: 56.847965943392026 kcal/mol)

>  <smiles>  (56) 
Cc1ccc(NC(=O)COc2ccccc2)cc1NC(=O)c1ccccc1

>  <score_type>  (56) 
oracle

>  <origin>  (56) 
adg

>  <m_score__min__energy>  (56) 
-10.68

>  <m_primary>  (56) 
energy

$$$$
56:0
     RDKit          3D

 48 51  0  0  0  0  0  0  0  0999 V2000
   58.6510   27.4710   45.9450 C   0  0  0  0  0  0  0  0  0  0  0  0
   57.5910   28.4220   45.9000 O   0  0  0  0  0  0  0  0  0  0  0  0
   57.5200   29.5060   45.0090 C   0  0  0  0  0  0  0  0  0  0  0  0
   57.0120   29.3380   43.7060 C   0  0  0  0  0  0  0  0  0  0  0  0
   56.9430   30.4160   42.8290 C   0  0  0  0  0  0  0  0  0  0  0  0
   57.3750   31.6750   43.2310 C   0  0  0  0  0  0  0  0  0  0  0  0
   57.8860   31.8750   44.5240 C   0  0  0  0  0  0  0  0  0  0  0  0
   57.9620   30.7900   45.4270 C   0  0  0  0  0  0  0  0  0  0  0  0
   58.5080   31.0200   46.7960 C   0  0  0  0  0  0  0  0  0  0  0  0
   58.5860   30.0570   47.6040 O   0  0  0  0  0  0  0  0  0  0  0  0
   58.9630   32.3770   47.2180 C   0  0  0  0  0  0  0  0  0  0  0  0
   59.4840   32.6160   48.5180 C   0  0  0  0  0  0  0  0  0  0  0  0
   59.5660   31.5530   49.4360 O   0  0  0  0  0  0  0  0  0  0  0  0
   60.6900   30.6950   49.6310 C   0  0  0  0  0  0  0  0  0  0  0  0
   61.5210   30.5950   48.3430 C   0  0  0  0  0  0  0  0  0  0  0  0
   62.8050   31.3200   48.4710 N   0  0  0  0  0  0  0  0  0  0  0  0
   63.2280   31.9010   47.1730 C   0  0  0  0  0  0  0  0  0  0  0  0
   62.8820   33.3980   47.0770 C   0  0  0  0  0  0  0  0  0  0  0  0
   63.4850   34.1920   48.0900 O   0  0  0  0  0  0  0  0  0  0  0  0
   63.7450   33.4810   49.2930 C   0  0  0  0  0  0  0  0  0  0  0  0
   62.7540   32.3340   49.5520 C   0  0  0  0  0  0  0  0  0  0  0  0
   59.8990   33.9170   48.8680 C   0  0  0  0  0  0  0  0  0  0  0  0
   59.8100   34.9600   47.9510 C   0  0  0  0  0  0  0  0  0  0  0  0
   59.3050   34.7310   46.6760 C   0  0  0  0  0  0  0  0  0  0  0  0
   58.8790   33.4480   46.2970 C   0  0  0  0  0  0  0  0  0  0  0  0
   58.3410   33.2220   44.9370 C   0  0  0  0  0  0  0  0  0  0  0  0
   58.2710   34.1840   44.1230 O   0  0  0  0  0  0  0  0  0  0  0  0
   58.8994   27.2481   46.9932 H   0  0  0  0  0  0  0  0  0  0  0  0
   58.3362   26.5468   45.4383 H   0  0  0  0  0  0  0  0  0  0  0  0
   59.5358   27.8839   45.4383 H   0  0  0  0  0  0  0  0  0  0  0  0
   56.6669   28.3461   43.3790 H   0  0  0  0  0  0  0  0  0  0  0  0
   56.5451   30.2717   41.8137 H   0  0  0  0  0  0  0  0  0  0  0  0
   57.3161   32.5213   42.5308 H   0  0  0  0  0  0  0  0  0  0  0  0
   61.3192   31.1004   50.4371 H   0  0  0  0  0  0  0  0  0  0  0  0
   60.3288   29.6914   49.8999 H   0  0  0  0  0  0  0  0  0  0  0  0
   61.7278   29.5354   48.1319 H   0  0  0  0  0  0  0  0  0  0  0  0
   60.9460   31.0513   47.5238 H   0  0  0  0  0  0  0  0  0  0  0  0
   64.3160   31.7794   47.0661 H   0  0  0  0  0  0  0  0  0  0  0  0
   62.6907   31.3737   46.3710 H   0  0  0  0  0  0  0  0  0  0  0  0
   63.2191   33.7698   46.0982 H   0  0  0  0  0  0  0  0  0  0  0  0
   61.7932   33.4843   47.2078 H   0  0  0  0  0  0  0  0  0  0  0  0
   64.7593   33.0591   49.2362 H   0  0  0  0  0  0  0  0  0  0  0  0
   63.6374   34.1960   50.1220 H   0  0  0  0  0  0  0  0  0  0  0  0
   63.0070   31.8514   50.5075 H   0  0  0  0  0  0  0  0  0  0  0  0
   61.7382   32.7549   49.5840 H   0  0  0  0  0  0  0  0  0  0  0  0
   60.2969   34.1095   49.8753 H   0  0  0  0  0  0  0  0  0  0  0  0
   60.1405   35.9697   48.2361 H   0  0  0  0  0  0  0  0  0  0  0  0
   59.2387   35.5619   45.9582 H   0  0  0  0  0  0  0  0  0  0  0  0
  1  2  1  0
  2  3  1  0
  3  4  2  0
  4  5  1  0
  5  6  2  0
  6  7  1  0
  7  8  2  0
  8  9  1  0
  9 10  2  0
  9 11  1  0
 11 12  2  0
 12 13  1  0
 13 14  1  0
 14 15  1  0
 15 16  1  0
 16 17  1  0
 17 18  1  0
 18 19  1  0
 19 20  1  0
 20 21  1  0
 12 22  1  0
 22 23  2  0
 23 24  1  0
 24 25  2  0
 25 26  1  0
 26 27  2  0
  8  3  1  0
 25 11  1  0
 26  7  1  0
 21 16  1  0
  1 28  1  0
  1 29  1  0
  1 30  1  0
  4 31  1  0
  5 32  1  0
  6 33  1  0
 14 34  1  0
 14 35  1  0
 15 36  1  0
 15 37  1  0
 17 38  1  0
 17 39  1  0
 18 40  1  0
 18 41  1  0
 20 42  1  0
 20 43  1  0
 21 44  1  0
 21 45  1  0
 22 46  1  0
 23 47  1  0
 24 48  1  0
M  END
>  <UniqueID>  (57) 
53

>  <SMILES>  (57) 
COc1cccc2c1C(=O)c1c(OCCN3CCOCC3)cccc1C2=O

>  <Energy>  (57) 
73.23264468940458

>  <Genealogy>  (57) 
COc1cccc2c1C(=O)c1c(OCCN3CCOCC3)cccc1C2=O (3D coordinates assigned)
COc1cccc2c1C(=O)c1c(OCCN3CCOCC3)cccc1C2=O (nonaromatic ring conformer: 73.23264468940458 kcal/mol)

>  <smiles>  (57) 
COc1cccc2c1C(=O)c1c(OCCN3CCOCC3)cccc1C2=O

>  <score_type>  (57) 
oracle

>  <origin>  (57) 
adg

>  <m_score__min__energy>  (57) 
-8.1999999999999993

>  <m_primary>  (57) 
energy

$$$$
57:0
     RDKit          3D

 36 38  0  0  0  0  0  0  0  0999 V2000
   55.1770   30.0780   45.6340 H   0  0  0  0  0  0  0  0  0  0  0  0
   55.1550   29.3570   44.9540 O   0  0  0  0  0  0  0  0  0  0  0  0
   56.3980   29.3170   44.2910 C   0  0  1  0  0  0  0  0  0  0  0  0
   56.2286   28.8365   43.3161 H   0  0  0  0  0  0  0  0  0  0  0  0
   56.9380   30.7080   44.0300 C   0  0  0  0  0  0  0  0  0  0  0  0
   56.9920   31.6180   45.0420 N   0  0  0  0  0  0  0  0  0  0  0  0
   57.4850   32.8700   44.8530 C   0  0  0  0  0  0  0  0  0  0  0  0
   57.4950   33.6920   45.8650 N   0  0  0  0  0  0  0  0  0  0  0  0
   58.3170   33.6150   47.0390 C   0  0  0  0  0  0  0  0  0  0  0  0
   59.1380   34.6890   47.4270 C   0  0  0  0  0  0  0  0  0  0  0  0
   59.1232   35.6260   46.8510 H   0  0  0  0  0  0  0  0  0  0  0  0
   59.9720   34.5700   48.5410 C   0  0  0  0  0  0  0  0  0  0  0  0
   60.5964   35.4201   48.8532 H   0  0  0  0  0  0  0  0  0  0  0  0
   60.0140   33.3710   49.2600 C   0  0  0  0  0  0  0  0  0  0  0  0
   60.6649   33.2807   50.1422 H   0  0  0  0  0  0  0  0  0  0  0  0
   59.2270   32.2860   48.8560 C   0  0  0  0  0  0  0  0  0  0  0  0
   59.3030   30.6390   49.8210 Br  0  0  0  0  0  0  0  0  0  0  0  0
   58.3900   32.4050   47.7420 C   0  0  0  0  0  0  0  0  0  0  0  0
   57.7863   31.5451   47.4162 H   0  0  0  0  0  0  0  0  0  0  0  0
   57.9170   33.2420   43.6070 N   0  0  0  0  0  0  0  0  0  0  0  0
   58.2420   34.2120   43.4060 H   0  0  0  0  0  0  0  0  0  0  0  0
   57.8910   32.3600   42.5720 C   0  0  0  0  0  0  0  0  0  0  0  0
   58.2550   32.6683   41.5808 H   0  0  0  0  0  0  0  0  0  0  0  0
   57.4060   31.0690   42.7610 C   0  0  0  0  0  0  0  0  0  0  0  0
   57.3908   30.3476   41.9307 H   0  0  0  0  0  0  0  0  0  0  0  0
   57.4060   28.4810   45.0550 C   0  0  0  0  0  0  0  0  0  0  0  0
   57.7970   27.2250   44.5510 C   0  0  0  0  0  0  0  0  0  0  0  0
   57.3598   26.8529   43.6127 H   0  0  0  0  0  0  0  0  0  0  0  0
   58.7370   26.4480   45.2350 C   0  0  0  0  0  0  0  0  0  0  0  0
   59.0316   25.4659   44.8367 H   0  0  0  0  0  0  0  0  0  0  0  0
   59.3030   26.9170   46.4240 C   0  0  0  0  0  0  0  0  0  0  0  0
   60.0363   26.3004   46.9645 H   0  0  0  0  0  0  0  0  0  0  0  0
   58.9380   28.1680   46.9260 C   0  0  0  0  0  0  0  0  0  0  0  0
   59.3898   28.5389   47.8578 H   0  0  0  0  0  0  0  0  0  0  0  0
   57.9990   28.9500   46.2460 C   0  0  0  0  0  0  0  0  0  0  0  0
   57.7209   29.9376   46.6425 H   0  0  0  0  0  0  0  0  0  0  0  0
  1  2  1  0
  2  3  1  0
  3  4  1  6
  3  5  1  0
  5  6  2  0
  6  7  1  0
  7  8  2  0
  8  9  1  0
  9 10  2  0
 10 11  1  0
 10 12  1  0
 12 13  1  0
 12 14  2  0
 14 15  1  0
 14 16  1  0
 16 17  1  0
 16 18  2  0
 18 19  1  0
  7 20  1  0
 20 21  1  0
 20 22  1  0
 22 23  1  0
 22 24  2  0
 24 25  1  0
  3 26  1  0
 26 27  2  0
 27 28  1  0
 27 29  1  0
 29 30  1  0
 29 31  2  0
 31 32  1  0
 31 33  1  0
 33 34  1  0
 33 35  2  0
 35 36  1  0
 24  5  1  0
 35 26  1  0
 18  9  1  0
M  END
>  <UniqueID>  (58) 
54

>  <SMILES>  (58) 
O[C@H](c1ccccc1)c1cc[nH]/c(=N\c2cccc(Br)c2)n1

>  <Energy>  (58) 
50.43757592361897

>  <Genealogy>  (58) 
O[C@H](c1ccccc1)c1cc[nH]c(=Nc2cccc(Br)c2)n1 (chirality)
O[C@H](c1ccccc1)c1cc[nH]/c(=N\c2cccc(Br)c2)n1 (cis-trans isomerization)
O[C@H](c1ccccc1)c1cc[nH]/c(=N\c2cccc(Br)c2)n1 (3D coordinates assigned)
O[C@H](c1ccccc1)c1cc[nH]/c(=N\c2cccc(Br)c2)n1 (optimized conformer: 50.43757592361897 kcal/mol)

>  <smiles>  (58) 
OC(c1ccccc1)c1cc[nH]c(=Nc2cccc(Br)c2)n1

>  <score_type>  (58) 
oracle

>  <origin>  (58) 
adg

>  <m_score__min__energy>  (58) 
-9.2400000000000002

>  <m_primary>  (58) 
energy

$$$$
58:0
     RDKit          3D

 36 37  0  0  1  0  0  0  0  0999 V2000
   61.8470   34.2020   49.9090 C   0  0  0  0  0  0  0  0  0  0  0  0
   61.0810   34.1570   48.6280 C   0  0  0  0  0  0  0  0  0  0  0  0
   61.7760   33.8330   47.4780 C   0  0  0  0  0  0  0  0  0  0  0  0
   61.0820   33.7880   46.2910 C   0  0  0  0  0  0  0  0  0  0  0  0
   59.7320   34.0510   46.2040 C   0  0  0  0  0  0  0  0  0  0  0  0
   59.1320   33.9630   44.9140 N   0  0  0  0  0  0  0  0  0  0  0  0
   58.4740   32.9690   44.4920 C   0  0  0  0  0  0  0  0  0  0  0  0
   58.1400   32.8630   43.2140 N   0  0  0  0  0  0  0  0  0  0  0  0
   57.4430   31.8230   42.7460 C   0  0  0  0  0  0  0  0  0  0  0  0
   57.0230   30.7700   43.6020 C   0  0  0  0  0  0  0  0  0  0  0  0
   56.2880   29.7660   42.9840 N   0  0  0  0  0  0  0  0  0  0  0  0
   56.6000   28.8270   42.2530 O   0  0  0  0  0  0  0  0  0  0  0  0
   54.9170   29.7050   43.3760 O   0  0  0  0  0  0  0  0  0  0  0  0
   57.3900   30.9150   44.8990 C   0  0  0  0  0  0  0  0  0  0  0  0
   57.2300   29.9890   45.7280 N   0  0  0  0  0  0  0  0  0  0  0  0
   58.1810   28.9350   45.9350 C   0  0  0  0  0  0  0  0  0  0  0  0
   57.2340   27.6670   45.8290 C   0  0  0  0  0  0  0  0  0  0  0  0
   56.0500   28.0750   45.2610 O   0  0  0  0  0  0  0  0  0  0  0  0
   58.1050   32.0030   45.3360 N   0  0  0  0  0  0  0  0  0  0  0  0
   59.0350   34.3740   47.3440 C   0  0  0  0  0  0  0  0  0  0  0  0
   59.7480   34.4160   48.5410 C   0  0  0  0  0  0  0  0  0  0  0  0
   61.1469   34.1609   50.7565 H   0  0  0  0  0  0  0  0  0  0  0  0
   62.5318   33.3425   49.9571 H   0  0  0  0  0  0  0  0  0  0  0  0
   62.4265   35.1357   49.9571 H   0  0  0  0  0  0  0  0  0  0  0  0
   62.8541   33.6171   47.5110 H   0  0  0  0  0  0  0  0  0  0  0  0
   61.6283   33.5310   45.3715 H   0  0  0  0  0  0  0  0  0  0  0  0
   58.4470   33.6410   42.5650 H   0  0  0  0  0  0  0  0  0  0  0  0
   57.1895   31.7816   41.6764 H   0  0  0  0  0  0  0  0  0  0  0  0
   58.9568   28.9289   45.1552 H   0  0  0  0  0  0  0  0  0  0  0  0
   58.7477   29.0068   46.8750 H   0  0  0  0  0  0  0  0  0  0  0  0
   57.7062   26.8985   45.1994 H   0  0  0  0  0  0  0  0  0  0  0  0
   57.0548   27.2360   46.8251 H   0  0  0  0  0  0  0  0  0  0  0  0
   56.1040   28.4720   44.3770 H   0  0  0  0  0  0  0  0  0  0  0  0
   58.3610   32.0720   46.3540 H   0  0  0  0  0  0  0  0  0  0  0  0
   57.9570   34.5908   47.3128 H   0  0  0  0  0  0  0  0  0  0  0  0
   59.2051   34.6717   49.4629 H   0  0  0  0  0  0  0  0  0  0  0  0
  1  2  1  0
  2  3  2  0
  3  4  1  0
  4  5  2  0
  5  6  1  0
  6  7  2  0
  7  8  1  0
  8  9  1  0
  9 10  2  0
 10 11  1  0
 11 12  2  0
 11 13  1  0
 10 14  1  0
 14 15  2  0
 15 16  1  0
 16 17  1  0
 17 18  1  0
 14 19  1  0
  5 20  1  0
 20 21  2  0
 21  2  1  0
 19  7  1  0
  1 22  1  0
  1 23  1  0
  1 24  1  0
  3 25  1  0
  4 26  1  0
  8 27  1  0
  9 28  1  0
 16 29  1  0
 16 30  1  0
 17 31  1  0
 17 32  1  0
 18 33  1  0
 19 34  1  0
 20 35  1  0
 21 36  1  0
M  CHG  2  11   1  13  -1
M  END
>  <smiles>  (59) 
Cc1ccc(N=c2[nH]cc([N+](=O)[O-])c(=NCCO)[nH]2)cc1

>  <score_type>  (59) 
oracle

>  <origin>  (59) 
adg

>  <m_score__min__energy>  (59) 
-7.6100000000000003

>  <m_primary>  (59) 
energy

$$$$
59:0
     RDKit          3D

 53 56  0  0  0  0  0  0  0  0999 V2000
   55.0200   24.4950   45.4990 C   0  0  0  0  0  0  0  0  0  0  0  0
   55.4170   25.5750   46.3410 O   0  0  0  0  0  0  0  0  0  0  0  0
   56.7050   26.1260   46.3720 C   0  0  0  0  0  0  0  0  0  0  0  0
   57.8020   25.4150   46.9050 C   0  0  0  0  0  0  0  0  0  0  0  0
   59.0880   25.9630   46.8640 C   0  0  0  0  0  0  0  0  0  0  0  0
   59.2960   27.2170   46.2910 C   0  0  0  0  0  0  0  0  0  0  0  0
   58.2190   27.9330   45.7680 C   0  0  0  0  0  0  0  0  0  0  0  0
   56.9210   27.4120   45.8250 C   0  0  0  0  0  0  0  0  0  0  0  0
   55.8530   28.1820   45.2530 N   0  0  0  0  0  0  0  0  0  0  0  0
   56.0070   29.3720   44.4730 C   0  0  0  0  0  0  0  0  0  0  0  0
   55.2640   30.3740   44.6700 O   0  0  0  0  0  0  0  0  0  0  0  0
   57.1240   29.4620   43.4810 C   0  0  0  0  0  0  0  0  0  0  0  0
   57.6820   30.8160   43.4840 N   0  0  0  0  0  0  0  0  0  0  0  0
   57.5400   31.7800   42.5400 C   0  0  0  0  0  0  0  0  0  0  0  0
   56.9800   31.5900   41.4280 O   0  0  0  0  0  0  0  0  0  0  0  0
   58.0280   32.9500   42.9160 O   0  0  0  0  0  0  0  0  0  0  0  0
   58.4840   32.7660   44.1310 C   0  0  0  0  0  0  0  0  0  0  0  0
   59.0450   33.7000   44.9960 C   0  0  0  0  0  0  0  0  0  0  0  0
   59.3870   33.2690   46.2980 C   0  0  0  0  0  0  0  0  0  0  0  0
   59.9510   34.4410   47.4910 S   0  0  0  0  0  0  0  0  0  0  0  0
   59.2540   34.1890   48.8010 O   0  0  0  0  0  0  0  0  0  0  0  0
   59.5930   35.8270   47.0320 O   0  0  0  0  0  0  0  0  0  0  0  0
   61.6820   34.3230   47.7310 N   0  0  0  0  0  0  0  0  0  0  0  0
   62.0210   34.0890   49.1580 C   0  0  0  0  0  0  0  0  0  0  0  0
   62.3140   32.6120   49.4690 C   0  0  0  0  0  0  0  0  0  0  0  0
   63.4780   32.0720   48.6120 C   0  0  0  0  0  0  0  0  0  0  0  0
   63.6330   32.8320   47.2810 C   0  0  0  0  0  0  0  0  0  0  0  0
   62.2720   33.3430   46.7890 C   0  0  0  0  0  0  0  0  0  0  0  0
   59.1970   31.9140   46.6690 C   0  0  0  0  0  0  0  0  0  0  0  0
   58.6310   30.9940   45.7640 C   0  0  0  0  0  0  0  0  0  0  0  0
   58.2850   31.4650   44.4980 C   0  0  0  0  0  0  0  0  0  0  0  0
   54.7066   23.6424   46.1194 H   0  0  0  0  0  0  0  0  0  0  0  0
   54.1806   24.8146   44.8640 H   0  0  0  0  0  0  0  0  0  0  0  0
   55.8666   24.1948   44.8640 H   0  0  0  0  0  0  0  0  0  0  0  0
   57.6443   24.4239   47.3553 H   0  0  0  0  0  0  0  0  0  0  0  0
   59.9368   25.4038   47.2845 H   0  0  0  0  0  0  0  0  0  0  0  0
   60.3098   27.6419   46.2513 H   0  0  0  0  0  0  0  0  0  0  0  0
   58.3914   28.9165   45.3064 H   0  0  0  0  0  0  0  0  0  0  0  0
   57.9108   28.7421   43.7507 H   0  0  0  0  0  0  0  0  0  0  0  0
   56.7380   29.2304   42.4773 H   0  0  0  0  0  0  0  0  0  0  0  0
   59.2166   34.7388   44.6775 H   0  0  0  0  0  0  0  0  0  0  0  0
   62.9114   34.6839   49.4093 H   0  0  0  0  0  0  0  0  0  0  0  0
   61.1478   34.3857   49.7576 H   0  0  0  0  0  0  0  0  0  0  0  0
   62.5792   32.5167   50.5323 H   0  0  0  0  0  0  0  0  0  0  0  0
   61.4132   32.0255   49.2352 H   0  0  0  0  0  0  0  0  0  0  0  0
   64.4122   32.1692   49.1845 H   0  0  0  0  0  0  0  0  0  0  0  0
   63.2575   31.0212   48.3730 H   0  0  0  0  0  0  0  0  0  0  0  0
   64.3081   33.6876   47.4298 H   0  0  0  0  0  0  0  0  0  0  0  0
   64.0479   32.1464   46.5274 H   0  0  0  0  0  0  0  0  0  0  0  0
   62.4051   33.8255   45.8095 H   0  0  0  0  0  0  0  0  0  0  0  0
   61.5891   32.4838   46.7153 H   0  0  0  0  0  0  0  0  0  0  0  0
   59.4943   31.5775   47.6732 H   0  0  0  0  0  0  0  0  0  0  0  0
   58.4682   29.9433   46.0458 H   0  0  0  0  0  0  0  0  0  0  0  0
  1  2  1  0
  2  3  1  0
  3  4  2  0
  4  5  1  0
  5  6  2  0
  6  7  1  0
  7  8  2  0
  8  9  1  0
  9 10  1  0
 10 11  2  0
 10 12  1  0
 12 13  1  0
 13 14  1  0
 14 15  2  0
 14 16  1  0
 16 17  1  0
 17 18  2  0
 18 19  1  0
 19 20  1  0
 20 21  2  0
 20 22  2  0
 20 23  1  0
 23 24  1  0
 24 25  1  0
 25 26  1  0
 26 27  1  0
 27 28  1  0
 19 29  2  0
 29 30  1  0
 30 31  2  0
  8  3  1  0
 31 13  1  0
 31 17  1  0
 28 23  1  0
  1 32  1  0
  1 33  1  0
  1 34  1  0
  4 35  1  0
  5 36  1  0
  6 37  1  0
  7 38  1  0
 12 39  1  0
 12 40  1  0
 18 41  1  0
 24 42  1  0
 24 43  1  0
 25 44  1  0
 25 45  1  0
 26 46  1  0
 26 47  1  0
 27 48  1  0
 27 49  1  0
 28 50  1  0
 28 51  1  0
 29 52  1  0
 30 53  1  0
M  CHG  1   9  -1
M  END
>  <UniqueID>  (60) 
55

>  <SMILES>  (60) 
COc1ccccc1[N-]C(=O)Cn1c(=O)oc2cc(S(=O)(=O)N3CCCCC3)ccc21

>  <Energy>  (60) 
105.2043620753657

>  <Genealogy>  (60) 
COc1ccccc1[N-]C(=O)Cn1c(=O)oc2cc(S(=O)(=O)N3CCCCC3)ccc21 (protonated)
COc1ccccc1[N-]C(=O)Cn1c(=O)oc2cc(S(=O)(=O)N3CCCCC3)ccc21 (3D coordinates assigned)
COc1ccccc1[N-]C(=O)Cn1c(=O)oc2cc(S(=O)(=O)N3CCCCC3)ccc21 (nonaromatic ring conformer: 105.2043620753657 kcal/mol)

>  <smiles>  (60) 
COc1ccccc1NC(=O)Cn1c(=O)oc2cc(S(=O)(=O)N3CCCCC3)ccc21

>  <score_type>  (60) 
oracle

>  <origin>  (60) 
adg

>  <m_score__min__energy>  (60) 
-12.85

>  <m_primary>  (60) 
energy

$$$$
60:0
     RDKit          3D

 55 58  0  0  1  0  0  0  0  0999 V2000
   58.7320   34.9690   44.8710 C   0  0  0  0  0  0  0  0  0  0  0  0
   58.9780   33.5480   45.1850 N   0  0  0  0  0  0  0  0  0  0  0  0
   58.2890   32.5860   44.4220 C   0  0  0  0  0  0  0  0  0  0  0  0
   58.1330   32.6330   43.0460 C   0  0  0  0  0  0  0  0  0  0  0  0
   57.4110   31.6660   42.3540 C   0  0  0  0  0  0  0  0  0  0  0  0
   56.8140   30.6070   43.0090 C   0  0  0  0  0  0  0  0  0  0  0  0
   56.9620   30.5460   44.3750 C   0  0  0  0  0  0  0  0  0  0  0  0
   56.3360   29.4620   45.0700 N   0  0  0  0  0  0  0  0  0  0  0  0
   57.6730   31.5040   45.0510 C   0  0  0  0  0  0  0  0  0  0  0  0
   59.8990   33.2870   46.2120 C   0  0  0  0  0  0  0  0  0  0  0  0
   53.8720   23.3610   46.5040 C   0  0  0  0  0  0  0  0  0  0  0  0
   54.1910   24.3740   45.6200 C   0  0  0  0  0  0  0  0  0  0  0  0
   55.4350   24.8890   45.5020 N   0  0  0  0  0  0  0  0  0  0  0  0
   56.4560   24.4250   46.2580 C   0  0  0  0  0  0  0  0  0  0  0  0
   57.6240   24.9360   46.1060 N   0  0  0  0  0  0  0  0  0  0  0  0
   60.1210   29.3440   47.4520 C   0  0  0  0  0  0  0  0  0  0  0  0
   59.4060   28.4870   48.2410 C   0  0  0  0  0  0  0  0  0  0  0  0
   58.6490   27.4310   47.6990 C   0  0  0  0  0  0  0  0  0  0  0  0
   58.6360   27.2650   46.3290 C   0  0  0  0  0  0  0  0  0  0  0  0
   57.8950   26.2160   45.6330 C   0  0  0  0  0  0  0  0  0  0  0  0
   57.4650   26.5330   44.4830 O   0  0  0  0  0  0  0  0  0  0  0  0
   60.9330   30.3940   47.9080 N   0  0  0  0  0  0  0  0  0  0  0  0
   60.8840   31.6320   47.5910 C   0  0  0  0  0  0  0  0  0  0  0  0
   56.1650   23.4120   47.1510 C   0  0  0  0  0  0  0  0  0  0  0  0
   54.9120   22.8790   47.2880 C   0  0  0  0  0  0  0  0  0  0  0  0
   54.6060   21.7860   48.2820 C   0  0  0  0  0  0  0  0  0  0  0  0
   54.1940   20.7040   47.5490 F   0  0  0  0  0  0  0  0  0  0  0  0
   53.6140   22.2700   49.1090 F   0  0  0  0  0  0  0  0  0  0  0  0
   55.7130   21.5030   49.0500 F   0  0  0  0  0  0  0  0  0  0  0  0
   60.6620   34.2040   46.8800 C   0  0  0  0  0  0  0  0  0  0  0  0
   61.5270   33.7990   47.9020 C   0  0  0  0  0  0  0  0  0  0  0  0
   61.6390   32.5120   48.2620 N   0  0  0  0  0  0  0  0  0  0  0  0
   59.3570   28.1360   45.5330 C   0  0  0  0  0  0  0  0  0  0  0  0
   60.0940   29.1670   46.0510 C   0  0  0  0  0  0  0  0  0  0  0  0
   60.0420   31.9940   46.5990 N   0  0  0  0  0  0  0  0  0  0  0  0
   58.6332   35.5394   45.8063 H   0  0  0  0  0  0  0  0  0  0  0  0
   59.5747   35.3665   44.2863 H   0  0  0  0  0  0  0  0  0  0  0  0
   57.8047   35.0601   44.2863 H   0  0  0  0  0  0  0  0  0  0  0  0
   58.5935   33.4591   42.4844 H   0  0  0  0  0  0  0  0  0  0  0  0
   57.3135   31.7467   41.2613 H   0  0  0  0  0  0  0  0  0  0  0  0
   56.2432   29.8432   42.4605 H   0  0  0  0  0  0  0  0  0  0  0  0
   56.3390   28.4740   44.7540 H   0  0  0  0  0  0  0  0  0  0  0  0
   55.8440   29.7210   45.9760 H   0  0  0  0  0  0  0  0  0  0  0  0
   57.7620   31.4148   46.1438 H   0  0  0  0  0  0  0  0  0  0  0  0
   52.8512   22.9588   46.5824 H   0  0  0  0  0  0  0  0  0  0  0  0
   53.3935   24.7812   44.9811 H   0  0  0  0  0  0  0  0  0  0  0  0
   55.5660   25.6500   44.8060 H   0  0  0  0  0  0  0  0  0  0  0  0
   59.4226   28.6266   49.3320 H   0  0  0  0  0  0  0  0  0  0  0  0
   58.0805   26.7533   48.3529 H   0  0  0  0  0  0  0  0  0  0  0  0
   56.9762   23.0163   47.7797 H   0  0  0  0  0  0  0  0  0  0  0  0
   60.5951   35.2687   46.6117 H   0  0  0  0  0  0  0  0  0  0  0  0
   62.1310   34.5558   48.4239 H   0  0  0  0  0  0  0  0  0  0  0  0
   62.2650   32.1380   48.9980 H   0  0  0  0  0  0  0  0  0  0  0  0
   59.3377   27.9952   44.4422 H   0  0  0  0  0  0  0  0  0  0  0  0
   60.6540   29.8441   45.3892 H   0  0  0  0  0  0  0  0  0  0  0  0
  1  2  1  0
  2  3  1  0
  3  4  2  0
  4  5  1  0
  5  6  2  0
  6  7  1  0
  7  8  1  0
  7  9  2  0
  2 10  1  0
 10 11  1  0
 11 12  2  0
 12 13  1  0
 13 14  1  0
 14 15  2  0
 15 16  1  0
 16 17  2  0
 17 18  1  0
 18 19  2  0
 19 20  1  0
 20 21  2  0
 20 22  1  0
 22 23  2  0
 23 24  1  0
 24 25  2  0
 25 26  1  0
 26 27  1  0
 26 28  1  0
 26 29  1  0
 25 30  1  0
 30 31  2  0
 31 32  1  0
 19 33  1  0
 33 34  2  0
 14 35  1  0
  9  3  1  0
 35 10  2  0
 34 16  1  0
 32 23  1  0
  1 36  1  0
  1 37  1  0
  1 38  1  0
  4 39  1  0
  5 40  1  0
  6 41  1  0
  8 42  1  0
  8 43  1  0
  9 44  1  0
 11 45  1  0
 12 46  1  0
 13 47  1  0
 17 48  1  0
 18 49  1  0
 24 50  1  0
 30 51  1  0
 31 52  1  0
 32 53  1  0
 33 54  1  0
 34 55  1  0
M  END
>  <smiles>  (61) 
CN(c1cccc(N)c1)c1cc[nH]c(=Nc2ccc(C(=O)N=c3cc(C(F)(F)F)cc[nH]3)cc2)n1

>  <score_type>  (61) 
oracle

>  <origin>  (61) 
adg

>  <m_score__min__energy>  (61) 
-9.3399999999999999

>  <m_primary>  (61) 
energy

$$$$
61:0
     RDKit          3D

 38 39  0  0  0  0  0  0  0  0999 V2000
   54.0930   21.9270   45.6060 N   0  0  0  0  0  0  0  0  0  0  0  0
   55.7690   21.8210   45.1990 S   0  0  0  0  0  0  0  0  0  0  0  0
   56.5200   21.1720   46.3280 O   0  0  0  0  0  0  0  0  0  0  0  0
   55.9310   20.9780   43.9650 O   0  0  0  0  0  0  0  0  0  0  0  0
   56.4060   23.4350   44.9070 C   0  0  0  0  0  0  0  0  0  0  0  0
   56.4530   24.3730   45.9470 C   0  0  0  0  0  0  0  0  0  0  0  0
   56.9690   25.6530   45.7200 C   0  0  0  0  0  0  0  0  0  0  0  0
   57.4630   26.0040   44.4500 C   0  0  0  0  0  0  0  0  0  0  0  0
   57.9780   27.3200   44.1830 N   0  0  0  0  0  0  0  0  0  0  0  0
   57.2550   28.5350   44.4300 C   0  0  0  0  0  0  0  0  0  0  0  0
   56.1990   28.5150   45.1180 O   0  0  0  0  0  0  0  0  0  0  0  0
   57.7680   29.7770   43.9220 N   0  0  0  0  0  0  0  0  0  0  0  0
   57.1390   31.0530   44.1250 C   0  0  0  0  0  0  0  0  0  0  0  0
   56.1010   31.1460   44.8340 O   0  0  0  0  0  0  0  0  0  0  0  0
   57.7620   32.2650   43.5490 C   0  0  0  0  0  0  0  0  0  0  0  0
   57.7930   33.4770   44.1250 C   0  0  0  0  0  0  0  0  0  0  0  0
   58.3700   33.7800   45.4510 C   0  0  0  0  0  0  0  0  0  0  0  0
   59.4050   34.7220   45.5980 C   0  0  0  0  0  0  0  0  0  0  0  0
   59.9700   34.9570   46.8560 C   0  0  0  0  0  0  0  0  0  0  0  0
   59.5210   34.2400   47.9690 C   0  0  0  0  0  0  0  0  0  0  0  0
   58.5150   33.2810   47.8250 C   0  0  0  0  0  0  0  0  0  0  0  0
   57.9480   33.0440   46.5680 C   0  0  0  0  0  0  0  0  0  0  0  0
   57.3990   25.0660   43.4090 C   0  0  0  0  0  0  0  0  0  0  0  0
   56.8840   23.7870   43.6380 C   0  0  0  0  0  0  0  0  0  0  0  0
   53.6430   21.0460   45.2730 H   0  0  0  0  0  0  0  0  0  0  0  0
   56.0824   24.1014   46.9464 H   0  0  0  0  0  0  0  0  0  0  0  0
   56.9887   26.3885   46.5377 H   0  0  0  0  0  0  0  0  0  0  0  0
   58.9720   27.4030   43.8680 H   0  0  0  0  0  0  0  0  0  0  0  0
   58.6440   29.7460   43.3520 H   0  0  0  0  0  0  0  0  0  0  0  0
   58.2410   32.1642   42.5639 H   0  0  0  0  0  0  0  0  0  0  0  0
   57.3524   34.3139   43.5634 H   0  0  0  0  0  0  0  0  0  0  0  0
   59.7710   35.2755   44.7207 H   0  0  0  0  0  0  0  0  0  0  0  0
   60.7676   35.7060   46.9694 H   0  0  0  0  0  0  0  0  0  0  0  0
   59.9602   34.4310   48.9593 H   0  0  0  0  0  0  0  0  0  0  0  0
   58.1686   32.7120   48.7004 H   0  0  0  0  0  0  0  0  0  0  0  0
   57.1677   32.2769   46.4552 H   0  0  0  0  0  0  0  0  0  0  0  0
   57.7567   25.3390   42.4052 H   0  0  0  0  0  0  0  0  0  0  0  0
   56.8539   23.0538   42.8185 H   0  0  0  0  0  0  0  0  0  0  0  0
  1  2  1  0
  2  3  2  0
  2  4  2  0
  2  5  1  0
  5  6  2  0
  6  7  1  0
  7  8  2  0
  8  9  1  0
  9 10  1  0
 10 11  2  0
 10 12  1  0
 12 13  1  0
 13 14  2  0
 13 15  1  0
 15 16  2  3
 16 17  1  0
 17 18  2  0
 18 19  1  0
 19 20  2  0
 20 21  1  0
 21 22  2  0
  8 23  1  0
 23 24  2  0
 24  5  1  0
 22 17  1  0
  1 25  1  0
  6 26  1  0
  7 27  1  0
  9 28  1  0
 12 29  1  0
 15 30  1  0
 16 31  1  0
 18 32  1  0
 19 33  1  0
 20 34  1  0
 21 35  1  0
 22 36  1  0
 23 37  1  0
 24 38  1  0
M  CHG  1   1  -1
M  END
>  <UniqueID>  (62) 
56

>  <SMILES>  (62) 
[NH-]S(=O)(=O)c1ccc(NC(=O)NC(=O)C=Cc2ccccc2)cc1

>  <Energy>  (62) 
48.99594573200622

>  <Genealogy>  (62) 
[NH-]S(=O)(=O)c1ccc(NC(=O)NC(=O)C=Cc2ccccc2)cc1 (protonated)
[NH-]S(=O)(=O)c1ccc(NC(=O)NC(=O)C=Cc2ccccc2)cc1 (3D coordinates assigned)
[NH-]S(=O)(=O)c1ccc(NC(=O)NC(=O)C=Cc2ccccc2)cc1 (optimized conformer: 48.99594573200622 kcal/mol)

>  <smiles>  (62) 
NS(=O)(=O)c1ccc(NC(=O)NC(=O)C=Cc2ccccc2)cc1

>  <score_type>  (62) 
oracle

>  <origin>  (62) 
adg

>  <m_score__min__energy>  (62) 
-10.18

>  <m_primary>  (62) 
energy

$$$$
62:0
     RDKit          3D

 39 40  0  0  0  0  0  0  0  0999 V2000
   55.1440   29.2000   44.7150 N   0  0  0  0  0  0  0  0  0  0  0  0
   56.5670   30.1250   44.3940 S   0  0  0  0  0  0  0  0  0  0  0  0
   56.2440   31.5900   44.4680 O   0  0  0  0  0  0  0  0  0  0  0  0
   57.0640   29.8100   43.0100 O   0  0  0  0  0  0  0  0  0  0  0  0
   57.8060   29.7310   45.5820 C   0  0  0  0  0  0  0  0  0  0  0  0
   58.3280   28.4330   45.6640 C   0  0  0  0  0  0  0  0  0  0  0  0
   59.3050   28.1260   46.6150 C   0  0  0  0  0  0  0  0  0  0  0  0
   59.7710   29.1070   47.4990 C   0  0  0  0  0  0  0  0  0  0  0  0
   60.7540   28.7440   48.4340 O   0  0  0  0  0  0  0  0  0  0  0  0
   60.7490   29.1070   49.8160 C   0  0  0  0  0  0  0  0  0  0  0  0
   61.6730   30.2660   50.0840 C   0  0  0  0  0  0  0  0  0  0  0  0
   62.8220   30.0480   50.5530 O   0  0  0  0  0  0  0  0  0  0  0  0
   61.3120   31.6110   49.7460 N   0  0  0  0  0  0  0  0  0  0  0  0
   61.8970   32.3950   48.6640 C   0  0  0  0  0  0  0  0  0  0  0  0
   61.3160   33.8110   48.6580 C   0  0  0  0  0  0  0  0  0  0  0  0
   60.2410   33.9360   47.6120 C   0  0  0  0  0  0  0  0  0  0  0  0
   58.8920   33.7570   47.9610 C   0  0  0  0  0  0  0  0  0  0  0  0
   57.8950   33.8420   46.9840 C   0  0  0  0  0  0  0  0  0  0  0  0
   58.2380   34.0960   45.6530 C   0  0  0  0  0  0  0  0  0  0  0  0
   57.2700   34.1780   44.7070 F   0  0  0  0  0  0  0  0  0  0  0  0
   59.5800   34.2610   45.2960 C   0  0  0  0  0  0  0  0  0  0  0  0
   60.5800   34.1770   46.2710 C   0  0  0  0  0  0  0  0  0  0  0  0
   59.2390   30.4090   47.4200 C   0  0  0  0  0  0  0  0  0  0  0  0
   58.2620   30.7150   46.4690 C   0  0  0  0  0  0  0  0  0  0  0  0
   55.2570   28.7890   45.6690 H   0  0  0  0  0  0  0  0  0  0  0  0
   57.9674   27.6530   44.9773 H   0  0  0  0  0  0  0  0  0  0  0  0
   59.7113   27.1053   46.6696 H   0  0  0  0  0  0  0  0  0  0  0  0
   59.7268   29.3895   50.1080 H   0  0  0  0  0  0  0  0  0  0  0  0
   61.0982   28.2438   50.4016 H   0  0  0  0  0  0  0  0  0  0  0  0
   62.9866   32.4507   48.8046 H   0  0  0  0  0  0  0  0  0  0  0  0
   61.6645   31.9094   47.7048 H   0  0  0  0  0  0  0  0  0  0  0  0
   60.8862   34.0300   49.6466 H   0  0  0  0  0  0  0  0  0  0  0  0
   62.1209   34.5245   48.4276 H   0  0  0  0  0  0  0  0  0  0  0  0
   58.6191   33.5493   49.0062 H   0  0  0  0  0  0  0  0  0  0  0  0
   56.8394   33.7088   47.2634 H   0  0  0  0  0  0  0  0  0  0  0  0
   59.8497   34.4570   44.2477 H   0  0  0  0  0  0  0  0  0  0  0  0
   61.6353   34.3002   45.9860 H   0  0  0  0  0  0  0  0  0  0  0  0
   59.5943   31.1884   48.1101 H   0  0  0  0  0  0  0  0  0  0  0  0
   57.8490   31.7332   46.4165 H   0  0  0  0  0  0  0  0  0  0  0  0
  1  2  1  0
  2  3  2  0
  2  4  2  0
  2  5  1  0
  5  6  2  0
  6  7  1  0
  7  8  2  0
  8  9  1  0
  9 10  1  0
 10 11  1  0
 11 12  2  0
 11 13  1  0
 13 14  1  0
 14 15  1  0
 15 16  1  0
 16 17  2  0
 17 18  1  0
 18 19  2  0
 19 20  1  0
 19 21  1  0
 21 22  2  0
  8 23  1  0
 23 24  2  0
 24  5  1  0
 22 16  1  0
  1 25  1  0
  6 26  1  0
  7 27  1  0
 10 28  1  0
 10 29  1  0
 14 30  1  0
 14 31  1  0
 15 32  1  0
 15 33  1  0
 17 34  1  0
 18 35  1  0
 21 36  1  0
 22 37  1  0
 23 38  1  0
 24 39  1  0
M  CHG  2   1  -1  13  -1
M  END
>  <UniqueID>  (63) 
57

>  <SMILES>  (63) 
[NH-]S(=O)(=O)c1ccc(OCC(=O)[N-]CCc2ccc(F)cc2)cc1

>  <Energy>  (63) 
34.86104831231994

>  <Genealogy>  (63) 
[NH-]S(=O)(=O)c1ccc(OCC(=O)[N-]CCc2ccc(F)cc2)cc1 (protonated)
[NH-]S(=O)(=O)c1ccc(OCC(=O)[N-]CCc2ccc(F)cc2)cc1 (3D coordinates assigned)
[NH-]S(=O)(=O)c1ccc(OCC(=O)[N-]CCc2ccc(F)cc2)cc1 (optimized conformer: 34.86104831231994 kcal/mol)

>  <smiles>  (63) 
NS(=O)(=O)c1ccc(OCC(=O)NCCc2ccc(F)cc2)cc1

>  <score_type>  (63) 
oracle

>  <origin>  (63) 
adg

>  <m_score__min__energy>  (63) 
-10.779999999999999

>  <m_primary>  (63) 
energy

$$$$
63:0
     RDKit          3D

 49 51  0  0  0  0  0  0  0  0999 V2000
   55.1440   28.9660   44.5510 N   0  0  0  0  0  0  0  0  0  0  0  0
   56.4820   30.0410   44.3560 S   0  0  0  0  0  0  0  0  0  0  0  0
   56.0190   31.4580   44.5460 O   0  0  0  0  0  0  0  0  0  0  0  0
   57.0420   29.8980   42.9690 O   0  0  0  0  0  0  0  0  0  0  0  0
   57.7230   29.6590   45.5450 C   0  0  0  0  0  0  0  0  0  0  0  0
   58.7770   30.5530   45.7810 C   0  0  0  0  0  0  0  0  0  0  0  0
   59.7590   30.2510   46.7290 C   0  0  0  0  0  0  0  0  0  0  0  0
   59.7070   29.0420   47.4420 C   0  0  0  0  0  0  0  0  0  0  0  0
   60.7340   28.7360   48.4990 C   0  0  0  0  0  0  0  0  0  0  0  0
   60.0590   28.4450   49.8380 C   0  0  0  0  0  0  0  0  0  0  0  0
   58.8030   29.1790   49.9230 N   0  0  0  0  0  0  0  0  0  0  0  0
   58.4200   29.9210   51.0830 C   0  0  0  0  0  0  0  0  0  0  0  0
   57.2750   29.7640   51.5900 O   0  0  0  0  0  0  0  0  0  0  0  0
   59.4120   30.8330   51.7360 C   0  0  0  0  0  0  0  0  0  0  0  0
   59.6350   32.0310   50.9220 N   0  0  0  0  0  0  0  0  0  0  0  0
   60.3150   32.0440   49.7560 C   0  0  0  0  0  0  0  0  0  0  0  0
   60.3780   33.3310   49.2720 C   0  0  0  0  0  0  0  0  0  0  0  0
   61.1920   33.8480   47.7650 S   0  0  0  0  0  0  0  0  0  0  0  0
   59.6510   33.9370   46.8540 C   0  0  0  0  0  0  0  0  0  0  0  0
   59.6200   34.5340   45.5880 C   0  0  0  0  0  0  0  0  0  0  0  0
   58.4220   34.5840   44.8650 C   0  0  0  0  0  0  0  0  0  0  0  0
   57.2540   34.0450   45.4130 C   0  0  0  0  0  0  0  0  0  0  0  0
   57.2810   33.4620   46.6830 C   0  0  0  0  0  0  0  0  0  0  0  0
   58.4790   33.4000   47.4010 C   0  0  0  0  0  0  0  0  0  0  0  0
   59.7220   34.1470   50.1690 C   0  0  0  0  0  0  0  0  0  0  0  0
   59.2760   33.3150   51.1850 C   0  0  0  0  0  0  0  0  0  0  0  0
   58.5410   33.7900   52.3750 C   0  0  0  0  0  0  0  0  0  0  0  0
   57.3940   33.3540   52.6490 O   0  0  0  0  0  0  0  0  0  0  0  0
   59.1230   34.7340   53.2130 O   0  0  0  0  0  0  0  0  0  0  0  0
   58.6500   28.1490   47.2040 C   0  0  0  0  0  0  0  0  0  0  0  0
   57.6680   28.4540   46.2570 C   0  0  0  0  0  0  0  0  0  0  0  0
   54.5600   29.3440   45.3320 H   0  0  0  0  0  0  0  0  0  0  0  0
   58.8314   31.4962   45.2177 H   0  0  0  0  0  0  0  0  0  0  0  0
   60.5759   30.9632   46.9173 H   0  0  0  0  0  0  0  0  0  0  0  0
   61.3189   27.8569   48.1907 H   0  0  0  0  0  0  0  0  0  0  0  0
   61.3921   29.6095   48.6167 H   0  0  0  0  0  0  0  0  0  0  0  0
   59.8588   27.3665   49.9201 H   0  0  0  0  0  0  0  0  0  0  0  0
   60.7221   28.7603   50.6571 H   0  0  0  0  0  0  0  0  0  0  0  0
   59.0298   31.1338   52.7226 H   0  0  0  0  0  0  0  0  0  0  0  0
   60.3666   30.2967   51.8413 H   0  0  0  0  0  0  0  0  0  0  0  0
   60.7521   31.1608   49.2672 H   0  0  0  0  0  0  0  0  0  0  0  0
   60.5378   34.9643   45.1609 H   0  0  0  0  0  0  0  0  0  0  0  0
   58.3997   35.0467   43.8673 H   0  0  0  0  0  0  0  0  0  0  0  0
   56.3131   34.0798   44.8442 H   0  0  0  0  0  0  0  0  0  0  0  0
   56.3581   33.0513   47.1183 H   0  0  0  0  0  0  0  0  0  0  0  0
   58.5010   32.9296   48.3951 H   0  0  0  0  0  0  0  0  0  0  0  0
   59.5812   35.2354   50.0941 H   0  0  0  0  0  0  0  0  0  0  0  0
   58.5943   27.2047   47.7655 H   0  0  0  0  0  0  0  0  0  0  0  0
   56.8484   27.7445   46.0701 H   0  0  0  0  0  0  0  0  0  0  0  0
  1  2  1  0
  2  3  2  0
  2  4  2  0
  2  5  1  0
  5  6  2  0
  6  7  1  0
  7  8  2  0
  8  9  1  0
  9 10  1  0
 10 11  1  0
 11 12  1  0
 12 13  2  0
 12 14  1  0
 14 15  1  0
 15 16  1  0
 16 17  2  0
 17 18  1  0
 18 19  1  0
 19 20  2  0
 20 21  1  0
 21 22  2  0
 22 23  1  0
 23 24  2  0
 17 25  1  0
 25 26  2  0
 26 27  1  0
 27 28  2  0
 27 29  1  0
  8 30  1  0
 30 31  2  0
 31  5  1  0
 26 15  1  0
 24 19  1  0
  1 32  1  0
  6 33  1  0
  7 34  1  0
  9 35  1  0
  9 36  1  0
 10 37  1  0
 10 38  1  0
 14 39  1  0
 14 40  1  0
 16 41  1  0
 20 42  1  0
 21 43  1  0
 22 44  1  0
 23 45  1  0
 24 46  1  0
 25 47  1  0
 30 48  1  0
 31 49  1  0
M  CHG  3   1  -1  11  -1  29  -1
M  END
>  <UniqueID>  (64) 
58

>  <SMILES>  (64) 
[NH-]S(=O)(=O)c1ccc(CC[N-]C(=O)Cn2cc(Sc3ccccc3)cc2C(=O)[O-])cc1

>  <Energy>  (64) 
67.41615478290649

>  <Genealogy>  (64) 
[NH-]S(=O)(=O)c1ccc(CC[N-]C(=O)Cn2cc(Sc3ccccc3)cc2C(=O)[O-])cc1 (protonated)
[NH-]S(=O)(=O)c1ccc(CC[N-]C(=O)Cn2cc(Sc3ccccc3)cc2C(=O)[O-])cc1 (3D coordinates assigned)
[NH-]S(=O)(=O)c1ccc(CC[N-]C(=O)Cn2cc(Sc3ccccc3)cc2C(=O)[O-])cc1 (optimized conformer: 67.41615478290649 kcal/mol)

>  <smiles>  (64) 
NS(=O)(=O)c1ccc(CCNC(=O)Cn2cc(Sc3ccccc3)cc2C(=O)O)cc1

>  <score_type>  (64) 
oracle

>  <origin>  (64) 
adg

>  <m_score__min__energy>  (64) 
-15.220000000000001

>  <m_primary>  (64) 
energy

$$$$
64:0
     RDKit          3D

 35 36  0  0  0  0  0  0  0  0999 V2000
   57.9590   34.1070   45.3080 C   0  0  0  0  0  0  0  0  0  0  0  0
   56.8540   33.1760   45.5070 N   0  0  0  0  0  0  0  0  0  0  0  0
   57.2320   31.6640   44.7450 S   0  0  0  0  0  0  0  0  0  0  0  0
   55.9680   30.8750   44.5390 O   0  0  0  0  0  0  0  0  0  0  0  0
   57.8730   31.9370   43.4130 O   0  0  0  0  0  0  0  0  0  0  0  0
   58.3170   30.7790   45.7300 O   0  0  0  0  0  0  0  0  0  0  0  0
   58.4920   29.3890   45.6790 C   0  0  0  0  0  0  0  0  0  0  0  0
   59.0140   28.7270   44.5530 C   0  0  0  0  0  0  0  0  0  0  0  0
   59.1660   27.3370   44.5560 C   0  0  0  0  0  0  0  0  0  0  0  0
   58.7930   26.5850   45.6860 C   0  0  0  0  0  0  0  0  0  0  0  0
   58.9140   25.1870   45.7440 O   0  0  0  0  0  0  0  0  0  0  0  0
   57.8980   24.2490   45.3860 C   0  0  0  0  0  0  0  0  0  0  0  0
   56.8430   24.8920   44.4810 C   0  0  0  0  0  0  0  0  0  0  0  0
   55.4990   24.4650   44.8710 N   0  0  0  0  0  0  0  0  0  0  0  0
   54.9030   23.2900   44.5870 C   0  0  0  0  0  0  0  0  0  0  0  0
   55.5170   22.2500   43.8990 O   0  0  0  0  0  0  0  0  0  0  0  0
   53.6090   23.2610   45.0680 C   0  0  0  0  0  0  0  0  0  0  0  0
   53.3970   24.4890   45.6730 C   0  0  0  0  0  0  0  0  0  0  0  0
   54.5750   25.1960   45.5250 C   0  0  0  0  0  0  0  0  0  0  0  0
   54.7880   26.4910   45.9820 O   0  0  0  0  0  0  0  0  0  0  0  0
   58.2800   27.2480   46.8060 C   0  0  0  0  0  0  0  0  0  0  0  0
   58.1300   28.6370   46.8030 C   0  0  0  0  0  0  0  0  0  0  0  0
   58.3450   34.4322   46.2854 H   0  0  0  0  0  0  0  0  0  0  0  0
   58.7614   33.6086   44.7443 H   0  0  0  0  0  0  0  0  0  0  0  0
   57.6040   34.9823   44.7443 H   0  0  0  0  0  0  0  0  0  0  0  0
   59.3045   29.3065   43.6643 H   0  0  0  0  0  0  0  0  0  0  0  0
   59.5787   26.8291   43.6718 H   0  0  0  0  0  0  0  0  0  0  0  0
   58.3607   23.4049   44.8537 H   0  0  0  0  0  0  0  0  0  0  0  0
   57.4034   23.9039   46.3060 H   0  0  0  0  0  0  0  0  0  0  0  0
   56.9131   25.9865   44.5655 H   0  0  0  0  0  0  0  0  0  0  0  0
   57.0274   24.5773   43.4432 H   0  0  0  0  0  0  0  0  0  0  0  0
   52.8918   22.4309   44.9871 H   0  0  0  0  0  0  0  0  0  0  0  0
   52.4776   24.8317   46.1703 H   0  0  0  0  0  0  0  0  0  0  0  0
   57.9922   26.6705   47.6969 H   0  0  0  0  0  0  0  0  0  0  0  0
   57.7242   29.1438   47.6909 H   0  0  0  0  0  0  0  0  0  0  0  0
  1  2  1  0
  2  3  1  0
  3  4  2  0
  3  5  2  0
  3  6  1  0
  6  7  1  0
  7  8  2  0
  8  9  1  0
  9 10  2  0
 10 11  1  0
 11 12  1  0
 12 13  1  0
 13 14  1  0
 14 15  1  0
 15 16  1  0
 15 17  2  0
 17 18  1  0
 18 19  2  0
 19 20  1  0
 10 21  1  0
 21 22  2  0
 22  7  1  0
 19 14  1  0
  1 23  1  0
  1 24  1  0
  1 25  1  0
  8 26  1  0
  9 27  1  0
 12 28  1  0
 12 29  1  0
 13 30  1  0
 13 31  1  0
 17 32  1  0
 18 33  1  0
 21 34  1  0
 22 35  1  0
M  CHG  3   2  -1  16  -1  20  -1
M  END
>  <UniqueID>  (65) 
59

>  <SMILES>  (65) 
C[N-]S(=O)(=O)Oc1ccc(OCCn2c([O-])ccc2[O-])cc1

>  <Energy>  (65) 
56.616569696345856

>  <Genealogy>  (65) 
C[N-]S(=O)(=O)Oc1ccc(OCCn2c([O-])ccc2[O-])cc1 (protonated)
C[N-]S(=O)(=O)Oc1ccc(OCCn2c([O-])ccc2[O-])cc1 (3D coordinates assigned)
C[N-]S(=O)(=O)Oc1ccc(OCCn2c([O-])ccc2[O-])cc1 (optimized conformer: 56.616569696345856 kcal/mol)

>  <smiles>  (65) 
CNS(=O)(=O)Oc1ccc(OCCn2c(O)ccc2O)cc1

>  <score_type>  (65) 
oracle

>  <origin>  (65) 
adg

>  <m_score__min__energy>  (65) 
-12.24

>  <m_primary>  (65) 
energy

$$$$
65:0
     RDKit          3D

 59 62  0  0  0  0  0  0  0  0999 V2000
   56.9810   32.1090   52.2280 O   0  0  0  0  0  0  0  0  0  0  0  0
   58.2060   32.3200   51.9930 C   0  0  0  0  0  0  0  0  0  0  0  0
   58.6770   33.7050   51.6520 C   0  0  0  0  0  0  0  0  0  0  0  0
   59.6490   33.6860   50.6050 O   0  0  0  0  0  0  0  0  0  0  0  0
   59.3720   33.4780   49.2440 C   0  0  0  0  0  0  0  0  0  0  0  0
   59.7420   34.3970   48.2450 C   0  0  0  0  0  0  0  0  0  0  0  0
   59.4460   34.1370   46.9030 C   0  0  0  0  0  0  0  0  0  0  0  0
   58.7720   32.9610   46.5410 C   0  0  0  0  0  0  0  0  0  0  0  0
   58.4920   32.6640   45.0910 C   0  0  0  0  0  0  0  0  0  0  0  0
   57.4850   31.5520   44.9380 C   0  0  0  0  0  0  0  0  0  0  0  0
   56.2590   31.8320   44.8500 O   0  0  0  0  0  0  0  0  0  0  0  0
   57.9030   30.1810   44.8230 N   0  0  0  0  0  0  0  0  0  0  0  0
   56.9630   29.0780   44.7200 C   0  0  0  0  0  0  0  0  0  0  0  0
   57.8100   27.8130   44.7090 C   0  0  0  0  0  0  0  0  0  0  0  0
   59.2310   28.2670   44.3830 C   0  0  0  0  0  0  0  0  0  0  0  0
   59.2860   29.7480   44.7270 C   0  0  0  0  0  0  0  0  0  0  0  0
   58.4110   32.0410   47.5370 C   0  0  0  0  0  0  0  0  0  0  0  0
   58.7050   32.3040   48.8770 C   0  0  0  0  0  0  0  0  0  0  0  0
   59.1610   31.2550   52.1000 N   0  0  0  0  0  0  0  0  0  0  0  0
   58.7960   29.9060   52.5310 C   0  0  0  0  0  0  0  0  0  0  0  0
   59.9810   28.9500   52.3550 C   0  0  0  0  0  0  0  0  0  0  0  0
   60.9320   29.4790   51.3760 N   0  0  0  0  0  0  0  0  0  0  0  0
   60.8320   29.4540   50.0700 C   0  0  0  0  0  0  0  0  0  0  0  0
   60.1080   28.4490   49.3940 C   0  0  0  0  0  0  0  0  0  0  0  0
   60.0040   28.4780   48.0010 C   0  0  0  0  0  0  0  0  0  0  0  0
   60.5970   29.4690   47.2910 N   0  0  0  0  0  0  0  0  0  0  0  0
   61.3100   30.4560   47.8960 C   0  0  0  0  0  0  0  0  0  0  0  0
   61.9010   31.4590   47.1190 C   0  0  0  0  0  0  0  0  0  0  0  0
   62.6460   32.4750   47.7270 C   0  0  0  0  0  0  0  0  0  0  0  0
   63.3880   33.7300   46.7480 Cl  0  0  0  0  0  0  0  0  0  0  0  0
   62.7970   32.4950   49.1150 C   0  0  0  0  0  0  0  0  0  0  0  0
   62.2050   31.5050   49.9040 C   0  0  0  0  0  0  0  0  0  0  0  0
   61.4510   30.4710   49.3060 C   0  0  0  0  0  0  0  0  0  0  0  0
   57.8145   34.3059   51.3278 H   0  0  0  0  0  0  0  0  0  0  0  0
   59.1440   34.1404   52.5478 H   0  0  0  0  0  0  0  0  0  0  0  0
   60.2663   35.3239   48.5206 H   0  0  0  0  0  0  0  0  0  0  0  0
   59.7432   34.8582   46.1274 H   0  0  0  0  0  0  0  0  0  0  0  0
   58.0980   33.5715   44.6101 H   0  0  0  0  0  0  0  0  0  0  0  0
   59.4320   32.3455   44.6167 H   0  0  0  0  0  0  0  0  0  0  0  0
   56.2801   29.0746   45.5823 H   0  0  0  0  0  0  0  0  0  0  0  0
   56.3416   29.1578   43.8158 H   0  0  0  0  0  0  0  0  0  0  0  0
   57.7806   27.3237   45.6937 H   0  0  0  0  0  0  0  0  0  0  0  0
   57.4391   27.0837   43.9738 H   0  0  0  0  0  0  0  0  0  0  0  0
   59.9596   27.7067   44.9873 H   0  0  0  0  0  0  0  0  0  0  0  0
   59.4790   28.0888   43.3262 H   0  0  0  0  0  0  0  0  0  0  0  0
   59.8029   29.9000   45.6860 H   0  0  0  0  0  0  0  0  0  0  0  0
   59.8389   30.3208   43.9679 H   0  0  0  0  0  0  0  0  0  0  0  0
   57.8947   31.1095   47.2617 H   0  0  0  0  0  0  0  0  0  0  0  0
   58.4092   31.5810   49.6514 H   0  0  0  0  0  0  0  0  0  0  0  0
   60.1570   31.4400   51.8400 H   0  0  0  0  0  0  0  0  0  0  0  0
   58.5046   29.9307   53.5914 H   0  0  0  0  0  0  0  0  0  0  0  0
   57.9560   29.5501   51.9164 H   0  0  0  0  0  0  0  0  0  0  0  0
   60.4904   28.8246   53.3219 H   0  0  0  0  0  0  0  0  0  0  0  0
   59.6036   27.9819   51.9939 H   0  0  0  0  0  0  0  0  0  0  0  0
   59.6250   27.6419   49.9643 H   0  0  0  0  0  0  0  0  0  0  0  0
   59.4382   27.6930   47.4779 H   0  0  0  0  0  0  0  0  0  0  0  0
   61.7792   31.4483   46.0258 H   0  0  0  0  0  0  0  0  0  0  0  0
   63.3850   33.2942   49.5899 H   0  0  0  0  0  0  0  0  0  0  0  0
   62.3269   31.5311   50.9969 H   0  0  0  0  0  0  0  0  0  0  0  0
  1  2  2  0
  2  3  1  0
  3  4  1  0
  4  5  1  0
  5  6  2  0
  6  7  1  0
  7  8  2  0
  8  9  1  0
  9 10  1  0
 10 11  2  0
 10 12  1  0
 12 13  1  0
 13 14  1  0
 14 15  1  0
 15 16  1  0
  8 17  1  0
 17 18  2  0
  2 19  1  0
 19 20  1  0
 20 21  1  0
 21 22  1  0
 22 23  2  3
 23 24  1  0
 24 25  2  0
 25 26  1  0
 26 27  1  0
 27 28  2  0
 28 29  1  0
 29 30  1  0
 29 31  2  0
 31 32  1  0
 32 33  2  0
 18  5  1  0
 33 23  1  0
 16 12  1  0
 33 27  1  0
  3 34  1  0
  3 35  1  0
  6 36  1  0
  7 37  1  0
  9 38  1  0
  9 39  1  0
 13 40  1  0
 13 41  1  0
 14 42  1  0
 14 43  1  0
 15 44  1  0
 15 45  1  0
 16 46  1  0
 16 47  1  0
 17 48  1  0
 18 49  1  0
 19 50  1  0
 20 51  1  0
 20 52  1  0
 21 53  1  0
 21 54  1  0
 24 55  1  0
 25 56  1  0
 28 57  1  0
 31 58  1  0
 32 59  1  0
M  CHG  1  26  -1
M  END
>  <UniqueID>  (66) 
60

>  <SMILES>  (66) 
O=C(COc1ccc(CC(=O)N2CCCC2)cc1)NCCN=c1cc[n-]c2cc(Cl)ccc12

>  <Energy>  (66) 
63.54768201781121

>  <Genealogy>  (66) 
O=C(COc1ccc(CC(=O)N2CCCC2)cc1)NCCN=c1cc[n-]c2cc(Cl)ccc12 (protonated)
O=C(COc1ccc(CC(=O)N2CCCC2)cc1)NCCN=c1cc[n-]c2cc(Cl)ccc12 (3D coordinates assigned)
O=C(COc1ccc(CC(=O)N2CCCC2)cc1)NCCN=c1cc[n-]c2cc(Cl)ccc12 (nonaromatic ring conformer: 63.54768201781121 kcal/mol)

>  <smiles>  (66) 
O=C(COc1ccc(CC(=O)N2CCCC2)cc1)NCCN=c1cc[nH]c2cc(Cl)ccc12

>  <score_type>  (66) 
oracle

>  <origin>  (66) 
adg

>  <m_score__min__energy>  (66) 
-9.6799999999999997

>  <m_primary>  (66) 
energy

$$$$
66:0
     RDKit          3D

 54 55  0  0  0  0  0  0  0  0999 V2000
   58.8940   31.2740   49.7930 C   0  0  0  0  0  0  0  0  0  0  0  0
   59.9220   32.3150   50.2180 C   0  0  0  0  0  0  0  0  0  0  0  0
   60.4800   32.9410   49.0780 O   0  0  0  0  0  0  0  0  0  0  0  0
   61.8920   32.8510   49.0750 C   0  0  0  0  0  0  0  0  0  0  0  0
   62.4330   32.6630   47.6510 C   0  0  0  0  0  0  0  0  0  0  0  0
   62.2300   31.2360   47.1170 C   0  0  0  0  0  0  0  0  0  0  0  0
   60.8140   30.8660   47.0600 N   0  0  0  0  0  0  0  0  0  0  0  0
   60.3340   29.9570   46.0580 C   0  0  0  0  0  0  0  0  0  0  0  0
   61.1500   29.4250   45.2570 O   0  0  0  0  0  0  0  0  0  0  0  0
   58.8630   29.6650   45.8900 C   0  0  1  0  0  0  0  0  0  0  0  0
   58.4280   29.8260   44.4980 N   0  0  0  0  0  0  0  0  0  0  0  0
   57.1600   30.4080   44.1620 C   0  0  0  0  0  0  0  0  0  0  0  0
   56.2610   29.7440   42.9680 S   0  0  0  0  0  0  0  0  0  0  0  0
   56.6750   31.5750   44.8420 N   0  0  0  0  0  0  0  0  0  0  0  0
   57.5550   32.5830   45.3580 C   0  0  0  0  0  0  0  0  0  0  0  0
   57.4930   32.9020   46.7220 C   0  0  0  0  0  0  0  0  0  0  0  0
   58.3770   33.8340   47.2700 C   0  0  0  0  0  0  0  0  0  0  0  0
   59.3220   34.4630   46.4590 C   0  0  0  0  0  0  0  0  0  0  0  0
   59.3680   34.1840   45.0910 C   0  0  0  0  0  0  0  0  0  0  0  0
   58.4720   33.2640   44.5220 C   0  0  0  0  0  0  0  0  0  0  0  0
   58.4940   33.0340   43.0350 C   0  0  0  0  0  0  0  0  0  0  0  0
   58.5330   28.2730   46.3910 C   0  0  0  0  0  0  0  0  0  0  0  0
   57.3620   27.6110   45.9750 C   0  0  0  0  0  0  0  0  0  0  0  0
   57.0660   26.3290   46.4470 C   0  0  0  0  0  0  0  0  0  0  0  0
   57.9320   25.6940   47.3410 C   0  0  0  0  0  0  0  0  0  0  0  0
   57.6370   24.4210   47.8110 O   0  0  0  0  0  0  0  0  0  0  0  0
   59.0960   26.3430   47.7650 C   0  0  0  0  0  0  0  0  0  0  0  0
   59.3950   27.6250   47.2940 C   0  0  0  0  0  0  0  0  0  0  0  0
   58.4433   30.8176   50.6866 H   0  0  0  0  0  0  0  0  0  0  0  0
   58.1092   31.7575   49.1928 H   0  0  0  0  0  0  0  0  0  0  0  0
   59.3873   30.4953   49.1928 H   0  0  0  0  0  0  0  0  0  0  0  0
   59.4331   33.0736   50.8469 H   0  0  0  0  0  0  0  0  0  0  0  0
   60.7236   31.8189   50.7849 H   0  0  0  0  0  0  0  0  0  0  0  0
   62.3114   33.7753   49.4991 H   0  0  0  0  0  0  0  0  0  0  0  0
   62.1868   31.9793   49.6776 H   0  0  0  0  0  0  0  0  0  0  0  0
   61.9131   33.3651   46.9826 H   0  0  0  0  0  0  0  0  0  0  0  0
   63.5161   32.8527   47.6819 H   0  0  0  0  0  0  0  0  0  0  0  0
   62.6544   31.1725   46.1042 H   0  0  0  0  0  0  0  0  0  0  0  0
   62.7344   30.5416   47.8050 H   0  0  0  0  0  0  0  0  0  0  0  0
   60.1340   31.3080   47.7180 H   0  0  0  0  0  0  0  0  0  0  0  0
   58.3126   30.4000   46.4957 H   0  0  0  0  0  0  0  0  0  0  0  0
   58.9520   29.3280   43.7420 H   0  0  0  0  0  0  0  0  0  0  0  0
   55.6470   31.6840   44.9900 H   0  0  0  0  0  0  0  0  0  0  0  0
   56.7439   32.4155   47.3640 H   0  0  0  0  0  0  0  0  0  0  0  0
   58.3281   34.0725   48.3427 H   0  0  0  0  0  0  0  0  0  0  0  0
   60.0320   35.1797   46.8975 H   0  0  0  0  0  0  0  0  0  0  0  0
   60.1108   34.6881   44.4552 H   0  0  0  0  0  0  0  0  0  0  0  0
   58.5969   31.9578   42.8319 H   0  0  0  0  0  0  0  0  0  0  0  0
   57.5565   33.4025   42.5931 H   0  0  0  0  0  0  0  0  0  0  0  0
   59.3446   33.5735   42.5931 H   0  0  0  0  0  0  0  0  0  0  0  0
   56.6749   28.1064   45.2733 H   0  0  0  0  0  0  0  0  0  0  0  0
   56.1499   25.8192   46.1141 H   0  0  0  0  0  0  0  0  0  0  0  0
   59.7772   25.8441   48.4700 H   0  0  0  0  0  0  0  0  0  0  0  0
   60.3114   28.1307   47.6322 H   0  0  0  0  0  0  0  0  0  0  0  0
  1  2  1  0
  2  3  1  0
  3  4  1  0
  4  5  1  0
  5  6  1  0
  6  7  1  0
  7  8  1  0
  8  9  2  0
  8 10  1  0
 10 11  1  0
 11 12  1  0
 12 13  2  0
 12 14  1  0
 14 15  1  0
 15 16  2  0
 16 17  1  0
 17 18  2  0
 18 19  1  0
 19 20  2  0
 20 21  1  0
 10 22  1  0
 22 23  2  0
 23 24  1  0
 24 25  2  0
 25 26  1  0
 25 27  1  0
 27 28  2  0
 20 15  1  0
 28 22  1  0
  1 29  1  0
  1 30  1  0
  1 31  1  0
  2 32  1  0
  2 33  1  0
  4 34  1  0
  4 35  1  0
  5 36  1  0
  5 37  1  0
  6 38  1  0
  6 39  1  0
  7 40  1  0
 10 41  1  1
 11 42  1  0
 14 43  1  0
 16 44  1  0
 17 45  1  0
 18 46  1  0
 19 47  1  0
 21 48  1  0
 21 49  1  0
 21 50  1  0
 23 51  1  0
 24 52  1  0
 27 53  1  0
 28 54  1  0
M  CHG  1  26  -1
M  END
>  <UniqueID>  (67) 
61

>  <SMILES>  (67) 
CCOCCCNC(=O)[C@@H](NC(=S)Nc1ccccc1C)c1ccc([O-])cc1

>  <Energy>  (67) 
51.964697715893855

>  <Genealogy>  (67) 
CCOCCCNC(=O)C(NC(=S)Nc1ccccc1C)c1ccc([O-])cc1 (protonated)
CCOCCCNC(=O)[C@@H](NC(=S)Nc1ccccc1C)c1ccc([O-])cc1 (chirality)
CCOCCCNC(=O)[C@@H](NC(=S)Nc1ccccc1C)c1ccc([O-])cc1 (3D coordinates assigned)
CCOCCCNC(=O)[C@@H](NC(=S)Nc1ccccc1C)c1ccc([O-])cc1 (optimized conformer: 51.964697715893855 kcal/mol)

>  <smiles>  (67) 
CCOCCCNC(=O)C(NC(=S)Nc1ccccc1C)c1ccc(O)cc1

>  <score_type>  (67) 
oracle

>  <origin>  (67) 
adg

>  <m_score__min__energy>  (67) 
-8.9100000000000001

>  <m_primary>  (67) 
energy

$$$$
67:0
     RDKit          3D

 67 71  0  0  0  0  0  0  0  0999 V2000
   58.1440   26.7680   42.3100 C   0  0  0  0  0  0  0  0  0  0  0  0
   58.5210   27.5460   43.4370 O   0  0  0  0  0  0  0  0  0  0  0  0
   58.8820   28.3060   44.5440 C   0  0  0  0  0  0  0  0  0  0  0  0
   60.1760   28.8390   44.5970 C   0  0  0  0  0  0  0  0  0  0  0  0
   60.5700   29.5610   45.7210 C   0  0  0  0  0  0  0  0  0  0  0  0
   59.6800   29.7580   46.7830 C   0  0  0  0  0  0  0  0  0  0  0  0
   58.3870   29.2230   46.7300 C   0  0  0  0  0  0  0  0  0  0  0  0
   57.9840   28.4880   45.6020 C   0  0  0  0  0  0  0  0  0  0  0  0
   56.5970   27.9050   45.5300 C   0  0  0  0  0  0  0  0  0  0  0  0
   55.6040   28.9430   45.2440 N   0  0  0  0  0  0  0  0  0  0  0  0
   55.6290   29.7830   44.0810 C   0  0  0  0  0  0  0  0  0  0  0  0
   54.8390   29.5410   43.1320 O   0  0  0  0  0  0  0  0  0  0  0  0
   56.5830   30.8930   43.9440 C   0  0  0  0  0  0  0  0  0  0  0  0
   57.2650   31.0740   42.7350 C   0  0  0  0  0  0  0  0  0  0  0  0
   58.1400   32.1490   42.5750 C   0  0  0  0  0  0  0  0  0  0  0  0
   58.3180   33.0620   43.6130 C   0  0  0  0  0  0  0  0  0  0  0  0
   57.6490   32.9020   44.8250 C   0  0  0  0  0  0  0  0  0  0  0  0
   57.8050   33.8960   45.8490 N   0  0  0  0  0  0  0  0  0  0  0  0
   59.3520   34.4070   46.4610 S   0  0  0  0  0  0  0  0  0  0  0  0
   59.2430   35.7650   47.1000 O   0  0  0  0  0  0  0  0  0  0  0  0
   60.3160   34.4820   45.3110 O   0  0  0  0  0  0  0  0  0  0  0  0
   59.9550   33.2380   47.6140 C   0  0  0  0  0  0  0  0  0  0  0  0
   61.2740   32.7890   47.5160 C   0  0  0  0  0  0  0  0  0  0  0  0
   61.7530   31.8280   48.4120 C   0  0  0  0  0  0  0  0  0  0  0  0
   60.9140   31.3160   49.4110 C   0  0  0  0  0  0  0  0  0  0  0  0
   59.5690   31.7390   49.5060 C   0  0  0  0  0  0  0  0  0  0  0  0
   58.6710   31.1420   50.5390 C   0  0  0  0  0  0  0  0  0  0  0  0
   59.0290   30.1090   51.4160 C   0  0  0  0  0  0  0  0  0  0  0  0
   57.9200   29.9120   52.2030 C   0  0  0  0  0  0  0  0  0  0  0  0
   56.9540   30.7600   51.7820 C   0  0  0  0  0  0  0  0  0  0  0  0
   57.3810   31.5250   50.7560 N   0  0  0  0  0  0  0  0  0  0  0  0
   55.7040   30.7600   52.3920 C   0  0  0  0  0  0  0  0  0  0  0  0
   54.7980   31.5430   51.9960 O   0  0  0  0  0  0  0  0  0  0  0  0
   55.4930   29.9010   53.4540 N   0  0  0  0  0  0  0  0  0  0  0  0
   54.2030   29.8720   54.1560 C   0  0  0  0  0  0  0  0  0  0  0  0
   56.4810   29.0090   53.8300 C   0  0  0  0  0  0  0  0  0  0  0  0
   56.2530   28.2090   54.7930 O   0  0  0  0  0  0  0  0  0  0  0  0
   57.7080   28.9960   53.1910 N   0  0  0  0  0  0  0  0  0  0  0  0
   58.7650   28.0430   53.5420 C   0  0  0  0  0  0  0  0  0  0  0  0
   59.0970   32.7100   48.5940 C   0  0  0  0  0  0  0  0  0  0  0  0
   56.7770   31.8130   44.9940 C   0  0  0  0  0  0  0  0  0  0  0  0
   57.6879   25.8267   42.6503 H   0  0  0  0  0  0  0  0  0  0  0  0
   57.4178   27.3291   41.7035 H   0  0  0  0  0  0  0  0  0  0  0  0
   59.0343   26.5458   41.7035 H   0  0  0  0  0  0  0  0  0  0  0  0
   60.8737   28.6890   43.7599 H   0  0  0  0  0  0  0  0  0  0  0  0
   61.5862   29.9787   45.7743 H   0  0  0  0  0  0  0  0  0  0  0  0
   59.9977   30.3358   47.6635 H   0  0  0  0  0  0  0  0  0  0  0  0
   57.6902   29.3773   47.5671 H   0  0  0  0  0  0  0  0  0  0  0  0
   56.5661   27.1484   44.7321 H   0  0  0  0  0  0  0  0  0  0  0  0
   56.3577   27.4504   46.5027 H   0  0  0  0  0  0  0  0  0  0  0  0
   57.1104   30.3658   41.9076 H   0  0  0  0  0  0  0  0  0  0  0  0
   58.6890   32.2759   41.6303 H   0  0  0  0  0  0  0  0  0  0  0  0
   58.9941   33.9185   43.4740 H   0  0  0  0  0  0  0  0  0  0  0  0
   56.9990   34.5410   46.0280 H   0  0  0  0  0  0  0  0  0  0  0  0
   61.9356   33.1910   46.7345 H   0  0  0  0  0  0  0  0  0  0  0  0
   62.7911   31.4730   48.3324 H   0  0  0  0  0  0  0  0  0  0  0  0
   61.3057   30.5787   50.1272 H   0  0  0  0  0  0  0  0  0  0  0  0
   59.9884   29.5730   51.4638 H   0  0  0  0  0  0  0  0  0  0  0  0
   56.8390   32.2810   50.2750 H   0  0  0  0  0  0  0  0  0  0  0  0
   54.3765   29.8759   55.2422 H   0  0  0  0  0  0  0  0  0  0  0  0
   53.6131   30.7571   53.8757 H   0  0  0  0  0  0  0  0  0  0  0  0
   53.6534   28.9613   53.8757 H   0  0  0  0  0  0  0  0  0  0  0  0
   58.8450   27.9709   54.6367 H   0  0  0  0  0  0  0  0  0  0  0  0
   58.5202   27.0544   53.1263 H   0  0  0  0  0  0  0  0  0  0  0  0
   59.7230   28.3885   53.1263 H   0  0  0  0  0  0  0  0  0  0  0  0
   58.0537   33.0540   48.6514 H   0  0  0  0  0  0  0  0  0  0  0  0
   56.2450   31.6784   45.9473 H   0  0  0  0  0  0  0  0  0  0  0  0
  1  2  1  0
  2  3  1  0
  3  4  2  0
  4  5  1  0
  5  6  2  0
  6  7  1  0
  7  8  2  0
  8  9  1  0
  9 10  1  0
 10 11  1  0
 11 12  2  0
 11 13  1  0
 13 14  2  0
 14 15  1  0
 15 16  2  0
 16 17  1  0
 17 18  1  0
 18 19  1  0
 19 20  2  0
 19 21  2  0
 19 22  1  0
 22 23  2  0
 23 24  1  0
 24 25  2  0
 25 26  1  0
 26 27  1  0
 27 28  2  0
 28 29  1  0
 29 30  2  0
 30 31  1  0
 30 32  1  0
 32 33  2  0
 32 34  1  0
 34 35  1  0
 34 36  1  0
 36 37  2  0
 36 38  1  0
 38 39  1  0
 26 40  2  0
 17 41  2  0
  8  3  1  0
 41 13  1  0
 40 22  1  0
 31 27  1  0
 38 29  1  0
  1 42  1  0
  1 43  1  0
  1 44  1  0
  4 45  1  0
  5 46  1  0
  6 47  1  0
  7 48  1  0
  9 49  1  0
  9 50  1  0
 14 51  1  0
 15 52  1  0
 16 53  1  0
 18 54  1  0
 23 55  1  0
 24 56  1  0
 25 57  1  0
 28 58  1  0
 31 59  1  0
 35 60  1  0
 35 61  1  0
 35 62  1  0
 39 63  1  0
 39 64  1  0
 39 65  1  0
 40 66  1  0
 41 67  1  0
M  CHG  1  10  -1
M  END
>  <UniqueID>  (68) 
62

>  <SMILES>  (68) 
COc1ccccc1C[N-]C(=O)c1cccc(NS(=O)(=O)c2cccc(-c3cc4c([nH]3)c(=O)n(C)c(=O)n4C)c2)c1

>  <Energy>  (68) 
173.9399665952111

>  <Genealogy>  (68) 
COc1ccccc1C[N-]C(=O)c1cccc(NS(=O)(=O)c2cccc(-c3cc4c([nH]3)c(=O)n(C)c(=O)n4C)c2)c1 (protonated)
COc1ccccc1C[N-]C(=O)c1cccc(NS(=O)(=O)c2cccc(-c3cc4c([nH]3)c(=O)n(C)c(=O)n4C)c2)c1 (3D coordinates assigned)
COc1ccccc1C[N-]C(=O)c1cccc(NS(=O)(=O)c2cccc(-c3cc4c([nH]3)c(=O)n(C)c(=O)n4C)c2)c1 (optimized conformer: 173.9399665952111 kcal/mol)

>  <smiles>  (68) 
COc1ccccc1CNC(=O)c1cccc(NS(=O)(=O)c2cccc(-c3cc4c([nH]3)c(=O)n(C)c(=O)n4C)c2)c1

>  <score_type>  (68) 
oracle

>  <origin>  (68) 
adg

>  <m_score__min__energy>  (68) 
-13.779999999999999

>  <m_primary>  (68) 
energy

$$$$
68:0
     RDKit          3D

 57 61  0  0  0  0  0  0  0  0999 V2000
   57.9630   27.5100   43.8270 C   0  0  0  0  0  0  0  0  0  0  0  0
   57.7020   28.4470   44.9350 N   0  0  0  0  0  0  0  0  0  0  0  0
   56.3350   29.0250   44.8600 C   0  0  0  0  0  0  0  0  0  0  0  0
   56.3340   30.2910   43.9970 C   0  0  0  0  0  0  0  0  0  0  0  0
   57.3900   31.2590   44.4310 C   0  0  0  0  0  0  0  0  0  0  0  0
   58.5770   31.1090   44.0360 O   0  0  0  0  0  0  0  0  0  0  0  0
   57.0550   32.3070   45.3460 N   0  0  0  0  0  0  0  0  0  0  0  0
   57.9850   33.3020   45.7960 C   0  0  0  0  0  0  0  0  0  0  0  0
   58.4120   34.2670   44.8750 C   0  0  0  0  0  0  0  0  0  0  0  0
   59.2860   35.2830   45.2640 C   0  0  0  0  0  0  0  0  0  0  0  0
   59.7560   35.3400   46.5770 C   0  0  0  0  0  0  0  0  0  0  0  0
   59.3670   34.3680   47.5080 C   0  0  0  0  0  0  0  0  0  0  0  0
   59.8540   34.4030   48.8230 C   0  0  0  0  0  0  0  0  0  0  0  0
   59.4960   33.4380   49.7090 N   0  0  0  0  0  0  0  0  0  0  0  0
   58.6730   32.4150   49.3610 C   0  0  0  0  0  0  0  0  0  0  0  0
   58.1600   32.3340   48.0650 C   0  0  0  0  0  0  0  0  0  0  0  0
   58.4840   33.3270   47.1220 C   0  0  0  0  0  0  0  0  0  0  0  0
   58.0560   27.8330   46.2450 C   0  0  1  0  0  0  0  0  0  0  0  0
   59.2430   26.8610   46.1100 C   0  0  0  0  0  0  0  0  0  0  0  0
   60.3980   27.4560   46.9110 C   0  0  0  0  0  0  0  0  0  0  0  0
   59.8580   28.6180   47.5910 N   0  0  0  0  0  0  0  0  0  0  0  0
   60.6150   29.4040   48.5180 C   0  0  0  0  0  0  0  0  0  0  0  0
   60.7120   29.0270   49.8730 C   0  0  0  0  0  0  0  0  0  0  0  0
   61.4650   29.8030   50.7820 C   0  0  0  0  0  0  0  0  0  0  0  0
   62.1200   30.9700   50.3510 C   0  0  0  0  0  0  0  0  0  0  0  0
   62.0000   31.3280   49.0090 C   0  0  0  0  0  0  0  0  0  0  0  0
   62.5180   32.4120   48.4100 N   0  0  0  0  0  0  0  0  0  0  0  0
   62.1110   32.3520   47.1220 C   0  0  0  0  0  0  0  0  0  0  0  0
   61.3310   31.2220   46.9030 C   0  0  0  0  0  0  0  0  0  0  0  0
   61.2760   30.5740   48.1210 C   0  0  0  0  0  0  0  0  0  0  0  0
   58.4510   28.8530   47.3280 C   0  0  0  0  0  0  0  0  0  0  0  0
   58.2370   26.5262   44.2356 H   0  0  0  0  0  0  0  0  0  0  0  0
   57.0581   27.4114   43.2093 H   0  0  0  0  0  0  0  0  0  0  0  0
   58.7885   27.8934   43.2093 H   0  0  0  0  0  0  0  0  0  0  0  0
   55.6527   28.2845   44.4171 H   0  0  0  0  0  0  0  0  0  0  0  0
   56.0033   29.2867   45.8756 H   0  0  0  0  0  0  0  0  0  0  0  0
   56.5182   30.0086   42.9500 H   0  0  0  0  0  0  0  0  0  0  0  0
   55.3549   30.7800   44.1076 H   0  0  0  0  0  0  0  0  0  0  0  0
   58.0551   34.2236   43.8354 H   0  0  0  0  0  0  0  0  0  0  0  0
   59.6054   36.0411   44.5338 H   0  0  0  0  0  0  0  0  0  0  0  0
   60.4341   36.1507   46.8818 H   0  0  0  0  0  0  0  0  0  0  0  0
   60.5274   35.2140   49.1373 H   0  0  0  0  0  0  0  0  0  0  0  0
   58.4096   31.6472   50.1033 H   0  0  0  0  0  0  0  0  0  0  0  0
   57.5049   31.4969   47.7820 H   0  0  0  0  0  0  0  0  0  0  0  0
   57.1352   27.3156   46.5524 H   0  0  0  0  0  0  0  0  0  0  0  0
   58.9716   25.8744   46.5138 H   0  0  0  0  0  0  0  0  0  0  0  0
   59.5239   26.7274   45.0549 H   0  0  0  0  0  0  0  0  0  0  0  0
   60.7720   26.7248   47.6427 H   0  0  0  0  0  0  0  0  0  0  0  0
   61.2418   27.7271   46.2595 H   0  0  0  0  0  0  0  0  0  0  0  0
   60.1971   28.1211   50.2253 H   0  0  0  0  0  0  0  0  0  0  0  0
   61.5394   29.4920   51.8345 H   0  0  0  0  0  0  0  0  0  0  0  0
   62.7087   31.5814   51.0507 H   0  0  0  0  0  0  0  0  0  0  0  0
   63.1030   33.1580   48.8460 H   0  0  0  0  0  0  0  0  0  0  0  0
   62.3628   33.0961   46.3520 H   0  0  0  0  0  0  0  0  0  0  0  0
   60.8582   30.9105   45.9599 H   0  0  0  0  0  0  0  0  0  0  0  0
   57.8579   28.6931   48.2405 H   0  0  0  0  0  0  0  0  0  0  0  0
   58.2654   29.8866   47.0006 H   0  0  0  0  0  0  0  0  0  0  0  0
  1  2  1  0
  2  3  1  0
  3  4  1  0
  4  5  1  0
  5  6  2  0
  5  7  1  0
  7  8  1  0
  8  9  2  0
  9 10  1  0
 10 11  2  0
 11 12  1  0
 12 13  2  0
 13 14  1  0
 14 15  2  0
 15 16  1  0
 16 17  2  0
  2 18  1  0
 18 19  1  0
 19 20  1  0
 20 21  1  0
 21 22  1  0
 22 23  2  0
 23 24  1  0
 24 25  2  0
 25 26  1  0
 26 27  1  0
 27 28  1  0
 28 29  2  0
 29 30  1  0
 21 31  1  0
 17  8  1  0
 31 18  1  0
 17 12  1  0
 30 22  1  0
 30 26  2  0
  1 32  1  0
  1 33  1  0
  1 34  1  0
  3 35  1  0
  3 36  1  0
  4 37  1  0
  4 38  1  0
  9 39  1  0
 10 40  1  0
 11 41  1  0
 13 42  1  0
 15 43  1  0
 16 44  1  0
 18 45  1  1
 19 46  1  0
 19 47  1  0
 20 48  1  0
 20 49  1  0
 23 50  1  0
 24 51  1  0
 25 52  1  0
 27 53  1  0
 28 54  1  0
 29 55  1  0
 31 56  1  0
 31 57  1  0
M  CHG  1   7  -1
M  END
>  <UniqueID>  (69) 
63

>  <SMILES>  (69) 
CN(CCC(=O)[N-]c1cccc2cnccc12)[C@H]1CCN(c2cccc3[nH]ccc23)C1

>  <Energy>  (69) 
115.52465971203631

>  <Genealogy>  (69) 
CN(CCC(=O)[N-]c1cccc2cnccc12)C1CCN(c2cccc3[nH]ccc23)C1 (protonated)
CN(CCC(=O)[N-]c1cccc2cnccc12)[C@H]1CCN(c2cccc3[nH]ccc23)C1 (chirality)
CN(CCC(=O)[N-]c1cccc2cnccc12)[C@H]1CCN(c2cccc3[nH]ccc23)C1 (3D coordinates assigned)
CN(CCC(=O)[N-]c1cccc2cnccc12)[C@H]1CCN(c2cccc3[nH]ccc23)C1 (nonaromatic ring conformer: 115.52465971203631 kcal/mol)

>  <smiles>  (69) 
CN(CCC(=O)Nc1cccc2cnccc12)C1CCN(c2cccc3[nH]ccc23)C1

>  <score_type>  (69) 
oracle

>  <origin>  (69) 
adg

>  <m_score__min__energy>  (69) 
-11.75

>  <m_primary>  (69) 
energy

$$$$
69:0
     RDKit          3D

 48 50  0  0  0  0  0  0  0  0999 V2000
   60.4500   26.3100   48.0920 O   0  0  0  0  0  0  0  0  0  0  0  0
   59.3120   26.7870   47.8350 C   0  0  0  0  0  0  0  0  0  0  0  0
   58.9880   28.1290   48.2120 N   0  0  0  0  0  0  0  0  0  0  0  0
   59.9980   29.1450   48.4790 C   0  0  0  0  0  0  0  0  0  0  0  0
   60.2770   29.9590   47.2120 C   0  0  0  0  0  0  0  0  0  0  0  0
   59.1500   30.9490   46.8740 C   0  0  0  0  0  0  0  0  0  0  0  0
   58.2110   30.3960   45.8370 C   0  0  0  0  0  0  0  0  0  0  0  0
   57.4330   29.2500   45.9440 C   0  0  0  0  0  0  0  0  0  0  0  0
   56.7220   29.0490   44.8100 N   0  0  0  0  0  0  0  0  0  0  0  0
   57.0490   30.0600   43.9860 C   0  0  0  0  0  0  0  0  0  0  0  0
   56.5710   30.2890   42.6980 C   0  0  0  0  0  0  0  0  0  0  0  0
   57.0530   31.4190   42.0080 C   0  0  0  0  0  0  0  0  0  0  0  0
   57.9940   32.2800   42.6140 C   0  0  0  0  0  0  0  0  0  0  0  0
   58.4570   32.0240   43.9170 C   0  0  0  0  0  0  0  0  0  0  0  0
   57.9600   30.9000   44.5760 C   0  0  0  0  0  0  0  0  0  0  0  0
   58.3160   25.9870   47.1960 N   0  0  0  0  0  0  0  0  0  0  0  0
   57.5210   26.4320   46.0540 C   0  0  1  0  0  0  0  0  0  0  0  0
   58.1300   25.8780   44.7490 C   0  0  0  0  0  0  0  0  0  0  0  0
   57.6350   24.4880   44.4300 C   0  0  0  0  0  0  0  0  0  0  0  0
   56.6870   24.2900   43.4130 C   0  0  0  0  0  0  0  0  0  0  0  0
   56.2460   22.9970   43.1030 C   0  0  0  0  0  0  0  0  0  0  0  0
   56.7290   21.8980   43.8200 C   0  0  0  0  0  0  0  0  0  0  0  0
   56.2850   20.6160   43.4960 O   0  0  0  0  0  0  0  0  0  0  0  0
   57.6570   22.0940   44.8520 C   0  0  0  0  0  0  0  0  0  0  0  0
   58.1040   23.3830   45.1590 C   0  0  0  0  0  0  0  0  0  0  0  0
   56.1070   25.9660   46.2420 C   0  0  0  0  0  0  0  0  0  0  0  0
   55.1420   26.7100   45.9200 O   0  0  0  0  0  0  0  0  0  0  0  0
   55.8550   24.6950   46.7470 O   0  0  0  0  0  0  0  0  0  0  0  0
   59.6364   29.8176   49.2708 H   0  0  0  0  0  0  0  0  0  0  0  0
   60.9271   28.6518   48.8007 H   0  0  0  0  0  0  0  0  0  0  0  0
   61.2090   30.5250   47.3570 H   0  0  0  0  0  0  0  0  0  0  0  0
   60.3538   29.2493   46.3751 H   0  0  0  0  0  0  0  0  0  0  0  0
   58.5807   31.1662   47.7898 H   0  0  0  0  0  0  0  0  0  0  0  0
   59.6086   31.8621   46.4668 H   0  0  0  0  0  0  0  0  0  0  0  0
   57.3995   28.5964   46.8281 H   0  0  0  0  0  0  0  0  0  0  0  0
   56.0570   28.2660   44.6150 H   0  0  0  0  0  0  0  0  0  0  0  0
   55.8407   29.6095   42.2344 H   0  0  0  0  0  0  0  0  0  0  0  0
   56.6938   31.6319   40.9903 H   0  0  0  0  0  0  0  0  0  0  0  0
   58.3671   33.1562   42.0635 H   0  0  0  0  0  0  0  0  0  0  0  0
   59.1876   32.6889   44.4008 H   0  0  0  0  0  0  0  0  0  0  0  0
   57.5248   27.5298   45.9850 H   0  0  0  0  0  0  0  0  0  0  0  0
   57.8596   26.5486   43.9200 H   0  0  0  0  0  0  0  0  0  0  0  0
   59.2205   25.8241   44.8832 H   0  0  0  0  0  0  0  0  0  0  0  0
   56.2896   25.1527   42.8582 H   0  0  0  0  0  0  0  0  0  0  0  0
   55.5174   22.8458   42.2929 H   0  0  0  0  0  0  0  0  0  0  0  0
   56.8940   19.8090   43.5730 H   0  0  0  0  0  0  0  0  0  0  0  0
   58.0345   21.2320   45.4216 H   0  0  0  0  0  0  0  0  0  0  0  0
   58.8262   23.5321   45.9752 H   0  0  0  0  0  0  0  0  0  0  0  0
  1  2  2  0
  2  3  1  0
  3  4  1  0
  4  5  1  0
  5  6  1  0
  6  7  1  0
  7  8  2  0
  8  9  1  0
  9 10  1  0
 10 11  2  0
 11 12  1  0
 12 13  2  0
 13 14  1  0
 14 15  2  0
  2 16  1  0
 16 17  1  0
 17 18  1  0
 18 19  1  0
 19 20  2  0
 20 21  1  0
 21 22  2  0
 22 23  1  0
 22 24  1  0
 24 25  2  0
 17 26  1  0
 26 27  2  0
 26 28  1  0
 15  7  1  0
 25 19  1  0
 15 10  1  0
  4 29  1  0
  4 30  1  0
  5 31  1  0
  5 32  1  0
  6 33  1  0
  6 34  1  0
  8 35  1  0
  9 36  1  0
 11 37  1  0
 12 38  1  0
 13 39  1  0
 14 40  1  0
 17 41  1  6
 18 42  1  0
 18 43  1  0
 20 44  1  0
 21 45  1  0
 23 46  1  0
 24 47  1  0
 25 48  1  0
M  CHG  3   3  -1  16  -1  28  -1
M  END
>  <UniqueID>  (70) 
64

>  <SMILES>  (70) 
O=C([N-]CCCc1c[nH]c2ccccc12)[N-][C@@H](Cc1ccc(O)cc1)C(=O)[O-]

>  <Energy>  (70) 
72.14426530671992

>  <Genealogy>  (70) 
O=C([N-]CCCc1c[nH]c2ccccc12)[N-]C(Cc1ccc(O)cc1)C(=O)[O-] (protonated)
O=C([N-]CCCc1c[nH]c2ccccc12)[N-][C@@H](Cc1ccc(O)cc1)C(=O)[O-] (chirality)
O=C([N-]CCCc1c[nH]c2ccccc12)[N-][C@@H](Cc1ccc(O)cc1)C(=O)[O-] (3D coordinates assigned)
O=C([N-]CCCc1c[nH]c2ccccc12)[N-][C@@H](Cc1ccc(O)cc1)C(=O)[O-] (optimized conformer: 72.14426530671992 kcal/mol)

>  <smiles>  (70) 
O=C(NCCCc1c[nH]c2ccccc12)NC(Cc1ccc(O)cc1)C(=O)O

>  <score_type>  (70) 
oracle

>  <origin>  (70) 
adg

>  <m_score__min__energy>  (70) 
-15.15

>  <m_primary>  (70) 
energy

$$$$
70:0
     RDKit          3D

 37 39  0  0  0  0  0  0  0  0999 V2000
   60.1840   30.5140   46.4940 C   0  0  0  0  0  0  0  0  0  0  0  0
   59.3190   29.2980   46.2960 C   0  0  0  0  0  0  0  0  0  0  0  0
   59.4100   28.2450   47.2190 C   0  0  0  0  0  0  0  0  0  0  0  0
   58.6600   27.0800   47.0460 C   0  0  0  0  0  0  0  0  0  0  0  0
   57.7990   26.9430   45.9470 C   0  0  0  0  0  0  0  0  0  0  0  0
   57.0220   25.6950   45.7590 C   0  0  0  0  0  0  0  0  0  0  0  0
   57.6220   24.4530   45.5530 C   0  0  0  0  0  0  0  0  0  0  0  0
   56.4090   23.3020   45.3820 S   0  0  0  0  0  0  0  0  0  0  0  0
   55.1080   24.3450   45.5720 C   0  0  0  0  0  0  0  0  0  0  0  0
   55.6140   25.6190   45.7760 C   0  0  0  0  0  0  0  0  0  0  0  0
   54.7880   26.7120   46.0070 O   0  0  0  0  0  0  0  0  0  0  0  0
   57.6980   27.9980   45.0250 C   0  0  0  0  0  0  0  0  0  0  0  0
   58.4210   29.1840   45.2070 C   0  0  0  0  0  0  0  0  0  0  0  0
   58.2600   30.2330   44.2440 N   0  0  0  0  0  0  0  0  0  0  0  0
   57.0290   30.9250   44.0210 C   0  0  0  0  0  0  0  0  0  0  0  0
   56.2510   30.5170   43.1190 O   0  0  0  0  0  0  0  0  0  0  0  0
   56.6530   32.0160   44.8720 N   0  0  0  0  0  0  0  0  0  0  0  0
   57.5430   32.8830   45.5880 C   0  0  0  0  0  0  0  0  0  0  0  0
   57.7850   32.7300   46.9670 C   0  0  0  0  0  0  0  0  0  0  0  0
   58.6380   33.6150   47.6330 C   0  0  0  0  0  0  0  0  0  0  0  0
   59.2450   34.6640   46.9370 C   0  0  0  0  0  0  0  0  0  0  0  0
   58.9930   34.8380   45.5730 C   0  0  0  0  0  0  0  0  0  0  0  0
   59.5950   35.8940   44.8920 O   0  0  0  0  0  0  0  0  0  0  0  0
   58.1360   33.9520   44.9030 C   0  0  0  0  0  0  0  0  0  0  0  0
   60.3156   30.6990   47.5703 H   0  0  0  0  0  0  0  0  0  0  0  0
   61.1661   30.3452   46.0282 H   0  0  0  0  0  0  0  0  0  0  0  0
   59.7024   31.3864   46.0282 H   0  0  0  0  0  0  0  0  0  0  0  0
   60.0788   28.3382   48.0874 H   0  0  0  0  0  0  0  0  0  0  0  0
   58.7450   26.2629   47.7775 H   0  0  0  0  0  0  0  0  0  0  0  0
   58.7040   24.2597   45.5098 H   0  0  0  0  0  0  0  0  0  0  0  0
   54.0441   24.0672   45.5403 H   0  0  0  0  0  0  0  0  0  0  0  0
   57.0423   27.8914   44.1482 H   0  0  0  0  0  0  0  0  0  0  0  0
   57.3016   31.9121   47.5214 H   0  0  0  0  0  0  0  0  0  0  0  0
   58.8320   33.4853   48.7080 H   0  0  0  0  0  0  0  0  0  0  0  0
   59.9217   35.3534   47.4630 H   0  0  0  0  0  0  0  0  0  0  0  0
   59.7950   35.8390   43.9010 H   0  0  0  0  0  0  0  0  0  0  0  0
   57.9282   34.0975   43.8327 H   0  0  0  0  0  0  0  0  0  0  0  0
  1  2  1  0
  2  3  2  0
  3  4  1  0
  4  5  2  0
  5  6  1  0
  6  7  2  0
  7  8  1  0
  8  9  1  0
  9 10  2  0
 10 11  1  0
  5 12  1  0
 12 13  2  0
 13 14  1  0
 14 15  1  0
 15 16  2  0
 15 17  1  0
 17 18  1  0
 18 19  2  0
 19 20  1  0
 20 21  2  0
 21 22  1  0
 22 23  1  0
 22 24  2  0
 13  2  1  0
 24 18  1  0
 10  6  1  0
  1 25  1  0
  1 26  1  0
  1 27  1  0
  3 28  1  0
  4 29  1  0
  7 30  1  0
  9 31  1  0
 12 32  1  0
 19 33  1  0
 20 34  1  0
 21 35  1  0
 23 36  1  0
 24 37  1  0
M  CHG  3  11  -1  14  -1  17  -1
M  END
>  <UniqueID>  (71) 
65

>  <SMILES>  (71) 
Cc1ccc(-c2cscc2[O-])cc1[N-]C(=O)[N-]c1cccc(O)c1

>  <Energy>  (71) 
79.472749416975

>  <Genealogy>  (71) 
Cc1ccc(-c2cscc2[O-])cc1[N-]C(=O)[N-]c1cccc(O)c1 (protonated)
Cc1ccc(-c2cscc2[O-])cc1[N-]C(=O)[N-]c1cccc(O)c1 (3D coordinates assigned)
Cc1ccc(-c2cscc2[O-])cc1[N-]C(=O)[N-]c1cccc(O)c1 (optimized conformer: 79.472749416975 kcal/mol)

>  <smiles>  (71) 
Cc1ccc(-c2cscc2O)cc1NC(=O)Nc1cccc(O)c1

>  <score_type>  (71) 
oracle

>  <origin>  (71) 
adg

>  <m_score__min__energy>  (71) 
-13.890000000000001

>  <m_primary>  (71) 
energy

$$$$
71:0
     RDKit          3D

 46 48  0  0  0  0  0  0  0  0999 V2000
   55.4430   29.0950   44.6260 N   0  0  0  0  0  0  0  0  0  0  0  0
   56.2690   28.1320   45.2860 C   0  0  0  0  0  0  0  0  0  0  0  0
   55.7500   27.0560   45.6880 O   0  0  0  0  0  0  0  0  0  0  0  0
   57.7170   28.3820   45.4890 C   0  0  0  0  0  0  0  0  0  0  0  0
   58.5740   27.3070   45.7800 C   0  0  0  0  0  0  0  0  0  0  0  0
   59.9390   27.5200   45.9820 C   0  0  0  0  0  0  0  0  0  0  0  0
   60.4660   28.8090   45.9010 C   0  0  0  0  0  0  0  0  0  0  0  0
   59.6320   29.8870   45.6100 C   0  0  0  0  0  0  0  0  0  0  0  0
   58.2620   29.6820   45.3680 C   0  0  0  0  0  0  0  0  0  0  0  0
   57.4110   30.7970   45.0680 N   0  0  0  0  0  0  0  0  0  0  0  0
   57.3570   31.5080   43.8200 C   0  0  0  0  0  0  0  0  0  0  0  0
   57.0920   30.8630   42.7720 O   0  0  0  0  0  0  0  0  0  0  0  0
   57.6360   32.9880   43.7120 C   0  0  0  0  0  0  0  0  0  0  0  0
   58.1690   33.5650   45.0020 C   0  0  0  0  0  0  0  0  0  0  0  0
   57.5310   33.2850   46.2200 C   0  0  0  0  0  0  0  0  0  0  0  0
   58.0750   33.7390   47.4220 C   0  0  0  0  0  0  0  0  0  0  0  0
   59.2540   34.4920   47.4290 C   0  0  0  0  0  0  0  0  0  0  0  0
   59.7790   34.8920   48.6690 O   0  0  0  0  0  0  0  0  0  0  0  0
   60.5840   34.0780   49.5210 C   0  0  0  0  0  0  0  0  0  0  0  0
   61.5710   33.2690   48.7210 C   0  0  0  0  0  0  0  0  0  0  0  0
   62.7970   33.8340   48.3290 C   0  0  0  0  0  0  0  0  0  0  0  0
   63.6970   33.0970   47.5540 C   0  0  0  0  0  0  0  0  0  0  0  0
   63.3800   31.7940   47.1600 C   0  0  0  0  0  0  0  0  0  0  0  0
   62.1610   31.2250   47.5430 C   0  0  0  0  0  0  0  0  0  0  0  0
   61.2560   31.9600   48.3170 C   0  0  0  0  0  0  0  0  0  0  0  0
   59.8680   34.8170   46.2050 C   0  0  0  0  0  0  0  0  0  0  0  0
   59.3240   34.3640   45.0020 C   0  0  0  0  0  0  0  0  0  0  0  0
   55.8540   29.9550   44.1980 H   0  0  0  0  0  0  0  0  0  0  0  0
   54.4200   28.9190   44.5100 H   0  0  0  0  0  0  0  0  0  0  0  0
   58.1655   26.2880   45.8493 H   0  0  0  0  0  0  0  0  0  0  0  0
   60.6001   26.6697   46.2054 H   0  0  0  0  0  0  0  0  0  0  0  0
   61.5407   28.9748   46.0669 H   0  0  0  0  0  0  0  0  0  0  0  0
   60.0480   30.9045   45.5694 H   0  0  0  0  0  0  0  0  0  0  0  0
   58.3791   33.1511   42.9175 H   0  0  0  0  0  0  0  0  0  0  0  0
   56.6866   33.4942   43.4831 H   0  0  0  0  0  0  0  0  0  0  0  0
   56.5968   32.7043   46.2272 H   0  0  0  0  0  0  0  0  0  0  0  0
   57.5728   33.5029   48.3718 H   0  0  0  0  0  0  0  0  0  0  0  0
   61.1329   34.7241   50.2219 H   0  0  0  0  0  0  0  0  0  0  0  0
   59.9264   33.3865   50.0681 H   0  0  0  0  0  0  0  0  0  0  0  0
   63.0492   34.8605   48.6334 H   0  0  0  0  0  0  0  0  0  0  0  0
   64.6565   33.5433   47.2536 H   0  0  0  0  0  0  0  0  0  0  0  0
   64.0890   31.2162   46.5489 H   0  0  0  0  0  0  0  0  0  0  0  0
   61.9134   30.1983   47.2354 H   0  0  0  0  0  0  0  0  0  0  0  0
   60.2951   31.5120   48.6102 H   0  0  0  0  0  0  0  0  0  0  0  0
   60.7808   35.4308   46.1963 H   0  0  0  0  0  0  0  0  0  0  0  0
   59.8024   34.6342   44.0490 H   0  0  0  0  0  0  0  0  0  0  0  0
  1  2  1  0
  2  3  2  0
  2  4  1  0
  4  5  2  0
  5  6  1  0
  6  7  2  0
  7  8  1  0
  8  9  2  0
  9 10  1  0
 10 11  1  0
 11 12  2  0
 11 13  1  0
 13 14  1  0
 14 15  2  0
 15 16  1  0
 16 17  2  0
 17 18  1  0
 18 19  1  0
 19 20  1  0
 20 21  2  0
 21 22  1  0
 22 23  2  0
 23 24  1  0
 24 25  2  0
 17 26  1  0
 26 27  2  0
  9  4  1  0
 27 14  1  0
 25 20  1  0
  1 28  1  0
  1 29  1  0
  5 30  1  0
  6 31  1  0
  7 32  1  0
  8 33  1  0
 13 34  1  0
 13 35  1  0
 15 36  1  0
 16 37  1  0
 19 38  1  0
 19 39  1  0
 21 40  1  0
 22 41  1  0
 23 42  1  0
 24 43  1  0
 25 44  1  0
 26 45  1  0
 27 46  1  0
M  CHG  1  10  -1
M  END
>  <UniqueID>  (72) 
66

>  <SMILES>  (72) 
NC(=O)c1ccccc1[N-]C(=O)Cc1ccc(OCc2ccccc2)cc1

>  <Energy>  (72) 
50.79810771562009

>  <Genealogy>  (72) 
NC(=O)c1ccccc1[N-]C(=O)Cc1ccc(OCc2ccccc2)cc1 (protonated)
NC(=O)c1ccccc1[N-]C(=O)Cc1ccc(OCc2ccccc2)cc1 (3D coordinates assigned)
NC(=O)c1ccccc1[N-]C(=O)Cc1ccc(OCc2ccccc2)cc1 (optimized conformer: 50.79810771562009 kcal/mol)

>  <smiles>  (72) 
NC(=O)c1ccccc1NC(=O)Cc1ccc(OCc2ccccc2)cc1

>  <score_type>  (72) 
oracle

>  <origin>  (72) 
adg

>  <m_score__min__energy>  (72) 
-11.949999999999999

>  <m_primary>  (72) 
energy

$$$$
72:0
     RDKit          3D

 41 42  0  0  0  0  0  0  0  0999 V2000
   61.3580   33.4310   48.3470 C   0  0  0  0  0  0  0  0  0  0  0  0
   59.9860   33.7850   48.2010 O   0  0  0  0  0  0  0  0  0  0  0  0
   59.2750   33.7260   46.9930 C   0  0  0  0  0  0  0  0  0  0  0  0
   59.2950   34.7810   46.0620 C   0  0  0  0  0  0  0  0  0  0  0  0
   58.5720   34.6850   44.8720 C   0  0  0  0  0  0  0  0  0  0  0  0
   57.8240   33.5400   44.5950 C   0  0  0  0  0  0  0  0  0  0  0  0
   57.7970   32.4710   45.5090 C   0  0  0  0  0  0  0  0  0  0  0  0
   57.0640   31.2980   45.2650 O   0  0  0  0  0  0  0  0  0  0  0  0
   56.8150   30.7580   43.9710 C   0  0  0  0  0  0  0  0  0  0  0  0
   58.5270   32.5700   46.7050 C   0  0  0  0  0  0  0  0  0  0  0  0
   58.5270   31.4750   47.6230 N   0  0  0  0  0  0  0  0  0  0  0  0
   59.7930   30.2950   47.5870 S   0  0  0  0  0  0  0  0  0  0  0  0
   60.8560   30.7440   46.6250 O   0  0  0  0  0  0  0  0  0  0  0  0
   60.4040   30.1650   48.9520 O   0  0  0  0  0  0  0  0  0  0  0  0
   59.1380   28.7460   47.0660 C   0  0  0  0  0  0  0  0  0  0  0  0
   59.4090   27.5900   47.8080 C   0  0  0  0  0  0  0  0  0  0  0  0
   58.8140   26.3750   47.4640 C   0  0  0  0  0  0  0  0  0  0  0  0
   57.9360   26.3020   46.3670 C   0  0  0  0  0  0  0  0  0  0  0  0
   57.2730   25.0860   45.9970 N   0  0  0  0  0  0  0  0  0  0  0  0
   55.5570   24.8450   45.9610 S   0  0  0  0  0  0  0  0  0  0  0  0
   55.0990   23.9300   44.5040 C   0  0  0  0  0  0  0  0  0  0  0  0
   55.1560   24.0500   47.1730 O   0  0  0  0  0  0  0  0  0  0  0  0
   54.8490   26.1700   45.9950 O   0  0  0  0  0  0  0  0  0  0  0  0
   57.6870   27.4550   45.6130 C   0  0  0  0  0  0  0  0  0  0  0  0
   58.2770   28.6730   45.9630 C   0  0  0  0  0  0  0  0  0  0  0  0
   61.6082   33.3664   49.4162 H   0  0  0  0  0  0  0  0  0  0  0  0
   61.5382   32.4569   47.8688 H   0  0  0  0  0  0  0  0  0  0  0  0
   61.9870   34.1963   47.8688 H   0  0  0  0  0  0  0  0  0  0  0  0
   59.8835   35.6860   46.2732 H   0  0  0  0  0  0  0  0  0  0  0  0
   58.5919   35.5147   44.1501 H   0  0  0  0  0  0  0  0  0  0  0  0
   57.2527   33.4730   43.6574 H   0  0  0  0  0  0  0  0  0  0  0  0
   56.3563   29.7632   44.0709 H   0  0  0  0  0  0  0  0  0  0  0  0
   56.1326   31.4229   43.4213 H   0  0  0  0  0  0  0  0  0  0  0  0
   57.7638   30.6708   43.4213 H   0  0  0  0  0  0  0  0  0  0  0  0
   60.0946   27.6395   48.6668 H   0  0  0  0  0  0  0  0  0  0  0  0
   59.0323   25.4717   48.0525 H   0  0  0  0  0  0  0  0  0  0  0  0
   54.6248   22.9826   44.8000 H   0  0  0  0  0  0  0  0  0  0  0  0
   54.3915   24.5230   43.9059 H   0  0  0  0  0  0  0  0  0  0  0  0
   55.9978   23.7190   43.9059 H   0  0  0  0  0  0  0  0  0  0  0  0
   57.0220   27.4021   44.7384 H   0  0  0  0  0  0  0  0  0  0  0  0
   58.0649   29.5758   45.3714 H   0  0  0  0  0  0  0  0  0  0  0  0
  1  2  1  0
  2  3  1  0
  3  4  2  0
  4  5  1  0
  5  6  2  0
  6  7  1  0
  7  8  1  0
  8  9  1  0
  7 10  2  0
 10 11  1  0
 11 12  1  0
 12 13  2  0
 12 14  2  0
 12 15  1  0
 15 16  2  0
 16 17  1  0
 17 18  2  0
 18 19  1  0
 19 20  1  0
 20 21  1  0
 20 22  2  0
 20 23  2  0
 18 24  1  0
 24 25  2  0
 10  3  1  0
 25 15  1  0
  1 26  1  0
  1 27  1  0
  1 28  1  0
  4 29  1  0
  5 30  1  0
  6 31  1  0
  9 32  1  0
  9 33  1  0
  9 34  1  0
 16 35  1  0
 17 36  1  0
 21 37  1  0
 21 38  1  0
 21 39  1  0
 24 40  1  0
 25 41  1  0
M  CHG  2  11  -1  19  -1
M  END
>  <UniqueID>  (73) 
67

>  <SMILES>  (73) 
COc1cccc(OC)c1[N-]S(=O)(=O)c1ccc([N-]S(C)(=O)=O)cc1

>  <Energy>  (73) 
46.388833482877835

>  <Genealogy>  (73) 
COc1cccc(OC)c1[N-]S(=O)(=O)c1ccc([N-]S(C)(=O)=O)cc1 (protonated)
COc1cccc(OC)c1[N-]S(=O)(=O)c1ccc([N-]S(C)(=O)=O)cc1 (3D coordinates assigned)
COc1cccc(OC)c1[N-]S(=O)(=O)c1ccc([N-]S(C)(=O)=O)cc1 (optimized conformer: 46.388833482877835 kcal/mol)

>  <smiles>  (73) 
COc1cccc(OC)c1NS(=O)(=O)c1ccc(NS(C)(=O)=O)cc1

>  <score_type>  (73) 
oracle

>  <origin>  (73) 
adg

>  <m_score__min__energy>  (73) 
-9.8200000000000003

>  <m_primary>  (73) 
energy

$$$$
73:0
     RDKit          3D

 46 48  0  0  0  0  0  0  0  0999 V2000
   56.3345   31.2918   42.1650 H   0  0  0  0  0  0  0  0  0  0  0  0
   57.0170   31.2590   43.0270 C   0  0  0  0  0  0  0  0  0  0  0  0
   56.8950   30.1520   43.9950 C   0  0  0  0  0  0  0  0  0  0  0  0
   55.9440   30.1350   44.8280 O   0  0  0  0  0  0  0  0  0  0  0  0
   57.8670   29.0950   43.9910 N   0  0  0  0  0  0  0  0  0  0  0  0
   58.6240   29.1180   43.2710 H   0  0  0  0  0  0  0  0  0  0  0  0
   57.7070   27.8750   44.7830 C   0  0  0  0  0  0  0  0  0  0  0  0
   56.7891   27.9554   45.3839 H   0  0  0  0  0  0  0  0  0  0  0  0
   57.6471   27.0190   44.0948 H   0  0  0  0  0  0  0  0  0  0  0  0
   58.9040   27.6600   45.7230 C   0  0  0  0  0  0  0  0  0  0  0  0
   58.8427   26.6430   46.1376 H   0  0  0  0  0  0  0  0  0  0  0  0
   59.8153   27.8134   45.1263 H   0  0  0  0  0  0  0  0  0  0  0  0
   58.9550   28.6620   46.8940 C   0  0  0  0  0  0  0  0  0  0  0  0
   58.3268   29.5268   46.6341 H   0  0  0  0  0  0  0  0  0  0  0  0
   58.5970   28.1230   47.7835 H   0  0  0  0  0  0  0  0  0  0  0  0
   60.3650   29.1760   47.2310 C   0  0  0  0  0  0  0  0  0  0  0  0
   60.8409   28.4680   47.9255 H   0  0  0  0  0  0  0  0  0  0  0  0
   60.9232   29.2574   46.2866 H   0  0  0  0  0  0  0  0  0  0  0  0
   60.3500   30.5400   47.8690 C   0  0  0  0  0  0  0  0  0  0  0  0
   59.3090   31.1050   48.6040 C   0  0  0  0  0  0  0  0  0  0  0  0
   58.3665   30.5937   48.8493 H   0  0  0  0  0  0  0  0  0  0  0  0
   59.6180   32.3690   48.9740 N   0  0  0  0  0  0  0  0  0  0  0  0
   59.0220   33.0210   49.5300 H   0  0  0  0  0  0  0  0  0  0  0  0
   60.8370   32.6170   48.4610 C   0  0  0  0  0  0  0  0  0  0  0  0
   61.5700   33.7970   48.5680 C   0  0  0  0  0  0  0  0  0  0  0  0
   61.1750   34.6622   49.1207 H   0  0  0  0  0  0  0  0  0  0  0  0
   62.8330   33.8470   47.9460 C   0  0  0  0  0  0  0  0  0  0  0  0
   63.4390   34.7625   48.0133 H   0  0  0  0  0  0  0  0  0  0  0  0
   63.3270   32.7290   47.2360 C   0  0  0  0  0  0  0  0  0  0  0  0
   64.3175   32.7770   46.7601 H   0  0  0  0  0  0  0  0  0  0  0  0
   62.5580   31.5550   47.1350 C   0  0  0  0  0  0  0  0  0  0  0  0
   62.9239   30.6848   46.5703 H   0  0  0  0  0  0  0  0  0  0  0  0
   61.3150   31.5280   47.7740 C   0  0  0  0  0  0  0  0  0  0  0  0
   57.9350   32.2260   43.1670 C   0  0  0  0  0  0  0  0  0  0  0  0
   58.5681   32.4683   42.3007 H   0  0  0  0  0  0  0  0  0  0  0  0
   58.1470   32.9880   44.4210 C   0  0  0  0  0  0  0  0  0  0  0  0
   59.1890   33.9320   44.4620 C   0  0  0  0  0  0  0  0  0  0  0  0
   59.8134   34.0949   43.5712 H   0  0  0  0  0  0  0  0  0  0  0  0
   59.4370   34.6650   45.6270 C   0  0  0  0  0  0  0  0  0  0  0  0
   60.2469   35.4092   45.6453 H   0  0  0  0  0  0  0  0  0  0  0  0
   58.6580   34.4540   46.7680 C   0  0  0  0  0  0  0  0  0  0  0  0
   58.9040   35.1620   47.8980 F   0  0  0  0  0  0  0  0  0  0  0  0
   57.6300   33.5060   46.7470 C   0  0  0  0  0  0  0  0  0  0  0  0
   57.0222   33.3353   47.6478 H   0  0  0  0  0  0  0  0  0  0  0  0
   57.3730   32.7740   45.5820 C   0  0  0  0  0  0  0  0  0  0  0  0
   56.5642   32.0285   45.5711 H   0  0  0  0  0  0  0  0  0  0  0  0
  1  2  1  0
  2  3  1  0
  3  4  2  0
  3  5  1  0
  5  6  1  0
  5  7  1  0
  7  8  1  0
  7  9  1  0
  7 10  1  0
 10 11  1  0
 10 12  1  0
 10 13  1  0
 13 14  1  0
 13 15  1  0
 13 16  1  0
 16 17  1  0
 16 18  1  0
 16 19  1  0
 19 20  2  0
 20 21  1  0
 20 22  1  0
 22 23  1  0
 22 24  1  0
 24 25  2  0
 25 26  1  0
 25 27  1  0
 27 28  1  0
 27 29  2  0
 29 30  1  0
 29 31  1  0
 31 32  1  0
 31 33  2  0
  2 34  2  0
 34 35  1  0
 34 36  1  0
 36 37  2  0
 37 38  1  0
 37 39  1  0
 39 40  1  0
 39 41  2  0
 41 42  1  0
 41 43  1  0
 43 44  1  0
 43 45  2  0
 45 46  1  0
 33 19  1  0
 45 36  1  0
 33 24  1  0
M  END
>  <UniqueID>  (74) 
68

>  <SMILES>  (74) 
O=C(/C=C/c1ccc(F)cc1)NCCCCc1c[nH]c2ccccc12

>  <Energy>  (74) 
74.84857014602339

>  <Genealogy>  (74) 
O=C(/C=C/c1ccc(F)cc1)NCCCCc1c[nH]c2ccccc12 (cis-trans isomerization)
O=C(/C=C/c1ccc(F)cc1)NCCCCc1c[nH]c2ccccc12 (3D coordinates assigned)
O=C(/C=C/c1ccc(F)cc1)NCCCCc1c[nH]c2ccccc12 (optimized conformer: 74.84857014602339 kcal/mol)

>  <smiles>  (74) 
O=C(C=Cc1ccc(F)cc1)NCCCCc1c[nH]c2ccccc12

>  <score_type>  (74) 
oracle

>  <origin>  (74) 
adg

>  <m_score__min__energy>  (74) 
-8.3499999999999996

>  <m_primary>  (74) 
energy

$$$$
74:0
     RDKit          3D

 61 63  0  0  0  0  0  0  0  0999 V2000
   56.6310   21.9010   42.6900 C   0  0  0  0  0  0  0  0  0  0  0  0
   56.3190   21.6290   44.1570 C   0  0  0  0  0  0  0  0  0  0  0  0
   56.3770   22.8730   44.9320 N   0  0  0  0  0  0  0  0  0  0  0  0
   57.5950   23.2400   45.6650 C   0  0  0  0  0  0  0  0  0  0  0  0
   57.8870   24.7350   45.4970 C   0  0  0  0  0  0  0  0  0  0  0  0
   56.7300   25.5440   45.9120 N   0  0  0  0  0  0  0  0  0  0  0  0
   56.9350   26.8750   46.4970 C   0  0  0  0  0  0  0  0  0  0  0  0
   57.4490   27.8310   45.4640 C   0  0  0  0  0  0  0  0  0  0  0  0
   58.5880   27.6450   44.9580 O   0  0  0  0  0  0  0  0  0  0  0  0
   56.6000   28.8860   44.9920 N   0  0  0  0  0  0  0  0  0  0  0  0
   57.0200   30.1230   44.4000 C   0  0  0  0  0  0  0  0  0  0  0  0
   56.8260   30.3080   43.0250 C   0  0  0  0  0  0  0  0  0  0  0  0
   57.1940   31.5080   42.4130 C   0  0  0  0  0  0  0  0  0  0  0  0
   57.7520   32.5370   43.1720 C   0  0  0  0  0  0  0  0  0  0  0  0
   57.9350   32.3750   44.5510 C   0  0  0  0  0  0  0  0  0  0  0  0
   58.6280   33.6920   45.4910 S   0  0  0  0  0  0  0  0  0  0  0  0
   59.1420   34.7810   44.5920 O   0  0  0  0  0  0  0  0  0  0  0  0
   57.5570   34.2600   46.3790 O   0  0  0  0  0  0  0  0  0  0  0  0
   59.9440   33.0740   46.4430 N   0  0  0  0  0  0  0  0  0  0  0  0
   61.1630   33.8760   46.5860 C   0  0  0  0  0  0  0  0  0  0  0  0
   61.7090   33.7700   48.0050 C   0  0  0  0  0  0  0  0  0  0  0  0
   59.8550   31.7620   47.0210 C   0  0  0  0  0  0  0  0  0  0  0  0
   59.1010   31.5450   48.1840 C   0  0  0  0  0  0  0  0  0  0  0  0
   59.0160   30.2660   48.7410 C   0  0  0  0  0  0  0  0  0  0  0  0
   59.6840   29.1830   48.1390 C   0  0  0  0  0  0  0  0  0  0  0  0
   59.6320   27.8810   48.6580 O   0  0  0  0  0  0  0  0  0  0  0  0
   60.0720   26.7190   47.9610 C   0  0  0  0  0  0  0  0  0  0  0  0
   60.4330   29.4040   46.9760 C   0  0  0  0  0  0  0  0  0  0  0  0
   60.5200   30.6830   46.4210 C   0  0  0  0  0  0  0  0  0  0  0  0
   57.5590   31.1730   45.1670 C   0  0  0  0  0  0  0  0  0  0  0  0
   55.4010   25.0790   45.5990 C   0  0  0  0  0  0  0  0  0  0  0  0
   54.3960   25.8140   45.8000 O   0  0  0  0  0  0  0  0  0  0  0  0
   55.2290   23.7320   45.0410 C   0  0  0  0  0  0  0  0  0  0  0  0
   54.0930   23.3490   44.6490 O   0  0  0  0  0  0  0  0  0  0  0  0
   57.4584   22.6223   42.6187 H   0  0  0  0  0  0  0  0  0  0  0  0
   56.9201   20.9615   42.1963 H   0  0  0  0  0  0  0  0  0  0  0  0
   55.7397   22.3155   42.1963 H   0  0  0  0  0  0  0  0  0  0  0  0
   55.3104   21.1977   44.2390 H   0  0  0  0  0  0  0  0  0  0  0  0
   57.0648   20.9255   44.5556 H   0  0  0  0  0  0  0  0  0  0  0  0
   57.4575   23.0149   46.7329 H   0  0  0  0  0  0  0  0  0  0  0  0
   58.4413   22.6630   45.2641 H   0  0  0  0  0  0  0  0  0  0  0  0
   58.7557   25.0044   46.1157 H   0  0  0  0  0  0  0  0  0  0  0  0
   58.0951   24.9362   44.4358 H   0  0  0  0  0  0  0  0  0  0  0  0
   55.9781   27.2482   46.8908 H   0  0  0  0  0  0  0  0  0  0  0  0
   57.6749   26.7964   47.3072 H   0  0  0  0  0  0  0  0  0  0  0  0
   56.3806   29.5022   42.4231 H   0  0  0  0  0  0  0  0  0  0  0  0
   57.0438   31.6420   41.3316 H   0  0  0  0  0  0  0  0  0  0  0  0
   58.0490   33.4781   42.6860 H   0  0  0  0  0  0  0  0  0  0  0  0
   61.9216   33.5107   45.8781 H   0  0  0  0  0  0  0  0  0  0  0  0
   60.9228   34.9286   46.3752 H   0  0  0  0  0  0  0  0  0  0  0  0
   60.8925   33.9285   48.7248 H   0  0  0  0  0  0  0  0  0  0  0  0
   62.1431   32.7708   48.1571 H   0  0  0  0  0  0  0  0  0  0  0  0
   62.4855   34.5342   48.1571 H   0  0  0  0  0  0  0  0  0  0  0  0
   58.5743   32.3854   48.6597 H   0  0  0  0  0  0  0  0  0  0  0  0
   58.4243   30.1049   49.6542 H   0  0  0  0  0  0  0  0  0  0  0  0
   60.3649   25.9454   48.6861 H   0  0  0  0  0  0  0  0  0  0  0  0
   59.2555   26.3391   47.3294 H   0  0  0  0  0  0  0  0  0  0  0  0
   60.9353   26.9752   47.3294 H   0  0  0  0  0  0  0  0  0  0  0  0
   60.9566   28.5640   46.4962 H   0  0  0  0  0  0  0  0  0  0  0  0
   61.1131   30.8445   45.5088 H   0  0  0  0  0  0  0  0  0  0  0  0
   57.6856   31.0501   46.2528 H   0  0  0  0  0  0  0  0  0  0  0  0
  1  2  1  0
  2  3  1  0
  3  4  1  0
  4  5  1  0
  5  6  1  0
  6  7  1  0
  7  8  1  0
  8  9  2  0
  8 10  1  0
 10 11  1  0
 11 12  2  0
 12 13  1  0
 13 14  2  0
 14 15  1  0
 15 16  1  0
 16 17  2  0
 16 18  2  0
 16 19  1  0
 19 20  1  0
 20 21  1  0
 19 22  1  0
 22 23  2  0
 23 24  1  0
 24 25  2  0
 25 26  1  0
 26 27  1  0
 25 28  1  0
 28 29  2  0
 15 30  2  0
  6 31  1  0
 31 32  2  0
 31 33  1  0
 33 34  2  0
 33  3  1  0
 30 11  1  0
 29 22  1  0
  1 35  1  0
  1 36  1  0
  1 37  1  0
  2 38  1  0
  2 39  1  0
  4 40  1  0
  4 41  1  0
  5 42  1  0
  5 43  1  0
  7 44  1  0
  7 45  1  0
 12 46  1  0
 13 47  1  0
 14 48  1  0
 20 49  1  0
 20 50  1  0
 21 51  1  0
 21 52  1  0
 21 53  1  0
 23 54  1  0
 24 55  1  0
 27 56  1  0
 27 57  1  0
 27 58  1  0
 28 59  1  0
 29 60  1  0
 30 61  1  0
M  CHG  1  10  -1
M  END
>  <UniqueID>  (75) 
69

>  <SMILES>  (75) 
CCN1CCN(CC(=O)[N-]c2cccc(S(=O)(=O)N(CC)c3ccc(OC)cc3)c2)C(=O)C1=O

>  <Energy>  (75) 
60.067466368473376

>  <Genealogy>  (75) 
CCN1CCN(CC(=O)[N-]c2cccc(S(=O)(=O)N(CC)c3ccc(OC)cc3)c2)C(=O)C1=O (protonated)
CCN1CCN(CC(=O)[N-]c2cccc(S(=O)(=O)N(CC)c3ccc(OC)cc3)c2)C(=O)C1=O (3D coordinates assigned)
CCN1CCN(CC(=O)[N-]c2cccc(S(=O)(=O)N(CC)c3ccc(OC)cc3)c2)C(=O)C1=O (nonaromatic ring conformer: 60.067466368473376 kcal/mol)

>  <smiles>  (75) 
CCN1CCN(CC(=O)Nc2cccc(S(=O)(=O)N(CC)c3ccc(OC)cc3)c2)C(=O)C1=O

>  <score_type>  (75) 
oracle

>  <origin>  (75) 
adg

>  <m_score__min__energy>  (75) 
-10.56

>  <m_primary>  (75) 
energy

$$$$
75:0
     RDKit          3D

 52 55  0  0  0  0  0  0  0  0999 V2000
   54.8160   25.7450   45.7460 O   0  0  0  0  0  0  0  0  0  0  0  0
   56.0570   25.5200   45.7770 C   0  0  0  0  0  0  0  0  0  0  0  0
   56.9260   26.3910   46.5150 N   0  0  0  0  0  0  0  0  0  0  0  0
   57.6540   27.5150   45.9990 C   0  0  0  0  0  0  0  0  0  0  0  0
   59.0300   27.3790   45.7800 C   0  0  0  0  0  0  0  0  0  0  0  0
   59.7710   28.4420   45.2580 C   0  0  0  0  0  0  0  0  0  0  0  0
   59.1410   29.6470   44.9420 C   0  0  0  0  0  0  0  0  0  0  0  0
   57.7600   29.7980   45.1510 C   0  0  0  0  0  0  0  0  0  0  0  0
   57.0750   31.0120   44.8060 N   0  0  0  0  0  0  0  0  0  0  0  0
   57.6650   32.3150   44.7020 C   0  0  0  0  0  0  0  0  0  0  0  0
   57.4270   33.0030   43.6750 O   0  0  0  0  0  0  0  0  0  0  0  0
   58.4970   32.8910   45.7860 C   0  0  0  0  0  0  0  0  0  0  0  0
   59.2580   34.0490   45.5670 C   0  0  0  0  0  0  0  0  0  0  0  0
   60.0450   34.5790   46.5900 C   0  0  0  0  0  0  0  0  0  0  0  0
   60.0950   33.9590   47.8420 C   0  0  0  0  0  0  0  0  0  0  0  0
   60.9440   34.5170   48.8520 N   0  0  0  0  0  0  0  0  0  0  0  0
   62.2810   34.0490   49.1020 C   0  0  0  0  0  0  0  0  0  0  0  0
   62.9970   33.4020   48.0890 C   0  0  0  0  0  0  0  0  0  0  0  0
   64.2600   32.9590   48.3220 N   0  0  0  0  0  0  0  0  0  0  0  0
   64.8470   33.1270   49.5360 C   0  0  0  0  0  0  0  0  0  0  0  0
   64.1690   33.7430   50.5380 N   0  0  0  0  0  0  0  0  0  0  0  0
   62.9060   34.2050   50.3490 C   0  0  0  0  0  0  0  0  0  0  0  0
   59.3170   32.8050   48.0920 C   0  0  0  0  0  0  0  0  0  0  0  0
   59.3400   32.1210   49.4440 C   0  0  0  0  0  0  0  0  0  0  0  0
   58.9250   33.0100   50.4180 F   0  0  0  0  0  0  0  0  0  0  0  0
   60.6130   31.6790   49.7620 F   0  0  0  0  0  0  0  0  0  0  0  0
   58.5000   31.0220   49.4440 F   0  0  0  0  0  0  0  0  0  0  0  0
   58.5470   32.2650   47.0420 C   0  0  0  0  0  0  0  0  0  0  0  0
   57.0170   28.7210   45.6520 C   0  0  0  0  0  0  0  0  0  0  0  0
   56.6070   24.3250   45.0950 C   0  0  0  0  0  0  0  0  0  0  0  0
   55.9840   23.8120   43.9420 C   0  0  0  0  0  0  0  0  0  0  0  0
   56.4990   22.6820   43.3020 C   0  0  0  0  0  0  0  0  0  0  0  0
   57.6380   22.0490   43.8040 C   0  0  0  0  0  0  0  0  0  0  0  0
   58.2710   22.5460   44.9480 C   0  0  0  0  0  0  0  0  0  0  0  0
   59.4030   21.9010   45.4400 O   0  0  0  0  0  0  0  0  0  0  0  0
   57.7600   23.6830   45.5900 C   0  0  0  0  0  0  0  0  0  0  0  0
   59.5307   26.4295   46.0204 H   0  0  0  0  0  0  0  0  0  0  0  0
   60.8531   28.3293   45.0956 H   0  0  0  0  0  0  0  0  0  0  0  0
   59.7275   30.4806   44.5282 H   0  0  0  0  0  0  0  0  0  0  0  0
   59.2341   34.5417   44.5838 H   0  0  0  0  0  0  0  0  0  0  0  0
   60.6310   35.4923   46.4099 H   0  0  0  0  0  0  0  0  0  0  0  0
   60.5860   35.3420   49.3850 H   0  0  0  0  0  0  0  0  0  0  0  0
   62.5362   33.2516   47.1015 H   0  0  0  0  0  0  0  0  0  0  0  0
   65.8712   32.7640   49.7068 H   0  0  0  0  0  0  0  0  0  0  0  0
   62.3728   34.7015   51.1732 H   0  0  0  0  0  0  0  0  0  0  0  0
   57.9767   31.3393   47.2090 H   0  0  0  0  0  0  0  0  0  0  0  0
   55.9283   28.8187   45.7750 H   0  0  0  0  0  0  0  0  0  0  0  0
   55.0853   24.3042   43.5419 H   0  0  0  0  0  0  0  0  0  0  0  0
   56.0060   22.2899   42.4002 H   0  0  0  0  0  0  0  0  0  0  0  0
   58.0382   21.1577   43.2987 H   0  0  0  0  0  0  0  0  0  0  0  0
   59.5950   20.9290   45.2250 H   0  0  0  0  0  0  0  0  0  0  0  0
   58.2623   24.0766   46.4860 H   0  0  0  0  0  0  0  0  0  0  0  0
  1  2  2  0
  2  3  1  0
  3  4  1  0
  4  5  2  0
  5  6  1  0
  6  7  2  0
  7  8  1  0
  8  9  1  0
  9 10  1  0
 10 11  2  0
 10 12  1  0
 12 13  2  0
 13 14  1  0
 14 15  2  0
 15 16  1  0
 16 17  1  0
 17 18  2  0
 18 19  1  0
 19 20  2  0
 20 21  1  0
 21 22  2  0
 15 23  1  0
 23 24  1  0
 24 25  1  0
 24 26  1  0
 24 27  1  0
 23 28  2  0
  8 29  2  0
  2 30  1  0
 30 31  2  0
 31 32  1  0
 32 33  2  0
 33 34  1  0
 34 35  1  0
 34 36  2  0
 29  4  1  0
 36 30  1  0
 28 12  1  0
 22 17  1  0
  5 37  1  0
  6 38  1  0
  7 39  1  0
 13 40  1  0
 14 41  1  0
 16 42  1  0
 18 43  1  0
 20 44  1  0
 22 45  1  0
 28 46  1  0
 29 47  1  0
 31 48  1  0
 32 49  1  0
 33 50  1  0
 35 51  1  0
 36 52  1  0
M  CHG  2   3  -1   9  -1
M  END
>  <UniqueID>  (76) 
70

>  <SMILES>  (76) 
O=C([N-]c1cccc([N-]C(=O)c2ccc(Nc3cncnc3)c(C(F)(F)F)c2)c1)c1cccc(O)c1

>  <Energy>  (76) 
78.8395157227626

>  <Genealogy>  (76) 
O=C([N-]c1cccc([N-]C(=O)c2ccc(Nc3cncnc3)c(C(F)(F)F)c2)c1)c1cccc(O)c1 (protonated)
O=C([N-]c1cccc([N-]C(=O)c2ccc(Nc3cncnc3)c(C(F)(F)F)c2)c1)c1cccc(O)c1 (3D coordinates assigned)
O=C([N-]c1cccc([N-]C(=O)c2ccc(Nc3cncnc3)c(C(F)(F)F)c2)c1)c1cccc(O)c1 (optimized conformer: 78.8395157227626 kcal/mol)

>  <smiles>  (76) 
O=C(Nc1cccc(NC(=O)c2ccc(Nc3cncnc3)c(C(F)(F)F)c2)c1)c1cccc(O)c1

>  <score_type>  (76) 
oracle

>  <origin>  (76) 
adg

>  <m_score__min__energy>  (76) 
-13.27

>  <m_primary>  (76) 
energy

$$$$
76:0
     RDKit          3D

 47 49  0  0  0  0  0  0  0  0999 V2000
   57.1115   28.5716   42.7387 H   0  0  0  0  0  0  0  0  0  0  0  0
   57.4180   28.9340   43.7310 C   0  0  0  0  0  0  0  0  0  0  0  0
   56.4180   29.6880   44.5220 C   0  0  0  0  0  0  0  0  0  0  0  0
   55.5100   29.0770   45.1450 O   0  0  0  0  0  0  0  0  0  0  0  0
   56.3880   31.1200   44.5020 N   0  0  0  0  0  0  0  0  0  0  0  0
   57.3800   32.0010   45.0490 C   0  0  0  0  0  0  0  0  0  0  0  0
   57.8250   31.7900   46.3590 C   0  0  0  0  0  0  0  0  0  0  0  0
   57.4003   30.9679   46.9538 H   0  0  0  0  0  0  0  0  0  0  0  0
   58.8040   32.6150   46.9170 C   0  0  0  0  0  0  0  0  0  0  0  0
   59.1332   32.4504   47.9536 H   0  0  0  0  0  0  0  0  0  0  0  0
   59.3700   33.6540   46.1600 C   0  0  0  0  0  0  0  0  0  0  0  0
   60.4030   34.5690   46.7650 C   0  0  0  0  0  0  0  0  0  0  0  0
   60.8715   35.1634   45.9668 H   0  0  0  0  0  0  0  0  0  0  0  0
   59.9091   35.2308   47.4917 H   0  0  0  0  0  0  0  0  0  0  0  0
   61.4440   33.7870   47.4630 N   0  0  0  0  0  0  0  0  0  0  0  0
   62.7320   33.8410   46.7390 C   0  0  0  0  0  0  0  0  0  0  0  0
   62.6476   33.2548   45.8120 H   0  0  0  0  0  0  0  0  0  0  0  0
   62.9610   34.8929   46.5128 H   0  0  0  0  0  0  0  0  0  0  0  0
   63.8770   33.2650   47.5960 C   0  0  0  0  0  0  0  0  0  0  0  0
   64.4805   32.5827   46.9793 H   0  0  0  0  0  0  0  0  0  0  0  0
   64.4945   34.0978   47.9635 H   0  0  0  0  0  0  0  0  0  0  0  0
   63.3670   32.5560   48.7070 O   0  0  0  0  0  0  0  0  0  0  0  0
   62.6930   33.4500   49.5740 C   0  0  0  0  0  0  0  0  0  0  0  0
   62.2057   32.8695   50.3712 H   0  0  0  0  0  0  0  0  0  0  0  0
   63.4386   34.1478   49.9828 H   0  0  0  0  0  0  0  0  0  0  0  0
   61.6200   34.2830   48.8400 C   0  0  0  0  0  0  0  0  0  0  0  0
   60.6651   34.2023   49.3801 H   0  0  0  0  0  0  0  0  0  0  0  0
   61.9437   35.3337   48.8043 H   0  0  0  0  0  0  0  0  0  0  0  0
   58.9420   33.8520   44.8400 C   0  0  0  0  0  0  0  0  0  0  0  0
   59.3793   34.6633   44.2395 H   0  0  0  0  0  0  0  0  0  0  0  0
   57.9630   33.0250   44.2820 C   0  0  0  0  0  0  0  0  0  0  0  0
   57.6476   33.1759   43.2391 H   0  0  0  0  0  0  0  0  0  0  0  0
   58.6680   28.6590   44.1310 C   0  0  0  0  0  0  0  0  0  0  0  0
   59.3832   28.3117   43.3708 H   0  0  0  0  0  0  0  0  0  0  0  0
   59.1510   28.7890   45.5160 C   0  0  0  0  0  0  0  0  0  0  0  0
   60.3550   29.8610   45.9930 S   0  0  0  0  0  0  0  0  0  0  0  0
   60.2180   29.4510   47.6180 C   0  0  0  0  0  0  0  0  0  0  0  0
   60.9910   30.0900   48.7210 C   0  0  0  0  0  0  0  0  0  0  0  0
   60.5897   29.7583   49.6900 H   0  0  0  0  0  0  0  0  0  0  0  0
   62.0491   29.7994   48.6434 H   0  0  0  0  0  0  0  0  0  0  0  0
   60.9046   31.1839   48.6434 H   0  0  0  0  0  0  0  0  0  0  0  0
   59.2330   28.5510   47.8240 N   0  0  0  0  0  0  0  0  0  0  0  0
   58.6270   28.1810   46.6630 C   0  0  0  0  0  0  0  0  0  0  0  0
   57.4730   27.2260   46.6630 C   0  0  0  0  0  0  0  0  0  0  0  0
   57.1905   26.9922   47.7001 H   0  0  0  0  0  0  0  0  0  0  0  0
   56.6179   27.6842   46.1445 H   0  0  0  0  0  0  0  0  0  0  0  0
   57.7631   26.3003   46.1445 H   0  0  0  0  0  0  0  0  0  0  0  0
  1  2  1  0
  2  3  1  0
  3  4  2  0
  3  5  1  0
  5  6  1  0
  6  7  2  0
  7  8  1  0
  7  9  1  0
  9 10  1  0
  9 11  2  0
 11 12  1  0
 12 13  1  0
 12 14  1  0
 12 15  1  0
 15 16  1  0
 16 17  1  0
 16 18  1  0
 16 19  1  0
 19 20  1  0
 19 21  1  0
 19 22  1  0
 22 23  1  0
 23 24  1  0
 23 25  1  0
 23 26  1  0
 26 27  1  0
 26 28  1  0
 11 29  1  0
 29 30  1  0
 29 31  2  0
 31 32  1  0
  2 33  2  0
 33 34  1  0
 33 35  1  0
 35 36  1  0
 36 37  1  0
 37 38  1  0
 38 39  1  0
 38 40  1  0
 38 41  1  0
 37 42  2  0
 42 43  1  0
 43 44  1  0
 44 45  1  0
 44 46  1  0
 44 47  1  0
 31  6  1  0
 43 35  2  0
 26 15  1  0
M  CHG  1   5  -1
M  END
>  <UniqueID>  (77) 
71

>  <SMILES>  (77) 
Cc1nc(C)c(/C=C\C(=O)[N-]c2ccc(CN3CCOCC3)cc2)s1

>  <Energy>  (77) 
95.31646516715598

>  <Genealogy>  (77) 
Cc1nc(C)c(C=CC(=O)[N-]c2ccc(CN3CCOCC3)cc2)s1 (protonated)
Cc1nc(C)c(/C=C\C(=O)[N-]c2ccc(CN3CCOCC3)cc2)s1 (cis-trans isomerization)
Cc1nc(C)c(/C=C\C(=O)[N-]c2ccc(CN3CCOCC3)cc2)s1 (3D coordinates assigned)
Cc1nc(C)c(/C=C\C(=O)[N-]c2ccc(CN3CCOCC3)cc2)s1 (nonaromatic ring conformer: 95.31646516715598 kcal/mol)

>  <smiles>  (77) 
Cc1nc(C)c(C=CC(=O)Nc2ccc(CN3CCOCC3)cc2)s1

>  <score_type>  (77) 
oracle

>  <origin>  (77) 
adg

>  <m_score__min__energy>  (77) 
-9.9100000000000001

>  <m_primary>  (77) 
energy

$$$$
77:0
     RDKit          3D

 45 47  0  0  0  0  0  0  0  0999 V2000
   61.5390   34.2430   48.8940 C   0  0  0  0  0  0  0  0  0  0  0  0
   59.7620   34.4410   49.2260 S   0  0  0  0  0  0  0  0  0  0  0  0
   59.2800   33.9830   47.5610 C   0  0  0  0  0  0  0  0  0  0  0  0
   60.0140   34.4520   46.4650 C   0  0  0  0  0  0  0  0  0  0  0  0
   59.6450   34.0870   45.1670 C   0  0  0  0  0  0  0  0  0  0  0  0
   58.5420   33.2490   44.9590 C   0  0  0  0  0  0  0  0  0  0  0  0
   58.1170   32.7240   43.2980 S   0  0  0  0  0  0  0  0  0  0  0  0
   57.5900   31.1110   43.8770 C   0  0  0  0  0  0  0  0  0  0  0  0
   56.2340   30.8430   44.0580 C   0  0  0  0  0  0  0  0  0  0  0  0
   55.8300   29.6240   44.6010 C   0  0  0  0  0  0  0  0  0  0  0  0
   56.7730   28.6590   44.9890 C   0  0  0  0  0  0  0  0  0  0  0  0
   56.2940   27.4520   45.6030 N   0  0  0  0  0  0  0  0  0  0  0  0
   58.1600   28.9190   44.7860 C   0  0  0  0  0  0  0  0  0  0  0  0
   59.1990   28.0070   45.2190 N   0  0  0  0  0  0  0  0  0  0  0  0
   60.4220   28.7290   45.6130 C   0  0  0  0  0  0  0  0  0  0  0  0
   60.2490   29.4830   46.9090 C   0  0  0  0  0  0  0  0  0  0  0  0
   59.1980   29.1580   47.7840 C   0  0  0  0  0  0  0  0  0  0  0  0
   59.0700   29.8220   49.0080 C   0  0  0  0  0  0  0  0  0  0  0  0
   59.9860   30.8170   49.3640 C   0  0  0  0  0  0  0  0  0  0  0  0
   61.0320   31.1460   48.4980 C   0  0  0  0  0  0  0  0  0  0  0  0
   61.1670   30.4810   47.2760 C   0  0  0  0  0  0  0  0  0  0  0  0
   58.5410   30.1480   44.2130 C   0  0  0  0  0  0  0  0  0  0  0  0
   57.7990   32.7910   46.0540 C   0  0  0  0  0  0  0  0  0  0  0  0
   58.1670   33.1590   47.3530 C   0  0  0  0  0  0  0  0  0  0  0  0
   62.0855   34.1821   49.8467 H   0  0  0  0  0  0  0  0  0  0  0  0
   61.7037   33.3209   48.3172 H   0  0  0  0  0  0  0  0  0  0  0  0
   61.9027   35.1062   48.3172 H   0  0  0  0  0  0  0  0  0  0  0  0
   60.8820   35.1084   46.6254 H   0  0  0  0  0  0  0  0  0  0  0  0
   60.2219   34.4586   44.3073 H   0  0  0  0  0  0  0  0  0  0  0  0
   55.4824   31.5936   43.7723 H   0  0  0  0  0  0  0  0  0  0  0  0
   54.7573   29.4155   44.7272 H   0  0  0  0  0  0  0  0  0  0  0  0
   56.0330   26.6320   45.0110 H   0  0  0  0  0  0  0  0  0  0  0  0
   56.1300   27.3510   46.6250 H   0  0  0  0  0  0  0  0  0  0  0  0
   59.4410   27.3790   44.4180 H   0  0  0  0  0  0  0  0  0  0  0  0
   58.8840   27.3720   45.9830 H   0  0  0  0  0  0  0  0  0  0  0  0
   61.2389   28.0022   45.7328 H   0  0  0  0  0  0  0  0  0  0  0  0
   60.6491   29.4619   44.8248 H   0  0  0  0  0  0  0  0  0  0  0  0
   58.4737   28.3786   47.5049 H   0  0  0  0  0  0  0  0  0  0  0  0
   58.2483   29.5615   49.6913 H   0  0  0  0  0  0  0  0  0  0  0  0
   59.8830   31.3407   50.3259 H   0  0  0  0  0  0  0  0  0  0  0  0
   61.7508   31.9300   48.7785 H   0  0  0  0  0  0  0  0  0  0  0  0
   61.9948   30.7400   46.5995 H   0  0  0  0  0  0  0  0  0  0  0  0
   59.6060   30.3515   44.0275 H   0  0  0  0  0  0  0  0  0  0  0  0
   56.9258   32.1417   45.8930 H   0  0  0  0  0  0  0  0  0  0  0  0
   57.5810   32.8004   48.2121 H   0  0  0  0  0  0  0  0  0  0  0  0
  1  2  1  0
  2  3  1  0
  3  4  2  0
  4  5  1  0
  5  6  2  0
  6  7  1  0
  7  8  1  0
  8  9  2  0
  9 10  1  0
 10 11  2  0
 11 12  1  0
 11 13  1  0
 13 14  1  0
 14 15  1  0
 15 16  1  0
 16 17  2  0
 17 18  1  0
 18 19  2  0
 19 20  1  0
 20 21  2  0
 13 22  2  0
  6 23  1  0
 23 24  2  0
 24  3  1  0
 22  8  1  0
 21 16  1  0
  1 25  1  0
  1 26  1  0
  1 27  1  0
  4 28  1  0
  5 29  1  0
  9 30  1  0
 10 31  1  0
 12 32  1  0
 12 33  1  0
 14 34  1  0
 14 35  1  0
 15 36  1  0
 15 37  1  0
 17 38  1  0
 18 39  1  0
 19 40  1  0
 20 41  1  0
 21 42  1  0
 22 43  1  0
 23 44  1  0
 24 45  1  0
M  CHG  1  14   1
M  END
>  <UniqueID>  (78) 
72

>  <SMILES>  (78) 
CSc1ccc(Sc2ccc(N)c([NH2+]Cc3ccccc3)c2)cc1

>  <Energy>  (78) 
38.15912994517844

>  <Genealogy>  (78) 
CSc1ccc(Sc2ccc(N)c([NH2+]Cc3ccccc3)c2)cc1 (protonated)
CSc1ccc(Sc2ccc(N)c([NH2+]Cc3ccccc3)c2)cc1 (3D coordinates assigned)
CSc1ccc(Sc2ccc(N)c([NH2+]Cc3ccccc3)c2)cc1 (optimized conformer: 38.15912994517844 kcal/mol)

>  <smiles>  (78) 
CSc1ccc(Sc2ccc(N)c(NCc3ccccc3)c2)cc1

>  <score_type>  (78) 
oracle

>  <origin>  (78) 
adg

>  <m_score__min__energy>  (78) 
-7

>  <m_primary>  (78) 
energy

$$$$
78:0
     RDKit          3D

 43 45  0  0  0  0  0  0  0  0999 V2000
   56.6470   24.0690   43.3700 C   0  0  0  0  0  0  0  0  0  0  0  0
   57.6310   24.4740   44.3160 O   0  0  0  0  0  0  0  0  0  0  0  0
   57.8390   25.8010   44.7220 C   0  0  0  0  0  0  0  0  0  0  0  0
   57.7350   26.1040   46.0840 C   0  0  0  0  0  0  0  0  0  0  0  0
   57.9350   27.4110   46.5400 C   0  0  0  0  0  0  0  0  0  0  0  0
   58.2580   28.4370   45.6340 C   0  0  0  0  0  0  0  0  0  0  0  0
   58.4460   29.7940   46.0740 N   0  0  0  0  0  0  0  0  0  0  0  0
   57.7670   30.9210   45.4980 C   0  0  0  0  0  0  0  0  0  0  0  0
   56.6850   30.7460   44.8730 O   0  0  0  0  0  0  0  0  0  0  0  0
   58.2960   32.2970   45.6710 C   0  0  0  0  0  0  0  0  0  0  0  0
   58.1370   33.2650   44.6710 C   0  0  0  0  0  0  0  0  0  0  0  0
   58.6270   34.5530   44.8630 C   0  0  0  0  0  0  0  0  0  0  0  0
   59.2740   34.8800   46.0560 C   0  0  0  0  0  0  0  0  0  0  0  0
   59.7050   36.0540   46.2140 O   0  0  0  0  0  0  0  0  0  0  0  0
   59.4320   33.9340   47.0390 N   0  0  0  0  0  0  0  0  0  0  0  0
   60.0790   34.2760   48.3170 C   0  0  0  0  0  0  0  0  0  0  0  0
   61.5200   33.8400   48.3040 C   0  0  0  0  0  0  0  0  0  0  0  0
   62.1610   33.5330   47.0920 C   0  0  0  0  0  0  0  0  0  0  0  0
   63.5100   33.1630   47.0820 C   0  0  0  0  0  0  0  0  0  0  0  0
   64.2290   33.1020   48.2790 C   0  0  0  0  0  0  0  0  0  0  0  0
   63.6010   33.4130   49.4880 C   0  0  0  0  0  0  0  0  0  0  0  0
   62.2520   33.7850   49.5020 C   0  0  0  0  0  0  0  0  0  0  0  0
   58.9440   32.6660   46.8630 C   0  0  0  0  0  0  0  0  0  0  0  0
   58.3430   28.1380   44.2660 C   0  0  0  0  0  0  0  0  0  0  0  0
   58.1430   26.8310   43.8110 C   0  0  0  0  0  0  0  0  0  0  0  0
   55.7564   23.7024   43.9015 H   0  0  0  0  0  0  0  0  0  0  0  0
   56.3704   24.9264   42.7388 H   0  0  0  0  0  0  0  0  0  0  0  0
   57.0540   23.2653   42.7388 H   0  0  0  0  0  0  0  0  0  0  0  0
   57.4937   25.3070   46.8027 H   0  0  0  0  0  0  0  0  0  0  0  0
   57.8392   27.6375   47.6122 H   0  0  0  0  0  0  0  0  0  0  0  0
   59.0220   29.9530   46.9310 H   0  0  0  0  0  0  0  0  0  0  0  0
   57.6241   33.0065   43.7328 H   0  0  0  0  0  0  0  0  0  0  0  0
   58.5048   35.3121   44.0763 H   0  0  0  0  0  0  0  0  0  0  0  0
   60.0302   35.3643   48.4691 H   0  0  0  0  0  0  0  0  0  0  0  0
   59.5550   33.7585   49.1341 H   0  0  0  0  0  0  0  0  0  0  0  0
   61.5998   33.5838   46.1473 H   0  0  0  0  0  0  0  0  0  0  0  0
   64.0057   32.9197   46.1306 H   0  0  0  0  0  0  0  0  0  0  0  0
   65.2893   32.8092   48.2694 H   0  0  0  0  0  0  0  0  0  0  0  0
   64.1676   33.3653   50.4296 H   0  0  0  0  0  0  0  0  0  0  0  0
   61.7627   34.0354   50.4548 H   0  0  0  0  0  0  0  0  0  0  0  0
   59.0610   31.9247   47.6672 H   0  0  0  0  0  0  0  0  0  0  0  0
   58.5688   28.9380   43.5456 H   0  0  0  0  0  0  0  0  0  0  0  0
   58.2234   26.6065   42.7372 H   0  0  0  0  0  0  0  0  0  0  0  0
  1  2  1  0
  2  3  1  0
  3  4  2  0
  4  5  1  0
  5  6  2  0
  6  7  1  0
  7  8  1  0
  8  9  2  0
  8 10  1  0
 10 11  1  0
 11 12  2  0
 12 13  1  0
 13 14  2  0
 13 15  1  0
 15 16  1  0
 16 17  1  0
 17 18  2  0
 18 19  1  0
 19 20  2  0
 20 21  1  0
 21 22  2  0
 15 23  1  0
  6 24  1  0
 24 25  2  0
 25  3  1  0
 23 10  2  0
 22 17  1  0
  1 26  1  0
  1 27  1  0
  1 28  1  0
  4 29  1  0
  5 30  1  0
  7 31  1  0
 11 32  1  0
 12 33  1  0
 16 34  1  0
 16 35  1  0
 18 36  1  0
 19 37  1  0
 20 38  1  0
 21 39  1  0
 22 40  1  0
 23 41  1  0
 24 42  1  0
 25 43  1  0
M  END
>  <UniqueID>  (79) 
73

>  <SMILES>  (79) 
COc1ccc(NC(=O)c2ccc(=O)n(Cc3ccccc3)c2)cc1

>  <Energy>  (79) 
52.007830766666

>  <Genealogy>  (79) 
COc1ccc(NC(=O)c2ccc(=O)n(Cc3ccccc3)c2)cc1 (3D coordinates assigned)
COc1ccc(NC(=O)c2ccc(=O)n(Cc3ccccc3)c2)cc1 (optimized conformer: 52.007830766666 kcal/mol)

>  <smiles>  (79) 
COc1ccc(NC(=O)c2ccc(=O)n(Cc3ccccc3)c2)cc1

>  <score_type>  (79) 
oracle

>  <origin>  (79) 
adg

>  <m_score__min__energy>  (79) 
-8.0899999999999999

>  <m_primary>  (79) 
energy

$$$$
79:0
     RDKit          3D

 53 56  0  0  0  0  0  0  0  0999 V2000
   54.1532   24.2480   44.4215 H   0  0  0  0  0  0  0  0  0  0  0  0
   55.1490   24.3440   44.8790 C   0  0  0  0  0  0  0  0  0  0  0  0
   55.3710   25.0660   46.0090 N   0  0  0  0  0  0  0  0  0  0  0  0
   56.6710   25.0380   46.3750 C   0  0  0  0  0  0  0  0  0  0  0  0
   57.0890   25.5970   47.4700 N   0  0  0  0  0  0  0  0  0  0  0  0
   58.1340   26.5710   47.5210 C   0  0  0  0  0  0  0  0  0  0  0  0
   59.2770   26.2330   47.9300 O   0  0  0  0  0  0  0  0  0  0  0  0
   57.8460   27.9370   47.2080 N   0  0  0  0  0  0  0  0  0  0  0  0
   56.8490   28.2060   47.0560 H   0  0  0  0  0  0  0  0  0  0  0  0
   58.8250   28.9740   47.3240 C   0  0  0  0  0  0  0  0  0  0  0  0
   59.0820   29.5500   48.5760 C   0  0  0  0  0  0  0  0  0  0  0  0
   58.4616   29.2745   49.4416 H   0  0  0  0  0  0  0  0  0  0  0  0
   60.1200   30.4710   48.7320 C   0  0  0  0  0  0  0  0  0  0  0  0
   60.3008   30.9288   49.7157 H   0  0  0  0  0  0  0  0  0  0  0  0
   60.9350   30.8170   47.6410 C   0  0  0  0  0  0  0  0  0  0  0  0
   62.0410   31.7980   47.7960 C   0  0  0  0  0  0  0  0  0  0  0  0
   62.1070   32.9370   46.9760 C   0  0  0  0  0  0  0  0  0  0  0  0
   61.3250   33.1228   46.2251 H   0  0  0  0  0  0  0  0  0  0  0  0
   63.1690   33.8320   47.1180 C   0  0  0  0  0  0  0  0  0  0  0  0
   63.2215   34.7271   46.4808 H   0  0  0  0  0  0  0  0  0  0  0  0
   64.1360   33.6000   48.0400 N   0  0  0  0  0  0  0  0  0  0  0  0
   64.1060   32.5130   48.8590 C   0  0  0  0  0  0  0  0  0  0  0  0
   65.0570   32.2890   49.7180 N   0  0  0  0  0  0  0  0  0  0  0  0
   65.7170   33.2600   50.5480 C   0  0  0  0  0  0  0  0  0  0  0  0
   64.9360   34.0870   51.3690 C   0  0  0  0  0  0  0  0  0  0  0  0
   63.8424   33.9689   51.3807 H   0  0  0  0  0  0  0  0  0  0  0  0
   65.5380   35.0610   52.1730 C   0  0  0  0  0  0  0  0  0  0  0  0
   64.9200   35.6921   52.8285 H   0  0  0  0  0  0  0  0  0  0  0  0
   66.9260   35.2320   52.1430 C   0  0  0  0  0  0  0  0  0  0  0  0
   67.4004   35.9928   52.7803 H   0  0  0  0  0  0  0  0  0  0  0  0
   67.7110   34.4350   51.3020 C   0  0  0  0  0  0  0  0  0  0  0  0
   68.8014   34.5766   51.2720 H   0  0  0  0  0  0  0  0  0  0  0  0
   67.1110   33.4580   50.4990 C   0  0  0  0  0  0  0  0  0  0  0  0
   67.7293   32.8434   49.8282 H   0  0  0  0  0  0  0  0  0  0  0  0
   63.0550   31.5930   48.7470 C   0  0  0  0  0  0  0  0  0  0  0  0
   63.0237   30.7107   49.4032 H   0  0  0  0  0  0  0  0  0  0  0  0
   60.6740   30.2360   46.3880 C   0  0  0  0  0  0  0  0  0  0  0  0
   61.3172   30.4845   45.5309 H   0  0  0  0  0  0  0  0  0  0  0  0
   59.6090   29.3470   46.2150 C   0  0  0  0  0  0  0  0  0  0  0  0
   59.3470   28.8800   44.9190 O   0  0  0  0  0  0  0  0  0  0  0  0
   58.0440   28.5460   44.4280 C   0  0  0  0  0  0  0  0  0  0  0  0
   57.4198   28.2011   45.2655 H   0  0  0  0  0  0  0  0  0  0  0  0
   58.1800   27.4360   43.3850 C   0  0  0  0  0  0  0  0  0  0  0  0
   58.2986   26.4677   43.8933 H   0  0  0  0  0  0  0  0  0  0  0  0
   57.2781   27.4117   42.7557 H   0  0  0  0  0  0  0  0  0  0  0  0
   59.0611   27.6301   42.7557 H   0  0  0  0  0  0  0  0  0  0  0  0
   57.3620   29.7730   43.8060 C   0  0  0  0  0  0  0  0  0  0  0  0
   56.9950   30.4332   44.6056 H   0  0  0  0  0  0  0  0  0  0  0  0
   58.0862   30.3187   43.1834 H   0  0  0  0  0  0  0  0  0  0  0  0
   56.5162   29.4461   43.1834 H   0  0  0  0  0  0  0  0  0  0  0  0
   57.6090   24.1160   45.3160 S   0  0  0  0  0  0  0  0  0  0  0  0
   56.2800   23.7370   44.3480 C   0  0  0  0  0  0  0  0  0  0  0  0
   56.3080   22.5670   42.8460 Br  0  0  0  0  0  0  0  0  0  0  0  0
  1  2  1  0
  2  3  1  0
  3  4  1  0
  4  5  2  0
  5  6  1  0
  6  7  2  0
  6  8  1  0
  8  9  1  0
  8 10  1  0
 10 11  2  0
 11 12  1  0
 11 13  1  0
 13 14  1  0
 13 15  2  0
 15 16  1  0
 16 17  1  0
 17 18  1  0
 17 19  2  0
 19 20  1  0
 19 21  1  0
 21 22  1  0
 22 23  2  3
 23 24  1  0
 24 25  2  0
 25 26  1  0
 25 27  1  0
 27 28  1  0
 27 29  2  0
 29 30  1  0
 29 31  1  0
 31 32  1  0
 31 33  2  0
 33 34  1  0
 22 35  1  0
 35 36  1  0
 15 37  1  0
 37 38  1  0
 37 39  2  0
 39 40  1  0
 40 41  1  0
 41 42  1  0
 41 43  1  0
 43 44  1  0
 43 45  1  0
 43 46  1  0
 41 47  1  0
 47 48  1  0
 47 49  1  0
 47 50  1  0
  4 51  1  0
 51 52  1  0
 52 53  1  0
 52  2  2  0
 39 10  1  0
 35 16  2  0
 33 24  1  0
M  CHG  2   3  -1  21  -1
M  END
>  <UniqueID>  (80) 
74

>  <SMILES>  (80) 
CC(C)Oc1cc(-c2cc[n-]c(=Nc3ccccc3)c2)ccc1NC(=O)/N=c1\[n-]cc(Br)s1

>  <Energy>  (80) 
112.77197007664645

>  <Genealogy>  (80) 
CC(C)Oc1cc(-c2cc[n-]c(=Nc3ccccc3)c2)ccc1NC(=O)N=c1[n-]cc(Br)s1 (protonated)
CC(C)Oc1cc(-c2cc[n-]c(=Nc3ccccc3)c2)ccc1NC(=O)/N=c1\[n-]cc(Br)s1 (cis-trans isomerization)
CC(C)Oc1cc(-c2cc[n-]c(=Nc3ccccc3)c2)ccc1NC(=O)/N=c1\[n-]cc(Br)s1 (3D coordinates assigned)
CC(C)Oc1cc(-c2cc[n-]c(=Nc3ccccc3)c2)ccc1NC(=O)/N=c1\[n-]cc(Br)s1 (optimized conformer: 112.77197007664645 kcal/mol)

>  <smiles>  (80) 
CC(C)Oc1cc(-c2cc[nH]c(=Nc3ccccc3)c2)ccc1NC(=O)N=c1[nH]cc(Br)s1

>  <score_type>  (80) 
oracle

>  <origin>  (80) 
adg

>  <m_score__min__energy>  (80) 
-11.84

>  <m_primary>  (80) 
energy

$$$$
80:0
     RDKit          3D

 58 61  0  0  0  0  0  0  0  0999 V2000
   60.0620   31.2190   46.2920 O   0  0  0  0  0  0  0  0  0  0  0  0
   60.6230   30.1600   46.6760 C   0  0  0  0  0  0  0  0  0  0  0  0
   60.7260   28.9980   45.7370 C   0  0  0  0  0  0  0  0  0  0  0  0
   59.3810   28.3700   45.5650 C   0  0  0  0  0  0  0  0  0  0  0  0
   58.5480   28.5330   44.4610 C   0  0  0  0  0  0  0  0  0  0  0  0
   57.4210   27.7060   44.4960 C   0  0  0  0  0  0  0  0  0  0  0  0
   57.3850   26.8860   45.6180 C   0  0  0  0  0  0  0  0  0  0  0  0
   56.1620   25.6770   45.9650 S   0  0  0  0  0  0  0  0  0  0  0  0
   56.3460   25.1980   47.3780 O   0  0  0  0  0  0  0  0  0  0  0  0
   54.8030   26.3120   45.8630 O   0  0  0  0  0  0  0  0  0  0  0  0
   56.2500   24.3110   44.8730 N   0  0  0  0  0  0  0  0  0  0  0  0
   57.6190   24.0800   44.3740 C   0  0  0  0  0  0  0  0  0  0  0  0
   58.4950   23.2710   45.3610 C   0  0  0  0  0  0  0  0  0  0  0  0
   57.7600   22.6080   46.3730 O   0  0  0  0  0  0  0  0  0  0  0  0
   56.6090   22.0140   45.8240 C   0  0  0  0  0  0  0  0  0  0  0  0
   55.6000   23.1000   45.4200 C   0  0  0  0  0  0  0  0  0  0  0  0
   58.7330   27.1910   46.5760 S   0  0  0  0  0  0  0  0  0  0  0  0
   61.2120   30.0850   47.9820 N   0  0  0  0  0  0  0  0  0  0  0  0
   61.1720   31.1970   48.9290 C   0  0  0  0  0  0  0  0  0  0  0  0
   59.8880   31.1620   49.7080 C   0  0  0  0  0  0  0  0  0  0  0  0
   59.1020   32.3180   49.8180 C   0  0  0  0  0  0  0  0  0  0  0  0
   57.9240   32.3010   50.5700 C   0  0  0  0  0  0  0  0  0  0  0  0
   57.5270   31.1360   51.2470 C   0  0  0  0  0  0  0  0  0  0  0  0
   56.2830   31.1090   52.0520 C   0  0  0  0  0  0  0  0  0  0  0  0
   56.3300   31.4290   53.2690 O   0  0  0  0  0  0  0  0  0  0  0  0
   55.0280   30.6790   51.5070 N   0  0  0  0  0  0  0  0  0  0  0  0
   53.7420   30.8030   52.1310 C   0  0  0  0  0  0  0  0  0  0  0  0
   53.3750   30.0110   53.2350 C   0  0  0  0  0  0  0  0  0  0  0  0
   52.1090   30.1540   53.8130 C   0  0  0  0  0  0  0  0  0  0  0  0
   51.1950   31.0710   53.2830 C   0  0  0  0  0  0  0  0  0  0  0  0
   51.5430   31.8380   52.1680 C   0  0  0  0  0  0  0  0  0  0  0  0
   50.6270   32.7340   51.6300 O   0  0  0  0  0  0  0  0  0  0  0  0
   52.8110   31.7010   51.5910 C   0  0  0  0  0  0  0  0  0  0  0  0
   58.3140   29.9770   51.1280 C   0  0  0  0  0  0  0  0  0  0  0  0
   59.4880   29.9910   50.3700 C   0  0  0  0  0  0  0  0  0  0  0  0
   61.0940   29.3477   44.7611 H   0  0  0  0  0  0  0  0  0  0  0  0
   61.4249   28.2559   46.1504 H   0  0  0  0  0  0  0  0  0  0  0  0
   58.7555   29.2403   43.6445 H   0  0  0  0  0  0  0  0  0  0  0  0
   56.6442   27.7044   43.7172 H   0  0  0  0  0  0  0  0  0  0  0  0
   57.5574   23.5264   43.4254 H   0  0  0  0  0  0  0  0  0  0  0  0
   58.0924   25.0645   44.2454 H   0  0  0  0  0  0  0  0  0  0  0  0
   59.0540   22.5161   44.7886 H   0  0  0  0  0  0  0  0  0  0  0  0
   59.1536   23.9924   45.8668 H   0  0  0  0  0  0  0  0  0  0  0  0
   56.8893   21.4285   44.9360 H   0  0  0  0  0  0  0  0  0  0  0  0
   56.1492   21.3548   46.5751 H   0  0  0  0  0  0  0  0  0  0  0  0
   54.9262   22.6867   44.6550 H   0  0  0  0  0  0  0  0  0  0  0  0
   55.0534   23.3983   46.3268 H   0  0  0  0  0  0  0  0  0  0  0  0
   61.6960   29.2070   48.2710 H   0  0  0  0  0  0  0  0  0  0  0  0
   62.0215   31.1153   49.6230 H   0  0  0  0  0  0  0  0  0  0  0  0
   61.2328   32.1455   48.3752 H   0  0  0  0  0  0  0  0  0  0  0  0
   59.4140   33.2425   49.3101 H   0  0  0  0  0  0  0  0  0  0  0  0
   57.3030   33.2068   50.6322 H   0  0  0  0  0  0  0  0  0  0  0  0
   54.0854   29.2777   53.6444 H   0  0  0  0  0  0  0  0  0  0  0  0
   51.8318   29.5444   54.6857 H   0  0  0  0  0  0  0  0  0  0  0  0
   50.2030   31.1882   53.7437 H   0  0  0  0  0  0  0  0  0  0  0  0
   53.0783   32.3014   50.7089 H   0  0  0  0  0  0  0  0  0  0  0  0
   58.0032   29.0519   51.6355 H   0  0  0  0  0  0  0  0  0  0  0  0
   60.1008   29.0808   50.2920 H   0  0  0  0  0  0  0  0  0  0  0  0
  1  2  2  0
  2  3  1  0
  3  4  1  0
  4  5  2  0
  5  6  1  0
  6  7  2  0
  7  8  1  0
  8  9  2  0
  8 10  2  0
  8 11  1  0
 11 12  1  0
 12 13  1  0
 13 14  1  0
 14 15  1  0
 15 16  1  0
  7 17  1  0
  2 18  1  0
 18 19  1  0
 19 20  1  0
 20 21  2  0
 21 22  1  0
 22 23  2  0
 23 24  1  0
 24 25  2  0
 24 26  1  0
 26 27  1  0
 27 28  2  0
 28 29  1  0
 29 30  2  0
 30 31  1  0
 31 32  1  0
 31 33  2  0
 23 34  1  0
 34 35  2  0
 17  4  1  0
 35 20  1  0
 16 11  1  0
 33 27  1  0
  3 36  1  0
  3 37  1  0
  5 38  1  0
  6 39  1  0
 12 40  1  0
 12 41  1  0
 13 42  1  0
 13 43  1  0
 15 44  1  0
 15 45  1  0
 16 46  1  0
 16 47  1  0
 18 48  1  0
 19 49  1  0
 19 50  1  0
 21 51  1  0
 22 52  1  0
 28 53  1  0
 29 54  1  0
 30 55  1  0
 33 56  1  0
 34 57  1  0
 35 58  1  0
M  CHG  2  26  -1  32  -1
M  END
>  <UniqueID>  (81) 
75

>  <SMILES>  (81) 
O=C(Cc1ccc(S(=O)(=O)N2CCOCC2)s1)NCc1ccc(C(=O)[N-]c2cccc([O-])c2)cc1

>  <Energy>  (81) 
98.8457705055043

>  <Genealogy>  (81) 
O=C(Cc1ccc(S(=O)(=O)N2CCOCC2)s1)NCc1ccc(C(=O)[N-]c2cccc([O-])c2)cc1 (protonated)
O=C(Cc1ccc(S(=O)(=O)N2CCOCC2)s1)NCc1ccc(C(=O)[N-]c2cccc([O-])c2)cc1 (3D coordinates assigned)
O=C(Cc1ccc(S(=O)(=O)N2CCOCC2)s1)NCc1ccc(C(=O)[N-]c2cccc([O-])c2)cc1 (nonaromatic ring conformer: 98.8457705055043 kcal/mol)

>  <smiles>  (81) 
O=C(Cc1ccc(S(=O)(=O)N2CCOCC2)s1)NCc1ccc(C(=O)Nc2cccc(O)c2)cc1

>  <score_type>  (81) 
oracle

>  <origin>  (81) 
adg

>  <m_score__min__energy>  (81) 
-16.460000000000001

>  <m_primary>  (81) 
energy

$$$$
81:0
     RDKit          3D

 38 40  0  0  0  0  0  0  0  0999 V2000
   64.4250   32.6100   48.2770 N   0  0  0  0  0  0  0  0  0  0  0  0
   63.2320   33.7780   47.8280 S   0  0  0  0  0  0  0  0  0  0  0  0
   63.7300   34.5910   46.6660 O   0  0  0  0  0  0  0  0  0  0  0  0
   62.9780   34.6990   48.9880 O   0  0  0  0  0  0  0  0  0  0  0  0
   61.7460   32.9520   47.3750 C   0  0  0  0  0  0  0  0  0  0  0  0
   61.4370   31.7020   47.9540 C   0  0  0  0  0  0  0  0  0  0  0  0
   60.2500   31.0300   47.6130 C   0  0  0  0  0  0  0  0  0  0  0  0
   59.3850   31.6200   46.6930 C   0  0  0  0  0  0  0  0  0  0  0  0
   58.2120   31.0730   46.2820 N   0  0  0  0  0  0  0  0  0  0  0  0
   57.5860   31.8740   45.3860 C   0  0  0  0  0  0  0  0  0  0  0  0
   56.4340   31.5540   44.8720 N   0  0  0  0  0  0  0  0  0  0  0  0
   56.1050   30.3690   44.1290 C   0  0  0  0  0  0  0  0  0  0  0  0
   55.1620   29.6110   44.4820 O   0  0  0  0  0  0  0  0  0  0  0  0
   56.9080   30.0250   42.9140 C   0  0  0  0  0  0  0  0  0  0  0  0
   56.8130   28.5970   42.6340 N   0  0  0  0  0  0  0  0  0  0  0  0
   57.7940   27.6410   43.0530 C   0  0  0  0  0  0  0  0  0  0  0  0
   58.1750   26.7430   42.2510 O   0  0  0  0  0  0  0  0  0  0  0  0
   58.3580   27.7010   44.4210 C   0  0  0  0  0  0  0  0  0  0  0  0
   59.6630   28.1810   44.6360 C   0  0  0  0  0  0  0  0  0  0  0  0
   60.1950   28.2270   45.9290 C   0  0  0  0  0  0  0  0  0  0  0  0
   59.4310   27.8000   47.0200 C   0  0  0  0  0  0  0  0  0  0  0  0
   60.1040   27.8570   48.6390 Cl  0  0  0  0  0  0  0  0  0  0  0  0
   58.1330   27.3260   46.8170 C   0  0  0  0  0  0  0  0  0  0  0  0
   57.5980   27.2730   45.5260 C   0  0  0  0  0  0  0  0  0  0  0  0
   58.4690   33.2940   45.0730 S   0  0  0  0  0  0  0  0  0  0  0  0
   59.6920   32.8490   46.1310 C   0  0  0  0  0  0  0  0  0  0  0  0
   60.8590   33.5380   46.4520 C   0  0  0  0  0  0  0  0  0  0  0  0
   64.4700   31.9070   47.5040 H   0  0  0  0  0  0  0  0  0  0  0  0
   65.3450   33.1020   48.2920 H   0  0  0  0  0  0  0  0  0  0  0  0
   62.1308   31.2500   48.6781 H   0  0  0  0  0  0  0  0  0  0  0  0
   60.0084   30.0563   48.0641 H   0  0  0  0  0  0  0  0  0  0  0  0
   56.5233   30.5904   42.0524 H   0  0  0  0  0  0  0  0  0  0  0  0
   57.9613   30.2855   43.0948 H   0  0  0  0  0  0  0  0  0  0  0  0
   60.2681   28.5219   43.7830 H   0  0  0  0  0  0  0  0  0  0  0  0
   61.2174   28.6002   46.0882 H   0  0  0  0  0  0  0  0  0  0  0  0
   57.5300   26.9935   47.6748 H   0  0  0  0  0  0  0  0  0  0  0  0
   56.5766   26.8944   45.3729 H   0  0  0  0  0  0  0  0  0  0  0  0
   61.0818   34.5141   45.9965 H   0  0  0  0  0  0  0  0  0  0  0  0
  1  2  1  0
  2  3  2  0
  2  4  2  0
  2  5  1  0
  5  6  2  0
  6  7  1  0
  7  8  2  0
  8  9  1  0
  9 10  1  0
 10 11  2  3
 11 12  1  0
 12 13  2  0
 12 14  1  0
 14 15  1  0
 15 16  1  0
 16 17  2  0
 16 18  1  0
 18 19  2  0
 19 20  1  0
 20 21  2  0
 21 22  1  0
 21 23  1  0
 23 24  2  0
 10 25  1  0
 25 26  1  0
 26 27  2  0
 27  5  1  0
 26  8  1  0
 24 18  1  0
  1 28  1  0
  1 29  1  0
  6 30  1  0
  7 31  1  0
 14 32  1  0
 14 33  1  0
 19 34  1  0
 20 35  1  0
 23 36  1  0
 24 37  1  0
 27 38  1  0
M  CHG  2   9  -1  15  -1
M  END
>  <UniqueID>  (82) 
76

>  <SMILES>  (82) 
NS(=O)(=O)c1ccc2[n-]c(=NC(=O)C[N-]C(=O)c3ccc(Cl)cc3)sc2c1

>  <Energy>  (82) 
75.1429475496902

>  <Genealogy>  (82) 
NS(=O)(=O)c1ccc2[n-]c(=NC(=O)C[N-]C(=O)c3ccc(Cl)cc3)sc2c1 (protonated)
NS(=O)(=O)c1ccc2[n-]c(=NC(=O)C[N-]C(=O)c3ccc(Cl)cc3)sc2c1 (3D coordinates assigned)
NS(=O)(=O)c1ccc2[n-]c(=NC(=O)C[N-]C(=O)c3ccc(Cl)cc3)sc2c1 (optimized conformer: 75.1429475496902 kcal/mol)

>  <smiles>  (82) 
NS(=O)(=O)c1ccc2[nH]c(=NC(=O)CNC(=O)c3ccc(Cl)cc3)sc2c1

>  <score_type>  (82) 
oracle

>  <origin>  (82) 
adg

>  <m_score__min__energy>  (82) 
-12.609999999999999

>  <m_primary>  (82) 
energy

$$$$
82:0
     RDKit          3D

 59 62  0  0  0  0  0  0  0  0999 V2000
   57.2880   31.2630   51.7720 C   0  0  0  0  0  0  0  0  0  0  0  0
   58.1880   31.7040   50.6640 C   0  0  0  0  0  0  0  0  0  0  0  0
   57.7920   32.3860   49.6190 O   0  0  0  0  0  0  0  0  0  0  0  0
   58.8420   32.5510   48.8420 C   0  0  0  0  0  0  0  0  0  0  0  0
   58.8000   33.2640   47.5500 C   0  0  0  0  0  0  0  0  0  0  0  0
   59.7000   34.3110   47.2790 C   0  0  0  0  0  0  0  0  0  0  0  0
   59.6580   34.9760   46.0500 C   0  0  0  0  0  0  0  0  0  0  0  0
   58.7160   34.6070   45.0840 C   0  0  0  0  0  0  0  0  0  0  0  0
   57.8130   33.5730   45.3460 C   0  0  0  0  0  0  0  0  0  0  0  0
   57.8560   32.9000   46.5720 C   0  0  0  0  0  0  0  0  0  0  0  0
   59.9570   31.9820   49.3480 N   0  0  0  0  0  0  0  0  0  0  0  0
   59.5380   31.4460   50.5100 C   0  0  0  0  0  0  0  0  0  0  0  0
   60.4130   30.6110   51.4010 C   0  0  0  0  0  0  0  0  0  0  0  0
   60.0340   29.1280   51.3060 C   0  0  0  0  0  0  0  0  0  0  0  0
   60.7940   28.4690   50.2940 O   0  0  0  0  0  0  0  0  0  0  0  0
   60.3530   28.1930   48.9890 C   0  0  0  0  0  0  0  0  0  0  0  0
   59.5630   29.1520   48.3460 C   0  0  0  0  0  0  0  0  0  0  0  0
   59.0540   28.9160   47.0680 C   0  0  0  0  0  0  0  0  0  0  0  0
   59.3100   27.7010   46.4150 C   0  0  0  0  0  0  0  0  0  0  0  0
   58.7420   27.4420   45.0390 C   0  0  0  0  0  0  0  0  0  0  0  0
   57.4470   26.5890   45.0570 C   0  0  1  0  0  0  0  0  0  0  0  0
   57.6140   25.2300   45.7840 C   0  0  0  0  0  0  0  0  0  0  0  0
   57.4390   24.0200   44.8920 C   0  0  0  0  0  0  0  0  0  0  0  0
   56.4170   23.9840   43.9260 C   0  0  0  0  0  0  0  0  0  0  0  0
   56.2720   22.8710   43.0930 C   0  0  0  0  0  0  0  0  0  0  0  0
   57.1490   21.7890   43.2110 C   0  0  0  0  0  0  0  0  0  0  0  0
   58.1770   21.8220   44.1560 C   0  0  0  0  0  0  0  0  0  0  0  0
   58.3280   22.9340   44.9870 C   0  0  0  0  0  0  0  0  0  0  0  0
   56.2800   27.3690   45.6150 C   0  0  0  0  0  0  0  0  0  0  0  0
   56.3170   28.6300   45.6260 O   0  0  0  0  0  0  0  0  0  0  0  0
   55.1480   26.7190   46.1030 O   0  0  0  0  0  0  0  0  0  0  0  0
   60.1420   26.7540   47.0390 C   0  0  0  0  0  0  0  0  0  0  0  0
   60.6550   26.9930   48.3160 C   0  0  0  0  0  0  0  0  0  0  0  0
   57.7578   31.4932   52.7396 H   0  0  0  0  0  0  0  0  0  0  0  0
   56.3266   31.7921   51.6961 H   0  0  0  0  0  0  0  0  0  0  0  0
   57.1170   30.1790   51.6961 H   0  0  0  0  0  0  0  0  0  0  0  0
   60.4397   34.6075   48.0372 H   0  0  0  0  0  0  0  0  0  0  0  0
   60.3670   35.7909   45.8422 H   0  0  0  0  0  0  0  0  0  0  0  0
   58.6859   35.1311   44.1173 H   0  0  0  0  0  0  0  0  0  0  0  0
   57.0683   33.2882   44.5882 H   0  0  0  0  0  0  0  0  0  0  0  0
   57.1482   32.0821   46.7723 H   0  0  0  0  0  0  0  0  0  0  0  0
   61.4621   30.7350   51.0942 H   0  0  0  0  0  0  0  0  0  0  0  0
   60.2749   30.9432   52.4405 H   0  0  0  0  0  0  0  0  0  0  0  0
   60.2291   28.6443   52.2745 H   0  0  0  0  0  0  0  0  0  0  0  0
   58.9676   29.0551   51.0462 H   0  0  0  0  0  0  0  0  0  0  0  0
   59.3406   30.1024   48.8532 H   0  0  0  0  0  0  0  0  0  0  0  0
   58.4484   29.6874   46.5697 H   0  0  0  0  0  0  0  0  0  0  0  0
   58.5154   28.4097   44.5677 H   0  0  0  0  0  0  0  0  0  0  0  0
   59.4977   26.8726   44.4780 H   0  0  0  0  0  0  0  0  0  0  0  0
   57.2306   26.3477   44.0058 H   0  0  0  0  0  0  0  0  0  0  0  0
   58.6237   25.1940   46.2190 H   0  0  0  0  0  0  0  0  0  0  0  0
   56.8191   25.1792   46.5427 H   0  0  0  0  0  0  0  0  0  0  0  0
   55.7285   24.8360   43.8257 H   0  0  0  0  0  0  0  0  0  0  0  0
   55.4669   22.8466   42.3438 H   0  0  0  0  0  0  0  0  0  0  0  0
   57.0295   20.9110   42.5592 H   0  0  0  0  0  0  0  0  0  0  0  0
   58.8684   20.9711   44.2457 H   0  0  0  0  0  0  0  0  0  0  0  0
   59.1473   22.9609   45.7205 H   0  0  0  0  0  0  0  0  0  0  0  0
   60.3906   25.8180   46.5173 H   0  0  0  0  0  0  0  0  0  0  0  0
   61.2973   26.2412   48.7980 H   0  0  0  0  0  0  0  0  0  0  0  0
  1  2  1  0
  2  3  1  0
  3  4  1  0
  4  5  1  0
  5  6  2  0
  6  7  1  0
  7  8  2  0
  8  9  1  0
  9 10  2  0
  4 11  2  0
 11 12  1  0
 12 13  1  0
 13 14  1  0
 14 15  1  0
 15 16  1  0
 16 17  2  0
 17 18  1  0
 18 19  2  0
 19 20  1  0
 20 21  1  0
 21 22  1  0
 22 23  1  0
 23 24  2  0
 24 25  1  0
 25 26  2  0
 26 27  1  0
 27 28  2  0
 21 29  1  0
 29 30  2  0
 29 31  1  0
 19 32  1  0
 32 33  2  0
 12  2  2  0
 33 16  1  0
 10  5  1  0
 28 23  1  0
  1 34  1  0
  1 35  1  0
  1 36  1  0
  6 37  1  0
  7 38  1  0
  8 39  1  0
  9 40  1  0
 10 41  1  0
 13 42  1  0
 13 43  1  0
 14 44  1  0
 14 45  1  0
 17 46  1  0
 18 47  1  0
 20 48  1  0
 20 49  1  0
 21 50  1  6
 22 51  1  0
 22 52  1  0
 24 53  1  0
 25 54  1  0
 26 55  1  0
 27 56  1  0
 28 57  1  0
 32 58  1  0
 33 59  1  0
M  CHG  1  31  -1
M  END
>  <UniqueID>  (83) 
77

>  <SMILES>  (83) 
Cc1oc(-c2ccccc2)nc1CCOc1ccc(C[C@@H](Cc2ccccc2)C(=O)[O-])cc1

>  <Energy>  (83) 
87.01377960924299

>  <Genealogy>  (83) 
Cc1oc(-c2ccccc2)nc1CCOc1ccc(CC(Cc2ccccc2)C(=O)[O-])cc1 (protonated)
Cc1oc(-c2ccccc2)nc1CCOc1ccc(C[C@@H](Cc2ccccc2)C(=O)[O-])cc1 (chirality)
Cc1oc(-c2ccccc2)nc1CCOc1ccc(C[C@@H](Cc2ccccc2)C(=O)[O-])cc1 (3D coordinates assigned)
Cc1oc(-c2ccccc2)nc1CCOc1ccc(C[C@@H](Cc2ccccc2)C(=O)[O-])cc1 (optimized conformer: 87.01377960924299 kcal/mol)

>  <smiles>  (83) 
Cc1oc(-c2ccccc2)nc1CCOc1ccc(CC(Cc2ccccc2)C(=O)O)cc1

>  <score_type>  (83) 
oracle

>  <origin>  (83) 
adg

>  <m_score__min__energy>  (83) 
-12.26

>  <m_primary>  (83) 
energy

$$$$
83:0
     RDKit          3D

 56 59  0  0  0  0  0  0  0  0999 V2000
   61.8120   31.6070   49.1490 C   0  0  0  0  0  0  0  0  0  0  0  0
   61.1210   32.4710   48.1310 C   0  0  0  0  0  0  0  0  0  0  0  0
   59.7180   32.5540   48.1290 C   0  0  0  0  0  0  0  0  0  0  0  0
   59.0530   33.3020   47.1460 C   0  0  0  0  0  0  0  0  0  0  0  0
   59.7850   33.9720   46.1650 C   0  0  0  0  0  0  0  0  0  0  0  0
   61.1860   33.9360   46.1870 C   0  0  0  0  0  0  0  0  0  0  0  0
   61.8560   33.1710   47.1500 C   0  0  0  0  0  0  0  0  0  0  0  0
   63.6120   33.0950   47.0850 Cl  0  0  0  0  0  0  0  0  0  0  0  0
   59.0270   34.6870   45.0800 C   0  0  0  0  0  0  0  0  0  0  0  0
   57.8290   33.9200   44.6500 N   0  0  1  0  0  0  0  0  0  0  0  0
   58.1370   32.8320   43.6780 C   0  0  0  0  0  0  0  0  0  0  0  0
   57.9290   31.4280   44.2110 C   0  0  0  0  0  0  0  0  0  0  0  0
   58.8950   30.8430   45.0450 C   0  0  0  0  0  0  0  0  0  0  0  0
   58.6790   29.5780   45.6020 C   0  0  0  0  0  0  0  0  0  0  0  0
   57.5090   28.8590   45.3050 C   0  0  0  0  0  0  0  0  0  0  0  0
   57.2690   27.5250   45.8990 C   0  0  0  0  0  0  0  0  0  0  0  0
   57.4160   27.3650   47.1420 O   0  0  0  0  0  0  0  0  0  0  0  0
   56.8960   26.4130   45.0670 N   0  0  0  0  0  0  0  0  0  0  0  0
   56.4300   25.1550   45.5780 C   0  0  0  0  0  0  0  0  0  0  0  0
   56.1380   25.0320   46.8020 O   0  0  0  0  0  0  0  0  0  0  0  0
   56.2690   24.0440   44.6860 N   0  0  0  0  0  0  0  0  0  0  0  0
   55.8740   22.7430   45.1400 C   0  0  0  0  0  0  0  0  0  0  0  0
   56.8330   21.7220   45.1930 C   0  0  0  0  0  0  0  0  0  0  0  0
   56.4850   20.4450   45.6370 C   0  0  0  0  0  0  0  0  0  0  0  0
   55.1770   20.1800   46.0480 C   0  0  0  0  0  0  0  0  0  0  0  0
   54.2130   21.1930   46.0210 C   0  0  0  0  0  0  0  0  0  0  0  0
   52.5880   20.8250   46.5900 Cl  0  0  0  0  0  0  0  0  0  0  0  0
   54.5550   22.4850   45.5750 C   0  0  0  0  0  0  0  0  0  0  0  0
   53.3610   23.7840   45.6280 Cl  0  0  0  0  0  0  0  0  0  0  0  0
   56.5790   29.4130   44.4120 C   0  0  0  0  0  0  0  0  0  0  0  0
   56.7860   30.6860   43.8700 C   0  0  0  0  0  0  0  0  0  0  0  0
   56.9310   33.4830   45.7640 C   0  0  0  0  0  0  0  0  0  0  0  0
   57.5650   33.4860   47.1770 C   0  0  0  0  0  0  0  0  0  0  0  0
   61.5419   31.9447   50.1604 H   0  0  0  0  0  0  0  0  0  0  0  0
   61.4984   30.5611   49.0157 H   0  0  0  0  0  0  0  0  0  0  0  0
   62.9012   31.6830   49.0157 H   0  0  0  0  0  0  0  0  0  0  0  0
   59.1380   32.0295   48.9026 H   0  0  0  0  0  0  0  0  0  0  0  0
   61.7610   34.5103   45.4457 H   0  0  0  0  0  0  0  0  0  0  0  0
   58.7052   35.6688   45.4575 H   0  0  0  0  0  0  0  0  0  0  0  0
   59.6933   34.7977   44.2118 H   0  0  0  0  0  0  0  0  0  0  0  0
   57.2670   34.6060   44.0900 H   0  0  0  0  0  0  0  0  0  0  0  0
   57.4889   32.9643   42.7991 H   0  0  0  0  0  0  0  0  0  0  0  0
   59.2081   32.9194   43.4433 H   0  0  0  0  0  0  0  0  0  0  0  0
   59.8284   31.3831   45.2620 H   0  0  0  0  0  0  0  0  0  0  0  0
   59.4306   29.1431   46.2773 H   0  0  0  0  0  0  0  0  0  0  0  0
   57.0270   26.4950   44.0350 H   0  0  0  0  0  0  0  0  0  0  0  0
   56.2860   24.2220   43.6560 H   0  0  0  0  0  0  0  0  0  0  0  0
   57.8678   21.9286   44.8823 H   0  0  0  0  0  0  0  0  0  0  0  0
   57.2417   19.6470   45.6631 H   0  0  0  0  0  0  0  0  0  0  0  0
   54.9041   19.1721   46.3938 H   0  0  0  0  0  0  0  0  0  0  0  0
   55.6803   28.8419   44.1360 H   0  0  0  0  0  0  0  0  0  0  0  0
   56.0485   31.1089   43.1719 H   0  0  0  0  0  0  0  0  0  0  0  0
   56.0619   34.1570   45.7819 H   0  0  0  0  0  0  0  0  0  0  0  0
   56.6771   32.4341   45.5511 H   0  0  0  0  0  0  0  0  0  0  0  0
   57.3397   34.4475   47.6614 H   0  0  0  0  0  0  0  0  0  0  0  0
   57.1378   32.6390   47.7338 H   0  0  0  0  0  0  0  0  0  0  0  0
  1  2  1  0
  2  3  2  0
  3  4  1  0
  4  5  2  0
  5  6  1  0
  6  7  2  0
  7  8  1  0
  5  9  1  0
  9 10  1  0
 10 11  1  0
 11 12  1  0
 12 13  2  0
 13 14  1  0
 14 15  2  0
 15 16  1  0
 16 17  2  0
 16 18  1  0
 18 19  1  0
 19 20  2  0
 19 21  1  0
 21 22  1  0
 22 23  2  0
 23 24  1  0
 24 25  2  0
 25 26  1  0
 26 27  1  0
 26 28  2  0
 28 29  1  0
 15 30  1  0
 30 31  2  0
 10 32  1  0
 32 33  1  0
  7  2  1  0
 31 12  1  0
 33  4  1  0
 28 22  1  0
  1 34  1  0
  1 35  1  0
  1 36  1  0
  3 37  1  0
  6 38  1  0
  9 39  1  0
  9 40  1  0
 10 41  1  6
 11 42  1  0
 11 43  1  0
 13 44  1  0
 14 45  1  0
 18 46  1  0
 21 47  1  0
 23 48  1  0
 24 49  1  0
 25 50  1  0
 30 51  1  0
 31 52  1  0
 32 53  1  0
 32 54  1  0
 33 55  1  0
 33 56  1  0
M  CHG  1  10   1
M  END
>  <UniqueID>  (84) 
78

>  <SMILES>  (84) 
Cc1cc2c(cc1Cl)C[N@@H+](Cc1ccc(C(=O)NC(=O)Nc3cccc(Cl)c3Cl)cc1)CC2

>  <Energy>  (84) 
80.86435722059338

>  <Genealogy>  (84) 
Cc1cc2c(cc1Cl)C[NH+](Cc1ccc(C(=O)NC(=O)Nc3cccc(Cl)c3Cl)cc1)CC2 (protonated)
Cc1cc2c(cc1Cl)C[N@@H+](Cc1ccc(C(=O)NC(=O)Nc3cccc(Cl)c3Cl)cc1)CC2 (chirality)
Cc1cc2c(cc1Cl)C[N@@H+](Cc1ccc(C(=O)NC(=O)Nc3cccc(Cl)c3Cl)cc1)CC2 (3D coordinates assigned)
Cc1cc2c(cc1Cl)C[N@@H+](Cc1ccc(C(=O)NC(=O)Nc3cccc(Cl)c3Cl)cc1)CC2 (nonaromatic ring conformer: 80.86435722059338 kcal/mol)

>  <smiles>  (84) 
Cc1cc2c(cc1Cl)CN(Cc1ccc(C(=O)NC(=O)Nc3cccc(Cl)c3Cl)cc1)CC2

>  <score_type>  (84) 
oracle

>  <origin>  (84) 
adg

>  <m_score__min__energy>  (84) 
-8.6799999999999997

>  <m_primary>  (84) 
energy

$$$$
84:0
     RDKit          3D

 54 56  0  0  0  0  0  0  0  0999 V2000
   55.3180   20.1870   48.7780 C   0  0  0  0  0  0  0  0  0  0  0  0
   56.6400   21.1060   48.0110 S   0  0  0  0  0  0  0  0  0  0  0  0
   57.0400   22.2340   48.9210 O   0  0  0  0  0  0  0  0  0  0  0  0
   57.8210   20.1950   47.8240 O   0  0  0  0  0  0  0  0  0  0  0  0
   56.1580   21.7620   46.4620 N   0  0  0  0  0  0  0  0  0  0  0  0
   57.3080   21.8880   45.5340 C   0  0  0  0  0  0  0  0  0  0  0  0
   57.8570   23.3210   45.4160 C   0  0  0  0  0  0  0  0  0  0  0  0
   56.7790   24.2890   45.1840 N   0  0  0  0  0  0  0  0  0  0  0  0
   57.1060   25.6510   44.8660 C   0  0  0  0  0  0  0  0  0  0  0  0
   56.7430   26.6870   45.7390 C   0  0  0  0  0  0  0  0  0  0  0  0
   57.0480   28.0150   45.4230 C   0  0  0  0  0  0  0  0  0  0  0  0
   57.6990   28.3270   44.2220 C   0  0  0  0  0  0  0  0  0  0  0  0
   58.0150   29.6980   43.9230 N   0  0  0  0  0  0  0  0  0  0  0  0
   58.1210   30.7400   44.9070 C   0  0  0  0  0  0  0  0  0  0  0  0
   58.6950   30.3870   46.4110 S   0  0  0  0  0  0  0  0  0  0  0  0
   58.0430   32.1070   44.4730 N   0  0  0  0  0  0  0  0  0  0  0  0
   57.8260   33.2240   45.3500 C   0  0  0  0  0  0  0  0  0  0  0  0
   57.3360   33.0520   46.4980 O   0  0  0  0  0  0  0  0  0  0  0  0
   58.1200   34.6170   44.8780 C   0  0  0  0  0  0  0  0  0  0  0  0
   59.3220   35.1080   45.4730 O   0  0  0  0  0  0  0  0  0  0  0  0
   60.0040   34.5030   46.5410 C   0  0  0  0  0  0  0  0  0  0  0  0
   59.4570   34.6180   47.8260 C   0  0  0  0  0  0  0  0  0  0  0  0
   60.1010   34.0420   48.9260 C   0  0  0  0  0  0  0  0  0  0  0  0
   61.2990   33.3440   48.7510 C   0  0  0  0  0  0  0  0  0  0  0  0
   61.8530   33.2200   47.4740 C   0  0  0  0  0  0  0  0  0  0  0  0
   61.2120   33.7930   46.3700 C   0  0  0  0  0  0  0  0  0  0  0  0
   58.0780   27.2860   43.3560 C   0  0  0  0  0  0  0  0  0  0  0  0
   57.7780   25.9580   43.6740 C   0  0  0  0  0  0  0  0  0  0  0  0
   55.3890   23.8870   45.4090 C   0  0  0  0  0  0  0  0  0  0  0  0
   55.3360   22.9800   46.6380 C   0  0  0  0  0  0  0  0  0  0  0  0
   55.4124   20.2526   49.8720 H   0  0  0  0  0  0  0  0  0  0  0  0
   54.3504   20.6082   48.4676 H   0  0  0  0  0  0  0  0  0  0  0  0
   55.3757   19.1333   48.4676 H   0  0  0  0  0  0  0  0  0  0  0  0
   58.1170   21.2352   45.8937 H   0  0  0  0  0  0  0  0  0  0  0  0
   56.9470   21.6000   44.5356 H   0  0  0  0  0  0  0  0  0  0  0  0
   58.3785   23.5825   46.3485 H   0  0  0  0  0  0  0  0  0  0  0  0
   58.5466   23.3585   44.5599 H   0  0  0  0  0  0  0  0  0  0  0  0
   56.2162   26.4542   46.6762 H   0  0  0  0  0  0  0  0  0  0  0  0
   56.7751   28.8196   46.1217 H   0  0  0  0  0  0  0  0  0  0  0  0
   58.1990   29.9490   42.9260 H   0  0  0  0  0  0  0  0  0  0  0  0
   58.1240   32.3020   43.4490 H   0  0  0  0  0  0  0  0  0  0  0  0
   58.2348   34.6110   43.7840 H   0  0  0  0  0  0  0  0  0  0  0  0
   57.2868   35.2730   45.1705 H   0  0  0  0  0  0  0  0  0  0  0  0
   58.5139   35.1654   47.9708 H   0  0  0  0  0  0  0  0  0  0  0  0
   59.6637   34.1386   49.9307 H   0  0  0  0  0  0  0  0  0  0  0  0
   61.8052   32.8928   49.6172 H   0  0  0  0  0  0  0  0  0  0  0  0
   62.7958   32.6703   47.3363 H   0  0  0  0  0  0  0  0  0  0  0  0
   61.6505   33.6899   45.3665 H   0  0  0  0  0  0  0  0  0  0  0  0
   58.6133   27.5177   42.4234 H   0  0  0  0  0  0  0  0  0  0  0  0
   58.0703   25.1507   42.9864 H   0  0  0  0  0  0  0  0  0  0  0  0
   54.7684   24.7790   45.5798 H   0  0  0  0  0  0  0  0  0  0  0  0
   55.0063   23.3496   44.5288 H   0  0  0  0  0  0  0  0  0  0  0  0
   55.7103   23.5387   47.5085 H   0  0  0  0  0  0  0  0  0  0  0  0
   54.2917   22.6676   46.7858 H   0  0  0  0  0  0  0  0  0  0  0  0
  1  2  1  0
  2  3  2  0
  2  4  2  0
  2  5  1  0
  5  6  1  0
  6  7  1  0
  7  8  1  0
  8  9  1  0
  9 10  2  0
 10 11  1  0
 11 12  2  0
 12 13  1  0
 13 14  1  0
 14 15  2  0
 14 16  1  0
 16 17  1  0
 17 18  2  0
 17 19  1  0
 19 20  1  0
 20 21  1  0
 21 22  2  0
 22 23  1  0
 23 24  2  0
 24 25  1  0
 25 26  2  0
 12 27  1  0
 27 28  2  0
  8 29  1  0
 29 30  1  0
 30  5  1  0
 28  9  1  0
 26 21  1  0
  1 31  1  0
  1 32  1  0
  1 33  1  0
  6 34  1  0
  6 35  1  0
  7 36  1  0
  7 37  1  0
 10 38  1  0
 11 39  1  0
 13 40  1  0
 16 41  1  0
 19 42  1  0
 19 43  1  0
 22 44  1  0
 23 45  1  0
 24 46  1  0
 25 47  1  0
 26 48  1  0
 27 49  1  0
 28 50  1  0
 29 51  1  0
 29 52  1  0
 30 53  1  0
 30 54  1  0
M  END
>  <UniqueID>  (85) 
79

>  <SMILES>  (85) 
CS(=O)(=O)N1CCN(c2ccc(NC(=S)NC(=O)COc3ccccc3)cc2)CC1

>  <Energy>  (85) 
67.59839883059246

>  <Genealogy>  (85) 
CS(=O)(=O)N1CCN(c2ccc(NC(=S)NC(=O)COc3ccccc3)cc2)CC1 (3D coordinates assigned)
CS(=O)(=O)N1CCN(c2ccc(NC(=S)NC(=O)COc3ccccc3)cc2)CC1 (nonaromatic ring conformer: 67.59839883059246 kcal/mol)

>  <smiles>  (85) 
CS(=O)(=O)N1CCN(c2ccc(NC(=S)NC(=O)COc3ccccc3)cc2)CC1

>  <score_type>  (85) 
oracle

>  <origin>  (85) 
adg

>  <m_score__min__energy>  (85) 
-8.1699999999999999

>  <m_primary>  (85) 
energy

$$$$
85:0
     RDKit          3D

 46 48  0  0  0  0  0  0  0  0999 V2000
   60.9150   26.4790   46.6760 C   0  0  0  0  0  0  0  0  0  0  0  0
   59.8160   27.3330   46.1150 C   0  0  0  0  0  0  0  0  0  0  0  0
   58.4870   27.1450   46.5240 C   0  0  0  0  0  0  0  0  0  0  0  0
   57.4640   27.9270   45.9790 C   0  0  0  0  0  0  0  0  0  0  0  0
   57.7580   28.8940   45.0080 C   0  0  0  0  0  0  0  0  0  0  0  0
   56.4640   29.8920   44.3520 S   0  0  0  0  0  0  0  0  0  0  0  0
   55.1440   29.3510   44.8240 O   0  0  0  0  0  0  0  0  0  0  0  0
   56.4870   29.8800   42.8480 O   0  0  0  0  0  0  0  0  0  0  0  0
   56.6420   31.5230   44.9100 N   0  0  0  0  0  0  0  0  0  0  0  0
   57.8140   32.0560   45.5420 C   0  0  0  0  0  0  0  0  0  0  0  0
   58.4130   33.1950   44.9900 C   0  0  0  0  0  0  0  0  0  0  0  0
   59.5590   33.7470   45.5710 C   0  0  0  0  0  0  0  0  0  0  0  0
   60.1210   33.1730   46.7250 C   0  0  0  0  0  0  0  0  0  0  0  0
   61.3150   33.7270   47.3130 N   0  0  0  0  0  0  0  0  0  0  0  0
   61.3210   34.1420   48.7200 C   0  0  0  0  0  0  0  0  0  0  0  0
   62.7560   34.1650   49.2750 C   0  0  0  0  0  0  0  0  0  0  0  0
   63.5720   33.0550   48.7380 N   0  0  0  0  0  0  0  0  0  0  0  0
   63.1070   31.7450   49.2320 C   0  0  0  0  0  0  0  0  0  0  0  0
   63.6920   33.0750   47.2550 C   0  0  0  0  0  0  0  0  0  0  0  0
   62.5610   33.8450   46.5490 C   0  0  0  0  0  0  0  0  0  0  0  0
   59.5260   32.0220   47.2700 C   0  0  0  0  0  0  0  0  0  0  0  0
   58.3810   31.4700   46.6880 C   0  0  0  0  0  0  0  0  0  0  0  0
   59.0800   29.0650   44.5770 C   0  0  0  0  0  0  0  0  0  0  0  0
   60.1040   28.2860   45.1270 C   0  0  0  0  0  0  0  0  0  0  0  0
   60.8774   26.5082   47.7750 H   0  0  0  0  0  0  0  0  0  0  0  0
   60.7855   25.4422   46.3321 H   0  0  0  0  0  0  0  0  0  0  0  0
   61.8877   26.8606   46.3321 H   0  0  0  0  0  0  0  0  0  0  0  0
   58.2489   26.3790   47.2767 H   0  0  0  0  0  0  0  0  0  0  0  0
   56.4259   27.7829   46.3131 H   0  0  0  0  0  0  0  0  0  0  0  0
   57.9787   33.6592   44.0923 H   0  0  0  0  0  0  0  0  0  0  0  0
   60.0242   34.6369   45.1219 H   0  0  0  0  0  0  0  0  0  0  0  0
   60.8865   35.1493   48.8011 H   0  0  0  0  0  0  0  0  0  0  0  0
   60.7281   33.4221   49.3032 H   0  0  0  0  0  0  0  0  0  0  0  0
   63.2286   35.1194   48.9998 H   0  0  0  0  0  0  0  0  0  0  0  0
   62.7011   34.0506   50.3677 H   0  0  0  0  0  0  0  0  0  0  0  0
   63.1076   31.7467   50.3320 H   0  0  0  0  0  0  0  0  0  0  0  0
   62.0869   31.5562   48.8662 H   0  0  0  0  0  0  0  0  0  0  0  0
   63.7797   30.9553   48.8662 H   0  0  0  0  0  0  0  0  0  0  0  0
   64.6499   33.5471   46.9912 H   0  0  0  0  0  0  0  0  0  0  0  0
   63.6287   32.0308   46.9150 H   0  0  0  0  0  0  0  0  0  0  0  0
   62.8389   34.9063   46.4687 H   0  0  0  0  0  0  0  0  0  0  0  0
   62.4088   33.4199   45.5459 H   0  0  0  0  0  0  0  0  0  0  0  0
   59.9651   31.5515   48.1621 H   0  0  0  0  0  0  0  0  0  0  0  0
   57.9213   30.5730   47.1285 H   0  0  0  0  0  0  0  0  0  0  0  0
   59.3134   29.8129   43.8049 H   0  0  0  0  0  0  0  0  0  0  0  0
   61.1399   28.4217   44.7828 H   0  0  0  0  0  0  0  0  0  0  0  0
  1  2  1  0
  2  3  2  0
  3  4  1  0
  4  5  2  0
  5  6  1  0
  6  7  2  0
  6  8  2  0
  6  9  1  0
  9 10  1  0
 10 11  2  0
 11 12  1  0
 12 13  2  0
 13 14  1  0
 14 15  1  0
 15 16  1  0
 16 17  1  0
 17 18  1  0
 17 19  1  0
 19 20  1  0
 13 21  1  0
 21 22  2  0
  5 23  1  0
 23 24  2  0
 24  2  1  0
 22 10  1  0
 20 14  1  0
  1 25  1  0
  1 26  1  0
  1 27  1  0
  3 28  1  0
  4 29  1  0
 11 30  1  0
 12 31  1  0
 15 32  1  0
 15 33  1  0
 16 34  1  0
 16 35  1  0
 18 36  1  0
 18 37  1  0
 18 38  1  0
 19 39  1  0
 19 40  1  0
 20 41  1  0
 20 42  1  0
 21 43  1  0
 22 44  1  0
 23 45  1  0
 24 46  1  0
M  CHG  1   9  -1
M  END
>  <UniqueID>  (86) 
80

>  <SMILES>  (86) 
Cc1ccc(S(=O)(=O)[N-]c2ccc(N3CCN(C)CC3)cc2)cc1

>  <Energy>  (86) 
60.69317228028706

>  <Genealogy>  (86) 
Cc1ccc(S(=O)(=O)[N-]c2ccc(N3CCN(C)CC3)cc2)cc1 (protonated)
Cc1ccc(S(=O)(=O)[N-]c2ccc(N3CCN(C)CC3)cc2)cc1 (3D coordinates assigned)
Cc1ccc(S(=O)(=O)[N-]c2ccc(N3CCN(C)CC3)cc2)cc1 (nonaromatic ring conformer: 60.69317228028706 kcal/mol)

>  <smiles>  (86) 
Cc1ccc(S(=O)(=O)Nc2ccc(N3CCN(C)CC3)cc2)cc1

>  <score_type>  (86) 
oracle

>  <origin>  (86) 
adg

>  <m_score__min__energy>  (86) 
-10.300000000000001

>  <m_primary>  (86) 
energy

$$$$
86:0
     RDKit          3D

 23 24  0  0  0  0  0  0  0  0999 V2000
   55.5930   29.3930   44.8490 O   0  0  0  0  0  0  0  0  0  0  0  0
   56.6260   28.8650   45.3470 C   0  0  0  0  0  0  0  0  0  0  0  0
   57.7620   29.6740   45.6920 N   0  0  0  0  0  0  0  0  0  0  0  0
   57.9270   31.0420   45.2790 C   0  0  0  0  0  0  0  0  0  0  0  0
   57.7110   31.4330   43.9440 C   0  0  0  0  0  0  0  0  0  0  0  0
   57.9020   32.7630   43.5580 C   0  0  0  0  0  0  0  0  0  0  0  0
   58.3190   33.7120   44.4940 C   0  0  0  0  0  0  0  0  0  0  0  0
   58.5560   33.3310   45.8170 C   0  0  0  0  0  0  0  0  0  0  0  0
   58.3690   32.0010   46.2090 C   0  0  0  0  0  0  0  0  0  0  0  0
   58.6010   31.6500   47.4990 F   0  0  0  0  0  0  0  0  0  0  0  0
   56.6440   27.4190   45.6100 C   0  0  0  0  0  0  0  0  0  0  0  0
   57.7420   26.5870   45.5000 C   0  0  0  0  0  0  0  0  0  0  0  0
   57.2920   25.3320   45.8440 C   0  0  0  0  0  0  0  0  0  0  0  0
   55.9520   25.4720   46.1410 C   0  0  0  0  0  0  0  0  0  0  0  0
   55.5950   26.7270   45.9940 O   0  0  0  0  0  0  0  0  0  0  0  0
   58.4700   29.2690   46.3440 H   0  0  0  0  0  0  0  0  0  0  0  0
   57.3903   30.6882   43.2008 H   0  0  0  0  0  0  0  0  0  0  0  0
   57.7235   33.0627   42.5148 H   0  0  0  0  0  0  0  0  0  0  0  0
   58.4608   34.7595   44.1895 H   0  0  0  0  0  0  0  0  0  0  0  0
   58.8903   34.0781   46.5519 H   0  0  0  0  0  0  0  0  0  0  0  0
   58.7622   26.8685   45.2003 H   0  0  0  0  0  0  0  0  0  0  0  0
   57.8822   24.4043   45.8757 H   0  0  0  0  0  0  0  0  0  0  0  0
   55.2839   24.6559   46.4536 H   0  0  0  0  0  0  0  0  0  0  0  0
  1  2  2  0
  2  3  1  0
  3  4  1  0
  4  5  2  0
  5  6  1  0
  6  7  2  0
  7  8  1  0
  8  9  2  0
  9 10  1  0
  2 11  1  0
 11 12  2  0
 12 13  1  0
 13 14  2  0
 14 15  1  0
  9  4  1  0
 15 11  1  0
  3 16  1  0
  5 17  1  0
  6 18  1  0
  7 19  1  0
  8 20  1  0
 12 21  1  0
 13 22  1  0
 14 23  1  0
M  END
>  <UniqueID>  (87) 
81

>  <SMILES>  (87) 
O=C(Nc1ccccc1F)c1ccco1

>  <Energy>  (87) 
52.38936286485354

>  <Genealogy>  (87) 
O=C(Nc1ccccc1F)c1ccco1 (3D coordinates assigned)
O=C(Nc1ccccc1F)c1ccco1 (optimized conformer: 52.38936286485354 kcal/mol)

>  <smiles>  (87) 
O=C(Nc1ccccc1F)c1ccco1

>  <score_type>  (87) 
oracle

>  <origin>  (87) 
adg

>  <m_score__min__energy>  (87) 
-5.6900000000000004

>  <m_primary>  (87) 
energy

$$$$
87:0
     RDKit          3D

 65 70  0  0  0  0  0  0  0  0999 V2000
   57.0020   34.2570   45.1500 C   0  0  0  0  0  0  0  0  0  0  0  0
   58.3860   34.5950   45.1920 O   0  0  0  0  0  0  0  0  0  0  0  0
   59.2420   34.2980   46.2620 C   0  0  0  0  0  0  0  0  0  0  0  0
   58.8950   34.5580   47.6020 C   0  0  0  0  0  0  0  0  0  0  0  0
   59.7800   34.2340   48.6340 C   0  0  0  0  0  0  0  0  0  0  0  0
   61.0170   33.6440   48.3450 C   0  0  0  0  0  0  0  0  0  0  0  0
   61.9380   33.2840   49.4480 C   0  0  0  0  0  0  0  0  0  0  0  0
   62.9270   34.0950   49.6980 N   0  0  0  0  0  0  0  0  0  0  0  0
   64.1260   33.7620   50.8850 S   0  0  0  0  0  0  0  0  0  0  0  0
   65.3870   33.2910   50.2200 O   0  0  0  0  0  0  0  0  0  0  0  0
   64.3890   35.0030   51.6880 O   0  0  0  0  0  0  0  0  0  0  0  0
   63.4880   32.5180   51.9140 C   0  0  0  0  0  0  0  0  0  0  0  0
   64.1040   32.2460   53.1420 C   0  0  0  0  0  0  0  0  0  0  0  0
   63.5920   31.2550   53.9780 C   0  0  0  0  0  0  0  0  0  0  0  0
   62.4610   30.5360   53.5930 C   0  0  0  0  0  0  0  0  0  0  0  0
   61.8450   30.8040   52.3680 C   0  0  0  0  0  0  0  0  0  0  0  0
   62.3560   31.7970   51.4990 C   0  0  0  0  0  0  0  0  0  0  0  0
   61.7280   32.0590   50.2120 N   0  0  0  0  0  0  0  0  0  0  0  0
   60.8310   31.0690   49.6770 C   0  0  0  0  0  0  0  0  0  0  0  0
   59.4330   31.2070   49.8440 C   0  0  0  0  0  0  0  0  0  0  0  0
   58.5530   30.2440   49.3220 C   0  0  0  0  0  0  0  0  0  0  0  0
   59.0860   29.1480   48.6490 C   0  0  0  0  0  0  0  0  0  0  0  0
   58.3420   28.1410   48.1270 N   0  0  0  0  0  0  0  0  0  0  0  0
   59.1370   27.1940   47.5730 C   0  0  0  0  0  0  0  0  0  0  0  0
   58.4940   25.7080   46.8110 S   0  0  0  0  0  0  0  0  0  0  0  0
   57.7490   26.5700   45.3780 C   0  0  0  0  0  0  0  0  0  0  0  0
   56.5590   27.4120   45.7410 C   0  0  0  0  0  0  0  0  0  0  0  0
   55.4370   26.8570   45.8780 O   0  0  0  0  0  0  0  0  0  0  0  0
   56.6730   28.8330   45.8570 N   0  0  0  0  0  0  0  0  0  0  0  0
   56.9440   29.7360   44.7760 C   0  0  0  0  0  0  0  0  0  0  0  0
   56.1700   29.6090   43.6140 C   0  0  0  0  0  0  0  0  0  0  0  0
   56.3750   30.4560   42.5260 C   0  0  0  0  0  0  0  0  0  0  0  0
   57.3690   31.4350   42.5800 C   0  0  0  0  0  0  0  0  0  0  0  0
   58.1700   31.5560   43.7190 C   0  0  0  0  0  0  0  0  0  0  0  0
   57.9900   30.6980   44.8180 C   0  0  0  0  0  0  0  0  0  0  0  0
   58.9250   30.8400   45.9910 C   0  0  0  0  0  0  0  0  0  0  0  0
   60.7830   27.5760   47.6910 S   0  0  0  0  0  0  0  0  0  0  0  0
   60.4560   29.0080   48.5010 C   0  0  0  0  0  0  0  0  0  0  0  0
   61.3510   29.9490   49.0010 C   0  0  0  0  0  0  0  0  0  0  0  0
   61.3740   33.4040   47.0110 C   0  0  0  0  0  0  0  0  0  0  0  0
   60.4870   33.7220   45.9790 C   0  0  0  0  0  0  0  0  0  0  0  0
   56.6163   34.1628   46.1758 H   0  0  0  0  0  0  0  0  0  0  0  0
   56.4477   35.0462   44.6209 H   0  0  0  0  0  0  0  0  0  0  0  0
   56.8739   33.3012   44.6209 H   0  0  0  0  0  0  0  0  0  0  0  0
   57.9238   35.0178   47.8372 H   0  0  0  0  0  0  0  0  0  0  0  0
   59.5038   34.4433   49.6780 H   0  0  0  0  0  0  0  0  0  0  0  0
   63.0470   34.9680   49.1350 H   0  0  0  0  0  0  0  0  0  0  0  0
   64.9940   32.8157   53.4475 H   0  0  0  0  0  0  0  0  0  0  0  0
   64.0796   31.0404   54.9404 H   0  0  0  0  0  0  0  0  0  0  0  0
   62.0535   29.7572   54.2543 H   0  0  0  0  0  0  0  0  0  0  0  0
   60.9503   30.2351   52.0749 H   0  0  0  0  0  0  0  0  0  0  0  0
   59.0316   32.0754   50.3870 H   0  0  0  0  0  0  0  0  0  0  0  0
   57.4652   30.3538   49.4426 H   0  0  0  0  0  0  0  0  0  0  0  0
   58.5125   27.2212   44.9273 H   0  0  0  0  0  0  0  0  0  0  0  0
   57.3982   25.7958   44.6798 H   0  0  0  0  0  0  0  0  0  0  0  0
   55.3926   28.8326   43.5602 H   0  0  0  0  0  0  0  0  0  0  0  0
   55.7533   30.3530   41.6244 H   0  0  0  0  0  0  0  0  0  0  0  0
   57.5218   32.1112   41.7260 H   0  0  0  0  0  0  0  0  0  0  0  0
   58.9497   32.3310   43.7559 H   0  0  0  0  0  0  0  0  0  0  0  0
   58.3543   30.7533   46.9274 H   0  0  0  0  0  0  0  0  0  0  0  0
   59.6865   30.0472   45.9510 H   0  0  0  0  0  0  0  0  0  0  0  0
   59.4168   31.8231   45.9510 H   0  0  0  0  0  0  0  0  0  0  0  0
   62.4358   29.8211   48.8715 H   0  0  0  0  0  0  0  0  0  0  0  0
   62.3545   32.9644   46.7759 H   0  0  0  0  0  0  0  0  0  0  0  0
   60.7690   33.5182   44.9355 H   0  0  0  0  0  0  0  0  0  0  0  0
  1  2  1  0
  2  3  1  0
  3  4  2  0
  4  5  1  0
  5  6  2  0
  6  7  1  0
  7  8  2  0
  8  9  1  0
  9 10  2  0
  9 11  2  0
  9 12  1  0
 12 13  2  0
 13 14  1  0
 14 15  2  0
 15 16  1  0
 16 17  2  0
 17 18  1  0
 18 19  1  0
 19 20  2  0
 20 21  1  0
 21 22  2  0
 22 23  1  0
 23 24  2  0
 24 25  1  0
 25 26  1  0
 26 27  1  0
 27 28  2  0
 27 29  1  0
 29 30  1  0
 30 31  2  0
 31 32  1  0
 32 33  2  0
 33 34  1  0
 34 35  2  0
 35 36  1  0
 24 37  1  0
 37 38  1  0
 38 39  2  0
  6 40  1  0
 40 41  2  0
 41  3  1  0
 18  7  1  0
 39 19  1  0
 17 12  1  0
 38 22  1  0
 35 30  1  0
  1 42  1  0
  1 43  1  0
  1 44  1  0
  4 45  1  0
  5 46  1  0
  8 47  1  0
 13 48  1  0
 14 49  1  0
 15 50  1  0
 16 51  1  0
 20 52  1  0
 21 53  1  0
 26 54  1  0
 26 55  1  0
 31 56  1  0
 32 57  1  0
 33 58  1  0
 34 59  1  0
 36 60  1  0
 36 61  1  0
 36 62  1  0
 39 63  1  0
 40 64  1  0
 41 65  1  0
M  CHG  2   8   1  29  -1
M  END
>  <UniqueID>  (88) 
82

>  <SMILES>  (88) 
COc1ccc(C2=[NH+]S(=O)(=O)c3ccccc3N2c2ccc3nc(SCC(=O)[N-]c4ccccc4C)sc3c2)cc1

>  <Energy>  (88) 
130.95018298489117

>  <Genealogy>  (88) 
COc1ccc(C2=[NH+]S(=O)(=O)c3ccccc3N2c2ccc3nc(SCC(=O)[N-]c4ccccc4C)sc3c2)cc1 (protonated)
COc1ccc(C2=[NH+]S(=O)(=O)c3ccccc3N2c2ccc3nc(SCC(=O)[N-]c4ccccc4C)sc3c2)cc1 (3D coordinates assigned)
COc1ccc(C2=[NH+]S(=O)(=O)c3ccccc3N2c2ccc3nc(SCC(=O)[N-]c4ccccc4C)sc3c2)cc1 (nonaromatic ring conformer: 130.95018298489117 kcal/mol)

>  <smiles>  (88) 
COc1ccc(C2=NS(=O)(=O)c3ccccc3N2c2ccc3nc(SCC(=O)Nc4ccccc4C)sc3c2)cc1

>  <score_type>  (88) 
oracle

>  <origin>  (88) 
adg

>  <m_score__min__energy>  (88) 
-11.220000000000001

>  <m_primary>  (88) 
energy

$$$$
88:0
     RDKit          3D

 46 49  0  0  0  0  0  0  0  0999 V2000
   57.4205   31.9026   42.3314 H   0  0  0  0  0  0  0  0  0  0  0  0
   57.1790   31.2230   43.1620 C   0  0  0  0  0  0  0  0  0  0  0  0
   56.3460   29.7660   43.0330 S   0  0  0  0  0  0  0  0  0  0  0  0
   56.4520   29.4440   44.6730 C   0  0  0  0  0  0  0  0  0  0  0  0
   55.9280   28.3970   45.2390 N   0  0  0  0  0  0  0  0  0  0  0  0
   56.6430   27.2970   45.8270 C   0  0  0  0  0  0  0  0  0  0  0  0
   57.9700   27.4980   46.2300 C   0  0  0  0  0  0  0  0  0  0  0  0
   58.4439   28.4791   46.0786 H   0  0  0  0  0  0  0  0  0  0  0  0
   58.6960   26.4610   46.8230 C   0  0  0  0  0  0  0  0  0  0  0  0
   59.7422   26.6235   47.1215 H   0  0  0  0  0  0  0  0  0  0  0  0
   58.0940   25.2180   47.0370 C   0  0  0  0  0  0  0  0  0  0  0  0
   58.6688   24.3995   47.4949 H   0  0  0  0  0  0  0  0  0  0  0  0
   56.7620   25.0160   46.6690 C   0  0  0  0  0  0  0  0  0  0  0  0
   56.2860   24.0403   46.8463 H   0  0  0  0  0  0  0  0  0  0  0  0
   56.0320   26.0500   46.0760 C   0  0  0  0  0  0  0  0  0  0  0  0
   54.9784   25.8910   45.8028 H   0  0  0  0  0  0  0  0  0  0  0  0
   57.0950   30.4260   45.3380 N   0  0  0  0  0  0  0  0  0  0  0  0
   57.5120   31.4220   44.5080 C   0  0  0  0  0  0  0  0  0  0  0  0
   58.2650   32.5930   45.0330 C   0  0  0  0  0  0  0  0  0  0  0  0
   58.1130   33.8800   44.4820 C   0  0  0  0  0  0  0  0  0  0  0  0
   57.4288   34.0331   43.6344 H   0  0  0  0  0  0  0  0  0  0  0  0
   58.8240   34.9640   45.0030 C   0  0  0  0  0  0  0  0  0  0  0  0
   58.6939   35.9655   44.5671 H   0  0  0  0  0  0  0  0  0  0  0  0
   59.6990   34.7800   46.0750 C   0  0  0  0  0  0  0  0  0  0  0  0
   60.2475   35.6402   46.4864 H   0  0  0  0  0  0  0  0  0  0  0  0
   59.8830   33.5080   46.6300 C   0  0  0  0  0  0  0  0  0  0  0  0
   60.7740   33.3460   47.7470 N   0  0  0  0  0  0  0  0  0  0  0  0
   60.3640   33.3630   48.7080 H   0  0  0  0  0  0  0  0  0  0  0  0
   62.2060   33.2980   47.6240 C   0  0  0  0  0  0  0  0  0  0  0  0
   62.7650   33.8470   46.6340 O   0  0  0  0  0  0  0  0  0  0  0  0
   63.0390   32.6530   48.6670 C   0  0  0  0  0  0  0  0  0  0  0  0
   62.5100   31.6120   49.4520 C   0  0  0  0  0  0  0  0  0  0  0  0
   61.4794   31.2681   49.2801 H   0  0  0  0  0  0  0  0  0  0  0  0
   63.2840   31.0120   50.4480 C   0  0  0  0  0  0  0  0  0  0  0  0
   62.8607   30.1981   51.0550 H   0  0  0  0  0  0  0  0  0  0  0  0
   64.5920   31.4410   50.6760 C   0  0  0  0  0  0  0  0  0  0  0  0
   65.1941   30.9692   51.4665 H   0  0  0  0  0  0  0  0  0  0  0  0
   65.1410   32.4720   49.9000 C   0  0  0  0  0  0  0  0  0  0  0  0
   66.5290   32.9670   50.1780 C   0  0  0  0  0  0  0  0  0  0  0  0
   66.6873   33.0234   51.2651 H   0  0  0  0  0  0  0  0  0  0  0  0
   67.2606   32.2744   49.7364 H   0  0  0  0  0  0  0  0  0  0  0  0
   66.6572   33.9663   49.7364 H   0  0  0  0  0  0  0  0  0  0  0  0
   64.3570   33.0860   48.9110 C   0  0  0  0  0  0  0  0  0  0  0  0
   64.7761   33.9139   48.3203 H   0  0  0  0  0  0  0  0  0  0  0  0
   59.1480   32.4240   46.1180 C   0  0  0  0  0  0  0  0  0  0  0  0
   59.2642   31.4286   46.5716 H   0  0  0  0  0  0  0  0  0  0  0  0
  1  2  1  0
  2  3  1  0
  3  4  1  0
  4  5  2  0
  5  6  1  0
  6  7  2  0
  7  8  1  0
  7  9  1  0
  9 10  1  0
  9 11  2  0
 11 12  1  0
 11 13  1  0
 13 14  1  0
 13 15  2  0
 15 16  1  0
  4 17  1  0
 17 18  1  0
 18 19  1  0
 19 20  2  0
 20 21  1  0
 20 22  1  0
 22 23  1  0
 22 24  2  0
 24 25  1  0
 24 26  1  0
 26 27  1  0
 27 28  1  0
 27 29  1  0
 29 30  2  0
 29 31  1  0
 31 32  2  0
 32 33  1  0
 32 34  1  0
 34 35  1  0
 34 36  2  0
 36 37  1  0
 36 38  1  0
 38 39  1  0
 39 40  1  0
 39 41  1  0
 39 42  1  0
 38 43  2  0
 43 44  1  0
 26 45  2  0
 45 46  1  0
 18  2  2  0
 45 19  1  0
 15  6  1  0
 43 31  1  0
M  CHG  1  17  -1
M  END
>  <UniqueID>  (89) 
83

>  <SMILES>  (89) 
Cc1cccc(C(=O)Nc2cccc(-c3cs/c(=N/c4ccccc4)[n-]3)c2)c1

>  <Energy>  (89) 
92.72881762266545

>  <Genealogy>  (89) 
Cc1cccc(C(=O)Nc2cccc(-c3csc(=Nc4ccccc4)[n-]3)c2)c1 (protonated)
Cc1cccc(C(=O)Nc2cccc(-c3cs/c(=N/c4ccccc4)[n-]3)c2)c1 (cis-trans isomerization)
Cc1cccc(C(=O)Nc2cccc(-c3cs/c(=N/c4ccccc4)[n-]3)c2)c1 (3D coordinates assigned)
Cc1cccc(C(=O)Nc2cccc(-c3cs/c(=N/c4ccccc4)[n-]3)c2)c1 (optimized conformer: 92.72881762266545 kcal/mol)

>  <smiles>  (89) 
Cc1cccc(C(=O)Nc2cccc(-c3csc(=Nc4ccccc4)[nH]3)c2)c1

>  <score_type>  (89) 
oracle

>  <origin>  (89) 
adg

>  <m_score__min__energy>  (89) 
-11.529999999999999

>  <m_primary>  (89) 
energy

$$$$
89:0
     RDKit          3D

 39 41  0  0  0  0  0  0  0  0999 V2000
   63.1990   33.6720   47.0000 C   0  0  0  0  0  0  0  0  0  0  0  0
   61.6370   32.8710   47.2920 S   0  0  0  0  0  0  0  0  0  0  0  0
   61.1950   33.1830   48.6940 O   0  0  0  0  0  0  0  0  0  0  0  0
   61.7740   31.3800   47.1530 O   0  0  0  0  0  0  0  0  0  0  0  0
   60.4400   33.4660   46.1840 N   0  0  0  0  0  0  0  0  0  0  0  0
   59.2960   32.7140   45.7380 C   0  0  0  0  0  0  0  0  0  0  0  0
   58.2500   33.3110   45.0130 C   0  0  0  0  0  0  0  0  0  0  0  0
   57.1580   32.5510   44.5920 C   0  0  0  0  0  0  0  0  0  0  0  0
   57.0900   31.1870   44.8850 C   0  0  0  0  0  0  0  0  0  0  0  0
   56.0230   30.4660   44.4620 N   0  0  0  0  0  0  0  0  0  0  0  0
   55.8920   29.1470   44.7390 C   0  0  0  0  0  0  0  0  0  0  0  0
   56.8680   28.4690   45.4840 C   0  0  0  0  0  0  0  0  0  0  0  0
   56.5080   27.1260   45.9850 C   0  0  0  0  0  0  0  0  0  0  0  0
   55.1460   26.7060   46.0040 N   0  0  0  0  0  0  0  0  0  0  0  0
   57.4130   26.3210   46.3350 O   0  0  0  0  0  0  0  0  0  0  0  0
   58.0560   29.1670   45.8590 C   0  0  0  0  0  0  0  0  0  0  0  0
   59.1020   28.5840   46.3950 N   0  0  0  0  0  0  0  0  0  0  0  0
   59.5010   28.4950   47.7690 C   0  0  0  0  0  0  0  0  0  0  0  0
   60.3060   27.4350   48.2220 C   0  0  0  0  0  0  0  0  0  0  0  0
   60.7340   27.3970   49.5510 C   0  0  0  0  0  0  0  0  0  0  0  0
   60.3880   28.4280   50.4290 C   0  0  0  0  0  0  0  0  0  0  0  0
   59.6220   29.5070   49.9740 C   0  0  0  0  0  0  0  0  0  0  0  0
   59.1690   30.9270   51.1660 Br  0  0  0  0  0  0  0  0  0  0  0  0
   59.1930   29.5470   48.6420 C   0  0  0  0  0  0  0  0  0  0  0  0
   58.1290   30.5610   45.6080 C   0  0  0  0  0  0  0  0  0  0  0  0
   59.2320   31.3400   46.0210 C   0  0  0  0  0  0  0  0  0  0  0  0
   63.6723   33.9147   47.9629 H   0  0  0  0  0  0  0  0  0  0  0  0
   63.8550   32.9990   46.4283 H   0  0  0  0  0  0  0  0  0  0  0  0
   63.0353   34.5974   46.4283 H   0  0  0  0  0  0  0  0  0  0  0  0
   60.6170   34.4090   45.7700 H   0  0  0  0  0  0  0  0  0  0  0  0
   58.2926   34.3843   44.7760 H   0  0  0  0  0  0  0  0  0  0  0  0
   56.3453   33.0293   44.0256 H   0  0  0  0  0  0  0  0  0  0  0  0
   55.0093   28.6006   44.3753 H   0  0  0  0  0  0  0  0  0  0  0  0
   54.4800   27.0780   46.7170 H   0  0  0  0  0  0  0  0  0  0  0  0
   60.5995   26.6336   47.5280 H   0  0  0  0  0  0  0  0  0  0  0  0
   61.3445   26.5542   49.9073 H   0  0  0  0  0  0  0  0  0  0  0  0
   60.7179   28.3912   51.4777 H   0  0  0  0  0  0  0  0  0  0  0  0
   58.6119   30.4076   48.2792 H   0  0  0  0  0  0  0  0  0  0  0  0
   60.0547   30.8627   46.5735 H   0  0  0  0  0  0  0  0  0  0  0  0
  1  2  1  0
  2  3  2  0
  2  4  2  0
  2  5  1  0
  5  6  1  0
  6  7  2  0
  7  8  1  0
  8  9  2  0
  9 10  1  0
 10 11  1  0
 11 12  2  0
 12 13  1  0
 13 14  1  0
 13 15  2  0
 12 16  1  0
 16 17  2  3
 17 18  1  0
 18 19  2  0
 19 20  1  0
 20 21  2  0
 21 22  1  0
 22 23  1  0
 22 24  2  0
 16 25  1  0
 25 26  2  0
 26  6  1  0
 25  9  1  0
 24 18  1  0
  1 27  1  0
  1 28  1  0
  1 29  1  0
  5 30  1  0
  7 31  1  0
  8 32  1  0
 11 33  1  0
 14 34  1  0
 19 35  1  0
 20 36  1  0
 21 37  1  0
 24 38  1  0
 26 39  1  0
M  CHG  2  10  -1  14  -1
M  END
>  <UniqueID>  (90) 
84

>  <SMILES>  (90) 
CS(=O)(=O)Nc1ccc2[n-]cc(C([NH-])=O)c(=Nc3cccc(Br)c3)c2c1

>  <Energy>  (90) 
66.30649894628723

>  <Genealogy>  (90) 
CS(=O)(=O)Nc1ccc2[n-]cc(C([NH-])=O)c(=Nc3cccc(Br)c3)c2c1 (protonated)
CS(=O)(=O)Nc1ccc2[n-]cc(C([NH-])=O)c(=Nc3cccc(Br)c3)c2c1 (3D coordinates assigned)
CS(=O)(=O)Nc1ccc2[n-]cc(C([NH-])=O)c(=Nc3cccc(Br)c3)c2c1 (optimized conformer: 66.30649894628723 kcal/mol)

>  <smiles>  (90) 
CS(=O)(=O)Nc1ccc2[nH]cc(C(N)=O)c(=Nc3cccc(Br)c3)c2c1

>  <score_type>  (90) 
oracle

>  <origin>  (90) 
adg

>  <m_score__min__energy>  (90) 
-12.5

>  <m_primary>  (90) 
energy

$$$$
90:0
     RDKit          3D

 39 41  0  0  0  0  0  0  0  0999 V2000
   63.5530   31.5270   49.5940 C   0  0  0  0  0  0  0  0  0  0  0  0
   63.0120   32.3790   48.4780 C   0  0  0  0  0  0  0  0  0  0  0  0
   63.8850   33.1030   47.6590 C   0  0  0  0  0  0  0  0  0  0  0  0
   63.3810   33.8970   46.6360 C   0  0  0  0  0  0  0  0  0  0  0  0
   62.0040   33.9680   46.4300 C   0  0  0  0  0  0  0  0  0  0  0  0
   61.1370   33.2650   47.2280 N   0  0  0  0  0  0  0  0  0  0  0  0
   59.7810   33.3420   47.0220 C   0  0  0  0  0  0  0  0  0  0  0  0
   59.3010   34.0540   46.0960 O   0  0  0  0  0  0  0  0  0  0  0  0
   58.9030   32.6300   47.8410 C   0  0  0  0  0  0  0  0  0  0  0  0
   59.4230   31.8500   48.8710 C   0  0  0  0  0  0  0  0  0  0  0  0
   58.5110   31.0570   49.7660 C   0  0  0  0  0  0  0  0  0  0  0  0
   58.6480   29.6550   49.5300 O   0  0  0  0  0  0  0  0  0  0  0  0
   58.9030   29.0650   48.2800 C   0  0  0  0  0  0  0  0  0  0  0  0
   59.6370   27.8750   48.2490 C   0  0  0  0  0  0  0  0  0  0  0  0
   59.9060   27.2410   47.0330 C   0  0  0  0  0  0  0  0  0  0  0  0
   59.4440   27.7910   45.8360 C   0  0  0  0  0  0  0  0  0  0  0  0
   58.7080   28.9890   45.8480 C   0  0  0  0  0  0  0  0  0  0  0  0
   58.2130   29.5920   44.6430 N   0  0  0  0  0  0  0  0  0  0  0  0
   56.5610   30.0260   44.3510 S   0  0  0  0  0  0  0  0  0  0  0  0
   55.5300   28.9200   45.1880 N   0  0  0  0  0  0  0  0  0  0  0  0
   56.2670   29.9500   42.8790 O   0  0  0  0  0  0  0  0  0  0  0  0
   56.3010   31.4180   44.8540 O   0  0  0  0  0  0  0  0  0  0  0  0
   58.4430   29.6210   47.0700 C   0  0  0  0  0  0  0  0  0  0  0  0
   60.7660   31.7780   49.0390 N   0  0  0  0  0  0  0  0  0  0  0  0
   61.6260   32.4730   48.2460 C   0  0  0  0  0  0  0  0  0  0  0  0
   63.2725   31.9687   50.5616 H   0  0  0  0  0  0  0  0  0  0  0  0
   63.1328   30.5133   49.5181 H   0  0  0  0  0  0  0  0  0  0  0  0
   64.6492   31.4761   49.5181 H   0  0  0  0  0  0  0  0  0  0  0  0
   64.9708   33.0437   47.8249 H   0  0  0  0  0  0  0  0  0  0  0  0
   64.0659   34.4673   45.9912 H   0  0  0  0  0  0  0  0  0  0  0  0
   61.6078   34.5952   45.6179 H   0  0  0  0  0  0  0  0  0  0  0  0
   57.8169   32.6842   47.6754 H   0  0  0  0  0  0  0  0  0  0  0  0
   58.7629   31.2707   50.8152 H   0  0  0  0  0  0  0  0  0  0  0  0
   57.4721   31.3470   49.5502 H   0  0  0  0  0  0  0  0  0  0  0  0
   60.0049   27.4352   49.1877 H   0  0  0  0  0  0  0  0  0  0  0  0
   60.4839   26.3051   47.0190 H   0  0  0  0  0  0  0  0  0  0  0  0
   59.6561   27.2864   44.8819 H   0  0  0  0  0  0  0  0  0  0  0  0
   54.5780   29.3480   45.2100 H   0  0  0  0  0  0  0  0  0  0  0  0
   57.8704   30.5601   47.0848 H   0  0  0  0  0  0  0  0  0  0  0  0
  1  2  1  0
  2  3  2  0
  3  4  1  0
  4  5  2  0
  5  6  1  0
  6  7  1  0
  7  8  2  0
  7  9  1  0
  9 10  2  0
 10 11  1  0
 11 12  1  0
 12 13  1  0
 13 14  2  0
 14 15  1  0
 15 16  2  0
 16 17  1  0
 17 18  1  0
 18 19  1  0
 19 20  1  0
 19 21  2  0
 19 22  2  0
 17 23  2  0
 10 24  1  0
 24 25  2  0
 25  2  1  0
 25  6  1  0
 23 13  1  0
  1 26  1  0
  1 27  1  0
  1 28  1  0
  3 29  1  0
  4 30  1  0
  5 31  1  0
  9 32  1  0
 11 33  1  0
 11 34  1  0
 14 35  1  0
 15 36  1  0
 16 37  1  0
 20 38  1  0
 23 39  1  0
M  CHG  2  18  -1  20  -1
M  END
>  <UniqueID>  (91) 
85

>  <SMILES>  (91) 
Cc1cccn2c(=O)cc(COc3cccc([N-]S([NH-])(=O)=O)c3)nc12

>  <Energy>  (91) 
47.34000505072322

>  <Genealogy>  (91) 
Cc1cccn2c(=O)cc(COc3cccc([N-]S([NH-])(=O)=O)c3)nc12 (protonated)
Cc1cccn2c(=O)cc(COc3cccc([N-]S([NH-])(=O)=O)c3)nc12 (3D coordinates assigned)
Cc1cccn2c(=O)cc(COc3cccc([N-]S([NH-])(=O)=O)c3)nc12 (optimized conformer: 47.34000505072322 kcal/mol)

>  <smiles>  (91) 
Cc1cccn2c(=O)cc(COc3cccc(NS(N)(=O)=O)c3)nc12

>  <score_type>  (91) 
oracle

>  <origin>  (91) 
adg

>  <m_score__min__energy>  (91) 
-12.960000000000001

>  <m_primary>  (91) 
energy

$$$$
91:0
     RDKit          3D

 45 49  0  0  0  0  0  0  0  0999 V2000
   58.7660   30.8150   49.0480 O   0  0  0  0  0  0  0  0  0  0  0  0
   59.4500   30.3460   48.1000 C   0  0  0  0  0  0  0  0  0  0  0  0
   60.8810   30.3490   48.2120 N   0  0  0  0  0  0  0  0  0  0  0  0
   61.7480   31.4690   47.9790 C   0  0  0  0  0  0  0  0  0  0  0  0
   61.4940   32.3980   46.9530 C   0  0  0  0  0  0  0  0  0  0  0  0
   62.3600   33.4770   46.7520 C   0  0  0  0  0  0  0  0  0  0  0  0
   63.4710   33.6480   47.5820 C   0  0  0  0  0  0  0  0  0  0  0  0
   63.7130   32.7450   48.6190 C   0  0  0  0  0  0  0  0  0  0  0  0
   62.8500   31.6630   48.8250 C   0  0  0  0  0  0  0  0  0  0  0  0
   63.0980   30.7900   49.8330 F   0  0  0  0  0  0  0  0  0  0  0  0
   58.7540   29.8010   46.9110 C   0  0  0  0  0  0  0  0  0  0  0  0
   58.4900   28.4230   46.8750 C   0  0  0  0  0  0  0  0  0  0  0  0
   57.7580   27.8710   45.8150 C   0  0  0  0  0  0  0  0  0  0  0  0
   57.4510   26.4230   45.7580 C   0  0  0  0  0  0  0  0  0  0  0  0
   58.4870   25.5080   45.5150 C   0  0  0  0  0  0  0  0  0  0  0  0
   58.2080   24.1400   45.4630 C   0  0  0  0  0  0  0  0  0  0  0  0
   59.2190   23.1940   45.2380 C   0  0  0  0  0  0  0  0  0  0  0  0
   58.9020   21.8320   45.1960 C   0  0  0  0  0  0  0  0  0  0  0  0
   57.5800   21.4120   45.3790 C   0  0  0  0  0  0  0  0  0  0  0  0
   56.5680   22.3520   45.6020 C   0  0  0  0  0  0  0  0  0  0  0  0
   56.8760   23.7170   45.6460 C   0  0  0  0  0  0  0  0  0  0  0  0
   55.9120   24.6080   45.8530 O   0  0  0  0  0  0  0  0  0  0  0  0
   56.1400   25.9170   45.9090 C   0  0  0  0  0  0  0  0  0  0  0  0
   55.1650   26.6970   46.0720 O   0  0  0  0  0  0  0  0  0  0  0  0
   57.3420   28.6770   44.8010 N   0  0  0  0  0  0  0  0  0  0  0  0
   57.6000   30.0100   44.7780 C   0  0  0  0  0  0  0  0  0  0  0  0
   57.1490   30.7790   43.6990 C   0  0  0  0  0  0  0  0  0  0  0  0
   57.4300   32.1460   43.6460 C   0  0  0  0  0  0  0  0  0  0  0  0
   58.1730   32.7470   44.6630 C   0  0  0  0  0  0  0  0  0  0  0  0
   58.6290   31.9900   45.7440 C   0  0  0  0  0  0  0  0  0  0  0  0
   58.3290   30.6130   45.8310 C   0  0  0  0  0  0  0  0  0  0  0  0
   60.6119   32.2749   46.3075 H   0  0  0  0  0  0  0  0  0  0  0  0
   62.1665   34.1925   45.9392 H   0  0  0  0  0  0  0  0  0  0  0  0
   64.1548   34.4939   47.4184 H   0  0  0  0  0  0  0  0  0  0  0  0
   64.5843   32.8845   49.2758 H   0  0  0  0  0  0  0  0  0  0  0  0
   58.8592   27.7734   47.6823 H   0  0  0  0  0  0  0  0  0  0  0  0
   59.5160   25.8670   45.3659 H   0  0  0  0  0  0  0  0  0  0  0  0
   60.2590   23.5224   45.0949 H   0  0  0  0  0  0  0  0  0  0  0  0
   59.6940   21.0895   45.0187 H   0  0  0  0  0  0  0  0  0  0  0  0
   57.3357   20.3399   45.3475 H   0  0  0  0  0  0  0  0  0  0  0  0
   55.5294   22.0182   45.7429 H   0  0  0  0  0  0  0  0  0  0  0  0
   56.5719   30.3056   42.8910 H   0  0  0  0  0  0  0  0  0  0  0  0
   57.0653   32.7496   42.8018 H   0  0  0  0  0  0  0  0  0  0  0  0
   58.4005   33.8221   44.6128 H   0  0  0  0  0  0  0  0  0  0  0  0
   59.2262   32.4698   46.5334 H   0  0  0  0  0  0  0  0  0  0  0  0
  1  2  2  0
  2  3  1  0
  3  4  1  0
  4  5  2  0
  5  6  1  0
  6  7  2  0
  7  8  1  0
  8  9  2  0
  9 10  1  0
  2 11  1  0
 11 12  2  0
 12 13  1  0
 13 14  1  0
 14 15  2  0
 15 16  1  0
 16 17  2  0
 17 18  1  0
 18 19  2  0
 19 20  1  0
 20 21  2  0
 21 22  1  0
 22 23  1  0
 23 24  2  0
 13 25  2  0
 25 26  1  0
 26 27  2  0
 27 28  1  0
 28 29  2  0
 29 30  1  0
 30 31  2  0
  9  4  1  0
 31 11  1  0
 23 14  1  0
 31 26  1  0
 21 16  1  0
  5 32  1  0
  6 33  1  0
  7 34  1  0
  8 35  1  0
 12 36  1  0
 15 37  1  0
 17 38  1  0
 18 39  1  0
 19 40  1  0
 20 41  1  0
 27 42  1  0
 28 43  1  0
 29 44  1  0
 30 45  1  0
M  CHG  1   3  -1
M  END
>  <UniqueID>  (92) 
86

>  <SMILES>  (92) 
O=C([N-]c1ccccc1F)c1cc(-c2cc3ccccc3oc2=O)nc2ccccc12

>  <Energy>  (92) 
75.61289546124455

>  <Genealogy>  (92) 
O=C([N-]c1ccccc1F)c1cc(-c2cc3ccccc3oc2=O)nc2ccccc12 (protonated)
O=C([N-]c1ccccc1F)c1cc(-c2cc3ccccc3oc2=O)nc2ccccc12 (3D coordinates assigned)
O=C([N-]c1ccccc1F)c1cc(-c2cc3ccccc3oc2=O)nc2ccccc12 (optimized conformer: 75.61289546124455 kcal/mol)

>  <smiles>  (92) 
O=C(Nc1ccccc1F)c1cc(-c2cc3ccccc3oc2=O)nc2ccccc12

>  <score_type>  (92) 
oracle

>  <origin>  (92) 
adg

>  <m_score__min__energy>  (92) 
-10.84

>  <m_primary>  (92) 
energy

$$$$
92:0
     RDKit          3D

 52 54  0  0  0  0  0  0  0  0999 V2000
   56.3330   29.3540   42.2440 C   0  0  0  0  0  0  0  0  0  0  0  0
   56.8070   30.6130   42.8240 N   0  0  0  0  0  0  0  0  0  0  0  0
   57.3660   31.6580   41.9600 C   0  0  0  0  0  0  0  0  0  0  0  0
   56.5760   30.8700   44.2250 C   0  0  0  0  0  0  0  0  0  0  0  0
   55.6090   30.3090   44.8080 O   0  0  0  0  0  0  0  0  0  0  0  0
   57.4410   31.7830   45.0010 C   0  0  0  0  0  0  0  0  0  0  0  0
   56.9590   33.0250   45.4420 C   0  0  0  0  0  0  0  0  0  0  0  0
   57.7880   33.8910   46.1610 C   0  0  0  0  0  0  0  0  0  0  0  0
   59.1200   33.5400   46.4330 C   0  0  0  0  0  0  0  0  0  0  0  0
   60.0010   34.4450   47.2060 C   0  0  0  0  0  0  0  0  0  0  0  0
   59.9170   35.6900   47.0210 O   0  0  0  0  0  0  0  0  0  0  0  0
   60.9590   33.9360   48.1550 N   0  0  0  0  0  0  0  0  0  0  0  0
   62.3860   33.8420   47.8270 C   0  0  0  0  0  0  0  0  0  0  0  0
   62.8560   32.3910   47.9590 C   0  0  0  0  0  0  0  0  0  0  0  0
   62.4610   31.7940   49.3200 C   0  0  0  0  0  0  0  0  0  0  0  0
   60.9630   31.9700   49.6570 C   0  0  2  0  0  0  0  0  0  0  0  0
   60.0750   31.0230   48.8710 C   0  0  0  0  0  0  0  0  0  0  0  0
   58.8310   31.2140   48.8410 O   0  0  0  0  0  0  0  0  0  0  0  0
   60.5940   29.8330   48.2620 N   0  0  0  0  0  0  0  0  0  0  0  0
   60.0430   29.1320   47.1390 C   0  0  0  0  0  0  0  0  0  0  0  0
   58.7240   28.6650   47.2130 C   0  0  0  0  0  0  0  0  0  0  0  0
   58.1460   28.0060   46.1230 C   0  0  0  0  0  0  0  0  0  0  0  0
   58.8780   27.8250   44.9450 C   0  0  0  0  0  0  0  0  0  0  0  0
   58.1520   27.0000   43.5770 Cl  0  0  0  0  0  0  0  0  0  0  0  0
   60.1850   28.3150   44.8540 C   0  0  0  0  0  0  0  0  0  0  0  0
   60.7640   28.9740   45.9430 C   0  0  0  0  0  0  0  0  0  0  0  0
   60.5210   33.4330   49.4610 C   0  0  0  0  0  0  0  0  0  0  0  0
   59.6020   32.2980   45.9860 C   0  0  0  0  0  0  0  0  0  0  0  0
   58.7740   31.4330   45.2660 C   0  0  0  0  0  0  0  0  0  0  0  0
   56.0697   28.6546   43.0512 H   0  0  0  0  0  0  0  0  0  0  0  0
   55.4462   29.5475   41.6227 H   0  0  0  0  0  0  0  0  0  0  0  0
   57.1272   28.9146   41.6227 H   0  0  0  0  0  0  0  0  0  0  0  0
   57.7939   32.4580   42.5820 H   0  0  0  0  0  0  0  0  0  0  0  0
   58.1536   31.2263   41.3250 H   0  0  0  0  0  0  0  0  0  0  0  0
   56.5697   32.0735   41.3250 H   0  0  0  0  0  0  0  0  0  0  0  0
   55.9224   33.3189   45.2205 H   0  0  0  0  0  0  0  0  0  0  0  0
   57.3939   34.8545   46.5163 H   0  0  0  0  0  0  0  0  0  0  0  0
   62.5463   34.1849   46.7942 H   0  0  0  0  0  0  0  0  0  0  0  0
   62.9598   34.4733   48.5214 H   0  0  0  0  0  0  0  0  0  0  0  0
   62.3968   31.7920   47.1588 H   0  0  0  0  0  0  0  0  0  0  0  0
   63.9530   32.3742   47.8792 H   0  0  0  0  0  0  0  0  0  0  0  0
   62.6917   30.7185   49.3090 H   0  0  0  0  0  0  0  0  0  0  0  0
   63.0321   32.3344   50.0893 H   0  0  0  0  0  0  0  0  0  0  0  0
   60.8433   31.7096   50.7190 H   0  0  0  0  0  0  0  0  0  0  0  0
   58.1402   28.8174   48.1328 H   0  0  0  0  0  0  0  0  0  0  0  0
   57.1147   27.6297   46.1923 H   0  0  0  0  0  0  0  0  0  0  0  0
   60.7581   28.1818   43.9246 H   0  0  0  0  0  0  0  0  0  0  0  0
   61.7871   29.3700   45.8633 H   0  0  0  0  0  0  0  0  0  0  0  0
   59.4241   33.4899   49.5206 H   0  0  0  0  0  0  0  0  0  0  0  0
   60.9784   34.0493   50.2490 H   0  0  0  0  0  0  0  0  0  0  0  0
   60.6393   32.0045   46.2047 H   0  0  0  0  0  0  0  0  0  0  0  0
   59.1692   30.4721   44.9048 H   0  0  0  0  0  0  0  0  0  0  0  0
  1  2  1  0
  2  3  1  0
  2  4  1  0
  4  5  2  0
  4  6  1  0
  6  7  2  0
  7  8  1  0
  8  9  2  0
  9 10  1  0
 10 11  2  0
 10 12  1  0
 12 13  1  0
 13 14  1  0
 14 15  1  0
 15 16  1  0
 16 17  1  0
 17 18  2  0
 17 19  1  0
 19 20  1  0
 20 21  2  0
 21 22  1  0
 22 23  2  0
 23 24  1  0
 23 25  1  0
 25 26  2  0
 16 27  1  0
  9 28  1  0
 28 29  2  0
 29  6  1  0
 27 12  1  0
 26 20  1  0
  1 30  1  0
  1 31  1  0
  1 32  1  0
  3 33  1  0
  3 34  1  0
  3 35  1  0
  7 36  1  0
  8 37  1  0
 13 38  1  0
 13 39  1  0
 14 40  1  0
 14 41  1  0
 15 42  1  0
 15 43  1  0
 16 44  1  1
 21 45  1  0
 22 46  1  0
 25 47  1  0
 26 48  1  0
 27 49  1  0
 27 50  1  0
 28 51  1  0
 29 52  1  0
M  CHG  1  19  -1
M  END
>  <UniqueID>  (93) 
87

>  <SMILES>  (93) 
CN(C)C(=O)c1ccc(C(=O)N2CCC[C@H](C(=O)[N-]c3ccc(Cl)cc3)C2)cc1

>  <Energy>  (93) 
64.54118277501962

>  <Genealogy>  (93) 
CN(C)C(=O)c1ccc(C(=O)N2CCCC(C(=O)[N-]c3ccc(Cl)cc3)C2)cc1 (protonated)
CN(C)C(=O)c1ccc(C(=O)N2CCC[C@H](C(=O)[N-]c3ccc(Cl)cc3)C2)cc1 (chirality)
CN(C)C(=O)c1ccc(C(=O)N2CCC[C@H](C(=O)[N-]c3ccc(Cl)cc3)C2)cc1 (3D coordinates assigned)
CN(C)C(=O)c1ccc(C(=O)N2CCC[C@H](C(=O)[N-]c3ccc(Cl)cc3)C2)cc1 (nonaromatic ring conformer: 64.54118277501962 kcal/mol)

>  <smiles>  (93) 
CN(C)C(=O)c1ccc(C(=O)N2CCCC(C(=O)Nc3ccc(Cl)cc3)C2)cc1

>  <score_type>  (93) 
oracle

>  <origin>  (93) 
adg

>  <m_score__min__energy>  (93) 
-10.32

>  <m_primary>  (93) 
energy

$$$$
93:0
     RDKit          3D

 47 50  0  0  0  0  0  0  0  0999 V2000
   60.3530   29.6950   45.2200 O   0  0  0  0  0  0  0  0  0  0  0  0
   59.1430   29.4210   45.4380 C   0  0  0  0  0  0  0  0  0  0  0  0
   58.2110   30.5070   45.5560 N   0  0  0  0  0  0  0  0  0  0  0  0
   58.4450   31.9240   45.6670 C   0  0  0  0  0  0  0  0  0  0  0  0
   57.9690   32.8370   44.7050 C   0  0  0  0  0  0  0  0  0  0  0  0
   58.1700   34.2090   44.8690 C   0  0  0  0  0  0  0  0  0  0  0  0
   58.8730   34.6860   45.9730 C   0  0  0  0  0  0  0  0  0  0  0  0
   59.4200   33.7910   46.8920 C   0  0  0  0  0  0  0  0  0  0  0  0
   59.2400   32.4040   46.7350 C   0  0  0  0  0  0  0  0  0  0  0  0
   59.9280   31.4920   47.6210 N   0  0  0  0  0  0  0  0  0  0  0  0
   61.2480   31.9710   47.9480 C   0  0  0  0  0  0  0  0  0  0  0  0
   61.4770   32.6770   49.1440 C   0  0  0  0  0  0  0  0  0  0  0  0
   62.7740   33.0440   49.5110 C   0  0  0  0  0  0  0  0  0  0  0  0
   63.8540   32.7250   48.6840 C   0  0  0  0  0  0  0  0  0  0  0  0
   63.6370   32.0400   47.4850 C   0  0  0  0  0  0  0  0  0  0  0  0
   62.3430   31.6610   47.1180 C   0  0  0  0  0  0  0  0  0  0  0  0
   58.7570   27.9970   45.5600 C   0  0  0  0  0  0  0  0  0  0  0  0
   58.2450   27.3550   44.4190 C   0  0  0  0  0  0  0  0  0  0  0  0
   57.8010   26.0330   44.4840 C   0  0  0  0  0  0  0  0  0  0  0  0
   57.8710   25.3320   45.6870 C   0  0  0  0  0  0  0  0  0  0  0  0
   58.3990   25.9440   46.8240 C   0  0  0  0  0  0  0  0  0  0  0  0
   58.8550   27.2740   46.7770 C   0  0  0  0  0  0  0  0  0  0  0  0
   59.5010   27.8410   47.9850 C   0  0  0  0  0  0  0  0  0  0  0  0
   60.5130   27.1210   48.6380 C   0  0  0  0  0  0  0  0  0  0  0  0
   61.0440   27.5910   49.8390 C   0  0  0  0  0  0  0  0  0  0  0  0
   60.5720   28.7900   50.3730 C   0  0  0  0  0  0  0  0  0  0  0  0
   59.6020   29.4880   49.7280 N   0  0  0  0  0  0  0  0  0  0  0  0
   59.0540   29.0470   48.5650 C   0  0  0  0  0  0  0  0  0  0  0  0
   58.1470   29.7280   48.0150 O   0  0  0  0  0  0  0  0  0  0  0  0
   57.4349   32.4660   43.8179 H   0  0  0  0  0  0  0  0  0  0  0  0
   57.7724   34.9147   44.1248 H   0  0  0  0  0  0  0  0  0  0  0  0
   58.9967   35.7691   46.1199 H   0  0  0  0  0  0  0  0  0  0  0  0
   59.9972   34.1725   47.7471 H   0  0  0  0  0  0  0  0  0  0  0  0
   59.3590   31.3440   48.4880 H   0  0  0  0  0  0  0  0  0  0  0  0
   60.0150   30.5490   47.1740 H   0  0  0  0  0  0  0  0  0  0  0  0
   60.6296   32.9413   49.7936 H   0  0  0  0  0  0  0  0  0  0  0  0
   62.9453   33.5853   50.4531 H   0  0  0  0  0  0  0  0  0  0  0  0
   64.8747   33.0128   48.9763 H   0  0  0  0  0  0  0  0  0  0  0  0
   64.4865   31.7988   46.8291 H   0  0  0  0  0  0  0  0  0  0  0  0
   62.1786   31.1176   46.1758 H   0  0  0  0  0  0  0  0  0  0  0  0
   58.1937   27.9000   43.4649 H   0  0  0  0  0  0  0  0  0  0  0  0
   57.3958   25.5443   43.5857 H   0  0  0  0  0  0  0  0  0  0  0  0
   57.5093   24.2945   45.7398 H   0  0  0  0  0  0  0  0  0  0  0  0
   58.4594   25.3808   47.7670 H   0  0  0  0  0  0  0  0  0  0  0  0
   60.8884   26.1836   48.2016 H   0  0  0  0  0  0  0  0  0  0  0  0
   61.8276   27.0215   50.3602 H   0  0  0  0  0  0  0  0  0  0  0  0
   60.9862   29.1708   51.3182 H   0  0  0  0  0  0  0  0  0  0  0  0
  1  2  2  0
  2  3  1  0
  3  4  1  0
  4  5  2  0
  5  6  1  0
  6  7  2  0
  7  8  1  0
  8  9  2  0
  9 10  1  0
 10 11  1  0
 11 12  2  0
 12 13  1  0
 13 14  2  0
 14 15  1  0
 15 16  2  0
  2 17  1  0
 17 18  2  0
 18 19  1  0
 19 20  2  0
 20 21  1  0
 21 22  2  0
 22 23  1  0
 23 24  2  0
 24 25  1  0
 25 26  2  0
 26 27  1  0
 27 28  1  0
 28 29  2  0
  9  4  1  0
 16 11  1  0
 22 17  1  0
 28 23  1  0
  5 30  1  0
  6 31  1  0
  7 32  1  0
  8 33  1  0
 10 34  1  0
 10 35  1  0
 12 36  1  0
 13 37  1  0
 14 38  1  0
 15 39  1  0
 16 40  1  0
 18 41  1  0
 19 42  1  0
 20 43  1  0
 21 44  1  0
 24 45  1  0
 25 46  1  0
 26 47  1  0
M  CHG  3   3  -1  10   1  27  -1
M  END
>  <UniqueID>  (94) 
88

>  <SMILES>  (94) 
O=C([N-]c1ccccc1[NH2+]c1ccccc1)c1ccccc1-c1ccc[n-]c1=O

>  <Energy>  (94) 
70.11623882056169

>  <Genealogy>  (94) 
O=C([N-]c1ccccc1[NH2+]c1ccccc1)c1ccccc1-c1ccc[n-]c1=O (protonated)
O=C([N-]c1ccccc1[NH2+]c1ccccc1)c1ccccc1-c1ccc[n-]c1=O (3D coordinates assigned)
O=C([N-]c1ccccc1[NH2+]c1ccccc1)c1ccccc1-c1ccc[n-]c1=O (optimized conformer: 70.11623882056169 kcal/mol)

>  <smiles>  (94) 
O=C(Nc1ccccc1Nc1ccccc1)c1ccccc1-c1ccc[nH]c1=O

>  <score_type>  (94) 
oracle

>  <origin>  (94) 
adg

>  <m_score__min__energy>  (94) 
-10.710000000000001

>  <m_primary>  (94) 
energy

$$$$
94:0
     RDKit          3D

 18 18  0  0  0  0  0  0  0  0999 V2000
   56.2350   29.7230   43.7590 C   0  0  0  0  0  0  0  0  0  0  0  0
   56.5550   30.8820   44.5210 O   0  0  0  0  0  0  0  0  0  0  0  0
   57.3950   31.8930   44.0420 C   0  0  0  0  0  0  0  0  0  0  0  0
   57.6440   31.9750   42.8070 O   0  0  0  0  0  0  0  0  0  0  0  0
   57.9870   32.8660   44.9860 C   0  0  0  0  0  0  0  0  0  0  0  0
   58.7080   33.9750   44.5050 C   0  0  0  0  0  0  0  0  0  0  0  0
   59.2680   34.8960   45.3960 C   0  0  0  0  0  0  0  0  0  0  0  0
   59.1160   34.7210   46.7730 C   0  0  0  0  0  0  0  0  0  0  0  0
   58.4030   33.6240   47.2630 C   0  0  0  0  0  0  0  0  0  0  0  0
   57.8400   32.7000   46.3760 C   0  0  0  0  0  0  0  0  0  0  0  0
   56.0048   28.8893   44.4387 H   0  0  0  0  0  0  0  0  0  0  0  0
   55.3607   29.9311   43.1247 H   0  0  0  0  0  0  0  0  0  0  0  0
   57.0922   29.4530   43.1247 H   0  0  0  0  0  0  0  0  0  0  0  0
   58.8318   34.1182   43.4214 H   0  0  0  0  0  0  0  0  0  0  0  0
   59.8294   35.7602   45.0113 H   0  0  0  0  0  0  0  0  0  0  0  0
   59.5576   35.4467   47.4718 H   0  0  0  0  0  0  0  0  0  0  0  0
   58.2841   33.4865   48.3479 H   0  0  0  0  0  0  0  0  0  0  0  0
   57.2790   31.8385   46.7673 H   0  0  0  0  0  0  0  0  0  0  0  0
  1  2  1  0
  2  3  1  0
  3  4  2  0
  3  5  1  0
  5  6  2  0
  6  7  1  0
  7  8  2  0
  8  9  1  0
  9 10  2  0
 10  5  1  0
  1 11  1  0
  1 12  1  0
  1 13  1  0
  6 14  1  0
  7 15  1  0
  8 16  1  0
  9 17  1  0
 10 18  1  0
M  END
>  <UniqueID>  (95) 
89

>  <SMILES>  (95) 
COC(=O)c1ccccc1

>  <Energy>  (95) 
14.762732891900189

>  <Genealogy>  (95) 
COC(=O)c1ccccc1 (3D coordinates assigned)
COC(=O)c1ccccc1 (optimized conformer: 14.762732891900189 kcal/mol)

>  <smiles>  (95) 
COC(=O)c1ccccc1

>  <score_type>  (95) 
oracle

>  <origin>  (95) 
adg

>  <m_score__min__energy>  (95) 
-4.5

>  <m_primary>  (95) 
energy

$$$$
95:0
     RDKit          3D

 63 66  0  0  0  0  0  0  0  0999 V2000
   60.0010   29.1860   48.5750 C   0  0  0  0  0  0  0  0  0  0  0  0
   59.4380   28.8750   47.2190 C   0  0  0  0  0  0  0  0  0  0  0  0
   60.1710   28.0980   46.3120 C   0  0  0  0  0  0  0  0  0  0  0  0
   59.6330   27.7790   45.0640 C   0  0  0  0  0  0  0  0  0  0  0  0
   58.3520   28.2270   44.7060 C   0  0  0  0  0  0  0  0  0  0  0  0
   57.7770   27.8570   43.3670 C   0  0  0  0  0  0  0  0  0  0  0  0
   57.5920   28.9800   45.6220 C   0  0  0  0  0  0  0  0  0  0  0  0
   56.2990   29.3910   45.2450 O   0  0  0  0  0  0  0  0  0  0  0  0
   55.9830   30.4550   44.3470 C   0  0  0  0  0  0  0  0  0  0  0  0
   57.1280   31.4150   44.2230 C   0  0  0  0  0  0  0  0  0  0  0  0
   58.1150   31.1300   43.4950 O   0  0  0  0  0  0  0  0  0  0  0  0
   57.0420   32.6930   44.8660 N   0  0  0  0  0  0  0  0  0  0  0  0
   57.9090   33.1800   45.9020 C   0  0  0  0  0  0  0  0  0  0  0  0
   58.6550   34.3390   45.6630 C   0  0  0  0  0  0  0  0  0  0  0  0
   59.4890   34.8590   46.6540 C   0  0  0  0  0  0  0  0  0  0  0  0
   59.5700   34.2380   47.9020 C   0  0  0  0  0  0  0  0  0  0  0  0
   58.8040   33.0910   48.1760 C   0  0  0  0  0  0  0  0  0  0  0  0
   58.8700   32.4330   49.5040 C   0  0  0  0  0  0  0  0  0  0  0  0
   59.9570   31.9230   49.8920 O   0  0  0  0  0  0  0  0  0  0  0  0
   57.7040   32.3340   50.3360 N   0  0  0  0  0  0  0  0  0  0  0  0
   57.7690   31.9480   51.7160 C   0  0  0  0  0  0  0  0  0  0  0  0
   58.1600   32.7060   52.8130 C   0  0  0  0  0  0  0  0  0  0  0  0
   58.5840   34.1460   52.8040 C   0  0  0  0  0  0  0  0  0  0  0  0
   58.0770   31.9240   53.9220 N   0  0  0  0  0  0  0  0  0  0  0  0
   58.5800   32.2640   55.2570 C   0  0  0  0  0  0  0  0  0  0  0  0
   57.6430   30.7170   53.5620 N   0  0  0  0  0  0  0  0  0  0  0  0
   57.4790   29.5880   54.4350 C   0  0  0  0  0  0  0  0  0  0  0  0
   56.3380   29.4770   55.2440 C   0  0  0  0  0  0  0  0  0  0  0  0
   56.1780   28.3710   56.0840 C   0  0  0  0  0  0  0  0  0  0  0  0
   57.1500   27.3660   56.1130 C   0  0  0  0  0  0  0  0  0  0  0  0
   58.2820   27.4650   55.2990 C   0  0  0  0  0  0  0  0  0  0  0  0
   58.4450   28.5700   54.4570 C   0  0  0  0  0  0  0  0  0  0  0  0
   57.4400   30.7160   52.2300 C   0  0  0  0  0  0  0  0  0  0  0  0
   57.0270   29.7260   51.5700 O   0  0  0  0  0  0  0  0  0  0  0  0
   57.9750   32.5660   47.1660 C   0  0  0  0  0  0  0  0  0  0  0  0
   58.1460   29.2990   46.8790 C   0  0  0  0  0  0  0  0  0  0  0  0
   59.3183   28.8089   49.3507 H   0  0  0  0  0  0  0  0  0  0  0  0
   60.9829   28.7024   48.6841 H   0  0  0  0  0  0  0  0  0  0  0  0
   60.1144   30.2747   48.6841 H   0  0  0  0  0  0  0  0  0  0  0  0
   61.1741   27.7381   46.5845 H   0  0  0  0  0  0  0  0  0  0  0  0
   60.2171   27.1723   44.3563 H   0  0  0  0  0  0  0  0  0  0  0  0
   56.8600   27.2670   43.5121 H   0  0  0  0  0  0  0  0  0  0  0  0
   57.5391   28.7720   42.8046 H   0  0  0  0  0  0  0  0  0  0  0  0
   58.5111   27.2614   42.8046 H   0  0  0  0  0  0  0  0  0  0  0  0
   55.7584   30.0339   43.3559 H   0  0  0  0  0  0  0  0  0  0  0  0
   55.1125   30.9989   44.7424 H   0  0  0  0  0  0  0  0  0  0  0  0
   58.5839   34.8436   44.6881 H   0  0  0  0  0  0  0  0  0  0  0  0
   60.0846   35.7613   46.4511 H   0  0  0  0  0  0  0  0  0  0  0  0
   60.2366   34.6482   48.6749 H   0  0  0  0  0  0  0  0  0  0  0  0
   56.7640   32.3400   49.8810 H   0  0  0  0  0  0  0  0  0  0  0  0
   58.6893   34.5037   53.8389 H   0  0  0  0  0  0  0  0  0  0  0  0
   59.5483   34.2411   52.2833 H   0  0  0  0  0  0  0  0  0  0  0  0
   57.8251   34.7484   52.2833 H   0  0  0  0  0  0  0  0  0  0  0  0
   57.9236   31.8203   56.0201 H   0  0  0  0  0  0  0  0  0  0  0  0
   59.5998   31.8692   55.3761 H   0  0  0  0  0  0  0  0  0  0  0  0
   58.5939   33.3574   55.3761 H   0  0  0  0  0  0  0  0  0  0  0  0
   55.5678   30.2619   55.2172 H   0  0  0  0  0  0  0  0  0  0  0  0
   55.2862   28.2912   56.7231 H   0  0  0  0  0  0  0  0  0  0  0  0
   57.0237   26.4976   56.7763 H   0  0  0  0  0  0  0  0  0  0  0  0
   59.0453   26.6732   55.3206 H   0  0  0  0  0  0  0  0  0  0  0  0
   59.3322   28.6413   53.8107 H   0  0  0  0  0  0  0  0  0  0  0  0
   57.3734   31.6674   47.3673 H   0  0  0  0  0  0  0  0  0  0  0  0
   57.5583   29.8864   47.5998 H   0  0  0  0  0  0  0  0  0  0  0  0
  1  2  1  0
  2  3  2  0
  3  4  1  0
  4  5  2  0
  5  6  1  0
  5  7  1  0
  7  8  1  0
  8  9  1  0
  9 10  1  0
 10 11  2  0
 10 12  1  0
 12 13  1  0
 13 14  2  0
 14 15  1  0
 15 16  2  0
 16 17  1  0
 17 18  1  0
 18 19  2  0
 18 20  1  0
 20 21  1  0
 21 22  2  0
 22 23  1  0
 22 24  1  0
 24 25  1  0
 24 26  1  0
 26 27  1  0
 27 28  2  0
 28 29  1  0
 29 30  2  0
 30 31  1  0
 31 32  2  0
 26 33  1  0
 33 34  2  0
 17 35  2  0
  7 36  2  0
 36  2  1  0
 35 13  1  0
 33 21  1  0
 32 27  1  0
  1 37  1  0
  1 38  1  0
  1 39  1  0
  3 40  1  0
  4 41  1  0
  6 42  1  0
  6 43  1  0
  6 44  1  0
  9 45  1  0
  9 46  1  0
 14 47  1  0
 15 48  1  0
 16 49  1  0
 20 50  1  0
 23 51  1  0
 23 52  1  0
 23 53  1  0
 25 54  1  0
 25 55  1  0
 25 56  1  0
 28 57  1  0
 29 58  1  0
 30 59  1  0
 31 60  1  0
 32 61  1  0
 35 62  1  0
 36 63  1  0
M  CHG  1  12  -1
M  END
>  <UniqueID>  (96) 
90

>  <SMILES>  (96) 
Cc1ccc(C)c(OCC(=O)[N-]c2cccc(C(=O)Nc3c(C)n(C)n(-c4ccccc4)c3=O)c2)c1

>  <Energy>  (96) 
118.25922361467815

>  <Genealogy>  (96) 
Cc1ccc(C)c(OCC(=O)[N-]c2cccc(C(=O)Nc3c(C)n(C)n(-c4ccccc4)c3=O)c2)c1 (protonated)
Cc1ccc(C)c(OCC(=O)[N-]c2cccc(C(=O)Nc3c(C)n(C)n(-c4ccccc4)c3=O)c2)c1 (3D coordinates assigned)
Cc1ccc(C)c(OCC(=O)[N-]c2cccc(C(=O)Nc3c(C)n(C)n(-c4ccccc4)c3=O)c2)c1 (optimized conformer: 118.25922361467815 kcal/mol)

>  <smiles>  (96) 
Cc1ccc(C)c(OCC(=O)Nc2cccc(C(=O)Nc3c(C)n(C)n(-c4ccccc4)c3=O)c2)c1

>  <score_type>  (96) 
oracle

>  <origin>  (96) 
adg

>  <m_score__min__energy>  (96) 
-10.869999999999999

>  <m_primary>  (96) 
energy

$$$$
96:0
     RDKit          3D

 45 46  0  0  0  0  0  0  0  0999 V2000
   57.0210   24.1970   43.8050 C   0  0  0  0  0  0  0  0  0  0  0  0
   57.1720   23.0680   44.8230 C   0  0  0  0  0  0  0  0  0  0  0  0
   57.8850   21.8700   44.1950 C   0  0  0  0  0  0  0  0  0  0  0  0
   57.9510   23.5600   45.9640 N   0  0  0  0  0  0  0  0  0  0  0  0
   57.0520   24.7280   46.8870 S   0  0  0  0  0  0  0  0  0  0  0  0
   57.4980   24.6780   48.3210 O   0  0  0  0  0  0  0  0  0  0  0  0
   55.5870   24.3960   46.8260 O   0  0  0  0  0  0  0  0  0  0  0  0
   57.3490   26.3460   46.2460 C   0  0  0  0  0  0  0  0  0  0  0  0
   58.6600   26.8310   46.1360 C   0  0  0  0  0  0  0  0  0  0  0  0
   58.9060   28.1220   45.6450 C   0  0  0  0  0  0  0  0  0  0  0  0
   60.2970   28.6110   45.5740 C   0  0  0  0  0  0  0  0  0  0  0  0
   61.2140   27.8130   45.2540 O   0  0  0  0  0  0  0  0  0  0  0  0
   60.6310   29.9730   45.8650 N   0  0  0  0  0  0  0  0  0  0  0  0
   60.7090   30.5300   47.2110 C   0  0  0  0  0  0  0  0  0  0  0  0
   59.3690   31.1520   47.6040 C   0  0  0  0  0  0  0  0  0  0  0  0
   59.0780   32.3860   46.7890 C   0  0  0  0  0  0  0  0  0  0  0  0
   57.7710   32.6600   46.3530 C   0  0  0  0  0  0  0  0  0  0  0  0
   57.5120   33.7880   45.5680 C   0  0  0  0  0  0  0  0  0  0  0  0
   58.5550   34.6460   45.2080 C   0  0  0  0  0  0  0  0  0  0  0  0
   59.8600   34.3750   45.6300 C   0  0  0  0  0  0  0  0  0  0  0  0
   60.1230   33.2480   46.4140 C   0  0  0  0  0  0  0  0  0  0  0  0
   57.8190   28.9400   45.2650 C   0  0  0  0  0  0  0  0  0  0  0  0
   58.0040   30.2250   44.7520 O   0  0  0  0  0  0  0  0  0  0  0  0
   56.5130   28.4550   45.3870 C   0  0  0  0  0  0  0  0  0  0  0  0
   56.2740   27.1660   45.8720 C   0  0  0  0  0  0  0  0  0  0  0  0
   54.9640   26.7110   45.9810 O   0  0  0  0  0  0  0  0  0  0  0  0
   56.8931   25.1530   44.3339 H   0  0  0  0  0  0  0  0  0  0  0  0
   57.9208   24.2445   43.1740 H   0  0  0  0  0  0  0  0  0  0  0  0
   56.1403   24.0064   43.1740 H   0  0  0  0  0  0  0  0  0  0  0  0
   56.1743   22.7449   45.1550 H   0  0  0  0  0  0  0  0  0  0  0  0
   58.2738   21.2167   44.9900 H   0  0  0  0  0  0  0  0  0  0  0  0
   57.1753   21.3064   43.5716 H   0  0  0  0  0  0  0  0  0  0  0  0
   58.7189   22.2251   43.5716 H   0  0  0  0  0  0  0  0  0  0  0  0
   59.5038   26.1930   46.4376 H   0  0  0  0  0  0  0  0  0  0  0  0
   60.9599   29.7288   47.9217 H   0  0  0  0  0  0  0  0  0  0  0  0
   61.4859   31.3085   47.2326 H   0  0  0  0  0  0  0  0  0  0  0  0
   58.5693   30.4154   47.4369 H   0  0  0  0  0  0  0  0  0  0  0  0
   59.4176   31.4399   48.6646 H   0  0  0  0  0  0  0  0  0  0  0  0
   56.9481   31.9847   46.6301 H   0  0  0  0  0  0  0  0  0  0  0  0
   56.4859   34.0003   45.2333 H   0  0  0  0  0  0  0  0  0  0  0  0
   58.3491   35.5343   44.5928 H   0  0  0  0  0  0  0  0  0  0  0  0
   60.6808   35.0495   45.3447 H   0  0  0  0  0  0  0  0  0  0  0  0
   61.1521   33.0348   46.7388 H   0  0  0  0  0  0  0  0  0  0  0  0
   58.8920   30.7100   44.7890 H   0  0  0  0  0  0  0  0  0  0  0  0
   55.6655   29.0942   45.0985 H   0  0  0  0  0  0  0  0  0  0  0  0
  1  2  1  0
  2  3  1  0
  2  4  1  0
  4  5  1  0
  5  6  2  0
  5  7  2  0
  5  8  1  0
  8  9  2  0
  9 10  1  0
 10 11  1  0
 11 12  2  0
 11 13  1  0
 13 14  1  0
 14 15  1  0
 15 16  1  0
 16 17  2  0
 17 18  1  0
 18 19  2  0
 19 20  1  0
 20 21  2  0
 10 22  2  0
 22 23  1  0
 22 24  1  0
 24 25  2  0
 25 26  1  0
 25  8  1  0
 21 16  1  0
  1 27  1  0
  1 28  1  0
  1 29  1  0
  2 30  1  0
  3 31  1  0
  3 32  1  0
  3 33  1  0
  9 34  1  0
 14 35  1  0
 14 36  1  0
 15 37  1  0
 15 38  1  0
 17 39  1  0
 18 40  1  0
 19 41  1  0
 20 42  1  0
 21 43  1  0
 23 44  1  0
 24 45  1  0
M  CHG  3   4  -1  13  -1  26  -1
M  END
>  <UniqueID>  (97) 
91

>  <SMILES>  (97) 
CC(C)[N-]S(=O)(=O)c1cc(C(=O)[N-]CCc2ccccc2)c(O)cc1[O-]

>  <Energy>  (97) 
43.00006570901603

>  <Genealogy>  (97) 
CC(C)[N-]S(=O)(=O)c1cc(C(=O)[N-]CCc2ccccc2)c(O)cc1[O-] (protonated)
CC(C)[N-]S(=O)(=O)c1cc(C(=O)[N-]CCc2ccccc2)c(O)cc1[O-] (3D coordinates assigned)
CC(C)[N-]S(=O)(=O)c1cc(C(=O)[N-]CCc2ccccc2)c(O)cc1[O-] (optimized conformer: 43.00006570901603 kcal/mol)

>  <smiles>  (97) 
CC(C)NS(=O)(=O)c1cc(C(=O)NCCc2ccccc2)c(O)cc1O

>  <score_type>  (97) 
oracle

>  <origin>  (97) 
adg

>  <m_score__min__energy>  (97) 
-12.74

>  <m_primary>  (97) 
energy

$$$$
97:0
     RDKit          3D

 49 52  0  0  0  0  0  0  0  0999 V2000
   54.1040   23.5550   44.4600 H   0  0  0  0  0  0  0  0  0  0  0  0
   55.1330   23.4650   44.6210 N   0  0  0  0  0  0  0  0  0  0  0  0
   55.8740   24.4740   44.9500 C   0  0  0  0  0  0  0  0  0  0  0  0
   55.5110   25.2630   45.9930 N   0  0  0  0  0  0  0  0  0  0  0  0
   56.2610   26.3310   46.3680 C   0  0  0  0  0  0  0  0  0  0  0  0
   55.9470   26.9554   47.2174 H   0  0  0  0  0  0  0  0  0  0  0  0
   57.4390   26.6350   45.6670 C   0  0  0  0  0  0  0  0  0  0  0  0
   58.2860   27.7850   46.0660 C   0  0  0  0  0  0  0  0  0  0  0  0
   58.3550   28.1630   47.4170 C   0  0  0  0  0  0  0  0  0  0  0  0
   57.7823   27.6018   48.1700 H   0  0  0  0  0  0  0  0  0  0  0  0
   59.1450   29.2460   47.8130 C   0  0  0  0  0  0  0  0  0  0  0  0
   59.1839   29.5351   48.8736 H   0  0  0  0  0  0  0  0  0  0  0  0
   59.8890   29.9670   46.8660 C   0  0  0  0  0  0  0  0  0  0  0  0
   60.7220   31.1210   47.2800 C   0  0  0  0  0  0  0  0  0  0  0  0
   62.1200   31.0440   47.1550 C   0  0  0  0  0  0  0  0  0  0  0  0
   62.5816   30.1280   46.7576 H   0  0  0  0  0  0  0  0  0  0  0  0
   62.9280   32.1180   47.5300 C   0  0  0  0  0  0  0  0  0  0  0  0
   64.0207   32.0468   47.4258 H   0  0  0  0  0  0  0  0  0  0  0  0
   62.3500   33.2820   48.0370 C   0  0  0  0  0  0  0  0  0  0  0  0
   62.9874   34.1303   48.3269 H   0  0  0  0  0  0  0  0  0  0  0  0
   60.9650   33.3720   48.1770 C   0  0  0  0  0  0  0  0  0  0  0  0
   60.5164   34.2931   48.5773 H   0  0  0  0  0  0  0  0  0  0  0  0
   60.1350   32.2930   47.8100 C   0  0  0  0  0  0  0  0  0  0  0  0
   58.7380   32.3410   47.9740 O   0  0  0  0  0  0  0  0  0  0  0  0
   57.8410   33.1330   47.1950 C   0  0  0  0  0  0  0  0  0  0  0  0
   56.8570   33.1543   47.6861 H   0  0  0  0  0  0  0  0  0  0  0  0
   58.2458   34.1525   47.1130 H   0  0  0  0  0  0  0  0  0  0  0  0
   57.6930   32.5570   45.8170 C   0  0  0  0  0  0  0  0  0  0  0  0
   57.0380   31.4060   45.5590 N   0  0  0  0  0  0  0  0  0  0  0  0
   57.1520   31.2500   44.2230 C   0  0  0  0  0  0  0  0  0  0  0  0
   56.7220   30.4025   43.6690 H   0  0  0  0  0  0  0  0  0  0  0  0
   57.8510   32.2470   43.6410 N   0  0  0  0  0  0  0  0  0  0  0  0
   58.1490   32.3820   42.2190 C   0  0  0  0  0  0  0  0  0  0  0  0
   59.1445   32.8330   42.0942 H   0  0  0  0  0  0  0  0  0  0  0  0
   58.1342   31.3893   41.7454 H   0  0  0  0  0  0  0  0  0  0  0  0
   57.3929   33.0255   41.7454 H   0  0  0  0  0  0  0  0  0  0  0  0
   58.2180   33.0670   44.6440 C   0  0  0  0  0  0  0  0  0  0  0  0
   58.9830   34.3470   44.4850 C   0  0  0  0  0  0  0  0  0  0  0  0
   59.2265   34.7543   45.4774 H   0  0  0  0  0  0  0  0  0  0  0  0
   59.9128   34.1520   43.9305 H   0  0  0  0  0  0  0  0  0  0  0  0
   58.3709   35.0735   43.9305 H   0  0  0  0  0  0  0  0  0  0  0  0
   59.8230   29.5920   45.5150 C   0  0  0  0  0  0  0  0  0  0  0  0
   60.3970   30.1548   44.7642 H   0  0  0  0  0  0  0  0  0  0  0  0
   59.0330   28.5080   45.1150 C   0  0  0  0  0  0  0  0  0  0  0  0
   59.0340   28.1450   43.8070 F   0  0  0  0  0  0  0  0  0  0  0  0
   57.8070   25.8350   44.6230 N   0  0  0  0  0  0  0  0  0  0  0  0
   58.6750   26.0450   44.0800 H   0  0  0  0  0  0  0  0  0  0  0  0
   57.0530   24.7670   44.2500 C   0  0  0  0  0  0  0  0  0  0  0  0
   57.3659   24.1368   43.4045 H   0  0  0  0  0  0  0  0  0  0  0  0
  1  2  1  0
  2  3  2  0
  3  4  1  0
  4  5  1  0
  5  6  1  0
  5  7  2  0
  7  8  1  0
  8  9  2  0
  9 10  1  0
  9 11  1  0
 11 12  1  0
 11 13  2  0
 13 14  1  0
 14 15  2  0
 15 16  1  0
 15 17  1  0
 17 18  1  0
 17 19  2  0
 19 20  1  0
 19 21  1  0
 21 22  1  0
 21 23  2  0
 23 24  1  0
 24 25  1  0
 25 26  1  0
 25 27  1  0
 25 28  1  0
 28 29  1  0
 29 30  2  0
 30 31  1  0
 30 32  1  0
 32 33  1  0
 33 34  1  0
 33 35  1  0
 33 36  1  0
 32 37  1  0
 37 38  1  0
 38 39  1  0
 38 40  1  0
 38 41  1  0
 13 42  1  0
 42 43  1  0
 42 44  2  0
 44 45  1  0
  7 46  1  0
 46 47  1  0
 46 48  2  0
 48 49  1  0
 48  3  1  0
 44  8  1  0
 23 14  1  0
 37 28  2  0
M  CHG  2   4  -1  46   1
M  END
>  <UniqueID>  (98) 
92

>  <SMILES>  (98) 
[H]/N=c1\c[nH+]c(-c2ccc(-c3ccccc3OCc3ncn(C)c3C)cc2F)c[n-]1

>  <Energy>  (98) 
94.70647244297403

>  <Genealogy>  (98) 
Cc1c(COc2ccccc2-c2ccc(-c3c[n-]c(=N)c[nH+]3)c(F)c2)ncn1C (protonated)
[H]/N=c1\c[nH+]c(-c2ccc(-c3ccccc3OCc3ncn(C)c3C)cc2F)c[n-]1 (cis-trans isomerization)
[H]/N=c1\c[nH+]c(-c2ccc(-c3ccccc3OCc3ncn(C)c3C)cc2F)c[n-]1 (3D coordinates assigned)
[H]/N=c1\c[nH+]c(-c2ccc(-c3ccccc3OCc3ncn(C)c3C)cc2F)c[n-]1 (optimized conformer: 94.70647244297403 kcal/mol)

>  <smiles>  (98) 
Cc1c(COc2ccccc2-c2ccc(-c3c[nH]c(=N)cn3)c(F)c2)ncn1C

>  <score_type>  (98) 
oracle

>  <origin>  (98) 
adg

>  <m_score__min__energy>  (98) 
-8.0099999999999998

>  <m_primary>  (98) 
energy

$$$$
98:0
     RDKit          3D

 28 30  0  0  0  0  0  0  0  0999 V2000
   57.3490   34.2950   44.9030 C   0  0  0  0  0  0  0  0  0  0  0  0
   58.2780   33.3300   45.5770 C   0  0  0  0  0  0  0  0  0  0  0  0
   59.5350   33.7720   46.0580 C   0  0  0  0  0  0  0  0  0  0  0  0
   60.4310   32.8700   46.6620 C   0  0  0  0  0  0  0  0  0  0  0  0
   61.9790   33.4280   47.2720 Cl  0  0  0  0  0  0  0  0  0  0  0  0
   60.0470   31.5310   46.7560 C   0  0  0  0  0  0  0  0  0  0  0  0
   60.7380   30.5150   47.3070 N   0  0  0  0  0  0  0  0  0  0  0  0
   59.9560   29.4220   47.1750 C   0  0  0  0  0  0  0  0  0  0  0  0
   60.4030   27.8370   47.7850 Cl  0  0  0  0  0  0  0  0  0  0  0  0
   58.7660   29.7370   46.5230 C   0  0  0  0  0  0  0  0  0  0  0  0
   57.6070   28.8220   46.2640 C   0  0  0  0  0  0  0  0  0  0  0  0
   56.9660   29.1690   44.9580 C   0  0  0  0  0  0  0  0  0  0  0  0
   57.5630   28.9840   43.8380 N   0  0  0  0  0  0  0  0  0  0  0  0
   56.4680   29.5010   42.5940 S   0  0  0  0  0  0  0  0  0  0  0  0
   56.9620   30.9000   42.2530 O   0  0  0  0  0  0  0  0  0  0  0  0
   55.1220   29.8020   43.6100 O   0  0  0  0  0  0  0  0  0  0  0  0
   55.6330   29.6630   44.8640 N   0  0  0  0  0  0  0  0  0  0  0  0
   58.8370   31.0950   46.2740 C   0  0  0  0  0  0  0  0  0  0  0  0
   57.9270   31.9660   45.6740 C   0  0  0  0  0  0  0  0  0  0  0  0
   56.7985   34.8668   45.6646 H   0  0  0  0  0  0  0  0  0  0  0  0
   57.9305   34.9860   44.2750 H   0  0  0  0  0  0  0  0  0  0  0  0
   56.6364   33.7402   44.2750 H   0  0  0  0  0  0  0  0  0  0  0  0
   59.8138   34.8314   45.9584 H   0  0  0  0  0  0  0  0  0  0  0  0
   61.6770   30.5600   47.7610 H   0  0  0  0  0  0  0  0  0  0  0  0
   57.9639   27.7820   46.2302 H   0  0  0  0  0  0  0  0  0  0  0  0
   56.8685   28.9358   47.0713 H   0  0  0  0  0  0  0  0  0  0  0  0
   55.1420   30.0730   45.6890 H   0  0  0  0  0  0  0  0  0  0  0  0
   56.9641   31.6005   45.2878 H   0  0  0  0  0  0  0  0  0  0  0  0
  1  2  1  0
  2  3  2  0
  3  4  1  0
  4  5  1  0
  4  6  2  0
  6  7  1  0
  7  8  1  0
  8  9  1  0
  8 10  2  0
 10 11  1  0
 11 12  1  0
 12 13  2  0
 13 14  1  0
 14 15  2  0
 14 16  1  1
 16 17  1  0
 10 18  1  0
 18 19  2  0
 19  2  1  0
 18  6  1  0
 17 12  1  0
  1 20  1  0
  1 21  1  0
  1 22  1  0
  3 23  1  0
  7 24  1  0
 11 25  1  0
 11 26  1  0
 17 27  1  0
 19 28  1  0
M  END
>  <UniqueID>  (99) 
93

>  <SMILES>  (99) 
Cc1cc(Cl)c2[nH]c(Cl)c(CC3=N[S@](=O)ON3)c2c1

>  <Energy>  (99) 
78.93741275254062

>  <Genealogy>  (99) 
Cc1cc(Cl)c2[nH]c(Cl)c(CC3=N[S@](=O)ON3)c2c1 (chirality)
Cc1cc(Cl)c2[nH]c(Cl)c(CC3=N[S@](=O)ON3)c2c1 (3D coordinates assigned)
Cc1cc(Cl)c2[nH]c(Cl)c(CC3=N[S@](=O)ON3)c2c1 (nonaromatic ring conformer: 78.93741275254062 kcal/mol)

>  <smiles>  (99) 
Cc1cc(Cl)c2[nH]c(Cl)c(CC3=NS(=O)ON3)c2c1

>  <score_type>  (99) 
oracle

>  <origin>  (99) 
adg

>  <m_score__min__energy>  (99) 
-7.75

>  <m_primary>  (99) 
energy

$$$$
