0:0
     RDKit          3D

 40 42  0  0  0  0  0  0  0  0999 V2000
   51.0800   30.9560   49.6940 O   0  0  0  0  0  0  0  0  0  0  0  0
   51.5680   31.4290   50.7550 C   0  0  0  0  0  0  0  0  0  0  0  0
   51.0510   32.6150   51.2660 O   0  0  0  0  0  0  0  0  0  0  0  0
   52.6740   30.7320   51.4500 C   0  0  0  0  0  0  0  0  0  0  0  0
   52.4320   29.5490   52.1720 C   0  0  0  0  0  0  0  0  0  0  0  0
   53.4820   28.8850   52.8090 C   0  0  0  0  0  0  0  0  0  0  0  0
   54.7790   29.3950   52.7430 C   0  0  0  0  0  0  0  0  0  0  0  0
   55.0380   30.5840   52.0530 C   0  0  0  0  0  0  0  0  0  0  0  0
   56.3900   31.0630   51.9940 N   0  0  0  0  0  0  0  0  0  0  0  0
   57.4950   30.4220   51.3420 C   0  0  0  0  0  0  0  0  0  0  0  0
   57.7890   29.2300   51.6220 O   0  0  0  0  0  0  0  0  0  0  0  0
   58.2800   31.1750   50.3320 C   0  0  0  0  0  0  0  0  0  0  0  0
   58.5200   32.5420   50.5680 C   0  0  0  0  0  0  0  0  0  0  0  0
   59.2770   33.3020   49.6770 C   0  0  0  0  0  0  0  0  0  0  0  0
   59.8070   32.7120   48.5320 C   0  0  0  0  0  0  0  0  0  0  0  0
   59.5720   31.3640   48.2680 C   0  0  0  0  0  0  0  0  0  0  0  0
   58.7980   30.5810   49.1440 C   0  0  0  0  0  0  0  0  0  0  0  0
   58.5510   29.1370   48.7660 C   0  0  0  0  0  0  0  0  0  0  0  0
   58.9070   28.8910   47.2960 C   0  0  0  0  0  0  0  0  0  0  0  0
   57.7310   28.3260   46.5600 C   0  0  0  0  0  0  0  0  0  0  0  0
   57.2660   27.0760   46.7270 N   0  0  0  0  0  0  0  0  0  0  0  0
   56.1790   27.0400   45.9250 C   0  0  0  0  0  0  0  0  0  0  0  0
   55.4620   26.0130   45.8020 O   0  0  0  0  0  0  0  0  0  0  0  0
   55.9190   28.1910   45.2700 N   0  0  0  0  0  0  0  0  0  0  0  0
   56.9080   28.9980   45.6880 C   0  0  0  0  0  0  0  0  0  0  0  0
   57.0550   30.3220   45.2910 O   0  0  0  0  0  0  0  0  0  0  0  0
   53.9840   31.2390   51.3880 C   0  0  0  0  0  0  0  0  0  0  0  0
   51.4107   29.1453   52.2349 H   0  0  0  0  0  0  0  0  0  0  0  0
   53.2860   27.9563   53.3650 H   0  0  0  0  0  0  0  0  0  0  0  0
   55.6030   28.8588   53.2366 H   0  0  0  0  0  0  0  0  0  0  0  0
   58.1042   33.0176   51.4685 H   0  0  0  0  0  0  0  0  0  0  0  0
   59.4558   34.3685   49.8786 H   0  0  0  0  0  0  0  0  0  0  0  0
   60.4119   33.3109   47.8352 H   0  0  0  0  0  0  0  0  0  0  0  0
   59.9973   30.9061   47.3628 H   0  0  0  0  0  0  0  0  0  0  0  0
   59.1709   28.4869   49.4009 H   0  0  0  0  0  0  0  0  0  0  0  0
   57.4845   28.9114   48.9131 H   0  0  0  0  0  0  0  0  0  0  0  0
   59.2022   29.8430   46.8306 H   0  0  0  0  0  0  0  0  0  0  0  0
   59.7376   28.1715   47.2462 H   0  0  0  0  0  0  0  0  0  0  0  0
   57.0180   31.0710   45.9720 H   0  0  0  0  0  0  0  0  0  0  0  0
   54.1872   32.1556   50.8148 H   0  0  0  0  0  0  0  0  0  0  0  0
  1  2  2  0
  2  3  1  0
  2  4  1  0
  4  5  2  0
  5  6  1  0
  6  7  2  0
  7  8  1  0
  8  9  1  0
  9 10  1  0
 10 11  2  0
 10 12  1  0
 12 13  2  0
 13 14  1  0
 14 15  2  0
 15 16  1  0
 16 17  2  0
 17 18  1  0
 18 19  1  0
 19 20  1  0
 20 21  1  0
 21 22  1  0
 22 23  2  0
 22 24  1  0
 24 25  1  0
 25 26  1  0
  8 27  2  0
 27  4  1  0
 17 12  1  0
 25 20  2  0
  5 28  1  0
  6 29  1  0
  7 30  1  0
 13 31  1  0
 14 32  1  0
 15 33  1  0
 16 34  1  0
 18 35  1  0
 18 36  1  0
 19 37  1  0
 19 38  1  0
 26 39  1  0
 27 40  1  0
M  CHG  4   3  -1   9  -1  21  -1  24  -1
M  END
>  <UniqueID>  (1) 
1

>  <SMILES>  (1) 
O=C([O-])c1cccc([N-]C(=O)c2ccccc2CCc2[n-]c(=O)[n-]c2O)c1

>  <Energy>  (1) 
77.70414938682721

>  <Genealogy>  (1) 
O=C([O-])c1cccc([N-]C(=O)c2ccccc2CCc2[n-]c(=O)[n-]c2O)c1 (protonated)
O=C([O-])c1cccc([N-]C(=O)c2ccccc2CCc2[n-]c(=O)[n-]c2O)c1 (3D coordinates assigned)
O=C([O-])c1cccc([N-]C(=O)c2ccccc2CCc2[n-]c(=O)[n-]c2O)c1 (optimized conformer: 77.70414938682721 kcal/mol)

>  <smiles>  (1) 
O=C(O)c1cccc(NC(=O)c2ccccc2CCc2[nH]c(=O)[nH]c2O)c1

>  <score_type>  (1) 
oracle

>  <origin>  (1) 
adg

>  <m_score__min__energy>  (1) 
-15.49

>  <m_primary>  (1) 
energy

$$$$
1:0
     RDKit          3D

 63 66  0  0  0  0  0  0  0  0999 V2000
   66.1740   32.7090   49.9840 C   0  0  0  0  0  0  0  0  0  0  0  0
   64.9080   32.1280   50.5410 C   0  0  0  0  0  0  0  0  0  0  0  0
   64.9000   31.7690   51.7510 O   0  0  0  0  0  0  0  0  0  0  0  0
   63.7070   32.0010   49.7470 N   0  0  0  0  0  0  0  0  0  0  0  0
   63.6780   32.3580   48.3170 C   0  0  0  0  0  0  0  0  0  0  0  0
   62.3410   33.0150   47.9510 C   0  0  0  0  0  0  0  0  0  0  0  0
   61.1980   32.2770   48.5100 N   0  0  0  0  0  0  0  0  0  0  0  0
   59.8670   32.7970   48.3500 C   0  0  0  0  0  0  0  0  0  0  0  0
   59.1010   32.8600   49.3480 O   0  0  0  0  0  0  0  0  0  0  0  0
   59.3790   33.2620   47.0350 C   0  0  0  0  0  0  0  0  0  0  0  0
   59.6060   34.5830   46.6190 C   0  0  0  0  0  0  0  0  0  0  0  0
   59.1740   35.0100   45.3610 C   0  0  0  0  0  0  0  0  0  0  0  0
   58.5070   34.1250   44.5110 C   0  0  0  0  0  0  0  0  0  0  0  0
   58.2460   32.8100   44.9240 C   0  0  0  0  0  0  0  0  0  0  0  0
   57.5580   31.8370   44.0030 C   0  0  0  0  0  0  0  0  0  0  0  0
   57.7780   30.4560   44.4690 N   0  0  0  0  0  0  0  0  0  0  0  0
   59.0580   29.9760   44.5160 C   0  0  0  0  0  0  0  0  0  0  0  0
   59.3100   28.6630   44.9000 C   0  0  0  0  0  0  0  0  0  0  0  0
   58.2480   27.8370   45.2530 C   0  0  0  0  0  0  0  0  0  0  0  0
   56.9360   28.3170   45.2220 C   0  0  0  0  0  0  0  0  0  0  0  0
   55.8910   27.4170   45.6260 N   0  0  0  0  0  0  0  0  0  0  0  0
   55.9680   25.6890   45.7600 S   0  0  0  0  0  0  0  0  0  0  0  0
   56.5400   25.3040   47.0970 O   0  0  0  0  0  0  0  0  0  0  0  0
   54.5940   25.1020   45.5980 O   0  0  0  0  0  0  0  0  0  0  0  0
   57.0380   25.0560   44.4810 C   0  0  0  0  0  0  0  0  0  0  0  0
   56.8510   23.5720   44.3380 C   0  0  0  0  0  0  0  0  0  0  0  0
   56.9420   22.7350   45.4630 C   0  0  0  0  0  0  0  0  0  0  0  0
   56.8210   21.3490   45.3210 C   0  0  0  0  0  0  0  0  0  0  0  0
   56.6210   20.7900   44.0580 C   0  0  0  0  0  0  0  0  0  0  0  0
   56.5330   21.6160   42.9330 C   0  0  0  0  0  0  0  0  0  0  0  0
   56.6480   23.0020   43.0700 C   0  0  0  0  0  0  0  0  0  0  0  0
   56.7130   29.6470   44.7940 C   0  0  0  0  0  0  0  0  0  0  0  0
   55.5370   30.0920   44.6940 O   0  0  0  0  0  0  0  0  0  0  0  0
   58.6750   32.3890   46.1920 C   0  0  0  0  0  0  0  0  0  0  0  0
   61.4270   31.0880   49.3320 C   0  0  0  0  0  0  0  0  0  0  0  0
   62.5280   31.3690   50.3580 C   0  0  0  0  0  0  0  0  0  0  0  0
   66.8334   33.0116   50.8108 H   0  0  0  0  0  0  0  0  0  0  0  0
   66.6831   31.9544   49.3664 H   0  0  0  0  0  0  0  0  0  0  0  0
   65.9338   33.5870   49.3664 H   0  0  0  0  0  0  0  0  0  0  0  0
   64.4966   33.0610   48.1033 H   0  0  0  0  0  0  0  0  0  0  0  0
   63.7976   31.4416   47.7204 H   0  0  0  0  0  0  0  0  0  0  0  0
   62.3291   34.0417   48.3456 H   0  0  0  0  0  0  0  0  0  0  0  0
   62.2471   33.0112   46.8550 H   0  0  0  0  0  0  0  0  0  0  0  0
   60.1265   35.2854   47.2866 H   0  0  0  0  0  0  0  0  0  0  0  0
   59.3595   36.0454   45.0392 H   0  0  0  0  0  0  0  0  0  0  0  0
   58.1851   34.4603   43.5140 H   0  0  0  0  0  0  0  0  0  0  0  0
   56.4787   32.0491   43.9903 H   0  0  0  0  0  0  0  0  0  0  0  0
   57.9728   31.9454   42.9900 H   0  0  0  0  0  0  0  0  0  0  0  0
   59.8967   30.6351   44.2474 H   0  0  0  0  0  0  0  0  0  0  0  0
   60.3412   28.2809   44.9243 H   0  0  0  0  0  0  0  0  0  0  0  0
   58.4423   26.7984   45.5588 H   0  0  0  0  0  0  0  0  0  0  0  0
   56.7945   25.5468   43.5272 H   0  0  0  0  0  0  0  0  0  0  0  0
   58.0839   25.2623   44.7522 H   0  0  0  0  0  0  0  0  0  0  0  0
   57.1090   23.1714   46.4588 H   0  0  0  0  0  0  0  0  0  0  0  0
   56.8835   20.6986   46.2059 H   0  0  0  0  0  0  0  0  0  0  0  0
   56.5325   19.6992   43.9474 H   0  0  0  0  0  0  0  0  0  0  0  0
   56.3730   21.1740   41.9385 H   0  0  0  0  0  0  0  0  0  0  0  0
   56.5794   23.6484   42.1826 H   0  0  0  0  0  0  0  0  0  0  0  0
   58.4572   31.3646   46.5283 H   0  0  0  0  0  0  0  0  0  0  0  0
   60.4976   30.8231   49.8574 H   0  0  0  0  0  0  0  0  0  0  0  0
   61.7384   30.2546   48.6851 H   0  0  0  0  0  0  0  0  0  0  0  0
   62.1278   32.0396   51.1327 H   0  0  0  0  0  0  0  0  0  0  0  0
   62.8442   30.4067   50.7868 H   0  0  0  0  0  0  0  0  0  0  0  0
  1  2  1  0
  2  3  2  0
  2  4  1  0
  4  5  1  0
  5  6  1  0
  6  7  1  0
  7  8  1  0
  8  9  2  0
  8 10  1  0
 10 11  2  0
 11 12  1  0
 12 13  2  0
 13 14  1  0
 14 15  1  0
 15 16  1  0
 16 17  1  0
 17 18  2  0
 18 19  1  0
 19 20  2  0
 20 21  1  0
 21 22  1  0
 22 23  2  0
 22 24  2  0
 22 25  1  0
 25 26  1  0
 26 27  2  0
 27 28  1  0
 28 29  2  0
 29 30  1  0
 30 31  2  0
 20 32  1  0
 32 33  2  0
 14 34  2  0
  7 35  1  0
 35 36  1  0
 36  4  1  0
 34 10  1  0
 32 16  1  0
 31 26  1  0
  1 37  1  0
  1 38  1  0
  1 39  1  0
  5 40  1  0
  5 41  1  0
  6 42  1  0
  6 43  1  0
 11 44  1  0
 12 45  1  0
 13 46  1  0
 15 47  1  0
 15 48  1  0
 17 49  1  0
 18 50  1  0
 19 51  1  0
 25 52  1  0
 25 53  1  0
 27 54  1  0
 28 55  1  0
 29 56  1  0
 30 57  1  0
 31 58  1  0
 34 59  1  0
 35 60  1  0
 35 61  1  0
 36 62  1  0
 36 63  1  0
M  CHG  1  21  -1
M  END
>  <UniqueID>  (2) 
2

>  <SMILES>  (2) 
CC(=O)N1CCN(C(=O)c2cccc(Cn3cccc([N-]S(=O)(=O)Cc4ccccc4)c3=O)c2)CC1

>  <Energy>  (2) 
73.69748499888631

>  <Genealogy>  (2) 
CC(=O)N1CCN(C(=O)c2cccc(Cn3cccc([N-]S(=O)(=O)Cc4ccccc4)c3=O)c2)CC1 (protonated)
CC(=O)N1CCN(C(=O)c2cccc(Cn3cccc([N-]S(=O)(=O)Cc4ccccc4)c3=O)c2)CC1 (3D coordinates assigned)
CC(=O)N1CCN(C(=O)c2cccc(Cn3cccc([N-]S(=O)(=O)Cc4ccccc4)c3=O)c2)CC1 (nonaromatic ring conformer: 73.69748499888631 kcal/mol)

>  <smiles>  (2) 
CC(=O)N1CCN(C(=O)c2cccc(Cn3cccc(NS(=O)(=O)Cc4ccccc4)c3=O)c2)CC1

>  <score_type>  (2) 
oracle

>  <origin>  (2) 
adg

>  <m_score__min__energy>  (2) 
-13.68

>  <m_primary>  (2) 
energy

$$$$
2:0
     RDKit          3D

 39 41  0  0  0  0  0  0  0  0999 V2000
   55.6330   22.7080   42.6410 N   0  0  0  0  0  0  0  0  0  0  0  0
   55.6070   23.3070   43.9390 C   0  0  0  0  0  0  0  0  0  0  0  0
   54.5240   23.3140   44.5830 O   0  0  0  0  0  0  0  0  0  0  0  0
   56.8170   23.9290   44.5310 C   0  0  0  0  0  0  0  0  0  0  0  0
   57.8860   23.1500   44.9920 C   0  0  0  0  0  0  0  0  0  0  0  0
   59.0100   23.7580   45.5460 C   0  0  0  0  0  0  0  0  0  0  0  0
   60.0640   22.9640   45.9890 O   0  0  0  0  0  0  0  0  0  0  0  0
   59.0650   25.1570   45.6500 C   0  0  0  0  0  0  0  0  0  0  0  0
   60.4270   25.8560   46.2660 S   0  0  0  0  0  0  0  0  0  0  0  0
   58.0030   25.9160   45.2150 N   0  0  0  0  0  0  0  0  0  0  0  0
   58.0060   27.3530   45.3210 C   0  0  0  0  0  0  0  0  0  0  0  0
   58.1680   27.9710   46.5690 C   0  0  0  0  0  0  0  0  0  0  0  0
   58.1580   29.3640   46.6730 C   0  0  0  0  0  0  0  0  0  0  0  0
   57.9810   30.1610   45.5270 C   0  0  0  0  0  0  0  0  0  0  0  0
   57.9660   31.5990   45.6270 N   0  0  0  0  0  0  0  0  0  0  0  0
   57.4160   32.4100   44.5360 C   0  0  0  0  0  0  0  0  0  0  0  0
   58.0900   33.7850   44.5280 C   0  0  0  0  0  0  0  0  0  0  0  0
   58.0170   34.3900   45.8040 O   0  0  0  0  0  0  0  0  0  0  0  0
   58.7630   33.6310   46.7380 C   0  0  0  0  0  0  0  0  0  0  0  0
   58.1430   32.2440   46.9310 C   0  0  0  0  0  0  0  0  0  0  0  0
   57.8040   29.5370   44.2810 C   0  0  0  0  0  0  0  0  0  0  0  0
   57.8150   28.1440   44.1790 C   0  0  0  0  0  0  0  0  0  0  0  0
   56.9010   25.3230   44.6640 C   0  0  0  0  0  0  0  0  0  0  0  0
   54.7820   22.2260   42.2730 H   0  0  0  0  0  0  0  0  0  0  0  0
   56.4510   22.8110   42.0030 H   0  0  0  0  0  0  0  0  0  0  0  0
   57.8376   22.0537   44.9162 H   0  0  0  0  0  0  0  0  0  0  0  0
   58.3037   27.3559   47.4708 H   0  0  0  0  0  0  0  0  0  0  0  0
   58.2892   29.8403   47.6558 H   0  0  0  0  0  0  0  0  0  0  0  0
   57.6011   31.9060   43.5759 H   0  0  0  0  0  0  0  0  0  0  0  0
   56.3331   32.5348   44.6836 H   0  0  0  0  0  0  0  0  0  0  0  0
   59.1465   33.6666   44.2454 H   0  0  0  0  0  0  0  0  0  0  0  0
   57.5684   34.4280   43.8038 H   0  0  0  0  0  0  0  0  0  0  0  0
   59.7932   33.5174   46.3695 H   0  0  0  0  0  0  0  0  0  0  0  0
   58.7576   34.1570   47.7041 H   0  0  0  0  0  0  0  0  0  0  0  0
   58.8077   31.6296   47.5561 H   0  0  0  0  0  0  0  0  0  0  0  0
   57.1649   32.3464   47.4238 H   0  0  0  0  0  0  0  0  0  0  0  0
   57.6557   30.1496   43.3795 H   0  0  0  0  0  0  0  0  0  0  0  0
   57.6732   27.6655   43.1987 H   0  0  0  0  0  0  0  0  0  0  0  0
   56.0657   25.9500   44.3190 H   0  0  0  0  0  0  0  0  0  0  0  0
  1  2  1  0
  2  3  2  0
  2  4  1  0
  4  5  1  0
  5  6  2  0
  6  7  1  0
  6  8  1  0
  8  9  2  0
  8 10  1  0
 10 11  1  0
 11 12  2  0
 12 13  1  0
 13 14  2  0
 14 15  1  0
 15 16  1  0
 16 17  1  0
 17 18  1  0
 18 19  1  0
 19 20  1  0
 14 21  1  0
 21 22  2  0
 10 23  1  0
 23  4  2  0
 22 11  1  0
 20 15  1  0
  1 24  1  0
  1 25  1  0
  5 26  1  0
 12 27  1  0
 13 28  1  0
 16 29  1  0
 16 30  1  0
 17 31  1  0
 17 32  1  0
 19 33  1  0
 19 34  1  0
 20 35  1  0
 20 36  1  0
 21 37  1  0
 22 38  1  0
 23 39  1  0
M  CHG  1   7  -1
M  END
>  <UniqueID>  (3) 
3

>  <SMILES>  (3) 
NC(=O)c1cc([O-])c(=S)n(-c2ccc(N3CCOCC3)cc2)c1

>  <Energy>  (3) 
59.029340941106376

>  <Genealogy>  (3) 
NC(=O)c1cc([O-])c(=S)n(-c2ccc(N3CCOCC3)cc2)c1 (protonated)
NC(=O)c1cc([O-])c(=S)n(-c2ccc(N3CCOCC3)cc2)c1 (3D coordinates assigned)
NC(=O)c1cc([O-])c(=S)n(-c2ccc(N3CCOCC3)cc2)c1 (nonaromatic ring conformer: 59.029340941106376 kcal/mol)

>  <smiles>  (3) 
NC(=O)c1cc(O)c(=S)n(-c2ccc(N3CCOCC3)cc2)c1

>  <score_type>  (3) 
oracle

>  <origin>  (3) 
adg

>  <m_score__min__energy>  (3) 
-9.1799999999999997

>  <m_primary>  (3) 
energy

$$$$
3:0
     RDKit          3D

 35 36  0  0  0  0  0  0  0  0999 V2000
   57.0190   20.0960   43.2960 H   0  0  0  0  0  0  0  0  0  0  0  0
   56.5360   20.9820   43.0270 N   0  0  0  0  0  0  0  0  0  0  0  0
   56.8550   22.1250   43.5490 C   0  0  0  0  0  0  0  0  0  0  0  0
   57.4330   22.1630   44.8230 C   0  0  0  0  0  0  0  0  0  0  0  0
   57.6161   21.2306   45.3772 H   0  0  0  0  0  0  0  0  0  0  0  0
   57.7750   23.3940   45.3840 C   0  0  0  0  0  0  0  0  0  0  0  0
   58.2271   23.4348   46.3860 H   0  0  0  0  0  0  0  0  0  0  0  0
   57.5430   24.5780   44.6720 C   0  0  0  0  0  0  0  0  0  0  0  0
   57.8780   25.9160   45.2720 C   0  0  0  0  0  0  0  0  0  0  0  0
   57.0948   26.1943   45.9925 H   0  0  0  0  0  0  0  0  0  0  0  0
   58.8531   25.8421   45.7757 H   0  0  0  0  0  0  0  0  0  0  0  0
   57.9840   27.2000   43.9770 S   0  0  0  0  0  0  0  0  0  0  0  0
   57.1190   28.4540   44.9310 C   0  0  0  0  0  0  0  0  0  0  0  0
   55.9520   28.2730   45.2390 O   0  0  0  0  0  0  0  0  0  0  0  0
   57.8320   29.7050   45.3630 C   0  0  0  0  0  0  0  0  0  0  0  0
   57.6540   29.8618   46.4371 H   0  0  0  0  0  0  0  0  0  0  0  0
   58.9035   29.5747   45.1510 H   0  0  0  0  0  0  0  0  0  0  0  0
   57.3450   30.9410   44.5950 C   0  0  0  0  0  0  0  0  0  0  0  0
   57.6871   30.8681   43.5521 H   0  0  0  0  0  0  0  0  0  0  0  0
   56.2469   30.9655   44.6540 H   0  0  0  0  0  0  0  0  0  0  0  0
   57.8710   32.2230   45.1910 C   0  0  0  0  0  0  0  0  0  0  0  0
   58.1230   32.3170   46.5700 C   0  0  0  0  0  0  0  0  0  0  0  0
   57.9196   31.4567   47.2246 H   0  0  0  0  0  0  0  0  0  0  0  0
   58.6320   33.5020   47.1130 C   0  0  0  0  0  0  0  0  0  0  0  0
   58.8286   33.5711   48.1931 H   0  0  0  0  0  0  0  0  0  0  0  0
   58.8910   34.5980   46.2850 C   0  0  0  0  0  0  0  0  0  0  0  0
   59.2878   35.5299   46.7142 H   0  0  0  0  0  0  0  0  0  0  0  0
   58.6460   34.5100   44.9130 C   0  0  0  0  0  0  0  0  0  0  0  0
   58.8521   35.3724   44.2621 H   0  0  0  0  0  0  0  0  0  0  0  0
   58.1390   33.3270   44.3650 C   0  0  0  0  0  0  0  0  0  0  0  0
   57.9495   33.2611   43.2834 H   0  0  0  0  0  0  0  0  0  0  0  0
   56.9580   24.4970   43.4000 C   0  0  0  0  0  0  0  0  0  0  0  0
   56.7629   25.4164   42.8285 H   0  0  0  0  0  0  0  0  0  0  0  0
   56.6300   23.2870   42.8680 N   0  0  0  0  0  0  0  0  0  0  0  0
   56.1960   23.2630   41.9180 H   0  0  0  0  0  0  0  0  0  0  0  0
  1  2  1  0
  2  3  2  0
  3  4  1  0
  4  5  1  0
  4  6  2  0
  6  7  1  0
  6  8  1  0
  8  9  1  0
  9 10  1  0
  9 11  1  0
  9 12  1  0
 12 13  1  0
 13 14  2  0
 13 15  1  0
 15 16  1  0
 15 17  1  0
 15 18  1  0
 18 19  1  0
 18 20  1  0
 18 21  1  0
 21 22  2  0
 22 23  1  0
 22 24  1  0
 24 25  1  0
 24 26  2  0
 26 27  1  0
 26 28  1  0
 28 29  1  0
 28 30  2  0
 30 31  1  0
  8 32  2  0
 32 33  1  0
 32 34  1  0
 34 35  1  0
 34  3  1  0
 30 21  1  0
M  END
>  <UniqueID>  (4) 
4

>  <SMILES>  (4) 
[H]/N=c1/ccc(CSC(=O)CCc2ccccc2)c[nH]1

>  <Energy>  (4) 
27.41142705047345

>  <Genealogy>  (4) 
[H]/N=c1/ccc(CSC(=O)CCc2ccccc2)c[nH]1 (cis-trans isomerization)
[H]/N=c1/ccc(CSC(=O)CCc2ccccc2)c[nH]1 (3D coordinates assigned)
[H]/N=c1/ccc(CSC(=O)CCc2ccccc2)c[nH]1 (optimized conformer: 27.41142705047345 kcal/mol)

>  <smiles>  (4) 
N=c1ccc(CSC(=O)CCc2ccccc2)c[nH]1

>  <score_type>  (4) 
oracle

>  <origin>  (4) 
adg

>  <m_score__min__energy>  (4) 
-7.5999999999999996

>  <m_primary>  (4) 
energy

$$$$
4:0
     RDKit          3D

 51 54  0  0  0  0  0  0  0  0999 V2000
   56.8776   31.4477   51.7401 H   0  0  0  0  0  0  0  0  0  0  0  0
   55.8060   31.4940   51.9840 C   0  0  0  0  0  0  0  0  0  0  0  0
   55.2380   32.4166   51.7938 H   0  0  0  0  0  0  0  0  0  0  0  0
   55.1910   30.4240   52.5140 C   0  0  0  0  0  0  0  0  0  0  0  0
   53.8380   30.3220   52.8790 C   0  0  0  0  0  0  0  0  0  0  0  0
   52.7930   31.1390   52.6430 C   0  0  0  0  0  0  0  0  0  0  0  0
   52.4829   31.8053   53.4615 H   0  0  0  0  0  0  0  0  0  0  0  0
   52.0300   31.2190   51.3880 C   0  0  0  0  0  0  0  0  0  0  0  0
   52.1100   30.3020   50.4100 N   0  0  0  0  0  0  0  0  0  0  0  0
   51.3590   30.8350   49.4220 C   0  0  0  0  0  0  0  0  0  0  0  0
   51.1750   30.2500   48.3220 O   0  0  0  0  0  0  0  0  0  0  0  0
   50.8310   32.0450   49.6980 N   0  0  0  0  0  0  0  0  0  0  0  0
   51.2780   32.2820   50.9420 C   0  0  0  0  0  0  0  0  0  0  0  0
   51.0250   33.4560   51.6420 O   0  0  0  0  0  0  0  0  0  0  0  0
   53.7150   29.1360   53.5820 C   0  0  0  0  0  0  0  0  0  0  0  0
   52.8022   28.7482   54.0578 H   0  0  0  0  0  0  0  0  0  0  0  0
   54.9560   28.5330   53.5720 C   0  0  0  0  0  0  0  0  0  0  0  0
   55.2600   27.2090   54.2030 C   0  0  0  0  0  0  0  0  0  0  0  0
   55.2366   27.3107   55.2980 H   0  0  0  0  0  0  0  0  0  0  0  0
   54.5079   26.4710   53.8872 H   0  0  0  0  0  0  0  0  0  0  0  0
   56.2587   26.8730   53.8872 H   0  0  0  0  0  0  0  0  0  0  0  0
   55.8510   29.3020   52.9080 N   0  0  0  0  0  0  0  0  0  0  0  0
   57.2840   29.0130   52.7480 C   0  0  0  0  0  0  0  0  0  0  0  0
   57.5829   28.2434   53.4749 H   0  0  0  0  0  0  0  0  0  0  0  0
   57.4656   28.6534   51.7244 H   0  0  0  0  0  0  0  0  0  0  0  0
   58.0950   30.2600   52.9820 C   0  0  0  0  0  0  0  0  0  0  0  0
   58.2720   30.6430   54.1710 O   0  0  0  0  0  0  0  0  0  0  0  0
   58.6790   31.0130   51.8950 N   0  0  0  0  0  0  0  0  0  0  0  0
   58.9660   30.3560   50.6070 C   0  0  0  0  0  0  0  0  0  0  0  0
   59.4738   29.3993   50.7990 H   0  0  0  0  0  0  0  0  0  0  0  0
   58.0131   30.1948   50.0817 H   0  0  0  0  0  0  0  0  0  0  0  0
   59.8610   31.2250   49.7220 C   0  0  0  0  0  0  0  0  0  0  0  0
   60.8762   31.2565   50.1444 H   0  0  0  0  0  0  0  0  0  0  0  0
   59.9012   30.8001   48.7082 H   0  0  0  0  0  0  0  0  0  0  0  0
   59.3110   32.5860   49.6640 N   0  0  0  0  0  0  0  0  0  0  0  0
   59.1750   33.2900   48.4160 C   0  0  0  0  0  0  0  0  0  0  0  0
   58.1310   32.9980   47.5890 N   0  0  0  0  0  0  0  0  0  0  0  0
   57.9630   33.6190   46.3900 C   0  0  0  0  0  0  0  0  0  0  0  0
   57.1032   33.3621   45.7538 H   0  0  0  0  0  0  0  0  0  0  0  0
   58.8800   34.5810   45.9670 C   0  0  0  0  0  0  0  0  0  0  0  0
   58.7455   35.0912   45.0018 H   0  0  0  0  0  0  0  0  0  0  0  0
   59.9700   34.8890   46.7820 C   0  0  0  0  0  0  0  0  0  0  0  0
   60.7045   35.6412   46.4584 H   0  0  0  0  0  0  0  0  0  0  0  0
   60.1270   34.2410   48.0090 C   0  0  0  0  0  0  0  0  0  0  0  0
   60.9888   34.4729   48.6520 H   0  0  0  0  0  0  0  0  0  0  0  0
   58.9430   33.2700   50.9120 C   0  0  0  0  0  0  0  0  0  0  0  0
   59.5573   34.1768   51.0142 H   0  0  0  0  0  0  0  0  0  0  0  0
   57.8725   33.5176   50.8602 H   0  0  0  0  0  0  0  0  0  0  0  0
   59.1640   32.3810   52.1430 C   0  0  0  0  0  0  0  0  0  0  0  0
   60.2389   32.3460   52.3741 H   0  0  0  0  0  0  0  0  0  0  0  0
   58.6036   32.8054   52.9891 H   0  0  0  0  0  0  0  0  0  0  0  0
  1  2  1  0
  2  3  1  0
  2  4  2  0
  4  5  1  0
  5  6  2  0
  6  7  1  0
  6  8  1  0
  8  9  1  0
  9 10  1  0
 10 11  2  0
 10 12  1  0
 12 13  1  0
 13 14  1  0
  5 15  1  0
 15 16  1  0
 15 17  2  0
 17 18  1  0
 18 19  1  0
 18 20  1  0
 18 21  1  0
 17 22  1  0
 22 23  1  0
 23 24  1  0
 23 25  1  0
 23 26  1  0
 26 27  2  0
 26 28  1  0
 28 29  1  0
 29 30  1  0
 29 31  1  0
 29 32  1  0
 32 33  1  0
 32 34  1  0
 32 35  1  0
 35 36  1  0
 36 37  2  0
 37 38  1  0
 38 39  1  0
 38 40  2  0
 40 41  1  0
 40 42  1  0
 42 43  1  0
 42 44  2  0
 44 45  1  0
 35 46  1  0
 46 47  1  0
 46 48  1  0
 46 49  1  0
 49 50  1  0
 49 51  1  0
 22  4  1  0
 49 28  1  0
 13  8  2  0
 44 36  1  0
M  CHG  3   9  -1  12  -1  14  -1
M  END
>  <UniqueID>  (5) 
5

>  <SMILES>  (5) 
C=c1/c(=C\c2[n-]c(=O)[n-]c2[O-])cc(C)n1CC(=O)N1CCN(c2ccccn2)CC1

>  <Energy>  (5) 
127.67687813200696

>  <Genealogy>  (5) 
C=c1c(=Cc2[n-]c(=O)[n-]c2[O-])cc(C)n1CC(=O)N1CCN(c2ccccn2)CC1 (protonated)
C=c1/c(=C\c2[n-]c(=O)[n-]c2[O-])cc(C)n1CC(=O)N1CCN(c2ccccn2)CC1 (cis-trans isomerization)
C=c1/c(=C\c2[n-]c(=O)[n-]c2[O-])cc(C)n1CC(=O)N1CCN(c2ccccn2)CC1 (3D coordinates assigned)
C=c1/c(=C\c2[n-]c(=O)[n-]c2[O-])cc(C)n1CC(=O)N1CCN(c2ccccn2)CC1 (nonaromatic ring conformer: 127.67687813200696 kcal/mol)

>  <smiles>  (5) 
C=c1c(=Cc2[nH]c(=O)[nH]c2O)cc(C)n1CC(=O)N1CCN(c2ccccn2)CC1

>  <score_type>  (5) 
oracle

>  <origin>  (5) 
adg

>  <m_score__min__energy>  (5) 
-17.600000000000001

>  <m_primary>  (5) 
energy

$$$$
5:0
     RDKit          3D

 51 54  0  0  0  0  0  0  0  0999 V2000
   56.9060   34.2480   44.0970 H   0  0  0  0  0  0  0  0  0  0  0  0
   56.6480   33.7670   44.9890 N   0  0  0  0  0  0  0  0  0  0  0  0
   56.9270   32.5190   45.1910 C   0  0  0  0  0  0  0  0  0  0  0  0
   57.8550   32.1650   46.1160 N   0  0  0  0  0  0  0  0  0  0  0  0
   58.1650   30.8640   46.3570 C   0  0  0  0  0  0  0  0  0  0  0  0
   59.1740   30.5730   47.4000 C   0  0  0  0  0  0  0  0  0  0  0  0
   58.7800   30.4970   48.7440 C   0  0  0  0  0  0  0  0  0  0  0  0
   57.7222   30.6349   49.0122 H   0  0  0  0  0  0  0  0  0  0  0  0
   59.7240   30.2470   49.7450 C   0  0  0  0  0  0  0  0  0  0  0  0
   59.4068   30.1991   50.7972 H   0  0  0  0  0  0  0  0  0  0  0  0
   61.0740   30.0570   49.4130 C   0  0  0  0  0  0  0  0  0  0  0  0
   62.0910   29.8550   50.5010 C   0  0  0  0  0  0  0  0  0  0  0  0
   61.6648   29.2161   51.2885 H   0  0  0  0  0  0  0  0  0  0  0  0
   62.9862   29.3707   50.0837 H   0  0  0  0  0  0  0  0  0  0  0  0
   62.4550   31.1520   51.0680 N   0  0  0  0  0  0  0  0  0  0  0  0
   63.5200   32.0110   50.6240 C   0  0  0  0  0  0  0  0  0  0  0  0
   64.2960   32.4990   51.4850 O   0  0  0  0  0  0  0  0  0  0  0  0
   63.7450   32.3420   49.1720 C   0  0  0  0  0  0  0  0  0  0  0  0
   64.6032   33.0254   49.0924 H   0  0  0  0  0  0  0  0  0  0  0  0
   63.9344   31.4012   48.6344 H   0  0  0  0  0  0  0  0  0  0  0  0
   62.5390   33.0000   48.5490 C   0  0  0  0  0  0  0  0  0  0  0  0
   61.5040   33.5130   49.3540 C   0  0  0  0  0  0  0  0  0  0  0  0
   61.5571   33.4066   50.4476 H   0  0  0  0  0  0  0  0  0  0  0  0
   60.4090   34.1570   48.7700 C   0  0  0  0  0  0  0  0  0  0  0  0
   59.5989   34.5457   49.4045 H   0  0  0  0  0  0  0  0  0  0  0  0
   60.3410   34.3080   47.3840 C   0  0  0  0  0  0  0  0  0  0  0  0
   59.4743   34.8075   46.9264 H   0  0  0  0  0  0  0  0  0  0  0  0
   61.3770   33.8230   46.5770 C   0  0  0  0  0  0  0  0  0  0  0  0
   61.3279   33.9496   45.4854 H   0  0  0  0  0  0  0  0  0  0  0  0
   62.4740   33.1780   47.1560 C   0  0  0  0  0  0  0  0  0  0  0  0
   63.2904   32.8079   46.5184 H   0  0  0  0  0  0  0  0  0  0  0  0
   61.4640   30.1080   48.0660 C   0  0  0  0  0  0  0  0  0  0  0  0
   62.5192   29.9542   47.7960 H   0  0  0  0  0  0  0  0  0  0  0  0
   60.5200   30.3530   47.0660 C   0  0  0  0  0  0  0  0  0  0  0  0
   60.8326   30.3737   46.0116 H   0  0  0  0  0  0  0  0  0  0  0  0
   57.5180   29.8490   45.6120 C   0  0  0  0  0  0  0  0  0  0  0  0
   57.8620   28.4090   45.7740 C   0  0  0  0  0  0  0  0  0  0  0  0
   59.2010   28.0240   45.9600 C   0  0  0  0  0  0  0  0  0  0  0  0
   59.9893   28.7908   45.9857 H   0  0  0  0  0  0  0  0  0  0  0  0
   59.5420   26.6740   46.1130 C   0  0  0  0  0  0  0  0  0  0  0  0
   61.2270   26.2530   46.3870 Cl  0  0  0  0  0  0  0  0  0  0  0  0
   58.5370   25.6900   46.0570 C   0  0  0  0  0  0  0  0  0  0  0  0
   58.8320   24.3310   46.1700 O   0  0  0  0  0  0  0  0  0  0  0  0
   58.6370   23.6670   45.4330 H   0  0  0  0  0  0  0  0  0  0  0  0
   57.2040   26.0710   45.8810 C   0  0  0  0  0  0  0  0  0  0  0  0
   56.4178   25.3026   45.8437 H   0  0  0  0  0  0  0  0  0  0  0  0
   56.8610   27.4200   45.7520 C   0  0  0  0  0  0  0  0  0  0  0  0
   55.5210   27.7690   45.6150 O   0  0  0  0  0  0  0  0  0  0  0  0
   56.5690   30.2480   44.6490 C   0  0  0  0  0  0  0  0  0  0  0  0
   55.9800   29.3970   43.9320 O   0  0  0  0  0  0  0  0  0  0  0  0
   56.2930   31.5640   44.4690 N   0  0  0  0  0  0  0  0  0  0  0  0
  1  2  1  0
  2  3  2  0
  3  4  1  0
  4  5  1  0
  5  6  1  0
  6  7  2  0
  7  8  1  0
  7  9  1  0
  9 10  1  0
  9 11  2  0
 11 12  1  0
 12 13  1  0
 12 14  1  0
 12 15  1  0
 15 16  1  0
 16 17  2  0
 16 18  1  0
 18 19  1  0
 18 20  1  0
 18 21  1  0
 21 22  2  0
 22 23  1  0
 22 24  1  0
 24 25  1  0
 24 26  2  0
 26 27  1  0
 26 28  1  0
 28 29  1  0
 28 30  2  0
 30 31  1  0
 11 32  1  0
 32 33  1  0
 32 34  2  0
 34 35  1  0
  5 36  2  0
 36 37  1  0
 37 38  2  0
 38 39  1  0
 38 40  1  0
 40 41  1  0
 40 42  2  0
 42 43  1  0
 43 44  1  0
 42 45  1  0
 45 46  1  0
 45 47  2  0
 47 48  1  0
 36 49  1  0
 49 50  2  0
 49 51  1  0
 51  3  1  0
 34  6  1  0
 47 37  1  0
 30 21  1  0
M  CHG  4   4  -1  15  -1  48  -1  51  -1
M  END
>  <UniqueID>  (6) 
6

>  <SMILES>  (6) 
[H]/N=c1\[n-]c(-c2ccc(C[N-]C(=O)Cc3ccccc3)cc2)c(-c2cc(Cl)c(O)cc2[O-])c(=O)[n-]1

>  <Energy>  (6) 
67.32973276772981

>  <Genealogy>  (6) 
N=c1[n-]c(-c2ccc(C[N-]C(=O)Cc3ccccc3)cc2)c(-c2cc(Cl)c(O)cc2[O-])c(=O)[n-]1 (protonated)
[H]/N=c1\[n-]c(-c2ccc(C[N-]C(=O)Cc3ccccc3)cc2)c(-c2cc(Cl)c(O)cc2[O-])c(=O)[n-]1 (cis-trans isomerization)
[H]/N=c1\[n-]c(-c2ccc(C[N-]C(=O)Cc3ccccc3)cc2)c(-c2cc(Cl)c(O)cc2[O-])c(=O)[n-]1 (3D coordinates assigned)
[H]/N=c1\[n-]c(-c2ccc(C[N-]C(=O)Cc3ccccc3)cc2)c(-c2cc(Cl)c(O)cc2[O-])c(=O)[n-]1 (optimized conformer: 67.32973276772981 kcal/mol)

>  <smiles>  (6) 
N=c1[nH]c(-c2ccc(CNC(=O)Cc3ccccc3)cc2)c(-c2cc(Cl)c(O)cc2O)c(=O)[nH]1

>  <score_type>  (6) 
oracle

>  <origin>  (6) 
adg

>  <m_score__min__energy>  (6) 
-13.59

>  <m_primary>  (6) 
energy

$$$$
6:0
     RDKit          3D

 49 52  0  0  0  0  0  0  0  0999 V2000
   55.9010   25.7600   46.0200 C   0  0  0  0  0  0  0  0  0  0  0  0
   57.1340   25.1230   45.5250 N   0  0  0  0  0  0  0  0  0  0  0  0
   58.2450   25.2350   46.5100 C   0  0  0  0  0  0  0  0  0  0  0  0
   59.4840   25.9780   45.9850 C   0  0  0  0  0  0  0  0  0  0  0  0
   59.0780   27.1530   45.2110 N   0  0  0  0  0  0  0  0  0  0  0  0
   59.8900   28.3370   45.2410 C   0  0  0  0  0  0  0  0  0  0  0  0
   61.1460   28.2300   45.2210 O   0  0  0  0  0  0  0  0  0  0  0  0
   59.2840   29.6780   45.3110 C   0  0  0  0  0  0  0  0  0  0  0  0
   59.2750   30.5060   46.4330 C   0  0  0  0  0  0  0  0  0  0  0  0
   58.6550   31.6650   46.0180 C   0  0  0  0  0  0  0  0  0  0  0  0
   58.3840   32.8440   46.7130 C   0  0  0  0  0  0  0  0  0  0  0  0
   58.7510   32.9480   48.0650 O   0  0  0  0  0  0  0  0  0  0  0  0
   59.6660   33.9070   48.5950 C   0  0  0  0  0  0  0  0  0  0  0  0
   61.0690   33.6360   48.1070 C   0  0  0  0  0  0  0  0  0  0  0  0
   61.9830   32.9110   48.8990 C   0  0  0  0  0  0  0  0  0  0  0  0
   61.6260   32.4430   50.1220 F   0  0  0  0  0  0  0  0  0  0  0  0
   63.2760   32.6620   48.4290 C   0  0  0  0  0  0  0  0  0  0  0  0
   63.6660   33.1190   47.1680 C   0  0  0  0  0  0  0  0  0  0  0  0
   62.7630   33.8230   46.3700 C   0  0  0  0  0  0  0  0  0  0  0  0
   61.4670   34.0780   46.8310 C   0  0  0  0  0  0  0  0  0  0  0  0
   60.6030   34.7540   46.0330 F   0  0  0  0  0  0  0  0  0  0  0  0
   57.7410   33.8840   45.9980 C   0  0  0  0  0  0  0  0  0  0  0  0
   57.4060   33.7150   44.6360 C   0  0  0  0  0  0  0  0  0  0  0  0
   57.7040   32.5130   43.9690 C   0  0  0  0  0  0  0  0  0  0  0  0
   58.3300   31.5050   44.6970 C   0  0  0  0  0  0  0  0  0  0  0  0
   58.7140   30.2970   44.2510 N   0  0  0  0  0  0  0  0  0  0  0  0
   58.0600   27.0040   44.1650 C   0  0  0  0  0  0  0  0  0  0  0  0
   57.4770   25.5830   44.1620 C   0  0  0  0  0  0  0  0  0  0  0  0
   55.9037   25.7586   47.1200 H   0  0  0  0  0  0  0  0  0  0  0  0
   55.8516   26.7964   45.6548 H   0  0  0  0  0  0  0  0  0  0  0  0
   55.0272   25.2005   45.6548 H   0  0  0  0  0  0  0  0  0  0  0  0
   57.8694   25.7727   47.3931 H   0  0  0  0  0  0  0  0  0  0  0  0
   58.5672   24.2085   46.7392 H   0  0  0  0  0  0  0  0  0  0  0  0
   60.1028   26.2993   46.8358 H   0  0  0  0  0  0  0  0  0  0  0  0
   60.0601   25.3019   45.3361 H   0  0  0  0  0  0  0  0  0  0  0  0
   59.6759   30.2826   47.4327 H   0  0  0  0  0  0  0  0  0  0  0  0
   59.3603   34.9134   48.2731 H   0  0  0  0  0  0  0  0  0  0  0  0
   59.6546   33.8362   49.6927 H   0  0  0  0  0  0  0  0  0  0  0  0
   63.9886   32.1043   49.0544 H   0  0  0  0  0  0  0  0  0  0  0  0
   64.6854   32.9239   46.8037 H   0  0  0  0  0  0  0  0  0  0  0  0
   63.0712   34.1784   45.3757 H   0  0  0  0  0  0  0  0  0  0  0  0
   57.5009   34.8294   46.5065 H   0  0  0  0  0  0  0  0  0  0  0  0
   56.9075   34.5309   44.0921 H   0  0  0  0  0  0  0  0  0  0  0  0
   57.4508   32.3741   42.9076 H   0  0  0  0  0  0  0  0  0  0  0  0
   58.6010   29.9210   43.2830 H   0  0  0  0  0  0  0  0  0  0  0  0
   57.2493   27.7249   44.3469 H   0  0  0  0  0  0  0  0  0  0  0  0
   58.5309   27.1914   43.1887 H   0  0  0  0  0  0  0  0  0  0  0  0
   56.5669   25.5737   43.5443 H   0  0  0  0  0  0  0  0  0  0  0  0
   58.2402   24.9031   43.7555 H   0  0  0  0  0  0  0  0  0  0  0  0
  1  2  1  0
  2  3  1  0
  3  4  1  0
  4  5  1  0
  5  6  1  0
  6  7  2  0
  6  8  1  0
  8  9  2  0
  9 10  1  0
 10 11  2  0
 11 12  1  0
 12 13  1  0
 13 14  1  0
 14 15  2  0
 15 16  1  0
 15 17  1  0
 17 18  2  0
 18 19  1  0
 19 20  2  0
 20 21  1  0
 11 22  1  0
 22 23  2  0
 23 24  1  0
 24 25  2  0
 25 26  1  0
  5 27  1  0
 27 28  1  0
 28  2  1  0
 26  8  1  0
 25 10  1  0
 20 14  1  0
  1 29  1  0
  1 30  1  0
  1 31  1  0
  3 32  1  0
  3 33  1  0
  4 34  1  0
  4 35  1  0
  9 36  1  0
 13 37  1  0
 13 38  1  0
 17 39  1  0
 18 40  1  0
 19 41  1  0
 22 42  1  0
 23 43  1  0
 24 44  1  0
 26 45  1  0
 27 46  1  0
 27 47  1  0
 28 48  1  0
 28 49  1  0
M  END
>  <UniqueID>  (7) 
7

>  <SMILES>  (7) 
CN1CCN(C(=O)c2cc3c(OCc4c(F)cccc4F)cccc3[nH]2)CC1

>  <Energy>  (7) 
95.61632551342788

>  <Genealogy>  (7) 
CN1CCN(C(=O)c2cc3c(OCc4c(F)cccc4F)cccc3[nH]2)CC1 (3D coordinates assigned)
CN1CCN(C(=O)c2cc3c(OCc4c(F)cccc4F)cccc3[nH]2)CC1 (nonaromatic ring conformer: 95.61632551342788 kcal/mol)

>  <smiles>  (7) 
CN1CCN(C(=O)c2cc3c(OCc4c(F)cccc4F)cccc3[nH]2)CC1

>  <score_type>  (7) 
oracle

>  <origin>  (7) 
adg

>  <m_score__min__energy>  (7) 
-8.5600000000000005

>  <m_primary>  (7) 
energy

$$$$
7:0
     RDKit          3D

 58 61  0  0  0  0  0  0  0  0999 V2000
   52.5922   24.7784   45.6477 H   0  0  0  0  0  0  0  0  0  0  0  0
   53.6920   24.7630   45.6350 C   0  0  0  0  0  0  0  0  0  0  0  0
   54.3920   25.8850   45.9560 N   0  0  0  0  0  0  0  0  0  0  0  0
   55.7530   25.9190   45.9510 C   0  0  0  0  0  0  0  0  0  0  0  0
   56.3490   27.0350   46.2620 N   0  0  0  0  0  0  0  0  0  0  0  0
   57.7440   27.1830   46.6760 C   0  0  0  0  0  0  0  0  0  0  0  0
   58.0943   26.2362   47.1128 H   0  0  0  0  0  0  0  0  0  0  0  0
   57.8106   27.9912   47.4192 H   0  0  0  0  0  0  0  0  0  0  0  0
   58.6310   27.5430   45.4670 C   0  0  0  0  0  0  0  0  0  0  0  0
   59.3134   26.6998   45.2845 H   0  0  0  0  0  0  0  0  0  0  0  0
   59.5160   28.7930   45.7740 C   0  0  0  0  0  0  0  0  0  0  0  0
   60.5700   28.5118   45.6326 H   0  0  0  0  0  0  0  0  0  0  0  0
   59.2882   29.0937   46.8073 H   0  0  0  0  0  0  0  0  0  0  0  0
   59.2200   30.0120   44.8860 C   0  0  0  0  0  0  0  0  0  0  0  0
   59.6928   29.8685   43.9032 H   0  0  0  0  0  0  0  0  0  0  0  0
   59.6233   30.9138   45.3699 H   0  0  0  0  0  0  0  0  0  0  0  0
   57.7310   30.1770   44.7030 C   0  0  0  0  0  0  0  0  0  0  0  0
   57.1000   31.2960   44.9240 N   0  0  0  0  0  0  0  0  0  0  0  0
   57.3900   32.5680   44.3320 C   0  0  0  0  0  0  0  0  0  0  0  0
   57.6780   32.6270   43.1080 O   0  0  0  0  0  0  0  0  0  0  0  0
   57.2990   33.8380   45.1330 C   0  0  0  0  0  0  0  0  0  0  0  0
   57.3515   34.6987   44.4500 H   0  0  0  0  0  0  0  0  0  0  0  0
   56.3455   33.8391   45.6814 H   0  0  0  0  0  0  0  0  0  0  0  0
   58.4170   33.9290   46.1210 C   0  0  0  0  0  0  0  0  0  0  0  0
   58.2470   33.8240   47.4580 N   0  0  0  0  0  0  0  0  0  0  0  0
   59.3880   33.9090   48.1390 N   0  0  0  0  0  0  0  0  0  0  0  0
   59.3900   33.8790   49.1810 H   0  0  0  0  0  0  0  0  0  0  0  0
   60.4780   34.0680   47.3460 C   0  0  0  0  0  0  0  0  0  0  0  0
   61.7070   34.1940   47.7550 N   0  0  0  0  0  0  0  0  0  0  0  0
   62.9000   33.6440   47.1740 C   0  0  0  0  0  0  0  0  0  0  0  0
   63.3950   34.1220   46.1170 O   0  0  0  0  0  0  0  0  0  0  0  0
   63.6240   32.5450   47.8880 C   0  0  0  0  0  0  0  0  0  0  0  0
   64.2541   32.0003   47.1695 H   0  0  0  0  0  0  0  0  0  0  0  0
   64.2463   32.9858   48.6808 H   0  0  0  0  0  0  0  0  0  0  0  0
   62.6450   31.5870   48.5140 C   0  0  0  0  0  0  0  0  0  0  0  0
   62.7220   31.2870   49.8840 C   0  0  0  0  0  0  0  0  0  0  0  0
   63.5192   31.7310   50.4982 H   0  0  0  0  0  0  0  0  0  0  0  0
   61.7890   30.4260   50.4700 C   0  0  0  0  0  0  0  0  0  0  0  0
   61.8578   30.1888   51.5419 H   0  0  0  0  0  0  0  0  0  0  0  0
   60.7700   29.8670   49.6960 C   0  0  0  0  0  0  0  0  0  0  0  0
   60.0392   29.1869   50.1578 H   0  0  0  0  0  0  0  0  0  0  0  0
   60.6780   30.1710   48.3350 C   0  0  0  0  0  0  0  0  0  0  0  0
   59.8727   29.7327   47.7273 H   0  0  0  0  0  0  0  0  0  0  0  0
   61.6090   31.0320   47.7450 C   0  0  0  0  0  0  0  0  0  0  0  0
   61.5296   31.2753   46.6752 H   0  0  0  0  0  0  0  0  0  0  0  0
   60.0430   34.1330   45.7240 S   0  0  0  0  0  0  0  0  0  0  0  0
   56.9450   29.0020   44.1920 C   0  0  0  0  0  0  0  0  0  0  0  0
   56.6038   29.2187   43.1690 H   0  0  0  0  0  0  0  0  0  0  0  0
   56.0906   28.8409   44.8659 H   0  0  0  0  0  0  0  0  0  0  0  0
   57.7920   27.7170   44.1740 C   0  0  0  0  0  0  0  0  0  0  0  0
   58.4749   27.7562   43.3125 H   0  0  0  0  0  0  0  0  0  0  0  0
   57.1030   26.8624   44.1040 H   0  0  0  0  0  0  0  0  0  0  0  0
   56.4670   24.7500   45.6070 C   0  0  0  0  0  0  0  0  0  0  0  0
   57.5670   24.7536   45.5998 H   0  0  0  0  0  0  0  0  0  0  0  0
   55.7640   23.5890   45.2760 C   0  0  0  0  0  0  0  0  0  0  0  0
   56.3092   22.6729   45.0049 H   0  0  0  0  0  0  0  0  0  0  0  0
   54.3690   23.5940   45.2900 C   0  0  0  0  0  0  0  0  0  0  0  0
   53.8082   22.6838   45.0312 H   0  0  0  0  0  0  0  0  0  0  0  0
  1  2  1  0
  2  3  1  0
  3  4  1  0
  4  5  2  3
  5  6  1  0
  6  7  1  0
  6  8  1  0
  6  9  1  0
  9 10  1  0
  9 11  1  0
 11 12  1  0
 11 13  1  0
 11 14  1  0
 14 15  1  0
 14 16  1  0
 14 17  1  0
 17 18  2  3
 18 19  1  0
 19 20  2  0
 19 21  1  0
 21 22  1  0
 21 23  1  0
 21 24  1  0
 24 25  2  0
 25 26  1  0
 26 27  1  0
 26 28  1  0
 28 29  2  0
 29 30  1  0
 30 31  2  0
 30 32  1  0
 32 33  1  0
 32 34  1  0
 32 35  1  0
 35 36  2  0
 36 37  1  0
 36 38  1  0
 38 39  1  0
 38 40  2  0
 40 41  1  0
 40 42  1  0
 42 43  1  0
 42 44  2  0
 44 45  1  0
 28 46  1  0
 17 47  1  0
 47 48  1  0
 47 49  1  0
 47 50  1  0
 50 51  1  0
 50 52  1  0
  4 53  1  0
 53 54  1  0
 53 55  2  0
 55 56  1  0
 55 57  1  0
 57 58  1  0
 57  2  2  0
 50  9  1  0
 46 24  1  0
 44 35  1  0
M  CHG  1   3  -1
M  END
>  <UniqueID>  (8) 
8

>  <SMILES>  (8) 
O=C(Cc1n[nH]/c(=N\C(=O)Cc2ccccc2)s1)N=C1CCC(CN=c2cccc[n-]2)CC1

>  <Energy>  (8) 
105.11385594647504

>  <Genealogy>  (8) 
O=C(Cc1n[nH]c(=NC(=O)Cc2ccccc2)s1)N=C1CCC(CN=c2cccc[n-]2)CC1 (protonated)
O=C(Cc1n[nH]/c(=N\C(=O)Cc2ccccc2)s1)N=C1CCC(CN=c2cccc[n-]2)CC1 (cis-trans isomerization)
O=C(Cc1n[nH]/c(=N\C(=O)Cc2ccccc2)s1)N=C1CCC(CN=c2cccc[n-]2)CC1 (3D coordinates assigned)
O=C(Cc1n[nH]/c(=N\C(=O)Cc2ccccc2)s1)N=C1CCC(CN=c2cccc[n-]2)CC1 (nonaromatic ring conformer: 105.11385594647504 kcal/mol)

>  <smiles>  (8) 
O=C(Cc1n[nH]c(=NC(=O)Cc2ccccc2)s1)N=C1CCC(CN=c2cccc[nH]2)CC1

>  <score_type>  (8) 
oracle

>  <origin>  (8) 
adg

>  <m_score__min__energy>  (8) 
-11.779999999999999

>  <m_primary>  (8) 
energy

$$$$
8:0
     RDKit          3D

 63 66  0  0  0  0  0  0  0  0999 V2000
   58.1058   32.3528   42.5614 H   0  0  0  0  0  0  0  0  0  0  0  0
   57.3150   31.5980   42.4390 C   0  0  0  0  0  0  0  0  0  0  0  0
   56.8760   31.4173   41.4467 H   0  0  0  0  0  0  0  0  0  0  0  0
   56.8880   30.9010   43.4950 C   0  0  0  0  0  0  0  0  0  0  0  0
   57.3348   31.0907   44.4821 H   0  0  0  0  0  0  0  0  0  0  0  0
   55.8130   29.8660   43.3630 C   0  0  0  0  0  0  0  0  0  0  0  0
   54.9077   30.3300   42.9444 H   0  0  0  0  0  0  0  0  0  0  0  0
   56.1588   29.0638   42.6945 H   0  0  0  0  0  0  0  0  0  0  0  0
   55.5080   29.3040   44.6780 N   0  0  0  0  0  0  0  0  0  0  0  0
   56.3020   28.5030   45.3240 C   0  0  0  0  0  0  0  0  0  0  0  0
   57.5460   28.9040   45.6930 N   0  0  0  0  0  0  0  0  0  0  0  0
   58.3740   28.0570   46.3600 C   0  0  0  0  0  0  0  0  0  0  0  0
   59.5700   28.4270   46.7160 N   0  0  0  0  0  0  0  0  0  0  0  0
   59.9270   29.3380   47.8130 C   0  0  2  0  0  0  0  0  0  0  0  0
   60.5631   30.1281   47.3873 H   0  0  0  0  0  0  0  0  0  0  0  0
   60.7770   28.6370   48.8990 C   0  0  0  0  0  0  0  0  0  0  0  0
   60.6294   27.5502   48.8152 H   0  0  0  0  0  0  0  0  0  0  0  0
   61.8277   28.9171   48.7329 H   0  0  0  0  0  0  0  0  0  0  0  0
   60.3950   29.0790   50.3260 C   0  0  0  0  0  0  0  0  0  0  0  0
   59.4778   28.5506   50.6252 H   0  0  0  0  0  0  0  0  0  0  0  0
   61.2381   28.8335   50.9885 H   0  0  0  0  0  0  0  0  0  0  0  0
   60.1560   30.5380   50.4240 N   0  0  1  0  0  0  0  0  0  0  0  0
   59.8110   30.7300   51.3920 H   0  0  0  0  0  0  0  0  0  0  0  0
   61.4040   31.2660   50.2490 C   0  0  0  0  0  0  0  0  0  0  0  0
   62.2290   31.3290   51.2070 O   0  0  0  0  0  0  0  0  0  0  0  0
   61.7250   32.0080   48.9890 C   0  0  0  0  0  0  0  0  0  0  0  0
   62.9650   31.7960   48.3590 C   0  0  0  0  0  0  0  0  0  0  0  0
   63.6781   31.0721   48.7803 H   0  0  0  0  0  0  0  0  0  0  0  0
   63.2920   32.5020   47.2010 C   0  0  0  0  0  0  0  0  0  0  0  0
   64.2625   32.3346   46.7110 H   0  0  0  0  0  0  0  0  0  0  0  0
   62.4130   33.3960   46.6780 N   0  0  0  0  0  0  0  0  0  0  0  0
   61.2010   33.6300   47.2510 C   0  0  0  0  0  0  0  0  0  0  0  0
   60.3780   34.4920   46.7350 N   0  0  0  0  0  0  0  0  0  0  0  0
   58.8450   34.0750   46.0340 S   0  0  0  0  0  0  0  0  0  0  0  0
   58.5770   34.9550   44.8440 O   0  0  0  0  0  0  0  0  0  0  0  0
   57.7660   34.2950   47.0550 O   0  0  0  0  0  0  0  0  0  0  0  0
   58.8440   32.3650   45.5410 C   0  0  0  0  0  0  0  0  0  0  0  0
   58.8436   31.7254   46.4359 H   0  0  0  0  0  0  0  0  0  0  0  0
   57.9457   32.1569   44.9412 H   0  0  0  0  0  0  0  0  0  0  0  0
   59.7420   32.1558   44.9412 H   0  0  0  0  0  0  0  0  0  0  0  0
   60.8370   32.9410   48.4150 C   0  0  0  0  0  0  0  0  0  0  0  0
   59.8584   33.1277   48.8814 H   0  0  0  0  0  0  0  0  0  0  0  0
   59.0710   31.0210   49.5140 C   0  0  0  0  0  0  0  0  0  0  0  0
   58.1759   31.2197   50.1216 H   0  0  0  0  0  0  0  0  0  0  0  0
   59.4591   31.9205   49.0137 H   0  0  0  0  0  0  0  0  0  0  0  0
   58.6850   30.0290   48.3970 C   0  0  0  0  0  0  0  0  0  0  0  0
   58.0117   29.2650   48.8128 H   0  0  0  0  0  0  0  0  0  0  0  0
   58.1869   30.5885   47.5915 H   0  0  0  0  0  0  0  0  0  0  0  0
   57.9490   26.8030   46.6550 N   0  0  0  0  0  0  0  0  0  0  0  0
   56.7090   26.3880   46.2760 C   0  0  0  0  0  0  0  0  0  0  0  0
   56.2870   25.1870   46.5480 N   0  0  0  0  0  0  0  0  0  0  0  0
   56.4830   24.0180   45.7390 C   0  0  0  0  0  0  0  0  0  0  0  0
   56.2410   24.1080   44.3620 C   0  0  0  0  0  0  0  0  0  0  0  0
   55.8812   25.0539   43.9310 H   0  0  0  0  0  0  0  0  0  0  0  0
   56.4540   23.0030   43.5320 C   0  0  0  0  0  0  0  0  0  0  0  0
   56.2502   23.0781   42.4537 H   0  0  0  0  0  0  0  0  0  0  0  0
   56.9250   21.8050   44.0710 C   0  0  0  0  0  0  0  0  0  0  0  0
   57.0766   20.9315   43.4198 H   0  0  0  0  0  0  0  0  0  0  0  0
   57.2040   21.7140   45.4360 C   0  0  0  0  0  0  0  0  0  0  0  0
   57.5832   20.7708   45.8562 H   0  0  0  0  0  0  0  0  0  0  0  0
   57.0030   22.8180   46.2710 C   0  0  0  0  0  0  0  0  0  0  0  0
   57.3510   22.7230   47.6130 O   0  0  0  0  0  0  0  0  0  0  0  0
   55.8860   27.2460   45.6230 N   0  0  0  0  0  0  0  0  0  0  0  0
  1  2  1  0
  2  3  1  0
  2  4  2  0
  4  5  1  0
  4  6  1  0
  6  7  1  0
  6  8  1  0
  6  9  1  0
  9 10  2  3
 10 11  1  0
 11 12  1  0
 12 13  2  3
 13 14  1  0
 14 15  1  6
 14 16  1  0
 16 17  1  0
 16 18  1  0
 16 19  1  0
 19 20  1  0
 19 21  1  0
 19 22  1  0
 22 23  1  1
 22 24  1  0
 24 25  2  0
 24 26  1  0
 26 27  1  0
 27 28  1  0
 27 29  2  0
 29 30  1  0
 29 31  1  0
 31 32  1  0
 32 33  2  3
 33 34  1  0
 34 35  2  0
 34 36  2  0
 34 37  1  0
 37 38  1  0
 37 39  1  0
 37 40  1  0
 32 41  1  0
 41 42  1  0
 22 43  1  0
 43 44  1  0
 43 45  1  0
 43 46  1  0
 46 47  1  0
 46 48  1  0
 12 49  1  0
 49 50  1  0
 50 51  2  0
 51 52  1  0
 52 53  2  0
 53 54  1  0
 53 55  1  0
 55 56  1  0
 55 57  2  0
 57 58  1  0
 57 59  1  0
 59 60  1  0
 59 61  2  0
 61 62  1  0
 50 63  1  0
 63 10  1  0
 46 14  1  0
 61 52  1  0
 41 26  2  0
M  CHG  6  11  -1  22   1  31  -1  49  -1  62  -1  63  -1
M  END
>  <UniqueID>  (9) 
9

>  <SMILES>  (9) 
C=CCN=c1[n-]c(=NC2CC[NH+](C(=O)c3cc[n-]c(=NS(C)(=O)=O)c3)CC2)[n-]/c(=N\c2ccccc2[O-])[n-]1

>  <Energy>  (9) 
85.72020969164983

>  <Genealogy>  (9) 
C=CCN=c1[n-]c(=Nc2ccccc2[O-])[n-]c(=NC2CC[NH+](C(=O)c3cc[n-]c(=NS(C)(=O)=O)c3)CC2)[n-]1 (protonated)
C=CCN=c1[n-]c(=NC2CC[NH+](C(=O)c3cc[n-]c(=NS(C)(=O)=O)c3)CC2)[n-]/c(=N\c2ccccc2[O-])[n-]1 (cis-trans isomerization)
C=CCN=c1[n-]c(=NC2CC[NH+](C(=O)c3cc[n-]c(=NS(C)(=O)=O)c3)CC2)[n-]/c(=N\c2ccccc2[O-])[n-]1 (3D coordinates assigned)
C=CCN=c1[n-]c(=NC2CC[NH+](C(=O)c3cc[n-]c(=NS(C)(=O)=O)c3)CC2)[n-]/c(=N\c2ccccc2[O-])[n-]1 (nonaromatic ring conformer: 85.72020969164983 kcal/mol)

>  <smiles>  (9) 
C=CCN=c1[nH]c(=Nc2ccccc2O)[nH]c(=NC2CCN(C(=O)c3cc[nH]c(=NS(C)(=O)=O)c3)CC2)[nH]1

>  <score_type>  (9) 
oracle

>  <origin>  (9) 
adg

>  <m_score__min__energy>  (9) 
-16.670000000000002

>  <m_primary>  (9) 
energy

$$$$
9:0
     RDKit          3D

 52 54  0  0  0  0  0  0  0  0999 V2000
   56.7600   29.7540   45.7720 O   0  0  0  0  0  0  0  0  0  0  0  0
   57.8770   29.4220   46.2530 C   0  0  0  0  0  0  0  0  0  0  0  0
   58.0860   28.0230   46.7440 C   0  0  0  0  0  0  0  0  0  0  0  0
   57.7560   26.9920   45.6610 C   0  0  0  0  0  0  0  0  0  0  0  0
   57.1100   25.7700   46.2410 C   0  0  0  0  0  0  0  0  0  0  0  0
   57.7880   24.7390   46.7770 N   0  0  0  0  0  0  0  0  0  0  0  0
   56.8120   23.8820   47.1430 C   0  0  0  0  0  0  0  0  0  0  0  0
   57.0490   22.7830   47.7110 O   0  0  0  0  0  0  0  0  0  0  0  0
   55.5590   24.3020   46.8710 N   0  0  0  0  0  0  0  0  0  0  0  0
   55.7650   25.4990   46.2970 C   0  0  0  0  0  0  0  0  0  0  0  0
   54.7470   26.3300   45.8420 O   0  0  0  0  0  0  0  0  0  0  0  0
   58.9530   30.3660   46.3180 N   0  0  0  0  0  0  0  0  0  0  0  0
   60.1920   30.1300   47.0510 C   0  0  0  0  0  0  0  0  0  0  0  0
   60.0730   30.6390   48.4610 C   0  0  0  0  0  0  0  0  0  0  0  0
   61.2200   30.9960   49.1890 C   0  0  0  0  0  0  0  0  0  0  0  0
   61.1070   31.4580   50.5020 C   0  0  0  0  0  0  0  0  0  0  0  0
   59.8480   31.5720   51.0990 C   0  0  0  0  0  0  0  0  0  0  0  0
   58.6920   31.2280   50.3830 C   0  0  0  0  0  0  0  0  0  0  0  0
   57.3430   31.3170   51.0350 C   0  0  0  0  0  0  0  0  0  0  0  0
   56.9790   30.0100   51.5740 N   0  0  0  0  0  0  0  0  0  0  0  0
   57.1110   29.5950   52.9400 C   0  0  0  0  0  0  0  0  0  0  0  0
   58.2120   29.1100   53.3140 O   0  0  0  0  0  0  0  0  0  0  0  0
   55.9830   29.6490   53.8950 C   0  0  0  0  0  0  0  0  0  0  0  0
   56.0940   30.3060   54.9640 O   0  0  0  0  0  0  0  0  0  0  0  0
   54.6610   29.0130   53.5710 C   0  0  0  0  0  0  0  0  0  0  0  0
   53.7270   30.0340   52.9790 C   0  0  0  0  0  0  0  0  0  0  0  0
   52.6450   30.5290   53.7280 C   0  0  0  0  0  0  0  0  0  0  0  0
   51.7500   31.4390   53.1550 C   0  0  0  0  0  0  0  0  0  0  0  0
   51.9240   31.8570   51.8320 C   0  0  0  0  0  0  0  0  0  0  0  0
   51.0300   32.7570   51.2640 O   0  0  0  0  0  0  0  0  0  0  0  0
   52.9930   31.3630   51.0790 C   0  0  0  0  0  0  0  0  0  0  0  0
   53.8880   30.4500   51.6470 C   0  0  0  0  0  0  0  0  0  0  0  0
   58.8130   30.7390   49.0710 C   0  0  0  0  0  0  0  0  0  0  0  0
   59.1377   27.9027   47.0432 H   0  0  0  0  0  0  0  0  0  0  0  0
   57.4136   27.8533   47.5979 H   0  0  0  0  0  0  0  0  0  0  0  0
   57.0691   27.4471   44.9323 H   0  0  0  0  0  0  0  0  0  0  0  0
   58.6961   26.6877   45.1778 H   0  0  0  0  0  0  0  0  0  0  0  0
   54.7690   27.3260   46.0350 H   0  0  0  0  0  0  0  0  0  0  0  0
   60.4004   29.0501   47.0720 H   0  0  0  0  0  0  0  0  0  0  0  0
   61.0114   30.6638   46.5473 H   0  0  0  0  0  0  0  0  0  0  0  0
   62.2125   30.9112   48.7224 H   0  0  0  0  0  0  0  0  0  0  0  0
   62.0098   31.7326   51.0673 H   0  0  0  0  0  0  0  0  0  0  0  0
   59.7636   31.9330   52.1346 H   0  0  0  0  0  0  0  0  0  0  0  0
   57.3774   32.0540   51.8508 H   0  0  0  0  0  0  0  0  0  0  0  0
   56.5950   31.6297   50.2916 H   0  0  0  0  0  0  0  0  0  0  0  0
   54.8164   28.1993   52.8473 H   0  0  0  0  0  0  0  0  0  0  0  0
   54.2180   28.6128   54.4949 H   0  0  0  0  0  0  0  0  0  0  0  0
   52.5017   30.1998   54.7678 H   0  0  0  0  0  0  0  0  0  0  0  0
   50.9075   31.8265   53.7466 H   0  0  0  0  0  0  0  0  0  0  0  0
   53.1307   31.6925   50.0386 H   0  0  0  0  0  0  0  0  0  0  0  0
   54.7219   30.0559   51.0476 H   0  0  0  0  0  0  0  0  0  0  0  0
   57.9131   30.4322   48.5178 H   0  0  0  0  0  0  0  0  0  0  0  0
  1  2  2  0
  2  3  1  0
  3  4  1  0
  4  5  1  0
  5  6  1  0
  6  7  1  0
  7  8  2  0
  7  9  1  0
  9 10  1  0
 10 11  1  0
  2 12  1  0
 12 13  1  0
 13 14  1  0
 14 15  2  0
 15 16  1  0
 16 17  2  0
 17 18  1  0
 18 19  1  0
 19 20  1  0
 20 21  1  0
 21 22  2  0
 21 23  1  0
 23 24  2  0
 23 25  1  0
 25 26  1  0
 26 27  2  0
 27 28  1  0
 28 29  2  0
 29 30  1  0
 29 31  1  0
 31 32  2  0
 18 33  2  0
 10  5  2  0
 33 14  1  0
 32 26  1  0
  3 34  1  0
  3 35  1  0
  4 36  1  0
  4 37  1  0
 11 38  1  0
 13 39  1  0
 13 40  1  0
 15 41  1  0
 16 42  1  0
 17 43  1  0
 19 44  1  0
 19 45  1  0
 25 46  1  0
 25 47  1  0
 27 48  1  0
 28 49  1  0
 31 50  1  0
 32 51  1  0
 33 52  1  0
M  CHG  5   6  -1   9  -1  12  -1  20  -1  30  -1
M  END
>  <UniqueID>  (10) 
10

>  <SMILES>  (10) 
O=C(CCc1[n-]c(=O)[n-]c1O)[N-]Cc1cccc(C[N-]C(=O)C(=O)Cc2ccc([O-])cc2)c1

>  <Energy>  (10) 
72.59974936270831

>  <Genealogy>  (10) 
O=C(CCc1[n-]c(=O)[n-]c1O)[N-]Cc1cccc(C[N-]C(=O)C(=O)Cc2ccc([O-])cc2)c1 (protonated)
O=C(CCc1[n-]c(=O)[n-]c1O)[N-]Cc1cccc(C[N-]C(=O)C(=O)Cc2ccc([O-])cc2)c1 (3D coordinates assigned)
O=C(CCc1[n-]c(=O)[n-]c1O)[N-]Cc1cccc(C[N-]C(=O)C(=O)Cc2ccc([O-])cc2)c1 (optimized conformer: 72.59974936270831 kcal/mol)

>  <smiles>  (10) 
O=C(CCc1[nH]c(=O)[nH]c1O)NCc1cccc(CNC(=O)C(=O)Cc2ccc(O)cc2)c1

>  <score_type>  (10) 
oracle

>  <origin>  (10) 
adg

>  <m_score__min__energy>  (10) 
-19.100000000000001

>  <m_primary>  (10) 
energy

$$$$
10:0
     RDKit          3D

 31 33  0  0  0  0  0  0  0  0999 V2000
   60.0322   29.9219   46.5750 H   0  0  0  0  0  0  0  0  0  0  0  0
   59.4530   29.0790   46.1700 C   0  0  0  0  0  0  0  0  0  0  0  0
   59.7960   28.0468   46.3339 H   0  0  0  0  0  0  0  0  0  0  0  0
   58.3280   29.3100   45.4760 C   0  0  0  0  0  0  0  0  0  0  0  0
   57.4610   28.3760   44.8860 C   0  0  0  0  0  0  0  0  0  0  0  0
   57.6060   27.0510   44.7010 C   0  0  0  0  0  0  0  0  0  0  0  0
   57.9419   26.7171   43.7082 H   0  0  0  0  0  0  0  0  0  0  0  0
   57.3540   26.0060   45.7130 C   0  0  0  0  0  0  0  0  0  0  0  0
   56.0970   25.8760   46.3300 C   0  0  0  0  0  0  0  0  0  0  0  0
   55.0420   26.7090   45.9760 O   0  0  0  0  0  0  0  0  0  0  0  0
   55.9080   24.9310   47.2880 N   0  0  0  0  0  0  0  0  0  0  0  0
   56.9210   24.1160   47.6780 C   0  0  0  0  0  0  0  0  0  0  0  0
   56.7210   23.2470   48.5650 O   0  0  0  0  0  0  0  0  0  0  0  0
   58.1510   24.2420   47.1180 N   0  0  0  0  0  0  0  0  0  0  0  0
   58.3910   25.1700   46.1540 C   0  0  0  0  0  0  0  0  0  0  0  0
   59.5460   25.2630   45.6600 O   0  0  0  0  0  0  0  0  0  0  0  0
   56.3460   29.0140   44.4680 N   0  0  0  0  0  0  0  0  0  0  0  0
   56.5650   30.3080   44.7710 C   0  0  0  0  0  0  0  0  0  0  0  0
   55.7330   31.2180   44.5120 O   0  0  0  0  0  0  0  0  0  0  0  0
   57.7550   30.5310   45.3620 N   0  0  0  0  0  0  0  0  0  0  0  0
   58.2540   31.8020   45.8160 C   0  0  0  0  0  0  0  0  0  0  0  0
   58.5140   32.0060   47.1810 C   0  0  0  0  0  0  0  0  0  0  0  0
   58.3373   31.1920   47.8994 H   0  0  0  0  0  0  0  0  0  0  0  0
   58.9960   33.2380   47.6310 C   0  0  0  0  0  0  0  0  0  0  0  0
   59.2040   33.3891   48.7005 H   0  0  0  0  0  0  0  0  0  0  0  0
   59.2140   34.2780   46.7240 C   0  0  0  0  0  0  0  0  0  0  0  0
   59.5960   35.2463   47.0796 H   0  0  0  0  0  0  0  0  0  0  0  0
   58.9470   34.0890   45.3650 C   0  0  0  0  0  0  0  0  0  0  0  0
   59.1184   34.9097   44.6529 H   0  0  0  0  0  0  0  0  0  0  0  0
   58.4620   32.8580   44.9080 C   0  0  0  0  0  0  0  0  0  0  0  0
   58.1750   32.6930   43.5580 O   0  0  0  0  0  0  0  0  0  0  0  0
  1  2  1  0
  2  3  1  0
  2  4  2  0
  4  5  1  0
  5  6  2  0
  6  7  1  0
  6  8  1  0
  8  9  2  0
  9 10  1  0
  9 11  1  0
 11 12  1  0
 12 13  2  0
 12 14  1  0
 14 15  1  0
 15 16  2  0
  5 17  1  0
 17 18  1  0
 18 19  2  0
 18 20  1  0
 20 21  1  0
 21 22  2  0
 22 23  1  0
 22 24  1  0
 24 25  1  0
 24 26  2  0
 26 27  1  0
 26 28  1  0
 28 29  1  0
 28 30  2  0
 30 31  1  0
 20  4  1  0
 30 21  1  0
 15  8  1  0
M  CHG  5  10  -1  11  -1  14  -1  17  -1  31  -1
M  END
>  <UniqueID>  (11) 
11

>  <SMILES>  (11) 
C=c1/c(=C\c2c([O-])[n-]c(=O)[n-]c2=O)[n-]c(=O)n1-c1ccccc1[O-]

>  <Energy>  (11) 
88.95400816644117

>  <Genealogy>  (11) 
C=c1c(=Cc2c([O-])[n-]c(=O)[n-]c2=O)[n-]c(=O)n1-c1ccccc1[O-] (protonated)
C=c1/c(=C\c2c([O-])[n-]c(=O)[n-]c2=O)[n-]c(=O)n1-c1ccccc1[O-] (cis-trans isomerization)
C=c1/c(=C\c2c([O-])[n-]c(=O)[n-]c2=O)[n-]c(=O)n1-c1ccccc1[O-] (3D coordinates assigned)
C=c1/c(=C\c2c([O-])[n-]c(=O)[n-]c2=O)[n-]c(=O)n1-c1ccccc1[O-] (optimized conformer: 88.95400816644117 kcal/mol)

>  <smiles>  (11) 
C=c1c(=Cc2c(O)[nH]c(=O)[nH]c2=O)[nH]c(=O)n1-c1ccccc1O

>  <score_type>  (11) 
oracle

>  <origin>  (11) 
adg

>  <m_score__min__energy>  (11) 
-17.579999999999998

>  <m_primary>  (11) 
energy

$$$$
11:0
     RDKit          3D

 41 43  0  0  0  0  0  0  0  0999 V2000
   62.7540   33.8630   46.4590 C   0  0  0  0  0  0  0  0  0  0  0  0
   61.2840   33.6540   46.6140 C   0  0  0  0  0  0  0  0  0  0  0  0
   60.6580   33.0920   47.7120 C   0  0  0  0  0  0  0  0  0  0  0  0
   59.3150   33.1650   47.4040 C   0  0  0  0  0  0  0  0  0  0  0  0
   58.1930   32.6760   48.2670 C   0  0  0  0  0  0  0  0  0  0  0  0
   59.1740   33.7630   46.2010 N   0  0  0  0  0  0  0  0  0  0  0  0
   57.9310   33.9900   45.4690 C   0  0  0  0  0  0  0  0  0  0  0  0
   57.5790   32.7680   44.6820 C   0  0  0  0  0  0  0  0  0  0  0  0
   58.1060   32.4130   43.4550 C   0  0  0  0  0  0  0  0  0  0  0  0
   57.4760   31.2390   43.1040 C   0  0  0  0  0  0  0  0  0  0  0  0
   56.6050   30.9550   44.1400 C   0  0  0  0  0  0  0  0  0  0  0  0
   55.7090   29.7970   44.2230 C   0  0  0  0  0  0  0  0  0  0  0  0
   54.7720   29.6740   43.3890 O   0  0  0  0  0  0  0  0  0  0  0  0
   55.9010   28.8150   45.2430 N   0  0  0  0  0  0  0  0  0  0  0  0
   57.2860   27.7780   45.2830 S   0  0  0  0  0  0  0  0  0  0  0  0
   56.9130   26.4730   45.9300 O   0  0  0  0  0  0  0  0  0  0  0  0
   57.7430   27.5020   43.8780 O   0  0  0  0  0  0  0  0  0  0  0  0
   58.5860   28.5680   46.1680 C   0  0  0  0  0  0  0  0  0  0  0  0
   59.5430   29.3170   45.4700 C   0  0  0  0  0  0  0  0  0  0  0  0
   60.5730   29.9620   46.1630 C   0  0  0  0  0  0  0  0  0  0  0  0
   60.6490   29.8630   47.5560 C   0  0  0  0  0  0  0  0  0  0  0  0
   59.6940   29.1200   48.2560 C   0  0  0  0  0  0  0  0  0  0  0  0
   58.6630   28.4740   47.5650 C   0  0  0  0  0  0  0  0  0  0  0  0
   56.6880   31.8840   45.0640 O   0  0  0  0  0  0  0  0  0  0  0  0
   60.3690   34.0600   45.7130 N   0  0  0  0  0  0  0  0  0  0  0  0
   63.2217   33.9295   47.4524 H   0  0  0  0  0  0  0  0  0  0  0  0
   63.1882   33.0176   45.9052 H   0  0  0  0  0  0  0  0  0  0  0  0
   62.9353   34.7960   45.9052 H   0  0  0  0  0  0  0  0  0  0  0  0
   61.1232   32.6818   48.6205 H   0  0  0  0  0  0  0  0  0  0  0  0
   58.4662   32.7950   49.3259 H   0  0  0  0  0  0  0  0  0  0  0  0
   57.2855   33.2602   48.0545 H   0  0  0  0  0  0  0  0  0  0  0  0
   58.0032   31.6135   48.0545 H   0  0  0  0  0  0  0  0  0  0  0  0
   57.1225   34.2117   46.1812 H   0  0  0  0  0  0  0  0  0  0  0  0
   58.0623   34.8398   44.7830 H   0  0  0  0  0  0  0  0  0  0  0  0
   58.8699   32.9551   42.8782 H   0  0  0  0  0  0  0  0  0  0  0  0
   57.6333   30.6494   42.1888 H   0  0  0  0  0  0  0  0  0  0  0  0
   59.4841   29.3979   44.3746 H   0  0  0  0  0  0  0  0  0  0  0  0
   61.3237   30.5475   45.6119 H   0  0  0  0  0  0  0  0  0  0  0  0
   61.4597   30.3694   48.1004 H   0  0  0  0  0  0  0  0  0  0  0  0
   59.7531   29.0431   49.3517 H   0  0  0  0  0  0  0  0  0  0  0  0
   57.9117   27.8915   48.1185 H   0  0  0  0  0  0  0  0  0  0  0  0
  1  2  1  0
  2  3  1  0
  3  4  2  0
  4  5  1  0
  4  6  1  0
  6  7  1  0
  7  8  1  0
  8  9  2  0
  9 10  1  0
 10 11  2  0
 11 12  1  0
 12 13  2  0
 12 14  1  0
 14 15  1  0
 15 16  2  0
 15 17  2  0
 15 18  1  0
 18 19  2  0
 19 20  1  0
 20 21  2  0
 21 22  1  0
 22 23  2  0
 11 24  1  0
  6 25  1  0
 25  2  2  0
 24  8  1  0
 23 18  1  0
  1 26  1  0
  1 27  1  0
  1 28  1  0
  3 29  1  0
  5 30  1  0
  5 31  1  0
  5 32  1  0
  7 33  1  0
  7 34  1  0
  9 35  1  0
 10 36  1  0
 19 37  1  0
 20 38  1  0
 21 39  1  0
 22 40  1  0
 23 41  1  0
M  CHG  1  14  -1
M  END
>  <UniqueID>  (12) 
12

>  <SMILES>  (12) 
Cc1cc(C)n(Cc2ccc(C(=O)[N-]S(=O)(=O)c3ccccc3)o2)n1

>  <Energy>  (12) 
95.12732455802893

>  <Genealogy>  (12) 
Cc1cc(C)n(Cc2ccc(C(=O)[N-]S(=O)(=O)c3ccccc3)o2)n1 (protonated)
Cc1cc(C)n(Cc2ccc(C(=O)[N-]S(=O)(=O)c3ccccc3)o2)n1 (3D coordinates assigned)
Cc1cc(C)n(Cc2ccc(C(=O)[N-]S(=O)(=O)c3ccccc3)o2)n1 (optimized conformer: 95.12732455802893 kcal/mol)

>  <smiles>  (12) 
Cc1cc(C)n(Cc2ccc(C(=O)NS(=O)(=O)c3ccccc3)o2)n1

>  <score_type>  (12) 
oracle

>  <origin>  (12) 
adg

>  <m_score__min__energy>  (12) 
-10.119999999999999

>  <m_primary>  (12) 
energy

$$$$
12:0
     RDKit          3D

 55 60  0  0  0  0  0  0  0  0999 V2000
   57.2900   30.6880   54.6250 O   0  0  0  0  0  0  0  0  0  0  0  0
   56.2010   30.4350   54.0440 C   0  0  0  0  0  0  0  0  0  0  0  0
   54.9910   29.4650   54.7100 S   0  0  0  0  0  0  0  0  0  0  0  0
   53.9940   29.6790   53.3750 C   0  0  0  0  0  0  0  0  0  0  0  0
   52.7170   29.1640   53.1650 C   0  0  0  0  0  0  0  0  0  0  0  0
   52.0580   29.4910   51.9720 C   0  0  0  0  0  0  0  0  0  0  0  0
   52.6780   30.3240   51.0220 C   0  0  0  0  0  0  0  0  0  0  0  0
   53.9660   30.8360   51.2530 C   0  0  0  0  0  0  0  0  0  0  0  0
   54.6240   30.5000   52.4460 C   0  0  0  0  0  0  0  0  0  0  0  0
   55.8720   30.9190   52.8160 N   0  0  0  0  0  0  0  0  0  0  0  0
   56.7280   31.8160   52.0270 C   0  0  0  0  0  0  0  0  0  0  0  0
   57.6530   31.0200   51.1510 C   0  0  0  0  0  0  0  0  0  0  0  0
   57.7190   29.6740   51.1780 N   0  0  0  0  0  0  0  0  0  0  0  0
   58.6730   29.3150   50.3330 N   0  0  0  0  0  0  0  0  0  0  0  0
   59.1570   30.4440   49.7860 C   0  0  0  0  0  0  0  0  0  0  0  0
   60.5630   30.4700   48.6690 S   0  0  0  0  0  0  0  0  0  0  0  0
   59.5770   30.2130   47.1510 C   0  0  0  0  0  0  0  0  0  0  0  0
   59.1660   28.7650   47.0090 C   0  0  0  0  0  0  0  0  0  0  0  0
   59.6750   27.8220   47.9180 C   0  0  0  0  0  0  0  0  0  0  0  0
   59.3610   26.4670   47.7890 C   0  0  0  0  0  0  0  0  0  0  0  0
   58.5390   26.0360   46.7480 C   0  0  0  0  0  0  0  0  0  0  0  0
   58.0240   26.9580   45.8360 C   0  0  0  0  0  0  0  0  0  0  0  0
   58.3250   28.3240   45.9560 C   0  0  0  0  0  0  0  0  0  0  0  0
   57.7510   29.2620   44.9680 C   0  0  0  0  0  0  0  0  0  0  0  0
   58.5720   30.2260   44.3600 C   0  0  0  0  0  0  0  0  0  0  0  0
   58.0350   31.1220   43.4310 C   0  0  0  0  0  0  0  0  0  0  0  0
   56.6750   31.0680   43.1120 C   0  0  0  0  0  0  0  0  0  0  0  0
   55.8490   30.1210   43.7210 C   0  0  0  0  0  0  0  0  0  0  0  0
   56.3810   29.2190   44.6510 C   0  0  0  0  0  0  0  0  0  0  0  0
   55.5460   28.2780   45.2450 O   0  0  0  0  0  0  0  0  0  0  0  0
   58.5240   31.5380   50.2580 N   0  0  0  0  0  0  0  0  0  0  0  0
   58.9130   32.9400   50.0850 C   0  0  0  0  0  0  0  0  0  0  0  0
   60.3760   33.2250   50.3960 C   0  0  0  0  0  0  0  0  0  0  0  0
   59.2970   33.6500   51.3750 C   0  0  0  0  0  0  0  0  0  0  0  0
   52.2384   28.5178   53.9156 H   0  0  0  0  0  0  0  0  0  0  0  0
   51.0507   29.0944   51.7771 H   0  0  0  0  0  0  0  0  0  0  0  0
   52.1498   30.5764   50.0907 H   0  0  0  0  0  0  0  0  0  0  0  0
   54.4500   31.4888   50.5116 H   0  0  0  0  0  0  0  0  0  0  0  0
   56.0959   32.4590   51.3969 H   0  0  0  0  0  0  0  0  0  0  0  0
   57.3280   32.4319   52.7131 H   0  0  0  0  0  0  0  0  0  0  0  0
   58.6744   30.8399   47.1982 H   0  0  0  0  0  0  0  0  0  0  0  0
   60.1934   30.4885   46.2826 H   0  0  0  0  0  0  0  0  0  0  0  0
   60.3271   28.1541   48.7392 H   0  0  0  0  0  0  0  0  0  0  0  0
   59.7625   25.7390   48.5093 H   0  0  0  0  0  0  0  0  0  0  0  0
   58.2964   24.9680   46.6458 H   0  0  0  0  0  0  0  0  0  0  0  0
   57.3770   26.6118   45.0165 H   0  0  0  0  0  0  0  0  0  0  0  0
   59.6407   30.2760   44.6156 H   0  0  0  0  0  0  0  0  0  0  0  0
   58.6830   31.8700   42.9507 H   0  0  0  0  0  0  0  0  0  0  0  0
   56.2546   31.7730   42.3797 H   0  0  0  0  0  0  0  0  0  0  0  0
   54.7787   30.0834   43.4699 H   0  0  0  0  0  0  0  0  0  0  0  0
   58.2343   33.1571   49.2470 H   0  0  0  0  0  0  0  0  0  0  0  0
   61.0551   32.3981   50.6511 H   0  0  0  0  0  0  0  0  0  0  0  0
   61.1965   33.7377   49.8726 H   0  0  0  0  0  0  0  0  0  0  0  0
   59.1946   33.1311   52.3395 H   0  0  0  0  0  0  0  0  0  0  0  0
   59.0125   34.5983   51.8544 H   0  0  0  0  0  0  0  0  0  0  0  0
  1  2  2  0
  2  3  1  0
  3  4  1  0
  4  5  2  0
  5  6  1  0
  6  7  2  0
  7  8  1  0
  8  9  2  0
  9 10  1  0
 10 11  1  0
 11 12  1  0
 12 13  2  0
 13 14  1  0
 14 15  2  0
 15 16  1  0
 16 17  1  0
 17 18  1  0
 18 19  2  0
 19 20  1  0
 20 21  2  0
 21 22  1  0
 22 23  2  0
 23 24  1  0
 24 25  2  0
 25 26  1  0
 26 27  2  0
 27 28  1  0
 28 29  2  0
 29 30  1  0
 15 31  1  0
 31 32  1  0
 32 33  1  0
 33 34  1  0
 10  2  1  0
 31 12  1  0
 34 32  1  0
  9  4  1  0
 23 18  1  0
 29 24  1  0
  5 35  1  0
  6 36  1  0
  7 37  1  0
  8 38  1  0
 11 39  1  0
 11 40  1  0
 17 41  1  0
 17 42  1  0
 19 43  1  0
 20 44  1  0
 21 45  1  0
 22 46  1  0
 25 47  1  0
 26 48  1  0
 27 49  1  0
 28 50  1  0
 32 51  1  0
 33 52  1  0
 33 53  1  0
 34 54  1  0
 34 55  1  0
M  CHG  1  30  -1
M  END
>  <UniqueID>  (13) 
13

>  <SMILES>  (13) 
O=c1sc2ccccc2n1Cc1nnc(SCc2ccccc2-c2ccccc2[O-])n1C1CC1

>  <Energy>  (13) 
402.43516335502966

>  <Genealogy>  (13) 
O=c1sc2ccccc2n1Cc1nnc(SCc2ccccc2-c2ccccc2[O-])n1C1CC1 (protonated)
O=c1sc2ccccc2n1Cc1nnc(SCc2ccccc2-c2ccccc2[O-])n1C1CC1 (3D coordinates assigned)
O=c1sc2ccccc2n1Cc1nnc(SCc2ccccc2-c2ccccc2[O-])n1C1CC1 (nonaromatic ring conformer: 402.43516335502966 kcal/mol)

>  <smiles>  (13) 
O=c1sc2ccccc2n1Cc1nnc(SCc2ccccc2-c2ccccc2O)n1C1CC1

>  <score_type>  (13) 
oracle

>  <origin>  (13) 
adg

>  <m_score__min__energy>  (13) 
-13.779999999999999

>  <m_primary>  (13) 
energy

$$$$
13:0
     RDKit          3D

 50 53  0  0  0  0  0  0  0  0999 V2000
   55.8540   25.4650   46.3680 O   0  0  0  0  0  0  0  0  0  0  0  0
   56.9770   24.9940   46.0430 C   0  0  0  0  0  0  0  0  0  0  0  0
   57.8040   25.7070   45.0070 C   0  0  0  0  0  0  0  0  0  0  0  0
   57.5360   27.1440   45.0190 N   0  0  0  0  0  0  0  0  0  0  0  0
   58.5900   28.1000   45.2010 C   0  0  0  0  0  0  0  0  0  0  0  0
   59.7910   27.7170   45.2190 O   0  0  0  0  0  0  0  0  0  0  0  0
   58.2770   29.5300   45.3840 C   0  0  0  0  0  0  0  0  0  0  0  0
   57.1690   30.2460   44.9100 C   0  0  0  0  0  0  0  0  0  0  0  0
   55.9950   29.7030   44.2020 C   0  0  0  0  0  0  0  0  0  0  0  0
   55.1430   28.9940   44.8000 O   0  0  0  0  0  0  0  0  0  0  0  0
   55.8030   30.0070   42.8600 O   0  0  0  0  0  0  0  0  0  0  0  0
   57.2590   31.5590   45.2340 N   0  0  0  0  0  0  0  0  0  0  0  0
   58.4170   31.6730   45.9070 C   0  0  0  0  0  0  0  0  0  0  0  0
   58.9580   32.8460   46.4310 C   0  0  0  0  0  0  0  0  0  0  0  0
   60.2070   32.7700   47.0760 C   0  0  0  0  0  0  0  0  0  0  0  0
   60.9310   34.2180   47.7510 Cl  0  0  0  0  0  0  0  0  0  0  0  0
   60.8830   31.5330   47.1740 C   0  0  0  0  0  0  0  0  0  0  0  0
   60.3150   30.3660   46.6350 C   0  0  0  0  0  0  0  0  0  0  0  0
   59.0650   30.4690   46.0180 C   0  0  0  0  0  0  0  0  0  0  0  0
   57.4180   23.7750   46.6540 N   0  0  0  0  0  0  0  0  0  0  0  0
   56.5960   22.8260   47.3490 C   0  0  0  0  0  0  0  0  0  0  0  0
   56.5120   22.8380   48.7530 C   0  0  0  0  0  0  0  0  0  0  0  0
   55.6560   21.9550   49.4160 C   0  0  0  0  0  0  0  0  0  0  0  0
   54.8610   21.0710   48.6870 C   0  0  0  0  0  0  0  0  0  0  0  0
   54.9170   21.0680   47.2930 C   0  0  0  0  0  0  0  0  0  0  0  0
   55.7780   21.9420   46.6140 C   0  0  0  0  0  0  0  0  0  0  0  0
   55.8270   21.9050   45.1790 N   0  0  0  0  0  0  0  0  0  0  0  0
   56.3180   20.7070   44.4930 C   0  0  0  0  0  0  0  0  0  0  0  0
   57.0290   21.1130   43.2000 C   0  0  0  0  0  0  0  0  0  0  0  0
   56.2100   21.9620   42.4170 O   0  0  0  0  0  0  0  0  0  0  0  0
   55.9890   23.1820   43.1010 C   0  0  0  0  0  0  0  0  0  0  0  0
   55.1790   22.9480   44.3800 C   0  0  0  0  0  0  0  0  0  0  0  0
   58.8700   25.5384   45.2196 H   0  0  0  0  0  0  0  0  0  0  0  0
   57.5406   25.3103   44.0154 H   0  0  0  0  0  0  0  0  0  0  0  0
   56.5690   27.4960   44.8440 H   0  0  0  0  0  0  0  0  0  0  0  0
   58.4242   33.8037   46.3430 H   0  0  0  0  0  0  0  0  0  0  0  0
   61.8607   31.4831   47.6757 H   0  0  0  0  0  0  0  0  0  0  0  0
   60.8384   29.4005   46.6968 H   0  0  0  0  0  0  0  0  0  0  0  0
   57.1232   23.5460   49.3318 H   0  0  0  0  0  0  0  0  0  0  0  0
   55.6090   21.9571   50.5150 H   0  0  0  0  0  0  0  0  0  0  0  0
   54.1893   20.3756   49.2115 H   0  0  0  0  0  0  0  0  0  0  0  0
   54.2812   20.3750   46.7225 H   0  0  0  0  0  0  0  0  0  0  0  0
   57.0234   20.1735   45.1470 H   0  0  0  0  0  0  0  0  0  0  0  0
   55.4698   20.0490   44.2532 H   0  0  0  0  0  0  0  0  0  0  0  0
   57.9595   21.6428   43.4520 H   0  0  0  0  0  0  0  0  0  0  0  0
   57.2485   20.2045   42.6200 H   0  0  0  0  0  0  0  0  0  0  0  0
   56.9590   23.6287   43.3648 H   0  0  0  0  0  0  0  0  0  0  0  0
   55.4231   23.8581   42.4433 H   0  0  0  0  0  0  0  0  0  0  0  0
   55.1325   23.8807   44.9614 H   0  0  0  0  0  0  0  0  0  0  0  0
   54.1589   22.6310   44.1175 H   0  0  0  0  0  0  0  0  0  0  0  0
  1  2  2  0
  2  3  1  0
  3  4  1  0
  4  5  1  0
  5  6  2  0
  5  7  1  0
  7  8  2  0
  8  9  1  0
  9 10  2  0
  9 11  1  0
  8 12  1  0
 12 13  1  0
 13 14  2  0
 14 15  1  0
 15 16  1  0
 15 17  2  0
 17 18  1  0
 18 19  2  0
  2 20  1  0
 20 21  1  0
 21 22  2  0
 22 23  1  0
 23 24  2  0
 24 25  1  0
 25 26  2  0
 26 27  1  0
 27 28  1  0
 28 29  1  0
 29 30  1  0
 30 31  1  0
 31 32  1  0
 19  7  1  0
 26 21  1  0
 32 27  1  0
 19 13  1  0
  3 33  1  0
  3 34  1  0
  4 35  1  0
 14 36  1  0
 17 37  1  0
 18 38  1  0
 22 39  1  0
 23 40  1  0
 24 41  1  0
 25 42  1  0
 28 43  1  0
 28 44  1  0
 29 45  1  0
 29 46  1  0
 31 47  1  0
 31 48  1  0
 32 49  1  0
 32 50  1  0
M  CHG  3  11  -1  12  -1  20  -1
M  END
>  <UniqueID>  (14) 
14

>  <SMILES>  (14) 
O=C(CNC(=O)c1c(C(=O)[O-])[n-]c2cc(Cl)ccc12)[N-]c1ccccc1N1CCOCC1

>  <Energy>  (14) 
99.07737212092685

>  <Genealogy>  (14) 
O=C(CNC(=O)c1c(C(=O)[O-])[n-]c2cc(Cl)ccc12)[N-]c1ccccc1N1CCOCC1 (protonated)
O=C(CNC(=O)c1c(C(=O)[O-])[n-]c2cc(Cl)ccc12)[N-]c1ccccc1N1CCOCC1 (3D coordinates assigned)
O=C(CNC(=O)c1c(C(=O)[O-])[n-]c2cc(Cl)ccc12)[N-]c1ccccc1N1CCOCC1 (nonaromatic ring conformer: 99.07737212092685 kcal/mol)

>  <smiles>  (14) 
O=C(CNC(=O)c1c(C(=O)O)[nH]c2cc(Cl)ccc12)Nc1ccccc1N1CCOCC1

>  <score_type>  (14) 
oracle

>  <origin>  (14) 
adg

>  <m_score__min__energy>  (14) 
-13.720000000000001

>  <m_primary>  (14) 
energy

$$$$
14:0
     RDKit          3D

 51 54  0  0  0  0  0  0  0  0999 V2000
   54.7568   28.4856   55.1294 H   0  0  0  0  0  0  0  0  0  0  0  0
   54.0420   28.8760   54.3900 C   0  0  0  0  0  0  0  0  0  0  0  0
   53.0160   28.4810   54.3550 H   0  0  0  0  0  0  0  0  0  0  0  0
   54.4220   29.8350   53.5300 C   0  0  0  0  0  0  0  0  0  0  0  0
   53.6370   30.4360   52.5330 C   0  0  0  0  0  0  0  0  0  0  0  0
   52.3150   30.3640   52.2790 C   0  0  0  0  0  0  0  0  0  0  0  0
   51.6734   29.9542   53.0730 H   0  0  0  0  0  0  0  0  0  0  0  0
   51.6550   30.7850   51.0340 C   0  0  0  0  0  0  0  0  0  0  0  0
   51.6420   30.0440   49.9130 N   0  0  0  0  0  0  0  0  0  0  0  0
   51.0570   30.8580   49.0070 C   0  0  0  0  0  0  0  0  0  0  0  0
   50.8470   30.5080   47.8170 O   0  0  0  0  0  0  0  0  0  0  0  0
   50.7240   32.0810   49.4750 N   0  0  0  0  0  0  0  0  0  0  0  0
   51.1230   32.0230   50.7560 C   0  0  0  0  0  0  0  0  0  0  0  0
   51.0290   33.0910   51.6410 O   0  0  0  0  0  0  0  0  0  0  0  0
   54.5010   31.2070   51.7740 C   0  0  0  0  0  0  0  0  0  0  0  0
   54.2449   31.7824   50.8721 H   0  0  0  0  0  0  0  0  0  0  0  0
   55.7430   31.1160   52.3640 C   0  0  0  0  0  0  0  0  0  0  0  0
   56.9320   31.8490   51.8900 C   0  0  0  0  0  0  0  0  0  0  0  0
   56.9780   33.0980   52.0590 O   0  0  0  0  0  0  0  0  0  0  0  0
   58.0470   31.1700   51.2780 N   0  0  0  0  0  0  0  0  0  0  0  0
   58.8920   31.9120   50.3280 C   0  0  0  0  0  0  0  0  0  0  0  0
   58.2609   32.3008   49.5152 H   0  0  0  0  0  0  0  0  0  0  0  0
   59.3815   32.7354   50.8688 H   0  0  0  0  0  0  0  0  0  0  0  0
   59.9780   31.0140   49.7300 C   0  0  0  0  0  0  0  0  0  0  0  0
   59.5205   30.3065   49.0228 H   0  0  0  0  0  0  0  0  0  0  0  0
   60.7169   31.6343   49.2015 H   0  0  0  0  0  0  0  0  0  0  0  0
   60.6440   30.2690   50.8060 N   0  0  0  0  0  0  0  0  0  0  0  0
   62.0770   30.3030   50.9400 C   0  0  0  0  0  0  0  0  0  0  0  0
   62.7420   29.3270   51.6990 C   0  0  0  0  0  0  0  0  0  0  0  0
   62.1657   28.5270   52.1868 H   0  0  0  0  0  0  0  0  0  0  0  0
   64.1290   29.3660   51.8380 C   0  0  0  0  0  0  0  0  0  0  0  0
   64.6423   28.5951   52.4315 H   0  0  0  0  0  0  0  0  0  0  0  0
   64.8690   30.3810   51.2260 C   0  0  0  0  0  0  0  0  0  0  0  0
   65.9629   30.4041   51.3393 H   0  0  0  0  0  0  0  0  0  0  0  0
   64.2250   31.3720   50.4670 C   0  0  0  0  0  0  0  0  0  0  0  0
   65.0090   32.4500   49.8260 C   0  0  0  0  0  0  0  0  0  0  0  0
   66.2370   32.5830   50.0720 O   0  0  0  0  0  0  0  0  0  0  0  0
   64.4000   33.3350   48.9440 O   0  0  0  0  0  0  0  0  0  0  0  0
   62.8240   31.3260   50.3310 C   0  0  0  0  0  0  0  0  0  0  0  0
   62.3089   32.0990   49.7418 H   0  0  0  0  0  0  0  0  0  0  0  0
   59.8390   29.5550   51.8070 C   0  0  0  0  0  0  0  0  0  0  0  0
   60.0665   28.4805   51.7463 H   0  0  0  0  0  0  0  0  0  0  0  0
   60.0918   29.9572   52.7991 H   0  0  0  0  0  0  0  0  0  0  0  0
   58.3350   29.7580   51.5790 C   0  0  0  0  0  0  0  0  0  0  0  0
   58.0091   29.1336   50.7341 H   0  0  0  0  0  0  0  0  0  0  0  0
   57.7939   29.4706   52.4926 H   0  0  0  0  0  0  0  0  0  0  0  0
   55.7030   30.2750   53.4260 N   0  0  0  0  0  0  0  0  0  0  0  0
   56.8500   29.8050   54.2120 C   0  0  0  0  0  0  0  0  0  0  0  0
   56.6226   29.8982   55.2842 H   0  0  0  0  0  0  0  0  0  0  0  0
   57.0529   28.7512   53.9704 H   0  0  0  0  0  0  0  0  0  0  0  0
   57.7340   30.4134   53.9704 H   0  0  0  0  0  0  0  0  0  0  0  0
  1  2  1  0
  2  3  1  0
  2  4  2  0
  4  5  1  0
  5  6  2  0
  6  7  1  0
  6  8  1  0
  8  9  1  0
  9 10  1  0
 10 11  2  0
 10 12  1  0
 12 13  1  0
 13 14  1  0
  5 15  1  0
 15 16  1  0
 15 17  2  0
 17 18  1  0
 18 19  2  0
 18 20  1  0
 20 21  1  0
 21 22  1  0
 21 23  1  0
 21 24  1  0
 24 25  1  0
 24 26  1  0
 24 27  1  0
 27 28  1  0
 28 29  2  0
 29 30  1  0
 29 31  1  0
 31 32  1  0
 31 33  2  0
 33 34  1  0
 33 35  1  0
 35 36  1  0
 36 37  2  0
 36 38  1  0
 35 39  2  0
 39 40  1  0
 27 41  1  0
 41 42  1  0
 41 43  1  0
 41 44  1  0
 44 45  1  0
 44 46  1  0
 17 47  1  0
 47 48  1  0
 48 49  1  0
 48 50  1  0
 48 51  1  0
 47  4  1  0
 13  8  2  0
 44 20  1  0
 39 28  1  0
M  CHG  4   9  -1  12  -1  14  -1  38  -1
M  END
>  <UniqueID>  (15) 
15

>  <SMILES>  (15) 
C=c1/c(=C\c2[n-]c(=O)[n-]c2[O-])cc(C(=O)N2CCN(c3cccc(C(=O)[O-])c3)CC2)n1C

>  <Energy>  (15) 
135.1432875106872

>  <Genealogy>  (15) 
C=c1c(=Cc2[n-]c(=O)[n-]c2[O-])cc(C(=O)N2CCN(c3cccc(C(=O)[O-])c3)CC2)n1C (protonated)
C=c1/c(=C\c2[n-]c(=O)[n-]c2[O-])cc(C(=O)N2CCN(c3cccc(C(=O)[O-])c3)CC2)n1C (cis-trans isomerization)
C=c1/c(=C\c2[n-]c(=O)[n-]c2[O-])cc(C(=O)N2CCN(c3cccc(C(=O)[O-])c3)CC2)n1C (3D coordinates assigned)
C=c1/c(=C\c2[n-]c(=O)[n-]c2[O-])cc(C(=O)N2CCN(c3cccc(C(=O)[O-])c3)CC2)n1C (nonaromatic ring conformer: 135.1432875106872 kcal/mol)

>  <smiles>  (15) 
C=c1c(=Cc2[nH]c(=O)[nH]c2O)cc(C(=O)N2CCN(c3cccc(C(=O)O)c3)CC2)n1C

>  <score_type>  (15) 
oracle

>  <origin>  (15) 
adg

>  <m_score__min__energy>  (15) 
-18.379999999999999

>  <m_primary>  (15) 
energy

$$$$
15:0
     RDKit          3D

 38 39  0  0  0  0  0  0  0  0999 V2000
   59.3000   28.4330   51.6810 H   0  0  0  0  0  0  0  0  0  0  0  0
   59.7260   28.7920   50.7960 N   0  0  0  0  0  0  0  0  0  0  0  0
   59.1270   29.6710   50.0540 C   0  0  0  0  0  0  0  0  0  0  0  0
   57.8350   30.1830   50.4260 N   0  0  0  0  0  0  0  0  0  0  0  0
   57.3580   30.8300   49.7560 H   0  0  0  0  0  0  0  0  0  0  0  0
   57.2110   29.9730   51.7040 C   0  0  0  0  0  0  0  0  0  0  0  0
   57.6820   29.1420   52.5270 O   0  0  0  0  0  0  0  0  0  0  0  0
   56.0230   30.8040   52.0960 C   0  0  0  0  0  0  0  0  0  0  0  0
   56.1954   31.2217   53.0989 H   0  0  0  0  0  0  0  0  0  0  0  0
   55.9034   31.6044   51.3510 H   0  0  0  0  0  0  0  0  0  0  0  0
   54.7310   29.9730   52.1180 C   0  0  0  0  0  0  0  0  0  0  0  0
   54.6968   29.3462   51.2147 H   0  0  0  0  0  0  0  0  0  0  0  0
   54.7388   29.3579   53.0299 H   0  0  0  0  0  0  0  0  0  0  0  0
   53.4980   30.8430   52.1540 C   0  0  0  0  0  0  0  0  0  0  0  0
   52.7640   30.9820   53.3450 C   0  0  0  0  0  0  0  0  0  0  0  0
   53.1209   30.5013   54.2678 H   0  0  0  0  0  0  0  0  0  0  0  0
   51.5820   31.7290   53.3610 C   0  0  0  0  0  0  0  0  0  0  0  0
   51.0166   31.8422   54.2978 H   0  0  0  0  0  0  0  0  0  0  0  0
   51.1170   32.3330   52.1870 C   0  0  0  0  0  0  0  0  0  0  0  0
   49.9380   33.0680   52.2120 O   0  0  0  0  0  0  0  0  0  0  0  0
   51.8370   32.1900   50.9930 C   0  0  0  0  0  0  0  0  0  0  0  0
   51.3730   32.7750   49.8200 O   0  0  0  0  0  0  0  0  0  0  0  0
   53.0240   31.4490   50.9770 C   0  0  0  0  0  0  0  0  0  0  0  0
   53.5888   31.3401   50.0394 H   0  0  0  0  0  0  0  0  0  0  0  0
   59.7580   30.1260   48.7660 C   0  0  0  0  0  0  0  0  0  0  0  0
   59.9823   31.2009   48.8313 H   0  0  0  0  0  0  0  0  0  0  0  0
   60.6853   29.5579   48.6006 H   0  0  0  0  0  0  0  0  0  0  0  0
   58.8220   29.8830   47.6140 C   0  0  0  0  0  0  0  0  0  0  0  0
   58.4700   30.9350   46.7510 C   0  0  0  0  0  0  0  0  0  0  0  0
   58.9026   31.9351   46.9014 H   0  0  0  0  0  0  0  0  0  0  0  0
   57.5720   30.7150   45.7020 C   0  0  0  0  0  0  0  0  0  0  0  0
   57.3050   31.5404   45.0256 H   0  0  0  0  0  0  0  0  0  0  0  0
   57.0120   29.4460   45.5110 C   0  0  0  0  0  0  0  0  0  0  0  0
   56.1210   29.2340   44.4650 O   0  0  0  0  0  0  0  0  0  0  0  0
   57.3530   28.3930   46.3730 C   0  0  0  0  0  0  0  0  0  0  0  0
   56.7970   27.1330   46.1910 O   0  0  0  0  0  0  0  0  0  0  0  0
   58.2530   28.6120   47.4200 C   0  0  0  0  0  0  0  0  0  0  0  0
   58.5175   27.7854   48.0958 H   0  0  0  0  0  0  0  0  0  0  0  0
  1  2  1  0
  2  3  2  0
  3  4  1  0
  4  5  1  0
  4  6  1  0
  6  7  2  0
  6  8  1  0
  8  9  1  0
  8 10  1  0
  8 11  1  0
 11 12  1  0
 11 13  1  0
 11 14  1  0
 14 15  2  0
 15 16  1  0
 15 17  1  0
 17 18  1  0
 17 19  2  0
 19 20  1  0
 19 21  1  0
 21 22  1  0
 21 23  2  0
 23 24  1  0
  3 25  1  0
 25 26  1  0
 25 27  1  0
 25 28  1  0
 28 29  2  0
 29 30  1  0
 29 31  1  0
 31 32  1  0
 31 33  2  0
 33 34  1  0
 33 35  1  0
 35 36  1  0
 35 37  2  0
 37 38  1  0
 23 14  1  0
 37 28  1  0
M  CHG  4  20  -1  22  -1  34  -1  36  -1
M  END
>  <UniqueID>  (16) 
16

>  <SMILES>  (16) 
[H]/N=C(\Cc1ccc([O-])c([O-])c1)NC(=O)CCc1ccc([O-])c([O-])c1

>  <Energy>  (16) 
32.460369863595204

>  <Genealogy>  (16) 
N=C(Cc1ccc([O-])c([O-])c1)NC(=O)CCc1ccc([O-])c([O-])c1 (protonated)
[H]/N=C(\Cc1ccc([O-])c([O-])c1)NC(=O)CCc1ccc([O-])c([O-])c1 (cis-trans isomerization)
[H]/N=C(\Cc1ccc([O-])c([O-])c1)NC(=O)CCc1ccc([O-])c([O-])c1 (3D coordinates assigned)
[H]/N=C(\Cc1ccc([O-])c([O-])c1)NC(=O)CCc1ccc([O-])c([O-])c1 (optimized conformer: 32.460369863595204 kcal/mol)

>  <smiles>  (16) 
N=C(Cc1ccc(O)c(O)c1)NC(=O)CCc1ccc(O)c(O)c1

>  <score_type>  (16) 
oracle

>  <origin>  (16) 
adg

>  <m_score__min__energy>  (16) 
-17.620000000000001

>  <m_primary>  (16) 
energy

$$$$
16:0
     RDKit          3D

 41 43  0  0  0  0  0  0  0  0999 V2000
   58.0530   23.6080   45.9200 O   0  0  0  0  0  0  0  0  0  0  0  0
   57.3960   23.5830   46.9940 C   0  0  0  0  0  0  0  0  0  0  0  0
   56.7380   24.8380   47.5100 C   0  0  0  0  0  0  0  0  0  0  0  0
   57.1120   26.0040   46.7070 N   0  0  0  0  0  0  0  0  0  0  0  0
   56.2780   26.8350   46.0460 C   0  0  0  0  0  0  0  0  0  0  0  0
   54.8980   26.6740   45.9880 O   0  0  0  0  0  0  0  0  0  0  0  0
   56.9880   27.8640   45.4610 C   0  0  0  0  0  0  0  0  0  0  0  0
   58.3060   27.6630   45.7870 C   0  0  0  0  0  0  0  0  0  0  0  0
   58.3510   26.5210   46.5610 C   0  0  0  0  0  0  0  0  0  0  0  0
   59.4980   25.9790   47.1300 O   0  0  0  0  0  0  0  0  0  0  0  0
   59.4170   28.5830   45.3920 C   0  0  0  0  0  0  0  0  0  0  0  0
   58.9250   29.6980   44.4910 C   0  0  0  0  0  0  0  0  0  0  0  0
   57.6260   29.8960   44.1700 C   0  0  0  0  0  0  0  0  0  0  0  0
   56.4880   29.0280   44.6690 C   0  0  0  0  0  0  0  0  0  0  0  0
   57.3090   22.3520   47.7190 N   0  0  0  0  0  0  0  0  0  0  0  0
   56.1690   21.4450   47.6540 C   0  0  0  0  0  0  0  0  0  0  0  0
   55.8990   21.0380   46.2050 C   0  0  0  0  0  0  0  0  0  0  0  0
   55.2420   22.1200   45.4720 N   0  0  0  0  0  0  0  0  0  0  0  0
   54.3330   23.0820   46.0680 C   0  0  0  0  0  0  0  0  0  0  0  0
   53.9430   24.0580   44.9410 C   0  0  0  0  0  0  0  0  0  0  0  0
   54.8050   23.7130   43.7160 C   0  0  0  0  0  0  0  0  0  0  0  0
   55.5220   22.4920   44.1360 C   0  0  0  0  0  0  0  0  0  0  0  0
   56.3090   21.8500   43.3910 O   0  0  0  0  0  0  0  0  0  0  0  0
   55.6459   24.7118   47.4714 H   0  0  0  0  0  0  0  0  0  0  0  0
   57.0742   25.0063   48.5438 H   0  0  0  0  0  0  0  0  0  0  0  0
   59.8546   29.0244   46.2996 H   0  0  0  0  0  0  0  0  0  0  0  0
   60.1667   27.9989   44.8382 H   0  0  0  0  0  0  0  0  0  0  0  0
   59.6709   30.3894   44.0719 H   0  0  0  0  0  0  0  0  0  0  0  0
   57.3805   30.7382   43.5064 H   0  0  0  0  0  0  0  0  0  0  0  0
   55.8287   29.6359   45.3060 H   0  0  0  0  0  0  0  0  0  0  0  0
   55.9436   28.6402   43.7954 H   0  0  0  0  0  0  0  0  0  0  0  0
   56.3858   20.5459   48.2494 H   0  0  0  0  0  0  0  0  0  0  0  0
   55.2809   21.9559   48.0544 H   0  0  0  0  0  0  0  0  0  0  0  0
   56.8540   20.7988   45.7143 H   0  0  0  0  0  0  0  0  0  0  0  0
   55.2359   20.1603   46.2045 H   0  0  0  0  0  0  0  0  0  0  0  0
   53.4395   22.5722   46.4575 H   0  0  0  0  0  0  0  0  0  0  0  0
   54.8030   23.6095   46.9112 H   0  0  0  0  0  0  0  0  0  0  0  0
   52.8770   23.9422   44.6954 H   0  0  0  0  0  0  0  0  0  0  0  0
   54.1108   25.0993   45.2534 H   0  0  0  0  0  0  0  0  0  0  0  0
   54.1764   23.5171   42.8348 H   0  0  0  0  0  0  0  0  0  0  0  0
   55.4815   24.5293   43.4229 H   0  0  0  0  0  0  0  0  0  0  0  0
  1  2  2  0
  2  3  1  0
  3  4  1  0
  4  5  1  0
  5  6  1  0
  5  7  2  0
  7  8  1  0
  8  9  2  0
  9 10  1  0
  8 11  1  0
 11 12  1  0
 12 13  2  0
 13 14  1  0
  2 15  1  0
 15 16  1  0
 16 17  1  0
 17 18  1  0
 18 19  1  0
 19 20  1  0
 20 21  1  0
 21 22  1  0
 22 23  2  0
  9  4  1  0
 22 18  1  0
 14  7  1  0
  3 24  1  0
  3 25  1  0
 11 26  1  0
 11 27  1  0
 12 28  1  0
 13 29  1  0
 14 30  1  0
 14 31  1  0
 16 32  1  0
 16 33  1  0
 17 34  1  0
 17 35  1  0
 19 36  1  0
 19 37  1  0
 20 38  1  0
 20 39  1  0
 21 40  1  0
 21 41  1  0
M  CHG  3   6  -1  10  -1  15  -1
M  END
>  <UniqueID>  (17) 
17

>  <SMILES>  (17) 
O=C(Cn1c([O-])c2c(c1[O-])CC=CC2)[N-]CCN1CCCC1=O

>  <Energy>  (17) 
73.97332281130811

>  <Genealogy>  (17) 
O=C(Cn1c([O-])c2c(c1[O-])CC=CC2)[N-]CCN1CCCC1=O (protonated)
O=C(Cn1c([O-])c2c(c1[O-])CC=CC2)[N-]CCN1CCCC1=O (3D coordinates assigned)
O=C(Cn1c([O-])c2c(c1[O-])CC=CC2)[N-]CCN1CCCC1=O (nonaromatic ring conformer: 73.97332281130811 kcal/mol)

>  <smiles>  (17) 
O=C(Cn1c(O)c2c(c1O)CC=CC2)NCCN1CCCC1=O

>  <score_type>  (17) 
oracle

>  <origin>  (17) 
adg

>  <m_score__min__energy>  (17) 
-13.369999999999999

>  <m_primary>  (17) 
energy

$$$$
17:0
     RDKit          3D

 51 54  0  0  0  0  0  0  0  0999 V2000
   57.4730   29.8470   43.8850 C   0  0  0  0  0  0  0  0  0  0  0  0
   57.7540   29.6240   45.1850 C   0  0  0  0  0  0  0  0  0  0  0  0
   57.9050   30.7410   46.0390 C   0  0  0  0  0  0  0  0  0  0  0  0
   57.4220   31.9860   45.6440 O   0  0  0  0  0  0  0  0  0  0  0  0
   58.5430   30.6200   47.2850 C   0  0  0  0  0  0  0  0  0  0  0  0
   58.7910   32.1080   48.2910 S   0  0  0  0  0  0  0  0  0  0  0  0
   60.5960   31.9850   48.3530 C   0  0  0  0  0  0  0  0  0  0  0  0
   61.3130   32.0320   47.1470 C   0  0  0  0  0  0  0  0  0  0  0  0
   62.7020   31.8960   47.1380 C   0  0  0  0  0  0  0  0  0  0  0  0
   63.3970   31.7420   48.3350 C   0  0  0  0  0  0  0  0  0  0  0  0
   62.7050   31.7460   49.5470 C   0  0  0  0  0  0  0  0  0  0  0  0
   61.3050   31.8810   49.5750 C   0  0  0  0  0  0  0  0  0  0  0  0
   60.6350   31.9960   50.8460 N   0  0  0  0  0  0  0  0  0  0  0  0
   60.2560   33.3160   51.3710 C   0  0  0  0  0  0  0  0  0  0  0  0
   58.7640   33.4910   51.2970 C   0  0  0  0  0  0  0  0  0  0  0  0
   57.9400   32.4400   51.3640 C   0  0  0  0  0  0  0  0  0  0  0  0
   58.4690   31.0650   51.4170 C   0  0  0  0  0  0  0  0  0  0  0  0
   57.6750   30.0900   51.4980 O   0  0  0  0  0  0  0  0  0  0  0  0
   59.9520   30.8300   51.4200 C   0  0  0  0  0  0  0  0  0  0  0  0
   58.9530   29.3460   47.7330 C   0  0  0  0  0  0  0  0  0  0  0  0
   59.4860   29.1110   49.1260 C   0  0  0  0  0  0  0  0  0  0  0  0
   60.5210   27.9880   49.1350 C   0  0  0  0  0  0  0  0  0  0  0  0
   58.7180   28.2240   46.9260 C   0  0  0  0  0  0  0  0  0  0  0  0
   58.0450   28.3210   45.6930 C   0  0  0  0  0  0  0  0  0  0  0  0
   57.6780   27.1500   45.1080 C   0  0  0  0  0  0  0  0  0  0  0  0
   57.1330   25.9590   45.7950 C   0  0  0  0  0  0  0  0  0  0  0  0
   57.8120   24.8220   46.0400 N   0  0  0  0  0  0  0  0  0  0  0  0
   56.8790   24.0050   46.5720 C   0  0  0  0  0  0  0  0  0  0  0  0
   57.1390   22.8370   46.9600 O   0  0  0  0  0  0  0  0  0  0  0  0
   55.6410   24.5380   46.6570 N   0  0  0  0  0  0  0  0  0  0  0  0
   55.8190   25.7700   46.1500 C   0  0  0  0  0  0  0  0  0  0  0  0
   54.7970   26.6980   46.0060 O   0  0  0  0  0  0  0  0  0  0  0  0
   57.3497   28.9988   43.1956 H   0  0  0  0  0  0  0  0  0  0  0  0
   57.3671   30.8771   43.5140 H   0  0  0  0  0  0  0  0  0  0  0  0
   60.7743   32.1776   46.1990 H   0  0  0  0  0  0  0  0  0  0  0  0
   63.2488   31.9105   46.1837 H   0  0  0  0  0  0  0  0  0  0  0  0
   64.4899   31.6174   48.3252 H   0  0  0  0  0  0  0  0  0  0  0  0
   63.2604   31.6424   50.4908 H   0  0  0  0  0  0  0  0  0  0  0  0
   60.5807   33.3981   52.4188 H   0  0  0  0  0  0  0  0  0  0  0  0
   60.7412   34.0972   50.7673 H   0  0  0  0  0  0  0  0  0  0  0  0
   58.3433   34.5013   51.1858 H   0  0  0  0  0  0  0  0  0  0  0  0
   56.8524   32.6037   51.3798 H   0  0  0  0  0  0  0  0  0  0  0  0
   60.2964   30.6756   52.4532 H   0  0  0  0  0  0  0  0  0  0  0  0
   60.1824   29.9382   50.8187 H   0  0  0  0  0  0  0  0  0  0  0  0
   59.9558   30.0359   49.4919 H   0  0  0  0  0  0  0  0  0  0  0  0
   58.6483   28.8200   49.7768 H   0  0  0  0  0  0  0  0  0  0  0  0
   60.7653   27.7229   50.1742 H   0  0  0  0  0  0  0  0  0  0  0  0
   60.1111   27.1075   48.6186 H   0  0  0  0  0  0  0  0  0  0  0  0
   61.4320   28.3248   48.6186 H   0  0  0  0  0  0  0  0  0  0  0  0
   59.0697   27.2388   47.2661 H   0  0  0  0  0  0  0  0  0  0  0  0
   57.7982   27.0816   44.0167 H   0  0  0  0  0  0  0  0  0  0  0  0
  1  2  2  0
  2  3  1  0
  3  4  1  0
  3  5  2  0
  5  6  1  0
  6  7  1  0
  7  8  2  0
  8  9  1  0
  9 10  2  0
 10 11  1  0
 11 12  2  0
 12 13  1  0
 13 14  1  0
 14 15  1  0
 15 16  2  0
 16 17  1  0
 17 18  2  0
 17 19  1  0
  5 20  1  0
 20 21  1  0
 21 22  1  0
 20 23  2  0
 23 24  1  0
 24 25  2  3
 25 26  1  0
 26 27  1  0
 27 28  1  0
 28 29  2  0
 28 30  1  0
 30 31  1  0
 31 32  1  0
 24  2  1  0
 31 26  2  0
 12  7  1  0
 19 13  1  0
  1 33  1  0
  1 34  1  0
  8 35  1  0
  9 36  1  0
 10 37  1  0
 11 38  1  0
 14 39  1  0
 14 40  1  0
 15 41  1  0
 16 42  1  0
 19 43  1  0
 19 44  1  0
 21 45  1  0
 21 46  1  0
 22 47  1  0
 22 48  1  0
 22 49  1  0
 23 50  1  0
 25 51  1  0
M  CHG  4   4  -1  27  -1  30  -1  32  -1
M  END
>  <UniqueID>  (18) 
18

>  <SMILES>  (18) 
C=c1c([O-])c(Sc2ccccc2N2CC=CC(=O)C2)c(CC)cc1=Cc1[n-]c(=O)[n-]c1[O-]

>  <Energy>  (18) 
109.2310574003579

>  <Genealogy>  (18) 
C=c1c([O-])c(Sc2ccccc2N2CC=CC(=O)C2)c(CC)cc1=Cc1[n-]c(=O)[n-]c1[O-] (protonated)
C=c1c([O-])c(Sc2ccccc2N2CC=CC(=O)C2)c(CC)cc1=Cc1[n-]c(=O)[n-]c1[O-] (3D coordinates assigned)
C=c1c([O-])c(Sc2ccccc2N2CC=CC(=O)C2)c(CC)cc1=Cc1[n-]c(=O)[n-]c1[O-] (nonaromatic ring conformer: 109.2310574003579 kcal/mol)

>  <smiles>  (18) 
C=c1c(O)c(Sc2ccccc2N2CC=CC(=O)C2)c(CC)cc1=Cc1[nH]c(=O)[nH]c1O

>  <score_type>  (18) 
oracle

>  <origin>  (18) 
adg

>  <m_score__min__energy>  (18) 
-17.309999999999999

>  <m_primary>  (18) 
energy

$$$$
18:0
     RDKit          3D

 69 72  0  0  0  0  0  0  0  0999 V2000
   58.8590   29.3530   47.9900 C   0  0  0  0  0  0  0  0  0  0  0  0
   60.2840   29.4620   48.3470 N   0  0  0  0  0  0  0  0  0  0  0  0
   60.4610   30.3850   49.4920 C   0  0  0  0  0  0  0  0  0  0  0  0
   61.8790   30.9750   49.5210 C   0  0  0  0  0  0  0  0  0  0  0  0
   62.1690   31.7830   48.3090 N   0  0  0  0  0  0  0  0  0  0  0  0
   61.9560   33.2280   48.5620 C   0  0  0  0  0  0  0  0  0  0  0  0
   61.5590   33.9930   47.2910 C   0  0  0  0  0  0  0  0  0  0  0  0
   59.8160   34.3980   47.2640 S   0  0  0  0  0  0  0  0  0  0  0  0
   59.2040   34.1180   48.6080 O   0  0  0  0  0  0  0  0  0  0  0  0
   59.6410   35.8550   46.9400 O   0  0  0  0  0  0  0  0  0  0  0  0
   59.0100   33.4140   46.0450 C   0  0  0  0  0  0  0  0  0  0  0  0
   58.9090   33.8550   44.7180 C   0  0  0  0  0  0  0  0  0  0  0  0
   58.2810   33.0580   43.7570 C   0  0  0  0  0  0  0  0  0  0  0  0
   57.7490   31.8070   44.1110 C   0  0  0  0  0  0  0  0  0  0  0  0
   57.0840   30.9440   43.0750 C   0  0  0  0  0  0  0  0  0  0  0  0
   56.8450   29.5670   43.6150 C   0  0  0  0  0  0  0  0  0  0  0  0
   55.7390   29.3060   44.1640 O   0  0  0  0  0  0  0  0  0  0  0  0
   57.8830   28.5770   43.5440 N   0  0  0  0  0  0  0  0  0  0  0  0
   57.7300   27.2180   43.9940 C   0  0  0  0  0  0  0  0  0  0  0  0
   57.4960   26.9150   45.3460 C   0  0  0  0  0  0  0  0  0  0  0  0
   57.3550   25.5860   45.7580 C   0  0  0  0  0  0  0  0  0  0  0  0
   57.4360   24.5460   44.8230 C   0  0  0  0  0  0  0  0  0  0  0  0
   57.3120   23.1430   45.2600 C   0  0  0  0  0  0  0  0  0  0  0  0
   58.4810   22.4240   45.5520 C   0  0  0  0  0  0  0  0  0  0  0  0
   58.4070   21.0910   45.9600 C   0  0  0  0  0  0  0  0  0  0  0  0
   57.1660   20.4660   46.0830 C   0  0  0  0  0  0  0  0  0  0  0  0
   55.9930   21.1720   45.8030 C   0  0  0  0  0  0  0  0  0  0  0  0
   56.0510   22.5130   45.3900 C   0  0  0  0  0  0  0  0  0  0  0  0
   54.5450   23.3910   45.0660 S   0  0  0  0  0  0  0  0  0  0  0  0
   53.1650   22.4580   45.5350 N   0  0  0  0  0  0  0  0  0  0  0  0
   54.5330   24.6710   45.8520 O   0  0  0  0  0  0  0  0  0  0  0  0
   54.4440   23.7040   43.6000 O   0  0  0  0  0  0  0  0  0  0  0  0
   57.6240   24.8460   43.4670 C   0  0  0  0  0  0  0  0  0  0  0  0
   57.7670   26.1750   43.0560 C   0  0  0  0  0  0  0  0  0  0  0  0
   57.8320   31.3790   45.4440 C   0  0  0  0  0  0  0  0  0  0  0  0
   58.4610   32.1760   46.4040 C   0  0  0  0  0  0  0  0  0  0  0  0
   61.4220   31.3210   47.1090 C   0  0  0  0  0  0  0  0  0  0  0  0
   61.1100   29.8180   47.1670 C   0  0  0  0  0  0  0  0  0  0  0  0
   58.2537   29.3067   48.9073 H   0  0  0  0  0  0  0  0  0  0  0  0
   58.5611   30.2310   47.3981 H   0  0  0  0  0  0  0  0  0  0  0  0
   58.6981   28.4399   47.3981 H   0  0  0  0  0  0  0  0  0  0  0  0
   59.7334   31.2056   49.4063 H   0  0  0  0  0  0  0  0  0  0  0  0
   60.3021   29.8187   50.4215 H   0  0  0  0  0  0  0  0  0  0  0  0
   61.9786   31.6172   50.4085 H   0  0  0  0  0  0  0  0  0  0  0  0
   62.5944   30.1400   49.5526 H   0  0  0  0  0  0  0  0  0  0  0  0
   61.1551   33.3417   49.3074 H   0  0  0  0  0  0  0  0  0  0  0  0
   62.9060   33.6486   48.9234 H   0  0  0  0  0  0  0  0  0  0  0  0
   62.1404   34.9255   47.2424 H   0  0  0  0  0  0  0  0  0  0  0  0
   61.7691   33.3454   46.4270 H   0  0  0  0  0  0  0  0  0  0  0  0
   59.3257   34.8321   44.4321 H   0  0  0  0  0  0  0  0  0  0  0  0
   58.2029   33.4120   42.7184 H   0  0  0  0  0  0  0  0  0  0  0  0
   56.1210   31.3944   42.7925 H   0  0  0  0  0  0  0  0  0  0  0  0
   57.7413   30.8726   42.1959 H   0  0  0  0  0  0  0  0  0  0  0  0
   58.8450   28.9050   43.3050 H   0  0  0  0  0  0  0  0  0  0  0  0
   57.4233   27.7273   46.0841 H   0  0  0  0  0  0  0  0  0  0  0  0
   57.1800   25.3566   46.8195 H   0  0  0  0  0  0  0  0  0  0  0  0
   59.4616   22.9136   45.4589 H   0  0  0  0  0  0  0  0  0  0  0  0
   59.3280   20.5331   46.1847 H   0  0  0  0  0  0  0  0  0  0  0  0
   57.1106   19.4145   46.4013 H   0  0  0  0  0  0  0  0  0  0  0  0
   55.0177   20.6740   45.9068 H   0  0  0  0  0  0  0  0  0  0  0  0
   53.4880   21.4720   45.6690 H   0  0  0  0  0  0  0  0  0  0  0  0
   57.6591   24.0349   42.7248 H   0  0  0  0  0  0  0  0  0  0  0  0
   57.9095   26.4044   41.9897 H   0  0  0  0  0  0  0  0  0  0  0  0
   57.3995   30.4105   45.7354 H   0  0  0  0  0  0  0  0  0  0  0  0
   58.5254   31.8299   47.4462 H   0  0  0  0  0  0  0  0  0  0  0  0
   60.4755   31.8777   47.0441 H   0  0  0  0  0  0  0  0  0  0  0  0
   62.0526   31.5027   46.2262 H   0  0  0  0  0  0  0  0  0  0  0  0
   60.5653   29.5339   46.2546 H   0  0  0  0  0  0  0  0  0  0  0  0
   62.0648   29.2779   47.2479 H   0  0  0  0  0  0  0  0  0  0  0  0
  1  2  1  0
  2  3  1  0
  3  4  1  0
  4  5  1  0
  5  6  1  0
  6  7  1  0
  7  8  1  0
  8  9  2  0
  8 10  2  0
  8 11  1  0
 11 12  2  0
 12 13  1  0
 13 14  2  0
 14 15  1  0
 15 16  1  0
 16 17  2  0
 16 18  1  0
 18 19  1  0
 19 20  2  0
 20 21  1  0
 21 22  2  0
 22 23  1  0
 23 24  2  0
 24 25  1  0
 25 26  2  0
 26 27  1  0
 27 28  2  0
 28 29  1  0
 29 30  1  0
 29 31  2  0
 29 32  2  0
 22 33  1  0
 33 34  2  0
 14 35  1  0
 35 36  2  0
  5 37  1  0
 37 38  1  0
 38  2  1  0
 36 11  1  0
 34 19  1  0
 28 23  1  0
  1 39  1  0
  1 40  1  0
  1 41  1  0
  3 42  1  0
  3 43  1  0
  4 44  1  0
  4 45  1  0
  6 46  1  0
  6 47  1  0
  7 48  1  0
  7 49  1  0
 12 50  1  0
 13 51  1  0
 15 52  1  0
 15 53  1  0
 18 54  1  0
 20 55  1  0
 21 56  1  0
 24 57  1  0
 25 58  1  0
 26 59  1  0
 27 60  1  0
 30 61  1  0
 33 62  1  0
 34 63  1  0
 35 64  1  0
 36 65  1  0
 37 66  1  0
 37 67  1  0
 38 68  1  0
 38 69  1  0
M  CHG  1  30  -1
M  END
>  <UniqueID>  (19) 
19

>  <SMILES>  (19) 
CN1CCN(CCS(=O)(=O)c2ccc(CC(=O)Nc3ccc(-c4ccccc4S([NH-])(=O)=O)cc3)cc2)CC1

>  <Energy>  (19) 
91.34376049717693

>  <Genealogy>  (19) 
CN1CCN(CCS(=O)(=O)c2ccc(CC(=O)Nc3ccc(-c4ccccc4S([NH-])(=O)=O)cc3)cc2)CC1 (protonated)
CN1CCN(CCS(=O)(=O)c2ccc(CC(=O)Nc3ccc(-c4ccccc4S([NH-])(=O)=O)cc3)cc2)CC1 (3D coordinates assigned)
CN1CCN(CCS(=O)(=O)c2ccc(CC(=O)Nc3ccc(-c4ccccc4S([NH-])(=O)=O)cc3)cc2)CC1 (nonaromatic ring conformer: 91.34376049717693 kcal/mol)

>  <smiles>  (19) 
CN1CCN(CCS(=O)(=O)c2ccc(CC(=O)Nc3ccc(-c4ccccc4S(N)(=O)=O)cc3)cc2)CC1

>  <score_type>  (19) 
oracle

>  <origin>  (19) 
adg

>  <m_score__min__energy>  (19) 
-13.029999999999999

>  <m_primary>  (19) 
energy

$$$$
19:0
     RDKit          3D

 65 68  0  0  0  0  0  0  0  0999 V2000
   54.8150   26.1360   45.7870 O   0  0  0  0  0  0  0  0  0  0  0  0
   55.9040   26.7260   46.0200 C   0  0  0  0  0  0  0  0  0  0  0  0
   56.9300   26.0480   46.8780 C   0  0  0  0  0  0  0  0  0  0  0  0
   57.9860   25.4960   46.0350 N   0  0  0  0  0  0  0  0  0  0  0  0
   59.3810   25.8040   46.1570 C   0  0  0  0  0  0  0  0  0  0  0  0
   60.2220   24.8910   45.9390 O   0  0  0  0  0  0  0  0  0  0  0  0
   59.8660   27.1660   46.4640 C   0  0  0  0  0  0  0  0  0  0  0  0
   60.2790   28.0110   45.4220 C   0  0  0  0  0  0  0  0  0  0  0  0
   60.7140   29.3090   45.7000 C   0  0  0  0  0  0  0  0  0  0  0  0
   60.7560   29.7680   47.0190 C   0  0  0  0  0  0  0  0  0  0  0  0
   60.3980   28.9230   48.0730 C   0  0  0  0  0  0  0  0  0  0  0  0
   60.4610   29.4180   49.3840 O   0  0  0  0  0  0  0  0  0  0  0  0
   59.5230   30.2800   49.9740 C   0  0  0  0  0  0  0  0  0  0  0  0
   59.0960   31.4610   49.3370 C   0  0  0  0  0  0  0  0  0  0  0  0
   58.1420   32.2830   49.9470 C   0  0  0  0  0  0  0  0  0  0  0  0
   57.6030   31.9290   51.1860 C   0  0  0  0  0  0  0  0  0  0  0  0
   58.0120   30.7490   51.8150 C   0  0  0  0  0  0  0  0  0  0  0  0
   58.9640   29.9250   51.2070 C   0  0  0  0  0  0  0  0  0  0  0  0
   59.9440   27.6220   47.7900 C   0  0  0  0  0  0  0  0  0  0  0  0
   56.1370   28.0090   45.4210 N   0  0  0  0  0  0  0  0  0  0  0  0
   57.1790   28.9520   45.8160 C   0  0  0  0  0  0  0  0  0  0  0  0
   57.3350   30.0610   44.7690 C   0  0  0  0  0  0  0  0  0  0  0  0
   58.1220   31.2440   45.3360 C   0  0  0  0  0  0  0  0  0  0  0  0
   57.5200   32.5120   44.8620 N   0  0  0  0  0  0  0  0  0  0  0  0
   56.8780   33.2870   45.9460 C   0  0  0  0  0  0  0  0  0  0  0  0
   57.9010   33.8640   46.9450 C   0  0  0  0  0  0  0  0  0  0  0  0
   59.2450   33.8990   46.3610 N   0  0  0  0  0  0  0  0  0  0  0  0
   60.4060   33.6970   47.1870 C   0  0  0  0  0  0  0  0  0  0  0  0
   61.4890   32.9440   46.7030 C   0  0  0  0  0  0  0  0  0  0  0  0
   62.6170   32.7330   47.5010 C   0  0  0  0  0  0  0  0  0  0  0  0
   62.6740   33.2710   48.7900 C   0  0  0  0  0  0  0  0  0  0  0  0
   61.6000   34.0200   49.2820 C   0  0  0  0  0  0  0  0  0  0  0  0
   60.4680   34.2310   48.4890 C   0  0  0  0  0  0  0  0  0  0  0  0
   59.4490   34.9800   48.9790 F   0  0  0  0  0  0  0  0  0  0  0  0
   59.3880   34.2180   44.9390 C   0  0  0  0  0  0  0  0  0  0  0  0
   58.4500   33.3510   44.0720 C   0  0  0  0  0  0  0  0  0  0  0  0
   57.3637   26.7787   47.5766 H   0  0  0  0  0  0  0  0  0  0  0  0
   56.4526   25.2350   47.4448 H   0  0  0  0  0  0  0  0  0  0  0  0
   60.2600   27.6499   44.3831 H   0  0  0  0  0  0  0  0  0  0  0  0
   61.0243   29.9714   44.8784 H   0  0  0  0  0  0  0  0  0  0  0  0
   61.0726   30.8003   47.2290 H   0  0  0  0  0  0  0  0  0  0  0  0
   59.5133   31.7380   48.3577 H   0  0  0  0  0  0  0  0  0  0  0  0
   57.8162   33.2088   49.4503 H   0  0  0  0  0  0  0  0  0  0  0  0
   56.8568   32.5785   51.6670 H   0  0  0  0  0  0  0  0  0  0  0  0
   57.5844   30.4688   52.7890 H   0  0  0  0  0  0  0  0  0  0  0  0
   59.2754   28.9925   51.7005 H   0  0  0  0  0  0  0  0  0  0  0  0
   59.6476   26.9564   48.6141 H   0  0  0  0  0  0  0  0  0  0  0  0
   56.9094   29.4035   46.7821 H   0  0  0  0  0  0  0  0  0  0  0  0
   58.1322   28.4095   45.8996 H   0  0  0  0  0  0  0  0  0  0  0  0
   57.8696   29.6587   43.8959 H   0  0  0  0  0  0  0  0  0  0  0  0
   56.3338   30.4128   44.4795 H   0  0  0  0  0  0  0  0  0  0  0  0
   58.0907   31.2119   46.4351 H   0  0  0  0  0  0  0  0  0  0  0  0
   59.1666   31.1853   44.9964 H   0  0  0  0  0  0  0  0  0  0  0  0
   56.3140   34.1187   45.4987 H   0  0  0  0  0  0  0  0  0  0  0  0
   56.2185   32.6031   46.5004 H   0  0  0  0  0  0  0  0  0  0  0  0
   57.6005   34.8866   47.2170 H   0  0  0  0  0  0  0  0  0  0  0  0
   57.9230   33.2185   47.8354 H   0  0  0  0  0  0  0  0  0  0  0  0
   61.4489   32.5179   45.6897 H   0  0  0  0  0  0  0  0  0  0  0  0
   63.4609   32.1429   47.1142 H   0  0  0  0  0  0  0  0  0  0  0  0
   63.5627   33.1055   49.4168 H   0  0  0  0  0  0  0  0  0  0  0  0
   61.6461   34.4443   50.2958 H   0  0  0  0  0  0  0  0  0  0  0  0
   59.1412   35.2786   44.7832 H   0  0  0  0  0  0  0  0  0  0  0  0
   60.4262   34.0117   44.6398 H   0  0  0  0  0  0  0  0  0  0  0  0
   57.8564   34.0172   43.4287 H   0  0  0  0  0  0  0  0  0  0  0  0
   59.0872   32.6676   43.4914 H   0  0  0  0  0  0  0  0  0  0  0  0
  1  2  2  0
  2  3  1  0
  3  4  1  0
  4  5  1  0
  5  6  2  0
  5  7  1  0
  7  8  2  0
  8  9  1  0
  9 10  2  0
 10 11  1  0
 11 12  1  0
 12 13  1  0
 13 14  2  0
 14 15  1  0
 15 16  2  0
 16 17  1  0
 17 18  2  0
 11 19  2  0
  2 20  1  0
 20 21  1  0
 21 22  1  0
 22 23  1  0
 23 24  1  0
 24 25  1  0
 25 26  1  0
 26 27  1  0
 27 28  1  0
 28 29  2  0
 29 30  1  0
 30 31  2  0
 31 32  1  0
 32 33  2  0
 33 34  1  0
 27 35  1  0
 35 36  1  0
 19  7  1  0
 36 24  1  0
 18 13  1  0
 33 28  1  0
  3 37  1  0
  3 38  1  0
  8 39  1  0
  9 40  1  0
 10 41  1  0
 14 42  1  0
 15 43  1  0
 16 44  1  0
 17 45  1  0
 18 46  1  0
 19 47  1  0
 21 48  1  0
 21 49  1  0
 22 50  1  0
 22 51  1  0
 23 52  1  0
 23 53  1  0
 25 54  1  0
 25 55  1  0
 26 56  1  0
 26 57  1  0
 29 58  1  0
 30 59  1  0
 31 60  1  0
 32 61  1  0
 35 62  1  0
 35 63  1  0
 36 64  1  0
 36 65  1  0
M  CHG  2   4  -1  20  -1
M  END
>  <UniqueID>  (20) 
20

>  <SMILES>  (20) 
O=C(C[N-]C(=O)c1cccc(Oc2ccccc2)c1)[N-]CCCN1CCN(c2ccccc2F)CC1

>  <Energy>  (20) 
84.8246163266867

>  <Genealogy>  (20) 
O=C(C[N-]C(=O)c1cccc(Oc2ccccc2)c1)[N-]CCCN1CCN(c2ccccc2F)CC1 (protonated)
O=C(C[N-]C(=O)c1cccc(Oc2ccccc2)c1)[N-]CCCN1CCN(c2ccccc2F)CC1 (3D coordinates assigned)
O=C(C[N-]C(=O)c1cccc(Oc2ccccc2)c1)[N-]CCCN1CCN(c2ccccc2F)CC1 (nonaromatic ring conformer: 84.8246163266867 kcal/mol)

>  <smiles>  (20) 
O=C(CNC(=O)c1cccc(Oc2ccccc2)c1)NCCCN1CCN(c2ccccc2F)CC1

>  <score_type>  (20) 
oracle

>  <origin>  (20) 
adg

>  <m_score__min__energy>  (20) 
-12.380000000000001

>  <m_primary>  (20) 
energy

$$$$
20:0
     RDKit          3D

 42 44  0  0  0  0  0  0  0  0999 V2000
   57.6350   32.2890   41.1760 C   0  0  0  0  0  0  0  0  0  0  0  0
   57.5780   31.9060   42.4470 C   0  0  0  0  0  0  0  0  0  0  0  0
   58.1530   32.6190   43.5350 N   0  0  0  0  0  0  0  0  0  0  0  0
   57.8700   31.8430   44.7040 C   0  0  0  0  0  0  0  0  0  0  0  0
   58.2820   32.2530   46.0810 C   0  0  0  0  0  0  0  0  0  0  0  0
   57.1600   30.7510   44.4190 C   0  0  0  0  0  0  0  0  0  0  0  0
   56.7500   29.8060   45.3690 O   0  0  0  0  0  0  0  0  0  0  0  0
   57.2020   28.4810   45.4230 C   0  0  0  0  0  0  0  0  0  0  0  0
   56.2680   27.4570   45.6170 C   0  0  0  0  0  0  0  0  0  0  0  0
   56.6810   26.1220   45.6640 C   0  0  0  0  0  0  0  0  0  0  0  0
   58.0330   25.7960   45.4980 C   0  0  0  0  0  0  0  0  0  0  0  0
   58.5470   24.1130   45.5910 S   0  0  0  0  0  0  0  0  0  0  0  0
   57.8750   23.4360   46.7530 O   0  0  0  0  0  0  0  0  0  0  0  0
   60.0350   24.0730   45.8070 O   0  0  0  0  0  0  0  0  0  0  0  0
   58.1480   23.2860   44.1040 N   0  0  0  0  0  0  0  0  0  0  0  0
   56.8320   23.7400   43.6130 C   0  0  0  0  0  0  0  0  0  0  0  0
   56.2310   22.7090   42.6450 C   0  0  0  0  0  0  0  0  0  0  0  0
   56.0290   21.4200   43.2160 O   0  0  0  0  0  0  0  0  0  0  0  0
   56.8360   21.1680   44.3580 C   0  0  0  0  0  0  0  0  0  0  0  0
   58.2270   21.8190   44.2730 C   0  0  0  0  0  0  0  0  0  0  0  0
   58.9700   26.8160   45.2860 C   0  0  0  0  0  0  0  0  0  0  0  0
   58.5560   28.1510   45.2400 C   0  0  0  0  0  0  0  0  0  0  0  0
   56.9490   30.7080   42.9730 C   0  0  0  0  0  0  0  0  0  0  0  0
   56.4020   29.7880   42.3080 O   0  0  0  0  0  0  0  0  0  0  0  0
   57.1615   31.6759   40.3950 H   0  0  0  0  0  0  0  0  0  0  0  0
   58.1557   33.2192   40.9047 H   0  0  0  0  0  0  0  0  0  0  0  0
   58.6790   33.5200   43.4910 H   0  0  0  0  0  0  0  0  0  0  0  0
   57.7058   31.6796   46.8221 H   0  0  0  0  0  0  0  0  0  0  0  0
   59.3552   32.0539   46.2172 H   0  0  0  0  0  0  0  0  0  0  0  0
   58.0882   33.3272   46.2172 H   0  0  0  0  0  0  0  0  0  0  0  0
   55.2024   27.7039   45.7332 H   0  0  0  0  0  0  0  0  0  0  0  0
   55.9416   25.3251   45.8319 H   0  0  0  0  0  0  0  0  0  0  0  0
   56.1528   23.8718   44.4682 H   0  0  0  0  0  0  0  0  0  0  0  0
   56.9619   24.6934   43.0799 H   0  0  0  0  0  0  0  0  0  0  0  0
   55.2588   23.0883   42.2971 H   0  0  0  0  0  0  0  0  0  0  0  0
   56.9565   22.5824   41.8279 H   0  0  0  0  0  0  0  0  0  0  0  0
   56.3191   21.5625   45.2452 H   0  0  0  0  0  0  0  0  0  0  0  0
   56.9875   20.0801   44.4174 H   0  0  0  0  0  0  0  0  0  0  0  0
   58.7786   21.5983   45.1988 H   0  0  0  0  0  0  0  0  0  0  0  0
   58.7403   21.4049   43.3927 H   0  0  0  0  0  0  0  0  0  0  0  0
   60.0333   26.5662   45.1555 H   0  0  0  0  0  0  0  0  0  0  0  0
   59.2937   28.9468   45.0597 H   0  0  0  0  0  0  0  0  0  0  0  0
  1  2  2  0
  2  3  1  0
  3  4  1  0
  4  5  1  0
  4  6  2  0
  6  7  1  0
  7  8  1  0
  8  9  2  0
  9 10  1  0
 10 11  2  0
 11 12  1  0
 12 13  2  0
 12 14  2  0
 12 15  1  0
 15 16  1  0
 16 17  1  0
 17 18  1  0
 18 19  1  0
 19 20  1  0
 11 21  1  0
 21 22  2  0
  6 23  1  0
 23 24  2  0
 23  2  1  0
 22  8  1  0
 20 15  1  0
  1 25  1  0
  1 26  1  0
  3 27  1  0
  5 28  1  0
  5 29  1  0
  5 30  1  0
  9 31  1  0
 10 32  1  0
 16 33  1  0
 16 34  1  0
 17 35  1  0
 17 36  1  0
 19 37  1  0
 19 38  1  0
 20 39  1  0
 20 40  1  0
 21 41  1  0
 22 42  1  0
M  END
>  <UniqueID>  (21) 
21

>  <SMILES>  (21) 
C=C1NC(C)=C(Oc2ccc(S(=O)(=O)N3CCOCC3)cc2)C1=O

>  <Energy>  (21) 
84.77396452373243

>  <Genealogy>  (21) 
C=C1NC(C)=C(Oc2ccc(S(=O)(=O)N3CCOCC3)cc2)C1=O (3D coordinates assigned)
C=C1NC(C)=C(Oc2ccc(S(=O)(=O)N3CCOCC3)cc2)C1=O (nonaromatic ring conformer: 84.77396452373243 kcal/mol)

>  <smiles>  (21) 
C=C1NC(C)=C(Oc2ccc(S(=O)(=O)N3CCOCC3)cc2)C1=O

>  <score_type>  (21) 
oracle

>  <origin>  (21) 
adg

>  <m_score__min__energy>  (21) 
-8.4100000000000001

>  <m_primary>  (21) 
energy

$$$$
21:0
     RDKit          3D

 78 82  0  0  1  0  0  0  0  0999 V2000
   53.8040   26.9650   53.5250 C   0  0  0  0  0  0  0  0  0  0  0  0
   53.6310   28.3660   53.3660 O   0  0  0  0  0  0  0  0  0  0  0  0
   54.7110   29.1680   53.0160 C   0  0  0  0  0  0  0  0  0  0  0  0
   56.0210   28.8370   53.3250 C   0  0  0  0  0  0  0  0  0  0  0  0
   57.0680   29.6600   52.9610 C   0  0  0  0  0  0  0  0  0  0  0  0
   56.8560   30.8540   52.2680 C   0  0  0  0  0  0  0  0  0  0  0  0
   57.9640   31.6710   51.9100 N   0  0  0  0  0  0  0  0  0  0  0  0
   58.6790   31.5120   50.8720 C   0  0  0  0  0  0  0  0  0  0  0  0
   58.5290   30.3520   50.1470 C   0  0  0  0  0  0  0  0  0  0  0  0
   59.3100   30.1980   49.0240 C   0  0  0  0  0  0  0  0  0  0  0  0
   59.2610   29.0270   48.1590 C   0  0  0  0  0  0  0  0  0  0  0  0
   59.6500   27.8880   48.5660 O   0  0  0  0  0  0  0  0  0  0  0  0
   58.7840   29.0760   46.8210 N   0  0  0  0  0  0  0  0  0  0  0  0
   58.7250   27.9370   45.9450 C   0  0  0  0  0  0  0  0  0  0  0  0
   57.9510   26.7860   46.5530 C   0  0  0  0  0  0  0  0  0  0  0  0
   57.9020   25.6040   45.6200 C   0  0  0  0  0  0  0  0  0  0  0  0
   57.4470   25.9730   44.2980 N   0  0  0  0  0  0  0  0  0  0  0  0
   57.2330   24.8730   43.4270 C   0  0  0  0  0  0  0  0  0  0  0  0
   57.0210   23.5680   44.0710 C   0  0  0  0  0  0  0  0  0  0  0  0
   57.9890   22.5870   44.1520 C   0  0  0  0  0  0  0  0  0  0  0  0
   57.7110   21.3700   44.7850 C   0  0  0  0  0  0  0  0  0  0  0  0
   56.4390   21.1820   45.3230 C   0  0  0  0  0  0  0  0  0  0  0  0
   55.4580   22.1470   45.2530 C   0  0  0  0  0  0  0  0  0  0  0  0
   55.7540   23.3430   44.6240 C   0  0  0  0  0  0  0  0  0  0  0  0
   58.2270   27.0470   43.7270 C   0  0  0  0  0  0  0  0  0  0  0  0
   58.1670   28.2860   44.5880 C   0  0  0  0  0  0  0  0  0  0  0  0
   60.1660   31.1880   48.7120 N   0  0  0  0  0  0  0  0  0  0  0  0
   60.3110   32.3110   49.4130 C   0  0  0  0  0  0  0  0  0  0  0  0
   61.2350   33.3130   49.0240 N   0  0  0  0  0  0  0  0  0  0  0  0
   60.8130   34.0770   47.8820 C   0  0  0  0  0  0  0  0  0  0  0  0
   61.5360   33.4810   46.6760 C   0  0  0  0  0  0  0  0  0  0  0  0
   62.9420   34.0020   46.7440 C   0  0  0  0  0  0  0  0  0  0  0  0
   63.7470   33.3600   47.7500 N   0  0  0  0  0  0  0  0  0  0  0  0
   63.2520   31.9750   47.8200 C   0  0  0  0  0  0  0  0  0  0  0  0
   63.5990   33.9010   49.0590 C   0  0  0  0  0  0  0  0  0  0  0  0
   62.4420   33.3810   49.8510 C   0  0  0  0  0  0  0  0  0  0  0  0
   59.5390   32.4690   50.5250 N   0  0  0  0  0  0  0  0  0  0  0  0
   55.5500   31.1730   51.9650 C   0  0  0  0  0  0  0  0  0  0  0  0
   54.5050   30.3400   52.3360 C   0  0  0  0  0  0  0  0  0  0  0  0
   53.8344   26.7186   54.5966 H   0  0  0  0  0  0  0  0  0  0  0  0
   52.9644   26.4357   53.0508 H   0  0  0  0  0  0  0  0  0  0  0  0
   54.7471   26.6559   53.0508 H   0  0  0  0  0  0  0  0  0  0  0  0
   56.2297   27.9039   53.8688 H   0  0  0  0  0  0  0  0  0  0  0  0
   58.0955   29.3679   53.2235 H   0  0  0  0  0  0  0  0  0  0  0  0
   57.8116   29.5765   50.4535 H   0  0  0  0  0  0  0  0  0  0  0  0
   58.4400   29.9940   46.4110 H   0  0  0  0  0  0  0  0  0  0  0  0
   59.7664   27.6105   45.8076 H   0  0  0  0  0  0  0  0  0  0  0  0
   58.4391   26.4820   47.4907 H   0  0  0  0  0  0  0  0  0  0  0  0
   56.9206   27.1221   46.7410 H   0  0  0  0  0  0  0  0  0  0  0  0
   58.9109   25.1729   45.5404 H   0  0  0  0  0  0  0  0  0  0  0  0
   57.1883   24.8759   46.0329 H   0  0  0  0  0  0  0  0  0  0  0  0
   56.3446   25.0951   42.8176 H   0  0  0  0  0  0  0  0  0  0  0  0
   58.1632   24.7691   42.8492 H   0  0  0  0  0  0  0  0  0  0  0  0
   58.9839   22.7627   43.7168 H   0  0  0  0  0  0  0  0  0  0  0  0
   58.4761   20.5828   44.8560 H   0  0  0  0  0  0  0  0  0  0  0  0
   56.2100   20.2286   45.8216 H   0  0  0  0  0  0  0  0  0  0  0  0
   54.4628   21.9705   45.6871 H   0  0  0  0  0  0  0  0  0  0  0  0
   54.9850   24.1268   44.5573 H   0  0  0  0  0  0  0  0  0  0  0  0
   59.2742   26.7220   43.6392 H   0  0  0  0  0  0  0  0  0  0  0  0
   57.8111   27.2907   42.7382 H   0  0  0  0  0  0  0  0  0  0  0  0
   58.7674   29.0870   44.1321 H   0  0  0  0  0  0  0  0  0  0  0  0
   57.1288   28.6377   44.6803 H   0  0  0  0  0  0  0  0  0  0  0  0
   60.7650   31.0790   47.8560 H   0  0  0  0  0  0  0  0  0  0  0  0
   59.7238   33.9962   47.7512 H   0  0  0  0  0  0  0  0  0  0  0  0
   61.0522   35.1437   48.0043 H   0  0  0  0  0  0  0  0  0  0  0  0
   61.5315   32.3824   46.7311 H   0  0  0  0  0  0  0  0  0  0  0  0
   61.0460   33.7599   45.7315 H   0  0  0  0  0  0  0  0  0  0  0  0
   63.4186   33.8452   45.7651 H   0  0  0  0  0  0  0  0  0  0  0  0
   62.8786   35.0667   47.0130 H   0  0  0  0  0  0  0  0  0  0  0  0
   63.1453   31.6765   48.8733 H   0  0  0  0  0  0  0  0  0  0  0  0
   62.2747   31.9092   47.3195 H   0  0  0  0  0  0  0  0  0  0  0  0
   63.9662   31.3046   47.3195 H   0  0  0  0  0  0  0  0  0  0  0  0
   64.5187   33.6813   49.6210 H   0  0  0  0  0  0  0  0  0  0  0  0
   63.4064   34.9749   48.9185 H   0  0  0  0  0  0  0  0  0  0  0  0
   62.6824   32.3737   50.2220 H   0  0  0  0  0  0  0  0  0  0  0  0
   62.2550   34.0641   50.6927 H   0  0  0  0  0  0  0  0  0  0  0  0
   55.3328   32.1035   51.4200 H   0  0  0  0  0  0  0  0  0  0  0  0
   53.4763   30.6297   52.0757 H   0  0  0  0  0  0  0  0  0  0  0  0
  1  2  1  0
  2  3  1  0
  3  4  2  0
  4  5  1  0
  5  6  2  0
  6  7  1  0
  7  8  2  0
  8  9  1  0
  9 10  2  0
 10 11  1  0
 11 12  2  0
 11 13  1  0
 13 14  1  0
 14 15  1  0
 15 16  1  0
 16 17  1  0
 17 18  1  0
 18 19  1  0
 19 20  2  0
 20 21  1  0
 21 22  2  0
 22 23  1  0
 23 24  2  0
 17 25  1  0
 25 26  1  0
 10 27  1  0
 27 28  1  0
 28 29  1  0
 29 30  1  0
 30 31  1  0
 31 32  1  0
 32 33  1  0
 33 34  1  0
 33 35  1  0
 35 36  1  0
 28 37  2  0
  6 38  1  0
 38 39  2  0
 39  3  1  0
 37  8  1  0
 26 14  1  0
 36 29  1  0
 24 19  1  0
  1 40  1  0
  1 41  1  0
  1 42  1  0
  4 43  1  0
  5 44  1  0
  9 45  1  0
 13 46  1  0
 14 47  1  0
 15 48  1  0
 15 49  1  0
 16 50  1  0
 16 51  1  0
 18 52  1  0
 18 53  1  0
 20 54  1  0
 21 55  1  0
 22 56  1  0
 23 57  1  0
 24 58  1  0
 25 59  1  0
 25 60  1  0
 26 61  1  0
 26 62  1  0
 27 63  1  0
 30 64  1  0
 30 65  1  0
 31 66  1  0
 31 67  1  0
 32 68  1  0
 32 69  1  0
 34 70  1  0
 34 71  1  0
 34 72  1  0
 35 73  1  0
 35 74  1  0
 36 75  1  0
 36 76  1  0
 38 77  1  0
 39 78  1  0
M  END
>  <smiles>  (22) 
COc1ccc(N=c2cc(C(=O)NC3CCN(Cc4ccccc4)CC3)[nH]c(N3CCCN(C)CC3)n2)cc1

>  <score_type>  (22) 
oracle

>  <origin>  (22) 
adg

>  <m_score__min__energy>  (22) 
-6.3200000000000003

>  <m_primary>  (22) 
energy

$$$$
22:0
     RDKit          3D

 45 47  0  0  0  0  0  0  0  0999 V2000
   58.2160   34.2660   45.6690 C   0  0  0  0  0  0  0  0  0  0  0  0
   59.4260   34.1450   46.5470 C   0  0  0  0  0  0  0  0  0  0  0  0
   60.6900   33.9140   45.9810 C   0  0  0  0  0  0  0  0  0  0  0  0
   61.8120   33.7650   46.8010 C   0  0  0  0  0  0  0  0  0  0  0  0
   61.6800   33.8390   48.1930 C   0  0  0  0  0  0  0  0  0  0  0  0
   63.1210   33.6400   49.2440 S   0  0  0  0  0  0  0  0  0  0  0  0
   63.1470   31.8140   49.1570 C   0  0  0  0  0  0  0  0  0  0  0  0
   61.7850   31.2350   49.4370 C   0  0  0  0  0  0  0  0  0  0  0  0
   61.4020   31.1840   50.6370 O   0  0  0  0  0  0  0  0  0  0  0  0
   60.9340   30.7240   48.3840 N   0  0  0  0  0  0  0  0  0  0  0  0
   59.6170   30.1570   48.7130 C   0  0  0  0  0  0  0  0  0  0  0  0
   58.5830   30.5750   47.6650 C   0  0  0  0  0  0  0  0  0  0  0  0
   59.0570   30.3040   46.2980 N   0  0  0  0  0  0  0  0  0  0  0  0
   58.1090   30.2800   45.2080 C   0  0  0  0  0  0  0  0  0  0  0  0
   57.0440   29.3580   45.2010 C   0  0  0  0  0  0  0  0  0  0  0  0
   56.1260   29.3420   44.1460 C   0  0  0  0  0  0  0  0  0  0  0  0
   56.2580   30.2450   43.0890 C   0  0  0  0  0  0  0  0  0  0  0  0
   57.3050   31.1670   43.0850 C   0  0  0  0  0  0  0  0  0  0  0  0
   58.2260   31.1880   44.1380 C   0  0  0  0  0  0  0  0  0  0  0  0
   60.4560   29.9130   46.0730 C   0  0  0  0  0  0  0  0  0  0  0  0
   61.3960   30.7100   46.9840 C   0  0  0  0  0  0  0  0  0  0  0  0
   60.4180   34.0410   48.7620 C   0  0  0  0  0  0  0  0  0  0  0  0
   59.2940   34.1900   47.9440 C   0  0  0  0  0  0  0  0  0  0  0  0
   57.3161   34.3560   46.2952 H   0  0  0  0  0  0  0  0  0  0  0  0
   58.3116   35.1591   45.0339 H   0  0  0  0  0  0  0  0  0  0  0  0
   58.1329   33.3717   45.0339 H   0  0  0  0  0  0  0  0  0  0  0  0
   60.7976   33.8501   44.8881 H   0  0  0  0  0  0  0  0  0  0  0  0
   62.8007   33.5893   46.3519 H   0  0  0  0  0  0  0  0  0  0  0  0
   63.4669   31.5074   48.1502 H   0  0  0  0  0  0  0  0  0  0  0  0
   63.8475   31.4394   49.9179 H   0  0  0  0  0  0  0  0  0  0  0  0
   59.6892   29.0596   48.7342 H   0  0  0  0  0  0  0  0  0  0  0  0
   59.3011   30.5325   49.6975 H   0  0  0  0  0  0  0  0  0  0  0  0
   57.6526   30.0142   47.8380 H   0  0  0  0  0  0  0  0  0  0  0  0
   58.4130   31.6575   47.7620 H   0  0  0  0  0  0  0  0  0  0  0  0
   56.9336   28.6453   46.0315 H   0  0  0  0  0  0  0  0  0  0  0  0
   55.2987   28.6170   44.1488 H   0  0  0  0  0  0  0  0  0  0  0  0
   55.5361   30.2293   42.2592 H   0  0  0  0  0  0  0  0  0  0  0  0
   57.4066   31.8787   42.2525 H   0  0  0  0  0  0  0  0  0  0  0  0
   59.0477   31.9193   44.1300 H   0  0  0  0  0  0  0  0  0  0  0  0
   60.5697   28.8401   46.2873 H   0  0  0  0  0  0  0  0  0  0  0  0
   60.7173   30.1235   45.0254 H   0  0  0  0  0  0  0  0  0  0  0  0
   62.3968   30.2550   46.9456 H   0  0  0  0  0  0  0  0  0  0  0  0
   61.4150   31.7492   46.6239 H   0  0  0  0  0  0  0  0  0  0  0  0
   60.3098   34.0827   49.8559 H   0  0  0  0  0  0  0  0  0  0  0  0
   58.3031   34.3430   48.3964 H   0  0  0  0  0  0  0  0  0  0  0  0
  1  2  1  0
  2  3  2  0
  3  4  1  0
  4  5  2  0
  5  6  1  0
  6  7  1  0
  7  8  1  0
  8  9  2  0
  8 10  1  0
 10 11  1  0
 11 12  1  0
 12 13  1  0
 13 14  1  0
 14 15  2  0
 15 16  1  0
 16 17  2  0
 17 18  1  0
 18 19  2  0
 13 20  1  0
 20 21  1  0
  5 22  1  0
 22 23  2  0
 23  2  1  0
 21 10  1  0
 19 14  1  0
  1 24  1  0
  1 25  1  0
  1 26  1  0
  3 27  1  0
  4 28  1  0
  7 29  1  0
  7 30  1  0
 11 31  1  0
 11 32  1  0
 12 33  1  0
 12 34  1  0
 15 35  1  0
 16 36  1  0
 17 37  1  0
 18 38  1  0
 19 39  1  0
 20 40  1  0
 20 41  1  0
 21 42  1  0
 21 43  1  0
 22 44  1  0
 23 45  1  0
M  END
>  <UniqueID>  (23) 
22

>  <SMILES>  (23) 
Cc1ccc(SCC(=O)N2CCN(c3ccccc3)CC2)cc1

>  <Energy>  (23) 
44.81811495637489

>  <Genealogy>  (23) 
Cc1ccc(SCC(=O)N2CCN(c3ccccc3)CC2)cc1 (3D coordinates assigned)
Cc1ccc(SCC(=O)N2CCN(c3ccccc3)CC2)cc1 (nonaromatic ring conformer: 44.81811495637489 kcal/mol)

>  <smiles>  (23) 
Cc1ccc(SCC(=O)N2CCN(c3ccccc3)CC2)cc1

>  <score_type>  (23) 
oracle

>  <origin>  (23) 
adg

>  <m_score__min__energy>  (23) 
-7.54

>  <m_primary>  (23) 
energy

$$$$
23:0
     RDKit          3D

 55 58  0  0  0  0  0  0  0  0999 V2000
   63.3400   33.5130   46.4570 C   0  0  0  0  0  0  0  0  0  0  0  0
   62.0930   33.7560   47.2560 C   0  0  0  0  0  0  0  0  0  0  0  0
   62.1520   33.7850   48.6570 C   0  0  0  0  0  0  0  0  0  0  0  0
   60.9890   33.9690   49.4090 C   0  0  0  0  0  0  0  0  0  0  0  0
   59.7560   34.1130   48.7700 C   0  0  0  0  0  0  0  0  0  0  0  0
   59.6790   34.0760   47.3700 C   0  0  0  0  0  0  0  0  0  0  0  0
   58.3440   34.1630   46.6810 C   0  0  0  0  0  0  0  0  0  0  0  0
   58.3190   33.2770   45.5200 N   0  0  0  0  0  0  0  0  0  0  0  0
   58.3640   33.7190   44.1300 C   0  0  0  0  0  0  0  0  0  0  0  0
   58.0730   32.4610   43.2770 C   0  0  0  0  0  0  0  0  0  0  0  0
   57.7370   31.4080   44.2300 N   0  0  0  0  0  0  0  0  0  0  0  0
   57.4600   30.0150   43.8870 C   0  0  0  0  0  0  0  0  0  0  0  0
   56.1980   29.5420   44.5590 C   0  0  0  0  0  0  0  0  0  0  0  0
   55.1350   30.1990   44.3940 O   0  0  0  0  0  0  0  0  0  0  0  0
   56.1340   28.2890   45.2510 N   0  0  0  0  0  0  0  0  0  0  0  0
   57.2270   27.6100   45.8830 C   0  0  0  0  0  0  0  0  0  0  0  0
   57.4880   26.2540   45.6350 C   0  0  0  0  0  0  0  0  0  0  0  0
   58.5630   25.6210   46.2590 C   0  0  0  0  0  0  0  0  0  0  0  0
   59.4020   26.3410   47.1130 C   0  0  0  0  0  0  0  0  0  0  0  0
   59.1860   27.7090   47.3300 C   0  0  0  0  0  0  0  0  0  0  0  0
   60.0510   28.4240   48.2280 N   0  0  0  0  0  0  0  0  0  0  0  0
   60.6080   29.7180   47.9450 C   0  0  0  0  0  0  0  0  0  0  0  0
   60.5840   30.1860   46.7740 O   0  0  0  0  0  0  0  0  0  0  0  0
   61.2170   30.5240   49.0530 C   0  0  0  0  0  0  0  0  0  0  0  0
   61.3920   29.7830   50.3710 C   0  0  0  0  0  0  0  0  0  0  0  0
   60.2800   30.8070   50.2180 C   0  0  0  0  0  0  0  0  0  0  0  0
   58.0900   28.3370   46.7120 C   0  0  0  0  0  0  0  0  0  0  0  0
   57.9290   31.9210   45.5300 C   0  0  0  0  0  0  0  0  0  0  0  0
   57.7790   31.2420   46.5800 O   0  0  0  0  0  0  0  0  0  0  0  0
   60.8520   33.8880   46.6170 C   0  0  0  0  0  0  0  0  0  0  0  0
   64.1866   33.3480   47.1397 H   0  0  0  0  0  0  0  0  0  0  0  0
   63.2019   32.6249   45.8228 H   0  0  0  0  0  0  0  0  0  0  0  0
   63.5455   34.3880   45.8228 H   0  0  0  0  0  0  0  0  0  0  0  0
   63.1192   33.6622   49.1665 H   0  0  0  0  0  0  0  0  0  0  0  0
   61.0449   34.0005   50.5071 H   0  0  0  0  0  0  0  0  0  0  0  0
   58.8426   34.2558   49.3661 H   0  0  0  0  0  0  0  0  0  0  0  0
   57.5520   33.8644   47.3835 H   0  0  0  0  0  0  0  0  0  0  0  0
   58.1781   35.1980   46.3474 H   0  0  0  0  0  0  0  0  0  0  0  0
   57.6005   34.4898   43.9484 H   0  0  0  0  0  0  0  0  0  0  0  0
   59.3387   34.1622   43.8778 H   0  0  0  0  0  0  0  0  0  0  0  0
   57.2291   32.6459   42.5961 H   0  0  0  0  0  0  0  0  0  0  0  0
   58.9358   32.1844   42.6532 H   0  0  0  0  0  0  0  0  0  0  0  0
   57.3429   29.9280   42.7967 H   0  0  0  0  0  0  0  0  0  0  0  0
   58.2988   29.3925   44.2317 H   0  0  0  0  0  0  0  0  0  0  0  0
   56.8430   25.6884   44.9465 H   0  0  0  0  0  0  0  0  0  0  0  0
   58.7506   24.5523   46.0782 H   0  0  0  0  0  0  0  0  0  0  0  0
   60.2363   25.8319   47.6177 H   0  0  0  0  0  0  0  0  0  0  0  0
   60.3590   27.9410   49.0990 H   0  0  0  0  0  0  0  0  0  0  0  0
   61.8717   31.1292   48.4087 H   0  0  0  0  0  0  0  0  0  0  0  0
   61.1484   28.7123   50.4364 H   0  0  0  0  0  0  0  0  0  0  0  0
   62.2231   29.6372   51.0767 H   0  0  0  0  0  0  0  0  0  0  0  0
   59.2315   30.4774   50.1729 H   0  0  0  0  0  0  0  0  0  0  0  0
   59.9730   31.7092   50.7673 H   0  0  0  0  0  0  0  0  0  0  0  0
   57.9091   29.4087   46.8813 H   0  0  0  0  0  0  0  0  0  0  0  0
   60.7954   33.8442   45.5193 H   0  0  0  0  0  0  0  0  0  0  0  0
  1  2  1  0
  2  3  2  0
  3  4  1  0
  4  5  2  0
  5  6  1  0
  6  7  1  0
  7  8  1  0
  8  9  1  0
  9 10  1  0
 10 11  1  0
 11 12  1  0
 12 13  1  0
 13 14  2  0
 13 15  1  0
 15 16  1  0
 16 17  2  0
 17 18  1  0
 18 19  2  0
 19 20  1  0
 20 21  1  0
 21 22  1  0
 22 23  2  0
 22 24  1  0
 24 25  1  0
 25 26  1  0
 20 27  2  0
 11 28  1  0
 28 29  2  0
  6 30  2  0
 30  2  1  0
 28  8  1  0
 27 16  1  0
 26 24  1  0
  1 31  1  0
  1 32  1  0
  1 33  1  0
  3 34  1  0
  4 35  1  0
  5 36  1  0
  7 37  1  0
  7 38  1  0
  9 39  1  0
  9 40  1  0
 10 41  1  0
 10 42  1  0
 12 43  1  0
 12 44  1  0
 17 45  1  0
 18 46  1  0
 19 47  1  0
 21 48  1  0
 24 49  1  0
 25 50  1  0
 25 51  1  0
 26 52  1  0
 26 53  1  0
 27 54  1  0
 30 55  1  0
M  CHG  1  15  -1
M  END
>  <UniqueID>  (24) 
23

>  <SMILES>  (24) 
Cc1cccc(CN2CCN(CC(=O)[N-]c3cccc(NC(=O)C4CC4)c3)C2=O)c1

>  <Energy>  (24) 
336.9825766800395

>  <Genealogy>  (24) 
Cc1cccc(CN2CCN(CC(=O)[N-]c3cccc(NC(=O)C4CC4)c3)C2=O)c1 (protonated)
Cc1cccc(CN2CCN(CC(=O)[N-]c3cccc(NC(=O)C4CC4)c3)C2=O)c1 (3D coordinates assigned)
Cc1cccc(CN2CCN(CC(=O)[N-]c3cccc(NC(=O)C4CC4)c3)C2=O)c1 (nonaromatic ring conformer: 336.9825766800395 kcal/mol)

>  <smiles>  (24) 
Cc1cccc(CN2CCN(CC(=O)Nc3cccc(NC(=O)C4CC4)c3)C2=O)c1

>  <score_type>  (24) 
oracle

>  <origin>  (24) 
adg

>  <m_score__min__energy>  (24) 
-11.24

>  <m_primary>  (24) 
energy

$$$$
24:0
     RDKit          3D

 45 48  0  0  0  0  0  0  0  0999 V2000
   55.1460   28.0520   45.9900 H   0  0  0  0  0  0  0  0  0  0  0  0
   55.8780   28.0040   45.2910 O   0  0  0  0  0  0  0  0  0  0  0  0
   57.1630   27.5660   45.6090 C   0  0  0  0  0  0  0  0  0  0  0  0
   57.4020   26.2050   45.8480 C   0  0  0  0  0  0  0  0  0  0  0  0
   56.5710   25.4861   45.7975 H   0  0  0  0  0  0  0  0  0  0  0  0
   58.6910   25.7580   46.1500 C   0  0  0  0  0  0  0  0  0  0  0  0
   58.9210   24.4070   46.3810 O   0  0  0  0  0  0  0  0  0  0  0  0
   59.7490   26.6680   46.2180 C   0  0  0  0  0  0  0  0  0  0  0  0
   60.7635   26.3142   46.4537 H   0  0  0  0  0  0  0  0  0  0  0  0
   59.5200   28.0270   45.9870 C   0  0  0  0  0  0  0  0  0  0  0  0
   60.3550   28.7405   46.0473 H   0  0  0  0  0  0  0  0  0  0  0  0
   58.2280   28.4870   45.6780 C   0  0  0  0  0  0  0  0  0  0  0  0
   58.0000   29.9300   45.4270 C   0  0  0  0  0  0  0  0  0  0  0  0
   57.2900   30.3110   44.2810 C   0  0  0  0  0  0  0  0  0  0  0  0
   56.9476   29.5488   43.5656 H   0  0  0  0  0  0  0  0  0  0  0  0
   57.0190   31.6560   44.0500 C   0  0  0  0  0  0  0  0  0  0  0  0
   56.4570   31.9570   43.1536 H   0  0  0  0  0  0  0  0  0  0  0  0
   57.4470   32.5970   44.9290 N   0  0  0  0  0  0  0  0  0  0  0  0
   58.1550   32.2810   46.0490 C   0  0  0  0  0  0  0  0  0  0  0  0
   58.5560   33.2170   46.8630 N   0  0  0  0  0  0  0  0  0  0  0  0
   59.6360   34.1350   46.6290 C   0  0  0  0  0  0  0  0  0  0  0  0
   59.4170   35.1500   45.9160 O   0  0  0  0  0  0  0  0  0  0  0  0
   60.9700   33.9580   47.2500 C   0  0  0  0  0  0  0  0  0  0  0  0
   62.1040   33.6980   46.4580 C   0  0  0  0  0  0  0  0  0  0  0  0
   62.0040   33.6336   45.3644 H   0  0  0  0  0  0  0  0  0  0  0  0
   63.3570   33.5210   47.0530 C   0  0  0  0  0  0  0  0  0  0  0  0
   64.2401   33.3279   46.4263 H   0  0  0  0  0  0  0  0  0  0  0  0
   63.4890   33.5890   48.4420 C   0  0  0  0  0  0  0  0  0  0  0  0
   64.7040   33.4160   49.0160 F   0  0  0  0  0  0  0  0  0  0  0  0
   62.3670   33.8300   49.2380 C   0  0  0  0  0  0  0  0  0  0  0  0
   62.4711   33.8800   50.3319 H   0  0  0  0  0  0  0  0  0  0  0  0
   61.1110   34.0080   48.6480 C   0  0  0  0  0  0  0  0  0  0  0  0
   60.2295   34.1879   49.2809 H   0  0  0  0  0  0  0  0  0  0  0  0
   58.4450   30.9270   46.3330 C   0  0  0  0  0  0  0  0  0  0  0  0
   59.2390   30.5650   47.5350 C   0  0  0  0  0  0  0  0  0  0  0  0
   58.6100   30.0000   48.6560 C   0  0  0  0  0  0  0  0  0  0  0  0
   57.5223   29.8361   48.6502 H   0  0  0  0  0  0  0  0  0  0  0  0
   59.3630   29.6450   49.7800 C   0  0  0  0  0  0  0  0  0  0  0  0
   58.8664   29.2003   50.6550 H   0  0  0  0  0  0  0  0  0  0  0  0
   60.7450   29.8540   49.7940 C   0  0  0  0  0  0  0  0  0  0  0  0
   61.4910   29.4990   50.9100 O   0  0  0  0  0  0  0  0  0  0  0  0
   61.3760   30.4190   48.6810 C   0  0  0  0  0  0  0  0  0  0  0  0
   62.4637   30.5827   48.6913 H   0  0  0  0  0  0  0  0  0  0  0  0
   60.6280   30.7760   47.5560 C   0  0  0  0  0  0  0  0  0  0  0  0
   61.1280   31.2235   46.6844 H   0  0  0  0  0  0  0  0  0  0  0  0
  1  2  1  0
  2  3  1  0
  3  4  2  0
  4  5  1  0
  4  6  1  0
  6  7  1  0
  6  8  2  0
  8  9  1  0
  8 10  1  0
 10 11  1  0
 10 12  2  0
 12 13  1  0
 13 14  1  0
 14 15  1  0
 14 16  2  0
 16 17  1  0
 16 18  1  0
 18 19  1  0
 19 20  2  0
 20 21  1  0
 21 22  2  0
 21 23  1  0
 23 24  2  0
 24 25  1  0
 24 26  1  0
 26 27  1  0
 26 28  2  0
 28 29  1  0
 28 30  1  0
 30 31  1  0
 30 32  2  0
 32 33  1  0
 19 34  1  0
 34 35  1  0
 35 36  2  0
 36 37  1  0
 36 38  1  0
 38 39  1  0
 38 40  2  0
 40 41  1  0
 40 42  1  0
 42 43  1  0
 42 44  2  0
 44 45  1  0
 12  3  1  0
 34 13  2  0
 44 35  1  0
 32 23  1  0
M  CHG  3   7  -1  18  -1  41  -1
M  END
>  <UniqueID>  (25) 
24

>  <SMILES>  (25) 
O=C(/N=c1\[n-]ccc(-c2ccc([O-])cc2O)c1-c1ccc([O-])cc1)c1ccc(F)cc1

>  <Energy>  (25) 
73.3490493169917

>  <Genealogy>  (25) 
O=C(N=c1[n-]ccc(-c2ccc([O-])cc2O)c1-c1ccc([O-])cc1)c1ccc(F)cc1 (protonated)
O=C(/N=c1\[n-]ccc(-c2ccc([O-])cc2O)c1-c1ccc([O-])cc1)c1ccc(F)cc1 (cis-trans isomerization)
O=C(/N=c1\[n-]ccc(-c2ccc([O-])cc2O)c1-c1ccc([O-])cc1)c1ccc(F)cc1 (3D coordinates assigned)
O=C(/N=c1\[n-]ccc(-c2ccc([O-])cc2O)c1-c1ccc([O-])cc1)c1ccc(F)cc1 (optimized conformer: 73.3490493169917 kcal/mol)

>  <smiles>  (25) 
O=C(N=c1[nH]ccc(-c2ccc(O)cc2O)c1-c1ccc(O)cc1)c1ccc(F)cc1

>  <score_type>  (25) 
oracle

>  <origin>  (25) 
adg

>  <m_score__min__energy>  (25) 
-13

>  <m_primary>  (25) 
energy

$$$$
25:0
     RDKit          3D

 43 45  0  0  0  0  0  0  0  0999 V2000
   60.5030   28.9160   45.3370 C   0  0  0  0  0  0  0  0  0  0  0  0
   60.4260   29.7650   46.3680 C   0  0  0  0  0  0  0  0  0  0  0  0
   59.1040   30.2760   46.8700 C   0  0  0  0  0  0  0  0  0  0  0  0
   58.9450   31.7400   46.5410 C   0  0  0  0  0  0  0  0  0  0  0  0
   59.1740   32.7030   47.5400 C   0  0  0  0  0  0  0  0  0  0  0  0
   59.0260   34.0690   47.2600 C   0  0  0  0  0  0  0  0  0  0  0  0
   59.2590   35.0250   48.2470 O   0  0  0  0  0  0  0  0  0  0  0  0
   58.6440   34.4770   45.9790 C   0  0  0  0  0  0  0  0  0  0  0  0
   58.4200   33.5300   44.9740 C   0  0  0  0  0  0  0  0  0  0  0  0
   58.5790   32.1600   45.2420 C   0  0  0  0  0  0  0  0  0  0  0  0
   58.4360   31.1890   44.1990 N   0  0  0  0  0  0  0  0  0  0  0  0
   56.9690   30.3190   43.8910 S   0  0  0  0  0  0  0  0  0  0  0  0
   55.8330   30.8750   44.7020 O   0  0  0  0  0  0  0  0  0  0  0  0
   56.6230   30.4620   42.4360 O   0  0  0  0  0  0  0  0  0  0  0  0
   57.2310   28.6150   44.2580 C   0  0  0  0  0  0  0  0  0  0  0  0
   56.8590   28.0930   45.5040 C   0  0  0  0  0  0  0  0  0  0  0  0
   57.1060   26.7500   45.8100 C   0  0  0  0  0  0  0  0  0  0  0  0
   57.7320   25.9080   44.8710 C   0  0  0  0  0  0  0  0  0  0  0  0
   58.0360   24.5330   45.1890 N   0  0  0  0  0  0  0  0  0  0  0  0
   57.1440   23.4040   44.9420 C   0  0  0  0  0  0  0  0  0  0  0  0
   57.9970   22.1340   45.1800 C   0  0  0  0  0  0  0  0  0  0  0  0
   59.3060   22.5900   45.6350 N   0  0  0  0  0  0  0  0  0  0  0  0
   59.2760   24.0010   45.6240 C   0  0  0  0  0  0  0  0  0  0  0  0
   60.2380   24.7040   46.0360 O   0  0  0  0  0  0  0  0  0  0  0  0
   58.1180   26.4450   43.6290 C   0  0  0  0  0  0  0  0  0  0  0  0
   57.8680   27.7860   43.3250 C   0  0  0  0  0  0  0  0  0  0  0  0
   61.4841   28.5585   44.9910 H   0  0  0  0  0  0  0  0  0  0  0  0
   59.5853   28.5754   44.8353 H   0  0  0  0  0  0  0  0  0  0  0  0
   61.3519   30.0972   46.8602 H   0  0  0  0  0  0  0  0  0  0  0  0
   58.2915   29.7075   46.3939 H   0  0  0  0  0  0  0  0  0  0  0  0
   59.0649   30.1501   47.9621 H   0  0  0  0  0  0  0  0  0  0  0  0
   59.4716   32.3821   48.5492 H   0  0  0  0  0  0  0  0  0  0  0  0
   59.0110   35.9990   48.1120 H   0  0  0  0  0  0  0  0  0  0  0  0
   58.5189   35.5477   45.7600 H   0  0  0  0  0  0  0  0  0  0  0  0
   58.1179   33.8596   43.9690 H   0  0  0  0  0  0  0  0  0  0  0  0
   56.3703   28.7422   46.2454 H   0  0  0  0  0  0  0  0  0  0  0  0
   56.8092   26.3495   46.7906 H   0  0  0  0  0  0  0  0  0  0  0  0
   56.2921   23.4294   45.6374 H   0  0  0  0  0  0  0  0  0  0  0  0
   56.7306   23.4295   43.9230 H   0  0  0  0  0  0  0  0  0  0  0  0
   57.5282   21.5002   45.9472 H   0  0  0  0  0  0  0  0  0  0  0  0
   58.0829   21.5359   44.2608 H   0  0  0  0  0  0  0  0  0  0  0  0
   58.6211   25.8034   42.8906 H   0  0  0  0  0  0  0  0  0  0  0  0
   58.1726   28.1924   42.3492 H   0  0  0  0  0  0  0  0  0  0  0  0
  1  2  2  0
  2  3  1  0
  3  4  1  0
  4  5  2  0
  5  6  1  0
  6  7  1  0
  6  8  2  0
  8  9  1  0
  9 10  2  0
 10 11  1  0
 11 12  1  0
 12 13  2  0
 12 14  2  0
 12 15  1  0
 15 16  2  0
 16 17  1  0
 17 18  2  0
 18 19  1  0
 19 20  1  0
 20 21  1  0
 21 22  1  0
 22 23  1  0
 23 24  2  0
 18 25  1  0
 25 26  2  0
 10  4  1  0
 26 15  1  0
 23 19  1  0
  1 27  1  0
  1 28  1  0
  2 29  1  0
  3 30  1  0
  3 31  1  0
  5 32  1  0
  7 33  1  0
  8 34  1  0
  9 35  1  0
 16 36  1  0
 17 37  1  0
 20 38  1  0
 20 39  1  0
 21 40  1  0
 21 41  1  0
 25 42  1  0
 26 43  1  0
M  CHG  2  11  -1  22  -1
M  END
>  <UniqueID>  (26) 
25

>  <SMILES>  (26) 
C=CCc1cc(O)ccc1[N-]S(=O)(=O)c1ccc(N2CC[N-]C2=O)cc1

>  <Energy>  (26) 
65.5740547929521

>  <Genealogy>  (26) 
C=CCc1cc(O)ccc1[N-]S(=O)(=O)c1ccc(N2CC[N-]C2=O)cc1 (protonated)
C=CCc1cc(O)ccc1[N-]S(=O)(=O)c1ccc(N2CC[N-]C2=O)cc1 (3D coordinates assigned)
C=CCc1cc(O)ccc1[N-]S(=O)(=O)c1ccc(N2CC[N-]C2=O)cc1 (nonaromatic ring conformer: 65.5740547929521 kcal/mol)

>  <smiles>  (26) 
C=CCc1cc(O)ccc1NS(=O)(=O)c1ccc(N2CCNC2=O)cc1

>  <score_type>  (26) 
oracle

>  <origin>  (26) 
adg

>  <m_score__min__energy>  (26) 
-10.369999999999999

>  <m_primary>  (26) 
energy

$$$$
26:0
     RDKit          3D

 54 56  0  0  0  0  0  0  0  0999 V2000
   64.9040   32.2810   49.7360 C   0  0  0  0  0  0  0  0  0  0  0  0
   63.8980   33.4050   49.4370 C   0  0  0  0  0  0  0  0  0  0  0  0
   62.8210   33.0290   48.4900 N   0  0  0  0  0  0  0  0  0  0  0  0
   62.6480   31.5640   48.3640 C   0  0  0  0  0  0  0  0  0  0  0  0
   61.7940   31.1880   47.1320 C   0  0  0  0  0  0  0  0  0  0  0  0
   60.8680   32.2720   46.7440 N   0  0  0  0  0  0  0  0  0  0  0  0
   59.7890   32.4670   47.7410 C   0  0  0  0  0  0  0  0  0  0  0  0
   58.4160   32.0550   47.1820 C   0  0  0  0  0  0  0  0  0  0  0  0
   57.4120   33.2140   47.1070 C   0  0  0  0  0  0  0  0  0  0  0  0
   57.0370   33.5140   45.7280 N   0  0  0  0  0  0  0  0  0  0  0  0
   57.9830   33.8430   44.7030 C   0  0  0  0  0  0  0  0  0  0  0  0
   58.3320   35.0390   44.5150 O   0  0  0  0  0  0  0  0  0  0  0  0
   58.5600   32.7570   43.8520 C   0  0  0  0  0  0  0  0  0  0  0  0
   57.4560   32.0340   43.0710 C   0  0  0  0  0  0  0  0  0  0  0  0
   56.9880   30.8270   43.8270 C   0  0  0  0  0  0  0  0  0  0  0  0
   55.6720   30.4940   44.1350 C   0  0  0  0  0  0  0  0  0  0  0  0
   55.6300   29.3680   44.8810 N   0  0  0  0  0  0  0  0  0  0  0  0
   56.9100   28.9990   45.0640 C   0  0  0  0  0  0  0  0  0  0  0  0
   57.3770   27.8980   45.7820 C   0  0  0  0  0  0  0  0  0  0  0  0
   58.7680   27.7010   45.8530 C   0  0  0  0  0  0  0  0  0  0  0  0
   59.6500   28.5970   45.2100 C   0  0  0  0  0  0  0  0  0  0  0  0
   59.1500   29.7020   44.4910 C   0  0  0  0  0  0  0  0  0  0  0  0
   57.7670   29.8680   44.4370 C   0  0  0  0  0  0  0  0  0  0  0  0
   61.5920   33.5280   46.4130 C   0  0  0  0  0  0  0  0  0  0  0  0
   62.9190   33.6920   47.1810 C   0  0  0  0  0  0  0  0  0  0  0  0
   65.0094   32.1633   50.8246 H   0  0  0  0  0  0  0  0  0  0  0  0
   64.5419   31.3389   49.2986 H   0  0  0  0  0  0  0  0  0  0  0  0
   65.8803   32.5368   49.2986 H   0  0  0  0  0  0  0  0  0  0  0  0
   63.4311   33.7096   50.3852 H   0  0  0  0  0  0  0  0  0  0  0  0
   64.4671   34.2156   48.9584 H   0  0  0  0  0  0  0  0  0  0  0  0
   63.6387   31.0961   48.2661 H   0  0  0  0  0  0  0  0  0  0  0  0
   62.1263   31.2039   49.2630 H   0  0  0  0  0  0  0  0  0  0  0  0
   62.4653   30.9759   46.2868 H   0  0  0  0  0  0  0  0  0  0  0  0
   61.1911   30.3063   47.3949 H   0  0  0  0  0  0  0  0  0  0  0  0
   60.0099   31.8568   48.6292 H   0  0  0  0  0  0  0  0  0  0  0  0
   59.7481   33.5360   47.9971 H   0  0  0  0  0  0  0  0  0  0  0  0
   58.5594   31.6525   46.1684 H   0  0  0  0  0  0  0  0  0  0  0  0
   57.9967   31.3081   47.8722 H   0  0  0  0  0  0  0  0  0  0  0  0
   56.5081   32.9400   47.6709 H   0  0  0  0  0  0  0  0  0  0  0  0
   57.8875   34.1084   47.5359 H   0  0  0  0  0  0  0  0  0  0  0  0
   59.2756   33.1969   43.1417 H   0  0  0  0  0  0  0  0  0  0  0  0
   59.0661   32.0293   44.5034 H   0  0  0  0  0  0  0  0  0  0  0  0
   56.6088   32.7195   42.9217 H   0  0  0  0  0  0  0  0  0  0  0  0
   57.8575   31.7132   42.0984 H   0  0  0  0  0  0  0  0  0  0  0  0
   54.7893   31.0675   43.8157 H   0  0  0  0  0  0  0  0  0  0  0  0
   54.7760   28.8920   45.2470 H   0  0  0  0  0  0  0  0  0  0  0  0
   56.6798   27.2059   46.2769 H   0  0  0  0  0  0  0  0  0  0  0  0
   59.1710   26.8440   46.4126 H   0  0  0  0  0  0  0  0  0  0  0  0
   60.7358   28.4315   45.2706 H   0  0  0  0  0  0  0  0  0  0  0  0
   59.8279   30.4087   43.9900 H   0  0  0  0  0  0  0  0  0  0  0  0
   61.8107   33.5303   45.3350 H   0  0  0  0  0  0  0  0  0  0  0  0
   60.9413   34.3645   46.7077 H   0  0  0  0  0  0  0  0  0  0  0  0
   63.7354   33.2368   46.6011 H   0  0  0  0  0  0  0  0  0  0  0  0
   63.1230   34.7626   47.3300 H   0  0  0  0  0  0  0  0  0  0  0  0
  1  2  1  0
  2  3  1  0
  3  4  1  0
  4  5  1  0
  5  6  1  0
  6  7  1  0
  7  8  1  0
  8  9  1  0
  9 10  1  0
 10 11  1  0
 11 12  2  0
 11 13  1  0
 13 14  1  0
 14 15  1  0
 15 16  2  0
 16 17  1  0
 17 18  1  0
 18 19  2  0
 19 20  1  0
 20 21  2  0
 21 22  1  0
 22 23  2  0
  6 24  1  0
 24 25  1  0
 25  3  1  0
 23 15  1  0
 23 18  1  0
  1 26  1  0
  1 27  1  0
  1 28  1  0
  2 29  1  0
  2 30  1  0
  4 31  1  0
  4 32  1  0
  5 33  1  0
  5 34  1  0
  7 35  1  0
  7 36  1  0
  8 37  1  0
  8 38  1  0
  9 39  1  0
  9 40  1  0
 13 41  1  0
 13 42  1  0
 14 43  1  0
 14 44  1  0
 16 45  1  0
 17 46  1  0
 19 47  1  0
 20 48  1  0
 21 49  1  0
 22 50  1  0
 24 51  1  0
 24 52  1  0
 25 53  1  0
 25 54  1  0
M  CHG  1  10  -1
M  END
>  <UniqueID>  (27) 
26

>  <SMILES>  (27) 
CCN1CCN(CCC[N-]C(=O)CCc2c[nH]c3ccccc23)CC1

>  <Energy>  (27) 
91.09136630883299

>  <Genealogy>  (27) 
CCN1CCN(CCC[N-]C(=O)CCc2c[nH]c3ccccc23)CC1 (protonated)
CCN1CCN(CCC[N-]C(=O)CCc2c[nH]c3ccccc23)CC1 (3D coordinates assigned)
CCN1CCN(CCC[N-]C(=O)CCc2c[nH]c3ccccc23)CC1 (nonaromatic ring conformer: 91.09136630883299 kcal/mol)

>  <smiles>  (27) 
CCN1CCN(CCCNC(=O)CCc2c[nH]c3ccccc23)CC1

>  <score_type>  (27) 
oracle

>  <origin>  (27) 
adg

>  <m_score__min__energy>  (27) 
-9.5700000000000003

>  <m_primary>  (27) 
energy

$$$$
27:0
     RDKit          3D

 38 39  0  0  0  0  0  0  0  0999 V2000
   55.4960   30.0670   44.7770 O   0  0  0  0  0  0  0  0  0  0  0  0
   56.7250   30.3150   44.6390 C   0  0  0  0  0  0  0  0  0  0  0  0
   57.5530   29.5220   43.6750 C   0  0  0  0  0  0  0  0  0  0  0  0
   58.7930   29.0640   44.2990 N   0  0  0  0  0  0  0  0  0  0  0  0
   58.9040   28.4760   45.6030 C   0  0  0  0  0  0  0  0  0  0  0  0
   59.7670   28.9310   46.4000 O   0  0  0  0  0  0  0  0  0  0  0  0
   58.0330   27.3690   46.0460 C   0  0  0  0  0  0  0  0  0  0  0  0
   58.5900   26.2570   46.6960 C   0  0  0  0  0  0  0  0  0  0  0  0
   57.7770   25.1900   47.0870 C   0  0  0  0  0  0  0  0  0  0  0  0
   56.4050   25.2170   46.8210 C   0  0  0  0  0  0  0  0  0  0  0  0
   55.6040   24.1510   47.2140 O   0  0  0  0  0  0  0  0  0  0  0  0
   55.8410   26.3140   46.1590 C   0  0  0  0  0  0  0  0  0  0  0  0
   54.4740   26.3320   45.8910 O   0  0  0  0  0  0  0  0  0  0  0  0
   56.6560   27.3850   45.7670 C   0  0  0  0  0  0  0  0  0  0  0  0
   57.3270   31.3980   45.3560 N   0  0  0  0  0  0  0  0  0  0  0  0
   57.0450   32.8050   45.0860 C   0  0  0  0  0  0  0  0  0  0  0  0
   57.4900   33.6900   46.2570 C   0  0  0  0  0  0  0  0  0  0  0  0
   58.9190   33.4270   46.6580 C   0  0  0  0  0  0  0  0  0  0  0  0
   59.2230   32.4230   47.5920 C   0  0  0  0  0  0  0  0  0  0  0  0
   60.5520   32.1620   47.9390 C   0  0  0  0  0  0  0  0  0  0  0  0
   61.5850   32.8980   47.3540 C   0  0  0  0  0  0  0  0  0  0  0  0
   61.2930   33.8900   46.4140 C   0  0  0  0  0  0  0  0  0  0  0  0
   59.9640   34.1540   46.0640 C   0  0  0  0  0  0  0  0  0  0  0  0
   56.9754   28.6480   43.3397 H   0  0  0  0  0  0  0  0  0  0  0  0
   57.8089   30.1669   42.8214 H   0  0  0  0  0  0  0  0  0  0  0  0
   59.6707   26.2252   46.8985 H   0  0  0  0  0  0  0  0  0  0  0  0
   58.2180   24.3261   47.6058 H   0  0  0  0  0  0  0  0  0  0  0  0
   53.8330   25.7100   46.3680 H   0  0  0  0  0  0  0  0  0  0  0  0
   56.2151   28.2428   45.2380 H   0  0  0  0  0  0  0  0  0  0  0  0
   57.5845   33.1121   44.1779 H   0  0  0  0  0  0  0  0  0  0  0  0
   55.9601   32.9247   44.9491 H   0  0  0  0  0  0  0  0  0  0  0  0
   57.3936   34.7449   45.9605 H   0  0  0  0  0  0  0  0  0  0  0  0
   56.8486   33.4566   47.1196 H   0  0  0  0  0  0  0  0  0  0  0  0
   58.4120   31.8396   48.0524 H   0  0  0  0  0  0  0  0  0  0  0  0
   60.7843   31.3765   48.6732 H   0  0  0  0  0  0  0  0  0  0  0  0
   62.6296   32.6965   47.6335 H   0  0  0  0  0  0  0  0  0  0  0  0
   62.1083   34.4637   45.9489 H   0  0  0  0  0  0  0  0  0  0  0  0
   59.7370   34.9332   45.3215 H   0  0  0  0  0  0  0  0  0  0  0  0
  1  2  2  0
  2  3  1  0
  3  4  1  0
  4  5  1  0
  5  6  2  0
  5  7  1  0
  7  8  2  0
  8  9  1  0
  9 10  2  0
 10 11  1  0
 10 12  1  0
 12 13  1  0
 12 14  2  0
  2 15  1  0
 15 16  1  0
 16 17  1  0
 17 18  1  0
 18 19  2  0
 19 20  1  0
 20 21  2  0
 21 22  1  0
 22 23  2  0
 14  7  1  0
 23 18  1  0
  3 24  1  0
  3 25  1  0
  8 26  1  0
  9 27  1  0
 13 28  1  0
 14 29  1  0
 16 30  1  0
 16 31  1  0
 17 32  1  0
 17 33  1  0
 19 34  1  0
 20 35  1  0
 21 36  1  0
 22 37  1  0
 23 38  1  0
M  CHG  3   4  -1  11  -1  15  -1
M  END
>  <UniqueID>  (28) 
27

>  <SMILES>  (28) 
O=C(C[N-]C(=O)c1ccc([O-])c(O)c1)[N-]CCc1ccccc1

>  <Energy>  (28) 
34.92783199060083

>  <Genealogy>  (28) 
O=C(C[N-]C(=O)c1ccc([O-])c(O)c1)[N-]CCc1ccccc1 (protonated)
O=C(C[N-]C(=O)c1ccc([O-])c(O)c1)[N-]CCc1ccccc1 (3D coordinates assigned)
O=C(C[N-]C(=O)c1ccc([O-])c(O)c1)[N-]CCc1ccccc1 (optimized conformer: 34.92783199060083 kcal/mol)

>  <smiles>  (28) 
O=C(CNC(=O)c1ccc(O)c(O)c1)NCCc1ccccc1

>  <score_type>  (28) 
oracle

>  <origin>  (28) 
adg

>  <m_score__min__energy>  (28) 
-12.76

>  <m_primary>  (28) 
energy

$$$$
28:0
     RDKit          3D

 71 74  0  0  0  0  0  0  0  0999 V2000
   59.2154   33.2292   46.9132 H   0  0  0  0  0  0  0  0  0  0  0  0
   58.8820   33.1970   47.9610 C   0  0  0  0  0  0  0  0  0  0  0  0
   58.6428   34.1308   48.4910 H   0  0  0  0  0  0  0  0  0  0  0  0
   58.7670   32.0180   48.5930 C   0  0  0  0  0  0  0  0  0  0  0  0
   58.3490   32.0710   49.8850 N   0  0  0  0  0  0  0  0  0  0  0  0
   58.2000   30.9900   50.6900 C   0  0  0  0  0  0  0  0  0  0  0  0
   57.7190   31.2160   52.1310 C   0  0  0  0  0  0  0  0  0  0  0  0
   57.8120   29.9460   53.0080 C   0  0  0  0  0  0  0  0  0  0  0  0
   57.7911   30.2315   54.0701 H   0  0  0  0  0  0  0  0  0  0  0  0
   56.9598   29.2859   52.7889 H   0  0  0  0  0  0  0  0  0  0  0  0
   58.7513   29.4171   52.7889 H   0  0  0  0  0  0  0  0  0  0  0  0
   58.5920   32.3090   52.7790 C   0  0  0  0  0  0  0  0  0  0  0  0
   58.5276   32.2283   53.8741 H   0  0  0  0  0  0  0  0  0  0  0  0
   59.6374   32.1787   52.4626 H   0  0  0  0  0  0  0  0  0  0  0  0
   58.2339   33.2998   52.4626 H   0  0  0  0  0  0  0  0  0  0  0  0
   56.2350   31.6700   52.1170 C   0  0  0  0  0  0  0  0  0  0  0  0
   55.9619   32.0364   53.1176 H   0  0  0  0  0  0  0  0  0  0  0  0
   56.1206   32.4681   51.3687 H   0  0  0  0  0  0  0  0  0  0  0  0
   55.3710   30.5900   51.7640 O   0  0  0  0  0  0  0  0  0  0  0  0
   53.9760   30.6060   51.8980 C   0  0  0  0  0  0  0  0  0  0  0  0
   53.3550   29.5010   52.4960 C   0  0  0  0  0  0  0  0  0  0  0  0
   53.9640   28.6527   52.8416 H   0  0  0  0  0  0  0  0  0  0  0  0
   51.9670   29.4700   52.6560 C   0  0  0  0  0  0  0  0  0  0  0  0
   51.4875   28.6005   53.1293 H   0  0  0  0  0  0  0  0  0  0  0  0
   51.1880   30.5430   52.2150 C   0  0  0  0  0  0  0  0  0  0  0  0
   50.0953   30.5156   52.3387 H   0  0  0  0  0  0  0  0  0  0  0  0
   51.7950   31.6510   51.6170 C   0  0  0  0  0  0  0  0  0  0  0  0
   51.0180   32.7170   51.1810 O   0  0  0  0  0  0  0  0  0  0  0  0
   53.1870   31.6870   51.4580 C   0  0  0  0  0  0  0  0  0  0  0  0
   53.6640   32.5603   50.9891 H   0  0  0  0  0  0  0  0  0  0  0  0
   58.5350   29.7320   50.1720 C   0  0  0  0  0  0  0  0  0  0  0  0
   58.4624   28.8397   50.8112 H   0  0  0  0  0  0  0  0  0  0  0  0
   58.9600   29.6060   48.8500 C   0  0  0  0  0  0  0  0  0  0  0  0
   59.2490   28.3210   48.4000 O   0  0  0  0  0  0  0  0  0  0  0  0
   59.0730   30.7480   48.0040 C   0  0  0  0  0  0  0  0  0  0  0  0
   59.4210   30.6330   46.6910 C   0  0  0  0  0  0  0  0  0  0  0  0
   60.3201   31.1734   46.3598 H   0  0  0  0  0  0  0  0  0  0  0  0
   58.6970   29.8480   45.6790 C   0  0  0  0  0  0  0  0  0  0  0  0
   59.0250   28.5730   45.2440 C   0  0  0  0  0  0  0  0  0  0  0  0
   60.1670   27.7260   45.7230 C   0  0  0  0  0  0  0  0  0  0  0  0
   60.1801   27.7162   46.8229 H   0  0  0  0  0  0  0  0  0  0  0  0
   60.0440   26.6990   45.3487 H   0  0  0  0  0  0  0  0  0  0  0  0
   61.1141   28.1418   45.3487 H   0  0  0  0  0  0  0  0  0  0  0  0
   58.1380   28.2720   44.2210 C   0  0  0  0  0  0  0  0  0  0  0  0
   58.1280   27.0380   43.4080 C   0  0  0  0  0  0  0  0  0  0  0  0
   58.4800   27.0990   42.1990 O   0  0  0  0  0  0  0  0  0  0  0  0
   57.7410   25.7710   43.9710 N   0  0  0  0  0  0  0  0  0  0  0  0
   58.0040   25.4520   45.3800 C   0  0  0  0  0  0  0  0  0  0  0  0
   58.7275   26.1748   45.7851 H   0  0  0  0  0  0  0  0  0  0  0  0
   57.0576   25.5065   45.9380 H   0  0  0  0  0  0  0  0  0  0  0  0
   58.5790   24.0300   45.5170 C   0  0  0  0  0  0  0  0  0  0  0  0
   59.6608   24.0752   45.3227 H   0  0  0  0  0  0  0  0  0  0  0  0
   58.3428   23.6904   46.5363 H   0  0  0  0  0  0  0  0  0  0  0  0
   57.9770   23.0340   44.5830 N   0  0  0  0  0  0  0  0  0  0  0  0
   57.7130   21.7590   45.2730 C   0  0  0  0  0  0  0  0  0  0  0  0
   57.7458   21.9173   46.3611 H   0  0  0  0  0  0  0  0  0  0  0  0
   56.7186   21.3861   44.9865 H   0  0  0  0  0  0  0  0  0  0  0  0
   58.4776   21.0219   44.9865 H   0  0  0  0  0  0  0  0  0  0  0  0
   56.7540   23.5120   43.9130 C   0  0  0  0  0  0  0  0  0  0  0  0
   56.3857   22.7355   43.2264 H   0  0  0  0  0  0  0  0  0  0  0  0
   55.9855   23.7304   44.6691 H   0  0  0  0  0  0  0  0  0  0  0  0
   57.0640   24.7840   43.1230 C   0  0  0  0  0  0  0  0  0  0  0  0
   57.7152   24.5312   42.2733 H   0  0  0  0  0  0  0  0  0  0  0  0
   56.1181   25.2162   42.7647 H   0  0  0  0  0  0  0  0  0  0  0  0
   57.3220   29.3900   44.0700 C   0  0  0  0  0  0  0  0  0  0  0  0
   56.2500   29.5930   43.0450 C   0  0  0  0  0  0  0  0  0  0  0  0
   55.2897   29.7748   43.5498 H   0  0  0  0  0  0  0  0  0  0  0  0
   56.5034   30.4591   42.4160 H   0  0  0  0  0  0  0  0  0  0  0  0
   56.1692   28.6942   42.4160 H   0  0  0  0  0  0  0  0  0  0  0  0
   57.6670   30.3390   44.9640 N   0  0  0  0  0  0  0  0  0  0  0  0
   57.2420   31.2890   45.0590 H   0  0  0  0  0  0  0  0  0  0  0  0
  1  2  1  0
  2  3  1  0
  2  4  2  0
  4  5  1  0
  5  6  2  0
  6  7  1  0
  7  8  1  0
  8  9  1  0
  8 10  1  0
  8 11  1  0
  7 12  1  0
 12 13  1  0
 12 14  1  0
 12 15  1  0
  7 16  1  0
 16 17  1  0
 16 18  1  0
 16 19  1  0
 19 20  1  0
 20 21  2  0
 21 22  1  0
 21 23  1  0
 23 24  1  0
 23 25  2  0
 25 26  1  0
 25 27  1  0
 27 28  1  0
 27 29  2  0
 29 30  1  0
  6 31  1  0
 31 32  1  0
 31 33  2  0
 33 34  1  0
 33 35  1  0
 35 36  2  0
 36 37  1  0
 36 38  1  0
 38 39  2  0
 39 40  1  0
 40 41  1  0
 40 42  1  0
 40 43  1  0
 39 44  1  0
 44 45  1  0
 45 46  2  0
 45 47  1  0
 47 48  1  0
 48 49  1  0
 48 50  1  0
 48 51  1  0
 51 52  1  0
 51 53  1  0
 51 54  1  0
 54 55  1  0
 55 56  1  0
 55 57  1  0
 55 58  1  0
 54 59  1  0
 59 60  1  0
 59 61  1  0
 59 62  1  0
 62 63  1  0
 62 64  1  0
 44 65  2  0
 65 66  1  0
 66 67  1  0
 66 68  1  0
 66 69  1  0
 65 70  1  0
 70 71  1  0
 35  4  1  0
 70 38  1  0
 29 20  1  0
 62 47  1  0
M  CHG  2  28  -1  34  -1
M  END
>  <UniqueID>  (29) 
28

>  <SMILES>  (29) 
C=c1nc(C(C)(C)COc2cccc([O-])c2)cc([O-])/c1=C\c1[nH]c(C)c(C(=O)N2CCN(C)CC2)c1C

>  <Energy>  (29) 
129.20855802196635

>  <Genealogy>  (29) 
C=c1nc(C(C)(C)COc2cccc([O-])c2)cc([O-])c1=Cc1[nH]c(C)c(C(=O)N2CCN(C)CC2)c1C (protonated)
C=c1nc(C(C)(C)COc2cccc([O-])c2)cc([O-])/c1=C\c1[nH]c(C)c(C(=O)N2CCN(C)CC2)c1C (cis-trans isomerization)
C=c1nc(C(C)(C)COc2cccc([O-])c2)cc([O-])/c1=C\c1[nH]c(C)c(C(=O)N2CCN(C)CC2)c1C (3D coordinates assigned)
C=c1nc(C(C)(C)COc2cccc([O-])c2)cc([O-])/c1=C\c1[nH]c(C)c(C(=O)N2CCN(C)CC2)c1C (nonaromatic ring conformer: 129.20855802196635 kcal/mol)

>  <smiles>  (29) 
C=c1nc(C(C)(C)COc2cccc(O)c2)cc(O)c1=Cc1[nH]c(C)c(C(=O)N2CCN(C)CC2)c1C

>  <score_type>  (29) 
oracle

>  <origin>  (29) 
adg

>  <m_score__min__energy>  (29) 
-15.16

>  <m_primary>  (29) 
energy

$$$$
29:0
     RDKit          3D

 36 37  0  0  1  0  0  0  0  0999 V2000
   58.6500   32.3850   48.9140 C   0  0  0  0  0  0  0  0  0  0  0  0
   58.5710   33.0250   47.7590 C   0  0  0  0  0  0  0  0  0  0  0  0
   59.1910   34.1940   47.3630 C   0  0  0  0  0  0  0  0  0  0  0  0
   58.8410   34.5090   46.0980 N   0  0  0  0  0  0  0  0  0  0  0  0
   57.9890   33.5170   45.7020 C   0  0  0  0  0  0  0  0  0  0  0  0
   57.4120   33.4520   44.5060 C   0  0  0  0  0  0  0  0  0  0  0  0
   57.8520   32.3900   43.5590 C   0  0  0  0  0  0  0  0  0  0  0  0
   57.2940   31.1140   44.0810 C   0  0  0  0  0  0  0  0  0  0  0  0
   56.2670   31.1850   44.7910 O   0  0  0  0  0  0  0  0  0  0  0  0
   57.9240   29.8670   43.7700 N   0  0  0  0  0  0  0  0  0  0  0  0
   57.3660   28.6080   44.2910 C   0  0  0  0  0  0  0  0  0  0  0  0
   58.0950   27.5040   43.6230 C   0  0  0  0  0  0  0  0  0  0  0  0
   58.1450   26.2130   44.3830 C   0  0  0  0  0  0  0  0  0  0  0  0
   57.4150   26.2750   45.7050 C   0  0  0  0  0  0  0  0  0  0  0  0
   58.0440   27.4670   46.4390 C   0  0  0  0  0  0  0  0  0  0  0  0
   57.4750   28.6910   45.7780 C   0  0  0  0  0  0  0  0  0  0  0  0
   57.8300   32.6310   46.6980 N   0  0  0  0  0  0  0  0  0  0  0  0
   58.0840   31.4543   49.0669 H   0  0  0  0  0  0  0  0  0  0  0  0
   59.2817   32.7835   49.7215 H   0  0  0  0  0  0  0  0  0  0  0  0
   59.8741   34.7853   47.9905 H   0  0  0  0  0  0  0  0  0  0  0  0
   56.6262   34.1674   44.2219 H   0  0  0  0  0  0  0  0  0  0  0  0
   57.4624   32.5927   42.5505 H   0  0  0  0  0  0  0  0  0  0  0  0
   58.9486   32.3479   43.4841 H   0  0  0  0  0  0  0  0  0  0  0  0
   58.7840   29.8260   43.1730 H   0  0  0  0  0  0  0  0  0  0  0  0
   56.3035   28.4214   44.0758 H   0  0  0  0  0  0  0  0  0  0  0  0
   57.6059   27.3102   42.6570 H   0  0  0  0  0  0  0  0  0  0  0  0
   59.1378   27.8418   43.5312 H   0  0  0  0  0  0  0  0  0  0  0  0
   57.6866   25.4258   43.7665 H   0  0  0  0  0  0  0  0  0  0  0  0
   59.2021   26.0016   44.6015 H   0  0  0  0  0  0  0  0  0  0  0  0
   56.3390   26.4401   45.5471 H   0  0  0  0  0  0  0  0  0  0  0  0
   57.5052   25.3389   46.2756 H   0  0  0  0  0  0  0  0  0  0  0  0
   57.7762   27.4465   47.5057 H   0  0  0  0  0  0  0  0  0  0  0  0
   59.1424   27.4467   46.3840 H   0  0  0  0  0  0  0  0  0  0  0  0
   56.4678   28.8628   46.1856 H   0  0  0  0  0  0  0  0  0  0  0  0
   58.1761   29.5114   45.9911 H   0  0  0  0  0  0  0  0  0  0  0  0
   57.2230   31.7900   46.6230 H   0  0  0  0  0  0  0  0  0  0  0  0
  1  2  2  0
  2  3  1  0
  3  4  2  0
  4  5  1  0
  5  6  2  0
  6  7  1  0
  7  8  1  0
  8  9  2  0
  8 10  1  0
 10 11  1  0
 11 12  1  0
 12 13  1  0
 13 14  1  0
 14 15  1  0
 15 16  1  0
  5 17  1  0
 17  2  1  0
 16 11  1  0
  1 18  1  0
  1 19  1  0
  3 20  1  0
  6 21  1  0
  7 22  1  0
  7 23  1  0
 10 24  1  0
 11 25  1  0
 12 26  1  0
 12 27  1  0
 13 28  1  0
 13 29  1  0
 14 30  1  0
 14 31  1  0
 15 32  1  0
 15 33  1  0
 16 34  1  0
 16 35  1  0
 17 36  1  0
M  END
>  <smiles>  (30) 
C=c1cnc(=CCC(=O)NC2CCCCC2)[nH]1

>  <score_type>  (30) 
oracle

>  <origin>  (30) 
adg

>  <m_score__min__energy>  (30) 
-6.6699999999999999

>  <m_primary>  (30) 
energy

$$$$
30:0
     RDKit          3D

 59 62  0  0  0  0  0  0  0  0999 V2000
   54.3529   29.4462   55.8228 H   0  0  0  0  0  0  0  0  0  0  0  0
   53.7540   29.6940   54.9340 C   0  0  0  0  0  0  0  0  0  0  0  0
   52.6556   29.6617   54.9844 H   0  0  0  0  0  0  0  0  0  0  0  0
   54.3640   30.0360   53.7870 C   0  0  0  0  0  0  0  0  0  0  0  0
   53.7280   30.3730   52.5880 C   0  0  0  0  0  0  0  0  0  0  0  0
   52.4060   30.3560   52.3300 C   0  0  0  0  0  0  0  0  0  0  0  0
   51.9816   29.4582   51.8570 H   0  0  0  0  0  0  0  0  0  0  0  0
   51.4960   31.4710   52.6450 C   0  0  0  0  0  0  0  0  0  0  0  0
   51.2450   31.8910   53.8990 N   0  0  0  0  0  0  0  0  0  0  0  0
   50.4480   32.9660   53.7140 C   0  0  0  0  0  0  0  0  0  0  0  0
   49.9880   33.6400   54.6720 O   0  0  0  0  0  0  0  0  0  0  0  0
   50.1920   33.2680   52.4230 N   0  0  0  0  0  0  0  0  0  0  0  0
   50.8750   32.3220   51.7580 C   0  0  0  0  0  0  0  0  0  0  0  0
   50.9700   32.2670   50.3740 O   0  0  0  0  0  0  0  0  0  0  0  0
   54.7380   30.6560   51.6810 C   0  0  0  0  0  0  0  0  0  0  0  0
   54.6108   30.9534   50.6296 H   0  0  0  0  0  0  0  0  0  0  0  0
   55.9320   30.4930   52.3500 C   0  0  0  0  0  0  0  0  0  0  0  0
   57.2520   30.6330   51.6960 C   0  0  0  0  0  0  0  0  0  0  0  0
   57.9560   29.5930   51.5870 O   0  0  0  0  0  0  0  0  0  0  0  0
   57.7800   31.9170   51.2460 N   0  0  2  0  0  0  0  0  0  0  0  0
   57.1150   32.2820   50.5260 H   0  0  0  0  0  0  0  0  0  0  0  0
   59.1140   31.8360   50.6150 C   0  0  0  0  0  0  0  0  0  0  0  0
   59.0904   31.0523   49.8435 H   0  0  0  0  0  0  0  0  0  0  0  0
   59.3376   32.8245   50.1874 H   0  0  0  0  0  0  0  0  0  0  0  0
   60.2330   31.5030   51.6200 C   0  0  0  0  0  0  0  0  0  0  0  0
   60.6608   30.5237   51.3592 H   0  0  0  0  0  0  0  0  0  0  0  0
   60.9849   32.3036   51.5587 H   0  0  0  0  0  0  0  0  0  0  0  0
   59.7470   31.4510   53.0160 N   0  0  0  0  0  0  0  0  0  0  0  0
   60.8750   31.1360   53.9200 C   0  0  0  0  0  0  0  0  0  0  0  0
   60.5442   31.2284   54.9650 H   0  0  0  0  0  0  0  0  0  0  0  0
   61.2182   30.1077   53.7336 H   0  0  0  0  0  0  0  0  0  0  0  0
   61.7013   31.8378   53.7336 H   0  0  0  0  0  0  0  0  0  0  0  0
   58.9250   32.6390   53.4150 C   0  0  0  0  0  0  0  0  0  0  0  0
   59.7880   33.9160   53.6020 C   0  0  0  0  0  0  0  0  0  0  0  0
   59.9219   34.1141   54.6757 H   0  0  0  0  0  0  0  0  0  0  0  0
   60.7709   33.7664   53.1314 H   0  0  0  0  0  0  0  0  0  0  0  0
   59.2826   34.7722   53.1314 H   0  0  0  0  0  0  0  0  0  0  0  0
   58.2070   32.3470   54.7570 C   0  0  0  0  0  0  0  0  0  0  0  0
   58.8690   32.6162   55.5932 H   0  0  0  0  0  0  0  0  0  0  0  0
   57.2828   32.9407   54.8152 H   0  0  0  0  0  0  0  0  0  0  0  0
   57.9595   31.2768   54.8152 H   0  0  0  0  0  0  0  0  0  0  0  0
   57.8220   32.9270   52.3280 C   0  0  0  0  0  0  0  0  0  0  0  0
   56.8406   32.9461   52.8245 H   0  0  0  0  0  0  0  0  0  0  0  0
   58.0725   33.8909   51.8609 H   0  0  0  0  0  0  0  0  0  0  0  0
   55.7120   30.1070   53.6320 N   0  0  0  0  0  0  0  0  0  0  0  0
   56.7320   29.7190   54.6220 C   0  0  0  0  0  0  0  0  0  0  0  0
   57.5904   30.4022   54.5419 H   0  0  0  0  0  0  0  0  0  0  0  0
   56.2880   29.7776   55.6267 H   0  0  0  0  0  0  0  0  0  0  0  0
   57.2010   28.3060   54.3830 C   0  0  0  0  0  0  0  0  0  0  0  0
   58.5350   28.0460   54.0240 C   0  0  0  0  0  0  0  0  0  0  0  0
   59.2478   28.8779   53.9249 H   0  0  0  0  0  0  0  0  0  0  0  0
   58.9600   26.7320   53.7920 C   0  0  0  0  0  0  0  0  0  0  0  0
   60.0073   26.5334   53.5204 H   0  0  0  0  0  0  0  0  0  0  0  0
   58.0560   25.6730   53.9050 C   0  0  0  0  0  0  0  0  0  0  0  0
   58.3916   24.6422   53.7182 H   0  0  0  0  0  0  0  0  0  0  0  0
   56.7260   25.9210   54.2550 C   0  0  0  0  0  0  0  0  0  0  0  0
   56.0150   25.0863   54.3432 H   0  0  0  0  0  0  0  0  0  0  0  0
   56.3000   27.2320   54.4930 C   0  0  0  0  0  0  0  0  0  0  0  0
   55.2525   27.4242   54.7682 H   0  0  0  0  0  0  0  0  0  0  0  0
  1  2  1  0
  2  3  1  0
  2  4  2  0
  4  5  1  0
  5  6  2  0
  6  7  1  0
  6  8  1  0
  8  9  1  0
  9 10  1  0
 10 11  2  0
 10 12  1  0
 12 13  1  0
 13 14  1  0
  5 15  1  0
 15 16  1  0
 15 17  2  0
 17 18  1  0
 18 19  2  0
 18 20  1  0
 20 21  1  6
 20 22  1  0
 22 23  1  0
 22 24  1  0
 22 25  1  0
 25 26  1  0
 25 27  1  0
 25 28  1  0
 28 29  1  0
 29 30  1  0
 29 31  1  0
 29 32  1  0
 28 33  1  0
 33 34  1  0
 34 35  1  0
 34 36  1  0
 34 37  1  0
 33 38  1  0
 38 39  1  0
 38 40  1  0
 38 41  1  0
 33 42  1  0
 42 43  1  0
 42 44  1  0
 17 45  1  0
 45 46  1  0
 46 47  1  0
 46 48  1  0
 46 49  1  0
 49 50  2  0
 50 51  1  0
 50 52  1  0
 52 53  1  0
 52 54  2  0
 54 55  1  0
 54 56  1  0
 56 57  1  0
 56 58  2  0
 58 59  1  0
 45  4  1  0
 58 49  1  0
 13  8  2  0
 42 20  1  0
M  CHG  4   9  -1  12  -1  14  -1  20   1
M  END
>  <UniqueID>  (31) 
29

>  <SMILES>  (31) 
C=c1/c(=C/c2[n-]c(=O)[n-]c2[O-])cc(C(=O)[N@@H+]2CCN(C)C(C)(C)C2)n1Cc1ccccc1

>  <Energy>  (31) 
153.06929766709717

>  <Genealogy>  (31) 
C=c1c(=Cc2[n-]c(=O)[n-]c2[O-])cc(C(=O)[NH+]2CCN(C)C(C)(C)C2)n1Cc1ccccc1 (protonated)
C=c1c(=Cc2[n-]c(=O)[n-]c2[O-])cc(C(=O)[N@@H+]2CCN(C)C(C)(C)C2)n1Cc1ccccc1 (chirality)
C=c1/c(=C/c2[n-]c(=O)[n-]c2[O-])cc(C(=O)[N@@H+]2CCN(C)C(C)(C)C2)n1Cc1ccccc1 (cis-trans isomerization)
C=c1/c(=C/c2[n-]c(=O)[n-]c2[O-])cc(C(=O)[N@@H+]2CCN(C)C(C)(C)C2)n1Cc1ccccc1 (3D coordinates assigned)
C=c1/c(=C/c2[n-]c(=O)[n-]c2[O-])cc(C(=O)[N@@H+]2CCN(C)C(C)(C)C2)n1Cc1ccccc1 (nonaromatic ring conformer: 153.06929766709717 kcal/mol)

>  <smiles>  (31) 
C=c1c(=Cc2[nH]c(=O)[nH]c2O)cc(C(=O)N2CCN(C)C(C)(C)C2)n1Cc1ccccc1

>  <score_type>  (31) 
oracle

>  <origin>  (31) 
adg

>  <m_score__min__energy>  (31) 
-15.26

>  <m_primary>  (31) 
energy

$$$$
31:0
     RDKit          3D

 51 54  0  0  0  0  0  0  0  0999 V2000
   58.5440   32.6930   46.6910 O   0  0  0  0  0  0  0  0  0  0  0  0
   59.1540   31.8220   46.0080 C   0  0  0  0  0  0  0  0  0  0  0  0
   58.5150   31.2940   44.7580 C   0  0  0  0  0  0  0  0  0  0  0  0
   58.3440   29.8450   44.8460 N   0  0  0  0  0  0  0  0  0  0  0  0
   59.3820   28.8760   45.0190 C   0  0  0  0  0  0  0  0  0  0  0  0
   60.6070   29.1150   44.8620 O   0  0  0  0  0  0  0  0  0  0  0  0
   58.8080   27.5980   45.4310 C   0  0  0  0  0  0  0  0  0  0  0  0
   59.4150   26.3780   45.7130 C   0  0  0  0  0  0  0  0  0  0  0  0
   58.5940   25.3070   46.1100 C   0  0  0  0  0  0  0  0  0  0  0  0
   57.1870   25.4690   46.2240 C   0  0  0  0  0  0  0  0  0  0  0  0
   56.3540   24.3690   46.6320 N   0  0  0  0  0  0  0  0  0  0  0  0
   55.1180   24.4040   46.4570 O   0  0  0  0  0  0  0  0  0  0  0  0
   56.9090   23.2560   47.2260 O   0  0  0  0  0  0  0  0  0  0  0  0
   56.6090   26.7270   45.9340 C   0  0  0  0  0  0  0  0  0  0  0  0
   57.4470   27.7670   45.5390 C   0  0  0  0  0  0  0  0  0  0  0  0
   57.1440   29.1540   45.2010 C   0  0  0  0  0  0  0  0  0  0  0  0
   56.0030   29.6850   45.2370 O   0  0  0  0  0  0  0  0  0  0  0  0
   60.4290   31.3120   46.4360 N   0  0  0  0  0  0  0  0  0  0  0  0
   61.2330   31.8870   47.4820 C   0  0  0  0  0  0  0  0  0  0  0  0
   62.2150   32.8340   47.1470 C   0  0  0  0  0  0  0  0  0  0  0  0
   62.9880   33.4390   48.1410 C   0  0  0  0  0  0  0  0  0  0  0  0
   62.7910   33.1080   49.4870 C   0  0  0  0  0  0  0  0  0  0  0  0
   63.7590   33.8860   50.7380 S   0  0  0  0  0  0  0  0  0  0  0  0
   63.3910   35.3420   50.8310 O   0  0  0  0  0  0  0  0  0  0  0  0
   63.4610   33.2340   52.0580 O   0  0  0  0  0  0  0  0  0  0  0  0
   65.4600   33.7190   50.3760 N   0  0  0  0  0  0  0  0  0  0  0  0
   66.2660   34.0320   51.5720 C   0  0  0  0  0  0  0  0  0  0  0  0
   67.6600   33.3930   51.4690 C   0  0  0  0  0  0  0  0  0  0  0  0
   67.6370   31.9740   51.3770 O   0  0  0  0  0  0  0  0  0  0  0  0
   66.4250   31.4540   50.8460 C   0  0  0  0  0  0  0  0  0  0  0  0
   65.7580   32.3820   49.8150 C   0  0  0  0  0  0  0  0  0  0  0  0
   61.8000   32.1810   49.8310 C   0  0  0  0  0  0  0  0  0  0  0  0
   61.0180   31.5810   48.8390 C   0  0  0  0  0  0  0  0  0  0  0  0
   57.5310   31.7677   44.6260 H   0  0  0  0  0  0  0  0  0  0  0  0
   59.1640   31.5253   43.9005 H   0  0  0  0  0  0  0  0  0  0  0  0
   60.5048   26.2547   45.6280 H   0  0  0  0  0  0  0  0  0  0  0  0
   59.0475   24.3305   46.3353 H   0  0  0  0  0  0  0  0  0  0  0  0
   55.5230   26.8804   46.0185 H   0  0  0  0  0  0  0  0  0  0  0  0
   60.7770   30.4330   45.9870 H   0  0  0  0  0  0  0  0  0  0  0  0
   62.3768   33.1016   46.0924 H   0  0  0  0  0  0  0  0  0  0  0  0
   63.7544   34.1783   47.8651 H   0  0  0  0  0  0  0  0  0  0  0  0
   66.3743   35.1232   51.6592 H   0  0  0  0  0  0  0  0  0  0  0  0
   65.7558   33.6275   52.4586 H   0  0  0  0  0  0  0  0  0  0  0  0
   68.1580   33.7904   50.5723 H   0  0  0  0  0  0  0  0  0  0  0  0
   68.1964   33.6447   52.3958 H   0  0  0  0  0  0  0  0  0  0  0  0
   66.6428   30.4920   50.3590 H   0  0  0  0  0  0  0  0  0  0  0  0
   65.7234   31.3469   51.6864 H   0  0  0  0  0  0  0  0  0  0  0  0
   66.4345   32.5012   48.9558 H   0  0  0  0  0  0  0  0  0  0  0  0
   64.8051   31.9223   49.5138 H   0  0  0  0  0  0  0  0  0  0  0  0
   61.6355   31.9231   50.8876 H   0  0  0  0  0  0  0  0  0  0  0  0
   60.2308   30.8662   49.1206 H   0  0  0  0  0  0  0  0  0  0  0  0
  1  2  2  0
  2  3  1  0
  3  4  1  0
  4  5  1  0
  5  6  2  0
  5  7  1  0
  7  8  2  0
  8  9  1  0
  9 10  2  0
 10 11  1  0
 11 12  2  0
 11 13  1  0
 10 14  1  0
 14 15  2  0
 15 16  1  0
 16 17  2  0
  2 18  1  0
 18 19  1  0
 19 20  2  0
 20 21  1  0
 21 22  2  0
 22 23  1  0
 23 24  2  0
 23 25  2  0
 23 26  1  0
 26 27  1  0
 27 28  1  0
 28 29  1  0
 29 30  1  0
 30 31  1  0
 22 32  1  0
 32 33  2  0
 16  4  1  0
 33 19  1  0
 15  7  1  0
 31 26  1  0
  3 34  1  0
  3 35  1  0
  8 36  1  0
  9 37  1  0
 14 38  1  0
 18 39  1  0
 20 40  1  0
 21 41  1  0
 27 42  1  0
 27 43  1  0
 28 44  1  0
 28 45  1  0
 30 46  1  0
 30 47  1  0
 31 48  1  0
 31 49  1  0
 32 50  1  0
 33 51  1  0
M  CHG  2  11   1  13  -1
M  END
>  <UniqueID>  (32) 
30

>  <SMILES>  (32) 
O=C(CN1C(=O)c2ccc([N+](=O)[O-])cc2C1=O)Nc1ccc(S(=O)(=O)N2CCOCC2)cc1

>  <Energy>  (32) 
101.53888494763144

>  <Genealogy>  (32) 
O=C(CN1C(=O)c2ccc([N+](=O)[O-])cc2C1=O)Nc1ccc(S(=O)(=O)N2CCOCC2)cc1 (3D coordinates assigned)
O=C(CN1C(=O)c2ccc([N+](=O)[O-])cc2C1=O)Nc1ccc(S(=O)(=O)N2CCOCC2)cc1 (nonaromatic ring conformer: 101.53888494763144 kcal/mol)

>  <smiles>  (32) 
O=C(CN1C(=O)c2ccc([N+](=O)[O-])cc2C1=O)Nc1ccc(S(=O)(=O)N2CCOCC2)cc1

>  <score_type>  (32) 
oracle

>  <origin>  (32) 
adg

>  <m_score__min__energy>  (32) 
-9.7699999999999996

>  <m_primary>  (32) 
energy

$$$$
32:0
     RDKit          3D

 58 62  0  0  0  0  0  0  0  0999 V2000
   56.3458   20.8633   42.2847 H   0  0  0  0  0  0  0  0  0  0  0  0
   56.7710   21.6300   42.9490 C   0  0  0  0  0  0  0  0  0  0  0  0
   56.1180   22.8570   43.1110 C   0  0  0  0  0  0  0  0  0  0  0  0
   55.1820   23.0565   42.5687 H   0  0  0  0  0  0  0  0  0  0  0  0
   56.6530   23.8300   43.9610 C   0  0  0  0  0  0  0  0  0  0  0  0
   56.1369   24.7938   44.0822 H   0  0  0  0  0  0  0  0  0  0  0  0
   57.8440   23.5840   44.6600 C   0  0  0  0  0  0  0  0  0  0  0  0
   58.3640   24.5990   45.4780 O   0  0  0  0  0  0  0  0  0  0  0  0
   58.2020   25.9740   45.2600 C   0  0  0  0  0  0  0  0  0  0  0  0
   58.1370   26.8320   46.3640 C   0  0  0  0  0  0  0  0  0  0  0  0
   58.2344   26.4238   47.3808 H   0  0  0  0  0  0  0  0  0  0  0  0
   57.9490   28.2050   46.1810 C   0  0  0  0  0  0  0  0  0  0  0  0
   57.8774   28.8681   47.0557 H   0  0  0  0  0  0  0  0  0  0  0  0
   57.8510   28.7430   44.8880 C   0  0  0  0  0  0  0  0  0  0  0  0
   57.6170   30.1880   44.7040 C   0  0  0  0  0  0  0  0  0  0  0  0
   56.4110   30.7880   44.8050 N   0  0  0  0  0  0  0  0  0  0  0  0
   56.6150   32.0800   44.6020 N   0  0  0  0  0  0  0  0  0  0  0  0
   57.9380   32.2130   44.3820 C   0  0  0  0  0  0  0  0  0  0  0  0
   58.5460   33.3420   44.1790 N   0  0  0  0  0  0  0  0  0  0  0  0
   59.0210   34.2310   45.2010 C   0  0  0  0  0  0  0  0  0  0  0  0
   59.2490   35.4310   44.8940 O   0  0  0  0  0  0  0  0  0  0  0  0
   59.1940   33.8010   46.6090 C   0  0  0  0  0  0  0  0  0  0  0  0
   58.1950   33.0530   47.2570 C   0  0  0  0  0  0  0  0  0  0  0  0
   57.2986   32.7405   46.7013 H   0  0  0  0  0  0  0  0  0  0  0  0
   58.3350   32.7040   48.6050 C   0  0  0  0  0  0  0  0  0  0  0  0
   57.5486   32.1176   49.1028 H   0  0  0  0  0  0  0  0  0  0  0  0
   59.4730   33.0980   49.3250 C   0  0  0  0  0  0  0  0  0  0  0  0
   59.6050   32.7870   50.7920 C   0  0  0  0  0  0  0  0  0  0  0  0
   60.6135   32.3966   50.9935 H   0  0  0  0  0  0  0  0  0  0  0  0
   59.4405   33.7053   51.3748 H   0  0  0  0  0  0  0  0  0  0  0  0
   58.6010   31.7760   51.1800 N   0  0  0  0  0  0  0  0  0  0  0  0
   59.2150   30.6620   51.9270 C   0  0  0  0  0  0  0  0  0  0  0  0
   60.0679   30.2673   51.3553 H   0  0  0  0  0  0  0  0  0  0  0  0
   59.5576   31.0308   52.9051 H   0  0  0  0  0  0  0  0  0  0  0  0
   58.1830   29.5360   52.1460 C   0  0  0  0  0  0  0  0  0  0  0  0
   58.3712   28.7384   51.4123 H   0  0  0  0  0  0  0  0  0  0  0  0
   58.2994   29.1743   53.1783 H   0  0  0  0  0  0  0  0  0  0  0  0
   56.7940   30.0010   51.9910 N   0  0  0  0  0  0  0  0  0  0  0  0
   56.5760   30.0800   50.9700 H   0  0  0  0  0  0  0  0  0  0  0  0
   56.6010   31.3170   52.6140 C   0  0  0  0  0  0  0  0  0  0  0  0
   55.5521   31.6227   52.4860 H   0  0  0  0  0  0  0  0  0  0  0  0
   56.8577   31.2349   53.6805 H   0  0  0  0  0  0  0  0  0  0  0  0
   57.5180   32.3870   51.9750 C   0  0  0  0  0  0  0  0  0  0  0  0
   56.9124   33.0287   51.3181 H   0  0  0  0  0  0  0  0  0  0  0  0
   57.9769   32.9724   52.7854 H   0  0  0  0  0  0  0  0  0  0  0  0
   60.4710   33.8430   48.6780 C   0  0  0  0  0  0  0  0  0  0  0  0
   61.3696   34.1503   49.2331 H   0  0  0  0  0  0  0  0  0  0  0  0
   60.3310   34.1970   47.3340 C   0  0  0  0  0  0  0  0  0  0  0  0
   61.1154   34.7893   46.8401 H   0  0  0  0  0  0  0  0  0  0  0  0
   58.5610   31.0620   44.4430 O   0  0  0  0  0  0  0  0  0  0  0  0
   57.9670   27.8880   43.7790 C   0  0  0  0  0  0  0  0  0  0  0  0
   57.9191   28.3023   42.7611 H   0  0  0  0  0  0  0  0  0  0  0  0
   58.1430   26.5130   43.9630 C   0  0  0  0  0  0  0  0  0  0  0  0
   58.2356   25.8507   43.0896 H   0  0  0  0  0  0  0  0  0  0  0  0
   58.5080   22.3530   44.4770 C   0  0  0  0  0  0  0  0  0  0  0  0
   59.4559   22.1582   45.0000 H   0  0  0  0  0  0  0  0  0  0  0  0
   57.9650   21.3800   43.6330 C   0  0  0  0  0  0  0  0  0  0  0  0
   58.4781   20.4153   43.5065 H   0  0  0  0  0  0  0  0  0  0  0  0
  1  2  1  0
  2  3  2  0
  3  4  1  0
  3  5  1  0
  5  6  1  0
  5  7  2  0
  7  8  1  0
  8  9  1  0
  9 10  2  0
 10 11  1  0
 10 12  1  0
 12 13  1  0
 12 14  2  0
 14 15  1  0
 15 16  2  0
 16 17  1  0
 17 18  1  0
 18 19  2  0
 19 20  1  0
 20 21  2  0
 20 22  1  0
 22 23  2  0
 23 24  1  0
 23 25  1  0
 25 26  1  0
 25 27  2  0
 27 28  1  0
 28 29  1  0
 28 30  1  0
 28 31  1  0
 31 32  1  0
 32 33  1  0
 32 34  1  0
 32 35  1  0
 35 36  1  0
 35 37  1  0
 35 38  1  0
 38 39  1  0
 38 40  1  0
 40 41  1  0
 40 42  1  0
 40 43  1  0
 43 44  1  0
 43 45  1  0
 27 46  1  0
 46 47  1  0
 46 48  2  0
 48 49  1  0
 18 50  1  0
 14 51  1  0
 51 52  1  0
 51 53  2  0
 53 54  1  0
  7 55  1  0
 55 56  1  0
 55 57  2  0
 57 58  1  0
 57  2  1  0
 53  9  1  0
 50 15  1  0
 48 22  1  0
 43 31  1  0
M  CHG  1  17  -1
M  END
>  <UniqueID>  (33) 
31

>  <SMILES>  (33) 
O=C(/N=c1\[n-]nc(-c2ccc(Oc3ccccc3)cc2)o1)c1ccc(CN2CCNCC2)cc1

>  <Energy>  (33) 
120.59249824142182

>  <Genealogy>  (33) 
O=C(N=c1[n-]nc(-c2ccc(Oc3ccccc3)cc2)o1)c1ccc(CN2CCNCC2)cc1 (protonated)
O=C(/N=c1\[n-]nc(-c2ccc(Oc3ccccc3)cc2)o1)c1ccc(CN2CCNCC2)cc1 (cis-trans isomerization)
O=C(/N=c1\[n-]nc(-c2ccc(Oc3ccccc3)cc2)o1)c1ccc(CN2CCNCC2)cc1 (3D coordinates assigned)
O=C(/N=c1\[n-]nc(-c2ccc(Oc3ccccc3)cc2)o1)c1ccc(CN2CCNCC2)cc1 (nonaromatic ring conformer: 120.59249824142182 kcal/mol)

>  <smiles>  (33) 
O=C(N=c1[nH]nc(-c2ccc(Oc3ccccc3)cc2)o1)c1ccc(CN2CCNCC2)cc1

>  <score_type>  (33) 
oracle

>  <origin>  (33) 
adg

>  <m_score__min__energy>  (33) 
-11.119999999999999

>  <m_primary>  (33) 
energy

$$$$
33:0
     RDKit          3D

 52 55  0  0  0  0  0  0  0  0999 V2000
   59.7610   25.2220   45.9960 C   0  0  0  0  0  0  0  0  0  0  0  0
   58.2850   25.0730   45.6820 C   0  0  0  0  0  0  0  0  0  0  0  0
   57.3500   26.0600   46.0880 C   0  0  0  0  0  0  0  0  0  0  0  0
   57.7810   27.3320   46.7140 C   0  0  0  0  0  0  0  0  0  0  0  0
   58.2100   27.3100   47.8990 O   0  0  0  0  0  0  0  0  0  0  0  0
   57.7270   28.5760   45.9880 N   0  0  0  0  0  0  0  0  0  0  0  0
   58.4940   29.7350   46.4640 C   0  0  0  0  0  0  0  0  0  0  0  0
   58.9770   30.5960   45.2830 C   0  0  0  0  0  0  0  0  0  0  0  0
   57.9720   30.7370   44.1960 N   0  0  0  0  0  0  0  0  0  0  0  0
   57.9740   32.0560   43.5230 C   0  0  0  0  0  0  0  0  0  0  0  0
   58.0400   33.2400   44.4680 C   0  0  0  0  0  0  0  0  0  0  0  0
   56.9750   33.7800   44.8710 O   0  0  0  0  0  0  0  0  0  0  0  0
   59.2860   33.8770   44.7880 N   0  0  0  0  0  0  0  0  0  0  0  0
   59.8840   33.9930   46.0870 C   0  0  0  0  0  0  0  0  0  0  0  0
   61.2000   33.5590   46.3340 C   0  0  0  0  0  0  0  0  0  0  0  0
   61.7410   33.6490   47.6200 C   0  0  0  0  0  0  0  0  0  0  0  0
   60.9680   34.1520   48.6720 C   0  0  0  0  0  0  0  0  0  0  0  0
   61.4940   34.2360   49.9190 F   0  0  0  0  0  0  0  0  0  0  0  0
   59.6490   34.5550   48.4390 C   0  0  0  0  0  0  0  0  0  0  0  0
   59.1050   34.4650   47.1520 C   0  0  0  0  0  0  0  0  0  0  0  0
   56.6250   30.2230   44.5090 C   0  0  0  0  0  0  0  0  0  0  0  0
   56.7250   28.7540   44.9270 C   0  0  0  0  0  0  0  0  0  0  0  0
   55.9790   25.8440   45.8590 C   0  0  0  0  0  0  0  0  0  0  0  0
   55.1250   26.7020   46.2130 O   0  0  0  0  0  0  0  0  0  0  0  0
   55.5580   24.7170   45.2360 N   0  0  0  0  0  0  0  0  0  0  0  0
   56.4200   23.7670   44.7970 C   0  0  0  0  0  0  0  0  0  0  0  0
   55.9190   22.6390   44.1360 C   0  0  0  0  0  0  0  0  0  0  0  0
   56.7910   21.6620   43.6550 C   0  0  0  0  0  0  0  0  0  0  0  0
   58.1670   21.8040   43.8370 C   0  0  0  0  0  0  0  0  0  0  0  0
   58.6800   22.9230   44.4990 C   0  0  0  0  0  0  0  0  0  0  0  0
   57.8130   23.9220   44.9950 C   0  0  0  0  0  0  0  0  0  0  0  0
   59.9042   25.2365   47.0865 H   0  0  0  0  0  0  0  0  0  0  0  0
   60.3150   24.3752   45.5646 H   0  0  0  0  0  0  0  0  0  0  0  0
   60.1345   26.1624   45.5646 H   0  0  0  0  0  0  0  0  0  0  0  0
   57.8545   30.3463   47.1177 H   0  0  0  0  0  0  0  0  0  0  0  0
   59.3728   29.3720   47.0171 H   0  0  0  0  0  0  0  0  0  0  0  0
   59.2219   31.5992   45.6619 H   0  0  0  0  0  0  0  0  0  0  0  0
   59.8502   30.0865   44.8495 H   0  0  0  0  0  0  0  0  0  0  0  0
   58.8464   32.1001   42.8545 H   0  0  0  0  0  0  0  0  0  0  0  0
   57.0179   32.1360   42.9850 H   0  0  0  0  0  0  0  0  0  0  0  0
   61.8048   33.1476   45.5124 H   0  0  0  0  0  0  0  0  0  0  0  0
   62.7755   33.3240   47.8049 H   0  0  0  0  0  0  0  0  0  0  0  0
   59.0385   34.9430   49.2677 H   0  0  0  0  0  0  0  0  0  0  0  0
   58.0617   34.7661   46.9761 H   0  0  0  0  0  0  0  0  0  0  0  0
   56.1905   30.8098   45.3317 H   0  0  0  0  0  0  0  0  0  0  0  0
   55.9835   30.3087   43.6195 H   0  0  0  0  0  0  0  0  0  0  0  0
   55.7453   28.4177   45.2972 H   0  0  0  0  0  0  0  0  0  0  0  0
   57.0306   28.1605   44.0527 H   0  0  0  0  0  0  0  0  0  0  0  0
   54.8342   22.5227   43.9955 H   0  0  0  0  0  0  0  0  0  0  0  0
   56.3936   20.7795   43.1321 H   0  0  0  0  0  0  0  0  0  0  0  0
   58.8517   21.0312   43.4575 H   0  0  0  0  0  0  0  0  0  0  0  0
   59.7667   23.0265   44.6348 H   0  0  0  0  0  0  0  0  0  0  0  0
  1  2  1  0
  2  3  2  0
  3  4  1  0
  4  5  2  0
  4  6  1  0
  6  7  1  0
  7  8  1  0
  8  9  1  0
  9 10  1  0
 10 11  1  0
 11 12  2  0
 11 13  1  0
 13 14  1  0
 14 15  2  0
 15 16  1  0
 16 17  2  0
 17 18  1  0
 17 19  1  0
 19 20  2  0
  9 21  1  0
 21 22  1  0
  3 23  1  0
 23 24  2  0
 23 25  1  0
 25 26  1  0
 26 27  2  0
 27 28  1  0
 28 29  2  0
 29 30  1  0
 30 31  2  0
 31  2  1  0
 22  6  1  0
 31 26  1  0
 20 14  1  0
  1 32  1  0
  1 33  1  0
  1 34  1  0
  7 35  1  0
  7 36  1  0
  8 37  1  0
  8 38  1  0
 10 39  1  0
 10 40  1  0
 15 41  1  0
 16 42  1  0
 19 43  1  0
 20 44  1  0
 21 45  1  0
 21 46  1  0
 22 47  1  0
 22 48  1  0
 27 49  1  0
 28 50  1  0
 29 51  1  0
 30 52  1  0
M  CHG  2  13  -1  25  -1
M  END
>  <UniqueID>  (34) 
32

>  <SMILES>  (34) 
Cc1c(C(=O)N2CCN(CC(=O)[N-]c3ccc(F)cc3)CC2)c(=O)[n-]c2ccccc12

>  <Energy>  (34) 
86.64629399052393

>  <Genealogy>  (34) 
Cc1c(C(=O)N2CCN(CC(=O)[N-]c3ccc(F)cc3)CC2)c(=O)[n-]c2ccccc12 (protonated)
Cc1c(C(=O)N2CCN(CC(=O)[N-]c3ccc(F)cc3)CC2)c(=O)[n-]c2ccccc12 (3D coordinates assigned)
Cc1c(C(=O)N2CCN(CC(=O)[N-]c3ccc(F)cc3)CC2)c(=O)[n-]c2ccccc12 (nonaromatic ring conformer: 86.64629399052393 kcal/mol)

>  <smiles>  (34) 
Cc1c(C(=O)N2CCN(CC(=O)Nc3ccc(F)cc3)CC2)c(=O)[nH]c2ccccc12

>  <score_type>  (34) 
oracle

>  <origin>  (34) 
adg

>  <m_score__min__energy>  (34) 
-11.960000000000001

>  <m_primary>  (34) 
energy

$$$$
34:0
     RDKit          3D

 58 61  0  0  0  0  0  0  0  0999 V2000
   62.8636   34.2304   47.9154 H   0  0  0  0  0  0  0  0  0  0  0  0
   62.6810   34.1800   48.9990 C   0  0  0  0  0  0  0  0  0  0  0  0
   61.5280   34.5950   49.4430 N   0  0  0  0  0  0  0  0  0  0  0  0
   60.2980   33.8610   49.4900 C   0  0  0  0  0  0  0  0  0  0  0  0
   60.0720   33.1160   50.4770 O   0  0  0  0  0  0  0  0  0  0  0  0
   59.3760   33.9060   48.3980 N   0  0  0  0  0  0  0  0  0  0  0  0
   59.7760   34.4530   46.8050 S   0  0  0  0  0  0  0  0  0  0  0  0
   61.2720   34.4580   46.6520 O   0  0  0  0  0  0  0  0  0  0  0  0
   59.2670   35.8500   46.5800 O   0  0  0  0  0  0  0  0  0  0  0  0
   59.0340   33.3690   45.6140 C   0  0  0  0  0  0  0  0  0  0  0  0
   58.3030   33.9240   44.5490 C   0  0  0  0  0  0  0  0  0  0  0  0
   58.2308   35.0169   44.4468 H   0  0  0  0  0  0  0  0  0  0  0  0
   57.6680   33.0970   43.6200 C   0  0  0  0  0  0  0  0  0  0  0  0
   57.0980   33.5403   42.7902 H   0  0  0  0  0  0  0  0  0  0  0  0
   57.7550   31.7070   43.7420 C   0  0  0  0  0  0  0  0  0  0  0  0
   57.2453   31.0592   43.0137 H   0  0  0  0  0  0  0  0  0  0  0  0
   58.4880   31.1390   44.7870 C   0  0  0  0  0  0  0  0  0  0  0  0
   58.5552   30.0448   44.8774 H   0  0  0  0  0  0  0  0  0  0  0  0
   59.1390   31.9590   45.7220 C   0  0  0  0  0  0  0  0  0  0  0  0
   59.9330   31.3200   46.7890 C   0  0  0  0  0  0  0  0  0  0  0  0
   61.1570   31.8760   47.1870 C   0  0  0  0  0  0  0  0  0  0  0  0
   61.5050   32.8181   46.7383 H   0  0  0  0  0  0  0  0  0  0  0  0
   61.9350   31.2330   48.1540 C   0  0  0  0  0  0  0  0  0  0  0  0
   62.9018   31.6630   48.4548 H   0  0  0  0  0  0  0  0  0  0  0  0
   61.4880   30.0450   48.7400 C   0  0  0  0  0  0  0  0  0  0  0  0
   62.1107   29.5349   49.4897 H   0  0  0  0  0  0  0  0  0  0  0  0
   60.2430   29.5000   48.3730 C   0  0  0  0  0  0  0  0  0  0  0  0
   59.7640   28.2590   48.9110 N   0  0  0  0  0  0  0  0  0  0  0  0
   60.3940   26.9780   48.8120 C   0  0  0  0  0  0  0  0  0  0  0  0
   60.7770   26.3720   49.8480 O   0  0  0  0  0  0  0  0  0  0  0  0
   60.5560   26.3250   47.5030 C   0  0  0  0  0  0  0  0  0  0  0  0
   61.2439   25.4708   47.4185 H   0  0  0  0  0  0  0  0  0  0  0  0
   59.8960   26.7330   46.4100 C   0  0  0  0  0  0  0  0  0  0  0  0
   60.4790   27.1412   45.5712 H   0  0  0  0  0  0  0  0  0  0  0  0
   58.4200   26.6630   46.2720 C   0  0  0  0  0  0  0  0  0  0  0  0
   57.7610   25.4880   46.6710 C   0  0  0  0  0  0  0  0  0  0  0  0
   58.3408   24.6512   47.0876 H   0  0  0  0  0  0  0  0  0  0  0  0
   56.3720   25.3750   46.5420 C   0  0  0  0  0  0  0  0  0  0  0  0
   55.8669   24.4454   46.8432 H   0  0  0  0  0  0  0  0  0  0  0  0
   55.6260   26.4390   46.0320 C   0  0  0  0  0  0  0  0  0  0  0  0
   54.2480   26.3180   45.9060 O   0  0  0  0  0  0  0  0  0  0  0  0
   56.2670   27.6250   45.6540 C   0  0  0  0  0  0  0  0  0  0  0  0
   55.5270   28.6910   45.1590 O   0  0  0  0  0  0  0  0  0  0  0  0
   57.6560   27.7390   45.7770 C   0  0  0  0  0  0  0  0  0  0  0  0
   58.1552   28.6748   45.4854 H   0  0  0  0  0  0  0  0  0  0  0  0
   59.4760   30.1420   47.3950 C   0  0  0  0  0  0  0  0  0  0  0  0
   58.5051   29.7182   47.0989 H   0  0  0  0  0  0  0  0  0  0  0  0
   63.7590   33.6460   49.8580 C   0  0  0  0  0  0  0  0  0  0  0  0
   64.7370   32.7730   49.3410 C   0  0  0  0  0  0  0  0  0  0  0  0
   64.6912   32.4615   48.2870 H   0  0  0  0  0  0  0  0  0  0  0  0
   65.7660   32.3010   50.1630 C   0  0  0  0  0  0  0  0  0  0  0  0
   66.5160   31.6044   49.7603 H   0  0  0  0  0  0  0  0  0  0  0  0
   65.8410   32.7150   51.4970 C   0  0  0  0  0  0  0  0  0  0  0  0
   66.6462   32.3376   52.1445 H   0  0  0  0  0  0  0  0  0  0  0  0
   64.8940   33.6080   52.0090 C   0  0  0  0  0  0  0  0  0  0  0  0
   64.9604   33.9385   53.0561 H   0  0  0  0  0  0  0  0  0  0  0  0
   63.8610   34.0820   51.1900 C   0  0  0  0  0  0  0  0  0  0  0  0
   63.1277   34.7974   51.5907 H   0  0  0  0  0  0  0  0  0  0  0  0
  1  2  1  0
  2  3  2  3
  3  4  1  0
  4  5  2  0
  4  6  1  0
  6  7  1  0
  7  8  2  0
  7  9  2  0
  7 10  1  0
 10 11  2  0
 11 12  1  0
 11 13  1  0
 13 14  1  0
 13 15  2  0
 15 16  1  0
 15 17  1  0
 17 18  1  0
 17 19  2  0
 19 20  1  0
 20 21  2  0
 21 22  1  0
 21 23  1  0
 23 24  1  0
 23 25  2  0
 25 26  1  0
 25 27  1  0
 27 28  1  0
 28 29  1  0
 29 30  2  0
 29 31  1  0
 31 32  1  0
 31 33  2  0
 33 34  1  0
 33 35  1  0
 35 36  2  0
 36 37  1  0
 36 38  1  0
 38 39  1  0
 38 40  2  0
 40 41  1  0
 40 42  1  0
 42 43  1  0
 42 44  2  0
 44 45  1  0
 27 46  2  0
 46 47  1  0
  2 48  1  0
 48 49  2  0
 49 50  1  0
 49 51  1  0
 51 52  1  0
 51 53  2  0
 53 54  1  0
 53 55  1  0
 55 56  1  0
 55 57  2  0
 57 58  1  0
 19 10  1  0
 46 20  1  0
 57 48  1  0
 44 35  1  0
M  CHG  4   6  -1  28  -1  41  -1  43  -1
M  END
>  <UniqueID>  (35) 
33

>  <SMILES>  (35) 
O=C(/C=C/c1ccc([O-])c([O-])c1)[N-]c1cccc(-c2ccccc2S(=O)(=O)[N-]C(=O)N=Cc2ccccc2)c1

>  <Energy>  (35) 
85.42137931695953

>  <Genealogy>  (35) 
O=C(C=Cc1ccc([O-])c([O-])c1)[N-]c1cccc(-c2ccccc2S(=O)(=O)[N-]C(=O)N=Cc2ccccc2)c1 (protonated)
O=C(/C=C/c1ccc([O-])c([O-])c1)[N-]c1cccc(-c2ccccc2S(=O)(=O)[N-]C(=O)N=Cc2ccccc2)c1 (cis-trans isomerization)
O=C(/C=C/c1ccc([O-])c([O-])c1)[N-]c1cccc(-c2ccccc2S(=O)(=O)[N-]C(=O)N=Cc2ccccc2)c1 (3D coordinates assigned)
O=C(/C=C/c1ccc([O-])c([O-])c1)[N-]c1cccc(-c2ccccc2S(=O)(=O)[N-]C(=O)N=Cc2ccccc2)c1 (optimized conformer: 85.42137931695953 kcal/mol)

>  <smiles>  (35) 
O=C(C=Cc1ccc(O)c(O)c1)Nc1cccc(-c2ccccc2S(=O)(=O)NC(=O)N=Cc2ccccc2)c1

>  <score_type>  (35) 
oracle

>  <origin>  (35) 
adg

>  <m_score__min__energy>  (35) 
-21.960000000000001

>  <m_primary>  (35) 
energy

$$$$
35:0
     RDKit          3D

 27 28  0  0  0  0  0  0  0  0999 V2000
   58.1570   21.4860   43.4740 C   0  0  0  0  0  0  0  0  0  0  0  0
   58.4500   22.4770   44.5590 C   0  0  0  0  0  0  0  0  0  0  0  0
   59.4920   22.3320   45.2510 O   0  0  0  0  0  0  0  0  0  0  0  0
   57.5070   23.5680   44.8830 C   0  0  0  0  0  0  0  0  0  0  0  0
   58.0300   24.7930   45.3300 C   0  0  0  0  0  0  0  0  0  0  0  0
   57.1850   25.8560   45.7090 C   0  0  0  0  0  0  0  0  0  0  0  0
   57.7880   27.1320   46.1860 C   0  0  0  0  0  0  0  0  0  0  0  0
   58.9770   27.1370   46.6100 O   0  0  0  0  0  0  0  0  0  0  0  0
   57.0280   28.3530   46.1620 N   0  0  0  0  0  0  0  0  0  0  0  0
   56.7030   29.0420   45.1080 C   0  0  0  0  0  0  0  0  0  0  0  0
   55.4320   29.4200   44.8690 N   0  0  0  0  0  0  0  0  0  0  0  0
   55.5160   30.0960   43.7090 C   0  0  0  0  0  0  0  0  0  0  0  0
   56.8220   30.1080   43.2820 C   0  0  0  0  0  0  0  0  0  0  0  0
   57.5850   29.4390   44.1650 N   0  0  0  0  0  0  0  0  0  0  0  0
   55.7870   25.6660   45.6290 C   0  0  0  0  0  0  0  0  0  0  0  0
   54.8970   26.6670   46.0050 O   0  0  0  0  0  0  0  0  0  0  0  0
   55.2660   24.4570   45.1640 C   0  0  0  0  0  0  0  0  0  0  0  0
   56.1080   23.4150   44.7710 C   0  0  0  0  0  0  0  0  0  0  0  0
   55.5230   22.2600   44.2470 O   0  0  0  0  0  0  0  0  0  0  0  0
   57.8724   20.5233   43.9238 H   0  0  0  0  0  0  0  0  0  0  0  0
   57.3305   21.8582   42.8509 H   0  0  0  0  0  0  0  0  0  0  0  0
   59.0531   21.3489   42.8509 H   0  0  0  0  0  0  0  0  0  0  0  0
   59.1206   24.9253   45.3854 H   0  0  0  0  0  0  0  0  0  0  0  0
   54.6711   30.5658   43.1842 H   0  0  0  0  0  0  0  0  0  0  0  0
   57.1864   30.5892   42.3624 H   0  0  0  0  0  0  0  0  0  0  0  0
   54.1757   24.3234   45.1064 H   0  0  0  0  0  0  0  0  0  0  0  0
   55.7220   21.3330   44.5990 H   0  0  0  0  0  0  0  0  0  0  0  0
  1  2  1  0
  2  3  2  0
  2  4  1  0
  4  5  2  0
  5  6  1  0
  6  7  1  0
  7  8  2  0
  7  9  1  0
  9 10  2  3
 10 11  1  0
 11 12  1  0
 12 13  2  0
 13 14  1  0
  6 15  2  0
 15 16  1  0
 15 17  1  0
 17 18  2  0
 18 19  1  0
 18  4  1  0
 14 10  1  0
  1 20  1  0
  1 21  1  0
  1 22  1  0
  5 23  1  0
 12 24  1  0
 13 25  1  0
 17 26  1  0
 19 27  1  0
M  CHG  3  11  -1  14  -1  16  -1
M  END
>  <UniqueID>  (36) 
34

>  <SMILES>  (36) 
CC(=O)c1cc(C(=O)N=c2[n-]cc[n-]2)c([O-])cc1O

>  <Energy>  (36) 
65.96126108688317

>  <Genealogy>  (36) 
CC(=O)c1cc(C(=O)N=c2[n-]cc[n-]2)c([O-])cc1O (protonated)
CC(=O)c1cc(C(=O)N=c2[n-]cc[n-]2)c([O-])cc1O (3D coordinates assigned)
CC(=O)c1cc(C(=O)N=c2[n-]cc[n-]2)c([O-])cc1O (optimized conformer: 65.96126108688317 kcal/mol)

>  <smiles>  (36) 
CC(=O)c1cc(C(=O)N=c2[nH]cc[nH]2)c(O)cc1O

>  <score_type>  (36) 
oracle

>  <origin>  (36) 
adg

>  <m_score__min__energy>  (36) 
-12.98

>  <m_primary>  (36) 
energy

$$$$
36:0
     RDKit          3D

 36 38  0  0  0  0  0  0  0  0999 V2000
   57.7280   25.4640   47.4700 C   0  0  0  0  0  0  0  0  0  0  0  0
   57.5060   26.5060   46.6700 C   0  0  0  0  0  0  0  0  0  0  0  0
   56.2660   26.8120   45.9780 C   0  0  0  0  0  0  0  0  0  0  0  0
   55.1970   26.1500   46.0580 O   0  0  0  0  0  0  0  0  0  0  0  0
   56.3990   27.9700   45.2310 O   0  0  0  0  0  0  0  0  0  0  0  0
   57.7780   28.3290   45.1870 C   0  0  2  0  0  0  0  0  0  0  0  0
   58.3800   27.7060   46.4820 C   0  0  2  0  0  0  0  0  0  0  0  0
   59.9010   27.4740   46.4010 C   0  0  0  0  0  0  0  0  0  0  0  0
   60.7030   28.7150   45.9240 C   0  0  0  0  0  0  0  0  0  0  0  0
   60.1820   30.0650   46.4380 C   0  0  0  0  0  0  0  0  0  0  0  0
   60.9380   30.7680   47.2970 C   0  0  0  0  0  0  0  0  0  0  0  0
   58.7560   30.5360   46.1270 C   0  0  1  0  0  0  0  0  0  0  0  0
   58.5300   32.0330   45.8930 C   0  0  0  0  0  0  0  0  0  0  0  0
   57.1330   32.1050   45.2600 C   0  0  0  0  0  0  0  0  0  0  0  0
   56.9200   30.7480   44.6540 C   0  0  0  0  0  0  0  0  0  0  0  0
   55.9260   30.4910   43.7940 C   0  0  0  0  0  0  0  0  0  0  0  0
   58.0950   29.8400   44.9100 C   0  0  2  0  0  0  0  0  0  0  0  0
   58.9380   29.8960   43.7740 O   0  0  0  0  0  0  0  0  0  0  0  0
   58.7127   25.3334   47.9426 H   0  0  0  0  0  0  0  0  0  0  0  0
   56.9266   24.7343   47.6579 H   0  0  0  0  0  0  0  0  0  0  0  0
   58.2724   27.9223   44.2925 H   0  0  0  0  0  0  0  0  0  0  0  0
   58.3604   28.3539   47.3707 H   0  0  0  0  0  0  0  0  0  0  0  0
   60.2619   27.1920   47.4011 H   0  0  0  0  0  0  0  0  0  0  0  0
   60.0636   26.6828   45.6543 H   0  0  0  0  0  0  0  0  0  0  0  0
   61.7429   28.5996   46.2634 H   0  0  0  0  0  0  0  0  0  0  0  0
   60.5998   28.7438   44.8292 H   0  0  0  0  0  0  0  0  0  0  0  0
   60.5824   31.7372   47.6766 H   0  0  0  0  0  0  0  0  0  0  0  0
   61.9128   30.3746   47.6209 H   0  0  0  0  0  0  0  0  0  0  0  0
   58.2934   30.2486   47.0827 H   0  0  0  0  0  0  0  0  0  0  0  0
   58.5571   32.5855   46.8438 H   0  0  0  0  0  0  0  0  0  0  0  0
   59.3061   32.4833   45.2567 H   0  0  0  0  0  0  0  0  0  0  0  0
   56.3704   32.3124   46.0252 H   0  0  0  0  0  0  0  0  0  0  0  0
   57.0540   32.9109   44.5154 H   0  0  0  0  0  0  0  0  0  0  0  0
   55.8086   29.4807   43.3750 H   0  0  0  0  0  0  0  0  0  0  0  0
   55.2270   31.2902   43.5066 H   0  0  0  0  0  0  0  0  0  0  0  0
   58.6230   29.2550   43.0850 H   0  0  0  0  0  0  0  0  0  0  0  0
  1  2  2  0
  2  3  1  0
  3  4  2  0
  3  5  1  0
  5  6  1  0
  6  7  1  0
  7  8  1  0
  8  9  1  0
  9 10  1  0
 10 11  2  0
 10 12  1  0
 12 13  1  0
 13 14  1  0
 14 15  1  0
 15 16  2  0
 15 17  1  0
 17 18  1  6
  7  2  1  0
 17 12  1  0
 17  6  1  0
  1 19  1  0
  1 20  1  0
  6 21  1  6
  7 22  1  1
  8 23  1  0
  8 24  1  0
  9 25  1  0
  9 26  1  0
 11 27  1  0
 11 28  1  0
 12 29  1  1
 13 30  1  0
 13 31  1  0
 14 32  1  0
 14 33  1  0
 16 34  1  0
 16 35  1  0
 18 36  1  0
M  END
>  <UniqueID>  (37) 
35

>  <SMILES>  (37) 
C=C1CC[C@@H]2C(=C)C(=O)O[C@H]2C2(O)C(=C)CCC12

>  <Energy>  (37) 
81.75753468452986

>  <Genealogy>  (37) 
C=C1CC[C@@H]2C(=C)C(=O)O[C@H]2C2(O)C(=C)CCC12 (chirality)
C=C1CC[C@@H]2C(=C)C(=O)O[C@H]2C2(O)C(=C)CCC12 (3D coordinates assigned)
C=C1CC[C@@H]2C(=C)C(=O)O[C@H]2C2(O)C(=C)CCC12 (nonaromatic ring conformer: 81.75753468452986 kcal/mol)

>  <smiles>  (37) 
C=C1C(=O)OC2C1CCC(=C)C1CCC(=C)C12O

>  <score_type>  (37) 
oracle

>  <origin>  (37) 
adg

>  <m_score__min__energy>  (37) 
-5.9800000000000004

>  <m_primary>  (37) 
energy

$$$$
37:0
     RDKit          3D

 56 60  0  0  0  0  0  0  0  0999 V2000
   53.7995   27.2663   54.2779 H   0  0  0  0  0  0  0  0  0  0  0  0
   53.3810   28.1670   53.8050 C   0  0  0  0  0  0  0  0  0  0  0  0
   52.2925   28.2691   53.6834 H   0  0  0  0  0  0  0  0  0  0  0  0
   54.1990   29.1420   53.3760 C   0  0  0  0  0  0  0  0  0  0  0  0
   53.8190   30.3430   52.7570 C   0  0  0  0  0  0  0  0  0  0  0  0
   52.6100   30.9230   52.6130 C   0  0  0  0  0  0  0  0  0  0  0  0
   52.1204   31.2949   53.5251 H   0  0  0  0  0  0  0  0  0  0  0  0
   51.8890   31.1020   51.3450 C   0  0  0  0  0  0  0  0  0  0  0  0
   51.9310   30.2170   50.3350 N   0  0  0  0  0  0  0  0  0  0  0  0
   51.2460   30.8360   49.3480 C   0  0  0  0  0  0  0  0  0  0  0  0
   51.0520   30.3060   48.2220 O   0  0  0  0  0  0  0  0  0  0  0  0
   50.7960   32.0710   49.6570 N   0  0  0  0  0  0  0  0  0  0  0  0
   51.2240   32.2310   50.9190 C   0  0  0  0  0  0  0  0  0  0  0  0
   51.0360   33.3950   51.6550 O   0  0  0  0  0  0  0  0  0  0  0  0
   54.9800   30.9040   52.2560 C   0  0  0  0  0  0  0  0  0  0  0  0
   55.0577   31.8325   51.6713 H   0  0  0  0  0  0  0  0  0  0  0  0
   56.0230   30.0790   52.6280 C   0  0  0  0  0  0  0  0  0  0  0  0
   57.4330   30.2980   52.2330 C   0  0  0  0  0  0  0  0  0  0  0  0
   58.2920   30.5950   53.1070 O   0  0  0  0  0  0  0  0  0  0  0  0
   57.8350   30.1420   50.8620 N   0  0  0  0  0  0  0  0  0  0  0  0
   57.0930   30.0290   50.1360 H   0  0  0  0  0  0  0  0  0  0  0  0
   59.2420   30.2320   50.4570 C   0  0  2  0  0  0  0  0  0  0  0  0
   59.7653   29.5279   51.1206 H   0  0  0  0  0  0  0  0  0  0  0  0
   59.7920   31.6490   50.5900 C   0  0  0  0  0  0  0  0  0  0  0  0
   60.2559   31.7860   51.5779 H   0  0  0  0  0  0  0  0  0  0  0  0
   58.9923   32.3982   50.4938 H   0  0  0  0  0  0  0  0  0  0  0  0
   60.7990   31.8040   49.5290 N   0  0  0  0  0  0  0  0  0  0  0  0
   61.0390   33.2280   49.1750 C   0  0  2  0  0  0  0  0  0  0  0  0
   60.8102   33.7869   50.0944 H   0  0  0  0  0  0  0  0  0  0  0  0
   60.2200   33.6420   47.9880 C   0  0  0  0  0  0  0  0  0  0  0  0
   58.8570   33.9740   47.9640 C   0  0  0  0  0  0  0  0  0  0  0  0
   58.2566   33.9360   48.8849 H   0  0  0  0  0  0  0  0  0  0  0  0
   58.2720   34.3550   46.7480 C   0  0  0  0  0  0  0  0  0  0  0  0
   57.2011   34.6031   46.7090 H   0  0  0  0  0  0  0  0  0  0  0  0
   59.0490   34.4210   45.5790 C   0  0  0  0  0  0  0  0  0  0  0  0
   58.5821   34.7061   44.6247 H   0  0  0  0  0  0  0  0  0  0  0  0
   60.4190   34.1240   45.6270 C   0  0  0  0  0  0  0  0  0  0  0  0
   61.0383   34.1867   44.7200 H   0  0  0  0  0  0  0  0  0  0  0  0
   60.9820   33.7470   46.8490 C   0  0  0  0  0  0  0  0  0  0  0  0
   62.4090   33.4700   47.1110 C   0  0  0  0  0  0  0  0  0  0  0  0
   63.0476   34.2651   46.6986 H   0  0  0  0  0  0  0  0  0  0  0  0
   62.7607   32.5377   46.6449 H   0  0  0  0  0  0  0  0  0  0  0  0
   62.4840   33.4430   48.6450 C   0  0  0  0  0  0  0  0  0  0  0  0
   62.8841   34.3969   49.0191 H   0  0  0  0  0  0  0  0  0  0  0  0
   63.1485   32.6364   48.9881 H   0  0  0  0  0  0  0  0  0  0  0  0
   60.2540   31.0270   48.4050 C   0  0  0  0  0  0  0  0  0  0  0  0
   61.0758   30.6232   47.7955 H   0  0  0  0  0  0  0  0  0  0  0  0
   59.6286   31.6650   47.7632 H   0  0  0  0  0  0  0  0  0  0  0  0
   59.4300   29.8850   48.9870 C   0  0  0  0  0  0  0  0  0  0  0  0
   59.9667   28.9306   48.8823 H   0  0  0  0  0  0  0  0  0  0  0  0
   58.4675   29.7683   48.4674 H   0  0  0  0  0  0  0  0  0  0  0  0
   55.5530   29.0240   53.3400 N   0  0  0  0  0  0  0  0  0  0  0  0
   56.3570   27.9310   53.9030 C   0  0  0  0  0  0  0  0  0  0  0  0
   56.3222   27.9784   55.0014 H   0  0  0  0  0  0  0  0  0  0  0  0
   55.9519   26.9659   53.5646 H   0  0  0  0  0  0  0  0  0  0  0  0
   57.3989   28.0303   53.5646 H   0  0  0  0  0  0  0  0  0  0  0  0
  1  2  1  0
  2  3  1  0
  2  4  2  0
  4  5  1  0
  5  6  2  0
  6  7  1  0
  6  8  1  0
  8  9  1  0
  9 10  1  0
 10 11  2  0
 10 12  1  0
 12 13  1  0
 13 14  1  0
  5 15  1  0
 15 16  1  0
 15 17  2  0
 17 18  1  0
 18 19  2  0
 18 20  1  0
 20 21  1  0
 20 22  1  0
 22 23  1  1
 22 24  1  0
 24 25  1  0
 24 26  1  0
 24 27  1  0
 27 28  1  0
 28 29  1  1
 28 30  1  0
 30 31  2  0
 31 32  1  0
 31 33  1  0
 33 34  1  0
 33 35  2  0
 35 36  1  0
 35 37  1  0
 37 38  1  0
 37 39  2  0
 39 40  1  0
 40 41  1  0
 40 42  1  0
 40 43  1  0
 43 44  1  0
 43 45  1  0
 27 46  1  0
 46 47  1  0
 46 48  1  0
 46 49  1  0
 49 50  1  0
 49 51  1  0
 17 52  1  0
 52 53  1  0
 53 54  1  0
 53 55  1  0
 53 56  1  0
 52  4  1  0
 13  8  2  0
 49 22  1  0
 43 28  1  0
 39 30  1  0
M  CHG  3   9  -1  12  -1  14  -1
M  END
>  <UniqueID>  (38) 
36

>  <SMILES>  (38) 
C=c1/c(=C\c2[n-]c(=O)[n-]c2[O-])cc(C(=O)N[C@H]2CCN([C@H]3CCc4ccccc43)C2)n1C

>  <Energy>  (38) 
147.3583004784247

>  <Genealogy>  (38) 
C=c1c(=Cc2[n-]c(=O)[n-]c2[O-])cc(C(=O)NC2CCN(C3CCc4ccccc43)C2)n1C (protonated)
C=c1c(=Cc2[n-]c(=O)[n-]c2[O-])cc(C(=O)N[C@H]2CCN([C@H]3CCc4ccccc43)C2)n1C (chirality)
C=c1/c(=C\c2[n-]c(=O)[n-]c2[O-])cc(C(=O)N[C@H]2CCN([C@H]3CCc4ccccc43)C2)n1C (cis-trans isomerization)
C=c1/c(=C\c2[n-]c(=O)[n-]c2[O-])cc(C(=O)N[C@H]2CCN([C@H]3CCc4ccccc43)C2)n1C (3D coordinates assigned)
C=c1/c(=C\c2[n-]c(=O)[n-]c2[O-])cc(C(=O)N[C@H]2CCN([C@H]3CCc4ccccc43)C2)n1C (nonaromatic ring conformer: 147.3583004784247 kcal/mol)

>  <smiles>  (38) 
C=c1c(=Cc2[nH]c(=O)[nH]c2O)cc(C(=O)NC2CCN(C3CCc4ccccc43)C2)n1C

>  <score_type>  (38) 
oracle

>  <origin>  (38) 
adg

>  <m_score__min__energy>  (38) 
-19.48

>  <m_primary>  (38) 
energy

$$$$
38:0
     RDKit          3D

 59 62  0  0  0  0  0  0  0  0999 V2000
   61.2937   28.5143   45.6815 H   0  0  0  0  0  0  0  0  0  0  0  0
   60.3090   28.0260   45.7250 C   0  0  0  0  0  0  0  0  0  0  0  0
   59.2280   28.6260   45.1630 N   0  0  0  0  0  0  0  0  0  0  0  0
   57.9830   28.0750   45.1840 C   0  0  0  0  0  0  0  0  0  0  0  0
   57.0240   28.7420   44.6030 N   0  0  0  0  0  0  0  0  0  0  0  0
   56.6690   30.1220   44.7480 C   0  0  0  0  0  0  0  0  0  0  0  0
   55.4890   30.5010   44.5130 O   0  0  0  0  0  0  0  0  0  0  0  0
   57.6840   31.0790   45.0670 N   0  0  0  0  0  0  0  0  0  0  0  0
   58.6650   30.7340   45.1780 H   0  0  0  0  0  0  0  0  0  0  0  0
   57.3660   32.4650   45.4200 C   0  0  0  0  0  0  0  0  0  0  0  0
   56.2801   32.6238   45.3453 H   0  0  0  0  0  0  0  0  0  0  0  0
   57.7920   32.7370   46.8800 C   0  0  0  0  0  0  0  0  0  0  0  0
   56.9558   32.4884   47.5501 H   0  0  0  0  0  0  0  0  0  0  0  0
   58.6700   32.1149   47.1085 H   0  0  0  0  0  0  0  0  0  0  0  0
   58.1740   34.2100   47.0810 C   0  0  0  0  0  0  0  0  0  0  0  0
   57.3078   34.8377   46.8245 H   0  0  0  0  0  0  0  0  0  0  0  0
   58.4685   34.3394   48.1329 H   0  0  0  0  0  0  0  0  0  0  0  0
   59.3270   34.6180   46.2340 N   0  0  0  0  0  0  0  0  0  0  0  0
   60.6020   34.5450   46.9840 C   0  0  0  0  0  0  0  0  0  0  0  0
   61.1033   35.5225   46.9280 H   0  0  0  0  0  0  0  0  0  0  0  0
   60.3688   34.2762   48.0248 H   0  0  0  0  0  0  0  0  0  0  0  0
   61.5510   33.4630   46.4120 C   0  0  1  0  0  0  0  0  0  0  0  0
   61.2452   33.3690   45.3596 H   0  0  0  0  0  0  0  0  0  0  0  0
   63.0210   33.8350   46.5820 C   0  0  0  0  0  0  0  0  0  0  0  0
   63.1190   34.9294   46.6345 H   0  0  0  0  0  0  0  0  0  0  0  0
   63.5974   33.4571   45.7247 H   0  0  0  0  0  0  0  0  0  0  0  0
   63.5140   33.2610   47.7710 O   0  0  0  0  0  0  0  0  0  0  0  0
   62.5760   32.3040   48.2110 C   0  0  0  0  0  0  0  0  0  0  0  0
   62.1555   32.6209   49.1768 H   0  0  0  0  0  0  0  0  0  0  0  0
   63.0751   31.3307   48.3277 H   0  0  0  0  0  0  0  0  0  0  0  0
   61.4600   32.1780   47.1920 C   0  0  0  0  0  0  0  0  0  0  0  0
   60.4825   32.0875   47.6883 H   0  0  0  0  0  0  0  0  0  0  0  0
   61.5566   31.2840   46.5585 H   0  0  0  0  0  0  0  0  0  0  0  0
   59.4100   33.8930   44.9380 C   0  0  0  0  0  0  0  0  0  0  0  0
   59.8631   34.5589   44.1888 H   0  0  0  0  0  0  0  0  0  0  0  0
   60.0197   32.9912   45.0961 H   0  0  0  0  0  0  0  0  0  0  0  0
   58.0340   33.4450   44.4310 C   0  0  0  0  0  0  0  0  0  0  0  0
   57.3903   34.3290   44.3120 H   0  0  0  0  0  0  0  0  0  0  0  0
   58.1683   32.9304   43.4681 H   0  0  0  0  0  0  0  0  0  0  0  0
   57.7890   26.8390   45.8640 C   0  0  0  0  0  0  0  0  0  0  0  0
   56.4990   26.2960   46.0040 O   0  0  0  0  0  0  0  0  0  0  0  0
   56.1900   24.9550   46.3850 C   0  0  0  0  0  0  0  0  0  0  0  0
   56.7966   24.6801   47.2605 H   0  0  0  0  0  0  0  0  0  0  0  0
   55.1186   24.8956   46.6271 H   0  0  0  0  0  0  0  0  0  0  0  0
   56.4840   23.9980   45.2610 C   0  0  0  0  0  0  0  0  0  0  0  0
   57.6020   23.1480   45.3200 C   0  0  0  0  0  0  0  0  0  0  0  0
   58.2695   23.1785   46.1938 H   0  0  0  0  0  0  0  0  0  0  0  0
   57.8670   22.2640   44.2700 C   0  0  0  0  0  0  0  0  0  0  0  0
   58.7397   21.5963   44.3215 H   0  0  0  0  0  0  0  0  0  0  0  0
   57.0260   22.2270   43.1560 C   0  0  0  0  0  0  0  0  0  0  0  0
   57.2334   21.5259   42.3342 H   0  0  0  0  0  0  0  0  0  0  0  0
   55.9220   23.0790   43.0840 C   0  0  0  0  0  0  0  0  0  0  0  0
   55.2638   23.0529   42.2030 H   0  0  0  0  0  0  0  0  0  0  0  0
   55.6530   23.9650   44.1310 C   0  0  0  0  0  0  0  0  0  0  0  0
   54.7861   24.6393   44.0688 H   0  0  0  0  0  0  0  0  0  0  0  0
   58.9130   26.2010   46.4250 C   0  0  0  0  0  0  0  0  0  0  0  0
   58.7962   25.2266   46.9219 H   0  0  0  0  0  0  0  0  0  0  0  0
   60.1710   26.7950   46.3550 C   0  0  0  0  0  0  0  0  0  0  0  0
   61.0467   26.2946   46.7941 H   0  0  0  0  0  0  0  0  0  0  0  0
  1  2  1  0
  2  3  1  0
  3  4  1  0
  4  5  2  0
  5  6  1  0
  6  7  2  0
  6  8  1  0
  8  9  1  0
  8 10  1  0
 10 11  1  0
 10 12  1  0
 12 13  1  0
 12 14  1  0
 12 15  1  0
 15 16  1  0
 15 17  1  0
 15 18  1  0
 18 19  1  0
 19 20  1  0
 19 21  1  0
 19 22  1  0
 22 23  1  6
 22 24  1  0
 24 25  1  0
 24 26  1  0
 24 27  1  0
 27 28  1  0
 28 29  1  0
 28 30  1  0
 28 31  1  0
 31 32  1  0
 31 33  1  0
 18 34  1  0
 34 35  1  0
 34 36  1  0
 34 37  1  0
 37 38  1  0
 37 39  1  0
  4 40  1  0
 40 41  1  0
 41 42  1  0
 42 43  1  0
 42 44  1  0
 42 45  1  0
 45 46  2  0
 46 47  1  0
 46 48  1  0
 48 49  1  0
 48 50  2  0
 50 51  1  0
 50 52  1  0
 52 53  1  0
 52 54  2  0
 54 55  1  0
 40 56  2  0
 56 57  1  0
 56 58  1  0
 58 59  1  0
 58  2  2  0
 37 10  1  0
 54 45  1  0
 31 22  1  0
M  CHG  1   3  -1
M  END
>  <UniqueID>  (39) 
37

>  <SMILES>  (39) 
O=C(/N=c1/[n-]cccc1OCc1ccccc1)NC1CCN(C[C@@H]2CCOC2)CC1

>  <Energy>  (39) 
79.20877675289117

>  <Genealogy>  (39) 
O=C(N=c1[n-]cccc1OCc1ccccc1)NC1CCN(CC2CCOC2)CC1 (protonated)
O=C(N=c1[n-]cccc1OCc1ccccc1)NC1CCN(C[C@@H]2CCOC2)CC1 (chirality)
O=C(/N=c1/[n-]cccc1OCc1ccccc1)NC1CCN(C[C@@H]2CCOC2)CC1 (cis-trans isomerization)
O=C(/N=c1/[n-]cccc1OCc1ccccc1)NC1CCN(C[C@@H]2CCOC2)CC1 (3D coordinates assigned)
O=C(/N=c1/[n-]cccc1OCc1ccccc1)NC1CCN(C[C@@H]2CCOC2)CC1 (nonaromatic ring conformer: 79.20877675289117 kcal/mol)

>  <smiles>  (39) 
O=C(N=c1[nH]cccc1OCc1ccccc1)NC1CCN(CC2CCOC2)CC1

>  <score_type>  (39) 
oracle

>  <origin>  (39) 
adg

>  <m_score__min__energy>  (39) 
-10.029999999999999

>  <m_primary>  (39) 
energy

$$$$
39:0
     RDKit          3D

 58 61  0  0  1  0  0  0  0  0999 V2000
   55.7740   30.7720   52.5870 C   0  0  0  0  0  0  0  0  0  0  0  0
   57.1040   30.8860   51.9630 C   0  0  0  0  0  0  0  0  0  0  0  0
   57.7870   32.0800   52.0800 C   0  0  0  0  0  0  0  0  0  0  0  0
   58.8000   29.9430   50.7470 C   0  0  0  0  0  0  0  0  0  0  0  0
   59.2890   28.9400   50.1150 N   0  0  0  0  0  0  0  0  0  0  0  0
   59.6160   34.2200   50.5050 C   0  0  0  0  0  0  0  0  0  0  0  0
   60.1300   33.7760   49.1740 C   0  0  0  0  0  0  0  0  0  0  0  0
   61.5040   33.7310   49.0310 C   0  0  0  0  0  0  0  0  0  0  0  0
   62.0580   33.3300   47.8310 C   0  0  0  0  0  0  0  0  0  0  0  0
   61.1920   32.9830   46.8000 C   0  0  0  0  0  0  0  0  0  0  0  0
   59.8170   33.0350   46.9620 C   0  0  0  0  0  0  0  0  0  0  0  0
   59.0000   32.6500   45.8150 C   0  0  0  0  0  0  0  0  0  0  0  0
   58.8190   33.4750   44.7220 C   0  0  0  0  0  0  0  0  0  0  0  0
   58.0450   33.0930   43.6530 C   0  0  0  0  0  0  0  0  0  0  0  0
   57.4170   31.8580   43.6370 C   0  0  0  0  0  0  0  0  0  0  0  0
   57.5950   31.0200   44.7360 C   0  0  0  0  0  0  0  0  0  0  0  0
   56.8000   29.4520   44.7190 S   0  0  0  0  0  0  0  0  0  0  0  0
   57.4270   28.5000   43.4310 N   0  0  0  0  0  0  0  0  0  0  0  0
   55.3310   29.6710   44.5520 O   0  0  0  0  0  0  0  0  0  0  0  0
   57.0510   28.7040   45.9980 O   0  0  0  0  0  0  0  0  0  0  0  0
   58.3780   31.4300   45.7960 C   0  0  0  0  0  0  0  0  0  0  0  0
   59.2590   33.4340   48.1590 C   0  0  0  0  0  0  0  0  0  0  0  0
   59.5300   31.0740   50.8170 N   0  0  0  0  0  0  0  0  0  0  0  0
   59.0410   32.1600   51.4810 C   0  0  0  0  0  0  0  0  0  0  0  0
   59.7800   33.1920   51.5070 N   0  0  0  0  0  0  0  0  0  0  0  0
   60.5390   28.9130   49.3940 C   0  0  0  0  0  0  0  0  0  0  0  0
   60.3800   28.6330   47.9450 C   0  0  0  0  0  0  0  0  0  0  0  0
   59.8240   27.4160   47.5390 C   0  0  0  0  0  0  0  0  0  0  0  0
   59.6620   27.1200   46.2020 C   0  0  0  0  0  0  0  0  0  0  0  0
   60.0430   28.0090   45.2060 C   0  0  0  0  0  0  0  0  0  0  0  0
   60.5920   29.2090   45.6040 C   0  0  0  0  0  0  0  0  0  0  0  0
   60.7510   29.5010   46.9460 C   0  0  0  0  0  0  0  0  0  0  0  0
   57.5890   29.8180   51.3070 N   0  0  0  0  0  0  0  0  0  0  0  0
   55.8806   30.7811   53.6818 H   0  0  0  0  0  0  0  0  0  0  0  0
   55.1476   31.6197   52.2725 H   0  0  0  0  0  0  0  0  0  0  0  0
   55.3010   29.8300   52.2725 H   0  0  0  0  0  0  0  0  0  0  0  0
   57.3576   32.9338   52.6246 H   0  0  0  0  0  0  0  0  0  0  0  0
   58.5468   34.4614   50.4126 H   0  0  0  0  0  0  0  0  0  0  0  0
   60.1917   35.1029   50.8197 H   0  0  0  0  0  0  0  0  0  0  0  0
   62.1551   34.0140   49.8713 H   0  0  0  0  0  0  0  0  0  0  0  0
   63.1487   33.2866   47.6954 H   0  0  0  0  0  0  0  0  0  0  0  0
   61.6078   32.6600   45.8342 H   0  0  0  0  0  0  0  0  0  0  0  0
   59.3061   34.4612   44.7071 H   0  0  0  0  0  0  0  0  0  0  0  0
   57.9224   33.7759   42.7994 H   0  0  0  0  0  0  0  0  0  0  0  0
   56.7969   31.5485   42.7828 H   0  0  0  0  0  0  0  0  0  0  0  0
   57.7560   29.1500   42.6830 H   0  0  0  0  0  0  0  0  0  0  0  0
   56.6230   27.9570   43.0270 H   0  0  0  0  0  0  0  0  0  0  0  0
   58.5068   30.7542   46.6544 H   0  0  0  0  0  0  0  0  0  0  0  0
   58.1687   33.4777   48.2984 H   0  0  0  0  0  0  0  0  0  0  0  0
   60.4580   31.1170   50.3670 H   0  0  0  0  0  0  0  0  0  0  0  0
   61.0281   29.8917   49.5080 H   0  0  0  0  0  0  0  0  0  0  0  0
   61.1398   28.0949   49.8179 H   0  0  0  0  0  0  0  0  0  0  0  0
   59.5111   26.6836   48.2977 H   0  0  0  0  0  0  0  0  0  0  0  0
   59.2193   26.1542   45.9171 H   0  0  0  0  0  0  0  0  0  0  0  0
   59.9119   27.7653   44.1414 H   0  0  0  0  0  0  0  0  0  0  0  0
   60.9068   29.9417   44.8463 H   0  0  0  0  0  0  0  0  0  0  0  0
   61.1930   30.4686   47.2259 H   0  0  0  0  0  0  0  0  0  0  0  0
   57.0250   28.9530   51.2570 H   0  0  0  0  0  0  0  0  0  0  0  0
  1  2  1  0
  2  3  2  0
  3  4  1  0
  4  5  2  0
  5  6  1  0
  6  7  1  0
  7  8  2  0
  8  9  1  0
  9 10  2  0
 10 11  1  0
 11 12  1  0
 12 13  2  0
 13 14  1  0
 14 15  2  0
 15 16  1  0
 16 17  1  0
 17 18  1  0
 17 19  2  0
 17 20  2  0
 16 21  2  0
 11 22  2  0
  4 23  1  0
 23 24  1  0
 24 25  2  0
 25 26  1  0
 26 27  1  0
 27 28  2  0
 28 29  1  0
 29 30  2  0
 30 31  1  0
 31 32  2  0
 24 33  1  0
 33  2  1  0
 22  7  1  0
 32 27  1  0
 21 12  1  0
  1 34  1  0
  1 35  1  0
  1 36  1  0
  3 37  1  0
  6 38  1  0
  6 39  1  0
  8 40  1  0
  9 41  1  0
 10 42  1  0
 13 43  1  0
 14 44  1  0
 15 45  1  0
 18 46  1  0
 18 47  1  0
 21 48  1  0
 22 49  1  0
 23 50  1  0
 26 51  1  0
 26 52  1  0
 28 53  1  0
 29 54  1  0
 30 55  1  0
 31 56  1  0
 32 57  1  0
 33 58  1  0
M  END
>  <smiles>  (40) 
Cc1cc(=NCc2cccc(-c3cccc(S(N)(=O)=O)c3)c2)[nH]c(=NCc2ccccc2)[nH]1

>  <score_type>  (40) 
oracle

>  <origin>  (40) 
adg

>  <m_score__min__energy>  (40) 
-11.34

>  <m_primary>  (40) 
energy

$$$$
40:0
     RDKit          3D

 55 58  0  0  0  0  0  0  0  0999 V2000
   58.3540   21.5710   43.7930 C   0  0  0  0  0  0  0  0  0  0  0  0
   59.0350   22.1880   45.3160 S   0  0  0  0  0  0  0  0  0  0  0  0
   59.1190   23.6840   45.2400 O   0  0  0  0  0  0  0  0  0  0  0  0
   60.4180   21.6390   45.5420 O   0  0  0  0  0  0  0  0  0  0  0  0
   58.0010   21.7510   46.6400 N   0  0  0  0  0  0  0  0  0  0  0  0
   56.6580   22.2150   46.8370 C   0  0  0  0  0  0  0  0  0  0  0  0
   55.7770   21.5990   47.7440 C   0  0  0  0  0  0  0  0  0  0  0  0
   54.4750   22.0780   47.8980 C   0  0  0  0  0  0  0  0  0  0  0  0
   54.0340   23.1680   47.1460 C   0  0  0  0  0  0  0  0  0  0  0  0
   54.9000   23.7930   46.2350 C   0  0  0  0  0  0  0  0  0  0  0  0
   54.3910   24.9230   45.3810 C   0  0  0  0  0  0  0  0  0  0  0  0
   54.7440   26.2050   45.9910 N   0  0  0  0  0  0  0  0  0  0  0  0
   55.9190   26.7580   45.9310 C   0  0  0  0  0  0  0  0  0  0  0  0
   56.0490   27.9820   45.3530 N   0  0  0  0  0  0  0  0  0  0  0  0
   57.2570   28.6000   45.2680 C   0  0  0  0  0  0  0  0  0  0  0  0
   57.3660   29.8940   44.5710 C   0  0  0  0  0  0  0  0  0  0  0  0
   56.9610   29.9660   43.2310 C   0  0  0  0  0  0  0  0  0  0  0  0
   57.0780   31.1570   42.5190 C   0  0  0  0  0  0  0  0  0  0  0  0
   57.5910   32.2930   43.1400 C   0  0  0  0  0  0  0  0  0  0  0  0
   57.9890   32.2570   44.4860 C   0  0  0  0  0  0  0  0  0  0  0  0
   58.4610   33.5440   45.1230 C   0  0  0  0  0  0  0  0  0  0  0  0
   59.7820   33.3620   45.7260 N   0  0  0  0  0  0  0  0  0  0  0  0
   60.2600   34.2370   46.7550 C   0  0  0  0  0  0  0  0  0  0  0  0
   59.6270   35.2980   47.0140 O   0  0  0  0  0  0  0  0  0  0  0  0
   61.4780   33.9240   47.5230 C   0  0  0  0  0  0  0  0  0  0  0  0
   61.6260   33.9160   48.9080 C   0  0  0  0  0  0  0  0  0  0  0  0
   62.9180   33.5760   49.3270 C   0  0  0  0  0  0  0  0  0  0  0  0
   63.7940   33.3190   48.2830 C   0  0  0  0  0  0  0  0  0  0  0  0
   62.9580   33.5140   46.8380 S   0  0  0  0  0  0  0  0  0  0  0  0
   57.8640   31.0500   45.2160 C   0  0  0  0  0  0  0  0  0  0  0  0
   58.2560   30.9910   46.9380 Cl  0  0  0  0  0  0  0  0  0  0  0  0
   58.3930   27.9640   45.7840 C   0  0  0  0  0  0  0  0  0  0  0  0
   58.2450   26.7090   46.3720 C   0  0  0  0  0  0  0  0  0  0  0  0
   59.2440   26.1120   46.8510 O   0  0  0  0  0  0  0  0  0  0  0  0
   57.0180   26.1280   46.4300 N   0  0  0  0  0  0  0  0  0  0  0  0
   56.2120   23.3140   46.0890 C   0  0  0  0  0  0  0  0  0  0  0  0
   57.5556   20.8476   44.0148 H   0  0  0  0  0  0  0  0  0  0  0  0
   57.9396   22.4075   43.2112 H   0  0  0  0  0  0  0  0  0  0  0  0
   59.1457   21.0763   43.2112 H   0  0  0  0  0  0  0  0  0  0  0  0
   56.1158   20.7353   48.3350 H   0  0  0  0  0  0  0  0  0  0  0  0
   53.7943   21.5949   48.6144 H   0  0  0  0  0  0  0  0  0  0  0  0
   53.0053   23.5382   47.2675 H   0  0  0  0  0  0  0  0  0  0  0  0
   54.8445   24.8575   44.3810 H   0  0  0  0  0  0  0  0  0  0  0  0
   53.2966   24.8501   45.2979 H   0  0  0  0  0  0  0  0  0  0  0  0
   56.5472   29.0741   42.7377 H   0  0  0  0  0  0  0  0  0  0  0  0
   56.7650   31.2005   41.4654 H   0  0  0  0  0  0  0  0  0  0  0  0
   57.6855   33.2289   42.5697 H   0  0  0  0  0  0  0  0  0  0  0  0
   58.5188   34.3287   44.3543 H   0  0  0  0  0  0  0  0  0  0  0  0
   57.7480   33.8351   45.9084 H   0  0  0  0  0  0  0  0  0  0  0  0
   60.3770   32.5650   45.4150 H   0  0  0  0  0  0  0  0  0  0  0  0
   60.8081   34.1535   49.6042 H   0  0  0  0  0  0  0  0  0  0  0  0
   63.2110   33.5181   50.3857 H   0  0  0  0  0  0  0  0  0  0  0  0
   64.8524   33.0365   48.3833 H   0  0  0  0  0  0  0  0  0  0  0  0
   59.3808   28.4445   45.7265 H   0  0  0  0  0  0  0  0  0  0  0  0
   56.8960   23.8054   45.3814 H   0  0  0  0  0  0  0  0  0  0  0  0
  1  2  1  0
  2  3  2  0
  2  4  2  0
  2  5  1  0
  5  6  1  0
  6  7  2  0
  7  8  1  0
  8  9  2  0
  9 10  1  0
 10 11  1  0
 11 12  1  0
 12 13  2  3
 13 14  1  0
 14 15  1  0
 15 16  1  0
 16 17  2  0
 17 18  1  0
 18 19  2  0
 19 20  1  0
 20 21  1  0
 21 22  1  0
 22 23  1  0
 23 24  2  0
 23 25  1  0
 25 26  2  0
 26 27  1  0
 27 28  2  0
 28 29  1  0
 20 30  2  0
 30 31  1  0
 15 32  2  0
 32 33  1  0
 33 34  2  0
 33 35  1  0
 10 36  2  0
 36  6  1  0
 35 13  1  0
 30 16  1  0
 29 25  1  0
  1 37  1  0
  1 38  1  0
  1 39  1  0
  7 40  1  0
  8 41  1  0
  9 42  1  0
 11 43  1  0
 11 44  1  0
 17 45  1  0
 18 46  1  0
 19 47  1  0
 21 48  1  0
 21 49  1  0
 22 50  1  0
 26 51  1  0
 27 52  1  0
 28 53  1  0
 32 54  1  0
 36 55  1  0
M  CHG  3   5  -1  14  -1  35  -1
M  END
>  <UniqueID>  (41) 
38

>  <SMILES>  (41) 
CS(=O)(=O)[N-]c1cccc(CN=c2[n-]c(-c3cccc(CNC(=O)c4cccs4)c3Cl)cc(=O)[n-]2)c1

>  <Energy>  (41) 
92.45960622542702

>  <Genealogy>  (41) 
CS(=O)(=O)[N-]c1cccc(CN=c2[n-]c(-c3cccc(CNC(=O)c4cccs4)c3Cl)cc(=O)[n-]2)c1 (protonated)
CS(=O)(=O)[N-]c1cccc(CN=c2[n-]c(-c3cccc(CNC(=O)c4cccs4)c3Cl)cc(=O)[n-]2)c1 (3D coordinates assigned)
CS(=O)(=O)[N-]c1cccc(CN=c2[n-]c(-c3cccc(CNC(=O)c4cccs4)c3Cl)cc(=O)[n-]2)c1 (optimized conformer: 92.45960622542702 kcal/mol)

>  <smiles>  (41) 
CS(=O)(=O)Nc1cccc(CN=c2[nH]c(-c3cccc(CNC(=O)c4cccs4)c3Cl)cc(=O)[nH]2)c1

>  <score_type>  (41) 
oracle

>  <origin>  (41) 
adg

>  <m_score__min__energy>  (41) 
-15.75

>  <m_primary>  (41) 
energy

$$$$
41:0
     RDKit          3D

 45 48  0  0  0  0  0  0  0  0999 V2000
   57.9590   26.6100   43.5860 C   0  0  0  0  0  0  0  0  0  0  0  0
   57.7870   27.8040   44.1840 C   0  0  0  0  0  0  0  0  0  0  0  0
   57.4710   28.8730   43.3870 N   0  0  0  0  0  0  0  0  0  0  0  0
   57.5000   30.1530   43.8410 C   0  0  0  0  0  0  0  0  0  0  0  0
   57.8640   30.4290   45.1580 C   0  0  0  0  0  0  0  0  0  0  0  0
   57.9440   31.8310   45.6330 C   0  0  0  0  0  0  0  0  0  0  0  0
   56.9030   32.5440   45.5980 O   0  0  0  0  0  0  0  0  0  0  0  0
   59.1750   32.3990   46.1220 N   0  0  0  0  0  0  0  0  0  0  0  0
   59.4400   33.8250   45.9020 C   0  0  0  0  0  0  0  0  0  0  0  0
   60.8380   34.1990   46.3950 C   0  0  0  0  0  0  0  0  0  0  0  0
   61.0120   33.7700   47.7940 N   0  0  0  0  0  0  0  0  0  0  0  0
   62.3580   34.1410   48.2540 C   0  0  0  0  0  0  0  0  0  0  0  0
   63.4550   33.8240   47.2490 C   0  0  0  0  0  0  0  0  0  0  0  0
   63.2720   32.9460   48.4760 C   0  0  0  0  0  0  0  0  0  0  0  0
   60.7600   32.3210   48.0220 C   0  0  0  0  0  0  0  0  0  0  0  0
   60.1790   31.5750   46.8070 C   0  0  0  0  0  0  0  0  0  0  0  0
   58.1670   29.3620   46.0080 C   0  0  0  0  0  0  0  0  0  0  0  0
   58.0440   28.0270   45.5760 C   0  0  0  0  0  0  0  0  0  0  0  0
   58.1630   27.0610   46.5230 C   0  0  0  0  0  0  0  0  0  0  0  0
   57.3470   25.8380   46.6310 C   0  0  0  0  0  0  0  0  0  0  0  0
   57.8140   24.6770   47.1240 N   0  0  0  0  0  0  0  0  0  0  0  0
   56.7210   23.8840   47.1450 C   0  0  0  0  0  0  0  0  0  0  0  0
   56.7590   22.6900   47.5400 O   0  0  0  0  0  0  0  0  0  0  0  0
   55.5820   24.4750   46.7230 N   0  0  0  0  0  0  0  0  0  0  0  0
   55.9920   25.7140   46.4140 C   0  0  0  0  0  0  0  0  0  0  0  0
   55.1370   26.7200   45.9770 O   0  0  0  0  0  0  0  0  0  0  0  0
   58.2135   25.7251   44.1878 H   0  0  0  0  0  0  0  0  0  0  0  0
   57.8450   26.5194   42.4957 H   0  0  0  0  0  0  0  0  0  0  0  0
   57.2450   28.7300   42.3760 H   0  0  0  0  0  0  0  0  0  0  0  0
   57.2341   30.9782   43.1640 H   0  0  0  0  0  0  0  0  0  0  0  0
   59.3662   34.0439   44.8265 H   0  0  0  0  0  0  0  0  0  0  0  0
   58.6988   34.4125   46.4637 H   0  0  0  0  0  0  0  0  0  0  0  0
   61.5910   33.7022   45.7656 H   0  0  0  0  0  0  0  0  0  0  0  0
   60.9616   35.2904   46.3346 H   0  0  0  0  0  0  0  0  0  0  0  0
   62.0696   35.0254   48.8411 H   0  0  0  0  0  0  0  0  0  0  0  0
   63.1934   33.4382   46.2527 H   0  0  0  0  0  0  0  0  0  0  0  0
   64.2947   34.3841   46.8116 H   0  0  0  0  0  0  0  0  0  0  0  0
   62.8780   31.9247   48.3676 H   0  0  0  0  0  0  0  0  0  0  0  0
   63.9245   32.6075   49.2943 H   0  0  0  0  0  0  0  0  0  0  0  0
   61.7138   31.8450   48.2935 H   0  0  0  0  0  0  0  0  0  0  0  0
   60.0047   32.2565   48.8191 H   0  0  0  0  0  0  0  0  0  0  0  0
   60.9926   31.3398   46.1051 H   0  0  0  0  0  0  0  0  0  0  0  0
   59.6973   30.6503   47.1576 H   0  0  0  0  0  0  0  0  0  0  0  0
   58.5078   29.5685   47.0333 H   0  0  0  0  0  0  0  0  0  0  0  0
   58.9444   27.2051   47.2836 H   0  0  0  0  0  0  0  0  0  0  0  0
  1  2  2  0
  2  3  1  0
  3  4  2  0
  4  5  1  0
  5  6  1  0
  6  7  2  0
  6  8  1  0
  8  9  1  0
  9 10  1  0
 10 11  1  0
 11 12  1  0
 12 13  1  0
 13 14  1  0
 11 15  1  0
 15 16  1  0
  5 17  2  0
 17 18  1  0
 18 19  2  3
 19 20  1  0
 20 21  1  0
 21 22  1  0
 22 23  2  0
 22 24  1  0
 24 25  1  0
 25 26  1  0
 18  2  1  0
 25 20  2  0
 16  8  1  0
 14 12  1  0
  1 27  1  0
  1 28  1  0
  3 29  1  0
  4 30  1  0
  9 31  1  0
  9 32  1  0
 10 33  1  0
 10 34  1  0
 12 35  1  0
 13 36  1  0
 13 37  1  0
 14 38  1  0
 14 39  1  0
 15 40  1  0
 15 41  1  0
 16 42  1  0
 16 43  1  0
 17 44  1  0
 19 45  1  0
M  CHG  4   3   1  21  -1  24  -1  26  -1
M  END
>  <UniqueID>  (42) 
39

>  <SMILES>  (42) 
C=c1[nH+]cc(C(=O)N2CCN(C3CC3)CC2)cc1=Cc1[n-]c(=O)[n-]c1[O-]

>  <Energy>  (42) 
372.0216716061755

>  <Genealogy>  (42) 
C=c1[nH+]cc(C(=O)N2CCN(C3CC3)CC2)cc1=Cc1[n-]c(=O)[n-]c1[O-] (protonated)
C=c1[nH+]cc(C(=O)N2CCN(C3CC3)CC2)cc1=Cc1[n-]c(=O)[n-]c1[O-] (3D coordinates assigned)
C=c1[nH+]cc(C(=O)N2CCN(C3CC3)CC2)cc1=Cc1[n-]c(=O)[n-]c1[O-] (nonaromatic ring conformer: 372.0216716061755 kcal/mol)

>  <smiles>  (42) 
C=c1ncc(C(=O)N2CCN(C3CC3)CC2)cc1=Cc1[nH]c(=O)[nH]c1O

>  <score_type>  (42) 
oracle

>  <origin>  (42) 
adg

>  <m_score__min__energy>  (42) 
-15.710000000000001

>  <m_primary>  (42) 
energy

$$$$
42:0
     RDKit          3D

 54 58  0  0  0  0  0  0  0  0999 V2000
   58.2780   27.1700   43.4350 C   0  0  0  0  0  0  0  0  0  0  0  0
   57.7390   28.4480   43.3830 C   0  0  0  0  0  0  0  0  0  0  0  0
   56.8700   28.9360   44.3190 C   0  0  0  0  0  0  0  0  0  0  0  0
   56.2830   30.3300   44.2400 C   0  0  0  0  0  0  0  0  0  0  0  0
   57.0160   31.2130   44.8530 O   0  0  0  0  0  0  0  0  0  0  0  0
   57.7300   32.0740   45.4500 C   0  0  0  0  0  0  0  0  0  0  0  0
   57.8980   33.3860   44.9680 C   0  0  0  0  0  0  0  0  0  0  0  0
   58.6720   34.2630   45.6460 N   0  0  0  0  0  0  0  0  0  0  0  0
   59.2960   33.9040   46.7900 C   0  0  0  0  0  0  0  0  0  0  0  0
   60.0380   34.6960   47.4580 N   0  0  0  0  0  0  0  0  0  0  0  0
   61.1450   34.3390   48.2480 C   0  0  0  0  0  0  0  0  0  0  0  0
   61.1480   34.2480   49.6170 C   0  0  0  0  0  0  0  0  0  0  0  0
   62.3010   33.8890   50.3340 C   0  0  0  0  0  0  0  0  0  0  0  0
   63.4650   33.6210   49.6030 C   0  0  0  0  0  0  0  0  0  0  0  0
   64.6510   33.2650   50.2930 N   0  0  0  0  0  0  0  0  0  0  0  0
   65.4620   32.2000   49.7450 C   0  0  0  0  0  0  0  0  0  0  0  0
   66.6800   31.8850   50.5520 C   0  0  0  0  0  0  0  0  0  0  0  0
   66.3340   32.0090   51.9680 N   0  0  0  0  0  0  0  0  0  0  0  0
   66.1590   33.4110   52.2250 C   0  0  0  0  0  0  0  0  0  0  0  0
   64.9730   33.9910   51.4990 C   0  0  0  0  0  0  0  0  0  0  0  0
   63.4290   33.7210   48.2140 C   0  0  0  0  0  0  0  0  0  0  0  0
   62.3020   34.0690   47.5820 N   0  0  0  0  0  0  0  0  0  0  0  0
   59.1620   32.6490   47.2910 N   0  0  0  0  0  0  0  0  0  0  0  0
   58.4070   31.7580   46.6490 C   0  0  0  0  0  0  0  0  0  0  0  0
   56.5240   28.1120   45.3510 N   0  0  0  0  0  0  0  0  0  0  0  0
   57.0270   26.8690   45.4350 C   0  0  0  0  0  0  0  0  0  0  0  0
   56.6720   25.9730   46.5920 C   0  0  0  0  0  0  0  0  0  0  0  0
   57.7760   25.1320   47.1680 C   0  0  0  0  0  0  0  0  0  0  0  0
   56.6830   24.4730   46.3500 C   0  0  0  0  0  0  0  0  0  0  0  0
   57.9160   26.3550   44.4870 C   0  0  0  0  0  0  0  0  0  0  0  0
   58.9739   26.8174   42.6595 H   0  0  0  0  0  0  0  0  0  0  0  0
   58.0256   29.1016   42.5460 H   0  0  0  0  0  0  0  0  0  0  0  0
   56.1957   30.6169   43.1817 H   0  0  0  0  0  0  0  0  0  0  0  0
   55.3007   30.3084   44.7346 H   0  0  0  0  0  0  0  0  0  0  0  0
   57.3990   33.6980   44.0387 H   0  0  0  0  0  0  0  0  0  0  0  0
   60.2208   34.4624   50.1687 H   0  0  0  0  0  0  0  0  0  0  0  0
   62.2901   33.8207   51.4318 H   0  0  0  0  0  0  0  0  0  0  0  0
   64.8442   31.2920   49.6829 H   0  0  0  0  0  0  0  0  0  0  0  0
   65.8131   32.5425   48.7604 H   0  0  0  0  0  0  0  0  0  0  0  0
   67.0131   30.8586   50.3384 H   0  0  0  0  0  0  0  0  0  0  0  0
   67.4947   32.5789   50.2975 H   0  0  0  0  0  0  0  0  0  0  0  0
   65.4040   31.5280   52.0790 H   0  0  0  0  0  0  0  0  0  0  0  0
   66.0152   33.5555   53.3059 H   0  0  0  0  0  0  0  0  0  0  0  0
   67.0579   33.9304   51.8615 H   0  0  0  0  0  0  0  0  0  0  0  0
   64.1016   33.9640   52.1698 H   0  0  0  0  0  0  0  0  0  0  0  0
   65.2303   35.0206   51.2095 H   0  0  0  0  0  0  0  0  0  0  0  0
   64.3374   33.5115   47.6301 H   0  0  0  0  0  0  0  0  0  0  0  0
   58.3079   30.7448   47.0657 H   0  0  0  0  0  0  0  0  0  0  0  0
   55.9399   26.6857   46.9995 H   0  0  0  0  0  0  0  0  0  0  0  0
   58.7948   25.2100   46.7607 H   0  0  0  0  0  0  0  0  0  0  0  0
   58.1888   24.9793   48.1761 H   0  0  0  0  0  0  0  0  0  0  0  0
   56.9060   24.0773   45.3482 H   0  0  0  0  0  0  0  0  0  0  0  0
   55.9725   23.6495   46.5143 H   0  0  0  0  0  0  0  0  0  0  0  0
   58.3141   25.3335   44.5770 H   0  0  0  0  0  0  0  0  0  0  0  0
  1  2  2  0
  2  3  1  0
  3  4  1  0
  4  5  1  0
  5  6  1  0
  6  7  1  0
  7  8  2  0
  8  9  1  0
  9 10  2  3
 10 11  1  0
 11 12  2  0
 12 13  1  0
 13 14  2  0
 14 15  1  0
 15 16  1  0
 16 17  1  0
 17 18  1  0
 18 19  1  0
 19 20  1  0
 14 21  1  0
 21 22  2  0
  9 23  1  0
 23 24  1  0
  3 25  2  0
 25 26  1  0
 26 27  1  0
 27 28  1  0
 28 29  1  0
 26 30  2  0
 30  1  1  0
 24  6  2  0
 29 27  1  0
 22 11  1  0
 20 15  1  0
  1 31  1  0
  2 32  1  0
  4 33  1  0
  4 34  1  0
  7 35  1  0
 12 36  1  0
 13 37  1  0
 16 38  1  0
 16 39  1  0
 17 40  1  0
 17 41  1  0
 18 42  1  0
 19 43  1  0
 19 44  1  0
 20 45  1  0
 20 46  1  0
 21 47  1  0
 24 48  1  0
 27 49  1  0
 28 50  1  0
 28 51  1  0
 29 52  1  0
 29 53  1  0
 30 54  1  0
M  CHG  1  23  -1
M  END
>  <UniqueID>  (43) 
40

>  <SMILES>  (43) 
c1cc(COc2cnc(=Nc3ccc(N4CCNCC4)cn3)[n-]c2)nc(C2CC2)c1

>  <Energy>  (43) 
450.9395094204228

>  <Genealogy>  (43) 
c1cc(COc2cnc(=Nc3ccc(N4CCNCC4)cn3)[n-]c2)nc(C2CC2)c1 (protonated)
c1cc(COc2cnc(=Nc3ccc(N4CCNCC4)cn3)[n-]c2)nc(C2CC2)c1 (3D coordinates assigned)
c1cc(COc2cnc(=Nc3ccc(N4CCNCC4)cn3)[n-]c2)nc(C2CC2)c1 (nonaromatic ring conformer: 450.9395094204228 kcal/mol)

>  <smiles>  (43) 
c1cc(COc2cnc(=Nc3ccc(N4CCNCC4)cn3)[nH]c2)nc(C2CC2)c1

>  <score_type>  (43) 
oracle

>  <origin>  (43) 
adg

>  <m_score__min__energy>  (43) 
-8.5299999999999994

>  <m_primary>  (43) 
energy

$$$$
43:0
     RDKit          3D

 56 59  0  0  0  0  0  0  0  0999 V2000
   67.0540   32.6740   50.1490 C   0  0  0  0  0  0  0  0  0  0  0  0
   65.7620   33.3440   50.4900 C   0  0  0  0  0  0  0  0  0  0  0  0
   65.6630   34.1540   51.6270 C   0  0  0  0  0  0  0  0  0  0  0  0
   64.4490   34.7760   51.9190 C   0  0  0  0  0  0  0  0  0  0  0  0
   63.3520   34.5920   51.0760 C   0  0  0  0  0  0  0  0  0  0  0  0
   63.4800   33.7810   49.9330 C   0  0  0  0  0  0  0  0  0  0  0  0
   62.3710   33.5690   49.0310 N   0  0  0  0  0  0  0  0  0  0  0  0
   61.0710   34.1850   49.3380 C   0  0  0  0  0  0  0  0  0  0  0  0
   60.2770   34.4810   48.0640 C   0  0  0  0  0  0  0  0  0  0  0  0
   60.2800   33.3550   47.1160 N   0  0  0  0  0  0  0  0  0  0  0  0
   59.5430   33.4550   45.8760 C   0  0  0  0  0  0  0  0  0  0  0  0
   59.7570   34.4360   45.1110 O   0  0  0  0  0  0  0  0  0  0  0  0
   58.5150   32.4270   45.4420 C   0  0  0  0  0  0  0  0  0  0  0  0
   59.1300   31.0090   45.3830 C   0  0  0  0  0  0  0  0  0  0  0  0
   58.0440   29.9290   45.3120 C   0  0  0  0  0  0  0  0  0  0  0  0
   56.9190   30.2600   43.9670 S   0  0  0  0  0  0  0  0  0  0  0  0
   55.5280   30.4530   44.5020 O   0  0  0  0  0  0  0  0  0  0  0  0
   56.9280   29.1140   42.9950 O   0  0  0  0  0  0  0  0  0  0  0  0
   57.4610   31.7470   43.1480 C   0  0  0  0  0  0  0  0  0  0  0  0
   57.7400   32.8670   44.1610 C   0  0  0  0  0  0  0  0  0  0  0  0
   61.1290   32.1740   47.3570 C   0  0  2  0  0  0  0  0  0  0  0  0
   60.3720   31.1420   48.1870 C   0  0  0  0  0  0  0  0  0  0  0  0
   59.2630   31.5760   48.9370 C   0  0  0  0  0  0  0  0  0  0  0  0
   58.5420   30.6800   49.7310 C   0  0  0  0  0  0  0  0  0  0  0  0
   58.9120   29.3370   49.7830 C   0  0  0  0  0  0  0  0  0  0  0  0
   60.0030   28.8850   49.0380 C   0  0  0  0  0  0  0  0  0  0  0  0
   60.7290   29.7770   48.2430 C   0  0  0  0  0  0  0  0  0  0  0  0
   62.4960   32.6130   47.9200 C   0  0  0  0  0  0  0  0  0  0  0  0
   64.6800   33.1840   49.6800 N   0  0  0  0  0  0  0  0  0  0  0  0
   67.5809   32.4007   51.0751 H   0  0  0  0  0  0  0  0  0  0  0  0
   66.8524   31.7668   49.5605 H   0  0  0  0  0  0  0  0  0  0  0  0
   67.6794   33.3614   49.5605 H   0  0  0  0  0  0  0  0  0  0  0  0
   66.5336   34.2987   52.2837 H   0  0  0  0  0  0  0  0  0  0  0  0
   64.3564   35.4107   52.8126 H   0  0  0  0  0  0  0  0  0  0  0  0
   62.3921   35.0785   51.3039 H   0  0  0  0  0  0  0  0  0  0  0  0
   60.4898   33.4974   49.9700 H   0  0  0  0  0  0  0  0  0  0  0  0
   61.2538   35.1359   49.8600 H   0  0  0  0  0  0  0  0  0  0  0  0
   59.2363   34.7036   48.3421 H   0  0  0  0  0  0  0  0  0  0  0  0
   60.7575   35.3355   47.5651 H   0  0  0  0  0  0  0  0  0  0  0  0
   57.7345   32.3693   46.2150 H   0  0  0  0  0  0  0  0  0  0  0  0
   59.7687   30.9331   44.4907 H   0  0  0  0  0  0  0  0  0  0  0  0
   59.7173   30.8487   46.2992 H   0  0  0  0  0  0  0  0  0  0  0  0
   58.5181   28.9490   45.1544 H   0  0  0  0  0  0  0  0  0  0  0  0
   57.4794   29.9302   46.2560 H   0  0  0  0  0  0  0  0  0  0  0  0
   58.3826   31.5325   42.5870 H   0  0  0  0  0  0  0  0  0  0  0  0
   56.6633   32.0817   42.4686 H   0  0  0  0  0  0  0  0  0  0  0  0
   58.3323   33.6436   43.6550 H   0  0  0  0  0  0  0  0  0  0  0  0
   56.7563   33.2188   44.5054 H   0  0  0  0  0  0  0  0  0  0  0  0
   61.3636   31.6570   46.4148 H   0  0  0  0  0  0  0  0  0  0  0  0
   58.9602   32.6328   48.8978 H   0  0  0  0  0  0  0  0  0  0  0  0
   57.6809   31.0352   50.3161 H   0  0  0  0  0  0  0  0  0  0  0  0
   58.3448   28.6338   50.4105 H   0  0  0  0  0  0  0  0  0  0  0  0
   60.2921   27.8244   49.0767 H   0  0  0  0  0  0  0  0  0  0  0  0
   61.5852   29.4125   47.6564 H   0  0  0  0  0  0  0  0  0  0  0  0
   63.0308   31.7220   48.2807 H   0  0  0  0  0  0  0  0  0  0  0  0
   63.0439   33.1152   47.1091 H   0  0  0  0  0  0  0  0  0  0  0  0
  1  2  1  0
  2  3  2  0
  3  4  1  0
  4  5  2  0
  5  6  1  0
  6  7  1  0
  7  8  1  0
  8  9  1  0
  9 10  1  0
 10 11  1  0
 11 12  2  0
 11 13  1  0
 13 14  1  0
 14 15  1  0
 15 16  1  0
 16 17  2  0
 16 18  2  0
 16 19  1  0
 19 20  1  0
 10 21  1  0
 21 22  1  0
 22 23  2  0
 23 24  1  0
 24 25  2  0
 25 26  1  0
 26 27  2  0
 21 28  1  0
  6 29  2  0
 29  2  1  0
 28  7  1  0
 20 13  1  0
 27 22  1  0
  1 30  1  0
  1 31  1  0
  1 32  1  0
  3 33  1  0
  4 34  1  0
  5 35  1  0
  8 36  1  0
  8 37  1  0
  9 38  1  0
  9 39  1  0
 13 40  1  0
 14 41  1  0
 14 42  1  0
 15 43  1  0
 15 44  1  0
 19 45  1  0
 19 46  1  0
 20 47  1  0
 20 48  1  0
 21 49  1  6
 23 50  1  0
 24 51  1  0
 25 52  1  0
 26 53  1  0
 27 54  1  0
 28 55  1  0
 28 56  1  0
M  END
>  <UniqueID>  (44) 
41

>  <SMILES>  (44) 
Cc1cccc(N2CCN(C(=O)C3CCS(=O)(=O)CC3)[C@H](c3ccccc3)C2)n1

>  <Energy>  (44) 
64.31723321178342

>  <Genealogy>  (44) 
Cc1cccc(N2CCN(C(=O)C3CCS(=O)(=O)CC3)[C@H](c3ccccc3)C2)n1 (chirality)
Cc1cccc(N2CCN(C(=O)C3CCS(=O)(=O)CC3)[C@H](c3ccccc3)C2)n1 (3D coordinates assigned)
Cc1cccc(N2CCN(C(=O)C3CCS(=O)(=O)CC3)[C@H](c3ccccc3)C2)n1 (nonaromatic ring conformer: 64.31723321178342 kcal/mol)

>  <smiles>  (44) 
Cc1cccc(N2CCN(C(=O)C3CCS(=O)(=O)CC3)C(c3ccccc3)C2)n1

>  <score_type>  (44) 
oracle

>  <origin>  (44) 
adg

>  <m_score__min__energy>  (44) 
-9

>  <m_primary>  (44) 
energy

$$$$
44:0
     RDKit          3D

 60 64  0  0  0  0  0  0  0  0999 V2000
   53.5540   23.9910   46.3060 H   0  0  0  0  0  0  0  0  0  0  0  0
   54.4670   23.5520   46.3090 O   0  0  0  0  0  0  0  0  0  0  0  0
   55.6320   24.2980   46.1480 C   0  0  0  0  0  0  0  0  0  0  0  0
   56.8980   23.6610   46.1580 C   0  0  0  0  0  0  0  0  0  0  0  0
   56.9595   22.5706   46.2896 H   0  0  0  0  0  0  0  0  0  0  0  0
   58.0750   24.4120   46.0010 C   0  0  0  0  0  0  0  0  0  0  0  0
   59.0623   23.9271   46.0128 H   0  0  0  0  0  0  0  0  0  0  0  0
   57.9540   25.7890   45.8300 C   0  0  0  0  0  0  0  0  0  0  0  0
   56.7280   26.4170   45.8130 C   0  0  0  0  0  0  0  0  0  0  0  0
   55.5470   25.6940   45.9740 C   0  0  0  0  0  0  0  0  0  0  0  0
   54.3150   26.3380   45.9650 O   0  0  0  0  0  0  0  0  0  0  0  0
   56.8530   27.7940   45.6320 O   0  0  0  0  0  0  0  0  0  0  0  0
   58.2180   28.0790   45.5260 C   0  0  0  0  0  0  0  0  0  0  0  0
   58.6920   29.3200   45.3630 C   0  0  0  0  0  0  0  0  0  0  0  0
   58.7084   29.7351   44.3445 H   0  0  0  0  0  0  0  0  0  0  0  0
   59.1940   30.1670   46.4620 C   0  0  0  0  0  0  0  0  0  0  0  0
   59.5710   31.4890   46.1930 C   0  0  0  0  0  0  0  0  0  0  0  0
   59.4939   31.8821   45.1685 H   0  0  0  0  0  0  0  0  0  0  0  0
   60.0450   32.3120   47.2200 C   0  0  0  0  0  0  0  0  0  0  0  0
   60.3184   33.3550   47.0024 H   0  0  0  0  0  0  0  0  0  0  0  0
   60.1740   31.8150   48.5270 C   0  0  0  0  0  0  0  0  0  0  0  0
   60.5970   32.6840   49.5960 N   0  0  0  0  0  0  0  0  0  0  0  0
   60.6810   34.1380   49.4020 C   0  0  0  0  0  0  0  0  0  0  0  0
   60.0270   34.6433   50.1279 H   0  0  0  0  0  0  0  0  0  0  0  0
   60.3595   34.3913   48.3810 H   0  0  0  0  0  0  0  0  0  0  0  0
   62.1260   34.5970   49.6110 C   0  0  0  0  0  0  0  0  0  0  0  0
   62.1374   35.6853   49.7706 H   0  0  0  0  0  0  0  0  0  0  0  0
   62.7092   34.3303   48.7173 H   0  0  0  0  0  0  0  0  0  0  0  0
   62.7310   33.9340   50.7780 N   0  0  0  0  0  0  0  0  0  0  0  0
   64.1620   33.9410   50.9250 C   0  0  0  0  0  0  0  0  0  0  0  0
   64.7580   34.8200   51.8400 C   0  0  0  0  0  0  0  0  0  0  0  0
   64.1316   35.5222   52.4096 H   0  0  0  0  0  0  0  0  0  0  0  0
   66.1410   34.8110   52.0340 C   0  0  0  0  0  0  0  0  0  0  0  0
   66.5979   35.5054   52.7545 H   0  0  0  0  0  0  0  0  0  0  0  0
   66.9510   33.9180   51.3120 C   0  0  0  0  0  0  0  0  0  0  0  0
   68.3420   33.8580   51.4850 O   0  0  0  0  0  0  0  0  0  0  0  0
   69.2800   34.6100   50.7240 C   0  0  0  0  0  0  0  0  0  0  0  0
   69.9545   35.1508   51.4042 H   0  0  0  0  0  0  0  0  0  0  0  0
   69.8671   33.9296   50.0897 H   0  0  0  0  0  0  0  0  0  0  0  0
   68.7435   35.3311   50.0897 H   0  0  0  0  0  0  0  0  0  0  0  0
   66.3580   33.0510   50.3870 C   0  0  0  0  0  0  0  0  0  0  0  0
   66.9892   32.3583   49.8110 H   0  0  0  0  0  0  0  0  0  0  0  0
   64.9620   33.0530   50.1830 C   0  0  0  0  0  0  0  0  0  0  0  0
   64.3450   32.2030   49.2510 O   0  0  0  0  0  0  0  0  0  0  0  0
   63.8100   32.6280   48.0010 C   0  0  0  0  0  0  0  0  0  0  0  0
   62.9598   33.3034   48.1767 H   0  0  0  0  0  0  0  0  0  0  0  0
   64.5872   33.1576   47.4305 H   0  0  0  0  0  0  0  0  0  0  0  0
   63.4699   31.7511   47.4305 H   0  0  0  0  0  0  0  0  0  0  0  0
   61.9010   33.1110   51.6680 C   0  0  0  0  0  0  0  0  0  0  0  0
   61.2055   33.7598   52.2207 H   0  0  0  0  0  0  0  0  0  0  0  0
   62.5515   32.5741   52.3742 H   0  0  0  0  0  0  0  0  0  0  0  0
   61.1000   32.0910   50.8450 C   0  0  0  0  0  0  0  0  0  0  0  0
   60.2464   31.7398   51.4434 H   0  0  0  0  0  0  0  0  0  0  0  0
   61.7667   31.2550   50.5869 H   0  0  0  0  0  0  0  0  0  0  0  0
   59.8320   30.4760   48.7850 C   0  0  0  0  0  0  0  0  0  0  0  0
   59.9382   30.0716   49.8024 H   0  0  0  0  0  0  0  0  0  0  0  0
   59.3580   29.6550   47.7580 C   0  0  0  0  0  0  0  0  0  0  0  0
   59.1125   28.6032   47.9666 H   0  0  0  0  0  0  0  0  0  0  0  0
   58.9610   26.8170   45.6620 C   0  0  0  0  0  0  0  0  0  0  0  0
   60.2100   26.6540   45.7170 O   0  0  0  0  0  0  0  0  0  0  0  0
  1  2  1  0
  2  3  1  0
  3  4  2  0
  4  5  1  0
  4  6  1  0
  6  7  1  0
  6  8  2  0
  8  9  1  0
  9 10  2  0
 10 11  1  0
  9 12  1  0
 12 13  1  0
 13 14  2  0
 14 15  1  0
 14 16  1  0
 16 17  2  0
 17 18  1  0
 17 19  1  0
 19 20  1  0
 19 21  2  0
 21 22  1  0
 22 23  1  0
 23 24  1  0
 23 25  1  0
 23 26  1  0
 26 27  1  0
 26 28  1  0
 26 29  1  0
 29 30  1  0
 30 31  2  0
 31 32  1  0
 31 33  1  0
 33 34  1  0
 33 35  2  0
 35 36  1  0
 36 37  1  0
 37 38  1  0
 37 39  1  0
 37 40  1  0
 35 41  1  0
 41 42  1  0
 41 43  2  0
 43 44  1  0
 44 45  1  0
 45 46  1  0
 45 47  1  0
 45 48  1  0
 29 49  1  0
 49 50  1  0
 49 51  1  0
 49 52  1  0
 52 53  1  0
 52 54  1  0
 21 55  1  0
 55 56  1  0
 55 57  2  0
 57 58  1  0
 13 59  1  0
 59 60  2  0
 10  3  1  0
 57 16  1  0
 59  8  1  0
 52 22  1  0
 43 30  1  0
M  CHG  1  11  -1
M  END
>  <UniqueID>  (45) 
42

>  <SMILES>  (45) 
COc1ccc(N2CCN(c3ccc(/C=C4/Oc5c(ccc(O)c5[O-])C4=O)cc3)CC2)c(OC)c1

>  <Energy>  (45) 
112.66890909042108

>  <Genealogy>  (45) 
COc1ccc(N2CCN(c3ccc(C=C4Oc5c(ccc(O)c5[O-])C4=O)cc3)CC2)c(OC)c1 (protonated)
COc1ccc(N2CCN(c3ccc(/C=C4/Oc5c(ccc(O)c5[O-])C4=O)cc3)CC2)c(OC)c1 (cis-trans isomerization)
COc1ccc(N2CCN(c3ccc(/C=C4/Oc5c(ccc(O)c5[O-])C4=O)cc3)CC2)c(OC)c1 (3D coordinates assigned)
COc1ccc(N2CCN(c3ccc(/C=C4/Oc5c(ccc(O)c5[O-])C4=O)cc3)CC2)c(OC)c1 (nonaromatic ring conformer: 112.66890909042108 kcal/mol)

>  <smiles>  (45) 
COc1ccc(N2CCN(c3ccc(C=C4Oc5c(ccc(O)c5O)C4=O)cc3)CC2)c(OC)c1

>  <score_type>  (45) 
oracle

>  <origin>  (45) 
adg

>  <m_score__min__energy>  (45) 
-12.27

>  <m_primary>  (45) 
energy

$$$$
45:0
     RDKit          3D

 39 41  0  0  0  0  0  0  0  0999 V2000
   54.5980   29.6010   45.5300 H   0  0  0  0  0  0  0  0  0  0  0  0
   55.3690   29.3500   44.8700 N   0  0  0  0  0  0  0  0  0  0  0  0
   56.0990   30.2440   44.2830 C   0  0  0  0  0  0  0  0  0  0  0  0
   56.6400   31.2530   45.0170 N   0  0  0  0  0  0  0  0  0  0  0  0
   57.4130   32.2270   44.4590 C   0  0  0  0  0  0  0  0  0  0  0  0
   57.9820   33.2820   45.3220 C   0  0  0  0  0  0  0  0  0  0  0  0
   57.6680   34.4840   45.1120 O   0  0  0  0  0  0  0  0  0  0  0  0
   58.8720   32.9660   46.4050 N   0  0  0  0  0  0  0  0  0  0  0  0
   58.9090   33.8340   47.5920 C   0  0  0  0  0  0  0  0  0  0  0  0
   58.2029   33.4545   48.3453 H   0  0  0  0  0  0  0  0  0  0  0  0
   58.6263   34.8576   47.3052 H   0  0  0  0  0  0  0  0  0  0  0  0
   60.2900   33.8420   48.1640 C   0  0  0  0  0  0  0  0  0  0  0  0
   60.7620   34.8950   48.6710 O   0  0  0  0  0  0  0  0  0  0  0  0
   61.0600   32.6300   48.1260 N   0  0  0  0  0  0  0  0  0  0  0  0
   62.3610   32.5530   48.7320 C   0  0  0  0  0  0  0  0  0  0  0  0
   62.5560   31.8020   49.8990 C   0  0  0  0  0  0  0  0  0  0  0  0
   61.7085   31.2742   50.3607 H   0  0  0  0  0  0  0  0  0  0  0  0
   63.8240   31.7230   50.4760 C   0  0  0  0  0  0  0  0  0  0  0  0
   63.9796   31.1358   51.3931 H   0  0  0  0  0  0  0  0  0  0  0  0
   64.8980   32.3970   49.8790 C   0  0  0  0  0  0  0  0  0  0  0  0
   66.2690   32.3240   50.4820 C   0  0  0  0  0  0  0  0  0  0  0  0
   66.2390   32.8300   51.7690 F   0  0  0  0  0  0  0  0  0  0  0  0
   67.1520   33.0680   49.7210 F   0  0  0  0  0  0  0  0  0  0  0  0
   66.7120   31.0140   50.5270 F   0  0  0  0  0  0  0  0  0  0  0  0
   64.6870   33.1230   48.7460 N   0  0  0  0  0  0  0  0  0  0  0  0
   63.4620   33.2180   48.1640 C   0  0  0  0  0  0  0  0  0  0  0  0
   63.3220   33.9140   47.1240 O   0  0  0  0  0  0  0  0  0  0  0  0
   60.3970   31.4140   47.6450 C   0  0  0  0  0  0  0  0  0  0  0  0
   59.6985   31.0545   48.4149 H   0  0  0  0  0  0  0  0  0  0  0  0
   61.1620   30.6509   47.4390 H   0  0  0  0  0  0  0  0  0  0  0  0
   59.6190   31.6980   46.3500 C   0  0  0  0  0  0  0  0  0  0  0  0
   58.9073   30.8769   46.1792 H   0  0  0  0  0  0  0  0  0  0  0  0
   60.3505   31.7773   45.5323 H   0  0  0  0  0  0  0  0  0  0  0  0
   57.6850   32.1840   43.0820 C   0  0  0  0  0  0  0  0  0  0  0  0
   58.3226   32.9513   42.6187 H   0  0  0  0  0  0  0  0  0  0  0  0
   57.1400   31.1600   42.3060 C   0  0  0  0  0  0  0  0  0  0  0  0
   57.3409   31.1222   41.2252 H   0  0  0  0  0  0  0  0  0  0  0  0
   56.3400   30.1840   42.9020 C   0  0  0  0  0  0  0  0  0  0  0  0
   55.9032   29.3767   42.2958 H   0  0  0  0  0  0  0  0  0  0  0  0
  1  2  1  0
  2  3  2  0
  3  4  1  0
  4  5  1  0
  5  6  1  0
  6  7  2  0
  6  8  1  0
  8  9  1  0
  9 10  1  0
  9 11  1  0
  9 12  1  0
 12 13  2  0
 12 14  1  0
 14 15  1  0
 15 16  2  0
 16 17  1  0
 16 18  1  0
 18 19  1  0
 18 20  2  0
 20 21  1  0
 21 22  1  0
 21 23  1  0
 21 24  1  0
 20 25  1  0
 25 26  1  0
 26 27  2  0
 14 28  1  0
 28 29  1  0
 28 30  1  0
 28 31  1  0
 31 32  1  0
 31 33  1  0
  5 34  2  0
 34 35  1  0
 34 36  1  0
 36 37  1  0
 36 38  2  0
 38 39  1  0
 38  3  1  0
 31  8  1  0
 26 15  1  0
M  CHG  2   4  -1  25  -1
M  END
>  <UniqueID>  (46) 
43

>  <SMILES>  (46) 
[H]/N=c1\cccc(C(=O)N2CCN(c3ccc(C(F)(F)F)[n-]c3=O)C(=O)C2)[n-]1

>  <Energy>  (46) 
54.044939185878775

>  <Genealogy>  (46) 
N=c1cccc(C(=O)N2CCN(c3ccc(C(F)(F)F)[n-]c3=O)C(=O)C2)[n-]1 (protonated)
[H]/N=c1\cccc(C(=O)N2CCN(c3ccc(C(F)(F)F)[n-]c3=O)C(=O)C2)[n-]1 (cis-trans isomerization)
[H]/N=c1\cccc(C(=O)N2CCN(c3ccc(C(F)(F)F)[n-]c3=O)C(=O)C2)[n-]1 (3D coordinates assigned)
[H]/N=c1\cccc(C(=O)N2CCN(c3ccc(C(F)(F)F)[n-]c3=O)C(=O)C2)[n-]1 (nonaromatic ring conformer: 54.044939185878775 kcal/mol)

>  <smiles>  (46) 
N=c1cccc(C(=O)N2CCN(c3ccc(C(F)(F)F)[nH]c3=O)C(=O)C2)[nH]1

>  <score_type>  (46) 
oracle

>  <origin>  (46) 
adg

>  <m_score__min__energy>  (46) 
-10.859999999999999

>  <m_primary>  (46) 
energy

$$$$
46:0
     RDKit          3D

 43 45  0  0  0  0  0  0  0  0999 V2000
   60.2820   33.8420   50.1550 C   0  0  0  0  0  0  0  0  0  0  0  0
   61.1890   33.7370   48.9570 C   0  0  0  0  0  0  0  0  0  0  0  0
   62.5320   33.3640   49.1470 C   0  0  0  0  0  0  0  0  0  0  0  0
   63.3990   33.2600   48.0580 C   0  0  0  0  0  0  0  0  0  0  0  0
   62.9400   33.5250   46.7690 C   0  0  0  0  0  0  0  0  0  0  0  0
   61.6080   33.8850   46.5620 C   0  0  0  0  0  0  0  0  0  0  0  0
   60.7140   33.9770   47.6420 C   0  0  0  0  0  0  0  0  0  0  0  0
   59.2870   34.3980   47.3750 C   0  0  0  0  0  0  0  0  0  0  0  0
   58.5970   33.3940   46.5670 N   0  0  0  0  0  0  0  0  0  0  0  0
   58.5120   33.5100   45.1410 C   0  0  0  0  0  0  0  0  0  0  0  0
   59.0300   34.4990   44.5540 O   0  0  0  0  0  0  0  0  0  0  0  0
   57.8230   32.4770   44.3540 C   0  0  0  0  0  0  0  0  0  0  0  0
   57.8850   32.3240   42.9810 C   0  0  0  0  0  0  0  0  0  0  0  0
   57.0920   31.2350   42.6880 C   0  0  0  0  0  0  0  0  0  0  0  0
   56.5970   30.7960   43.9010 C   0  0  0  0  0  0  0  0  0  0  0  0
   55.6890   29.6310   44.1090 C   0  0  0  0  0  0  0  0  0  0  0  0
   56.2900   28.7310   45.0330 O   0  0  0  0  0  0  0  0  0  0  0  0
   57.6350   28.7780   45.4300 C   0  0  0  0  0  0  0  0  0  0  0  0
   58.0530   29.4700   46.5850 C   0  0  0  0  0  0  0  0  0  0  0  0
   59.4040   29.4910   46.9440 C   0  0  0  0  0  0  0  0  0  0  0  0
   60.3480   28.8260   46.1610 C   0  0  0  0  0  0  0  0  0  0  0  0
   59.9450   28.1370   45.0140 C   0  0  0  0  0  0  0  0  0  0  0  0
   58.5950   28.1120   44.6480 C   0  0  0  0  0  0  0  0  0  0  0  0
   58.1130   27.2400   43.2000 Cl  0  0  0  0  0  0  0  0  0  0  0  0
   57.0480   31.5520   44.8740 O   0  0  0  0  0  0  0  0  0  0  0  0
   60.8806   33.7727   51.0753 H   0  0  0  0  0  0  0  0  0  0  0  0
   59.7548   34.8072   50.1323 H   0  0  0  0  0  0  0  0  0  0  0  0
   59.5482   33.0228   50.1323 H   0  0  0  0  0  0  0  0  0  0  0  0
   62.9017   33.1527   50.1613 H   0  0  0  0  0  0  0  0  0  0  0  0
   64.4475   32.9681   48.2176 H   0  0  0  0  0  0  0  0  0  0  0  0
   63.6284   33.4503   45.9143 H   0  0  0  0  0  0  0  0  0  0  0  0
   61.2541   34.0990   45.5427 H   0  0  0  0  0  0  0  0  0  0  0  0
   58.7596   34.5158   48.3331 H   0  0  0  0  0  0  0  0  0  0  0  0
   59.2953   35.3509   46.8255 H   0  0  0  0  0  0  0  0  0  0  0  0
   58.1570   32.5670   47.0330 H   0  0  0  0  0  0  0  0  0  0  0  0
   58.4505   32.9435   42.2693 H   0  0  0  0  0  0  0  0  0  0  0  0
   56.8944   30.8050   41.6950 H   0  0  0  0  0  0  0  0  0  0  0  0
   54.7262   29.9813   44.5093 H   0  0  0  0  0  0  0  0  0  0  0  0
   55.5181   29.1187   43.1507 H   0  0  0  0  0  0  0  0  0  0  0  0
   57.3130   29.9956   47.2064 H   0  0  0  0  0  0  0  0  0  0  0  0
   59.7235   30.0332   47.8462 H   0  0  0  0  0  0  0  0  0  0  0  0
   61.4101   28.8441   46.4467 H   0  0  0  0  0  0  0  0  0  0  0  0
   60.6907   27.6133   44.3978 H   0  0  0  0  0  0  0  0  0  0  0  0
  1  2  1  0
  2  3  2  0
  3  4  1  0
  4  5  2  0
  5  6  1  0
  6  7  2  0
  7  8  1  0
  8  9  1  0
  9 10  1  0
 10 11  2  0
 10 12  1  0
 12 13  2  0
 13 14  1  0
 14 15  2  0
 15 16  1  0
 16 17  1  0
 17 18  1  0
 18 19  2  0
 19 20  1  0
 20 21  2  0
 21 22  1  0
 22 23  2  0
 23 24  1  0
 15 25  1  0
  7  2  1  0
 25 12  1  0
 23 18  1  0
  1 26  1  0
  1 27  1  0
  1 28  1  0
  3 29  1  0
  4 30  1  0
  5 31  1  0
  6 32  1  0
  8 33  1  0
  8 34  1  0
  9 35  1  0
 13 36  1  0
 14 37  1  0
 16 38  1  0
 16 39  1  0
 19 40  1  0
 20 41  1  0
 21 42  1  0
 22 43  1  0
M  END
>  <UniqueID>  (47) 
44

>  <SMILES>  (47) 
Cc1ccccc1CNC(=O)c1ccc(COc2ccccc2Cl)o1

>  <Energy>  (47) 
67.62268327515666

>  <Genealogy>  (47) 
Cc1ccccc1CNC(=O)c1ccc(COc2ccccc2Cl)o1 (3D coordinates assigned)
Cc1ccccc1CNC(=O)c1ccc(COc2ccccc2Cl)o1 (optimized conformer: 67.62268327515666 kcal/mol)

>  <smiles>  (47) 
Cc1ccccc1CNC(=O)c1ccc(COc2ccccc2Cl)o1

>  <score_type>  (47) 
oracle

>  <origin>  (47) 
adg

>  <m_score__min__energy>  (47) 
-9.0199999999999996

>  <m_primary>  (47) 
energy

$$$$
47:0
     RDKit          3D

 45 48  0  0  0  0  0  0  0  0999 V2000
   59.8070   31.2640   48.5740 O   0  0  0  0  0  0  0  0  0  0  0  0
   59.2290   31.1490   47.4610 C   0  0  0  0  0  0  0  0  0  0  0  0
   58.6530   29.8410   47.0290 C   0  0  0  0  0  0  0  0  0  0  0  0
   58.8090   28.7310   47.7000 N   0  0  0  0  0  0  0  0  0  0  0  0
   58.9220   27.3970   47.1860 C   0  0  0  0  0  0  0  0  0  0  0  0
   57.7660   26.6390   46.9780 C   0  0  0  0  0  0  0  0  0  0  0  0
   57.8540   25.3580   46.4240 C   0  0  0  0  0  0  0  0  0  0  0  0
   59.1010   24.8250   46.0570 C   0  0  0  0  0  0  0  0  0  0  0  0
   59.1910   23.4710   45.4620 C   0  0  0  0  0  0  0  0  0  0  0  0
   60.2650   22.8190   45.5600 O   0  0  0  0  0  0  0  0  0  0  0  0
   58.0640   22.8770   44.7930 N   0  0  0  0  0  0  0  0  0  0  0  0
   57.8380   21.4340   44.9070 C   0  0  0  0  0  0  0  0  0  0  0  0
   56.3580   21.1270   44.6650 C   0  0  0  0  0  0  0  0  0  0  0  0
   55.9170   21.6960   43.4460 O   0  0  0  0  0  0  0  0  0  0  0  0
   55.9850   23.1080   43.5220 C   0  0  0  0  0  0  0  0  0  0  0  0
   57.4370   23.5730   43.6660 C   0  0  0  0  0  0  0  0  0  0  0  0
   60.2550   25.6120   46.2220 C   0  0  0  0  0  0  0  0  0  0  0  0
   60.1640   26.8920   46.7750 C   0  0  0  0  0  0  0  0  0  0  0  0
   57.8640   29.7550   45.7460 C   0  0  2  0  0  0  0  0  0  0  0  0
   58.8710   28.9800   44.4970 Cl  0  0  0  0  0  0  0  0  0  0  0  0
   57.4020   31.0890   45.2300 C   0  0  0  0  0  0  0  0  0  0  0  0
   56.3940   31.1330   44.4730 O   0  0  0  0  0  0  0  0  0  0  0  0
   58.1530   32.3250   45.5330 C   0  0  0  0  0  0  0  0  0  0  0  0
   57.9590   33.4870   44.7630 C   0  0  0  0  0  0  0  0  0  0  0  0
   58.6690   34.6530   45.0550 C   0  0  0  0  0  0  0  0  0  0  0  0
   59.5730   34.6750   46.1160 C   0  0  0  0  0  0  0  0  0  0  0  0
   59.7670   33.5310   46.8940 C   0  0  0  0  0  0  0  0  0  0  0  0
   59.0610   32.3470   46.6100 C   0  0  0  0  0  0  0  0  0  0  0  0
   56.7836   27.0517   47.2511 H   0  0  0  0  0  0  0  0  0  0  0  0
   56.9406   24.7636   46.2745 H   0  0  0  0  0  0  0  0  0  0  0  0
   58.4485   20.9073   44.1588 H   0  0  0  0  0  0  0  0  0  0  0  0
   58.1214   21.0977   45.9152 H   0  0  0  0  0  0  0  0  0  0  0  0
   56.2182   20.0367   44.6249 H   0  0  0  0  0  0  0  0  0  0  0  0
   55.7701   21.5597   45.4879 H   0  0  0  0  0  0  0  0  0  0  0  0
   55.5567   23.5400   42.6055 H   0  0  0  0  0  0  0  0  0  0  0  0
   55.4175   23.4425   44.4029 H   0  0  0  0  0  0  0  0  0  0  0  0
   57.9883   23.3450   42.7418 H   0  0  0  0  0  0  0  0  0  0  0  0
   57.4580   24.6577   43.8477 H   0  0  0  0  0  0  0  0  0  0  0  0
   61.2346   25.2176   45.9140 H   0  0  0  0  0  0  0  0  0  0  0  0
   61.0698   27.5057   46.8883 H   0  0  0  0  0  0  0  0  0  0  0  0
   56.9621   29.1664   45.9699 H   0  0  0  0  0  0  0  0  0  0  0  0
   57.2443   33.4764   43.9269 H   0  0  0  0  0  0  0  0  0  0  0  0
   58.5148   35.5563   44.4466 H   0  0  0  0  0  0  0  0  0  0  0  0
   60.1341   35.5940   46.3408 H   0  0  0  0  0  0  0  0  0  0  0  0
   60.4764   33.5557   47.7343 H   0  0  0  0  0  0  0  0  0  0  0  0
  1  2  2  0
  2  3  1  0
  3  4  2  3
  4  5  1  0
  5  6  2  0
  6  7  1  0
  7  8  2  0
  8  9  1  0
  9 10  2  0
  9 11  1  0
 11 12  1  0
 12 13  1  0
 13 14  1  0
 14 15  1  0
 15 16  1  0
  8 17  1  0
 17 18  2  0
  3 19  1  0
 19 20  1  0
 19 21  1  0
 21 22  2  0
 21 23  1  0
 23 24  2  0
 24 25  1  0
 25 26  2  0
 26 27  1  0
 27 28  2  0
 28  2  1  0
 18  5  1  0
 28 23  1  0
 16 11  1  0
  6 29  1  0
  7 30  1  0
 12 31  1  0
 12 32  1  0
 13 33  1  0
 13 34  1  0
 15 35  1  0
 15 36  1  0
 16 37  1  0
 16 38  1  0
 17 39  1  0
 18 40  1  0
 19 41  1  1
 24 42  1  0
 25 43  1  0
 26 44  1  0
 27 45  1  0
M  END
>  <UniqueID>  (48) 
45

>  <SMILES>  (48) 
O=C1C(=Nc2ccc(C(=O)N3CCOCC3)cc2)[C@H](Cl)C(=O)c2ccccc21

>  <Energy>  (48) 
68.38575225288616

>  <Genealogy>  (48) 
O=C1C(=Nc2ccc(C(=O)N3CCOCC3)cc2)[C@H](Cl)C(=O)c2ccccc21 (chirality)
O=C1C(=Nc2ccc(C(=O)N3CCOCC3)cc2)[C@H](Cl)C(=O)c2ccccc21 (3D coordinates assigned)
O=C1C(=Nc2ccc(C(=O)N3CCOCC3)cc2)[C@H](Cl)C(=O)c2ccccc21 (nonaromatic ring conformer: 68.38575225288616 kcal/mol)

>  <smiles>  (48) 
O=C1C(=Nc2ccc(C(=O)N3CCOCC3)cc2)C(Cl)C(=O)c2ccccc21

>  <score_type>  (48) 
oracle

>  <origin>  (48) 
adg

>  <m_score__min__energy>  (48) 
-9.5399999999999991

>  <m_primary>  (48) 
energy

$$$$
48:0
     RDKit          3D

 54 57  0  0  0  0  0  0  0  0999 V2000
   62.1610   33.6250   52.4390 O   0  0  0  0  0  0  0  0  0  0  0  0
   61.8860   33.4460   51.2220 C   0  0  0  0  0  0  0  0  0  0  0  0
   62.5080   34.3270   50.1860 C   0  0  0  0  0  0  0  0  0  0  0  0
   62.0100   33.9510   48.8480 N   0  0  0  0  0  0  0  0  0  0  0  0
   62.8110   33.2400   47.9930 C   0  0  0  0  0  0  0  0  0  0  0  0
   63.9970   32.9520   48.3090 O   0  0  0  0  0  0  0  0  0  0  0  0
   62.3230   32.8180   46.7610 C   0  0  0  0  0  0  0  0  0  0  0  0
   61.0040   33.0930   46.4320 C   0  0  0  0  0  0  0  0  0  0  0  0
   60.2040   33.7800   47.2970 N   0  0  0  0  0  0  0  0  0  0  0  0
   58.7790   33.9520   46.9540 C   0  0  0  0  0  0  0  0  0  0  0  0
   58.3570   33.0510   45.8120 C   0  0  0  0  0  0  0  0  0  0  0  0
   58.4650   33.5250   44.4950 C   0  0  0  0  0  0  0  0  0  0  0  0
   58.0470   32.7370   43.4210 C   0  0  0  0  0  0  0  0  0  0  0  0
   57.5050   31.4690   43.6470 C   0  0  0  0  0  0  0  0  0  0  0  0
   57.3780   30.9760   44.9560 C   0  0  0  0  0  0  0  0  0  0  0  0
   56.8350   29.6210   45.2020 C   0  0  0  0  0  0  0  0  0  0  0  0
   55.8850   29.1880   44.4930 O   0  0  0  0  0  0  0  0  0  0  0  0
   57.4210   28.8010   46.2280 N   0  0  0  0  0  0  0  0  0  0  0  0
   57.7610   27.5480   46.1380 C   0  0  0  0  0  0  0  0  0  0  0  0
   59.0690   27.1630   46.1800 N   0  0  0  0  0  0  0  0  0  0  0  0
   59.4410   25.8610   46.0610 C   0  0  0  0  0  0  0  0  0  0  0  0
   58.4750   24.8700   45.8900 C   0  0  0  0  0  0  0  0  0  0  0  0
   57.1270   25.2310   45.8520 C   0  0  0  0  0  0  0  0  0  0  0  0
   56.7590   26.5770   45.9790 C   0  0  0  0  0  0  0  0  0  0  0  0
   55.4170   26.9510   45.9490 O   0  0  0  0  0  0  0  0  0  0  0  0
   57.7890   31.7810   46.0330 C   0  0  0  0  0  0  0  0  0  0  0  0
   60.7070   34.2190   48.4970 C   0  0  0  0  0  0  0  0  0  0  0  0
   59.9600   34.8540   49.2930 O   0  0  0  0  0  0  0  0  0  0  0  0
   61.0850   32.3340   50.7990 N   0  0  0  0  0  0  0  0  0  0  0  0
   59.7060   32.0760   51.1020 C   0  0  0  0  0  0  0  0  0  0  0  0
   59.1350   30.8830   50.6340 C   0  0  0  0  0  0  0  0  0  0  0  0
   57.7950   30.5870   50.9000 C   0  0  0  0  0  0  0  0  0  0  0  0
   57.0100   31.4880   51.6240 C   0  0  0  0  0  0  0  0  0  0  0  0
   55.7110   31.1970   51.8860 F   0  0  0  0  0  0  0  0  0  0  0  0
   57.5620   32.6910   52.0730 C   0  0  0  0  0  0  0  0  0  0  0  0
   58.9030   32.9910   51.8090 C   0  0  0  0  0  0  0  0  0  0  0  0
   62.2458   35.3752   50.3923 H   0  0  0  0  0  0  0  0  0  0  0  0
   63.6010   34.2068   50.2146 H   0  0  0  0  0  0  0  0  0  0  0  0
   62.9726   32.2749   46.0588 H   0  0  0  0  0  0  0  0  0  0  0  0
   60.6002   32.7546   45.4664 H   0  0  0  0  0  0  0  0  0  0  0  0
   58.1697   33.7135   47.8382 H   0  0  0  0  0  0  0  0  0  0  0  0
   58.6295   34.9947   46.6369 H   0  0  0  0  0  0  0  0  0  0  0  0
   58.8823   34.5254   44.3077 H   0  0  0  0  0  0  0  0  0  0  0  0
   58.1447   33.1158   42.3929 H   0  0  0  0  0  0  0  0  0  0  0  0
   57.1764   30.8543   42.7960 H   0  0  0  0  0  0  0  0  0  0  0  0
   60.5060   25.5886   46.0997 H   0  0  0  0  0  0  0  0  0  0  0  0
   58.7717   23.8159   45.7862 H   0  0  0  0  0  0  0  0  0  0  0  0
   56.3541   24.4591   45.7224 H   0  0  0  0  0  0  0  0  0  0  0  0
   55.1380   27.9200   45.8630 H   0  0  0  0  0  0  0  0  0  0  0  0
   57.6653   31.4140   47.0626 H   0  0  0  0  0  0  0  0  0  0  0  0
   59.7459   30.1758   50.0538 H   0  0  0  0  0  0  0  0  0  0  0  0
   57.3583   29.6441   50.5391 H   0  0  0  0  0  0  0  0  0  0  0  0
   56.9407   33.4037   52.6353 H   0  0  0  0  0  0  0  0  0  0  0  0
   59.3306   33.9437   52.1546 H   0  0  0  0  0  0  0  0  0  0  0  0
  1  2  2  0
  2  3  1  0
  3  4  1  0
  4  5  1  0
  5  6  2  0
  5  7  1  0
  7  8  2  0
  8  9  1  0
  9 10  1  0
 10 11  1  0
 11 12  2  0
 12 13  1  0
 13 14  2  0
 14 15  1  0
 15 16  1  0
 16 17  2  0
 16 18  1  0
 18 19  2  3
 19 20  1  0
 20 21  1  0
 21 22  2  0
 22 23  1  0
 23 24  2  0
 24 25  1  0
 15 26  2  0
  9 27  1  0
 27 28  2  0
  2 29  1  0
 29 30  1  0
 30 31  2  0
 31 32  1  0
 32 33  2  0
 33 34  1  0
 33 35  1  0
 35 36  2  0
 27  4  1  0
 36 30  1  0
 26 11  1  0
 24 19  1  0
  3 37  1  0
  3 38  1  0
  7 39  1  0
  8 40  1  0
 10 41  1  0
 10 42  1  0
 12 43  1  0
 13 44  1  0
 14 45  1  0
 21 46  1  0
 22 47  1  0
 23 48  1  0
 25 49  1  0
 26 50  1  0
 31 51  1  0
 32 52  1  0
 35 53  1  0
 36 54  1  0
M  CHG  2  20  -1  29  -1
M  END
>  <UniqueID>  (49) 
46

>  <SMILES>  (49) 
O=C(Cn1c(=O)ccn(Cc2cccc(C(=O)N=c3[n-]cccc3O)c2)c1=O)[N-]c1ccc(F)cc1

>  <Energy>  (49) 
65.05067285855021

>  <Genealogy>  (49) 
O=C(Cn1c(=O)ccn(Cc2cccc(C(=O)N=c3[n-]cccc3O)c2)c1=O)[N-]c1ccc(F)cc1 (protonated)
O=C(Cn1c(=O)ccn(Cc2cccc(C(=O)N=c3[n-]cccc3O)c2)c1=O)[N-]c1ccc(F)cc1 (3D coordinates assigned)
O=C(Cn1c(=O)ccn(Cc2cccc(C(=O)N=c3[n-]cccc3O)c2)c1=O)[N-]c1ccc(F)cc1 (optimized conformer: 65.05067285855021 kcal/mol)

>  <smiles>  (49) 
O=C(Cn1c(=O)ccn(Cc2cccc(C(=O)N=c3[nH]cccc3O)c2)c1=O)Nc1ccc(F)cc1

>  <score_type>  (49) 
oracle

>  <origin>  (49) 
adg

>  <m_score__min__energy>  (49) 
-12.25

>  <m_primary>  (49) 
energy

$$$$
49:0
     RDKit          3D

 51 55  0  0  0  0  0  0  0  0999 V2000
   53.3650   23.3530   45.7830 C   0  0  0  0  0  0  0  0  0  0  0  0
   54.5090   23.4250   46.4620 C   0  0  0  0  0  0  0  0  0  0  0  0
   55.4990   24.4960   46.2350 C   0  0  0  0  0  0  0  0  0  0  0  0
   56.8740   24.2630   46.2570 C   0  0  0  0  0  0  0  0  0  0  0  0
   57.6610   25.7250   45.9660 S   0  0  0  0  0  0  0  0  0  0  0  0
   56.2230   26.5820   45.8250 C   0  0  0  0  0  0  0  0  0  0  0  0
   56.1680   27.8590   45.5960 N   0  0  0  0  0  0  0  0  0  0  0  0
   57.2610   28.7860   45.7090 C   0  0  0  0  0  0  0  0  0  0  0  0
   58.2010   28.5690   46.5230 O   0  0  0  0  0  0  0  0  0  0  0  0
   57.3030   30.0080   44.8790 C   0  0  0  0  0  0  0  0  0  0  0  0
   57.4510   31.2090   45.5010 N   0  0  0  0  0  0  0  0  0  0  0  0
   57.5190   32.3920   44.8290 C   0  0  0  0  0  0  0  0  0  0  0  0
   57.7240   33.7010   45.5720 C   0  0  0  0  0  0  0  0  0  0  0  0
   57.4990   33.5430   47.0920 C   0  0  0  0  0  0  0  0  0  0  0  0
   58.6570   32.7980   47.7640 C   0  0  0  0  0  0  0  0  0  0  0  0
   59.9320   33.4480   47.4350 N   0  0  0  0  0  0  0  0  0  0  0  0
   60.9940   33.4270   48.4040 C   0  0  0  0  0  0  0  0  0  0  0  0
   61.6070   34.5880   48.7930 N   0  0  0  0  0  0  0  0  0  0  0  0
   62.6180   34.5860   49.7170 C   0  0  0  0  0  0  0  0  0  0  0  0
   63.0360   33.4160   50.2870 N   0  0  0  0  0  0  0  0  0  0  0  0
   62.4290   32.2620   49.9070 C   0  0  0  0  0  0  0  0  0  0  0  0
   62.6710   31.0400   50.4030 N   0  0  0  0  0  0  0  0  0  0  0  0
   61.7860   30.2220   49.7870 C   0  0  0  0  0  0  0  0  0  0  0  0
   60.9840   30.9350   48.8940 C   0  0  0  0  0  0  0  0  0  0  0  0
   61.4230   32.2390   48.9900 C   0  0  0  0  0  0  0  0  0  0  0  0
   60.2610   33.6640   46.0240 C   0  0  0  0  0  0  0  0  0  0  0  0
   59.0980   34.3650   45.2960 C   0  0  0  0  0  0  0  0  0  0  0  0
   57.4480   32.3820   43.4270 C   0  0  0  0  0  0  0  0  0  0  0  0
   57.2830   31.1700   42.7570 C   0  0  0  0  0  0  0  0  0  0  0  0
   57.2050   29.9740   43.4750 C   0  0  0  0  0  0  0  0  0  0  0  0
   57.0590   28.8080   42.7960 F   0  0  0  0  0  0  0  0  0  0  0  0
   55.1390   25.7890   45.9980 N   0  0  0  0  0  0  0  0  0  0  0  0
   52.6558   22.5368   45.9852 H   0  0  0  0  0  0  0  0  0  0  0  0
   53.1296   24.1098   45.0202 H   0  0  0  0  0  0  0  0  0  0  0  0
   54.7238   22.6575   47.2202 H   0  0  0  0  0  0  0  0  0  0  0  0
   57.3609   23.2926   46.4338 H   0  0  0  0  0  0  0  0  0  0  0  0
   56.9571   34.3798   45.1705 H   0  0  0  0  0  0  0  0  0  0  0  0
   57.4079   34.5416   47.5442 H   0  0  0  0  0  0  0  0  0  0  0  0
   56.5812   32.9557   47.2426 H   0  0  0  0  0  0  0  0  0  0  0  0
   58.5132   32.8094   48.8545 H   0  0  0  0  0  0  0  0  0  0  0  0
   58.6771   31.7599   47.4007 H   0  0  0  0  0  0  0  0  0  0  0  0
   63.0976   35.5338   50.0028 H   0  0  0  0  0  0  0  0  0  0  0  0
   63.3670   30.7810   51.1380 H   0  0  0  0  0  0  0  0  0  0  0  0
   61.7089   29.1394   49.9661 H   0  0  0  0  0  0  0  0  0  0  0  0
   60.1792   30.5431   48.2546 H   0  0  0  0  0  0  0  0  0  0  0  0
   61.1614   34.2921   45.9550 H   0  0  0  0  0  0  0  0  0  0  0  0
   60.4397   32.6883   45.5486 H   0  0  0  0  0  0  0  0  0  0  0  0
   59.0551   35.4121   45.6304 H   0  0  0  0  0  0  0  0  0  0  0  0
   59.2906   34.2872   44.2158 H   0  0  0  0  0  0  0  0  0  0  0  0
   57.5219   33.3226   42.8614 H   0  0  0  0  0  0  0  0  0  0  0  0
   57.2140   31.1556   41.6593 H   0  0  0  0  0  0  0  0  0  0  0  0
  1  2  2  0
  2  3  1  0
  3  4  2  0
  4  5  1  0
  5  6  1  0
  6  7  2  3
  7  8  1  0
  8  9  2  0
  8 10  1  0
 10 11  2  0
 11 12  1  0
 12 13  1  0
 13 14  1  0
 14 15  1  0
 15 16  1  0
 16 17  1  0
 17 18  2  0
 18 19  1  0
 19 20  2  0
 20 21  1  0
 21 22  1  0
 22 23  1  0
 23 24  2  0
 24 25  1  0
 16 26  1  0
 26 27  1  0
 12 28  2  0
 28 29  1  0
 29 30  2  0
 30 31  1  0
  6 32  1  0
 32  3  1  0
 30 10  1  0
 27 13  1  0
 25 17  1  0
 25 21  2  0
  1 33  1  0
  1 34  1  0
  2 35  1  0
  4 36  1  0
 13 37  1  0
 14 38  1  0
 14 39  1  0
 15 40  1  0
 15 41  1  0
 19 42  1  0
 22 43  1  0
 23 44  1  0
 24 45  1  0
 26 46  1  0
 26 47  1  0
 27 48  1  0
 27 49  1  0
 28 50  1  0
 29 51  1  0
M  CHG  1  32  -1
M  END
>  <UniqueID>  (50) 
47

>  <SMILES>  (50) 
C=Cc1csc(=NC(=O)c2nc(C3CCN(c4ncnc5[nH]ccc45)CC3)ccc2F)[n-]1

>  <Energy>  (50) 
126.44273713146904

>  <Genealogy>  (50) 
C=Cc1csc(=NC(=O)c2nc(C3CCN(c4ncnc5[nH]ccc45)CC3)ccc2F)[n-]1 (protonated)
C=Cc1csc(=NC(=O)c2nc(C3CCN(c4ncnc5[nH]ccc45)CC3)ccc2F)[n-]1 (3D coordinates assigned)
C=Cc1csc(=NC(=O)c2nc(C3CCN(c4ncnc5[nH]ccc45)CC3)ccc2F)[n-]1 (nonaromatic ring conformer: 126.44273713146904 kcal/mol)

>  <smiles>  (50) 
C=Cc1csc(=NC(=O)c2nc(C3CCN(c4ncnc5[nH]ccc45)CC3)ccc2F)[nH]1

>  <score_type>  (50) 
oracle

>  <origin>  (50) 
adg

>  <m_score__min__energy>  (50) 
-11.619999999999999

>  <m_primary>  (50) 
energy

$$$$
50:0
     RDKit          3D

 59 62  0  0  0  0  0  0  0  0999 V2000
   62.2220   30.7800   52.3020 C   0  0  0  0  0  0  0  0  0  0  0  0
   60.9730   30.8950   51.6200 O   0  0  0  0  0  0  0  0  0  0  0  0
   60.5350   30.0120   50.6240 C   0  0  0  0  0  0  0  0  0  0  0  0
   59.2880   30.1520   49.9850 C   0  0  0  0  0  0  0  0  0  0  0  0
   58.8910   29.2390   49.0050 C   0  0  0  0  0  0  0  0  0  0  0  0
   59.7230   28.1660   48.6590 C   0  0  0  0  0  0  0  0  0  0  0  0
   59.3040   27.1910   47.5940 C   0  0  0  0  0  0  0  0  0  0  0  0
   58.2170   27.7820   46.7530 C   0  0  0  0  0  0  0  0  0  0  0  0
   57.0440   27.1430   46.3650 C   0  0  0  0  0  0  0  0  0  0  0  0
   56.2420   27.8740   45.5450 N   0  0  0  0  0  0  0  0  0  0  0  0
   56.7700   29.0870   45.2760 C   0  0  0  0  0  0  0  0  0  0  0  0
   56.1960   29.9250   44.4640 N   0  0  0  0  0  0  0  0  0  0  0  0
   56.7300   31.1900   44.0550 C   0  0  0  0  0  0  0  0  0  0  0  0
   57.2620   31.2950   42.9210 O   0  0  0  0  0  0  0  0  0  0  0  0
   56.6230   32.3430   44.8960 N   0  0  0  0  0  0  0  0  0  0  0  0
   57.7360   33.0260   45.4850 C   0  0  0  0  0  0  0  0  0  0  0  0
   58.2840   34.1300   44.8270 C   0  0  0  0  0  0  0  0  0  0  0  0
   59.3120   34.8650   45.4190 C   0  0  0  0  0  0  0  0  0  0  0  0
   59.7790   34.5190   46.6920 C   0  0  0  0  0  0  0  0  0  0  0  0
   59.2130   33.4380   47.3910 C   0  0  0  0  0  0  0  0  0  0  0  0
   59.6920   33.1360   48.7680 C   0  0  0  0  0  0  0  0  0  0  0  0
   58.8380   33.1070   49.6950 O   0  0  0  0  0  0  0  0  0  0  0  0
   61.0800   32.8440   49.0930 N   0  0  0  0  0  0  0  0  0  0  0  0
   61.7930   34.0630   49.5480 C   0  0  0  0  0  0  0  0  0  0  0  0
   63.3250   33.9100   49.4590 C   0  0  0  0  0  0  0  0  0  0  0  0
   63.6970   32.4930   49.6190 N   0  0  0  0  0  0  0  0  0  0  0  0
   65.1560   32.3540   49.7480 C   0  0  0  0  0  0  0  0  0  0  0  0
   63.2000   31.6820   48.4850 C   0  0  0  0  0  0  0  0  0  0  0  0
   61.7990   32.1320   48.0130 C   0  0  0  0  0  0  0  0  0  0  0  0
   58.2120   32.6750   46.7620 C   0  0  0  0  0  0  0  0  0  0  0  0
   58.2690   29.2960   46.0290 S   0  0  0  0  0  0  0  0  0  0  0  0
   60.9750   28.0380   49.2820 C   0  0  0  0  0  0  0  0  0  0  0  0
   61.3750   28.9540   50.2580 C   0  0  0  0  0  0  0  0  0  0  0  0
   62.0494   30.7959   53.3883 H   0  0  0  0  0  0  0  0  0  0  0  0
   62.7071   29.8334   52.0216 H   0  0  0  0  0  0  0  0  0  0  0  0
   62.8718   31.6221   52.0216 H   0  0  0  0  0  0  0  0  0  0  0  0
   58.6232   30.9845   50.2589 H   0  0  0  0  0  0  0  0  0  0  0  0
   57.9204   29.3631   48.5025 H   0  0  0  0  0  0  0  0  0  0  0  0
   60.1689   26.9547   46.9568 H   0  0  0  0  0  0  0  0  0  0  0  0
   58.9297   26.2743   48.0731 H   0  0  0  0  0  0  0  0  0  0  0  0
   56.7853   26.1262   46.6954 H   0  0  0  0  0  0  0  0  0  0  0  0
   57.9031   34.4214   43.8370 H   0  0  0  0  0  0  0  0  0  0  0  0
   59.7559   35.7176   44.8842 H   0  0  0  0  0  0  0  0  0  0  0  0
   60.5953   35.0972   47.1495 H   0  0  0  0  0  0  0  0  0  0  0  0
   61.0560   32.1810   49.9070 H   0  0  0  0  0  0  0  0  0  0  0  0
   61.4845   34.9099   48.9174 H   0  0  0  0  0  0  0  0  0  0  0  0
   61.5316   34.2328   50.6029 H   0  0  0  0  0  0  0  0  0  0  0  0
   63.6713   34.2697   48.4788 H   0  0  0  0  0  0  0  0  0  0  0  0
   63.7953   34.5008   50.2589 H   0  0  0  0  0  0  0  0  0  0  0  0
   65.4291   32.3280   50.8132 H   0  0  0  0  0  0  0  0  0  0  0  0
   65.4797   31.4210   49.2636 H   0  0  0  0  0  0  0  0  0  0  0  0
   65.6501   33.2091   49.2636 H   0  0  0  0  0  0  0  0  0  0  0  0
   63.9042   31.7784   47.6455 H   0  0  0  0  0  0  0  0  0  0  0  0
   63.1219   30.6389   48.8254 H   0  0  0  0  0  0  0  0  0  0  0  0
   61.9089   32.8046   47.1496 H   0  0  0  0  0  0  0  0  0  0  0  0
   61.2192   31.2397   47.7344 H   0  0  0  0  0  0  0  0  0  0  0  0
   57.7969   31.7944   47.2741 H   0  0  0  0  0  0  0  0  0  0  0  0
   61.6444   27.2120   49.0000 H   0  0  0  0  0  0  0  0  0  0  0  0
   62.3565   28.8430   50.7420 H   0  0  0  0  0  0  0  0  0  0  0  0
  1  2  1  0
  2  3  1  0
  3  4  2  0
  4  5  1  0
  5  6  2  0
  6  7  1  0
  7  8  1  0
  8  9  2  0
  9 10  1  0
 10 11  1  0
 11 12  2  3
 12 13  1  0
 13 14  2  0
 13 15  1  0
 15 16  1  0
 16 17  2  0
 17 18  1  0
 18 19  2  0
 19 20  1  0
 20 21  1  0
 21 22  2  0
 21 23  1  0
 23 24  1  0
 24 25  1  0
 25 26  1  0
 26 27  1  0
 26 28  1  0
 28 29  1  0
 20 30  2  0
 11 31  1  0
  6 32  1  0
 32 33  2  0
 33  3  1  0
 31  8  1  0
 30 16  1  0
 29 23  1  0
  1 34  1  0
  1 35  1  0
  1 36  1  0
  4 37  1  0
  5 38  1  0
  7 39  1  0
  7 40  1  0
  9 41  1  0
 17 42  1  0
 18 43  1  0
 19 44  1  0
 23 45  1  0
 24 46  1  0
 24 47  1  0
 25 48  1  0
 25 49  1  0
 27 50  1  0
 27 51  1  0
 27 52  1  0
 28 53  1  0
 28 54  1  0
 29 55  1  0
 29 56  1  0
 30 57  1  0
 32 58  1  0
 33 59  1  0
M  CHG  3  10  -1  15  -1  23   1
M  END
>  <UniqueID>  (51) 
48

>  <SMILES>  (51) 
COc1ccc(Cc2c[n-]c(=NC(=O)[N-]c3cccc(C(=O)[NH+]4CCN(C)CC4)c3)s2)cc1

>  <Energy>  (51) 
112.19372154840994

>  <Genealogy>  (51) 
COc1ccc(Cc2c[n-]c(=NC(=O)[N-]c3cccc(C(=O)[NH+]4CCN(C)CC4)c3)s2)cc1 (protonated)
COc1ccc(Cc2c[n-]c(=NC(=O)[N-]c3cccc(C(=O)[NH+]4CCN(C)CC4)c3)s2)cc1 (3D coordinates assigned)
COc1ccc(Cc2c[n-]c(=NC(=O)[N-]c3cccc(C(=O)[NH+]4CCN(C)CC4)c3)s2)cc1 (nonaromatic ring conformer: 112.19372154840994 kcal/mol)

>  <smiles>  (51) 
COc1ccc(Cc2c[nH]c(=NC(=O)Nc3cccc(C(=O)N4CCN(C)CC4)c3)s2)cc1

>  <score_type>  (51) 
oracle

>  <origin>  (51) 
adg

>  <m_score__min__energy>  (51) 
-9.8300000000000001

>  <m_primary>  (51) 
energy

$$$$
51:0
     RDKit          3D

 52 53  0  0  0  0  0  0  0  0999 V2000
   60.6530   28.9620   45.3330 C   0  0  0  0  0  0  0  0  0  0  0  0
   59.6190   28.2560   46.2050 C   0  0  0  0  0  0  0  0  0  0  0  0
   58.1720   28.4550   45.7190 C   0  0  0  0  0  0  0  0  0  0  0  0
   58.0560   29.2390   44.3980 C   0  0  0  0  0  0  0  0  0  0  0  0
   56.4810   30.0760   44.1790 S   0  0  0  0  0  0  0  0  0  0  0  0
   55.3780   29.3240   44.8700 O   0  0  0  0  0  0  0  0  0  0  0  0
   56.1480   30.1870   42.7180 O   0  0  0  0  0  0  0  0  0  0  0  0
   56.5700   31.6640   44.8700 N   0  0  0  0  0  0  0  0  0  0  0  0
   57.7580   32.2850   45.3790 C   0  0  0  0  0  0  0  0  0  0  0  0
   58.2310   33.5120   44.8880 C   0  0  0  0  0  0  0  0  0  0  0  0
   59.3940   34.0810   45.4120 C   0  0  0  0  0  0  0  0  0  0  0  0
   60.1110   33.4340   46.4360 C   0  0  0  0  0  0  0  0  0  0  0  0
   61.2870   33.9810   46.9830 O   0  0  0  0  0  0  0  0  0  0  0  0
   62.6010   33.8400   46.4460 C   0  0  0  0  0  0  0  0  0  0  0  0
   63.3750   32.7490   47.1880 C   0  0  0  0  0  0  0  0  0  0  0  0
   64.0830   33.3080   48.2780 O   0  0  0  0  0  0  0  0  0  0  0  0
   63.2140   33.5180   49.3700 C   0  0  0  0  0  0  0  0  0  0  0  0
   59.6360   32.2020   46.9350 C   0  0  0  0  0  0  0  0  0  0  0  0
   60.3450   31.4810   48.0560 C   0  0  0  0  0  0  0  0  0  0  0  0
   59.4880   31.4540   49.2880 C   0  0  0  0  0  0  0  0  0  0  0  0
   58.8000   30.3750   49.6990 N   0  0  0  0  0  0  0  0  0  0  0  0
   58.1100   30.8010   50.7740 C   0  0  0  0  0  0  0  0  0  0  0  0
   57.3390   30.0550   51.4330 O   0  0  0  0  0  0  0  0  0  0  0  0
   58.3100   32.1000   51.0750 N   0  0  0  0  0  0  0  0  0  0  0  0
   59.1880   32.5090   50.1360 C   0  0  0  0  0  0  0  0  0  0  0  0
   59.6580   33.9220   50.0100 C   0  0  0  0  0  0  0  0  0  0  0  0
   58.4620   31.6430   46.4010 C   0  0  0  0  0  0  0  0  0  0  0  0
   61.3910   29.4659   45.9745 H   0  0  0  0  0  0  0  0  0  0  0  0
   61.1632   28.2228   44.6979 H   0  0  0  0  0  0  0  0  0  0  0  0
   60.1503   29.7063   44.6979 H   0  0  0  0  0  0  0  0  0  0  0  0
   59.8413   27.1787   46.2067 H   0  0  0  0  0  0  0  0  0  0  0  0
   59.6874   28.6959   47.2109 H   0  0  0  0  0  0  0  0  0  0  0  0
   57.7166   27.4642   45.5742 H   0  0  0  0  0  0  0  0  0  0  0  0
   57.6574   29.0499   46.4879 H   0  0  0  0  0  0  0  0  0  0  0  0
   58.8553   29.9944   44.3730 H   0  0  0  0  0  0  0  0  0  0  0  0
   58.1411   28.5041   43.5839 H   0  0  0  0  0  0  0  0  0  0  0  0
   57.6828   34.0282   44.0862 H   0  0  0  0  0  0  0  0  0  0  0  0
   59.7531   35.0442   45.0206 H   0  0  0  0  0  0  0  0  0  0  0  0
   62.5291   33.5713   45.3818 H   0  0  0  0  0  0  0  0  0  0  0  0
   63.1351   34.7944   46.5638 H   0  0  0  0  0  0  0  0  0  0  0  0
   62.6689   31.9932   47.5625 H   0  0  0  0  0  0  0  0  0  0  0  0
   64.0914   32.2829   46.4956 H   0  0  0  0  0  0  0  0  0  0  0  0
   63.7682   33.3841   50.3107 H   0  0  0  0  0  0  0  0  0  0  0  0
   62.8092   34.5398   49.3252 H   0  0  0  0  0  0  0  0  0  0  0  0
   62.3872   32.7938   49.3252 H   0  0  0  0  0  0  0  0  0  0  0  0
   60.5616   30.4490   47.7429 H   0  0  0  0  0  0  0  0  0  0  0  0
   61.2808   32.0119   48.2849 H   0  0  0  0  0  0  0  0  0  0  0  0
   58.7880   29.4230   49.2700 H   0  0  0  0  0  0  0  0  0  0  0  0
   59.8009   34.3517   51.0125 H   0  0  0  0  0  0  0  0  0  0  0  0
   60.6118   33.9437   49.4624 H   0  0  0  0  0  0  0  0  0  0  0  0
   58.9073   34.5107   49.4624 H   0  0  0  0  0  0  0  0  0  0  0  0
   58.0916   30.6847   46.7940 H   0  0  0  0  0  0  0  0  0  0  0  0
  1  2  1  0
  2  3  1  0
  3  4  1  0
  4  5  1  0
  5  6  2  0
  5  7  2  0
  5  8  1  0
  8  9  1  0
  9 10  2  0
 10 11  1  0
 11 12  2  0
 12 13  1  0
 13 14  1  0
 14 15  1  0
 15 16  1  0
 16 17  1  0
 12 18  1  0
 18 19  1  0
 19 20  1  0
 20 21  1  0
 21 22  1  0
 22 23  2  0
 22 24  1  0
 24 25  1  0
 25 26  1  0
 18 27  2  0
 27  9  1  0
 25 20  2  0
  1 28  1  0
  1 29  1  0
  1 30  1  0
  2 31  1  0
  2 32  1  0
  3 33  1  0
  3 34  1  0
  4 35  1  0
  4 36  1  0
 10 37  1  0
 11 38  1  0
 14 39  1  0
 14 40  1  0
 15 41  1  0
 15 42  1  0
 17 43  1  0
 17 44  1  0
 17 45  1  0
 19 46  1  0
 19 47  1  0
 21 48  1  0
 26 49  1  0
 26 50  1  0
 26 51  1  0
 27 52  1  0
M  CHG  2   8  -1  24  -1
M  END
>  <UniqueID>  (52) 
49

>  <SMILES>  (52) 
CCCCS(=O)(=O)[N-]c1ccc(OCCOC)c(Cc2[nH]c(=O)[n-]c2C)c1

>  <Energy>  (52) 
75.62069079784477

>  <Genealogy>  (52) 
CCCCS(=O)(=O)[N-]c1ccc(OCCOC)c(Cc2[nH]c(=O)[n-]c2C)c1 (protonated)
CCCCS(=O)(=O)[N-]c1ccc(OCCOC)c(Cc2[nH]c(=O)[n-]c2C)c1 (3D coordinates assigned)
CCCCS(=O)(=O)[N-]c1ccc(OCCOC)c(Cc2[nH]c(=O)[n-]c2C)c1 (optimized conformer: 75.62069079784477 kcal/mol)

>  <smiles>  (52) 
CCCCS(=O)(=O)Nc1ccc(OCCOC)c(Cc2[nH]c(=O)[nH]c2C)c1

>  <score_type>  (52) 
oracle

>  <origin>  (52) 
adg

>  <m_score__min__energy>  (52) 
-10.44

>  <m_primary>  (52) 
energy

$$$$
52:0
     RDKit          3D

 34 35  0  0  0  0  0  0  0  0999 V2000
   57.0159   24.6669   47.3844 H   0  0  0  0  0  0  0  0  0  0  0  0
   57.3280   25.5970   46.8870 C   0  0  0  0  0  0  0  0  0  0  0  0
   56.3340   26.6280   46.0110 S   0  0  0  0  0  0  0  0  0  0  0  0
   57.5210   27.7570   45.6070 C   0  0  0  0  0  0  0  0  0  0  0  0
   57.3130   28.9860   44.8010 C   0  0  0  0  0  0  0  0  0  0  0  0
   58.0560   29.1760   43.5870 N   0  0  0  0  0  0  0  0  0  0  0  0
   58.8180   28.5210   43.3090 H   0  0  0  0  0  0  0  0  0  0  0  0
   57.8870   29.9960   42.9640 H   0  0  0  0  0  0  0  0  0  0  0  0
   56.4620   29.8930   45.1930 N   0  0  0  0  0  0  0  0  0  0  0  0
   55.8600   29.7220   46.0290 H   0  0  0  0  0  0  0  0  0  0  0  0
   56.3320   31.0840   44.5030 O   0  0  0  0  0  0  0  0  0  0  0  0
   57.3410   32.0500   44.4830 C   0  0  0  0  0  0  0  0  0  0  0  0
   58.4710   31.7920   43.9850 O   0  0  0  0  0  0  0  0  0  0  0  0
   57.0840   33.3950   45.0910 C   0  0  0  0  0  0  0  0  0  0  0  0
   57.6684   34.1510   44.5461 H   0  0  0  0  0  0  0  0  0  0  0  0
   56.0067   33.6057   45.0192 H   0  0  0  0  0  0  0  0  0  0  0  0
   57.4830   33.4290   46.5720 C   0  0  0  0  0  0  0  0  0  0  0  0
   57.2540   34.4246   46.9799 H   0  0  0  0  0  0  0  0  0  0  0  0
   56.9154   32.6470   47.0977 H   0  0  0  0  0  0  0  0  0  0  0  0
   58.9520   33.1500   46.7610 C   0  0  0  0  0  0  0  0  0  0  0  0
   59.3850   31.8730   47.1570 C   0  0  0  0  0  0  0  0  0  0  0  0
   58.6511   31.0670   47.3047 H   0  0  0  0  0  0  0  0  0  0  0  0
   60.7450   31.6230   47.3640 C   0  0  0  0  0  0  0  0  0  0  0  0
   61.0787   30.6200   47.6683 H   0  0  0  0  0  0  0  0  0  0  0  0
   61.6810   32.6450   47.1850 C   0  0  0  0  0  0  0  0  0  0  0  0
   62.7507   32.4455   47.3462 H   0  0  0  0  0  0  0  0  0  0  0  0
   61.2580   33.9210   46.8010 C   0  0  0  0  0  0  0  0  0  0  0  0
   61.9952   34.7256   46.6630 H   0  0  0  0  0  0  0  0  0  0  0  0
   59.8980   34.1760   46.5920 C   0  0  0  0  0  0  0  0  0  0  0  0
   59.5682   35.1824   46.2946 H   0  0  0  0  0  0  0  0  0  0  0  0
   58.7240   27.3240   46.1630 C   0  0  0  0  0  0  0  0  0  0  0  0
   59.6707   27.8734   46.0535 H   0  0  0  0  0  0  0  0  0  0  0  0
   58.6120   26.1230   46.8740 C   0  0  0  0  0  0  0  0  0  0  0  0
   59.4636   25.6407   47.3761 H   0  0  0  0  0  0  0  0  0  0  0  0
  1  2  1  0
  2  3  1  0
  3  4  1  0
  4  5  1  0
  5  6  1  0
  6  7  1  0
  6  8  1  0
  5  9  2  0
  9 10  1  0
  9 11  1  0
 11 12  1  0
 12 13  2  0
 12 14  1  0
 14 15  1  0
 14 16  1  0
 14 17  1  0
 17 18  1  0
 17 19  1  0
 17 20  1  0
 20 21  2  0
 21 22  1  0
 21 23  1  0
 23 24  1  0
 23 25  2  0
 25 26  1  0
 25 27  1  0
 27 28  1  0
 27 29  2  0
 29 30  1  0
  4 31  2  0
 31 32  1  0
 31 33  1  0
 33 34  1  0
 33  2  2  0
 29 20  1  0
M  CHG  1   9   1
M  END
>  <UniqueID>  (53) 
50

>  <SMILES>  (53) 
N/C(=[NH+]\OC(=O)CCc1ccccc1)c1cccs1

>  <Energy>  (53) 
55.433109247992945

>  <Genealogy>  (53) 
NC(=[NH+]OC(=O)CCc1ccccc1)c1cccs1 (protonated)
N/C(=[NH+]\OC(=O)CCc1ccccc1)c1cccs1 (cis-trans isomerization)
N/C(=[NH+]\OC(=O)CCc1ccccc1)c1cccs1 (3D coordinates assigned)
N/C(=[NH+]\OC(=O)CCc1ccccc1)c1cccs1 (optimized conformer: 55.433109247992945 kcal/mol)

>  <smiles>  (53) 
NC(=NOC(=O)CCc1ccccc1)c1cccs1

>  <score_type>  (53) 
oracle

>  <origin>  (53) 
adg

>  <m_score__min__energy>  (53) 
-5.6200000000000001

>  <m_primary>  (53) 
energy

$$$$
53:0
     RDKit          3D

 48 51  0  0  0  0  0  0  0  0999 V2000
   59.3180   35.3030   47.3700 C   0  0  0  0  0  0  0  0  0  0  0  0
   59.1550   33.8870   47.0510 N   0  0  0  0  0  0  0  0  0  0  0  0
   58.1510   33.4070   46.1700 C   0  0  0  0  0  0  0  0  0  0  0  0
   57.0840   34.0230   45.9090 O   0  0  0  0  0  0  0  0  0  0  0  0
   58.6490   32.2080   45.5240 C   0  0  0  0  0  0  0  0  0  0  0  0
   58.0690   31.4290   44.6010 C   0  0  0  0  0  0  0  0  0  0  0  0
   57.9900   29.9570   44.6800 C   0  0  0  0  0  0  0  0  0  0  0  0
   56.9150   29.3200   45.3170 C   0  0  0  0  0  0  0  0  0  0  0  0
   56.8800   27.9260   45.4220 C   0  0  0  0  0  0  0  0  0  0  0  0
   57.9340   27.1460   44.9140 C   0  0  0  0  0  0  0  0  0  0  0  0
   57.9040   25.6660   45.0110 C   0  0  0  0  0  0  0  0  0  0  0  0
   58.9020   25.0550   45.4810 O   0  0  0  0  0  0  0  0  0  0  0  0
   56.7350   24.9240   44.6210 N   0  0  0  0  0  0  0  0  0  0  0  0
   56.7530   23.5220   44.3000 C   0  0  0  0  0  0  0  0  0  0  0  0
   56.6310   23.0770   42.9700 C   0  0  0  0  0  0  0  0  0  0  0  0
   56.6270   21.7090   42.6800 C   0  0  0  0  0  0  0  0  0  0  0  0
   56.7330   20.7740   43.7110 C   0  0  0  0  0  0  0  0  0  0  0  0
   56.8370   21.2030   45.0360 C   0  0  0  0  0  0  0  0  0  0  0  0
   56.8400   22.5710   45.3340 C   0  0  0  0  0  0  0  0  0  0  0  0
   56.9440   22.9680   46.6260 F   0  0  0  0  0  0  0  0  0  0  0  0
   59.0190   27.7920   44.2950 C   0  0  0  0  0  0  0  0  0  0  0  0
   59.0520   29.1860   44.1920 C   0  0  0  0  0  0  0  0  0  0  0  0
   59.9770   32.0070   45.9920 N   0  0  0  0  0  0  0  0  0  0  0  0
   60.2350   32.9550   46.8460 C   0  0  0  0  0  0  0  0  0  0  0  0
   61.5310   33.0220   47.5530 C   0  0  0  0  0  0  0  0  0  0  0  0
   62.7310   33.1350   46.8350 C   0  0  0  0  0  0  0  0  0  0  0  0
   63.9530   33.2190   47.5100 C   0  0  0  0  0  0  0  0  0  0  0  0
   63.9830   33.2030   48.9070 C   0  0  0  0  0  0  0  0  0  0  0  0
   62.7910   33.1100   49.6300 C   0  0  0  0  0  0  0  0  0  0  0  0
   61.5670   33.0270   48.9580 C   0  0  0  0  0  0  0  0  0  0  0  0
   59.3330   35.4334   48.4621 H   0  0  0  0  0  0  0  0  0  0  0  0
   60.2641   35.6683   46.9441 H   0  0  0  0  0  0  0  0  0  0  0  0
   58.4796   35.8737   46.9441 H   0  0  0  0  0  0  0  0  0  0  0  0
   57.6211   31.9199   43.7244 H   0  0  0  0  0  0  0  0  0  0  0  0
   56.0945   29.9206   45.7365 H   0  0  0  0  0  0  0  0  0  0  0  0
   56.0219   27.4361   45.9054 H   0  0  0  0  0  0  0  0  0  0  0  0
   55.8100   25.4050   44.6770 H   0  0  0  0  0  0  0  0  0  0  0  0
   56.5383   23.8093   42.1545 H   0  0  0  0  0  0  0  0  0  0  0  0
   56.5402   21.3691   41.6374 H   0  0  0  0  0  0  0  0  0  0  0  0
   56.7346   19.6986   43.4797 H   0  0  0  0  0  0  0  0  0  0  0  0
   56.9167   20.4645   45.8473 H   0  0  0  0  0  0  0  0  0  0  0  0
   59.8489   27.1954   43.8883 H   0  0  0  0  0  0  0  0  0  0  0  0
   59.9170   29.6797   43.7250 H   0  0  0  0  0  0  0  0  0  0  0  0
   62.7106   33.1576   45.7354 H   0  0  0  0  0  0  0  0  0  0  0  0
   64.8910   33.2977   46.9409 H   0  0  0  0  0  0  0  0  0  0  0  0
   64.9448   33.2636   49.4373 H   0  0  0  0  0  0  0  0  0  0  0  0
   62.8152   33.1020   50.7297 H   0  0  0  0  0  0  0  0  0  0  0  0
   60.6299   32.9655   49.5308 H   0  0  0  0  0  0  0  0  0  0  0  0
  1  2  1  0
  2  3  1  0
  3  4  2  0
  3  5  1  0
  5  6  2  3
  6  7  1  0
  7  8  2  0
  8  9  1  0
  9 10  2  0
 10 11  1  0
 11 12  2  0
 11 13  1  0
 13 14  1  0
 14 15  2  0
 15 16  1  0
 16 17  2  0
 17 18  1  0
 18 19  2  0
 19 20  1  0
 10 21  1  0
 21 22  2  0
  5 23  1  0
 23 24  2  0
 24 25  1  0
 25 26  2  0
 26 27  1  0
 27 28  2  0
 28 29  1  0
 29 30  2  0
 24  2  1  0
 30 25  1  0
 22  7  1  0
 19 14  1  0
  1 31  1  0
  1 32  1  0
  1 33  1  0
  6 34  1  0
  8 35  1  0
  9 36  1  0
 13 37  1  0
 15 38  1  0
 16 39  1  0
 17 40  1  0
 18 41  1  0
 21 42  1  0
 22 43  1  0
 26 44  1  0
 27 45  1  0
 28 46  1  0
 29 47  1  0
 30 48  1  0
M  END
>  <UniqueID>  (54) 
51

>  <SMILES>  (54) 
CN1C(=O)C(=Cc2ccc(C(=O)Nc3ccccc3F)cc2)N=C1c1ccccc1

>  <Energy>  (54) 
97.47720039172725

>  <Genealogy>  (54) 
CN1C(=O)C(=Cc2ccc(C(=O)Nc3ccccc3F)cc2)N=C1c1ccccc1 (3D coordinates assigned)
CN1C(=O)C(=Cc2ccc(C(=O)Nc3ccccc3F)cc2)N=C1c1ccccc1 (nonaromatic ring conformer: 97.47720039172725 kcal/mol)

>  <smiles>  (54) 
CN1C(=O)C(=Cc2ccc(C(=O)Nc3ccccc3F)cc2)N=C1c1ccccc1

>  <score_type>  (54) 
oracle

>  <origin>  (54) 
adg

>  <m_score__min__energy>  (54) 
-9.0099999999999998

>  <m_primary>  (54) 
energy

$$$$
54:0
     RDKit          3D

 31 32  0  0  0  0  0  0  0  0999 V2000
   58.0730   32.2990   41.7990 C   0  0  0  0  0  0  0  0  0  0  0  0
   57.7670   32.1620   43.0920 C   0  0  0  0  0  0  0  0  0  0  0  0
   58.0770   33.0690   44.0860 C   0  0  0  0  0  0  0  0  0  0  0  0
   57.5780   32.5180   45.2520 C   0  0  0  0  0  0  0  0  0  0  0  0
   57.7090   33.1070   46.6190 C   0  0  0  0  0  0  0  0  0  0  0  0
   58.9490   33.9350   46.6820 C   0  0  0  0  0  0  0  0  0  0  0  0
   58.8940   35.1070   47.1460 O   0  0  0  0  0  0  0  0  0  0  0  0
   60.1900   33.3860   46.2140 N   0  0  0  0  0  0  0  0  0  0  0  0
   61.3790   33.8920   46.3750 C   0  0  0  0  0  0  0  0  0  0  0  0
   62.2610   33.5930   47.5240 C   0  0  0  0  0  0  0  0  0  0  0  0
   61.8790   33.9880   48.8110 C   0  0  0  0  0  0  0  0  0  0  0  0
   62.7270   33.7490   49.8950 C   0  0  0  0  0  0  0  0  0  0  0  0
   63.9620   33.1370   49.6760 C   0  0  0  0  0  0  0  0  0  0  0  0
   64.3370   32.7860   48.4160 N   0  0  0  0  0  0  0  0  0  0  0  0
   63.5270   33.0080   47.3450 C   0  0  0  0  0  0  0  0  0  0  0  0
   57.0090   31.3580   45.0050 O   0  0  0  0  0  0  0  0  0  0  0  0
   57.1000   31.1130   43.7180 C   0  0  0  0  0  0  0  0  0  0  0  0
   56.6130   30.0070   43.1530 C   0  0  0  0  0  0  0  0  0  0  0  0
   57.7824   31.5194   41.0794 H   0  0  0  0  0  0  0  0  0  0  0  0
   58.6156   33.1914   41.4538 H   0  0  0  0  0  0  0  0  0  0  0  0
   58.6078   34.0259   43.9741 H   0  0  0  0  0  0  0  0  0  0  0  0
   56.8341   33.7386   46.8325 H   0  0  0  0  0  0  0  0  0  0  0  0
   57.7663   32.3000   47.3643 H   0  0  0  0  0  0  0  0  0  0  0  0
   61.7513   34.5863   45.6073 H   0  0  0  0  0  0  0  0  0  0  0  0
   60.9113   34.4865   48.9690 H   0  0  0  0  0  0  0  0  0  0  0  0
   62.4242   34.0404   50.9116 H   0  0  0  0  0  0  0  0  0  0  0  0
   64.6338   32.9379   50.5240 H   0  0  0  0  0  0  0  0  0  0  0  0
   65.2710   32.3430   48.2670 H   0  0  0  0  0  0  0  0  0  0  0  0
   63.8640   32.7288   46.3358 H   0  0  0  0  0  0  0  0  0  0  0  0
   56.7166   29.8518   42.0690 H   0  0  0  0  0  0  0  0  0  0  0  0
   56.1078   29.2503   43.7712 H   0  0  0  0  0  0  0  0  0  0  0  0
  1  2  2  0
  2  3  1  0
  3  4  2  0
  4  5  1  0
  5  6  1  0
  6  7  2  0
  6  8  1  0
  8  9  2  3
  9 10  1  0
 10 11  2  0
 11 12  1  0
 12 13  2  0
 13 14  1  0
 14 15  2  0
  4 16  1  0
 16 17  1  0
 17 18  2  0
 17  2  1  0
 15 10  1  0
  1 19  1  0
  1 20  1  0
  3 21  1  0
  5 22  1  0
  5 23  1  0
  9 24  1  0
 11 25  1  0
 12 26  1  0
 13 27  1  0
 14 28  1  0
 15 29  1  0
 18 30  1  0
 18 31  1  0
M  CHG  1  14   1
M  END
>  <UniqueID>  (55) 
52

>  <SMILES>  (55) 
C=c1cc(CC(=O)N=Cc2ccc[nH+]c2)oc1=C

>  <Energy>  (55) 
65.04185316880094

>  <Genealogy>  (55) 
C=c1cc(CC(=O)N=Cc2ccc[nH+]c2)oc1=C (protonated)
C=c1cc(CC(=O)N=Cc2ccc[nH+]c2)oc1=C (3D coordinates assigned)
C=c1cc(CC(=O)N=Cc2ccc[nH+]c2)oc1=C (optimized conformer: 65.04185316880094 kcal/mol)

>  <smiles>  (55) 
C=c1cc(CC(=O)N=Cc2cccnc2)oc1=C

>  <score_type>  (55) 
oracle

>  <origin>  (55) 
adg

>  <m_score__min__energy>  (55) 
-5.9699999999999998

>  <m_primary>  (55) 
energy

$$$$
55:0
     RDKit          3D

 40 42  0  0  0  0  0  0  0  0999 V2000
   56.9810   34.0650   45.2350 C   0  0  0  0  0  0  0  0  0  0  0  0
   58.2980   33.6330   45.7160 N   0  0  0  0  0  0  0  0  0  0  0  0
   59.2050   34.6210   46.3230 C   0  0  0  0  0  0  0  0  0  0  0  0
   59.3910   34.3350   48.1200 S   0  0  0  0  0  0  0  0  0  0  0  0
   61.1200   33.8660   48.0200 C   0  0  0  0  0  0  0  0  0  0  0  0
   61.7600   33.8110   46.7750 C   0  0  0  0  0  0  0  0  0  0  0  0
   63.1050   33.4360   46.6960 C   0  0  0  0  0  0  0  0  0  0  0  0
   63.8140   33.1230   47.8600 C   0  0  0  0  0  0  0  0  0  0  0  0
   63.1790   33.1880   49.1050 C   0  0  0  0  0  0  0  0  0  0  0  0
   61.8340   33.5620   49.1850 C   0  0  0  0  0  0  0  0  0  0  0  0
   58.6570   32.2380   45.5760 C   0  0  0  0  0  0  0  0  0  0  0  0
   59.4020   31.7040   46.4440 O   0  0  0  0  0  0  0  0  0  0  0  0
   58.2210   31.4010   44.3970 C   0  0  0  0  0  0  0  0  0  0  0  0
   57.6000   30.1020   44.8490 C   0  0  0  0  0  0  0  0  0  0  0  0
   56.2440   30.0080   44.8500 N   0  0  0  0  0  0  0  0  0  0  0  0
   55.6080   28.8970   45.2220 N   0  0  0  0  0  0  0  0  0  0  0  0
   56.2810   27.7900   45.6180 C   0  0  0  0  0  0  0  0  0  0  0  0
   55.6310   26.7640   45.9620 O   0  0  0  0  0  0  0  0  0  0  0  0
   57.6840   27.8000   45.6390 C   0  0  0  0  0  0  0  0  0  0  0  0
   58.4210   26.6690   46.0390 C   0  0  0  0  0  0  0  0  0  0  0  0
   59.8160   26.7020   46.0460 C   0  0  0  0  0  0  0  0  0  0  0  0
   60.4910   27.8580   45.6550 C   0  0  0  0  0  0  0  0  0  0  0  0
   59.7770   28.9900   45.2570 C   0  0  0  0  0  0  0  0  0  0  0  0
   58.3660   28.9780   45.2440 C   0  0  0  0  0  0  0  0  0  0  0  0
   56.3288   34.2789   46.0946 H   0  0  0  0  0  0  0  0  0  0  0  0
   57.0933   34.9734   44.6249 H   0  0  0  0  0  0  0  0  0  0  0  0
   56.5335   33.2666   44.6249 H   0  0  0  0  0  0  0  0  0  0  0  0
   60.1920   34.5435   45.8436 H   0  0  0  0  0  0  0  0  0  0  0  0
   58.7776   35.6234   46.1730 H   0  0  0  0  0  0  0  0  0  0  0  0
   61.2046   34.0628   45.8595 H   0  0  0  0  0  0  0  0  0  0  0  0
   63.6055   33.3872   45.7177 H   0  0  0  0  0  0  0  0  0  0  0  0
   64.8712   32.8256   47.7968 H   0  0  0  0  0  0  0  0  0  0  0  0
   63.7377   32.9449   50.0208 H   0  0  0  0  0  0  0  0  0  0  0  0
   61.3365   33.6174   50.1645 H   0  0  0  0  0  0  0  0  0  0  0  0
   57.4826   31.9662   43.8094 H   0  0  0  0  0  0  0  0  0  0  0  0
   59.1071   31.1697   43.7877 H   0  0  0  0  0  0  0  0  0  0  0  0
   57.8941   25.7541   46.3478 H   0  0  0  0  0  0  0  0  0  0  0  0
   60.3844   25.8144   46.3606 H   0  0  0  0  0  0  0  0  0  0  0  0
   61.5908   27.8781   45.6602 H   0  0  0  0  0  0  0  0  0  0  0  0
   60.3183   29.8976   44.9514 H   0  0  0  0  0  0  0  0  0  0  0  0
  1  2  1  0
  2  3  1  0
  3  4  1  0
  4  5  1  0
  5  6  2  0
  6  7  1  0
  7  8  2  0
  8  9  1  0
  9 10  2  0
  2 11  1  0
 11 12  2  0
 11 13  1  0
 13 14  1  0
 14 15  2  0
 15 16  1  0
 16 17  1  0
 17 18  2  0
 17 19  1  0
 19 20  2  0
 20 21  1  0
 21 22  2  0
 22 23  1  0
 23 24  2  0
 10  5  1  0
 24 14  1  0
 24 19  1  0
  1 25  1  0
  1 26  1  0
  1 27  1  0
  3 28  1  0
  3 29  1  0
  6 30  1  0
  7 31  1  0
  8 32  1  0
  9 33  1  0
 10 34  1  0
 13 35  1  0
 13 36  1  0
 20 37  1  0
 21 38  1  0
 22 39  1  0
 23 40  1  0
M  CHG  1  16  -1
M  END
>  <UniqueID>  (56) 
53

>  <SMILES>  (56) 
CN(CSc1ccccc1)C(=O)Cc1n[n-]c(=O)c2ccccc12

>  <Energy>  (56) 
43.20067529291063

>  <Genealogy>  (56) 
CN(CSc1ccccc1)C(=O)Cc1n[n-]c(=O)c2ccccc12 (protonated)
CN(CSc1ccccc1)C(=O)Cc1n[n-]c(=O)c2ccccc12 (3D coordinates assigned)
CN(CSc1ccccc1)C(=O)Cc1n[n-]c(=O)c2ccccc12 (optimized conformer: 43.20067529291063 kcal/mol)

>  <smiles>  (56) 
CN(CSc1ccccc1)C(=O)Cc1n[nH]c(=O)c2ccccc12

>  <score_type>  (56) 
oracle

>  <origin>  (56) 
adg

>  <m_score__min__energy>  (56) 
-11.48

>  <m_primary>  (56) 
energy

$$$$
56:0
     RDKit          3D

 59 62  0  0  0  0  0  0  0  0999 V2000
   52.6750   30.8140   55.2130 C   0  0  0  0  0  0  0  0  0  0  0  0
   53.4960   30.4740   54.2060 C   0  0  0  0  0  0  0  0  0  0  0  0
   53.1110   30.1910   52.8920 C   0  0  0  0  0  0  0  0  0  0  0  0
   51.8630   30.1930   52.3830 C   0  0  0  0  0  0  0  0  0  0  0  0
   51.5130   30.7350   51.0580 C   0  0  0  0  0  0  0  0  0  0  0  0
   51.4210   29.9760   49.9520 N   0  0  0  0  0  0  0  0  0  0  0  0
   51.0200   30.8500   49.0040 C   0  0  0  0  0  0  0  0  0  0  0  0
   50.8330   30.5120   47.8070 O   0  0  0  0  0  0  0  0  0  0  0  0
   50.8270   32.1120   49.4410 N   0  0  0  0  0  0  0  0  0  0  0  0
   51.1310   32.0220   50.7450 C   0  0  0  0  0  0  0  0  0  0  0  0
   51.0120   33.0820   51.6360 O   0  0  0  0  0  0  0  0  0  0  0  0
   54.2660   29.8260   52.2220 C   0  0  0  0  0  0  0  0  0  0  0  0
   55.3050   29.9110   53.1260 C   0  0  0  0  0  0  0  0  0  0  0  0
   56.6860   29.4550   52.8400 C   0  0  0  0  0  0  0  0  0  0  0  0
   56.9640   28.2300   52.9480 O   0  0  0  0  0  0  0  0  0  0  0  0
   57.6960   30.3640   52.3570 N   0  0  0  0  0  0  0  0  0  0  0  0
   57.8390   31.7150   52.9090 C   0  0  0  0  0  0  0  0  0  0  0  0
   58.0450   32.7330   51.7750 C   0  0  0  0  0  0  0  0  0  0  0  0
   58.8700   32.2060   50.6590 N   0  0  0  0  0  0  0  0  0  0  0  0
   58.2830   32.3150   49.3040 C   0  0  0  0  0  0  0  0  0  0  0  0
   59.0640   31.5970   48.2360 C   0  0  0  0  0  0  0  0  0  0  0  0
   60.3790   31.8800   48.0190 N   0  0  0  0  0  0  0  0  0  0  0  0
   60.8500   30.8250   46.8280 S   0  0  0  0  0  0  0  0  0  0  0  0
   59.3880   30.0570   46.6140 C   0  0  0  0  0  0  0  0  0  0  0  0
   59.0980   28.9020   45.6760 C   0  0  0  0  0  0  0  0  0  0  0  0
   60.3660   28.5800   44.8680 C   0  0  0  0  0  0  0  0  0  0  0  0
   58.6740   27.6530   46.4750 C   0  0  0  0  0  0  0  0  0  0  0  0
   57.9570   29.2890   44.7160 C   0  0  0  0  0  0  0  0  0  0  0  0
   58.5100   30.5910   47.4930 N   0  0  0  0  0  0  0  0  0  0  0  0
   59.6400   30.9760   50.9370 C   0  0  0  0  0  0  0  0  0  0  0  0
   58.7650   29.8450   51.4990 C   0  0  0  0  0  0  0  0  0  0  0  0
   54.8420   30.3300   54.3300 N   0  0  0  0  0  0  0  0  0  0  0  0
   55.6440   30.5390   55.5420 C   0  0  0  0  0  0  0  0  0  0  0  0
   53.0858   31.0164   56.2131 H   0  0  0  0  0  0  0  0  0  0  0  0
   51.5917   30.8901   55.0377 H   0  0  0  0  0  0  0  0  0  0  0  0
   51.0557   29.7635   52.9944 H   0  0  0  0  0  0  0  0  0  0  0  0
   54.3414   29.5247   51.1668 H   0  0  0  0  0  0  0  0  0  0  0  0
   56.9301   31.9760   53.4709 H   0  0  0  0  0  0  0  0  0  0  0  0
   58.7131   31.7394   53.5764 H   0  0  0  0  0  0  0  0  0  0  0  0
   57.0597   33.0176   51.3773 H   0  0  0  0  0  0  0  0  0  0  0  0
   58.5825   33.5929   52.2012 H   0  0  0  0  0  0  0  0  0  0  0  0
   57.2677   31.8926   49.3324 H   0  0  0  0  0  0  0  0  0  0  0  0
   58.2918   33.3827   49.0396 H   0  0  0  0  0  0  0  0  0  0  0  0
   61.1966   28.3691   45.5577 H   0  0  0  0  0  0  0  0  0  0  0  0
   60.1832   27.6998   44.2341 H   0  0  0  0  0  0  0  0  0  0  0  0
   60.6253   29.4408   44.2341 H   0  0  0  0  0  0  0  0  0  0  0  0
   58.7459   27.8648   47.5520 H   0  0  0  0  0  0  0  0  0  0  0  0
   57.6363   27.3903   46.2215 H   0  0  0  0  0  0  0  0  0  0  0  0
   59.3373   26.8129   46.2215 H   0  0  0  0  0  0  0  0  0  0  0  0
   57.0734   29.5887   45.2986 H   0  0  0  0  0  0  0  0  0  0  0  0
   58.2799   30.1279   44.0820 H   0  0  0  0  0  0  0  0  0  0  0  0
   57.7030   28.4268   44.0820 H   0  0  0  0  0  0  0  0  0  0  0  0
   60.1029   30.6311   50.0007 H   0  0  0  0  0  0  0  0  0  0  0  0
   60.3961   31.2212   51.6974 H   0  0  0  0  0  0  0  0  0  0  0  0
   58.3138   29.2931   50.6612 H   0  0  0  0  0  0  0  0  0  0  0  0
   59.4033   29.1860   52.1059 H   0  0  0  0  0  0  0  0  0  0  0  0
   55.0159   30.3753   56.4301 H   0  0  0  0  0  0  0  0  0  0  0  0
   56.4850   29.8300   55.5520 H   0  0  0  0  0  0  0  0  0  0  0  0
   56.0320   31.5683   55.5520 H   0  0  0  0  0  0  0  0  0  0  0  0
  1  2  2  0
  2  3  1  0
  3  4  2  3
  4  5  1  0
  5  6  1  0
  6  7  1  0
  7  8  2  0
  7  9  1  0
  9 10  1  0
 10 11  1  0
  3 12  1  0
 12 13  2  0
 13 14  1  0
 14 15  2  0
 14 16  1  0
 16 17  1  0
 17 18  1  0
 18 19  1  0
 19 20  1  0
 20 21  1  0
 21 22  2  0
 22 23  1  0
 23 24  1  0
 24 25  1  0
 25 26  1  0
 25 27  1  0
 25 28  1  0
 24 29  2  0
 19 30  1  0
 30 31  1  0
 13 32  1  0
 32 33  1  0
 32  2  1  0
 10  5  2  0
 31 16  1  0
 29 21  1  0
  1 34  1  0
  1 35  1  0
  4 36  1  0
 12 37  1  0
 17 38  1  0
 17 39  1  0
 18 40  1  0
 18 41  1  0
 20 42  1  0
 20 43  1  0
 26 44  1  0
 26 45  1  0
 26 46  1  0
 27 47  1  0
 27 48  1  0
 27 49  1  0
 28 50  1  0
 28 51  1  0
 28 52  1  0
 30 53  1  0
 30 54  1  0
 31 55  1  0
 31 56  1  0
 33 57  1  0
 33 58  1  0
 33 59  1  0
M  CHG  3   6  -1   9  -1  11  -1
M  END
>  <UniqueID>  (57) 
54

>  <SMILES>  (57) 
C=c1c(=Cc2[n-]c(=O)[n-]c2[O-])cc(C(=O)N2CCN(Cc3nsc(C(C)(C)C)n3)CC2)n1C

>  <Energy>  (57) 
168.55553281265642

>  <Genealogy>  (57) 
C=c1c(=Cc2[n-]c(=O)[n-]c2[O-])cc(C(=O)N2CCN(Cc3nsc(C(C)(C)C)n3)CC2)n1C (protonated)
C=c1c(=Cc2[n-]c(=O)[n-]c2[O-])cc(C(=O)N2CCN(Cc3nsc(C(C)(C)C)n3)CC2)n1C (3D coordinates assigned)
C=c1c(=Cc2[n-]c(=O)[n-]c2[O-])cc(C(=O)N2CCN(Cc3nsc(C(C)(C)C)n3)CC2)n1C (nonaromatic ring conformer: 168.55553281265642 kcal/mol)

>  <smiles>  (57) 
C=c1c(=Cc2[nH]c(=O)[nH]c2O)cc(C(=O)N2CCN(Cc3nsc(C(C)(C)C)n3)CC2)n1C

>  <score_type>  (57) 
oracle

>  <origin>  (57) 
adg

>  <m_score__min__energy>  (57) 
-17.91

>  <m_primary>  (57) 
energy

$$$$
57:0
     RDKit          3D

 52 55  0  0  0  0  0  0  0  0999 V2000
   55.7250   22.2190   42.6960 N   0  0  0  0  0  0  0  0  0  0  0  0
   55.5460   22.8340   43.9710 C   0  0  0  0  0  0  0  0  0  0  0  0
   54.9410   22.2100   44.8840 O   0  0  0  0  0  0  0  0  0  0  0  0
   56.0750   24.2180   44.2320 C   0  0  0  0  0  0  0  0  0  0  0  0
   57.3060   24.4950   43.3810 C   0  0  0  0  0  0  0  0  0  0  0  0
   57.7960   25.9370   43.5550 C   0  0  0  0  0  0  0  0  0  0  0  0
   57.7000   26.4780   44.9330 N   0  0  0  0  0  0  0  0  0  0  0  0
   58.2420   27.8120   45.1960 C   0  0  0  0  0  0  0  0  0  0  0  0
   58.2370   28.8300   44.1950 C   0  0  0  0  0  0  0  0  0  0  0  0
   58.7570   30.1080   44.4470 C   0  0  0  0  0  0  0  0  0  0  0  0
   59.2840   30.3530   45.7070 C   0  0  0  0  0  0  0  0  0  0  0  0
   59.8310   31.5060   46.1350 N   0  0  0  0  0  0  0  0  0  0  0  0
   60.2060   31.2500   47.4100 C   0  0  0  0  0  0  0  0  0  0  0  0
   60.8700   32.2350   48.2860 C   0  0  0  0  0  0  0  0  0  0  0  0
   62.1250   32.3410   48.2510 O   0  0  0  0  0  0  0  0  0  0  0  0
   60.0910   33.0880   49.2510 C   0  0  0  0  0  0  0  0  0  0  0  0
   59.6640   34.4200   48.6210 C   0  0  0  0  0  0  0  0  0  0  0  0
   58.9950   34.2190   47.2860 C   0  0  0  0  0  0  0  0  0  0  0  0
   59.5590   34.7680   46.1210 C   0  0  0  0  0  0  0  0  0  0  0  0
   58.9210   34.6090   44.8870 C   0  0  0  0  0  0  0  0  0  0  0  0
   57.7140   33.9090   44.8080 C   0  0  0  0  0  0  0  0  0  0  0  0
   57.1410   33.3680   45.9630 C   0  0  0  0  0  0  0  0  0  0  0  0
   57.7760   33.5250   47.1980 C   0  0  0  0  0  0  0  0  0  0  0  0
   59.8760   29.9390   47.7320 C   0  0  0  0  0  0  0  0  0  0  0  0
   59.2980   29.3980   46.6450 N   0  0  0  0  0  0  0  0  0  0  0  0
   58.8110   28.1470   46.4560 C   0  0  0  0  0  0  0  0  0  0  0  0
   56.9130   25.8130   45.9990 C   0  0  0  0  0  0  0  0  0  0  0  0
   56.4750   24.3770   45.6920 C   0  0  0  0  0  0  0  0  0  0  0  0
   56.1020   22.7600   41.8870 H   0  0  0  0  0  0  0  0  0  0  0  0
   55.2713   24.9251   43.9791 H   0  0  0  0  0  0  0  0  0  0  0  0
   58.1096   23.8059   43.6798 H   0  0  0  0  0  0  0  0  0  0  0  0
   57.0361   24.3471   42.3249 H   0  0  0  0  0  0  0  0  0  0  0  0
   58.8513   25.9766   43.2473 H   0  0  0  0  0  0  0  0  0  0  0  0
   57.1326   26.5600   42.9371 H   0  0  0  0  0  0  0  0  0  0  0  0
   57.8158   28.6070   43.2036 H   0  0  0  0  0  0  0  0  0  0  0  0
   58.7474   30.8891   43.6725 H   0  0  0  0  0  0  0  0  0  0  0  0
   59.9450   32.3950   45.5980 H   0  0  0  0  0  0  0  0  0  0  0  0
   59.1913   32.5386   49.5651 H   0  0  0  0  0  0  0  0  0  0  0  0
   60.7403   33.3101   50.1107 H   0  0  0  0  0  0  0  0  0  0  0  0
   58.9606   34.9253   49.2992 H   0  0  0  0  0  0  0  0  0  0  0  0
   60.5668   35.0281   48.4627 H   0  0  0  0  0  0  0  0  0  0  0  0
   60.5058   35.3248   46.1805 H   0  0  0  0  0  0  0  0  0  0  0  0
   59.3695   35.0353   43.9775 H   0  0  0  0  0  0  0  0  0  0  0  0
   57.2142   33.7835   43.8362 H   0  0  0  0  0  0  0  0  0  0  0  0
   56.1901   32.8186   45.8996 H   0  0  0  0  0  0  0  0  0  0  0  0
   57.3195   33.1033   48.1056 H   0  0  0  0  0  0  0  0  0  0  0  0
   60.0541   29.4380   48.6950 H   0  0  0  0  0  0  0  0  0  0  0  0
   58.8552   27.4025   47.2645 H   0  0  0  0  0  0  0  0  0  0  0  0
   57.5264   25.7932   46.9119 H   0  0  0  0  0  0  0  0  0  0  0  0
   55.9869   26.3975   46.1023 H   0  0  0  0  0  0  0  0  0  0  0  0
   57.3090   23.6940   45.9109 H   0  0  0  0  0  0  0  0  0  0  0  0
   55.6018   24.1403   46.3177 H   0  0  0  0  0  0  0  0  0  0  0  0
  1  2  1  0
  2  3  2  0
  2  4  1  0
  4  5  1  0
  5  6  1  0
  6  7  1  0
  7  8  1  0
  8  9  1  0
  9 10  2  0
 10 11  1  0
 11 12  2  0
 12 13  1  0
 13 14  1  0
 14 15  2  0
 14 16  1  0
 16 17  1  0
 17 18  1  0
 18 19  2  0
 19 20  1  0
 20 21  2  0
 21 22  1  0
 22 23  2  0
 13 24  2  0
 24 25  1  0
 25 26  1  0
  7 27  1  0
 27 28  1  0
 28  4  1  0
 26  8  2  0
 25 11  1  0
 23 18  1  0
  1 29  1  0
  4 30  1  0
  5 31  1  0
  5 32  1  0
  6 33  1  0
  6 34  1  0
  9 35  1  0
 10 36  1  0
 12 37  1  0
 16 38  1  0
 16 39  1  0
 17 40  1  0
 17 41  1  0
 19 42  1  0
 20 43  1  0
 21 44  1  0
 22 45  1  0
 23 46  1  0
 24 47  1  0
 26 48  1  0
 27 49  1  0
 27 50  1  0
 28 51  1  0
 28 52  1  0
M  CHG  2   1  -1  12   1
M  END
>  <UniqueID>  (58) 
55

>  <SMILES>  (58) 
[NH-]C(=O)C1CCN(c2ccc3[nH+]c(C(=O)CCc4ccccc4)cn3c2)CC1

>  <Energy>  (58) 
91.63298325042281

>  <Genealogy>  (58) 
[NH-]C(=O)C1CCN(c2ccc3[nH+]c(C(=O)CCc4ccccc4)cn3c2)CC1 (protonated)
[NH-]C(=O)C1CCN(c2ccc3[nH+]c(C(=O)CCc4ccccc4)cn3c2)CC1 (3D coordinates assigned)
[NH-]C(=O)C1CCN(c2ccc3[nH+]c(C(=O)CCc4ccccc4)cn3c2)CC1 (nonaromatic ring conformer: 91.63298325042281 kcal/mol)

>  <smiles>  (58) 
NC(=O)C1CCN(c2ccc3nc(C(=O)CCc4ccccc4)cn3c2)CC1

>  <score_type>  (58) 
oracle

>  <origin>  (58) 
adg

>  <m_score__min__energy>  (58) 
-10.06

>  <m_primary>  (58) 
energy

$$$$
58:0
     RDKit          3D

 42 44  0  0  0  0  0  0  0  0999 V2000
   56.6190   22.0020   48.4050 H   0  0  0  0  0  0  0  0  0  0  0  0
   55.9840   22.6520   47.8890 N   0  0  0  0  0  0  0  0  0  0  0  0
   56.4210   23.7480   47.3620 C   0  0  0  0  0  0  0  0  0  0  0  0
   57.7560   23.9440   47.2220 N   0  0  0  0  0  0  0  0  0  0  0  0
   58.2430   25.0840   46.6700 C   0  0  0  0  0  0  0  0  0  0  0  0
   59.3293   25.2195   46.5625 H   0  0  0  0  0  0  0  0  0  0  0  0
   57.3680   26.0900   46.2360 C   0  0  0  0  0  0  0  0  0  0  0  0
   57.8970   27.3210   45.5970 C   0  0  0  0  0  0  0  0  0  0  0  0
   59.2700   27.4720   45.3430 C   0  0  0  0  0  0  0  0  0  0  0  0
   59.9670   26.6599   45.5973 H   0  0  0  0  0  0  0  0  0  0  0  0
   59.7540   28.6510   44.7680 C   0  0  0  0  0  0  0  0  0  0  0  0
   60.8274   28.7539   44.5509 H   0  0  0  0  0  0  0  0  0  0  0  0
   58.8800   29.6990   44.4680 C   0  0  0  0  0  0  0  0  0  0  0  0
   59.2683   30.6237   44.0162 H   0  0  0  0  0  0  0  0  0  0  0  0
   57.5120   29.5770   44.7400 C   0  0  0  0  0  0  0  0  0  0  0  0
   56.6070   30.7170   44.4530 C   0  0  0  0  0  0  0  0  0  0  0  0
   55.5754   30.4873   44.1478 H   0  0  0  0  0  0  0  0  0  0  0  0
   56.9600   32.0110   44.5400 C   0  0  0  0  0  0  0  0  0  0  0  0
   56.4223   32.7372   43.9126 H   0  0  0  0  0  0  0  0  0  0  0  0
   58.0270   32.5160   45.4280 C   0  0  0  0  0  0  0  0  0  0  0  0
   58.8490   33.5640   44.9960 C   0  0  0  0  0  0  0  0  0  0  0  0
   58.7687   33.9339   43.9632 H   0  0  0  0  0  0  0  0  0  0  0  0
   59.7720   34.1420   45.8740 C   0  0  0  0  0  0  0  0  0  0  0  0
   60.4009   34.9784   45.5351 H   0  0  0  0  0  0  0  0  0  0  0  0
   59.8990   33.6580   47.1880 C   0  0  0  0  0  0  0  0  0  0  0  0
   60.7890   34.2570   48.1390 N   0  0  0  0  0  0  0  0  0  0  0  0
   62.4060   33.7240   48.4650 S   0  0  0  0  0  0  0  0  0  0  0  0
   62.3890   32.3250   49.0140 O   0  0  0  0  0  0  0  0  0  0  0  0
   63.0200   34.6400   49.4850 O   0  0  0  0  0  0  0  0  0  0  0  0
   63.3790   33.7990   46.9750 C   0  0  0  0  0  0  0  0  0  0  0  0
   64.4443   33.8811   47.2365 H   0  0  0  0  0  0  0  0  0  0  0  0
   63.2158   32.8856   46.3842 H   0  0  0  0  0  0  0  0  0  0  0  0
   63.0778   34.6766   46.3842 H   0  0  0  0  0  0  0  0  0  0  0  0
   59.1270   32.5630   47.5930 C   0  0  0  0  0  0  0  0  0  0  0  0
   59.2563   32.1464   48.6028 H   0  0  0  0  0  0  0  0  0  0  0  0
   58.1930   31.9960   46.7220 C   0  0  0  0  0  0  0  0  0  0  0  0
   57.5859   31.1397   47.0509 H   0  0  0  0  0  0  0  0  0  0  0  0
   57.0210   28.3630   45.2550 C   0  0  0  0  0  0  0  0  0  0  0  0
   55.9377   28.2290   45.3912 H   0  0  0  0  0  0  0  0  0  0  0  0
   55.9860   25.8610   46.3840 C   0  0  0  0  0  0  0  0  0  0  0  0
   55.1430   26.7070   45.9830 O   0  0  0  0  0  0  0  0  0  0  0  0
   55.5490   24.7030   46.9440 N   0  0  0  0  0  0  0  0  0  0  0  0
  1  2  1  0
  2  3  2  0
  3  4  1  0
  4  5  1  0
  5  6  1  0
  5  7  2  0
  7  8  1  0
  8  9  2  0
  9 10  1  0
  9 11  1  0
 11 12  1  0
 11 13  2  0
 13 14  1  0
 13 15  1  0
 15 16  1  0
 16 17  1  0
 16 18  2  3
 18 19  1  0
 18 20  1  0
 20 21  2  0
 21 22  1  0
 21 23  1  0
 23 24  1  0
 23 25  2  0
 25 26  1  0
 26 27  1  0
 27 28  2  0
 27 29  2  0
 27 30  1  0
 30 31  1  0
 30 32  1  0
 30 33  1  0
 25 34  1  0
 34 35  1  0
 34 36  2  0
 36 37  1  0
 15 38  2  0
 38 39  1  0
  7 40  1  0
 40 41  2  0
 40 42  1  0
 42  3  1  0
 38  8  1  0
 36 20  1  0
M  CHG  3   4  -1  26  -1  42  -1
M  END
>  <UniqueID>  (59) 
56

>  <SMILES>  (59) 
[H]/N=c1/[n-]cc(-c2cccc(C=Cc3ccc([N-]S(C)(=O)=O)cc3)c2)c(=O)[n-]1

>  <Energy>  (59) 
59.946397956788424

>  <Genealogy>  (59) 
CS(=O)(=O)[N-]c1ccc(C=Cc2cccc(-c3c[n-]c(=N)[n-]c3=O)c2)cc1 (protonated)
[H]/N=c1/[n-]cc(-c2cccc(C=Cc3ccc([N-]S(C)(=O)=O)cc3)c2)c(=O)[n-]1 (cis-trans isomerization)
[H]/N=c1/[n-]cc(-c2cccc(C=Cc3ccc([N-]S(C)(=O)=O)cc3)c2)c(=O)[n-]1 (3D coordinates assigned)
[H]/N=c1/[n-]cc(-c2cccc(C=Cc3ccc([N-]S(C)(=O)=O)cc3)c2)c(=O)[n-]1 (optimized conformer: 59.946397956788424 kcal/mol)

>  <smiles>  (59) 
CS(=O)(=O)Nc1ccc(C=Cc2cccc(-c3c[nH]c(=N)[nH]c3=O)c2)cc1

>  <score_type>  (59) 
oracle

>  <origin>  (59) 
adg

>  <m_score__min__energy>  (59) 
-12.789999999999999

>  <m_primary>  (59) 
energy

$$$$
59:0
     RDKit          3D

 36 39  0  0  1  0  0  0  0  0999 V2000
   57.4320   32.1970   42.7450 O   0  0  0  0  0  0  0  0  0  0  0  0
   57.3870   31.9050   43.9610 C   0  0  0  0  0  0  0  0  0  0  0  0
   56.7510   30.8480   44.6090 N   0  0  0  0  0  0  0  0  0  0  0  0
   57.2780   29.8340   45.1750 C   0  0  0  0  0  0  0  0  0  0  0  0
   57.0880   28.5850   44.6550 C   0  0  0  0  0  0  0  0  0  0  0  0
   57.5980   27.4540   45.2290 C   0  0  0  0  0  0  0  0  0  0  0  0
   58.3450   27.5830   46.3930 C   0  0  0  0  0  0  0  0  0  0  0  0
   58.5400   28.8640   46.9220 C   0  0  0  0  0  0  0  0  0  0  0  0
   57.9990   29.9410   46.2950 N   0  0  0  0  0  0  0  0  0  0  0  0
   58.1360   32.8550   44.8320 C   0  0  0  0  0  0  0  0  0  0  0  0
   57.9860   34.2380   44.8680 C   0  0  0  0  0  0  0  0  0  0  0  0
   58.8640   34.6860   45.7900 N   0  0  0  0  0  0  0  0  0  0  0  0
   59.5530   33.6580   46.3310 C   0  0  0  0  0  0  0  0  0  0  0  0
   60.6020   33.7060   47.3690 C   0  0  0  0  0  0  0  0  0  0  0  0
   60.2940   34.1920   48.6090 C   0  0  0  0  0  0  0  0  0  0  0  0
   61.2740   34.2080   49.5780 C   0  0  0  0  0  0  0  0  0  0  0  0
   62.5480   33.7450   49.3060 C   0  0  0  0  0  0  0  0  0  0  0  0
   63.6910   33.6360   50.0200 N   0  0  0  0  0  0  0  0  0  0  0  0
   64.6670   33.0900   49.2380 C   0  0  0  0  0  0  0  0  0  0  0  0
   65.8400   32.8600   49.6100 O   0  0  0  0  0  0  0  0  0  0  0  0
   64.1130   32.8630   48.0180 N   0  0  0  0  0  0  0  0  0  0  0  0
   62.8140   33.2600   48.0410 C   0  0  0  0  0  0  0  0  0  0  0  0
   61.8580   33.2280   47.0590 C   0  0  0  0  0  0  0  0  0  0  0  0
   59.0900   32.5340   45.7220 N   0  0  0  0  0  0  0  0  0  0  0  0
   56.4977   28.4849   43.7323 H   0  0  0  0  0  0  0  0  0  0  0  0
   57.4211   26.4655   44.7799 H   0  0  0  0  0  0  0  0  0  0  0  0
   58.7734   26.6988   46.8876 H   0  0  0  0  0  0  0  0  0  0  0  0
   59.1287   28.9982   47.8414 H   0  0  0  0  0  0  0  0  0  0  0  0
   58.1750   30.8690   46.7320 H   0  0  0  0  0  0  0  0  0  0  0  0
   57.2921   34.8437   44.2666 H   0  0  0  0  0  0  0  0  0  0  0  0
   59.0060   35.6890   46.0690 H   0  0  0  0  0  0  0  0  0  0  0  0
   59.2824   34.5636   48.8294 H   0  0  0  0  0  0  0  0  0  0  0  0
   61.0394   34.5942   50.5809 H   0  0  0  0  0  0  0  0  0  0  0  0
   63.7730   33.9230   51.0270 H   0  0  0  0  0  0  0  0  0  0  0  0
   64.6490   32.4520   47.2030 H   0  0  0  0  0  0  0  0  0  0  0  0
   62.0851   32.8343   46.0573 H   0  0  0  0  0  0  0  0  0  0  0  0
  1  2  2  0
  2  3  1  0
  3  4  2  0
  4  5  1  0
  5  6  2  0
  6  7  1  0
  7  8  2  0
  8  9  1  0
  2 10  1  0
 10 11  2  0
 11 12  1  0
 12 13  1  0
 13 14  1  0
 14 15  2  0
 15 16  1  0
 16 17  2  0
 17 18  1  0
 18 19  1  0
 19 20  2  0
 19 21  1  0
 21 22  1  0
 22 23  2  0
 13 24  2  0
  9  4  1  0
 24 10  1  0
 23 14  1  0
 22 17  1  0
  5 25  1  0
  6 26  1  0
  7 27  1  0
  8 28  1  0
  9 29  1  0
 11 30  1  0
 12 31  1  0
 15 32  1  0
 16 33  1  0
 18 34  1  0
 21 35  1  0
 23 36  1  0
M  END
>  <smiles>  (60) 
O=C(N=c1cccc[nH]1)c1c[nH]c(-c2ccc3[nH]c(=O)[nH]c3c2)n1

>  <score_type>  (60) 
oracle

>  <origin>  (60) 
adg

>  <m_score__min__energy>  (60) 
-8.4299999999999997

>  <m_primary>  (60) 
energy

$$$$
60:0
     RDKit          3D

 39 41  0  0  0  0  0  0  0  0999 V2000
   59.0330   33.0140   50.6620 C   0  0  0  0  0  0  0  0  0  0  0  0
   59.8200   32.1380   49.8610 O   0  0  0  0  0  0  0  0  0  0  0  0
   60.9470   32.5290   49.1200 C   0  0  0  0  0  0  0  0  0  0  0  0
   61.8610   33.4830   49.6120 C   0  0  0  0  0  0  0  0  0  0  0  0
   62.9560   33.8790   48.8410 C   0  0  0  0  0  0  0  0  0  0  0  0
   63.1530   33.3330   47.5740 C   0  0  0  0  0  0  0  0  0  0  0  0
   62.2610   32.3840   47.0740 C   0  0  0  0  0  0  0  0  0  0  0  0
   61.1580   31.9670   47.8400 C   0  0  0  0  0  0  0  0  0  0  0  0
   60.2330   30.9460   47.2900 C   0  0  0  0  0  0  0  0  0  0  0  0
   58.9570   31.3190   46.8410 C   0  0  0  0  0  0  0  0  0  0  0  0
   58.0810   30.3660   46.3160 C   0  0  0  0  0  0  0  0  0  0  0  0
   58.4680   29.0180   46.2250 C   0  0  0  0  0  0  0  0  0  0  0  0
   57.5960   28.0430   45.6980 C   0  0  0  0  0  0  0  0  0  0  0  0
   56.3280   28.4070   45.2480 O   0  0  0  0  0  0  0  0  0  0  0  0
   58.0050   26.6970   45.6210 C   0  0  0  0  0  0  0  0  0  0  0  0
   57.0990   25.6460   45.0320 C   0  0  0  0  0  0  0  0  0  0  0  0
   55.8920   25.4580   45.9000 C   0  0  0  0  0  0  0  0  0  0  0  0
   54.7620   26.3190   45.7610 N   0  0  0  0  0  0  0  0  0  0  0  0
   55.8870   24.5570   46.7810 O   0  0  0  0  0  0  0  0  0  0  0  0
   59.2910   26.3390   46.0510 C   0  0  0  0  0  0  0  0  0  0  0  0
   60.1580   27.2990   46.5730 C   0  0  0  0  0  0  0  0  0  0  0  0
   59.7580   28.6380   46.6680 C   0  0  0  0  0  0  0  0  0  0  0  0
   60.6300   29.6030   47.1930 C   0  0  0  0  0  0  0  0  0  0  0  0
   59.2202   32.8056   51.7257 H   0  0  0  0  0  0  0  0  0  0  0  0
   59.3036   34.0567   50.4395 H   0  0  0  0  0  0  0  0  0  0  0  0
   57.9674   32.8562   50.4395 H   0  0  0  0  0  0  0  0  0  0  0  0
   61.7105   33.9187   50.6107 H   0  0  0  0  0  0  0  0  0  0  0  0
   63.6642   34.6231   49.2344 H   0  0  0  0  0  0  0  0  0  0  0  0
   64.0135   33.6509   46.9670 H   0  0  0  0  0  0  0  0  0  0  0  0
   62.4218   31.9585   46.0725 H   0  0  0  0  0  0  0  0  0  0  0  0
   58.6436   32.3716   46.9030 H   0  0  0  0  0  0  0  0  0  0  0  0
   57.0822   30.6725   45.9717 H   0  0  0  0  0  0  0  0  0  0  0  0
   56.7791   25.9630   44.0284 H   0  0  0  0  0  0  0  0  0  0  0  0
   57.6471   24.6944   44.9682 H   0  0  0  0  0  0  0  0  0  0  0  0
   53.9280   26.1970   46.3770 H   0  0  0  0  0  0  0  0  0  0  0  0
   54.7580   27.0800   45.0470 H   0  0  0  0  0  0  0  0  0  0  0  0
   59.6189   25.2917   45.9759 H   0  0  0  0  0  0  0  0  0  0  0  0
   61.1617   27.0028   46.9120 H   0  0  0  0  0  0  0  0  0  0  0  0
   61.6333   29.3050   47.5315 H   0  0  0  0  0  0  0  0  0  0  0  0
  1  2  1  0
  2  3  1  0
  3  4  2  0
  4  5  1  0
  5  6  2  0
  6  7  1  0
  7  8  2  0
  8  9  1  0
  9 10  2  0
 10 11  1  0
 11 12  2  0
 12 13  1  0
 13 14  1  0
 13 15  2  0
 15 16  1  0
 16 17  1  0
 17 18  1  0
 17 19  2  0
 15 20  1  0
 20 21  2  0
 21 22  1  0
 22 23  2  0
  8  3  1  0
 23  9  1  0
 22 12  1  0
  1 24  1  0
  1 25  1  0
  1 26  1  0
  4 27  1  0
  5 28  1  0
  6 29  1  0
  7 30  1  0
 10 31  1  0
 11 32  1  0
 16 33  1  0
 16 34  1  0
 18 35  1  0
 18 36  1  0
 20 37  1  0
 21 38  1  0
 23 39  1  0
M  CHG  1  14  -1
M  END
>  <UniqueID>  (61) 
57

>  <SMILES>  (61) 
COc1ccccc1-c1ccc2c([O-])c(CC(N)=O)ccc2c1

>  <Energy>  (61) 
48.714565509823174

>  <Genealogy>  (61) 
COc1ccccc1-c1ccc2c([O-])c(CC(N)=O)ccc2c1 (protonated)
COc1ccccc1-c1ccc2c([O-])c(CC(N)=O)ccc2c1 (3D coordinates assigned)
COc1ccccc1-c1ccc2c([O-])c(CC(N)=O)ccc2c1 (optimized conformer: 48.714565509823174 kcal/mol)

>  <smiles>  (61) 
COc1ccccc1-c1ccc2c(O)c(CC(N)=O)ccc2c1

>  <score_type>  (61) 
oracle

>  <origin>  (61) 
adg

>  <m_score__min__energy>  (61) 
-10.82

>  <m_primary>  (61) 
energy

$$$$
61:0
     RDKit          3D

 51 53  0  0  0  0  0  0  0  0999 V2000
   61.0600   26.3610   47.9360 O   0  0  0  0  0  0  0  0  0  0  0  0
   60.2360   27.2540   47.5890 C   0  0  0  0  0  0  0  0  0  0  0  0
   59.4460   27.9250   48.5760 N   0  0  0  0  0  0  0  0  0  0  0  0
   59.9400   29.0710   49.3310 C   0  0  0  0  0  0  0  0  0  0  0  0
   59.2610   30.3580   48.8520 C   0  0  0  0  0  0  0  0  0  0  0  0
   60.2710   31.4530   48.6110 C   0  0  0  0  0  0  0  0  0  0  0  0
   60.0240   32.7580   49.0690 C   0  0  0  0  0  0  0  0  0  0  0  0
   60.9310   33.7860   48.7920 C   0  0  0  0  0  0  0  0  0  0  0  0
   62.0880   33.5200   48.0520 C   0  0  0  0  0  0  0  0  0  0  0  0
   62.3380   32.2270   47.5880 C   0  0  0  0  0  0  0  0  0  0  0  0
   61.4320   31.1960   47.8600 C   0  0  0  0  0  0  0  0  0  0  0  0
   60.0350   27.5750   46.1290 C   0  0  0  0  0  0  0  0  0  0  0  0
   58.7940   26.8480   45.5530 C   0  0  0  0  0  0  0  0  0  0  0  0
   57.5280   27.7110   45.6140 C   0  0  0  0  0  0  0  0  0  0  0  0
   57.7280   29.0100   44.9470 N   0  0  0  0  0  0  0  0  0  0  0  0
   56.5650   29.7590   44.5190 C   0  0  0  0  0  0  0  0  0  0  0  0
   55.4220   29.4160   44.9290 O   0  0  0  0  0  0  0  0  0  0  0  0
   56.6570   30.9320   43.5740 C   0  0  0  0  0  0  0  0  0  0  0  0
   57.3570   32.1020   44.2180 C   0  0  0  0  0  0  0  0  0  0  0  0
   57.1070   32.4250   45.5620 C   0  0  0  0  0  0  0  0  0  0  0  0
   57.7970   33.4760   46.1790 C   0  0  0  0  0  0  0  0  0  0  0  0
   58.7440   34.2120   45.4600 C   0  0  0  0  0  0  0  0  0  0  0  0
   59.6390   35.5030   46.2460 Cl  0  0  0  0  0  0  0  0  0  0  0  0
   58.9960   33.8980   44.1170 C   0  0  0  0  0  0  0  0  0  0  0  0
   58.3080   32.8490   43.5000 C   0  0  0  0  0  0  0  0  0  0  0  0
   59.0990   29.5140   44.7460 C   0  0  0  0  0  0  0  0  0  0  0  0
   59.9900   29.1110   45.9270 C   0  0  0  0  0  0  0  0  0  0  0  0
   59.7229   28.9224   50.3991 H   0  0  0  0  0  0  0  0  0  0  0  0
   61.0252   29.1604   49.1751 H   0  0  0  0  0  0  0  0  0  0  0  0
   58.7244   30.1525   47.9140 H   0  0  0  0  0  0  0  0  0  0  0  0
   58.5635   30.6944   49.6332 H   0  0  0  0  0  0  0  0  0  0  0  0
   59.1135   32.9722   49.6479 H   0  0  0  0  0  0  0  0  0  0  0  0
   60.7343   34.8050   49.1565 H   0  0  0  0  0  0  0  0  0  0  0  0
   62.8008   34.3294   47.8357 H   0  0  0  0  0  0  0  0  0  0  0  0
   63.2489   32.0185   47.0076 H   0  0  0  0  0  0  0  0  0  0  0  0
   61.6285   30.1807   47.4851 H   0  0  0  0  0  0  0  0  0  0  0  0
   60.8930   27.1945   45.5554 H   0  0  0  0  0  0  0  0  0  0  0  0
   58.9933   26.5876   44.5030 H   0  0  0  0  0  0  0  0  0  0  0  0
   58.6175   25.9513   46.1652 H   0  0  0  0  0  0  0  0  0  0  0  0
   56.7062   27.1760   45.1157 H   0  0  0  0  0  0  0  0  0  0  0  0
   57.2885   27.8987   46.6711 H   0  0  0  0  0  0  0  0  0  0  0  0
   57.2186   30.6273   42.6786 H   0  0  0  0  0  0  0  0  0  0  0  0
   55.6363   31.2429   43.3067 H   0  0  0  0  0  0  0  0  0  0  0  0
   56.3645   31.8487   46.1335 H   0  0  0  0  0  0  0  0  0  0  0  0
   57.5936   33.7231   47.2314 H   0  0  0  0  0  0  0  0  0  0  0  0
   59.7368   34.4784   43.5475 H   0  0  0  0  0  0  0  0  0  0  0  0
   58.5117   32.6064   42.4466 H   0  0  0  0  0  0  0  0  0  0  0  0
   59.5103   29.0884   43.8188 H   0  0  0  0  0  0  0  0  0  0  0  0
   59.0712   30.6114   44.6756 H   0  0  0  0  0  0  0  0  0  0  0  0
   61.0115   29.4738   45.7401 H   0  0  0  0  0  0  0  0  0  0  0  0
   59.5664   29.5591   46.8379 H   0  0  0  0  0  0  0  0  0  0  0  0
  1  2  2  0
  2  3  1  0
  3  4  1  0
  4  5  1  0
  5  6  1  0
  6  7  2  0
  7  8  1  0
  8  9  2  0
  9 10  1  0
 10 11  2  0
  2 12  1  0
 12 13  1  0
 13 14  1  0
 14 15  1  0
 15 16  1  0
 16 17  2  0
 16 18  1  0
 18 19  1  0
 19 20  2  0
 20 21  1  0
 21 22  2  0
 22 23  1  0
 22 24  1  0
 24 25  2  0
 15 26  1  0
 26 27  1  0
 11  6  1  0
 27 12  1  0
 25 19  1  0
  4 28  1  0
  4 29  1  0
  5 30  1  0
  5 31  1  0
  7 32  1  0
  8 33  1  0
  9 34  1  0
 10 35  1  0
 11 36  1  0
 12 37  1  0
 13 38  1  0
 13 39  1  0
 14 40  1  0
 14 41  1  0
 18 42  1  0
 18 43  1  0
 20 44  1  0
 21 45  1  0
 24 46  1  0
 25 47  1  0
 26 48  1  0
 26 49  1  0
 27 50  1  0
 27 51  1  0
M  CHG  1   3  -1
M  END
>  <UniqueID>  (62) 
58

>  <SMILES>  (62) 
O=C([N-]CCc1ccccc1)C1CCN(C(=O)Cc2ccc(Cl)cc2)CC1

>  <Energy>  (62) 
48.5297214271753

>  <Genealogy>  (62) 
O=C([N-]CCc1ccccc1)C1CCN(C(=O)Cc2ccc(Cl)cc2)CC1 (protonated)
O=C([N-]CCc1ccccc1)C1CCN(C(=O)Cc2ccc(Cl)cc2)CC1 (3D coordinates assigned)
O=C([N-]CCc1ccccc1)C1CCN(C(=O)Cc2ccc(Cl)cc2)CC1 (nonaromatic ring conformer: 48.5297214271753 kcal/mol)

>  <smiles>  (62) 
O=C(NCCc1ccccc1)C1CCN(C(=O)Cc2ccc(Cl)cc2)CC1

>  <score_type>  (62) 
oracle

>  <origin>  (62) 
adg

>  <m_score__min__energy>  (62) 
-10.74

>  <m_primary>  (62) 
energy

$$$$
62:0
     RDKit          3D

 31 32  0  0  0  0  0  0  0  0999 V2000
   55.8305   30.9693   44.1995 H   0  0  0  0  0  0  0  0  0  0  0  0
   56.9020   30.8780   44.4310 C   0  0  0  0  0  0  0  0  0  0  0  0
   57.4980   29.7100   44.1450 C   0  0  0  0  0  0  0  0  0  0  0  0
   58.0390   29.6336   43.1903 H   0  0  0  0  0  0  0  0  0  0  0  0
   57.4800   28.5150   45.0230 C   0  0  0  0  0  0  0  0  0  0  0  0
   58.6560   28.0790   45.6740 C   0  0  0  0  0  0  0  0  0  0  0  0
   59.9700   28.7950   45.4760 C   0  0  0  0  0  0  0  0  0  0  0  0
   60.4086   29.0340   46.4560 H   0  0  0  0  0  0  0  0  0  0  0  0
   60.6592   28.1477   44.9138 H   0  0  0  0  0  0  0  0  0  0  0  0
   59.7997   29.7250   44.9138 H   0  0  0  0  0  0  0  0  0  0  0  0
   58.5580   26.9660   46.5290 C   0  0  0  0  0  0  0  0  0  0  0  0
   59.5680   26.5360   47.1490 O   0  0  0  0  0  0  0  0  0  0  0  0
   57.3670   26.3410   46.6970 N   0  0  0  0  0  0  0  0  0  0  0  0
   56.2490   26.7730   46.0650 C   0  0  0  0  0  0  0  0  0  0  0  0
   55.1560   26.1740   46.2480 O   0  0  0  0  0  0  0  0  0  0  0  0
   56.3040   27.8560   45.2460 N   0  0  0  0  0  0  0  0  0  0  0  0
   55.4210   28.1930   44.7990 H   0  0  0  0  0  0  0  0  0  0  0  0
   57.5710   32.0530   45.0330 C   0  0  0  0  0  0  0  0  0  0  0  0
   57.7670   33.2400   44.3070 C   0  0  0  0  0  0  0  0  0  0  0  0
   57.4094   33.3123   43.2693 H   0  0  0  0  0  0  0  0  0  0  0  0
   58.4140   34.3290   44.8970 C   0  0  0  0  0  0  0  0  0  0  0  0
   58.5466   35.2613   44.3285 H   0  0  0  0  0  0  0  0  0  0  0  0
   58.8930   34.2380   46.2060 C   0  0  0  0  0  0  0  0  0  0  0  0
   59.5100   35.3090   46.7650 F   0  0  0  0  0  0  0  0  0  0  0  0
   58.7430   33.0430   46.9300 C   0  0  0  0  0  0  0  0  0  0  0  0
   59.2440   32.9480   48.3420 C   0  0  0  0  0  0  0  0  0  0  0  0
   58.4080   33.1065   49.0391 H   0  0  0  0  0  0  0  0  0  0  0  0
   59.6782   31.9515   48.5107 H   0  0  0  0  0  0  0  0  0  0  0  0
   60.0129   33.7164   48.5107 H   0  0  0  0  0  0  0  0  0  0  0  0
   58.0790   31.9560   46.3380 C   0  0  0  0  0  0  0  0  0  0  0  0
   57.9559   31.0199   46.9023 H   0  0  0  0  0  0  0  0  0  0  0  0
  1  2  1  0
  2  3  2  0
  3  4  1  0
  3  5  1  0
  5  6  2  0
  6  7  1  0
  7  8  1  0
  7  9  1  0
  7 10  1  0
  6 11  1  0
 11 12  2  0
 11 13  1  0
 13 14  1  0
 14 15  2  0
 14 16  1  0
 16 17  1  0
  2 18  1  0
 18 19  2  0
 19 20  1  0
 19 21  1  0
 21 22  1  0
 21 23  2  0
 23 24  1  0
 23 25  1  0
 25 26  1  0
 26 27  1  0
 26 28  1  0
 26 29  1  0
 25 30  2  0
 30 31  1  0
 16  5  1  0
 30 18  1  0
M  CHG  1  13  -1
M  END
>  <UniqueID>  (63) 
59

>  <SMILES>  (63) 
Cc1cc(/C=C\c2[nH]c(=O)[n-]c(=O)c2C)ccc1F

>  <Energy>  (63) 
42.81454788668672

>  <Genealogy>  (63) 
Cc1cc(C=Cc2[nH]c(=O)[n-]c(=O)c2C)ccc1F (protonated)
Cc1cc(/C=C\c2[nH]c(=O)[n-]c(=O)c2C)ccc1F (cis-trans isomerization)
Cc1cc(/C=C\c2[nH]c(=O)[n-]c(=O)c2C)ccc1F (3D coordinates assigned)
Cc1cc(/C=C\c2[nH]c(=O)[n-]c(=O)c2C)ccc1F (optimized conformer: 42.81454788668672 kcal/mol)

>  <smiles>  (63) 
Cc1cc(C=Cc2[nH]c(=O)[nH]c(=O)c2C)ccc1F

>  <score_type>  (63) 
oracle

>  <origin>  (63) 
adg

>  <m_score__min__energy>  (63) 
-9.4299999999999997

>  <m_primary>  (63) 
energy

$$$$
63:0
     RDKit          3D

 69 72  0  0  0  0  0  0  0  0999 V2000
   53.2720   30.4910   49.3570 H   0  0  0  0  0  0  0  0  0  0  0  0
   52.3620   30.3690   49.7810 O   0  0  0  0  0  0  0  0  0  0  0  0
   51.9750   31.1620   50.8550 C   0  0  0  0  0  0  0  0  0  0  0  0
   51.0270   32.1130   50.7860 N   0  0  0  0  0  0  0  0  0  0  0  0
   50.9790   32.5750   52.0540 C   0  0  0  0  0  0  0  0  0  0  0  0
   50.1910   33.4900   52.4140 O   0  0  0  0  0  0  0  0  0  0  0  0
   51.8290   31.9690   52.9120 N   0  0  0  0  0  0  0  0  0  0  0  0
   52.4840   31.0880   52.1310 C   0  0  0  0  0  0  0  0  0  0  0  0
   53.4280   30.0680   52.6190 C   0  0  0  0  0  0  0  0  0  0  0  0
   53.0013   29.1251   52.9917 H   0  0  0  0  0  0  0  0  0  0  0  0
   54.7690   30.1910   52.6480 C   0  0  0  0  0  0  0  0  0  0  0  0
   55.4430   31.2200   52.0060 C   0  0  0  0  0  0  0  0  0  0  0  0
   54.9920   32.0701   51.4731 H   0  0  0  0  0  0  0  0  0  0  0  0
   56.7890   30.9680   52.1670 C   0  0  0  0  0  0  0  0  0  0  0  0
   57.8690   31.7740   51.5780 C   0  0  0  0  0  0  0  0  0  0  0  0
   58.0430   32.9470   52.0080 O   0  0  0  0  0  0  0  0  0  0  0  0
   58.7180   31.2550   50.5310 N   0  0  0  0  0  0  0  0  0  0  0  0
   59.8040   32.1040   50.0120 C   0  0  0  0  0  0  0  0  0  0  0  0
   59.3715   33.0401   49.6291 H   0  0  0  0  0  0  0  0  0  0  0  0
   60.5069   32.2994   50.8352 H   0  0  0  0  0  0  0  0  0  0  0  0
   60.5780   31.4150   48.8790 C   0  0  0  0  0  0  0  0  0  0  0  0
   61.2159   32.1541   48.3723 H   0  0  0  0  0  0  0  0  0  0  0  0
   61.1993   30.6127   49.3035 H   0  0  0  0  0  0  0  0  0  0  0  0
   59.5980   30.8080   47.8630 C   0  0  0  0  0  0  0  0  0  0  0  0
   58.9993   31.6372   47.4579 H   0  0  0  0  0  0  0  0  0  0  0  0
   60.3480   30.1460   46.7320 C   0  0  0  0  0  0  0  0  0  0  0  0
   61.5770   30.3920   46.5740 O   0  0  0  0  0  0  0  0  0  0  0  0
   59.7070   29.1750   45.8880 N   0  0  0  0  0  0  0  0  0  0  0  0
   58.5060   29.5330   45.1220 C   0  0  0  0  0  0  0  0  0  0  0  0
   58.4847   28.9513   44.1886 H   0  0  0  0  0  0  0  0  0  0  0  0
   57.6160   29.3080   45.7281 H   0  0  0  0  0  0  0  0  0  0  0  0
   58.5130   31.0200   44.7870 C   0  0  0  0  0  0  0  0  0  0  0  0
   58.5158   31.6056   45.7181 H   0  0  0  0  0  0  0  0  0  0  0  0
   59.4123   31.2595   44.2005 H   0  0  0  0  0  0  0  0  0  0  0  0
   57.6160   31.2680   44.2005 H   0  0  0  0  0  0  0  0  0  0  0  0
   60.3710   27.8840   45.6600 C   0  0  0  0  0  0  0  0  0  0  0  0
   59.8393   27.3403   44.8652 H   0  0  0  0  0  0  0  0  0  0  0  0
   61.4138   28.0710   45.3640 H   0  0  0  0  0  0  0  0  0  0  0  0
   60.3670   27.0430   46.9290 C   0  0  0  0  0  0  0  0  0  0  0  0
   60.3701   27.7049   47.8076 H   0  0  0  0  0  0  0  0  0  0  0  0
   59.4658   26.4125   46.9482 H   0  0  0  0  0  0  0  0  0  0  0  0
   61.2621   26.4039   46.9482 H   0  0  0  0  0  0  0  0  0  0  0  0
   58.6040   29.8100   48.5200 C   0  0  0  0  0  0  0  0  0  0  0  0
   57.5905   30.0412   48.1602 H   0  0  0  0  0  0  0  0  0  0  0  0
   58.9284   28.7980   48.2360 H   0  0  0  0  0  0  0  0  0  0  0  0
   58.5990   29.8670   50.0570 C   0  0  0  0  0  0  0  0  0  0  0  0
   57.6572   29.4384   50.4303 H   0  0  0  0  0  0  0  0  0  0  0  0
   59.4582   29.2922   50.4330 H   0  0  0  0  0  0  0  0  0  0  0  0
   56.9790   29.8540   52.9060 N   0  0  0  0  0  0  0  0  0  0  0  0
   58.2530   29.2850   53.2370 C   0  0  0  0  0  0  0  0  0  0  0  0
   58.4410   28.0490   53.0650 O   0  0  0  0  0  0  0  0  0  0  0  0
   59.3130   30.1180   53.7440 N   0  0  0  0  0  0  0  0  0  0  0  0
   59.0130   31.2400   54.6400 C   0  0  0  0  0  0  0  0  0  0  0  0
   59.4402   32.1669   54.2296 H   0  0  0  0  0  0  0  0  0  0  0  0
   57.9243   31.3631   54.7377 H   0  0  0  0  0  0  0  0  0  0  0  0
   59.6330   30.9480   56.0110 C   0  0  0  0  0  0  0  0  0  0  0  0
   59.4972   31.8245   56.6617 H   0  0  0  0  0  0  0  0  0  0  0  0
   59.1334   30.0681   56.4424 H   0  0  0  0  0  0  0  0  0  0  0  0
   61.0180   30.6690   55.8910 O   0  0  0  0  0  0  0  0  0  0  0  0
   61.2190   29.4970   55.1190 C   0  0  0  0  0  0  0  0  0  0  0  0
   62.2936   29.2637   55.0910 H   0  0  0  0  0  0  0  0  0  0  0  0
   60.6593   28.6705   55.5811 H   0  0  0  0  0  0  0  0  0  0  0  0
   60.7100   29.6940   53.6860 C   0  0  0  0  0  0  0  0  0  0  0  0
   61.3110   30.4649   53.1815 H   0  0  0  0  0  0  0  0  0  0  0  0
   60.7949   28.7526   53.1233 H   0  0  0  0  0  0  0  0  0  0  0  0
   55.7560   29.3840   53.2460 C   0  0  0  0  0  0  0  0  0  0  0  0
   55.5710   28.4100   54.1500 C   0  0  0  0  0  0  0  0  0  0  0  0
   56.4341   27.8509   54.5405 H   0  0  0  0  0  0  0  0  0  0  0  0
   54.5562   28.1705   54.5006 H   0  0  0  0  0  0  0  0  0  0  0  0
  1  2  1  0
  2  3  1  0
  3  4  1  0
  4  5  1  0
  5  6  2  0
  5  7  1  0
  7  8  1  0
  8  9  1  0
  9 10  1  0
  9 11  2  0
 11 12  1  0
 12 13  1  0
 12 14  2  0
 14 15  1  0
 15 16  2  0
 15 17  1  0
 17 18  1  0
 18 19  1  0
 18 20  1  0
 18 21  1  0
 21 22  1  0
 21 23  1  0
 21 24  1  0
 24 25  1  0
 24 26  1  0
 26 27  2  0
 26 28  1  0
 28 29  1  0
 29 30  1  0
 29 31  1  0
 29 32  1  0
 32 33  1  0
 32 34  1  0
 32 35  1  0
 28 36  1  0
 36 37  1  0
 36 38  1  0
 36 39  1  0
 39 40  1  0
 39 41  1  0
 39 42  1  0
 24 43  1  0
 43 44  1  0
 43 45  1  0
 43 46  1  0
 46 47  1  0
 46 48  1  0
 14 49  1  0
 49 50  1  0
 50 51  2  0
 50 52  1  0
 52 53  1  0
 53 54  1  0
 53 55  1  0
 53 56  1  0
 56 57  1  0
 56 58  1  0
 56 59  1  0
 59 60  1  0
 60 61  1  0
 60 62  1  0
 60 63  1  0
 63 64  1  0
 63 65  1  0
 49 66  1  0
 66 67  2  0
 67 68  1  0
 67 69  1  0
  8  3  2  0
 66 11  1  0
 46 17  1  0
 63 52  1  0
M  CHG  2   4  -1   7  -1
M  END
>  <UniqueID>  (64) 
60

>  <SMILES>  (64) 
C=c1/c(=C\c2[n-]c(=O)[n-]c2O)cc(C(=O)N2CCC(C(=O)N(CC)CC)CC2)n1C(=O)N1CCOCC1

>  <Energy>  (64) 
152.9468174467626

>  <Genealogy>  (64) 
C=c1c(=Cc2[n-]c(=O)[n-]c2O)cc(C(=O)N2CCC(C(=O)N(CC)CC)CC2)n1C(=O)N1CCOCC1 (protonated)
C=c1/c(=C\c2[n-]c(=O)[n-]c2O)cc(C(=O)N2CCC(C(=O)N(CC)CC)CC2)n1C(=O)N1CCOCC1 (cis-trans isomerization)
C=c1/c(=C\c2[n-]c(=O)[n-]c2O)cc(C(=O)N2CCC(C(=O)N(CC)CC)CC2)n1C(=O)N1CCOCC1 (3D coordinates assigned)
C=c1/c(=C\c2[n-]c(=O)[n-]c2O)cc(C(=O)N2CCC(C(=O)N(CC)CC)CC2)n1C(=O)N1CCOCC1 (nonaromatic ring conformer: 152.9468174467626 kcal/mol)

>  <smiles>  (64) 
C=c1c(=Cc2[nH]c(=O)[nH]c2O)cc(C(=O)N2CCC(C(=O)N(CC)CC)CC2)n1C(=O)N1CCOCC1

>  <score_type>  (64) 
oracle

>  <origin>  (64) 
adg

>  <m_score__min__energy>  (64) 
-13.56

>  <m_primary>  (64) 
energy

$$$$
64:0
     RDKit          3D

 47 50  0  0  0  0  0  0  0  0999 V2000
   60.5290   27.2670   48.0740 C   0  0  0  0  0  0  0  0  0  0  0  0
   59.8270   28.3880   47.8400 C   0  0  0  0  0  0  0  0  0  0  0  0
   58.8680   28.5550   46.8340 C   0  0  0  0  0  0  0  0  0  0  0  0
   58.4330   27.6300   45.9550 C   0  0  0  0  0  0  0  0  0  0  0  0
   57.1960   26.8460   46.1250 C   0  0  0  0  0  0  0  0  0  0  0  0
   57.1880   25.5620   46.5290 N   0  0  0  0  0  0  0  0  0  0  0  0
   55.8840   25.2170   46.4500 C   0  0  0  0  0  0  0  0  0  0  0  0
   55.4670   24.0710   46.7610 O   0  0  0  0  0  0  0  0  0  0  0  0
   55.0660   26.1900   45.9980 N   0  0  0  0  0  0  0  0  0  0  0  0
   55.9120   27.2110   45.7840 C   0  0  0  0  0  0  0  0  0  0  0  0
   55.5230   28.4290   45.2400 O   0  0  0  0  0  0  0  0  0  0  0  0
   58.4030   29.8550   46.9510 C   0  0  0  0  0  0  0  0  0  0  0  0
   59.0800   30.4240   48.0080 C   0  0  0  0  0  0  0  0  0  0  0  0
   58.8560   31.8060   48.4700 C   0  0  0  0  0  0  0  0  0  0  0  0
   58.6550   31.9980   49.7010 O   0  0  0  0  0  0  0  0  0  0  0  0
   58.8990   32.9300   47.5650 N   0  0  0  0  0  0  0  0  0  0  0  0
   59.8780   34.0100   47.7760 C   0  0  0  0  0  0  0  0  0  0  0  0
   60.3390   34.5710   46.4350 C   0  0  0  0  0  0  0  0  0  0  0  0
   59.1880   34.9740   45.6400 N   0  0  0  0  0  0  0  0  0  0  0  0
   57.9620   34.2430   45.6760 C   0  0  0  0  0  0  0  0  0  0  0  0
   57.0470   34.5320   44.8600 O   0  0  0  0  0  0  0  0  0  0  0  0
   57.7280   33.1690   46.7030 C   0  0  0  0  0  0  0  0  0  0  0  0
   59.9560   29.5440   48.5500 N   0  0  0  0  0  0  0  0  0  0  0  0
   60.9750   29.8680   49.5630 C   0  0  0  0  0  0  0  0  0  0  0  0
   61.9560   30.8730   49.0160 C   0  0  0  0  0  0  0  0  0  0  0  0
   61.9540   31.1910   47.6470 C   0  0  0  0  0  0  0  0  0  0  0  0
   62.8900   32.0920   47.1300 C   0  0  0  0  0  0  0  0  0  0  0  0
   63.8380   32.6770   47.9740 C   0  0  0  0  0  0  0  0  0  0  0  0
   63.8540   32.3610   49.3360 C   0  0  0  0  0  0  0  0  0  0  0  0
   65.1580   33.1530   50.4870 Br  0  0  0  0  0  0  0  0  0  0  0  0
   62.9170   31.4620   49.8560 C   0  0  0  0  0  0  0  0  0  0  0  0
   61.2625   27.2383   48.8933 H   0  0  0  0  0  0  0  0  0  0  0  0
   60.3704   26.3777   47.4464 H   0  0  0  0  0  0  0  0  0  0  0  0
   59.0387   27.4489   45.0548 H   0  0  0  0  0  0  0  0  0  0  0  0
   57.6412   30.3390   46.3222 H   0  0  0  0  0  0  0  0  0  0  0  0
   59.4117   34.8134   48.3652 H   0  0  0  0  0  0  0  0  0  0  0  0
   60.7479   33.6062   48.3148 H   0  0  0  0  0  0  0  0  0  0  0  0
   60.9852   35.4441   46.6085 H   0  0  0  0  0  0  0  0  0  0  0  0
   60.8977   33.7943   45.8923 H   0  0  0  0  0  0  0  0  0  0  0  0
   56.8814   33.4697   47.3377 H   0  0  0  0  0  0  0  0  0  0  0  0
   57.5235   32.2344   46.1602 H   0  0  0  0  0  0  0  0  0  0  0  0
   60.4821   30.2888   50.4518 H   0  0  0  0  0  0  0  0  0  0  0  0
   61.5168   28.9492   49.8319 H   0  0  0  0  0  0  0  0  0  0  0  0
   61.2124   30.7288   46.9789 H   0  0  0  0  0  0  0  0  0  0  0  0
   62.8802   32.3405   46.0585 H   0  0  0  0  0  0  0  0  0  0  0  0
   64.5726   33.3870   47.5662 H   0  0  0  0  0  0  0  0  0  0  0  0
   62.9322   31.2147   50.9277 H   0  0  0  0  0  0  0  0  0  0  0  0
  1  2  2  0
  2  3  1  0
  3  4  2  3
  4  5  1  0
  5  6  1  0
  6  7  1  0
  7  8  2  0
  7  9  1  0
  9 10  1  0
 10 11  1  0
  3 12  1  0
 12 13  2  0
 13 14  1  0
 14 15  2  0
 14 16  1  0
 16 17  1  0
 17 18  1  0
 18 19  1  0
 19 20  1  0
 20 21  2  0
 20 22  1  0
 13 23  1  0
 23 24  1  0
 24 25  1  0
 25 26  2  0
 26 27  1  0
 27 28  2  0
 28 29  1  0
 29 30  1  0
 29 31  2  0
 23  2  1  0
 31 25  1  0
 10  5  2  0
 22 16  1  0
  1 32  1  0
  1 33  1  0
  4 34  1  0
 12 35  1  0
 17 36  1  0
 17 37  1  0
 18 38  1  0
 18 39  1  0
 22 40  1  0
 22 41  1  0
 24 42  1  0
 24 43  1  0
 26 44  1  0
 27 45  1  0
 28 46  1  0
 31 47  1  0
M  CHG  4   6  -1   9  -1  11  -1  19  -1
M  END
>  <UniqueID>  (65) 
61

>  <SMILES>  (65) 
C=c1c(=Cc2[n-]c(=O)[n-]c2[O-])cc(C(=O)N2CC[N-]C(=O)C2)n1Cc1cccc(Br)c1

>  <Energy>  (65) 
120.50031355598793

>  <Genealogy>  (65) 
C=c1c(=Cc2[n-]c(=O)[n-]c2[O-])cc(C(=O)N2CC[N-]C(=O)C2)n1Cc1cccc(Br)c1 (protonated)
C=c1c(=Cc2[n-]c(=O)[n-]c2[O-])cc(C(=O)N2CC[N-]C(=O)C2)n1Cc1cccc(Br)c1 (3D coordinates assigned)
C=c1c(=Cc2[n-]c(=O)[n-]c2[O-])cc(C(=O)N2CC[N-]C(=O)C2)n1Cc1cccc(Br)c1 (nonaromatic ring conformer: 120.50031355598793 kcal/mol)

>  <smiles>  (65) 
C=c1c(=Cc2[nH]c(=O)[nH]c2O)cc(C(=O)N2CCNC(=O)C2)n1Cc1cccc(Br)c1

>  <score_type>  (65) 
oracle

>  <origin>  (65) 
adg

>  <m_score__min__energy>  (65) 
-17.129999999999999

>  <m_primary>  (65) 
energy

$$$$
65:0
     RDKit          3D

 38 40  0  0  0  0  0  0  0  0999 V2000
   53.6950   26.7120   46.3570 H   0  0  0  0  0  0  0  0  0  0  0  0
   54.2270   25.9330   45.9110 N   0  0  0  0  0  0  0  0  0  0  0  0
   55.6460   25.8510   46.0330 C   0  0  0  0  0  0  0  0  0  0  0  0
   56.1620   24.8850   46.6580 O   0  0  0  0  0  0  0  0  0  0  0  0
   56.4950   26.8880   45.4320 C   0  0  0  0  0  0  0  0  0  0  0  0
   56.1340   28.2000   45.4440 N   0  0  0  0  0  0  0  0  0  0  0  0
   57.0620   28.9760   44.8430 C   0  0  0  0  0  0  0  0  0  0  0  0
   56.9500   30.2610   44.6800 N   0  0  0  0  0  0  0  0  0  0  0  0
   57.7920   31.2700   45.2630 C   0  0  0  0  0  0  0  0  0  0  0  0
   57.7150   32.5770   44.7680 C   0  0  0  0  0  0  0  0  0  0  0  0
   57.0118   32.8133   43.9558 H   0  0  0  0  0  0  0  0  0  0  0  0
   58.5270   33.5850   45.3000 C   0  0  0  0  0  0  0  0  0  0  0  0
   58.4455   34.6133   44.9181 H   0  0  0  0  0  0  0  0  0  0  0  0
   59.4420   33.2890   46.3160 C   0  0  0  0  0  0  0  0  0  0  0  0
   60.4280   34.5760   47.0050 S   0  0  0  0  0  0  0  0  0  0  0  0
   59.7620   35.8970   46.7460 O   0  0  0  0  0  0  0  0  0  0  0  0
   61.7940   34.5960   46.3760 O   0  0  0  0  0  0  0  0  0  0  0  0
   60.5830   34.3400   48.7180 N   0  0  0  0  0  0  0  0  0  0  0  0
   61.6010   33.7610   49.2770 C   0  0  0  0  0  0  0  0  0  0  0  0
   62.8720   34.0170   48.8550 N   0  0  0  0  0  0  0  0  0  0  0  0
   63.9530   33.4160   49.4170 C   0  0  0  0  0  0  0  0  0  0  0  0
   64.9637   33.6549   49.0544 H   0  0  0  0  0  0  0  0  0  0  0  0
   63.7840   32.4920   50.4580 C   0  0  0  0  0  0  0  0  0  0  0  0
   64.9710   31.8520   51.1120 C   0  0  0  0  0  0  0  0  0  0  0  0
   64.8631   31.9102   52.2051 H   0  0  0  0  0  0  0  0  0  0  0  0
   65.0343   30.7975   50.8054 H   0  0  0  0  0  0  0  0  0  0  0  0
   65.8868   32.3786   50.8054 H   0  0  0  0  0  0  0  0  0  0  0  0
   62.4880   32.2300   50.9200 C   0  0  0  0  0  0  0  0  0  0  0  0
   62.3331   31.5271   51.7518 H   0  0  0  0  0  0  0  0  0  0  0  0
   61.3920   32.8600   50.3260 C   0  0  0  0  0  0  0  0  0  0  0  0
   60.3723   32.6491   50.6806 H   0  0  0  0  0  0  0  0  0  0  0  0
   59.5460   31.9760   46.7940 C   0  0  0  0  0  0  0  0  0  0  0  0
   60.2693   31.7375   47.5877 H   0  0  0  0  0  0  0  0  0  0  0  0
   58.7340   30.9680   46.2660 C   0  0  0  0  0  0  0  0  0  0  0  0
   58.8309   29.9362   46.6347 H   0  0  0  0  0  0  0  0  0  0  0  0
   58.3510   28.0760   44.2550 S   0  0  0  0  0  0  0  0  0  0  0  0
   57.7140   26.6180   44.8080 C   0  0  0  0  0  0  0  0  0  0  0  0
   58.1775   25.6266   44.6968 H   0  0  0  0  0  0  0  0  0  0  0  0
  1  2  1  0
  2  3  1  0
  3  4  2  0
  3  5  1  0
  5  6  1  0
  6  7  1  0
  7  8  2  0
  8  9  1  0
  9 10  2  0
 10 11  1  0
 10 12  1  0
 12 13  1  0
 12 14  2  0
 14 15  1  0
 15 16  2  0
 15 17  2  0
 15 18  1  0
 18 19  2  3
 19 20  1  0
 20 21  1  0
 21 22  1  0
 21 23  2  0
 23 24  1  0
 24 25  1  0
 24 26  1  0
 24 27  1  0
 23 28  1  0
 28 29  1  0
 28 30  2  0
 30 31  1  0
 14 32  1  0
 32 33  1  0
 32 34  2  0
 34 35  1  0
  7 36  1  0
 36 37  1  0
 37 38  1  0
 37  5  2  0
 34  9  1  0
 30 19  1  0
M  CHG  3   2  -1   6  -1  20  -1
M  END
>  <UniqueID>  (66) 
62

>  <SMILES>  (66) 
Cc1ccc(=NS(=O)(=O)c2ccc(/N=c3\[n-]c(C([NH-])=O)cs3)cc2)[n-]c1

>  <Energy>  (66) 
77.25776830382513

>  <Genealogy>  (66) 
Cc1ccc(=NS(=O)(=O)c2ccc(N=c3[n-]c(C([NH-])=O)cs3)cc2)[n-]c1 (protonated)
Cc1ccc(=NS(=O)(=O)c2ccc(/N=c3\[n-]c(C([NH-])=O)cs3)cc2)[n-]c1 (cis-trans isomerization)
Cc1ccc(=NS(=O)(=O)c2ccc(/N=c3\[n-]c(C([NH-])=O)cs3)cc2)[n-]c1 (3D coordinates assigned)
Cc1ccc(=NS(=O)(=O)c2ccc(/N=c3\[n-]c(C([NH-])=O)cs3)cc2)[n-]c1 (optimized conformer: 77.25776830382513 kcal/mol)

>  <smiles>  (66) 
Cc1ccc(=NS(=O)(=O)c2ccc(N=c3[nH]c(C(N)=O)cs3)cc2)[nH]c1

>  <score_type>  (66) 
oracle

>  <origin>  (66) 
adg

>  <m_score__min__energy>  (66) 
-14

>  <m_primary>  (66) 
energy

$$$$
66:0
     RDKit          3D

 49 51  0  0  0  0  0  0  0  0999 V2000
   58.2300   32.3180   49.8750 C   0  0  0  0  0  0  0  0  0  0  0  0
   59.0960   33.3070   49.3270 O   0  0  0  0  0  0  0  0  0  0  0  0
   59.0370   33.7660   48.0050 C   0  0  0  0  0  0  0  0  0  0  0  0
   59.8560   34.8070   47.5290 C   0  0  0  0  0  0  0  0  0  0  0  0
   59.7750   35.2100   46.1930 C   0  0  0  0  0  0  0  0  0  0  0  0
   58.8860   34.5790   45.3190 C   0  0  0  0  0  0  0  0  0  0  0  0
   58.0590   33.5440   45.7810 C   0  0  0  0  0  0  0  0  0  0  0  0
   57.1670   32.8030   44.8180 C   0  0  0  0  0  0  0  0  0  0  0  0
   58.1470   31.7880   43.6500 S   0  0  0  0  0  0  0  0  0  0  0  0
   57.4840   30.2270   44.2240 C   0  0  0  0  0  0  0  0  0  0  0  0
   56.3170   30.0910   44.8820 N   0  0  0  0  0  0  0  0  0  0  0  0
   56.2190   28.8060   45.1920 N   0  0  0  0  0  0  0  0  0  0  0  0
   57.3310   28.2170   44.7140 C   0  0  0  0  0  0  0  0  0  0  0  0
   57.6610   26.7730   44.9030 C   0  0  0  0  0  0  0  0  0  0  0  0
   58.3480   26.5880   46.1740 N   0  0  0  0  0  0  0  0  0  0  0  0
   59.2640   27.5240   46.7510 C   0  0  0  0  0  0  0  0  0  0  0  0
   60.3570   27.0950   47.2090 O   0  0  0  0  0  0  0  0  0  0  0  0
   58.9720   28.9320   46.7770 N   0  0  0  0  0  0  0  0  0  0  0  0
   59.9020   29.9090   47.2730 C   0  0  0  0  0  0  0  0  0  0  0  0
   60.5050   30.8180   46.3900 C   0  0  0  0  0  0  0  0  0  0  0  0
   61.4290   31.7550   46.8570 C   0  0  0  0  0  0  0  0  0  0  0  0
   61.7630   31.8010   48.2170 C   0  0  0  0  0  0  0  0  0  0  0  0
   62.7730   32.7890   48.7230 C   0  0  0  0  0  0  0  0  0  0  0  0
   61.1850   30.8790   49.1010 C   0  0  0  0  0  0  0  0  0  0  0  0
   60.2470   29.9380   48.6440 C   0  0  0  0  0  0  0  0  0  0  0  0
   59.6320   28.9700   49.6170 C   0  0  0  0  0  0  0  0  0  0  0  0
   58.1040   29.0810   44.1040 O   0  0  0  0  0  0  0  0  0  0  0  0
   58.1340   33.1520   47.1280 C   0  0  0  0  0  0  0  0  0  0  0  0
   58.2699   32.3636   50.9733 H   0  0  0  0  0  0  0  0  0  0  0  0
   57.1999   32.5049   49.5375 H   0  0  0  0  0  0  0  0  0  0  0  0
   58.5513   31.3216   49.5375 H   0  0  0  0  0  0  0  0  0  0  0  0
   60.5618   35.3048   48.2102 H   0  0  0  0  0  0  0  0  0  0  0  0
   60.4140   36.0276   45.8280 H   0  0  0  0  0  0  0  0  0  0  0  0
   58.8344   34.8944   44.2664 H   0  0  0  0  0  0  0  0  0  0  0  0
   56.4938   32.1449   45.3870 H   0  0  0  0  0  0  0  0  0  0  0  0
   56.5922   33.5409   44.2391 H   0  0  0  0  0  0  0  0  0  0  0  0
   56.7329   26.1825   44.8998 H   0  0  0  0  0  0  0  0  0  0  0  0
   58.3147   26.4388   44.0839 H   0  0  0  0  0  0  0  0  0  0  0  0
   58.1070   29.2800   46.3090 H   0  0  0  0  0  0  0  0  0  0  0  0
   60.2475   30.7921   45.3209 H   0  0  0  0  0  0  0  0  0  0  0  0
   61.8967   32.4601   46.1541 H   0  0  0  0  0  0  0  0  0  0  0  0
   62.7698   32.7859   49.8230 H   0  0  0  0  0  0  0  0  0  0  0  0
   63.7728   32.5106   48.3584 H   0  0  0  0  0  0  0  0  0  0  0  0
   62.5167   33.7947   48.3584 H   0  0  0  0  0  0  0  0  0  0  0  0
   61.4689   30.8924   50.1637 H   0  0  0  0  0  0  0  0  0  0  0  0
   59.8419   29.3003   50.6450 H   0  0  0  0  0  0  0  0  0  0  0  0
   58.5441   28.9325   49.4588 H   0  0  0  0  0  0  0  0  0  0  0  0
   60.0603   27.9692   49.4588 H   0  0  0  0  0  0  0  0  0  0  0  0
   57.4752   32.3528   47.4985 H   0  0  0  0  0  0  0  0  0  0  0  0
  1  2  1  0
  2  3  1  0
  3  4  2  0
  4  5  1  0
  5  6  2  0
  6  7  1  0
  7  8  1  0
  8  9  1  0
  9 10  1  0
 10 11  2  0
 11 12  1  0
 12 13  2  0
 13 14  1  0
 14 15  1  0
 15 16  1  0
 16 17  2  0
 16 18  1  0
 18 19  1  0
 19 20  2  0
 20 21  1  0
 21 22  2  0
 22 23  1  0
 22 24  1  0
 24 25  2  0
 25 26  1  0
 13 27  1  0
  7 28  2  0
 28  3  1  0
 27 10  1  0
 25 19  1  0
  1 29  1  0
  1 30  1  0
  1 31  1  0
  4 32  1  0
  5 33  1  0
  6 34  1  0
  8 35  1  0
  8 36  1  0
 14 37  1  0
 14 38  1  0
 18 39  1  0
 20 40  1  0
 21 41  1  0
 23 42  1  0
 23 43  1  0
 23 44  1  0
 24 45  1  0
 26 46  1  0
 26 47  1  0
 26 48  1  0
 28 49  1  0
M  CHG  1  15  -1
M  END
>  <UniqueID>  (67) 
63

>  <SMILES>  (67) 
COc1cccc(CSc2nnc(C[N-]C(=O)Nc3ccc(C)cc3C)o2)c1

>  <Energy>  (67) 
79.140115897334

>  <Genealogy>  (67) 
COc1cccc(CSc2nnc(C[N-]C(=O)Nc3ccc(C)cc3C)o2)c1 (protonated)
COc1cccc(CSc2nnc(C[N-]C(=O)Nc3ccc(C)cc3C)o2)c1 (3D coordinates assigned)
COc1cccc(CSc2nnc(C[N-]C(=O)Nc3ccc(C)cc3C)o2)c1 (optimized conformer: 79.140115897334 kcal/mol)

>  <smiles>  (67) 
COc1cccc(CSc2nnc(CNC(=O)Nc3ccc(C)cc3C)o2)c1

>  <score_type>  (67) 
oracle

>  <origin>  (67) 
adg

>  <m_score__min__energy>  (67) 
-9.8800000000000008

>  <m_primary>  (67) 
energy

$$$$
67:0
     RDKit          3D

 58 61  0  0  0  0  0  0  0  0999 V2000
   57.8010   25.6420   47.4600 C   0  0  0  0  0  0  0  0  0  0  0  0
   58.1960   26.9580   46.8760 C   0  0  0  0  0  0  0  0  0  0  0  0
   57.6110   27.5200   45.8480 O   0  0  0  0  0  0  0  0  0  0  0  0
   58.2050   28.6770   45.6510 C   0  0  0  0  0  0  0  0  0  0  0  0
   57.8240   29.6200   44.5790 C   0  0  0  0  0  0  0  0  0  0  0  0
   56.7950   29.3020   43.6750 C   0  0  0  0  0  0  0  0  0  0  0  0
   56.4430   30.1990   42.6610 C   0  0  0  0  0  0  0  0  0  0  0  0
   57.1130   31.4190   42.5420 C   0  0  0  0  0  0  0  0  0  0  0  0
   58.1370   31.7440   43.4350 C   0  0  0  0  0  0  0  0  0  0  0  0
   58.4930   30.8490   44.4500 C   0  0  0  0  0  0  0  0  0  0  0  0
   59.1950   28.9140   46.5420 N   0  0  0  0  0  0  0  0  0  0  0  0
   59.1920   27.8090   47.3130 C   0  0  0  0  0  0  0  0  0  0  0  0
   60.0670   27.6360   48.5160 C   0  0  0  0  0  0  0  0  0  0  0  0
   60.1850   28.9380   49.2450 C   0  0  0  0  0  0  0  0  0  0  0  0
   61.1310   29.1040   50.0630 O   0  0  0  0  0  0  0  0  0  0  0  0
   59.2570   30.0020   48.9840 N   0  0  0  0  0  0  0  0  0  0  0  0
   59.4790   31.3630   49.4660 C   0  0  0  0  0  0  0  0  0  0  0  0
   59.4590   32.3530   48.3240 C   0  0  0  0  0  0  0  0  0  0  0  0
   58.2670   32.5340   47.5980 C   0  0  0  0  0  0  0  0  0  0  0  0
   58.2070   33.4500   46.5440 C   0  0  0  0  0  0  0  0  0  0  0  0
   59.3380   34.1890   46.1940 C   0  0  0  0  0  0  0  0  0  0  0  0
   59.2590   35.3410   44.8720 Cl  0  0  0  0  0  0  0  0  0  0  0  0
   60.5360   34.0060   46.8900 C   0  0  0  0  0  0  0  0  0  0  0  0
   60.6090   33.0860   47.9470 C   0  0  0  0  0  0  0  0  0  0  0  0
   61.8600   32.9150   48.6270 N   0  0  0  0  0  0  0  0  0  0  0  0
   62.0320   33.4320   49.9860 C   0  0  0  0  0  0  0  0  0  0  0  0
   63.4280   34.0560   50.1440 C   0  0  0  0  0  0  0  0  0  0  0  0
   64.5310   33.2570   49.5360 N   0  0  0  0  0  0  0  0  0  0  0  0
   65.6290   33.0410   50.4940 C   0  0  0  0  0  0  0  0  0  0  0  0
   64.1050   31.9710   48.9500 C   0  0  0  0  0  0  0  0  0  0  0  0
   62.9490   32.1870   47.9730 C   0  0  0  0  0  0  0  0  0  0  0  0
   57.8206   25.7074   48.5579 H   0  0  0  0  0  0  0  0  0  0  0  0
   56.7854   25.3827   47.1262 H   0  0  0  0  0  0  0  0  0  0  0  0
   58.5059   24.8663   47.1262 H   0  0  0  0  0  0  0  0  0  0  0  0
   56.2641   28.3429   43.7657 H   0  0  0  0  0  0  0  0  0  0  0  0
   55.6377   29.9434   41.9566 H   0  0  0  0  0  0  0  0  0  0  0  0
   56.8342   32.1240   41.7449 H   0  0  0  0  0  0  0  0  0  0  0  0
   58.6642   32.7048   43.3401 H   0  0  0  0  0  0  0  0  0  0  0  0
   59.3005   31.1087   45.1504 H   0  0  0  0  0  0  0  0  0  0  0  0
   59.6256   26.8816   49.1839 H   0  0  0  0  0  0  0  0  0  0  0  0
   61.0662   27.3059   48.1955 H   0  0  0  0  0  0  0  0  0  0  0  0
   58.4480   29.8280   48.3470 H   0  0  0  0  0  0  0  0  0  0  0  0
   58.6863   31.6245   50.1825 H   0  0  0  0  0  0  0  0  0  0  0  0
   60.4660   31.4065   49.9497 H   0  0  0  0  0  0  0  0  0  0  0  0
   57.3739   31.9489   47.8626 H   0  0  0  0  0  0  0  0  0  0  0  0
   57.2671   33.5886   45.9896 H   0  0  0  0  0  0  0  0  0  0  0  0
   61.4267   34.5864   46.6076 H   0  0  0  0  0  0  0  0  0  0  0  0
   61.2673   34.1978   50.1829 H   0  0  0  0  0  0  0  0  0  0  0  0
   61.9264   32.6031   50.7014 H   0  0  0  0  0  0  0  0  0  0  0  0
   63.4179   35.0474   49.6675 H   0  0  0  0  0  0  0  0  0  0  0  0
   63.6315   34.1022   51.2240 H   0  0  0  0  0  0  0  0  0  0  0  0
   65.2405   33.1174   51.5203 H   0  0  0  0  0  0  0  0  0  0  0  0
   66.0598   32.0409   50.3385 H   0  0  0  0  0  0  0  0  0  0  0  0
   66.4065   33.8034   50.3385 H   0  0  0  0  0  0  0  0  0  0  0  0
   64.9525   31.5184   48.4143 H   0  0  0  0  0  0  0  0  0  0  0  0
   63.7692   31.3046   49.7582 H   0  0  0  0  0  0  0  0  0  0  0  0
   63.3069   32.7678   47.1101 H   0  0  0  0  0  0  0  0  0  0  0  0
   62.5750   31.2079   47.6393 H   0  0  0  0  0  0  0  0  0  0  0  0
  1  2  1  0
  2  3  1  0
  3  4  1  0
  4  5  1  0
  5  6  2  0
  6  7  1  0
  7  8  2  0
  8  9  1  0
  9 10  2  0
  4 11  2  0
 11 12  1  0
 12 13  1  0
 13 14  1  0
 14 15  2  0
 14 16  1  0
 16 17  1  0
 17 18  1  0
 18 19  2  0
 19 20  1  0
 20 21  2  0
 21 22  1  0
 21 23  1  0
 23 24  2  0
 24 25  1  0
 25 26  1  0
 26 27  1  0
 27 28  1  0
 28 29  1  0
 28 30  1  0
 30 31  1  0
 12  2  2  0
 24 18  1  0
 31 25  1  0
 10  5  1  0
  1 32  1  0
  1 33  1  0
  1 34  1  0
  6 35  1  0
  7 36  1  0
  8 37  1  0
  9 38  1  0
 10 39  1  0
 13 40  1  0
 13 41  1  0
 16 42  1  0
 17 43  1  0
 17 44  1  0
 19 45  1  0
 20 46  1  0
 23 47  1  0
 26 48  1  0
 26 49  1  0
 27 50  1  0
 27 51  1  0
 29 52  1  0
 29 53  1  0
 29 54  1  0
 30 55  1  0
 30 56  1  0
 31 57  1  0
 31 58  1  0
M  END
>  <UniqueID>  (68) 
64

>  <SMILES>  (68) 
Cc1oc(-c2ccccc2)nc1CC(=O)NCc1ccc(Cl)cc1N1CCN(C)CC1

>  <Energy>  (68) 
96.10028080704129

>  <Genealogy>  (68) 
Cc1oc(-c2ccccc2)nc1CC(=O)NCc1ccc(Cl)cc1N1CCN(C)CC1 (3D coordinates assigned)
Cc1oc(-c2ccccc2)nc1CC(=O)NCc1ccc(Cl)cc1N1CCN(C)CC1 (nonaromatic ring conformer: 96.10028080704129 kcal/mol)

>  <smiles>  (68) 
Cc1oc(-c2ccccc2)nc1CC(=O)NCc1ccc(Cl)cc1N1CCN(C)CC1

>  <score_type>  (68) 
oracle

>  <origin>  (68) 
adg

>  <m_score__min__energy>  (68) 
-8.5399999999999991

>  <m_primary>  (68) 
energy

$$$$
68:0
     RDKit          3D

 49 52  0  0  0  0  0  0  0  0999 V2000
   61.0220   29.2620   47.2700 O   0  0  0  0  0  0  0  0  0  0  0  0
   60.2850   28.8470   48.2020 C   0  0  0  0  0  0  0  0  0  0  0  0
   60.1430   27.3620   48.4060 C   0  0  0  0  0  0  0  0  0  0  0  0
   60.1670   26.4520   46.8180 S   0  0  0  0  0  0  0  0  0  0  0  0
   58.8870   27.4400   46.0310 C   0  0  0  0  0  0  0  0  0  0  0  0
   57.5120   27.3200   46.1730 C   0  0  0  0  0  0  0  0  0  0  0  0
   56.7560   26.3030   46.9800 C   0  0  0  0  0  0  0  0  0  0  0  0
   56.2310   25.1830   46.1120 C   0  0  0  0  0  0  0  0  0  0  0  0
   57.0730   24.1070   45.7740 C   0  0  0  0  0  0  0  0  0  0  0  0
   56.6050   23.0640   44.9710 C   0  0  0  0  0  0  0  0  0  0  0  0
   55.2900   23.0750   44.5070 C   0  0  0  0  0  0  0  0  0  0  0  0
   54.4370   24.1260   44.8500 C   0  0  0  0  0  0  0  0  0  0  0  0
   54.8970   25.1780   45.6500 C   0  0  0  0  0  0  0  0  0  0  0  0
   54.0280   26.2140   45.9690 O   0  0  0  0  0  0  0  0  0  0  0  0
   56.9660   28.3350   45.4060 C   0  0  0  0  0  0  0  0  0  0  0  0
   55.6040   28.5670   45.2480 O   0  0  0  0  0  0  0  0  0  0  0  0
   57.9320   29.0540   44.7940 N   0  0  0  0  0  0  0  0  0  0  0  0
   57.7540   30.2070   43.9520 C   0  0  0  0  0  0  0  0  0  0  0  0
   57.0010   30.1150   42.7670 C   0  0  0  0  0  0  0  0  0  0  0  0
   56.8250   31.2390   41.9560 C   0  0  0  0  0  0  0  0  0  0  0  0
   57.3970   32.4620   42.3170 C   0  0  0  0  0  0  0  0  0  0  0  0
   58.1510   32.5620   43.4890 C   0  0  0  0  0  0  0  0  0  0  0  0
   58.3330   31.4400   44.3020 C   0  0  0  0  0  0  0  0  0  0  0  0
   59.1000   28.4890   45.1610 C   0  0  0  0  0  0  0  0  0  0  0  0
   60.3510   28.9260   44.7360 O   0  0  0  0  0  0  0  0  0  0  0  0
   59.5460   29.8240   49.0350 C   0  0  0  0  0  0  0  0  0  0  0  0
   59.1170   29.4630   50.3220 C   0  0  0  0  0  0  0  0  0  0  0  0
   58.4360   30.3820   51.1260 C   0  0  0  0  0  0  0  0  0  0  0  0
   58.1500   31.6610   50.6420 C   0  0  0  0  0  0  0  0  0  0  0  0
   57.4370   32.5600   51.4260 O   0  0  0  0  0  0  0  0  0  0  0  0
   58.5620   32.0270   49.3600 C   0  0  0  0  0  0  0  0  0  0  0  0
   59.2570   31.1160   48.5590 C   0  0  0  0  0  0  0  0  0  0  0  0
   60.9751   27.0075   49.0321 H   0  0  0  0  0  0  0  0  0  0  0  0
   59.1743   27.1749   48.8925 H   0  0  0  0  0  0  0  0  0  0  0  0
   57.4282   25.8798   47.7410 H   0  0  0  0  0  0  0  0  0  0  0  0
   55.8977   26.8055   47.4498 H   0  0  0  0  0  0  0  0  0  0  0  0
   58.1083   24.0871   46.1452 H   0  0  0  0  0  0  0  0  0  0  0  0
   57.2746   22.2330   44.7044 H   0  0  0  0  0  0  0  0  0  0  0  0
   54.9246   22.2555   43.8706 H   0  0  0  0  0  0  0  0  0  0  0  0
   53.3978   24.1270   44.4894 H   0  0  0  0  0  0  0  0  0  0  0  0
   56.5492   29.1546   42.4780 H   0  0  0  0  0  0  0  0  0  0  0  0
   56.2348   31.1611   41.0310 H   0  0  0  0  0  0  0  0  0  0  0  0
   57.2536   33.3460   41.6783 H   0  0  0  0  0  0  0  0  0  0  0  0
   58.6017   33.5247   43.7720 H   0  0  0  0  0  0  0  0  0  0  0  0
   58.9324   31.5217   45.2207 H   0  0  0  0  0  0  0  0  0  0  0  0
   59.3181   28.4499   50.7006 H   0  0  0  0  0  0  0  0  0  0  0  0
   58.1247   30.0974   52.1419 H   0  0  0  0  0  0  0  0  0  0  0  0
   58.3394   33.0345   48.9788 H   0  0  0  0  0  0  0  0  0  0  0  0
   59.5800   31.4114   47.5498 H   0  0  0  0  0  0  0  0  0  0  0  0
  1  2  2  0
  2  3  1  0
  3  4  1  0
  4  5  1  0
  5  6  1  0
  6  7  1  0
  7  8  1  0
  8  9  2  0
  9 10  1  0
 10 11  2  0
 11 12  1  0
 12 13  2  0
 13 14  1  0
  6 15  2  0
 15 16  1  0
 15 17  1  0
 17 18  1  0
 18 19  2  0
 19 20  1  0
 20 21  2  0
 21 22  1  0
 22 23  2  0
 17 24  1  0
 24 25  1  0
  2 26  1  0
 26 27  2  0
 27 28  1  0
 28 29  2  0
 29 30  1  0
 29 31  1  0
 31 32  2  0
 24  5  2  0
 32 26  1  0
 13  8  1  0
 23 18  1  0
  3 33  1  0
  3 34  1  0
  7 35  1  0
  7 36  1  0
  9 37  1  0
 10 38  1  0
 11 39  1  0
 12 40  1  0
 19 41  1  0
 20 42  1  0
 21 43  1  0
 22 44  1  0
 23 45  1  0
 27 46  1  0
 28 47  1  0
 31 48  1  0
 32 49  1  0
M  CHG  4  14  -1  16  -1  25  -1  30  -1
M  END
>  <UniqueID>  (69) 
65

>  <SMILES>  (69) 
O=C(CSc1c(Cc2ccccc2[O-])c([O-])n(-c2ccccc2)c1[O-])c1ccc([O-])cc1

>  <Energy>  (69) 
81.48382726657202

>  <Genealogy>  (69) 
O=C(CSc1c(Cc2ccccc2[O-])c([O-])n(-c2ccccc2)c1[O-])c1ccc([O-])cc1 (protonated)
O=C(CSc1c(Cc2ccccc2[O-])c([O-])n(-c2ccccc2)c1[O-])c1ccc([O-])cc1 (3D coordinates assigned)
O=C(CSc1c(Cc2ccccc2[O-])c([O-])n(-c2ccccc2)c1[O-])c1ccc([O-])cc1 (optimized conformer: 81.48382726657202 kcal/mol)

>  <smiles>  (69) 
O=C(CSc1c(Cc2ccccc2O)c(O)n(-c2ccccc2)c1O)c1ccc(O)cc1

>  <score_type>  (69) 
oracle

>  <origin>  (69) 
adg

>  <m_score__min__energy>  (69) 
-16.09

>  <m_primary>  (69) 
energy

$$$$
69:0
     RDKit          3D

 62 65  0  0  0  0  0  0  0  0999 V2000
   58.4026   33.0914   42.9114 H   0  0  0  0  0  0  0  0  0  0  0  0
   57.8920   32.2350   43.3760 C   0  0  0  0  0  0  0  0  0  0  0  0
   57.7890   32.1470   44.7740 C   0  0  0  0  0  0  0  0  0  0  0  0
   58.3460   33.2500   45.6800 C   0  0  2  0  0  0  0  0  0  0  0  0
   58.4550   34.5620   44.8720 C   0  0  0  0  0  0  0  0  0  0  0  0
   58.5258   35.4140   45.5641 H   0  0  0  0  0  0  0  0  0  0  0  0
   59.3535   34.5288   44.2383 H   0  0  0  0  0  0  0  0  0  0  0  0
   57.5634   34.6775   44.2383 H   0  0  0  0  0  0  0  0  0  0  0  0
   59.7550   32.8780   46.2140 C   0  0  0  0  0  0  0  0  0  0  0  0
   60.4900   32.9903   45.4033 H   0  0  0  0  0  0  0  0  0  0  0  0
   59.7360   31.8371   46.5692 H   0  0  0  0  0  0  0  0  0  0  0  0
   60.1180   33.7200   47.2900 O   0  0  0  0  0  0  0  0  0  0  0  0
   59.2110   33.5950   48.3860 C   0  0  2  0  0  0  0  0  0  0  0  0
   58.9251   34.6265   48.6397 H   0  0  0  0  0  0  0  0  0  0  0  0
   59.8790   32.9200   49.5530 C   0  0  0  0  0  0  0  0  0  0  0  0
   59.2020   32.7050   50.5960 O   0  0  0  0  0  0  0  0  0  0  0  0
   61.2450   32.4750   49.4770 N   0  0  0  0  0  0  0  0  0  0  0  0
   61.7880   32.6120   48.5970 H   0  0  0  0  0  0  0  0  0  0  0  0
   61.8800   31.6960   50.5390 C   0  0  0  0  0  0  0  0  0  0  0  0
   61.5085   32.0402   51.5155 H   0  0  0  0  0  0  0  0  0  0  0  0
   61.6367   30.6320   50.4019 H   0  0  0  0  0  0  0  0  0  0  0  0
   63.3710   31.8730   50.4830 C   0  0  0  0  0  0  0  0  0  0  0  0
   64.2160   31.0390   51.2340 C   0  0  0  0  0  0  0  0  0  0  0  0
   63.7855   30.2439   51.8605 H   0  0  0  0  0  0  0  0  0  0  0  0
   65.6030   31.2160   51.1880 C   0  0  0  0  0  0  0  0  0  0  0  0
   66.2611   30.5479   51.7629 H   0  0  0  0  0  0  0  0  0  0  0  0
   66.1540   32.2400   50.4130 C   0  0  0  0  0  0  0  0  0  0  0  0
   67.2444   32.3815   50.3823 H   0  0  0  0  0  0  0  0  0  0  0  0
   65.3180   33.0840   49.6770 C   0  0  0  0  0  0  0  0  0  0  0  0
   65.7517   33.8923   49.0700 H   0  0  0  0  0  0  0  0  0  0  0  0
   63.9330   32.9040   49.7100 C   0  0  0  0  0  0  0  0  0  0  0  0
   63.2797   33.5715   49.1289 H   0  0  0  0  0  0  0  0  0  0  0  0
   58.0140   32.8950   48.0760 O   0  0  0  0  0  0  0  0  0  0  0  0
   57.4290   33.4600   46.9210 C   0  0  0  0  0  0  0  0  0  0  0  0
   57.2806   34.5380   47.0820 H   0  0  0  0  0  0  0  0  0  0  0  0
   56.4642   32.9653   46.7354 H   0  0  0  0  0  0  0  0  0  0  0  0
   57.1740   31.0590   45.3160 N   0  0  0  0  0  0  0  0  0  0  0  0
   56.6410   30.0500   44.5770 C   0  0  0  0  0  0  0  0  0  0  0  0
   56.0520   29.0810   45.2200 N   0  0  0  0  0  0  0  0  0  0  0  0
   56.5500   27.7890   45.5930 C   0  0  0  0  0  0  0  0  0  0  0  0
   55.7650   26.8840   45.9880 O   0  0  0  0  0  0  0  0  0  0  0  0
   58.0120   27.4860   45.4400 C   0  0  0  0  0  0  0  0  0  0  0  0
   58.3138   27.6815   44.4004 H   0  0  0  0  0  0  0  0  0  0  0  0
   58.1815   26.4297   45.6961 H   0  0  0  0  0  0  0  0  0  0  0  0
   58.8400   28.3480   46.3670 C   0  0  0  0  0  0  0  0  0  0  0  0
   58.4440   28.4560   47.7110 C   0  0  0  0  0  0  0  0  0  0  0  0
   57.5328   27.9430   48.0523 H   0  0  0  0  0  0  0  0  0  0  0  0
   59.1940   29.2070   48.6180 C   0  0  0  0  0  0  0  0  0  0  0  0
   58.8704   29.2866   49.6663 H   0  0  0  0  0  0  0  0  0  0  0  0
   60.3530   29.8560   48.1950 C   0  0  0  0  0  0  0  0  0  0  0  0
   60.9389   30.4533   48.9091 H   0  0  0  0  0  0  0  0  0  0  0  0
   60.7720   29.7500   46.8680 C   0  0  0  0  0  0  0  0  0  0  0  0
   61.6869   30.2668   46.5427 H   0  0  0  0  0  0  0  0  0  0  0  0
   60.0360   28.9890   45.9430 C   0  0  0  0  0  0  0  0  0  0  0  0
   60.5150   28.9240   44.5160 C   0  0  0  0  0  0  0  0  0  0  0  0
   61.6049   28.7761   44.5015 H   0  0  0  0  0  0  0  0  0  0  0  0
   60.0241   28.0842   44.0023 H   0  0  0  0  0  0  0  0  0  0  0  0
   60.2657   29.8642   44.0023 H   0  0  0  0  0  0  0  0  0  0  0  0
   56.7000   30.1380   43.1670 C   0  0  0  0  0  0  0  0  0  0  0  0
   56.0880   29.2460   42.3510 F   0  0  0  0  0  0  0  0  0  0  0  0
   57.3430   31.2300   42.5810 C   0  0  0  0  0  0  0  0  0  0  0  0
   57.4168   31.2977   41.4856 H   0  0  0  0  0  0  0  0  0  0  0  0
  1  2  1  0
  2  3  2  0
  3  4  1  0
  4  5  1  6
  5  6  1  0
  5  7  1  0
  5  8  1  0
  4  9  1  0
  9 10  1  0
  9 11  1  0
  9 12  1  0
 12 13  1  0
 13 14  1  1
 13 15  1  0
 15 16  2  0
 15 17  1  0
 17 18  1  0
 17 19  1  0
 19 20  1  0
 19 21  1  0
 19 22  1  0
 22 23  2  0
 23 24  1  0
 23 25  1  0
 25 26  1  0
 25 27  2  0
 27 28  1  0
 27 29  1  0
 29 30  1  0
 29 31  2  0
 31 32  1  0
 13 33  1  0
 33 34  1  0
 34 35  1  0
 34 36  1  0
  3 37  1  0
 37 38  1  0
 38 39  2  0
 39 40  1  0
 40 41  2  0
 40 42  1  0
 42 43  1  0
 42 44  1  0
 42 45  1  0
 45 46  2  0
 46 47  1  0
 46 48  1  0
 48 49  1  0
 48 50  2  0
 50 51  1  0
 50 52  1  0
 52 53  1  0
 52 54  2  0
 54 55  1  0
 55 56  1  0
 55 57  1  0
 55 58  1  0
 38 59  1  0
 59 60  1  0
 59 61  2  0
 61 62  1  0
 61  2  1  0
 34  4  1  0
 54 45  1  0
 31 22  1  0
M  CHG  1  37  -1
M  END
>  <UniqueID>  (70) 
66

>  <SMILES>  (70) 
Cc1ccccc1CC(=O)/N=c1/[n-]c(C2(C)COC(C(=O)NCc3ccccc3)OC2)ccc1F

>  <Energy>  (70) 
86.21922136751645

>  <Genealogy>  (70) 
Cc1ccccc1CC(=O)N=c1[n-]c(C2(C)COC(C(=O)NCc3ccccc3)OC2)ccc1F (protonated)
Cc1ccccc1CC(=O)/N=c1/[n-]c(C2(C)COC(C(=O)NCc3ccccc3)OC2)ccc1F (cis-trans isomerization)
Cc1ccccc1CC(=O)/N=c1/[n-]c(C2(C)COC(C(=O)NCc3ccccc3)OC2)ccc1F (3D coordinates assigned)
Cc1ccccc1CC(=O)/N=c1/[n-]c(C2(C)COC(C(=O)NCc3ccccc3)OC2)ccc1F (nonaromatic ring conformer: 86.21922136751645 kcal/mol)

>  <smiles>  (70) 
Cc1ccccc1CC(=O)N=c1[nH]c(C2(C)COC(C(=O)NCc3ccccc3)OC2)ccc1F

>  <score_type>  (70) 
oracle

>  <origin>  (70) 
adg

>  <m_score__min__energy>  (70) 
-12.07

>  <m_primary>  (70) 
energy

$$$$
70:0
     RDKit          3D

 54 57  0  0  0  0  0  0  0  0999 V2000
   57.1130   34.0770   44.9750 C   0  0  0  0  0  0  0  0  0  0  0  0
   57.2670   32.7940   45.3320 C   0  0  0  0  0  0  0  0  0  0  0  0
   56.6530   31.8710   44.5520 N   0  0  0  0  0  0  0  0  0  0  0  0
   56.8970   30.5460   44.6610 C   0  0  0  0  0  0  0  0  0  0  0  0
   56.2860   29.7460   43.9020 O   0  0  0  0  0  0  0  0  0  0  0  0
   57.8260   30.0910   45.5540 N   0  0  0  0  0  0  0  0  0  0  0  0
   58.1280   28.6820   45.6200 C   0  0  0  0  0  0  0  0  0  0  0  0
   59.4590   28.2410   45.5550 C   0  0  0  0  0  0  0  0  0  0  0  0
   59.7520   26.8760   45.6270 C   0  0  0  0  0  0  0  0  0  0  0  0
   58.7200   25.9440   45.7640 C   0  0  0  0  0  0  0  0  0  0  0  0
   57.3870   26.3730   45.8230 C   0  0  0  0  0  0  0  0  0  0  0  0
   56.0810   25.2080   46.0280 S   0  0  0  0  0  0  0  0  0  0  0  0
   56.0210   24.7970   47.4730 O   0  0  0  0  0  0  0  0  0  0  0  0
   54.7680   25.8420   45.6560 O   0  0  0  0  0  0  0  0  0  0  0  0
   56.3790   23.8080   45.0310 N   0  0  0  0  0  0  0  0  0  0  0  0
   55.9220   24.0630   43.6520 C   0  0  0  0  0  0  0  0  0  0  0  0
   55.8940   22.7580   42.8300 C   0  0  0  0  0  0  0  0  0  0  0  0
   56.5970   21.7270   43.4930 O   0  0  0  0  0  0  0  0  0  0  0  0
   55.9360   21.3990   44.7040 C   0  0  0  0  0  0  0  0  0  0  0  0
   55.6840   22.6380   45.5890 C   0  0  0  0  0  0  0  0  0  0  0  0
   57.0950   27.7410   45.7580 C   0  0  0  0  0  0  0  0  0  0  0  0
   58.4520   30.9670   46.4010 C   0  0  0  0  0  0  0  0  0  0  0  0
   59.2840   30.5230   47.2460 O   0  0  0  0  0  0  0  0  0  0  0  0
   58.1370   32.3530   46.3760 C   0  0  0  0  0  0  0  0  0  0  0  0
   58.6530   33.1590   47.3450 C   0  0  0  0  0  0  0  0  0  0  0  0
   60.0730   33.2410   47.7380 C   0  0  0  0  0  0  0  0  0  0  0  0
   61.3970   32.9220   46.7420 S   0  0  0  0  0  0  0  0  0  0  0  0
   62.5180   33.4500   47.8770 C   0  0  0  0  0  0  0  0  0  0  0  0
   64.1350   33.4640   47.6060 S   0  0  0  0  0  0  0  0  0  0  0  0
   61.9100   33.8960   49.0090 N   0  0  0  0  0  0  0  0  0  0  0  0
   62.6020   34.4880   50.1610 C   0  0  0  0  0  0  0  0  0  0  0  0
   63.3090   33.4070   50.9700 C   0  0  0  0  0  0  0  0  0  0  0  0
   60.5500   33.8050   48.9170 C   0  0  0  0  0  0  0  0  0  0  0  0
   59.7040   34.2530   49.9270 O   0  0  0  0  0  0  0  0  0  0  0  0
   57.5866   34.8735   45.5677 H   0  0  0  0  0  0  0  0  0  0  0  0
   56.5130   34.3333   44.0894 H   0  0  0  0  0  0  0  0  0  0  0  0
   60.2741   28.9718   45.4471 H   0  0  0  0  0  0  0  0  0  0  0  0
   60.7966   26.5351   45.5757 H   0  0  0  0  0  0  0  0  0  0  0  0
   58.9543   24.8710   45.8257 H   0  0  0  0  0  0  0  0  0  0  0  0
   54.9093   24.4914   43.6818 H   0  0  0  0  0  0  0  0  0  0  0  0
   56.6223   24.7638   43.1741 H   0  0  0  0  0  0  0  0  0  0  0  0
   54.8491   22.4459   42.6859 H   0  0  0  0  0  0  0  0  0  0  0  0
   56.3777   22.9444   41.8598 H   0  0  0  0  0  0  0  0  0  0  0  0
   54.9688   20.9333   44.4640 H   0  0  0  0  0  0  0  0  0  0  0  0
   56.5852   20.7112   45.2657 H   0  0  0  0  0  0  0  0  0  0  0  0
   54.6039   22.8420   45.6302 H   0  0  0  0  0  0  0  0  0  0  0  0
   56.0668   22.4410   46.6013 H   0  0  0  0  0  0  0  0  0  0  0  0
   56.0503   28.0804   45.8154 H   0  0  0  0  0  0  0  0  0  0  0  0
   57.9469   33.8080   47.8838 H   0  0  0  0  0  0  0  0  0  0  0  0
   63.3445   35.2162   49.8026 H   0  0  0  0  0  0  0  0  0  0  0  0
   61.8618   34.9873   50.8035 H   0  0  0  0  0  0  0  0  0  0  0  0
   63.1778   33.6076   52.0436 H   0  0  0  0  0  0  0  0  0  0  0  0
   62.8781   32.4250   50.7252 H   0  0  0  0  0  0  0  0  0  0  0  0
   64.3814   33.4082   50.7252 H   0  0  0  0  0  0  0  0  0  0  0  0
  1  2  2  0
  2  3  1  0
  3  4  1  0
  4  5  2  0
  4  6  1  0
  6  7  1  0
  7  8  2  0
  8  9  1  0
  9 10  2  0
 10 11  1  0
 11 12  1  0
 12 13  2  0
 12 14  2  0
 12 15  1  0
 15 16  1  0
 16 17  1  0
 17 18  1  0
 18 19  1  0
 19 20  1  0
 11 21  2  0
  6 22  1  0
 22 23  2  0
 22 24  1  0
 24 25  2  3
 25 26  1  0
 26 27  1  0
 27 28  1  0
 28 29  2  0
 28 30  1  0
 30 31  1  0
 31 32  1  0
 30 33  1  0
 33 34  1  0
 24  2  1  0
 33 26  2  0
 21  7  1  0
 20 15  1  0
  1 35  1  0
  1 36  1  0
  8 37  1  0
  9 38  1  0
 10 39  1  0
 16 40  1  0
 16 41  1  0
 17 42  1  0
 17 43  1  0
 19 44  1  0
 19 45  1  0
 20 46  1  0
 20 47  1  0
 21 48  1  0
 25 49  1  0
 31 50  1  0
 31 51  1  0
 32 52  1  0
 32 53  1  0
 32 54  1  0
M  CHG  2   3  -1  34  -1
M  END
>  <UniqueID>  (71) 
67

>  <SMILES>  (71) 
C=c1[n-]c(=O)n(-c2cccc(S(=O)(=O)N3CCOCC3)c2)c(=O)c1=Cc1sc(=S)n(CC)c1[O-]

>  <Energy>  (71) 
126.07384552339333

>  <Genealogy>  (71) 
C=c1[n-]c(=O)n(-c2cccc(S(=O)(=O)N3CCOCC3)c2)c(=O)c1=Cc1sc(=S)n(CC)c1[O-] (protonated)
C=c1[n-]c(=O)n(-c2cccc(S(=O)(=O)N3CCOCC3)c2)c(=O)c1=Cc1sc(=S)n(CC)c1[O-] (3D coordinates assigned)
C=c1[n-]c(=O)n(-c2cccc(S(=O)(=O)N3CCOCC3)c2)c(=O)c1=Cc1sc(=S)n(CC)c1[O-] (nonaromatic ring conformer: 126.07384552339333 kcal/mol)

>  <smiles>  (71) 
C=c1[nH]c(=O)n(-c2cccc(S(=O)(=O)N3CCOCC3)c2)c(=O)c1=Cc1sc(=S)n(CC)c1O

>  <score_type>  (71) 
oracle

>  <origin>  (71) 
adg

>  <m_score__min__energy>  (71) 
-14.98

>  <m_primary>  (71) 
energy

$$$$
71:0
     RDKit          3D

 67 70  0  0  0  0  0  0  0  0999 V2000
   56.5620   31.4600   51.2920 N   0  0  0  0  0  0  0  0  0  0  0  0
   57.6100   30.4970   51.3700 C   0  0  0  0  0  0  0  0  0  0  0  0
   57.3960   29.3810   51.9210 O   0  0  0  0  0  0  0  0  0  0  0  0
   58.9330   30.7530   50.7100 C   0  0  0  0  0  0  0  0  0  0  0  0
   58.8370   31.8620   49.6910 C   0  0  0  0  0  0  0  0  0  0  0  0
   58.4890   33.0160   50.0630 O   0  0  0  0  0  0  0  0  0  0  0  0
   59.1660   31.6360   48.3060 N   0  0  0  0  0  0  0  0  0  0  0  0
   60.1310   30.6060   47.8930 C   0  0  0  0  0  0  0  0  0  0  0  0
   59.4750   29.6800   46.8660 C   0  0  0  0  0  0  0  0  0  0  0  0
   58.6620   30.4350   45.8930 N   0  0  0  0  0  0  0  0  0  0  0  0
   57.6070   29.7690   45.1570 C   0  0  0  0  0  0  0  0  0  0  0  0
   56.6770   30.4420   44.6340 O   0  0  0  0  0  0  0  0  0  0  0  0
   57.5650   28.2980   45.0490 C   0  0  0  0  0  0  0  0  0  0  0  0
   58.2990   27.6470   44.0460 C   0  0  0  0  0  0  0  0  0  0  0  0
   58.1430   26.2730   43.8400 C   0  0  0  0  0  0  0  0  0  0  0  0
   57.2500   25.5370   44.6340 C   0  0  0  0  0  0  0  0  0  0  0  0
   56.9590   24.1190   44.3250 C   0  0  0  0  0  0  0  0  0  0  0  0
   56.8000   23.7550   43.1280 O   0  0  0  0  0  0  0  0  0  0  0  0
   56.7560   23.1670   45.3850 N   0  0  0  0  0  0  0  0  0  0  0  0
   55.9560   23.5380   46.5610 C   0  0  0  0  0  0  0  0  0  0  0  0
   55.1090   22.3480   47.0210 C   0  0  0  0  0  0  0  0  0  0  0  0
   55.9980   21.1030   47.2720 C   0  0  0  0  0  0  0  0  0  0  0  0
   57.0240   21.3050   48.3440 N   0  0  0  0  0  0  0  0  0  0  0  0
   57.6470   20.0080   48.7300 C   0  0  0  0  0  0  0  0  0  0  0  0
   58.2360   20.0310   50.1510 C   0  0  0  0  0  0  0  0  0  0  0  0
   58.7180   21.3190   50.4410 O   0  0  0  0  0  0  0  0  0  0  0  0
   57.6360   22.2280   50.5700 C   0  0  0  0  0  0  0  0  0  0  0  0
   56.5030   21.9960   49.5450 C   0  0  0  0  0  0  0  0  0  0  0  0
   56.6760   20.7610   45.9210 C   0  0  0  0  0  0  0  0  0  0  0  0
   57.5390   21.9270   45.4200 C   0  0  0  0  0  0  0  0  0  0  0  0
   56.5920   26.1760   45.6990 C   0  0  0  0  0  0  0  0  0  0  0  0
   56.7470   27.5480   45.9020 C   0  0  0  0  0  0  0  0  0  0  0  0
   58.7770   31.9010   45.8710 C   0  0  0  0  0  0  0  0  0  0  0  0
   58.5040   32.4530   47.2770 C   0  0  0  0  0  0  0  0  0  0  0  0
   56.6970   32.3560   50.7750 H   0  0  0  0  0  0  0  0  0  0  0  0
   55.6400   31.2760   51.7420 H   0  0  0  0  0  0  0  0  0  0  0  0
   59.6671   31.0364   51.4787 H   0  0  0  0  0  0  0  0  0  0  0  0
   59.2439   29.8339   50.1917 H   0  0  0  0  0  0  0  0  0  0  0  0
   61.0122   31.0873   47.4436 H   0  0  0  0  0  0  0  0  0  0  0  0
   60.4427   30.0205   48.7705 H   0  0  0  0  0  0  0  0  0  0  0  0
   60.2614   29.1329   46.3254 H   0  0  0  0  0  0  0  0  0  0  0  0
   58.8114   28.9865   47.4033 H   0  0  0  0  0  0  0  0  0  0  0  0
   58.9993   28.2194   43.4199 H   0  0  0  0  0  0  0  0  0  0  0  0
   58.7220   25.7673   43.0532 H   0  0  0  0  0  0  0  0  0  0  0  0
   56.6284   23.8423   47.3766 H   0  0  0  0  0  0  0  0  0  0  0  0
   55.2894   24.3711   46.2934 H   0  0  0  0  0  0  0  0  0  0  0  0
   54.5897   22.6141   47.9535 H   0  0  0  0  0  0  0  0  0  0  0  0
   54.3810   22.1078   46.2321 H   0  0  0  0  0  0  0  0  0  0  0  0
   55.3672   20.2791   47.6370 H   0  0  0  0  0  0  0  0  0  0  0  0
   56.8804   19.2207   48.6797 H   0  0  0  0  0  0  0  0  0  0  0  0
   58.4743   19.8161   48.0309 H   0  0  0  0  0  0  0  0  0  0  0  0
   57.4539   19.7611   50.8758 H   0  0  0  0  0  0  0  0  0  0  0  0
   59.0630   19.3085   50.2153 H   0  0  0  0  0  0  0  0  0  0  0  0
   57.2155   22.1258   51.5813 H   0  0  0  0  0  0  0  0  0  0  0  0
   58.0380   23.2345   50.3819 H   0  0  0  0  0  0  0  0  0  0  0  0
   55.7184   21.3782   50.0063 H   0  0  0  0  0  0  0  0  0  0  0  0
   56.0905   22.9703   49.2440 H   0  0  0  0  0  0  0  0  0  0  0  0
   57.3136   19.8746   46.0542 H   0  0  0  0  0  0  0  0  0  0  0  0
   55.8895   20.5661   45.1770 H   0  0  0  0  0  0  0  0  0  0  0  0
   58.3966   22.0593   46.0960 H   0  0  0  0  0  0  0  0  0  0  0  0
   57.8899   21.6987   44.4028 H   0  0  0  0  0  0  0  0  0  0  0  0
   55.9515   25.5916   46.3760 H   0  0  0  0  0  0  0  0  0  0  0  0
   56.2248   28.0415   46.7349 H   0  0  0  0  0  0  0  0  0  0  0  0
   59.7917   32.1852   45.5554 H   0  0  0  0  0  0  0  0  0  0  0  0
   58.0448   32.3172   45.1634 H   0  0  0  0  0  0  0  0  0  0  0  0
   58.8834   33.4837   47.3379 H   0  0  0  0  0  0  0  0  0  0  0  0
   57.4191   32.4284   47.4568 H   0  0  0  0  0  0  0  0  0  0  0  0
  1  2  1  0
  2  3  2  0
  2  4  1  0
  4  5  1  0
  5  6  2  0
  5  7  1  0
  7  8  1  0
  8  9  1  0
  9 10  1  0
 10 11  1  0
 11 12  2  0
 11 13  1  0
 13 14  2  0
 14 15  1  0
 15 16  2  0
 16 17  1  0
 17 18  2  0
 17 19  1  0
 19 20  1  0
 20 21  1  0
 21 22  1  0
 22 23  1  0
 23 24  1  0
 24 25  1  0
 25 26  1  0
 26 27  1  0
 27 28  1  0
 22 29  1  0
 29 30  1  0
 16 31  1  0
 31 32  2  0
 10 33  1  0
 33 34  1  0
 34  7  1  0
 32 13  1  0
 30 19  1  0
 28 23  1  0
  1 35  1  0
  1 36  1  0
  4 37  1  0
  4 38  1  0
  8 39  1  0
  8 40  1  0
  9 41  1  0
  9 42  1  0
 14 43  1  0
 15 44  1  0
 20 45  1  0
 20 46  1  0
 21 47  1  0
 21 48  1  0
 22 49  1  0
 24 50  1  0
 24 51  1  0
 25 52  1  0
 25 53  1  0
 27 54  1  0
 27 55  1  0
 28 56  1  0
 28 57  1  0
 29 58  1  0
 29 59  1  0
 30 60  1  0
 30 61  1  0
 31 62  1  0
 32 63  1  0
 33 64  1  0
 33 65  1  0
 34 66  1  0
 34 67  1  0
M  END
>  <UniqueID>  (72) 
68

>  <SMILES>  (72) 
NC(=O)CC(=O)N1CCN(C(=O)c2ccc(C(=O)N3CCC(N4CCOCC4)CC3)cc2)CC1

>  <Energy>  (72) 
94.55438862878628

>  <Genealogy>  (72) 
NC(=O)CC(=O)N1CCN(C(=O)c2ccc(C(=O)N3CCC(N4CCOCC4)CC3)cc2)CC1 (3D coordinates assigned)
NC(=O)CC(=O)N1CCN(C(=O)c2ccc(C(=O)N3CCC(N4CCOCC4)CC3)cc2)CC1 (nonaromatic ring conformer: 94.55438862878628 kcal/mol)

>  <smiles>  (72) 
NC(=O)CC(=O)N1CCN(C(=O)c2ccc(C(=O)N3CCC(N4CCOCC4)CC3)cc2)CC1

>  <score_type>  (72) 
oracle

>  <origin>  (72) 
adg

>  <m_score__min__energy>  (72) 
-9.7200000000000006

>  <m_primary>  (72) 
energy

$$$$
72:0
     RDKit          3D

 56 59  0  0  0  0  0  0  0  0999 V2000
   60.8230   29.3220   49.8570 O   0  0  0  0  0  0  0  0  0  0  0  0
   59.8730   29.8130   49.1890 C   0  0  0  0  0  0  0  0  0  0  0  0
   58.8840   28.9490   48.6100 N   0  0  0  0  0  0  0  0  0  0  0  0
   59.1450   27.8250   47.7600 C   0  0  0  0  0  0  0  0  0  0  0  0
   60.4450   27.6280   47.2820 C   0  0  0  0  0  0  0  0  0  0  0  0
   60.7450   26.5180   46.4870 C   0  0  0  0  0  0  0  0  0  0  0  0
   59.7520   25.5850   46.1830 C   0  0  0  0  0  0  0  0  0  0  0  0
   58.4520   25.7510   46.6810 C   0  0  0  0  0  0  0  0  0  0  0  0
   57.2090   24.5420   46.3490 S   0  0  0  0  0  0  0  0  0  0  0  0
   57.3920   23.3750   47.2800 O   0  0  0  0  0  0  0  0  0  0  0  0
   55.8540   25.1390   46.6130 O   0  0  0  0  0  0  0  0  0  0  0  0
   57.2790   23.9820   44.6930 N   0  0  0  0  0  0  0  0  0  0  0  0
   55.9270   23.9400   44.1030 C   0  0  0  0  0  0  0  0  0  0  0  0
   55.9020   23.0160   42.8760 C   0  0  0  0  0  0  0  0  0  0  0  0
   56.2660   21.6690   43.1530 O   0  0  0  0  0  0  0  0  0  0  0  0
   57.0460   21.5160   44.3310 C   0  0  0  0  0  0  0  0  0  0  0  0
   58.0020   22.6960   44.5810 C   0  0  0  0  0  0  0  0  0  0  0  0
   58.1510   26.8750   47.4640 C   0  0  0  0  0  0  0  0  0  0  0  0
   59.7630   31.2810   49.0240 C   0  0  0  0  0  0  0  0  0  0  0  0
   60.6990   32.1390   49.6300 C   0  0  0  0  0  0  0  0  0  0  0  0
   60.6280   33.5200   49.4270 C   0  0  0  0  0  0  0  0  0  0  0  0
   59.6320   34.0590   48.6120 C   0  0  0  0  0  0  0  0  0  0  0  0
   58.6880   33.2200   48.0070 C   0  0  0  0  0  0  0  0  0  0  0  0
   57.6880   33.7590   47.1400 N   0  0  0  0  0  0  0  0  0  0  0  0
   57.8800   33.6290   45.4250 S   0  0  0  0  0  0  0  0  0  0  0  0
   59.1460   34.3090   44.9860 O   0  0  0  0  0  0  0  0  0  0  0  0
   56.7190   34.3000   44.7440 O   0  0  0  0  0  0  0  0  0  0  0  0
   57.9270   31.9210   44.9950 C   0  0  0  0  0  0  0  0  0  0  0  0
   59.0490   31.1400   45.3090 C   0  0  0  0  0  0  0  0  0  0  0  0
   59.1070   29.8010   44.9100 C   0  0  0  0  0  0  0  0  0  0  0  0
   58.0490   29.2380   44.1880 C   0  0  0  0  0  0  0  0  0  0  0  0
   58.1370   27.4130   43.6320 Br  0  0  0  0  0  0  0  0  0  0  0  0
   56.9310   30.0150   43.8680 C   0  0  0  0  0  0  0  0  0  0  0  0
   56.8700   31.3530   44.2690 C   0  0  0  0  0  0  0  0  0  0  0  0
   58.7470   31.8370   48.2250 C   0  0  0  0  0  0  0  0  0  0  0  0
   61.2355   28.3506   47.5331 H   0  0  0  0  0  0  0  0  0  0  0  0
   61.7654   26.3794   46.1002 H   0  0  0  0  0  0  0  0  0  0  0  0
   59.9903   24.7169   45.5508 H   0  0  0  0  0  0  0  0  0  0  0  0
   55.2163   23.5638   44.8536 H   0  0  0  0  0  0  0  0  0  0  0  0
   55.6452   24.9557   43.7884 H   0  0  0  0  0  0  0  0  0  0  0  0
   54.8829   23.0198   42.4620 H   0  0  0  0  0  0  0  0  0  0  0  0
   56.6500   23.4069   42.1706 H   0  0  0  0  0  0  0  0  0  0  0  0
   56.3665   21.4279   45.1915 H   0  0  0  0  0  0  0  0  0  0  0  0
   57.6643   20.6157   44.1997 H   0  0  0  0  0  0  0  0  0  0  0  0
   58.5519   22.5153   45.5164 H   0  0  0  0  0  0  0  0  0  0  0  0
   58.6871   22.7654   43.7232 H   0  0  0  0  0  0  0  0  0  0  0  0
   57.1302   27.0146   47.8494 H   0  0  0  0  0  0  0  0  0  0  0  0
   61.4916   31.7203   50.2675 H   0  0  0  0  0  0  0  0  0  0  0  0
   61.3594   34.1838   49.9111 H   0  0  0  0  0  0  0  0  0  0  0  0
   59.5882   35.1453   48.4443 H   0  0  0  0  0  0  0  0  0  0  0  0
   56.7120   33.8440   47.5000 H   0  0  0  0  0  0  0  0  0  0  0  0
   59.8853   31.5819   45.8705 H   0  0  0  0  0  0  0  0  0  0  0  0
   59.9854   29.1896   45.1641 H   0  0  0  0  0  0  0  0  0  0  0  0
   56.0989   29.5730   43.3003 H   0  0  0  0  0  0  0  0  0  0  0  0
   55.9902   31.9621   44.0143 H   0  0  0  0  0  0  0  0  0  0  0  0
   57.9924   31.1803   47.7675 H   0  0  0  0  0  0  0  0  0  0  0  0
  1  2  2  0
  2  3  1  0
  3  4  1  0
  4  5  2  0
  5  6  1  0
  6  7  2  0
  7  8  1  0
  8  9  1  0
  9 10  2  0
  9 11  2  0
  9 12  1  0
 12 13  1  0
 13 14  1  0
 14 15  1  0
 15 16  1  0
 16 17  1  0
  8 18  2  0
  2 19  1  0
 19 20  2  0
 20 21  1  0
 21 22  2  0
 22 23  1  0
 23 24  1  0
 24 25  1  0
 25 26  2  0
 25 27  2  0
 25 28  1  0
 28 29  2  0
 29 30  1  0
 30 31  2  0
 31 32  1  0
 31 33  1  0
 33 34  2  0
 23 35  2  0
 18  4  1  0
 35 19  1  0
 17 12  1  0
 34 28  1  0
  5 36  1  0
  6 37  1  0
  7 38  1  0
 13 39  1  0
 13 40  1  0
 14 41  1  0
 14 42  1  0
 16 43  1  0
 16 44  1  0
 17 45  1  0
 17 46  1  0
 18 47  1  0
 20 48  1  0
 21 49  1  0
 22 50  1  0
 24 51  1  0
 29 52  1  0
 30 53  1  0
 33 54  1  0
 34 55  1  0
 35 56  1  0
M  CHG  1   3  -1
M  END
>  <UniqueID>  (73) 
69

>  <SMILES>  (73) 
O=C([N-]c1cccc(S(=O)(=O)N2CCOCC2)c1)c1cccc(NS(=O)(=O)c2ccc(Br)cc2)c1

>  <Energy>  (73) 
80.04473108571862

>  <Genealogy>  (73) 
O=C([N-]c1cccc(S(=O)(=O)N2CCOCC2)c1)c1cccc(NS(=O)(=O)c2ccc(Br)cc2)c1 (protonated)
O=C([N-]c1cccc(S(=O)(=O)N2CCOCC2)c1)c1cccc(NS(=O)(=O)c2ccc(Br)cc2)c1 (3D coordinates assigned)
O=C([N-]c1cccc(S(=O)(=O)N2CCOCC2)c1)c1cccc(NS(=O)(=O)c2ccc(Br)cc2)c1 (nonaromatic ring conformer: 80.04473108571862 kcal/mol)

>  <smiles>  (73) 
O=C(Nc1cccc(S(=O)(=O)N2CCOCC2)c1)c1cccc(NS(=O)(=O)c2ccc(Br)cc2)c1

>  <score_type>  (73) 
oracle

>  <origin>  (73) 
adg

>  <m_score__min__energy>  (73) 
-12.800000000000001

>  <m_primary>  (73) 
energy

$$$$
73:0
     RDKit          3D

 48 50  0  0  0  0  0  0  0  0999 V2000
   55.1720   26.7000   45.9990 N   0  0  0  0  0  0  0  0  0  0  0  0
   56.5940   26.7470   46.1160 C   0  0  0  0  0  0  0  0  0  0  0  0
   57.1940   25.7990   46.6920 O   0  0  0  0  0  0  0  0  0  0  0  0
   57.3570   27.9020   45.5850 C   0  0  0  0  0  0  0  0  0  0  0  0
   58.7100   27.7640   45.2370 C   0  0  0  0  0  0  0  0  0  0  0  0
   59.4350   28.8590   44.7620 C   0  0  0  0  0  0  0  0  0  0  0  0
   58.8150   30.1020   44.6140 C   0  0  0  0  0  0  0  0  0  0  0  0
   57.4510   30.2530   44.9280 C   0  0  0  0  0  0  0  0  0  0  0  0
   56.7740   31.5150   44.8160 N   0  0  0  0  0  0  0  0  0  0  0  0
   57.1830   32.7650   45.3910 C   0  0  0  0  0  0  0  0  0  0  0  0
   56.8200   33.8600   44.8840 O   0  0  0  0  0  0  0  0  0  0  0  0
   58.0280   32.7680   46.6290 C   0  0  0  0  0  0  0  0  0  0  0  0
   58.8490   33.9990   46.6810 N   0  0  0  0  0  0  0  0  0  0  0  0
   59.2750   34.3250   48.0590 C   0  0  0  0  0  0  0  0  0  0  0  0
   60.4300   33.4210   48.5170 C   0  0  0  0  0  0  0  0  0  0  0  0
   61.5680   33.3820   47.5600 N   0  0  0  0  0  0  0  0  0  0  0  0
   61.9610   31.9920   47.2360 C   0  0  0  0  0  0  0  0  0  0  0  0
   61.3790   31.0150   48.2270 C   0  0  0  0  0  0  0  0  0  0  0  0
   60.2360   30.2690   47.8940 C   0  0  0  0  0  0  0  0  0  0  0  0
   59.6800   29.3790   48.8210 C   0  0  0  0  0  0  0  0  0  0  0  0
   60.2630   29.2250   50.0840 C   0  0  0  0  0  0  0  0  0  0  0  0
   59.7210   28.3660   50.9820 F   0  0  0  0  0  0  0  0  0  0  0  0
   61.4010   29.9650   50.4210 C   0  0  0  0  0  0  0  0  0  0  0  0
   61.9590   30.8560   49.4980 C   0  0  0  0  0  0  0  0  0  0  0  0
   61.3560   34.2160   46.3530 C   0  0  0  0  0  0  0  0  0  0  0  0
   59.9770   33.9720   45.7110 C   0  0  0  0  0  0  0  0  0  0  0  0
   56.7380   29.1570   45.4290 C   0  0  0  0  0  0  0  0  0  0  0  0
   54.5530   27.0970   46.7440 H   0  0  0  0  0  0  0  0  0  0  0  0
   59.2029   26.7859   45.3392 H   0  0  0  0  0  0  0  0  0  0  0  0
   60.4978   28.7423   44.5035 H   0  0  0  0  0  0  0  0  0  0  0  0
   59.3936   30.9644   44.2514 H   0  0  0  0  0  0  0  0  0  0  0  0
   57.3765   32.7274   47.5144 H   0  0  0  0  0  0  0  0  0  0  0  0
   58.6930   31.8919   46.6134 H   0  0  0  0  0  0  0  0  0  0  0  0
   59.6060   35.3735   48.0928 H   0  0  0  0  0  0  0  0  0  0  0  0
   58.4207   34.1637   48.7329 H   0  0  0  0  0  0  0  0  0  0  0  0
   60.8006   33.7925   49.4838 H   0  0  0  0  0  0  0  0  0  0  0  0
   60.0317   32.3981   48.5881 H   0  0  0  0  0  0  0  0  0  0  0  0
   61.5962   31.7416   46.2289 H   0  0  0  0  0  0  0  0  0  0  0  0
   63.0578   31.9210   47.2803 H   0  0  0  0  0  0  0  0  0  0  0  0
   59.7762   30.3845   46.9014 H   0  0  0  0  0  0  0  0  0  0  0  0
   58.7832   28.7997   48.5561 H   0  0  0  0  0  0  0  0  0  0  0  0
   61.8584   29.8461   51.4143 H   0  0  0  0  0  0  0  0  0  0  0  0
   62.8549   31.4344   49.7676 H   0  0  0  0  0  0  0  0  0  0  0  0
   61.4317   35.2759   46.6372 H   0  0  0  0  0  0  0  0  0  0  0  0
   62.1247   33.9431   45.6151 H   0  0  0  0  0  0  0  0  0  0  0  0
   59.8033   34.7524   44.9555 H   0  0  0  0  0  0  0  0  0  0  0  0
   60.0008   32.9620   45.2758 H   0  0  0  0  0  0  0  0  0  0  0  0
   55.6799   29.2781   45.7044 H   0  0  0  0  0  0  0  0  0  0  0  0
  1  2  1  0
  2  3  2  0
  2  4  1  0
  4  5  2  0
  5  6  1  0
  6  7  2  0
  7  8  1  0
  8  9  1  0
  9 10  1  0
 10 11  2  0
 10 12  1  0
 12 13  1  0
 13 14  1  0
 14 15  1  0
 15 16  1  0
 16 17  1  0
 17 18  1  0
 18 19  2  0
 19 20  1  0
 20 21  2  0
 21 22  1  0
 21 23  1  0
 23 24  2  0
 16 25  1  0
 25 26  1  0
  8 27  2  0
 27  4  1  0
 26 13  1  0
 24 18  1  0
  1 28  1  0
  5 29  1  0
  6 30  1  0
  7 31  1  0
 12 32  1  0
 12 33  1  0
 14 34  1  0
 14 35  1  0
 15 36  1  0
 15 37  1  0
 17 38  1  0
 17 39  1  0
 19 40  1  0
 20 41  1  0
 23 42  1  0
 24 43  1  0
 25 44  1  0
 25 45  1  0
 26 46  1  0
 26 47  1  0
 27 48  1  0
M  CHG  2   1  -1   9  -1
M  END
>  <UniqueID>  (74) 
70

>  <SMILES>  (74) 
[NH-]C(=O)c1cccc([N-]C(=O)CN2CCN(Cc3ccc(F)cc3)CC2)c1

>  <Energy>  (74) 
68.42672051245471

>  <Genealogy>  (74) 
[NH-]C(=O)c1cccc([N-]C(=O)CN2CCN(Cc3ccc(F)cc3)CC2)c1 (protonated)
[NH-]C(=O)c1cccc([N-]C(=O)CN2CCN(Cc3ccc(F)cc3)CC2)c1 (3D coordinates assigned)
[NH-]C(=O)c1cccc([N-]C(=O)CN2CCN(Cc3ccc(F)cc3)CC2)c1 (nonaromatic ring conformer: 68.42672051245471 kcal/mol)

>  <smiles>  (74) 
NC(=O)c1cccc(NC(=O)CN2CCN(Cc3ccc(F)cc3)CC2)c1

>  <score_type>  (74) 
oracle

>  <origin>  (74) 
adg

>  <m_score__min__energy>  (74) 
-13.300000000000001

>  <m_primary>  (74) 
energy

$$$$
74:0
     RDKit          3D

 35 37  0  0  0  0  0  0  0  0999 V2000
   54.8880   26.3340   45.9850 N   0  0  0  0  0  0  0  0  0  0  0  0
   56.3490   25.4330   46.1870 S   0  0  0  0  0  0  0  0  0  0  0  0
   56.0670   24.2100   47.0120 O   0  0  0  0  0  0  0  0  0  0  0  0
   56.8600   25.0120   44.8390 O   0  0  0  0  0  0  0  0  0  0  0  0
   57.5720   26.4320   47.0210 C   0  0  0  0  0  0  0  0  0  0  0  0
   57.6960   27.7870   46.3550 C   0  0  0  0  0  0  0  0  0  0  0  0
   57.0690   27.9700   45.1570 N   0  0  0  0  0  0  0  0  0  0  0  0
   57.1780   29.1360   44.4680 C   0  0  0  0  0  0  0  0  0  0  0  0
   56.5240   29.2990   43.2360 C   0  0  0  0  0  0  0  0  0  0  0  0
   56.6410   30.4990   42.5300 C   0  0  0  0  0  0  0  0  0  0  0  0
   57.4120   31.5430   43.0460 C   0  0  0  0  0  0  0  0  0  0  0  0
   58.0690   31.3920   44.2700 C   0  0  0  0  0  0  0  0  0  0  0  0
   57.9560   30.1860   44.9900 C   0  0  0  0  0  0  0  0  0  0  0  0
   58.5970   29.9900   46.2230 C   0  0  0  0  0  0  0  0  0  0  0  0
   59.2960   30.9190   46.7200 O   0  0  0  0  0  0  0  0  0  0  0  0
   58.4630   28.7990   46.8890 N   0  0  0  0  0  0  0  0  0  0  0  0
   59.1220   28.6420   48.1610 C   0  0  0  0  0  0  0  0  0  0  0  0
   60.1120   27.6610   48.3260 C   0  0  0  0  0  0  0  0  0  0  0  0
   60.7640   27.5230   49.5550 C   0  0  0  0  0  0  0  0  0  0  0  0
   60.4420   28.3690   50.6200 C   0  0  0  0  0  0  0  0  0  0  0  0
   59.4680   29.3610   50.4550 C   0  0  0  0  0  0  0  0  0  0  0  0
   59.0700   30.4280   51.7890 Cl  0  0  0  0  0  0  0  0  0  0  0  0
   58.8140   29.5020   49.2270 C   0  0  0  0  0  0  0  0  0  0  0  0
   55.1410   27.3450   46.0590 H   0  0  0  0  0  0  0  0  0  0  0  0
   57.2716   26.5707   48.0701 H   0  0  0  0  0  0  0  0  0  0  0  0
   58.5443   25.9202   46.9688 H   0  0  0  0  0  0  0  0  0  0  0  0
   56.4950   27.1920   44.7580 H   0  0  0  0  0  0  0  0  0  0  0  0
   55.9172   28.4786   42.8252 H   0  0  0  0  0  0  0  0  0  0  0  0
   56.1251   30.6217   41.5663 H   0  0  0  0  0  0  0  0  0  0  0  0
   57.5023   32.4864   42.4875 H   0  0  0  0  0  0  0  0  0  0  0  0
   58.6758   32.2165   44.6724 H   0  0  0  0  0  0  0  0  0  0  0  0
   60.3753   26.9998   47.4872 H   0  0  0  0  0  0  0  0  0  0  0  0
   61.5324   26.7466   49.6842 H   0  0  0  0  0  0  0  0  0  0  0  0
   60.9536   28.2554   51.5872 H   0  0  0  0  0  0  0  0  0  0  0  0
   58.0564   30.2887   49.0960 H   0  0  0  0  0  0  0  0  0  0  0  0
  1  2  1  0
  2  3  2  0
  2  4  2  0
  2  5  1  0
  5  6  1  0
  6  7  2  0
  7  8  1  0
  8  9  2  0
  9 10  1  0
 10 11  2  0
 11 12  1  0
 12 13  2  0
 13 14  1  0
 14 15  2  0
 14 16  1  0
 16 17  1  0
 17 18  2  0
 18 19  1  0
 19 20  2  0
 20 21  1  0
 21 22  1  0
 21 23  2  0
 16  6  1  0
 23 17  1  0
 13  8  1  0
  1 24  1  0
  5 25  1  0
  5 26  1  0
  7 27  1  0
  9 28  1  0
 10 29  1  0
 11 30  1  0
 12 31  1  0
 18 32  1  0
 19 33  1  0
 20 34  1  0
 23 35  1  0
M  CHG  2   1  -1   7   1
M  END
>  <UniqueID>  (75) 
71

>  <SMILES>  (75) 
[NH-]S(=O)(=O)Cc1[nH+]c2ccccc2c(=O)n1-c1cccc(Cl)c1

>  <Energy>  (75) 
47.03986516924738

>  <Genealogy>  (75) 
[NH-]S(=O)(=O)Cc1[nH+]c2ccccc2c(=O)n1-c1cccc(Cl)c1 (protonated)
[NH-]S(=O)(=O)Cc1[nH+]c2ccccc2c(=O)n1-c1cccc(Cl)c1 (3D coordinates assigned)
[NH-]S(=O)(=O)Cc1[nH+]c2ccccc2c(=O)n1-c1cccc(Cl)c1 (optimized conformer: 47.03986516924738 kcal/mol)

>  <smiles>  (75) 
NS(=O)(=O)Cc1nc2ccccc2c(=O)n1-c1cccc(Cl)c1

>  <score_type>  (75) 
oracle

>  <origin>  (75) 
adg

>  <m_score__min__energy>  (75) 
-9.1400000000000006

>  <m_primary>  (75) 
energy

$$$$
75:0
     RDKit          3D

 40 42  0  0  0  0  0  0  0  0999 V2000
   54.7420   27.0880   46.6870 H   0  0  0  0  0  0  0  0  0  0  0  0
   54.7740   26.3390   45.9600 N   0  0  0  0  0  0  0  0  0  0  0  0
   56.2990   25.5440   46.1230 S   0  0  0  0  0  0  0  0  0  0  0  0
   56.6920   24.9460   44.8010 O   0  0  0  0  0  0  0  0  0  0  0  0
   56.1870   24.4400   47.1370 O   0  0  0  0  0  0  0  0  0  0  0  0
   57.5150   26.7060   46.6440 C   0  0  0  0  0  0  0  0  0  0  0  0
   58.5160   26.3160   47.5410 C   0  0  0  0  0  0  0  0  0  0  0  0
   58.5479   25.2797   47.9086 H   0  0  0  0  0  0  0  0  0  0  0  0
   59.4750   27.2360   47.9720 C   0  0  0  0  0  0  0  0  0  0  0  0
   60.2570   26.9192   48.6777 H   0  0  0  0  0  0  0  0  0  0  0  0
   59.4480   28.5650   47.5100 C   0  0  0  0  0  0  0  0  0  0  0  0
   60.4640   29.5460   47.9650 C   0  0  0  0  0  0  0  0  0  0  0  0
   60.8350   29.7000   49.3040 C   0  0  0  0  0  0  0  0  0  0  0  0
   60.4388   29.1242   50.1534 H   0  0  0  0  0  0  0  0  0  0  0  0
   61.9930   30.9190   49.3920 S   0  0  0  0  0  0  0  0  0  0  0  0
   61.9880   31.1970   47.7300 C   0  0  0  0  0  0  0  0  0  0  0  0
   62.7020   32.0750   47.0860 N   0  0  0  0  0  0  0  0  0  0  0  0
   62.7890   33.4860   47.3410 C   0  0  0  0  0  0  0  0  0  0  0  0
   63.2300   34.2860   46.4720 O   0  0  0  0  0  0  0  0  0  0  0  0
   62.2940   34.0260   48.6480 C   0  0  0  0  0  0  0  0  0  0  0  0
   62.2253   33.2032   49.3748 H   0  0  0  0  0  0  0  0  0  0  0  0
   62.9993   34.7927   49.0012 H   0  0  0  0  0  0  0  0  0  0  0  0
   61.0070   34.6250   48.4970 O   0  0  0  0  0  0  0  0  0  0  0  0
   60.0360   34.2330   47.5610 C   0  0  0  0  0  0  0  0  0  0  0  0
   59.1430   33.1670   47.7910 C   0  0  0  0  0  0  0  0  0  0  0  0
   59.1875   32.6098   48.7384 H   0  0  0  0  0  0  0  0  0  0  0  0
   58.2010   32.8150   46.8200 C   0  0  0  0  0  0  0  0  0  0  0  0
   57.5088   31.9801   47.0038 H   0  0  0  0  0  0  0  0  0  0  0  0
   58.1370   33.5220   45.6160 C   0  0  0  0  0  0  0  0  0  0  0  0
   57.3949   33.2443   44.8530 H   0  0  0  0  0  0  0  0  0  0  0  0
   59.0170   34.5820   45.3830 C   0  0  0  0  0  0  0  0  0  0  0  0
   58.9672   35.1388   44.4356 H   0  0  0  0  0  0  0  0  0  0  0  0
   59.9600   34.9360   46.3510 C   0  0  0  0  0  0  0  0  0  0  0  0
   60.6482   35.7730   46.1620 H   0  0  0  0  0  0  0  0  0  0  0  0
   61.1120   30.3830   47.1040 N   0  0  0  0  0  0  0  0  0  0  0  0
   60.9720   30.3860   46.0690 H   0  0  0  0  0  0  0  0  0  0  0  0
   58.4370   28.9520   46.6120 C   0  0  0  0  0  0  0  0  0  0  0  0
   58.4018   29.9874   46.2422 H   0  0  0  0  0  0  0  0  0  0  0  0
   57.4760   28.0290   46.1860 C   0  0  0  0  0  0  0  0  0  0  0  0
   56.6861   28.3437   45.4881 H   0  0  0  0  0  0  0  0  0  0  0  0
  1  2  1  0
  2  3  1  0
  3  4  2  0
  3  5  2  0
  3  6  1  0
  6  7  2  0
  7  8  1  0
  7  9  1  0
  9 10  1  0
  9 11  2  0
 11 12  1  0
 12 13  2  0
 13 14  1  0
 13 15  1  0
 15 16  1  0
 16 17  2  0
 17 18  1  0
 18 19  2  0
 18 20  1  0
 20 21  1  0
 20 22  1  0
 20 23  1  0
 23 24  1  0
 24 25  2  0
 25 26  1  0
 25 27  1  0
 27 28  1  0
 27 29  2  0
 29 30  1  0
 29 31  1  0
 31 32  1  0
 31 33  2  0
 33 34  1  0
 16 35  1  0
 35 36  1  0
 11 37  1  0
 37 38  1  0
 37 39  2  0
 39 40  1  0
 39  6  1  0
 35 12  1  0
 33 24  1  0
M  CHG  1   2  -1
M  END
>  <UniqueID>  (76) 
72

>  <SMILES>  (76) 
[NH-]S(=O)(=O)c1ccc(-c2cs/c(=N\C(=O)COc3ccccc3)[nH]2)cc1

>  <Energy>  (76) 
77.90770484459289

>  <Genealogy>  (76) 
[NH-]S(=O)(=O)c1ccc(-c2csc(=NC(=O)COc3ccccc3)[nH]2)cc1 (protonated)
[NH-]S(=O)(=O)c1ccc(-c2cs/c(=N\C(=O)COc3ccccc3)[nH]2)cc1 (cis-trans isomerization)
[NH-]S(=O)(=O)c1ccc(-c2cs/c(=N\C(=O)COc3ccccc3)[nH]2)cc1 (3D coordinates assigned)
[NH-]S(=O)(=O)c1ccc(-c2cs/c(=N\C(=O)COc3ccccc3)[nH]2)cc1 (optimized conformer: 77.90770484459289 kcal/mol)

>  <smiles>  (76) 
NS(=O)(=O)c1ccc(-c2csc(=NC(=O)COc3ccccc3)[nH]2)cc1

>  <score_type>  (76) 
oracle

>  <origin>  (76) 
adg

>  <m_score__min__energy>  (76) 
-10.68

>  <m_primary>  (76) 
energy

$$$$
76:0
     RDKit          3D

 64 68  0  0  0  0  0  0  0  0999 V2000
   58.6300   31.4540   53.5130 C   0  0  0  0  0  0  0  0  0  0  0  0
   59.5920   31.2440   52.3870 C   0  0  0  0  0  0  0  0  0  0  0  0
   60.5590   32.2110   52.0930 C   0  0  0  0  0  0  0  0  0  0  0  0
   61.4410   31.9750   51.0330 C   0  0  0  0  0  0  0  0  0  0  0  0
   62.5100   32.9650   50.6750 C   0  0  0  0  0  0  0  0  0  0  0  0
   62.4770   33.2450   49.1990 C   0  0  0  0  0  0  0  0  0  0  0  0
   61.2740   33.3490   48.5720 N   0  0  0  0  0  0  0  0  0  0  0  0
   61.1680   33.6420   47.2460 C   0  0  0  0  0  0  0  0  0  0  0  0
   59.8230   33.7300   46.6230 C   0  0  0  0  0  0  0  0  0  0  0  0
   58.7240   33.0930   47.2330 C   0  0  0  0  0  0  0  0  0  0  0  0
   57.4510   33.1700   46.6620 C   0  0  0  0  0  0  0  0  0  0  0  0
   57.2540   33.8910   45.4820 C   0  0  0  0  0  0  0  0  0  0  0  0
   58.3300   34.5390   44.8730 C   0  0  0  0  0  0  0  0  0  0  0  0
   59.6060   34.4650   45.4390 C   0  0  0  0  0  0  0  0  0  0  0  0
   62.3490   33.8360   46.5090 C   0  0  0  0  0  0  0  0  0  0  0  0
   63.5530   33.7490   47.1310 N   0  0  0  0  0  0  0  0  0  0  0  0
   63.6480   33.4680   48.4560 C   0  0  0  0  0  0  0  0  0  0  0  0
   64.7830   33.4110   48.9990 O   0  0  0  0  0  0  0  0  0  0  0  0
   61.3530   30.8110   50.3390 N   0  0  0  0  0  0  0  0  0  0  0  0
   60.4200   29.8670   50.6460 C   0  0  0  0  0  0  0  0  0  0  0  0
   60.3350   28.7620   49.9650 N   0  0  0  0  0  0  0  0  0  0  0  0
   59.7420   28.6400   48.6620 C   0  0  0  0  0  0  0  0  0  0  0  0
   59.9150   27.4550   47.9380 C   0  0  0  0  0  0  0  0  0  0  0  0
   59.2960   27.2900   46.6960 C   0  0  0  0  0  0  0  0  0  0  0  0
   58.5260   28.3270   46.1440 C   0  0  0  0  0  0  0  0  0  0  0  0
   57.7150   28.0910   44.9010 C   0  0  0  0  0  0  0  0  0  0  0  0
   56.2680   28.2340   45.2460 C   0  0  0  0  0  0  0  0  0  0  0  0
   55.6850   29.3400   45.0840 O   0  0  0  0  0  0  0  0  0  0  0  0
   55.5210   27.0810   45.6440 N   0  0  0  0  0  0  0  0  0  0  0  0
   56.0960   25.7800   45.8330 C   0  0  0  0  0  0  0  0  0  0  0  0
   56.6780   25.4680   47.0670 C   0  0  0  0  0  0  0  0  0  0  0  0
   57.2950   24.2300   47.2620 C   0  0  0  0  0  0  0  0  0  0  0  0
   57.3550   23.3020   46.2200 C   0  0  0  0  0  0  0  0  0  0  0  0
   56.8080   23.6120   44.9610 C   0  0  0  0  0  0  0  0  0  0  0  0
   56.8570   22.6260   43.8210 C   0  0  0  0  0  0  0  0  0  0  0  0
   56.5950   23.2730   42.6260 F   0  0  0  0  0  0  0  0  0  0  0  0
   58.1010   22.0240   43.7240 F   0  0  0  0  0  0  0  0  0  0  0  0
   55.9020   21.6470   44.0230 F   0  0  0  0  0  0  0  0  0  0  0  0
   56.1640   24.8480   44.7810 C   0  0  0  0  0  0  0  0  0  0  0  0
   58.3990   29.5360   46.8460 C   0  0  0  0  0  0  0  0  0  0  0  0
   59.0100   29.6960   48.0910 C   0  0  0  0  0  0  0  0  0  0  0  0
   59.5430   30.0960   51.6580 N   0  0  0  0  0  0  0  0  0  0  0  0
   59.1569   31.3390   54.4717 H   0  0  0  0  0  0  0  0  0  0  0  0
   58.2044   32.4662   53.4477 H   0  0  0  0  0  0  0  0  0  0  0  0
   57.8213   30.7112   53.4477 H   0  0  0  0  0  0  0  0  0  0  0  0
   60.6245   33.1373   52.6827 H   0  0  0  0  0  0  0  0  0  0  0  0
   62.3396   33.9009   51.2273 H   0  0  0  0  0  0  0  0  0  0  0  0
   63.4924   32.5482   50.9418 H   0  0  0  0  0  0  0  0  0  0  0  0
   58.8695   32.5302   48.1669 H   0  0  0  0  0  0  0  0  0  0  0  0
   56.6022   32.6617   47.1428 H   0  0  0  0  0  0  0  0  0  0  0  0
   56.2515   33.9481   45.0329 H   0  0  0  0  0  0  0  0  0  0  0  0
   58.1734   35.1092   43.9455 H   0  0  0  0  0  0  0  0  0  0  0  0
   60.4476   34.9842   44.9571 H   0  0  0  0  0  0  0  0  0  0  0  0
   62.2982   34.0574   45.4327 H   0  0  0  0  0  0  0  0  0  0  0  0
   60.5414   26.6493   48.3486 H   0  0  0  0  0  0  0  0  0  0  0  0
   59.4123   26.3434   46.1480 H   0  0  0  0  0  0  0  0  0  0  0  0
   57.9884   28.8300   44.1334 H   0  0  0  0  0  0  0  0  0  0  0  0
   57.9114   27.0825   44.5081 H   0  0  0  0  0  0  0  0  0  0  0  0
   56.6494   26.2008   47.8869 H   0  0  0  0  0  0  0  0  0  0  0  0
   57.7352   23.9851   48.2399 H   0  0  0  0  0  0  0  0  0  0  0  0
   57.8319   22.3245   46.3841 H   0  0  0  0  0  0  0  0  0  0  0  0
   55.7090   25.0891   43.8090 H   0  0  0  0  0  0  0  0  0  0  0  0
   57.8151   30.3615   46.4129 H   0  0  0  0  0  0  0  0  0  0  0  0
   58.9184   30.6520   48.6274 H   0  0  0  0  0  0  0  0  0  0  0  0
  1  2  1  0
  2  3  1  0
  3  4  2  0
  4  5  1  0
  5  6  1  0
  6  7  2  0
  7  8  1  0
  8  9  1  0
  9 10  2  0
 10 11  1  0
 11 12  2  0
 12 13  1  0
 13 14  2  0
  8 15  2  0
 15 16  1  0
 16 17  1  0
 17 18  2  0
  4 19  1  0
 19 20  1  0
 20 21  2  3
 21 22  1  0
 22 23  2  0
 23 24  1  0
 24 25  2  0
 25 26  1  0
 26 27  1  0
 27 28  2  0
 27 29  1  0
 29 30  1  0
 30 31  2  0
 31 32  1  0
 32 33  2  0
 33 34  1  0
 34 35  1  0
 35 36  1  0
 35 37  1  0
 35 38  1  0
 34 39  2  0
 25 40  1  0
 40 41  2  0
 20 42  1  0
 42  2  2  0
 17  6  1  0
 41 22  1  0
 14  9  1  0
 39 30  1  0
  1 43  1  0
  1 44  1  0
  1 45  1  0
  3 46  1  0
  5 47  1  0
  5 48  1  0
 10 49  1  0
 11 50  1  0
 12 51  1  0
 13 52  1  0
 14 53  1  0
 15 54  1  0
 23 55  1  0
 24 56  1  0
 26 57  1  0
 26 58  1  0
 31 59  1  0
 32 60  1  0
 33 61  1  0
 39 62  1  0
 40 63  1  0
 41 64  1  0
M  CHG  3  16  -1  19  -1  29  -1
M  END
>  <UniqueID>  (77) 
73

>  <SMILES>  (77) 
Cc1cc(Cc2nc(-c3ccccc3)c[n-]c2=O)[n-]c(=Nc2ccc(CC(=O)[N-]c3cccc(C(F)(F)F)c3)cc2)n1

>  <Energy>  (77) 
80.46342372344523

>  <Genealogy>  (77) 
Cc1cc(Cc2nc(-c3ccccc3)c[n-]c2=O)[n-]c(=Nc2ccc(CC(=O)[N-]c3cccc(C(F)(F)F)c3)cc2)n1 (protonated)
Cc1cc(Cc2nc(-c3ccccc3)c[n-]c2=O)[n-]c(=Nc2ccc(CC(=O)[N-]c3cccc(C(F)(F)F)c3)cc2)n1 (3D coordinates assigned)
Cc1cc(Cc2nc(-c3ccccc3)c[n-]c2=O)[n-]c(=Nc2ccc(CC(=O)[N-]c3cccc(C(F)(F)F)c3)cc2)n1 (optimized conformer: 80.46342372344523 kcal/mol)

>  <smiles>  (77) 
Cc1cc(Cc2nc(-c3ccccc3)c[nH]c2=O)[nH]c(=Nc2ccc(CC(=O)Nc3cccc(C(F)(F)F)c3)cc2)n1

>  <score_type>  (77) 
oracle

>  <origin>  (77) 
adg

>  <m_score__min__energy>  (77) 
-13.91

>  <m_primary>  (77) 
energy

$$$$
77:0
     RDKit          3D

 33 34  0  0  0  0  0  0  0  0999 V2000
   57.9800   26.6990   42.5460 N   0  0  0  0  0  0  0  0  0  0  0  0
   57.8320   27.5710   43.2920 C   0  0  0  0  0  0  0  0  0  0  0  0
   57.6530   28.6580   44.2270 C   0  0  0  0  0  0  0  0  0  0  0  0
   58.5780   29.6200   44.3850 C   0  0  0  0  0  0  0  0  0  0  0  0
   58.2730   31.0060   44.8090 C   0  0  0  0  0  0  0  0  0  0  0  0
   58.4930   31.3690   46.1430 C   0  0  0  0  0  0  0  0  0  0  0  0
   58.2070   32.6640   46.5740 C   0  0  0  0  0  0  0  0  0  0  0  0
   57.6800   33.5850   45.6690 C   0  0  0  0  0  0  0  0  0  0  0  0
   57.4360   33.2170   44.3820 N   0  0  0  0  0  0  0  0  0  0  0  0
   57.7040   31.9570   43.9360 C   0  0  0  0  0  0  0  0  0  0  0  0
   57.4170   31.6450   42.7480 O   0  0  0  0  0  0  0  0  0  0  0  0
   56.4240   28.6710   45.0370 C   0  0  0  0  0  0  0  0  0  0  0  0
   55.8160   29.7600   45.2050 O   0  0  0  0  0  0  0  0  0  0  0  0
   55.8760   27.4770   45.6130 N   0  0  0  0  0  0  0  0  0  0  0  0
   56.6200   26.5020   46.4080 C   0  0  0  0  0  0  0  0  0  0  0  0
   57.9940   27.0220   46.7360 C   0  0  0  0  0  0  0  0  0  0  0  0
   58.1450   28.1120   47.6100 C   0  0  0  0  0  0  0  0  0  0  0  0
   59.4200   28.5830   47.9360 C   0  0  0  0  0  0  0  0  0  0  0  0
   60.5530   27.9700   47.3930 C   0  0  0  0  0  0  0  0  0  0  0  0
   60.4120   26.8880   46.5210 C   0  0  0  0  0  0  0  0  0  0  0  0
   59.1380   26.4160   46.1900 C   0  0  0  0  0  0  0  0  0  0  0  0
   59.6287   29.3616   44.1868 H   0  0  0  0  0  0  0  0  0  0  0  0
   58.8927   30.6304   46.8534 H   0  0  0  0  0  0  0  0  0  0  0  0
   58.3952   32.9563   47.6176 H   0  0  0  0  0  0  0  0  0  0  0  0
   57.4609   34.6120   45.9966 H   0  0  0  0  0  0  0  0  0  0  0  0
   57.0230   33.9190   43.7280 H   0  0  0  0  0  0  0  0  0  0  0  0
   56.0748   26.3069   47.3432 H   0  0  0  0  0  0  0  0  0  0  0  0
   56.7221   25.5743   45.8258 H   0  0  0  0  0  0  0  0  0  0  0  0
   57.2559   28.5967   48.0395 H   0  0  0  0  0  0  0  0  0  0  0  0
   59.5320   29.4368   48.6205 H   0  0  0  0  0  0  0  0  0  0  0  0
   61.5559   28.3399   47.6526 H   0  0  0  0  0  0  0  0  0  0  0  0
   61.3042   26.4066   46.0941 H   0  0  0  0  0  0  0  0  0  0  0  0
   59.0310   25.5667   45.4992 H   0  0  0  0  0  0  0  0  0  0  0  0
  1  2  3  0
  2  3  1  0
  3  4  2  3
  4  5  1  0
  5  6  2  0
  6  7  1  0
  7  8  2  0
  8  9  1  0
  9 10  1  0
 10 11  2  0
  3 12  1  0
 12 13  2  0
 12 14  1  0
 14 15  1  0
 15 16  1  0
 16 17  2  0
 17 18  1  0
 18 19  2  0
 19 20  1  0
 20 21  2  0
 10  5  1  0
 21 16  1  0
  4 22  1  0
  6 23  1  0
  7 24  1  0
  8 25  1  0
  9 26  1  0
 15 27  1  0
 15 28  1  0
 17 29  1  0
 18 30  1  0
 19 31  1  0
 20 32  1  0
 21 33  1  0
M  CHG  1  14  -1
M  END
>  <UniqueID>  (78) 
74

>  <SMILES>  (78) 
N#CC(=Cc1ccc[nH]c1=O)C(=O)[N-]Cc1ccccc1

>  <Energy>  (78) 
42.883237390858696

>  <Genealogy>  (78) 
N#CC(=Cc1ccc[nH]c1=O)C(=O)[N-]Cc1ccccc1 (protonated)
N#CC(=Cc1ccc[nH]c1=O)C(=O)[N-]Cc1ccccc1 (3D coordinates assigned)
N#CC(=Cc1ccc[nH]c1=O)C(=O)[N-]Cc1ccccc1 (optimized conformer: 42.883237390858696 kcal/mol)

>  <smiles>  (78) 
N#CC(=Cc1ccc[nH]c1=O)C(=O)NCc1ccccc1

>  <score_type>  (78) 
oracle

>  <origin>  (78) 
adg

>  <m_score__min__energy>  (78) 
-9.1799999999999997

>  <m_primary>  (78) 
energy

$$$$
78:0
     RDKit          3D

 50 53  0  0  0  0  0  0  0  0999 V2000
   61.6020   33.7830   46.2060 N   0  0  0  0  0  0  0  0  0  0  0  0
   61.6240   33.0790   47.1230 C   0  0  0  0  0  0  0  0  0  0  0  0
   61.6490   32.2010   48.2680 C   0  0  0  0  0  0  0  0  0  0  0  0
   61.2210   30.8700   48.2470 C   0  0  0  0  0  0  0  0  0  0  0  0
   60.7280   30.1440   47.1130 N   0  0  0  0  0  0  0  0  0  0  0  0
   59.3300   29.9770   46.8350 C   0  0  0  0  0  0  0  0  0  0  0  0
   58.4950   30.7800   47.3350 O   0  0  0  0  0  0  0  0  0  0  0  0
   58.8580   28.8990   45.9320 C   0  0  0  0  0  0  0  0  0  0  0  0
   59.3090   28.8430   44.6010 C   0  0  0  0  0  0  0  0  0  0  0  0
   58.8670   27.8300   43.7450 C   0  0  0  0  0  0  0  0  0  0  0  0
   57.9660   26.8670   44.2030 C   0  0  0  0  0  0  0  0  0  0  0  0
   57.4930   26.9190   45.5200 C   0  0  0  0  0  0  0  0  0  0  0  0
   56.3550   25.7080   46.1050 S   0  0  0  0  0  0  0  0  0  0  0  0
   54.7470   26.3320   46.0050 N   0  0  0  0  0  0  0  0  0  0  0  0
   56.4660   24.4630   45.2690 O   0  0  0  0  0  0  0  0  0  0  0  0
   56.6650   25.3600   47.5330 O   0  0  0  0  0  0  0  0  0  0  0  0
   57.9420   27.9310   46.3810 C   0  0  0  0  0  0  0  0  0  0  0  0
   61.2460   30.2500   49.8130 S   0  0  0  0  0  0  0  0  0  0  0  0
   61.8200   31.6590   50.5270 C   0  0  0  0  0  0  0  0  0  0  0  0
   62.0130   32.6300   49.5550 C   0  0  0  0  0  0  0  0  0  0  0  0
   62.4560   34.0190   49.9170 C   0  0  0  0  0  0  0  0  0  0  0  0
   63.0160   34.0720   51.3560 C   0  0  0  0  0  0  0  0  0  0  0  0
   62.2110   33.2890   52.3300 N   0  0  0  0  0  0  0  0  0  0  0  0
   60.8500   33.8300   52.5390 C   0  0  0  0  0  0  0  0  0  0  0  0
   59.8050   32.7650   52.3310 C   0  0  0  0  0  0  0  0  0  0  0  0
   59.5830   31.7810   53.3080 C   0  0  0  0  0  0  0  0  0  0  0  0
   58.6250   30.7840   53.0980 C   0  0  0  0  0  0  0  0  0  0  0  0
   57.8840   30.7610   51.9120 C   0  0  0  0  0  0  0  0  0  0  0  0
   56.9320   29.7700   51.7050 O   0  0  0  0  0  0  0  0  0  0  0  0
   58.1030   31.7360   50.9330 C   0  0  0  0  0  0  0  0  0  0  0  0
   59.0610   32.7340   51.1400 C   0  0  0  0  0  0  0  0  0  0  0  0
   62.1790   31.8520   51.9680 C   0  0  0  0  0  0  0  0  0  0  0  0
   61.4170   29.8780   46.3750 H   0  0  0  0  0  0  0  0  0  0  0  0
   60.0144   29.6016   44.2310 H   0  0  0  0  0  0  0  0  0  0  0  0
   59.2302   27.7916   42.7074 H   0  0  0  0  0  0  0  0  0  0  0  0
   57.6273   26.0666   43.5287 H   0  0  0  0  0  0  0  0  0  0  0  0
   54.6700   27.0940   46.7140 H   0  0  0  0  0  0  0  0  0  0  0  0
   57.5743   27.9679   47.4171 H   0  0  0  0  0  0  0  0  0  0  0  0
   63.2401   34.3394   49.2152 H   0  0  0  0  0  0  0  0  0  0  0  0
   61.5847   34.6879   49.8585 H   0  0  0  0  0  0  0  0  0  0  0  0
   64.0401   33.6706   51.3470 H   0  0  0  0  0  0  0  0  0  0  0  0
   62.9853   35.1231   51.6788 H   0  0  0  0  0  0  0  0  0  0  0  0
   60.7705   34.2155   53.5662 H   0  0  0  0  0  0  0  0  0  0  0  0
   60.6783   34.6351   51.8094 H   0  0  0  0  0  0  0  0  0  0  0  0
   60.1646   31.7945   54.2416 H   0  0  0  0  0  0  0  0  0  0  0  0
   58.4539   30.0164   53.8671 H   0  0  0  0  0  0  0  0  0  0  0  0
   57.5213   31.7178   49.9996 H   0  0  0  0  0  0  0  0  0  0  0  0
   59.2324   33.4976   50.3670 H   0  0  0  0  0  0  0  0  0  0  0  0
   63.1716   31.4147   52.1511 H   0  0  0  0  0  0  0  0  0  0  0  0
   61.4143   31.3568   52.5844 H   0  0  0  0  0  0  0  0  0  0  0  0
  1  2  3  0
  2  3  1  0
  3  4  2  0
  4  5  1  0
  5  6  1  0
  6  7  2  0
  6  8  1  0
  8  9  2  0
  9 10  1  0
 10 11  2  0
 11 12  1  0
 12 13  1  0
 13 14  1  0
 13 15  2  0
 13 16  2  0
 12 17  2  0
  4 18  1  0
 18 19  1  0
 19 20  2  0
 20 21  1  0
 21 22  1  0
 22 23  1  0
 23 24  1  0
 24 25  1  0
 25 26  2  0
 26 27  1  0
 27 28  2  0
 28 29  1  0
 28 30  1  0
 30 31  2  0
 23 32  1  0
 20  3  1  0
 31 25  1  0
 17  8  1  0
 32 19  1  0
  5 33  1  0
  9 34  1  0
 10 35  1  0
 11 36  1  0
 14 37  1  0
 17 38  1  0
 21 39  1  0
 21 40  1  0
 22 41  1  0
 22 42  1  0
 24 43  1  0
 24 44  1  0
 26 45  1  0
 27 46  1  0
 30 47  1  0
 31 48  1  0
 32 49  1  0
 32 50  1  0
M  CHG  2  14  -1  29  -1
M  END
>  <UniqueID>  (79) 
75

>  <SMILES>  (79) 
N#Cc1c(NC(=O)c2cccc(S([NH-])(=O)=O)c2)sc2c1CCN(Cc1ccc([O-])cc1)C2

>  <Energy>  (79) 
91.73818856921287

>  <Genealogy>  (79) 
N#Cc1c(NC(=O)c2cccc(S([NH-])(=O)=O)c2)sc2c1CCN(Cc1ccc([O-])cc1)C2 (protonated)
N#Cc1c(NC(=O)c2cccc(S([NH-])(=O)=O)c2)sc2c1CCN(Cc1ccc([O-])cc1)C2 (3D coordinates assigned)
N#Cc1c(NC(=O)c2cccc(S([NH-])(=O)=O)c2)sc2c1CCN(Cc1ccc([O-])cc1)C2 (nonaromatic ring conformer: 91.73818856921287 kcal/mol)

>  <smiles>  (79) 
N#Cc1c(NC(=O)c2cccc(S(N)(=O)=O)c2)sc2c1CCN(Cc1ccc(O)cc1)C2

>  <score_type>  (79) 
oracle

>  <origin>  (79) 
adg

>  <m_score__min__energy>  (79) 
-13.65

>  <m_primary>  (79) 
energy

$$$$
79:0
     RDKit          3D

 39 41  0  0  0  0  0  0  0  0999 V2000
   57.1156   30.0888   42.1322 H   0  0  0  0  0  0  0  0  0  0  0  0
   57.0020   31.0760   42.6040 C   0  0  0  0  0  0  0  0  0  0  0  0
   56.5236   31.8980   42.0513 H   0  0  0  0  0  0  0  0  0  0  0  0
   57.4460   31.2770   43.8510 C   0  0  0  0  0  0  0  0  0  0  0  0
   57.9770   30.3370   44.7530 C   0  0  0  0  0  0  0  0  0  0  0  0
   58.2460   29.0230   44.5850 C   0  0  0  0  0  0  0  0  0  0  0  0
   59.0572   28.7608   43.8898 H   0  0  0  0  0  0  0  0  0  0  0  0
   57.5450   27.9100   45.2540 C   0  0  0  0  0  0  0  0  0  0  0  0
   56.1440   27.9010   45.3760 C   0  0  0  0  0  0  0  0  0  0  0  0
   55.3840   28.9650   44.9030 O   0  0  0  0  0  0  0  0  0  0  0  0
   55.5230   26.8420   45.9540 N   0  0  0  0  0  0  0  0  0  0  0  0
   56.2290   25.7750   46.4050 C   0  0  0  0  0  0  0  0  0  0  0  0
   55.6320   24.8060   46.9410 O   0  0  0  0  0  0  0  0  0  0  0  0
   57.5800   25.7480   46.2710 N   0  0  0  0  0  0  0  0  0  0  0  0
   58.2500   26.7830   45.7010 C   0  0  0  0  0  0  0  0  0  0  0  0
   59.5040   26.7210   45.5860 O   0  0  0  0  0  0  0  0  0  0  0  0
   58.1370   31.0280   45.9560 C   0  0  0  0  0  0  0  0  0  0  0  0
   58.6860   30.5170   47.2280 C   0  0  0  0  0  0  0  0  0  0  0  0
   58.4970   31.1790   48.2850 O   0  0  0  0  0  0  0  0  0  0  0  0
   59.4320   29.2890   47.2570 N   0  0  0  0  0  0  0  0  0  0  0  0
   59.5040   28.7310   46.3770 H   0  0  0  0  0  0  0  0  0  0  0  0
   60.0170   28.7290   48.4450 C   0  0  0  0  0  0  0  0  0  0  0  0
   60.5140   29.5470   49.4760 C   0  0  0  0  0  0  0  0  0  0  0  0
   60.4399   30.6412   49.3908 H   0  0  0  0  0  0  0  0  0  0  0  0
   61.1020   28.9750   50.6090 C   0  0  0  0  0  0  0  0  0  0  0  0
   61.4798   29.6193   51.4166 H   0  0  0  0  0  0  0  0  0  0  0  0
   61.2100   27.5850   50.7160 C   0  0  0  0  0  0  0  0  0  0  0  0
   61.6651   27.1361   51.6112 H   0  0  0  0  0  0  0  0  0  0  0  0
   60.7400   26.7660   49.6860 C   0  0  0  0  0  0  0  0  0  0  0  0
   60.8313   25.6729   49.7678 H   0  0  0  0  0  0  0  0  0  0  0  0
   60.1540   27.3350   48.5520 C   0  0  0  0  0  0  0  0  0  0  0  0
   59.7976   26.6869   47.7377 H   0  0  0  0  0  0  0  0  0  0  0  0
   57.7310   32.3320   45.7290 C   0  0  0  0  0  0  0  0  0  0  0  0
   57.7140   33.4390   46.7350 C   0  0  0  0  0  0  0  0  0  0  0  0
   57.7205   33.0130   47.7491 H   0  0  0  0  0  0  0  0  0  0  0  0
   58.6025   34.0728   46.5978 H   0  0  0  0  0  0  0  0  0  0  0  0
   56.8064   34.0452   46.5978 H   0  0  0  0  0  0  0  0  0  0  0  0
   57.3210   32.4760   44.4560 N   0  0  0  0  0  0  0  0  0  0  0  0
   56.9370   33.3510   44.0320 H   0  0  0  0  0  0  0  0  0  0  0  0
  1  2  1  0
  2  3  1  0
  2  4  2  0
  4  5  1  0
  5  6  2  0
  6  7  1  0
  6  8  1  0
  8  9  2  0
  9 10  1  0
  9 11  1  0
 11 12  1  0
 12 13  2  0
 12 14  1  0
 14 15  1  0
 15 16  2  0
  5 17  1  0
 17 18  1  0
 18 19  2  0
 18 20  1  0
 20 21  1  0
 20 22  1  0
 22 23  2  0
 23 24  1  0
 23 25  1  0
 25 26  1  0
 25 27  2  0
 27 28  1  0
 27 29  1  0
 29 30  1  0
 29 31  2  0
 31 32  1  0
 17 33  2  0
 33 34  1  0
 34 35  1  0
 34 36  1  0
 34 37  1  0
 33 38  1  0
 38 39  1  0
 38  4  1  0
 15  8  1  0
 31 22  1  0
M  CHG  3  10  -1  11  -1  14  -1
M  END
>  <UniqueID>  (80) 
76

>  <SMILES>  (80) 
C=c1[nH]c(C)c(C(=O)Nc2ccccc2)/c1=C/c1c([O-])[n-]c(=O)[n-]c1=O

>  <Energy>  (80) 
91.56840069839373

>  <Genealogy>  (80) 
C=c1[nH]c(C)c(C(=O)Nc2ccccc2)c1=Cc1c([O-])[n-]c(=O)[n-]c1=O (protonated)
C=c1[nH]c(C)c(C(=O)Nc2ccccc2)/c1=C/c1c([O-])[n-]c(=O)[n-]c1=O (cis-trans isomerization)
C=c1[nH]c(C)c(C(=O)Nc2ccccc2)/c1=C/c1c([O-])[n-]c(=O)[n-]c1=O (3D coordinates assigned)
C=c1[nH]c(C)c(C(=O)Nc2ccccc2)/c1=C/c1c([O-])[n-]c(=O)[n-]c1=O (optimized conformer: 91.56840069839373 kcal/mol)

>  <smiles>  (80) 
C=c1[nH]c(C)c(C(=O)Nc2ccccc2)c1=Cc1c(O)[nH]c(=O)[nH]c1=O

>  <score_type>  (80) 
oracle

>  <origin>  (80) 
adg

>  <m_score__min__energy>  (80) 
-15.6

>  <m_primary>  (80) 
energy

$$$$
80:0
     RDKit          3D

 50 53  0  0  0  0  0  0  0  0999 V2000
   56.8220   28.7930   52.9740 C   0  0  0  0  0  0  0  0  0  0  0  0
   55.8410   29.6570   52.7090 C   0  0  0  0  0  0  0  0  0  0  0  0
   54.5380   29.3110   52.6810 N   0  0  0  0  0  0  0  0  0  0  0  0
   53.8480   30.4040   52.2980 C   0  0  0  0  0  0  0  0  0  0  0  0
   52.5090   30.4170   52.1880 C   0  0  0  0  0  0  0  0  0  0  0  0
   51.7760   30.8320   50.9780 C   0  0  0  0  0  0  0  0  0  0  0  0
   51.7390   30.0970   49.8520 N   0  0  0  0  0  0  0  0  0  0  0  0
   51.0360   30.8710   48.9960 C   0  0  0  0  0  0  0  0  0  0  0  0
   50.7770   30.5140   47.8180 O   0  0  0  0  0  0  0  0  0  0  0  0
   50.6440   32.0620   49.4980 N   0  0  0  0  0  0  0  0  0  0  0  0
   51.1290   32.0270   50.7500 C   0  0  0  0  0  0  0  0  0  0  0  0
   51.0190   33.0850   51.6440 O   0  0  0  0  0  0  0  0  0  0  0  0
   54.7130   31.4710   52.0930 C   0  0  0  0  0  0  0  0  0  0  0  0
   55.9830   30.9970   52.3680 C   0  0  0  0  0  0  0  0  0  0  0  0
   57.2190   31.8010   52.3020 C   0  0  0  0  0  0  0  0  0  0  0  0
   57.6010   32.4140   53.3340 O   0  0  0  0  0  0  0  0  0  0  0  0
   58.0060   31.8740   51.0990 N   0  0  0  0  0  0  0  0  0  0  0  0
   58.1250   30.7110   50.2060 C   0  0  0  0  0  0  0  0  0  0  0  0
   59.5850   30.5330   49.7820 C   0  0  0  0  0  0  0  0  0  0  0  0
   60.1770   31.8030   49.1070 C   0  0  0  0  0  0  0  0  0  0  0  0
   60.3470   31.5870   47.5850 C   0  0  0  0  0  0  0  0  0  0  0  0
   59.5100   32.5490   46.7800 C   0  0  0  0  0  0  0  0  0  0  0  0
   58.1940   32.2110   46.4220 C   0  0  0  0  0  0  0  0  0  0  0  0
   57.4250   33.0900   45.6530 C   0  0  0  0  0  0  0  0  0  0  0  0
   57.9640   34.3080   45.2320 C   0  0  0  0  0  0  0  0  0  0  0  0
   59.2740   34.6500   45.5780 C   0  0  0  0  0  0  0  0  0  0  0  0
   60.0460   33.7740   46.3480 C   0  0  0  0  0  0  0  0  0  0  0  0
   59.3440   33.0790   49.4000 C   0  0  0  0  0  0  0  0  0  0  0  0
   58.7900   33.0870   50.8280 C   0  0  0  0  0  0  0  0  0  0  0  0
   57.8678   29.1340   52.9827 H   0  0  0  0  0  0  0  0  0  0  0  0
   56.5853   27.7395   53.1838 H   0  0  0  0  0  0  0  0  0  0  0  0
   54.1420   28.3670   52.8940 H   0  0  0  0  0  0  0  0  0  0  0  0
   51.9198   30.0963   53.0597 H   0  0  0  0  0  0  0  0  0  0  0  0
   54.4424   32.4889   51.7756 H   0  0  0  0  0  0  0  0  0  0  0  0
   57.7851   29.8081   50.7344 H   0  0  0  0  0  0  0  0  0  0  0  0
   57.5035   30.8725   49.3129 H   0  0  0  0  0  0  0  0  0  0  0  0
   60.1837   30.2981   50.6744 H   0  0  0  0  0  0  0  0  0  0  0  0
   59.6176   29.7196   49.0422 H   0  0  0  0  0  0  0  0  0  0  0  0
   61.1698   31.9676   49.5511 H   0  0  0  0  0  0  0  0  0  0  0  0
   61.4053   31.7313   47.3220 H   0  0  0  0  0  0  0  0  0  0  0  0
   60.0132   30.5661   47.3478 H   0  0  0  0  0  0  0  0  0  0  0  0
   57.7670   31.2511   46.7480 H   0  0  0  0  0  0  0  0  0  0  0  0
   56.3939   32.8219   45.3791 H   0  0  0  0  0  0  0  0  0  0  0  0
   57.3570   34.9983   44.6278 H   0  0  0  0  0  0  0  0  0  0  0  0
   59.6982   35.6086   45.2446 H   0  0  0  0  0  0  0  0  0  0  0  0
   61.0776   34.0453   46.6167 H   0  0  0  0  0  0  0  0  0  0  0  0
   59.9862   33.9616   49.2632 H   0  0  0  0  0  0  0  0  0  0  0  0
   58.4917   33.0956   48.7047 H   0  0  0  0  0  0  0  0  0  0  0  0
   59.6284   33.1388   51.5382 H   0  0  0  0  0  0  0  0  0  0  0  0
   58.1316   33.9608   50.9420 H   0  0  0  0  0  0  0  0  0  0  0  0
  1  2  2  0
  2  3  1  0
  3  4  1  0
  4  5  2  3
  5  6  1  0
  6  7  1  0
  7  8  1  0
  8  9  2  0
  8 10  1  0
 10 11  1  0
 11 12  1  0
  4 13  1  0
 13 14  2  0
 14 15  1  0
 15 16  2  0
 15 17  1  0
 17 18  1  0
 18 19  1  0
 19 20  1  0
 20 21  1  0
 21 22  1  0
 22 23  2  0
 23 24  1  0
 24 25  2  0
 25 26  1  0
 26 27  2  0
 20 28  1  0
 28 29  1  0
 14  2  1  0
 29 17  1  0
 11  6  2  0
 27 22  1  0
  1 30  1  0
  1 31  1  0
  3 32  1  0
  5 33  1  0
 13 34  1  0
 18 35  1  0
 18 36  1  0
 19 37  1  0
 19 38  1  0
 20 39  1  0
 21 40  1  0
 21 41  1  0
 23 42  1  0
 24 43  1  0
 25 44  1  0
 26 45  1  0
 27 46  1  0
 28 47  1  0
 28 48  1  0
 29 49  1  0
 29 50  1  0
M  CHG  3   7  -1  10  -1  12  -1
M  END
>  <UniqueID>  (81) 
77

>  <SMILES>  (81) 
C=c1[nH]c(=Cc2[n-]c(=O)[n-]c2[O-])cc1C(=O)N1CCC(Cc2ccccc2)CC1

>  <Energy>  (81) 
120.18950559400224

>  <Genealogy>  (81) 
C=c1[nH]c(=Cc2[n-]c(=O)[n-]c2[O-])cc1C(=O)N1CCC(Cc2ccccc2)CC1 (protonated)
C=c1[nH]c(=Cc2[n-]c(=O)[n-]c2[O-])cc1C(=O)N1CCC(Cc2ccccc2)CC1 (3D coordinates assigned)
C=c1[nH]c(=Cc2[n-]c(=O)[n-]c2[O-])cc1C(=O)N1CCC(Cc2ccccc2)CC1 (nonaromatic ring conformer: 120.18950559400224 kcal/mol)

>  <smiles>  (81) 
C=c1[nH]c(=Cc2[nH]c(=O)[nH]c2O)cc1C(=O)N1CCC(Cc2ccccc2)CC1

>  <score_type>  (81) 
oracle

>  <origin>  (81) 
adg

>  <m_score__min__energy>  (81) 
-18.530000000000001

>  <m_primary>  (81) 
energy

$$$$
81:0
     RDKit          3D

 35 37  0  0  0  0  0  0  0  0999 V2000
   55.3190   29.2660   44.8760 O   0  0  0  0  0  0  0  0  0  0  0  0
   56.2280   30.0100   44.4230 C   0  0  0  0  0  0  0  0  0  0  0  0
   57.1390   29.4880   43.3430 C   0  0  0  0  0  0  0  0  0  0  0  0
   57.7670   27.8130   43.7270 S   0  0  0  0  0  0  0  0  0  0  0  0
   58.7640   28.3320   45.1250 C   0  0  0  0  0  0  0  0  0  0  0  0
   58.3350   28.0610   46.4310 C   0  0  0  0  0  0  0  0  0  0  0  0
   59.1230   28.4480   47.5210 C   0  0  0  0  0  0  0  0  0  0  0  0
   60.3340   29.1160   47.3080 C   0  0  0  0  0  0  0  0  0  0  0  0
   60.7550   29.4010   46.0050 C   0  0  0  0  0  0  0  0  0  0  0  0
   59.9710   29.0130   44.9140 C   0  0  0  0  0  0  0  0  0  0  0  0
   56.2460   31.3890   44.8170 N   0  0  0  0  0  0  0  0  0  0  0  0
   57.4000   32.1320   45.2300 C   0  0  0  0  0  0  0  0  0  0  0  0
   57.7470   33.3020   44.5390 C   0  0  0  0  0  0  0  0  0  0  0  0
   58.8510   34.0610   44.9430 C   0  0  0  0  0  0  0  0  0  0  0  0
   59.5980   33.6660   46.0560 C   0  0  0  0  0  0  0  0  0  0  0  0
   59.2540   32.5010   46.7530 C   0  0  0  0  0  0  0  0  0  0  0  0
   58.1440   31.7510   46.3580 C   0  0  0  0  0  0  0  0  0  0  0  0
   60.0310   32.1060   47.8460 O   0  0  0  0  0  0  0  0  0  0  0  0
   61.3120   32.6920   48.0880 C   0  0  0  0  0  0  0  0  0  0  0  0
   61.2760   34.1950   47.7790 C   0  0  0  0  0  0  0  0  0  0  0  0
   60.6880   34.4240   46.4950 O   0  0  0  0  0  0  0  0  0  0  0  0
   56.5813   29.4497   42.3957 H   0  0  0  0  0  0  0  0  0  0  0  0
   58.0021   30.1660   43.2693 H   0  0  0  0  0  0  0  0  0  0  0  0
   57.3788   27.5440   46.5997 H   0  0  0  0  0  0  0  0  0  0  0  0
   58.7901   28.2269   48.5458 H   0  0  0  0  0  0  0  0  0  0  0  0
   60.9546   29.4168   48.1650 H   0  0  0  0  0  0  0  0  0  0  0  0
   61.7043   29.9312   45.8382 H   0  0  0  0  0  0  0  0  0  0  0  0
   60.3014   29.2422   43.8901 H   0  0  0  0  0  0  0  0  0  0  0  0
   57.1480   33.6248   43.6747 H   0  0  0  0  0  0  0  0  0  0  0  0
   59.1304   34.9671   44.3854 H   0  0  0  0  0  0  0  0  0  0  0  0
   57.8519   30.8594   46.9322 H   0  0  0  0  0  0  0  0  0  0  0  0
   61.5851   32.5447   49.1433 H   0  0  0  0  0  0  0  0  0  0  0  0
   62.0554   32.2099   47.4361 H   0  0  0  0  0  0  0  0  0  0  0  0
   60.6806   34.7093   48.5477 H   0  0  0  0  0  0  0  0  0  0  0  0
   62.3048   34.5844   47.7760 H   0  0  0  0  0  0  0  0  0  0  0  0
  1  2  2  0
  2  3  1  0
  3  4  1  0
  4  5  1  0
  5  6  2  0
  6  7  1  0
  7  8  2  0
  8  9  1  0
  9 10  2  0
  2 11  1  0
 11 12  1  0
 12 13  2  0
 13 14  1  0
 14 15  2  0
 15 16  1  0
 16 17  2  0
 16 18  1  0
 18 19  1  0
 19 20  1  0
 20 21  1  0
 10  5  1  0
 17 12  1  0
 21 15  1  0
  3 22  1  0
  3 23  1  0
  6 24  1  0
  7 25  1  0
  8 26  1  0
  9 27  1  0
 10 28  1  0
 13 29  1  0
 14 30  1  0
 17 31  1  0
 19 32  1  0
 19 33  1  0
 20 34  1  0
 20 35  1  0
M  CHG  1  11  -1
M  END
>  <UniqueID>  (82) 
78

>  <SMILES>  (82) 
O=C(CSc1ccccc1)[N-]c1ccc2c(c1)OCCO2

>  <Energy>  (82) 
37.478183171382895

>  <Genealogy>  (82) 
O=C(CSc1ccccc1)[N-]c1ccc2c(c1)OCCO2 (protonated)
O=C(CSc1ccccc1)[N-]c1ccc2c(c1)OCCO2 (3D coordinates assigned)
O=C(CSc1ccccc1)[N-]c1ccc2c(c1)OCCO2 (nonaromatic ring conformer: 37.478183171382895 kcal/mol)

>  <smiles>  (82) 
O=C(CSc1ccccc1)Nc1ccc2c(c1)OCCO2

>  <score_type>  (82) 
oracle

>  <origin>  (82) 
adg

>  <m_score__min__energy>  (82) 
-9.0099999999999998

>  <m_primary>  (82) 
energy

$$$$
82:0
     RDKit          3D

 64 67  0  0  0  0  0  0  0  0999 V2000
   59.5066   35.5963   44.0193 H   0  0  0  0  0  0  0  0  0  0  0  0
   59.2240   34.8770   44.8020 C   0  0  0  0  0  0  0  0  0  0  0  0
   59.6520   35.0630   46.0760 N   0  0  0  0  0  0  0  0  0  0  0  0
   59.3200   34.2050   47.0750 C   0  0  0  0  0  0  0  0  0  0  0  0
   59.8020   34.4310   48.3690 C   0  0  0  0  0  0  0  0  0  0  0  0
   60.4360   35.3065   48.5729 H   0  0  0  0  0  0  0  0  0  0  0  0
   59.4800   33.5470   49.4040 C   0  0  0  0  0  0  0  0  0  0  0  0
   60.0970   33.8300   51.0210 Cl  0  0  0  0  0  0  0  0  0  0  0  0
   58.6710   32.4380   49.1490 C   0  0  0  0  0  0  0  0  0  0  0  0
   58.4182   31.7458   49.9656 H   0  0  0  0  0  0  0  0  0  0  0  0
   58.1810   32.2030   47.8620 C   0  0  0  0  0  0  0  0  0  0  0  0
   57.5401   31.3296   47.6714 H   0  0  0  0  0  0  0  0  0  0  0  0
   58.5040   33.0800   46.8060 C   0  0  0  0  0  0  0  0  0  0  0  0
   58.0580   32.8580   45.4820 C   0  0  0  0  0  0  0  0  0  0  0  0
   57.3400   31.8020   45.2110 N   0  0  0  0  0  0  0  0  0  0  0  0
   57.0370   31.2780   43.8810 C   0  0  0  0  0  0  0  0  0  0  0  0
   57.8132   31.6095   43.1756 H   0  0  0  0  0  0  0  0  0  0  0  0
   56.0528   31.6546   43.5654 H   0  0  0  0  0  0  0  0  0  0  0  0
   56.9980   29.7480   43.9050 C   0  0  0  0  0  0  0  0  0  0  0  0
   57.9947   29.3763   44.1851 H   0  0  0  0  0  0  0  0  0  0  0  0
   56.7011   29.4106   42.9010 H   0  0  0  0  0  0  0  0  0  0  0  0
   55.9710   29.1900   44.8990 C   0  0  0  0  0  0  0  0  0  0  0  0
   55.0439   28.9461   44.3595 H   0  0  0  0  0  0  0  0  0  0  0  0
   55.7795   29.9513   45.6695 H   0  0  0  0  0  0  0  0  0  0  0  0
   56.4760   27.9830   45.5520 N   0  0  0  0  0  0  0  0  0  0  0  0
   57.4130   27.0490   44.9980 C   0  0  0  0  0  0  0  0  0  0  0  0
   57.0300   25.8650   44.7980 O   0  0  0  0  0  0  0  0  0  0  0  0
   58.8220   27.4610   44.6500 C   0  0  0  0  0  0  0  0  0  0  0  0
   59.3610   26.5799   44.2715 H   0  0  0  0  0  0  0  0  0  0  0  0
   58.7536   28.2579   43.8948 H   0  0  0  0  0  0  0  0  0  0  0  0
   59.6000   28.0330   45.8530 C   0  0  0  0  0  0  0  0  0  0  0  0
   60.5956   27.5656   45.8712 H   0  0  0  0  0  0  0  0  0  0  0  0
   59.6372   29.1230   45.7100 H   0  0  0  0  0  0  0  0  0  0  0  0
   58.9550   27.8030   47.1750 N   0  0  0  0  0  0  0  0  0  0  0  0
   58.0980   27.2490   46.9330 H   0  0  0  0  0  0  0  0  0  0  0  0
   58.4440   29.0520   47.8130 C   0  0  0  0  0  0  0  0  0  0  0  0
   58.5477   29.8764   47.0922 H   0  0  0  0  0  0  0  0  0  0  0  0
   57.3967   28.8628   48.0909 H   0  0  0  0  0  0  0  0  0  0  0  0
   59.1820   29.4400   49.0990 C   0  0  0  0  0  0  0  0  0  0  0  0
   59.0834   30.5224   49.2683 H   0  0  0  0  0  0  0  0  0  0  0  0
   58.7484   28.8995   49.9533 H   0  0  0  0  0  0  0  0  0  0  0  0
   60.5970   29.0920   48.9610 N   0  0  0  0  0  0  0  0  0  0  0  0
   61.4840   29.8000   49.9100 C   0  0  0  0  0  0  0  0  0  0  0  0
   60.8633   30.2232   50.7135 H   0  0  0  0  0  0  0  0  0  0  0  0
   62.2094   29.0603   50.2797 H   0  0  0  0  0  0  0  0  0  0  0  0
   62.2840   30.9230   49.2850 C   0  0  0  0  0  0  0  0  0  0  0  0
   61.8960   31.4690   48.0490 C   0  0  0  0  0  0  0  0  0  0  0  0
   61.0038   31.0813   47.5356 H   0  0  0  0  0  0  0  0  0  0  0  0
   62.6380   32.5020   47.4690 C   0  0  0  0  0  0  0  0  0  0  0  0
   62.3316   32.9206   46.4990 H   0  0  0  0  0  0  0  0  0  0  0  0
   63.7690   33.0040   48.1200 C   0  0  0  0  0  0  0  0  0  0  0  0
   64.3544   33.8135   47.6595 H   0  0  0  0  0  0  0  0  0  0  0  0
   64.1560   32.4780   49.3550 C   0  0  0  0  0  0  0  0  0  0  0  0
   65.5710   33.1120   50.1750 Cl  0  0  0  0  0  0  0  0  0  0  0  0
   63.4140   31.4450   49.9400 C   0  0  0  0  0  0  0  0  0  0  0  0
   63.7162   31.0395   50.9168 H   0  0  0  0  0  0  0  0  0  0  0  0
   60.7800   27.6310   48.9610 C   0  0  0  0  0  0  0  0  0  0  0  0
   61.7855   27.4000   48.5796 H   0  0  0  0  0  0  0  0  0  0  0  0
   60.6519   27.2747   49.9938 H   0  0  0  0  0  0  0  0  0  0  0  0
   59.7330   26.9100   48.0760 C   0  0  0  0  0  0  0  0  0  0  0  0
   60.2609   26.1723   47.4539 H   0  0  0  0  0  0  0  0  0  0  0  0
   59.0055   26.4562   48.7651 H   0  0  0  0  0  0  0  0  0  0  0  0
   58.4280   33.7790   44.4800 C   0  0  0  0  0  0  0  0  0  0  0  0
   58.0884   33.6308   43.4443 H   0  0  0  0  0  0  0  0  0  0  0  0
  1  2  1  0
  2  3  1  0
  3  4  1  0
  4  5  2  0
  5  6  1  0
  5  7  1  0
  7  8  1  0
  7  9  2  0
  9 10  1  0
  9 11  1  0
 11 12  1  0
 11 13  2  0
 13 14  1  0
 14 15  2  0
 15 16  1  0
 16 17  1  0
 16 18  1  0
 16 19  1  0
 19 20  1  0
 19 21  1  0
 19 22  1  0
 22 23  1  0
 22 24  1  0
 22 25  1  0
 25 26  1  0
 26 27  2  0
 26 28  1  0
 28 29  1  0
 28 30  1  0
 28 31  1  0
 31 32  1  0
 31 33  1  0
 31 34  1  0
 34 35  1  0
 34 36  1  0
 36 37  1  0
 36 38  1  0
 36 39  1  0
 39 40  1  0
 39 41  1  0
 39 42  1  0
 42 43  1  0
 43 44  1  0
 43 45  1  0
 43 46  1  0
 46 47  2  0
 47 48  1  0
 47 49  1  0
 49 50  1  0
 49 51  2  0
 51 52  1  0
 51 53  1  0
 53 54  1  0
 53 55  2  0
 55 56  1  0
 42 57  1  0
 57 58  1  0
 57 59  1  0
 57 60  1  0
 60 61  1  0
 60 62  1  0
 14 63  1  0
 63 64  1  0
 63  2  2  0
 13  4  1  0
 60 34  1  0
 55 46  1  0
M  CHG  3   3  -1  25  -1  34   1
M  END
>  <UniqueID>  (83) 
79

>  <SMILES>  (83) 
O=C(CC[NH+]1CCN(Cc2cccc(Cl)c2)CC1)[N-]CCC/N=c1\cc[n-]c2cc(Cl)ccc12

>  <Energy>  (83) 
81.25475939347962

>  <Genealogy>  (83) 
O=C(CC[NH+]1CCN(Cc2cccc(Cl)c2)CC1)[N-]CCCN=c1cc[n-]c2cc(Cl)ccc12 (protonated)
O=C(CC[NH+]1CCN(Cc2cccc(Cl)c2)CC1)[N-]CCC/N=c1\cc[n-]c2cc(Cl)ccc12 (cis-trans isomerization)
O=C(CC[NH+]1CCN(Cc2cccc(Cl)c2)CC1)[N-]CCC/N=c1\cc[n-]c2cc(Cl)ccc12 (3D coordinates assigned)
O=C(CC[NH+]1CCN(Cc2cccc(Cl)c2)CC1)[N-]CCC/N=c1\cc[n-]c2cc(Cl)ccc12 (nonaromatic ring conformer: 81.25475939347962 kcal/mol)

>  <smiles>  (83) 
O=C(CCN1CCN(Cc2cccc(Cl)c2)CC1)NCCCN=c1cc[nH]c2cc(Cl)ccc12

>  <score_type>  (83) 
oracle

>  <origin>  (83) 
adg

>  <m_score__min__energy>  (83) 
-10.050000000000001

>  <m_primary>  (83) 
energy

$$$$
83:0
     RDKit          3D

 76 80  0  0  0  0  0  0  0  0999 V2000
   62.3380   29.0310   52.1960 C   0  0  0  0  0  0  0  0  0  0  0  0
   61.1540   29.2330   51.2440 C   0  0  1  0  0  0  0  0  0  0  0  0
   60.9180   30.7370   51.0110 C   0  0  0  0  0  0  0  0  0  0  0  0
   59.5040   31.1400   51.3480 C   0  0  0  0  0  0  0  0  0  0  0  0
   58.4760   30.1840   51.3240 C   0  0  0  0  0  0  0  0  0  0  0  0
   57.1680   30.5430   51.6620 C   0  0  0  0  0  0  0  0  0  0  0  0
   56.8760   31.8640   52.0180 C   0  0  0  0  0  0  0  0  0  0  0  0
   57.8880   32.8270   52.0190 C   0  0  0  0  0  0  0  0  0  0  0  0
   59.1980   32.4690   51.6830 C   0  0  0  0  0  0  0  0  0  0  0  0
   61.4330   28.5880   49.9600 N   0  0  0  0  0  0  0  0  0  0  0  0
   60.6310   27.5980   49.2960 C   0  0  0  0  0  0  0  0  0  0  0  0
   60.8230   26.3870   49.5860 O   0  0  0  0  0  0  0  0  0  0  0  0
   59.4970   27.9710   48.3700 C   0  0  0  0  0  0  0  0  0  0  0  0
   59.1910   26.9000   47.3020 C   0  0  0  0  0  0  0  0  0  0  0  0
   57.8530   27.0990   46.6390 C   0  0  0  0  0  0  0  0  0  0  0  0
   56.8870   26.1610   46.6960 N   0  0  0  0  0  0  0  0  0  0  0  0
   55.8740   26.6980   45.9940 C   0  0  0  0  0  0  0  0  0  0  0  0
   54.7720   26.1120   45.8290 O   0  0  0  0  0  0  0  0  0  0  0  0
   56.1280   27.9210   45.4960 N   0  0  0  0  0  0  0  0  0  0  0  0
   57.3860   28.1840   45.8970 C   0  0  0  0  0  0  0  0  0  0  0  0
   58.0250   29.5340   45.6630 C   0  0  1  0  0  0  0  0  0  0  0  0
   57.1030   30.4290   44.8080 C   0  0  0  0  0  0  0  0  0  0  0  0
   57.5430   31.8700   44.8350 C   0  0  0  0  0  0  0  0  0  0  0  0
   57.0340   32.7510   45.8040 C   0  0  0  0  0  0  0  0  0  0  0  0
   57.4300   34.0920   45.8120 C   0  0  0  0  0  0  0  0  0  0  0  0
   58.3400   34.5590   44.8590 C   0  0  0  0  0  0  0  0  0  0  0  0
   58.8430   33.6910   43.8860 C   0  0  0  0  0  0  0  0  0  0  0  0
   58.4420   32.3510   43.8680 C   0  0  0  0  0  0  0  0  0  0  0  0
   58.3370   30.1840   46.9290 N   0  0  0  0  0  0  0  0  0  0  0  0
   59.5310   30.9380   47.1690 C   0  0  0  0  0  0  0  0  0  0  0  0
   60.5850   30.6890   46.5210 O   0  0  0  0  0  0  0  0  0  0  0  0
   59.5110   32.0510   48.1670 C   0  0  0  0  0  0  0  0  0  0  0  0
   60.1520   33.3240   47.6060 C   0  0  0  0  0  0  0  0  0  0  0  0
   61.6430   33.2540   47.7450 C   0  0  0  0  0  0  0  0  0  0  0  0
   62.5580   32.9340   46.7450 C   0  0  0  0  0  0  0  0  0  0  0  0
   63.8070   32.8490   47.2570 N   0  0  0  0  0  0  0  0  0  0  0  0
   63.6880   33.0980   48.5730 C   0  0  0  0  0  0  0  0  0  0  0  0
   64.7010   33.0820   49.5300 C   0  0  0  0  0  0  0  0  0  0  0  0
   64.3440   33.3300   50.8680 C   0  0  0  0  0  0  0  0  0  0  0  0
   62.9980   33.5800   51.2210 C   0  0  0  0  0  0  0  0  0  0  0  0
   62.6750   33.8130   52.5560 O   0  0  0  0  0  0  0  0  0  0  0  0
   61.9950   33.5880   50.2280 C   0  0  0  0  0  0  0  0  0  0  0  0
   62.3810   33.3440   48.9100 C   0  0  0  0  0  0  0  0  0  0  0  0
   61.9862   29.0910   53.2365 H   0  0  0  0  0  0  0  0  0  0  0  0
   62.7877   28.0432   52.0174 H   0  0  0  0  0  0  0  0  0  0  0  0
   63.0898   29.8139   52.0174 H   0  0  0  0  0  0  0  0  0  0  0  0
   60.2564   28.7852   51.6954 H   0  0  0  0  0  0  0  0  0  0  0  0
   61.6120   31.3088   51.6445 H   0  0  0  0  0  0  0  0  0  0  0  0
   61.0898   30.9494   49.9455 H   0  0  0  0  0  0  0  0  0  0  0  0
   58.7013   29.1461   51.0375 H   0  0  0  0  0  0  0  0  0  0  0  0
   56.3688   29.7873   51.6481 H   0  0  0  0  0  0  0  0  0  0  0  0
   55.8496   32.1444   52.2971 H   0  0  0  0  0  0  0  0  0  0  0  0
   57.6544   33.8686   52.2845 H   0  0  0  0  0  0  0  0  0  0  0  0
   59.9911   33.2312   51.6812 H   0  0  0  0  0  0  0  0  0  0  0  0
   58.5916   28.1270   48.9749 H   0  0  0  0  0  0  0  0  0  0  0  0
   59.8053   28.8808   47.8341 H   0  0  0  0  0  0  0  0  0  0  0  0
   59.9743   26.9396   46.5307 H   0  0  0  0  0  0  0  0  0  0  0  0
   59.1659   25.9247   47.8101 H   0  0  0  0  0  0  0  0  0  0  0  0
   58.9658   29.3787   45.1146 H   0  0  0  0  0  0  0  0  0  0  0  0
   57.1220   30.0700   43.7684 H   0  0  0  0  0  0  0  0  0  0  0  0
   56.0871   30.3730   45.2262 H   0  0  0  0  0  0  0  0  0  0  0  0
   56.3221   32.3848   46.5584 H   0  0  0  0  0  0  0  0  0  0  0  0
   57.0252   34.7801   46.5688 H   0  0  0  0  0  0  0  0  0  0  0  0
   58.6606   35.6111   44.8750 H   0  0  0  0  0  0  0  0  0  0  0  0
   59.5548   34.0618   43.1338 H   0  0  0  0  0  0  0  0  0  0  0  0
   58.8314   31.6721   43.0950 H   0  0  0  0  0  0  0  0  0  0  0  0
   58.4675   32.2672   48.4395 H   0  0  0  0  0  0  0  0  0  0  0  0
   60.0897   31.7339   49.0471 H   0  0  0  0  0  0  0  0  0  0  0  0
   59.8900   33.4250   46.5424 H   0  0  0  0  0  0  0  0  0  0  0  0
   59.7783   34.1929   48.1675 H   0  0  0  0  0  0  0  0  0  0  0  0
   62.3011   32.7730   45.6876 H   0  0  0  0  0  0  0  0  0  0  0  0
   64.6800   32.6090   46.7360 H   0  0  0  0  0  0  0  0  0  0  0  0
   65.7454   32.8820   49.2484 H   0  0  0  0  0  0  0  0  0  0  0  0
   65.1201   33.3294   51.6475 H   0  0  0  0  0  0  0  0  0  0  0  0
   62.8090   33.1020   53.2670 H   0  0  0  0  0  0  0  0  0  0  0  0
   60.9429   33.7804   50.4852 H   0  0  0  0  0  0  0  0  0  0  0  0
  1  2  1  0
  2  3  1  0
  3  4  1  0
  4  5  2  0
  5  6  1  0
  6  7  2  0
  7  8  1  0
  8  9  2  0
  2 10  1  0
 10 11  1  0
 11 12  2  0
 11 13  1  0
 13 14  1  0
 14 15  1  0
 15 16  1  0
 16 17  1  0
 17 18  2  0
 17 19  1  0
 19 20  1  0
 20 21  1  0
 21 22  1  0
 22 23  1  0
 23 24  2  0
 24 25  1  0
 25 26  2  0
 26 27  1  0
 27 28  2  0
 21 29  1  0
 29 30  1  0
 30 31  2  0
 30 32  1  0
 32 33  1  0
 33 34  1  0
 34 35  2  0
 35 36  1  0
 36 37  1  0
 37 38  2  0
 38 39  1  0
 39 40  2  0
 40 41  1  0
 40 42  1  0
 42 43  2  0
  9  4  1  0
 20 15  2  0
 28 23  1  0
 43 34  1  0
 43 37  1  0
  1 44  1  0
  1 45  1  0
  1 46  1  0
  2 47  1  1
  3 48  1  0
  3 49  1  0
  5 50  1  0
  6 51  1  0
  7 52  1  0
  8 53  1  0
  9 54  1  0
 13 55  1  0
 13 56  1  0
 14 57  1  0
 14 58  1  0
 21 59  1  6
 22 60  1  0
 22 61  1  0
 24 62  1  0
 25 63  1  0
 26 64  1  0
 27 65  1  0
 28 66  1  0
 32 67  1  0
 32 68  1  0
 33 69  1  0
 33 70  1  0
 35 71  1  0
 36 72  1  0
 38 73  1  0
 39 74  1  0
 41 75  1  0
 42 76  1  0
M  CHG  4  10  -1  16  -1  19  -1  29  -1
M  END
>  <UniqueID>  (84) 
80

>  <SMILES>  (84) 
C[C@@H](Cc1ccccc1)[N-]C(=O)CCc1[n-]c(=O)[n-]c1[C@@H](Cc1ccccc1)[N-]C(=O)CCc1c[nH]c2ccc(O)cc12

>  <Energy>  (84) 
124.84122338701363

>  <Genealogy>  (84) 
CC(Cc1ccccc1)[N-]C(=O)CCc1[n-]c(=O)[n-]c1C(Cc1ccccc1)[N-]C(=O)CCc1c[nH]c2ccc(O)cc12 (protonated)
C[C@@H](Cc1ccccc1)[N-]C(=O)CCc1[n-]c(=O)[n-]c1[C@@H](Cc1ccccc1)[N-]C(=O)CCc1c[nH]c2ccc(O)cc12 (chirality)
C[C@@H](Cc1ccccc1)[N-]C(=O)CCc1[n-]c(=O)[n-]c1[C@@H](Cc1ccccc1)[N-]C(=O)CCc1c[nH]c2ccc(O)cc12 (3D coordinates assigned)
C[C@@H](Cc1ccccc1)[N-]C(=O)CCc1[n-]c(=O)[n-]c1[C@@H](Cc1ccccc1)[N-]C(=O)CCc1c[nH]c2ccc(O)cc12 (optimized conformer: 124.84122338701363 kcal/mol)

>  <smiles>  (84) 
CC(Cc1ccccc1)NC(=O)CCc1[nH]c(=O)[nH]c1C(Cc1ccccc1)NC(=O)CCc1c[nH]c2ccc(O)cc12

>  <score_type>  (84) 
oracle

>  <origin>  (84) 
adg

>  <m_score__min__energy>  (84) 
-18.949999999999999

>  <m_primary>  (84) 
energy

$$$$
84:0
     RDKit          3D

 51 54  0  0  0  0  0  0  0  0999 V2000
   57.8640   25.4080   47.6030 C   0  0  0  0  0  0  0  0  0  0  0  0
   57.8800   26.2940   46.5910 C   0  0  0  0  0  0  0  0  0  0  0  0
   57.4650   26.0670   45.2700 C   0  0  0  0  0  0  0  0  0  0  0  0
   56.8390   25.0170   44.7040 C   0  0  0  0  0  0  0  0  0  0  0  0
   55.6340   24.3560   45.2340 C   0  0  0  0  0  0  0  0  0  0  0  0
   55.3770   23.0410   45.0920 N   0  0  0  0  0  0  0  0  0  0  0  0
   54.1260   22.9130   45.5840 C   0  0  0  0  0  0  0  0  0  0  0  0
   53.5300   21.8050   45.6500 O   0  0  0  0  0  0  0  0  0  0  0  0
   53.5580   24.0670   45.9960 N   0  0  0  0  0  0  0  0  0  0  0  0
   54.5200   24.9740   45.7550 C   0  0  0  0  0  0  0  0  0  0  0  0
   54.3660   26.3400   45.9590 O   0  0  0  0  0  0  0  0  0  0  0  0
   57.8010   27.2060   44.5600 C   0  0  0  0  0  0  0  0  0  0  0  0
   58.3370   28.1070   45.4590 C   0  0  0  0  0  0  0  0  0  0  0  0
   58.7300   29.4870   45.0930 C   0  0  0  0  0  0  0  0  0  0  0  0
   59.8720   29.7220   44.6190 O   0  0  0  0  0  0  0  0  0  0  0  0
   57.8210   30.5680   45.3450 N   0  0  0  0  0  0  0  0  0  0  0  0
   58.1810   31.9390   45.5770 C   0  0  0  0  0  0  0  0  0  0  0  0
   57.7720   32.9070   44.6500 C   0  0  0  0  0  0  0  0  0  0  0  0
   58.1140   34.2480   44.8290 C   0  0  0  0  0  0  0  0  0  0  0  0
   58.8960   34.6330   45.9210 C   0  0  0  0  0  0  0  0  0  0  0  0
   59.3570   33.6690   46.8370 C   0  0  0  0  0  0  0  0  0  0  0  0
   60.2100   34.0820   47.9720 C   0  0  0  0  0  0  0  0  0  0  0  0
   59.6740   34.7070   48.9350 O   0  0  0  0  0  0  0  0  0  0  0  0
   61.6260   33.7890   48.0110 N   0  0  0  0  0  0  0  0  0  0  0  0
   62.3520   33.9850   49.2710 C   0  0  0  0  0  0  0  0  0  0  0  0
   63.6590   33.1930   49.2610 C   0  0  0  0  0  0  0  0  0  0  0  0
   64.4190   33.5010   48.1120 O   0  0  0  0  0  0  0  0  0  0  0  0
   63.7330   33.0660   46.9540 C   0  0  0  0  0  0  0  0  0  0  0  0
   62.4190   33.8360   46.7730 C   0  0  0  0  0  0  0  0  0  0  0  0
   58.9800   32.3230   46.6700 C   0  0  0  0  0  0  0  0  0  0  0  0
   58.4150   27.5430   46.6930 N   0  0  0  0  0  0  0  0  0  0  0  0
   59.0070   28.1440   47.9010 C   0  0  0  0  0  0  0  0  0  0  0  0
   58.2175   25.7065   48.6010 H   0  0  0  0  0  0  0  0  0  0  0  0
   57.4974   24.3850   47.4326 H   0  0  0  0  0  0  0  0  0  0  0  0
   57.2624   24.6207   43.7693 H   0  0  0  0  0  0  0  0  0  0  0  0
   57.6662   27.3645   43.4799 H   0  0  0  0  0  0  0  0  0  0  0  0
   57.1769   32.6076   43.7747 H   0  0  0  0  0  0  0  0  0  0  0  0
   57.7672   35.0037   44.1088 H   0  0  0  0  0  0  0  0  0  0  0  0
   59.1522   35.6930   46.0653 H   0  0  0  0  0  0  0  0  0  0  0  0
   62.5770   35.0543   49.3972 H   0  0  0  0  0  0  0  0  0  0  0  0
   61.7258   33.6300   50.1028 H   0  0  0  0  0  0  0  0  0  0  0  0
   64.2421   33.4467   50.1586 H   0  0  0  0  0  0  0  0  0  0  0  0
   63.4221   32.1188   49.2515 H   0  0  0  0  0  0  0  0  0  0  0  0
   64.3715   33.2319   46.0738 H   0  0  0  0  0  0  0  0  0  0  0  0
   63.5006   31.9966   47.0648 H   0  0  0  0  0  0  0  0  0  0  0  0
   62.6435   34.8840   46.5252 H   0  0  0  0  0  0  0  0  0  0  0  0
   61.8413   33.3724   45.9598 H   0  0  0  0  0  0  0  0  0  0  0  0
   59.3116   31.5675   47.3975 H   0  0  0  0  0  0  0  0  0  0  0  0
   58.5576   27.6878   48.7954 H   0  0  0  0  0  0  0  0  0  0  0  0
   60.0925   27.9662   47.9047 H   0  0  0  0  0  0  0  0  0  0  0  0
   58.8128   29.2267   47.9047 H   0  0  0  0  0  0  0  0  0  0  0  0
  1  2  2  0
  2  3  1  0
  3  4  2  3
  4  5  1  0
  5  6  1  0
  6  7  1  0
  7  8  2  0
  7  9  1  0
  9 10  1  0
 10 11  1  0
  3 12  1  0
 12 13  2  0
 13 14  1  0
 14 15  2  0
 14 16  1  0
 16 17  1  0
 17 18  2  0
 18 19  1  0
 19 20  2  0
 20 21  1  0
 21 22  1  0
 22 23  2  0
 22 24  1  0
 24 25  1  0
 25 26  1  0
 26 27  1  0
 27 28  1  0
 28 29  1  0
 21 30  2  0
 13 31  1  0
 31 32  1  0
 31  2  1  0
 10  5  2  0
 30 17  1  0
 29 24  1  0
  1 33  1  0
  1 34  1  0
  4 35  1  0
 12 36  1  0
 18 37  1  0
 19 38  1  0
 20 39  1  0
 25 40  1  0
 25 41  1  0
 26 42  1  0
 26 43  1  0
 28 44  1  0
 28 45  1  0
 29 46  1  0
 29 47  1  0
 30 48  1  0
 32 49  1  0
 32 50  1  0
 32 51  1  0
M  CHG  4   6  -1   9  -1  11  -1  16  -1
M  END
>  <UniqueID>  (85) 
81

>  <SMILES>  (85) 
C=c1c(=Cc2[n-]c(=O)[n-]c2[O-])cc(C(=O)[N-]c2cccc(C(=O)N3CCOCC3)c2)n1C

>  <Energy>  (85) 
138.32489895728423

>  <Genealogy>  (85) 
C=c1c(=Cc2[n-]c(=O)[n-]c2[O-])cc(C(=O)[N-]c2cccc(C(=O)N3CCOCC3)c2)n1C (protonated)
C=c1c(=Cc2[n-]c(=O)[n-]c2[O-])cc(C(=O)[N-]c2cccc(C(=O)N3CCOCC3)c2)n1C (3D coordinates assigned)
C=c1c(=Cc2[n-]c(=O)[n-]c2[O-])cc(C(=O)[N-]c2cccc(C(=O)N3CCOCC3)c2)n1C (nonaromatic ring conformer: 138.32489895728423 kcal/mol)

>  <smiles>  (85) 
C=c1c(=Cc2[nH]c(=O)[nH]c2O)cc(C(=O)Nc2cccc(C(=O)N3CCOCC3)c2)n1C

>  <score_type>  (85) 
oracle

>  <origin>  (85) 
adg

>  <m_score__min__energy>  (85) 
-19.170000000000002

>  <m_primary>  (85) 
energy

$$$$
85:0
     RDKit          3D

 64 68  0  0  0  0  0  0  0  0999 V2000
   64.1420   32.9810   48.7630 C   0  0  0  0  0  0  0  0  0  0  0  0
   62.6580   32.6830   48.4700 C   0  0  0  0  0  0  0  0  0  0  0  0
   62.5640   31.3980   47.6100 C   0  0  0  0  0  0  0  0  0  0  0  0
   62.0100   33.8550   47.6830 C   0  0  0  0  0  0  0  0  0  0  0  0
   60.6400   33.9470   48.1690 N   0  0  0  0  0  0  0  0  0  0  0  0
   59.6540   34.9070   47.6710 C   0  0  0  0  0  0  0  0  0  0  0  0
   58.9200   34.3340   46.4890 C   0  0  0  0  0  0  0  0  0  0  0  0
   57.6910   33.6810   46.6780 C   0  0  0  0  0  0  0  0  0  0  0  0
   57.0470   33.0680   45.5980 C   0  0  0  0  0  0  0  0  0  0  0  0
   57.6280   33.1000   44.3260 C   0  0  0  0  0  0  0  0  0  0  0  0
   58.8420   33.7590   44.1290 C   0  0  0  0  0  0  0  0  0  0  0  0
   59.4920   34.3690   45.2070 C   0  0  0  0  0  0  0  0  0  0  0  0
   60.5660   33.3020   49.4240 C   0  0  0  0  0  0  0  0  0  0  0  0
   59.5630   33.3870   50.1800 O   0  0  0  0  0  0  0  0  0  0  0  0
   61.8220   32.6050   49.7920 C   0  0  1  0  0  0  0  0  0  0  0  0
   61.5430   31.2150   50.3320 C   0  0  0  0  0  0  0  0  0  0  0  0
   62.5040   30.4160   50.5070 O   0  0  0  0  0  0  0  0  0  0  0  0
   60.1600   30.7730   50.6390 C   0  0  0  0  0  0  0  0  0  0  0  0
   59.4580   31.0330   51.8040 C   0  0  0  0  0  0  0  0  0  0  0  0
   58.1900   30.5360   51.5600 C   0  0  0  0  0  0  0  0  0  0  0  0
   57.0400   30.6050   52.4690 C   0  0  0  0  0  0  0  0  0  0  0  0
   56.9220   31.5800   53.2640 O   0  0  0  0  0  0  0  0  0  0  0  0
   56.0270   29.5910   52.3960 N   0  0  0  0  0  0  0  0  0  0  0  0
   54.6140   29.8060   52.2880 C   0  0  0  0  0  0  0  0  0  0  0  0
   53.6800   28.9480   52.8970 C   0  0  0  0  0  0  0  0  0  0  0  0
   52.3110   29.1580   52.7150 C   0  0  0  0  0  0  0  0  0  0  0  0
   51.8620   30.2230   51.9300 C   0  0  0  0  0  0  0  0  0  0  0  0
   52.7830   31.0760   51.3200 C   0  0  0  0  0  0  0  0  0  0  0  0
   54.1530   30.8660   51.4950 C   0  0  0  0  0  0  0  0  0  0  0  0
   58.1290   30.0180   50.3190 N   0  0  0  0  0  0  0  0  0  0  0  0
   59.3260   30.1460   49.7730 N   0  0  0  0  0  0  0  0  0  0  0  0
   59.5850   29.8020   48.4100 C   0  0  0  0  0  0  0  0  0  0  0  0
   60.1300   28.5470   48.1020 C   0  0  0  0  0  0  0  0  0  0  0  0
   60.3930   28.2020   46.7720 C   0  0  0  0  0  0  0  0  0  0  0  0
   60.1270   29.1140   45.7470 C   0  0  0  0  0  0  0  0  0  0  0  0
   60.3870   28.7680   44.4250 O   0  0  0  0  0  0  0  0  0  0  0  0
   59.5980   30.3760   46.0510 C   0  0  0  0  0  0  0  0  0  0  0  0
   59.3290   30.7220   47.3810 C   0  0  0  0  0  0  0  0  0  0  0  0
   64.3017   33.0131   49.8509 H   0  0  0  0  0  0  0  0  0  0  0  0
   64.7684   32.1907   48.3236 H   0  0  0  0  0  0  0  0  0  0  0  0
   64.4147   33.9518   48.3236 H   0  0  0  0  0  0  0  0  0  0  0  0
   62.4997   30.5196   48.2690 H   0  0  0  0  0  0  0  0  0  0  0  0
   61.6670   31.4465   46.9751 H   0  0  0  0  0  0  0  0  0  0  0  0
   63.4585   31.3154   46.9751 H   0  0  0  0  0  0  0  0  0  0  0  0
   62.5500   34.7931   47.8786 H   0  0  0  0  0  0  0  0  0  0  0  0
   62.0446   33.6827   46.5971 H   0  0  0  0  0  0  0  0  0  0  0  0
   58.9334   35.1350   48.4702 H   0  0  0  0  0  0  0  0  0  0  0  0
   60.1734   35.8253   47.3596 H   0  0  0  0  0  0  0  0  0  0  0  0
   57.2336   33.6515   47.6780 H   0  0  0  0  0  0  0  0  0  0  0  0
   56.0829   32.5604   45.7492 H   0  0  0  0  0  0  0  0  0  0  0  0
   57.1275   32.6053   43.4805 H   0  0  0  0  0  0  0  0  0  0  0  0
   59.2886   33.7989   43.1245 H   0  0  0  0  0  0  0  0  0  0  0  0
   60.4545   34.8778   45.0499 H   0  0  0  0  0  0  0  0  0  0  0  0
   62.3841   33.0532   50.6246 H   0  0  0  0  0  0  0  0  0  0  0  0
   59.8255   31.5239   52.7172 H   0  0  0  0  0  0  0  0  0  0  0  0
   54.0286   28.1097   53.5180 H   0  0  0  0  0  0  0  0  0  0  0  0
   51.5845   28.4830   53.1910 H   0  0  0  0  0  0  0  0  0  0  0  0
   50.7833   30.3891   51.7928 H   0  0  0  0  0  0  0  0  0  0  0  0
   52.4300   31.9141   50.7011 H   0  0  0  0  0  0  0  0  0  0  0  0
   54.8751   31.5372   51.0071 H   0  0  0  0  0  0  0  0  0  0  0  0
   60.3512   27.8321   48.9082 H   0  0  0  0  0  0  0  0  0  0  0  0
   60.8094   27.2123   46.5329 H   0  0  0  0  0  0  0  0  0  0  0  0
   59.3940   31.0952   45.2441 H   0  0  0  0  0  0  0  0  0  0  0  0
   58.9174   31.7139   47.6193 H   0  0  0  0  0  0  0  0  0  0  0  0
  1  2  1  0
  2  3  1  0
  2  4  1  0
  4  5  1  0
  5  6  1  0
  6  7  1  0
  7  8  2  0
  8  9  1  0
  9 10  2  0
 10 11  1  0
 11 12  2  0
  5 13  1  0
 13 14  2  0
 13 15  1  0
 15 16  1  0
 16 17  2  0
 16 18  1  0
 18 19  2  0
 19 20  1  0
 20 21  1  0
 21 22  2  0
 21 23  1  0
 23 24  1  0
 24 25  2  0
 25 26  1  0
 26 27  2  0
 27 28  1  0
 28 29  2  0
 20 30  2  0
 30 31  1  0
 31 32  1  0
 32 33  2  0
 33 34  1  0
 34 35  2  0
 35 36  1  0
 35 37  1  0
 37 38  2  0
 15  2  1  0
 31 18  1  0
 38 32  1  0
 12  7  1  0
 29 24  1  0
  1 39  1  0
  1 40  1  0
  1 41  1  0
  3 42  1  0
  3 43  1  0
  3 44  1  0
  4 45  1  0
  4 46  1  0
  6 47  1  0
  6 48  1  0
  8 49  1  0
  9 50  1  0
 10 51  1  0
 11 52  1  0
 12 53  1  0
 15 54  1  1
 19 55  1  0
 25 56  1  0
 26 57  1  0
 27 58  1  0
 28 59  1  0
 29 60  1  0
 33 61  1  0
 34 62  1  0
 37 63  1  0
 38 64  1  0
M  CHG  2  23  -1  36  -1
M  END
>  <UniqueID>  (86) 
82

>  <SMILES>  (86) 
CC1(C)CN(Cc2ccccc2)C(=O)[C@H]1C(=O)c1cc(C(=O)[N-]c2ccccc2)nn1-c1ccc([O-])cc1

>  <Energy>  (86) 
119.44452333093753

>  <Genealogy>  (86) 
CC1(C)CN(Cc2ccccc2)C(=O)C1C(=O)c1cc(C(=O)[N-]c2ccccc2)nn1-c1ccc([O-])cc1 (protonated)
CC1(C)CN(Cc2ccccc2)C(=O)[C@H]1C(=O)c1cc(C(=O)[N-]c2ccccc2)nn1-c1ccc([O-])cc1 (chirality)
CC1(C)CN(Cc2ccccc2)C(=O)[C@H]1C(=O)c1cc(C(=O)[N-]c2ccccc2)nn1-c1ccc([O-])cc1 (3D coordinates assigned)
CC1(C)CN(Cc2ccccc2)C(=O)[C@H]1C(=O)c1cc(C(=O)[N-]c2ccccc2)nn1-c1ccc([O-])cc1 (nonaromatic ring conformer: 119.44452333093753 kcal/mol)

>  <smiles>  (86) 
CC1(C)CN(Cc2ccccc2)C(=O)C1C(=O)c1cc(C(=O)Nc2ccccc2)nn1-c1ccc(O)cc1

>  <score_type>  (86) 
oracle

>  <origin>  (86) 
adg

>  <m_score__min__energy>  (86) 
-13.16

>  <m_primary>  (86) 
energy

$$$$
86:0
     RDKit          3D

 62 67  0  0  0  0  0  0  0  0999 V2000
   53.4532   30.9224   50.2616 H   0  0  0  0  0  0  0  0  0  0  0  0
   53.3160   30.8560   51.3510 C   0  0  0  0  0  0  0  0  0  0  0  0
   52.1650   31.5540   51.9480 C   0  0  0  0  0  0  0  0  0  0  0  0
   51.7120   31.3010   53.1880 N   0  0  0  0  0  0  0  0  0  0  0  0
   50.6200   32.0880   53.2910 C   0  0  0  0  0  0  0  0  0  0  0  0
   49.9170   32.1400   54.3330 O   0  0  0  0  0  0  0  0  0  0  0  0
   50.3350   32.8090   52.1850 N   0  0  0  0  0  0  0  0  0  0  0  0
   51.3140   32.4510   51.3390 C   0  0  0  0  0  0  0  0  0  0  0  0
   51.3950   32.8980   50.0270 O   0  0  0  0  0  0  0  0  0  0  0  0
   54.2070   30.1440   52.0570 C   0  0  0  0  0  0  0  0  0  0  0  0
   53.9910   29.0890   52.9500 C   0  0  0  0  0  0  0  0  0  0  0  0
   53.0046   28.6962   53.2376 H   0  0  0  0  0  0  0  0  0  0  0  0
   55.1790   28.6230   53.4080 N   0  0  0  0  0  0  0  0  0  0  0  0
   56.1220   29.3500   52.8290 N   0  0  0  0  0  0  0  0  0  0  0  0
   57.4620   29.2470   52.9760 C   0  0  0  0  0  0  0  0  0  0  0  0
   57.9750   28.3570   53.7730 N   0  0  0  0  0  0  0  0  0  0  0  0
   59.1060   27.5100   53.4060 C   0  0  0  0  0  0  0  0  0  0  0  0
   58.5853   26.8763   52.6730 H   0  0  0  0  0  0  0  0  0  0  0  0
   60.4430   28.2290   53.4410 C   0  0  0  0  0  0  0  0  0  0  0  0
   61.2339   27.9555   52.7271 H   0  0  0  0  0  0  0  0  0  0  0  0
   60.7634   29.2802   53.3923 H   0  0  0  0  0  0  0  0  0  0  0  0
   60.0610   27.2690   54.5600 C   0  0  0  0  0  0  0  0  0  0  0  0
   60.5762   26.3018   54.6550 H   0  0  0  0  0  0  0  0  0  0  0  0
   59.9912   27.3391   55.6555 H   0  0  0  0  0  0  0  0  0  0  0  0
   58.2530   30.1050   52.2680 N   0  0  0  0  0  0  0  0  0  0  0  0
   57.6970   31.0410   51.4340 C   0  0  0  0  0  0  0  0  0  0  0  0
   58.4480   31.8600   50.7630 N   0  0  0  0  0  0  0  0  0  0  0  0
   59.8020   31.5470   50.3160 C   0  0  0  0  0  0  0  0  0  0  0  0
   60.4505   31.3913   51.1908 H   0  0  0  0  0  0  0  0  0  0  0  0
   60.1926   32.3814   49.7150 H   0  0  0  0  0  0  0  0  0  0  0  0
   59.7760   30.2980   49.4830 C   0  0  0  0  0  0  0  0  0  0  0  0
   59.3800   30.3480   48.1380 C   0  0  0  0  0  0  0  0  0  0  0  0
   59.1107   31.3122   47.6822 H   0  0  0  0  0  0  0  0  0  0  0  0
   59.3260   29.1780   47.3740 C   0  0  0  0  0  0  0  0  0  0  0  0
   59.0188   29.2279   46.3190 H   0  0  0  0  0  0  0  0  0  0  0  0
   59.6620   27.9380   47.9460 C   0  0  0  0  0  0  0  0  0  0  0  0
   59.5910   26.6940   47.1440 C   0  0  0  0  0  0  0  0  0  0  0  0
   60.6570   26.1280   46.7800 O   0  0  0  0  0  0  0  0  0  0  0  0
   58.3250   26.1100   46.7890 N   0  0  0  0  0  0  0  0  0  0  0  0
   58.1970   24.6530   46.7490 C   0  0  0  0  0  0  0  0  0  0  0  0
   58.8672   24.2081   47.4993 H   0  0  0  0  0  0  0  0  0  0  0  0
   58.4691   24.2950   45.7451 H   0  0  0  0  0  0  0  0  0  0  0  0
   56.7490   24.2420   47.0540 C   0  0  0  0  0  0  0  0  0  0  0  0
   56.5434   24.4404   48.1162 H   0  0  0  0  0  0  0  0  0  0  0  0
   56.6495   23.1735   46.8125 H   0  0  0  0  0  0  0  0  0  0  0  0
   55.7630   24.9770   46.2370 N   0  0  0  0  0  0  0  0  0  0  0  0
   55.7380   24.5220   44.8360 C   0  0  0  0  0  0  0  0  0  0  0  0
   55.6777   23.4240   44.8081 H   0  0  0  0  0  0  0  0  0  0  0  0
   54.8620   24.9504   44.3269 H   0  0  0  0  0  0  0  0  0  0  0  0
   56.6556   24.8519   44.3269 H   0  0  0  0  0  0  0  0  0  0  0  0
   55.9260   26.4410   46.3550 C   0  0  0  0  0  0  0  0  0  0  0  0
   55.6824   26.7407   47.3850 H   0  0  0  0  0  0  0  0  0  0  0  0
   55.2506   26.9112   45.6250 H   0  0  0  0  0  0  0  0  0  0  0  0
   57.3530   26.9040   46.0330 C   0  0  0  0  0  0  0  0  0  0  0  0
   57.4608   27.9646   46.3041 H   0  0  0  0  0  0  0  0  0  0  0  0
   57.5396   26.7706   44.9572 H   0  0  0  0  0  0  0  0  0  0  0  0
   60.0330   27.8890   49.3020 C   0  0  0  0  0  0  0  0  0  0  0  0
   60.2798   26.9230   49.7666 H   0  0  0  0  0  0  0  0  0  0  0  0
   60.0900   29.0610   50.0630 C   0  0  0  0  0  0  0  0  0  0  0  0
   60.3827   29.0119   51.1222 H   0  0  0  0  0  0  0  0  0  0  0  0
   56.3410   31.1210   51.3040 N   0  0  0  0  0  0  0  0  0  0  0  0
   55.5770   30.2580   52.0170 C   0  0  0  0  0  0  0  0  0  0  0  0
  1  2  1  0
  2  3  1  0
  3  4  1  0
  4  5  1  0
  5  6  2  0
  5  7  1  0
  7  8  1  0
  8  9  1  0
  2 10  2  3
 10 11  1  0
 11 12  1  0
 11 13  2  0
 13 14  1  0
 14 15  1  0
 15 16  2  0
 16 17  1  0
 17 18  1  0
 17 19  1  0
 19 20  1  0
 19 21  1  0
 19 22  1  0
 22 23  1  0
 22 24  1  0
 15 25  1  0
 25 26  1  0
 26 27  2  0
 27 28  1  0
 28 29  1  0
 28 30  1  0
 28 31  1  0
 31 32  2  0
 32 33  1  0
 32 34  1  0
 34 35  1  0
 34 36  2  0
 36 37  1  0
 37 38  2  0
 37 39  1  0
 39 40  1  0
 40 41  1  0
 40 42  1  0
 40 43  1  0
 43 44  1  0
 43 45  1  0
 43 46  1  0
 46 47  1  0
 47 48  1  0
 47 49  1  0
 47 50  1  0
 46 51  1  0
 51 52  1  0
 51 53  1  0
 51 54  1  0
 54 55  1  0
 54 56  1  0
 36 57  1  0
 57 58  1  0
 57 59  2  0
 59 60  1  0
 26 61  1  0
 61 62  2  0
  8  3  2  0
 62 10  1  0
 62 14  1  0
 22 17  1  0
 59 31  1  0
 54 39  1  0
M  CHG  4   4  -1   7  -1   9  -1  25  -1
M  END
>  <UniqueID>  (87) 
83

>  <SMILES>  (87) 
CN1CCN(C(=O)c2ccc(C/N=c3/nc4c(=Cc5[n-]c(=O)[n-]c5[O-])cnn4/c(=N/C4CC4)[n-]3)cc2)CC1

>  <Energy>  (87) 
411.49915872053236

>  <Genealogy>  (87) 
CN1CCN(C(=O)c2ccc(CN=c3nc4c(=Cc5[n-]c(=O)[n-]c5[O-])cnn4c(=NC4CC4)[n-]3)cc2)CC1 (protonated)
CN1CCN(C(=O)c2ccc(C/N=c3/nc4c(=Cc5[n-]c(=O)[n-]c5[O-])cnn4/c(=N/C4CC4)[n-]3)cc2)CC1 (cis-trans isomerization)
CN1CCN(C(=O)c2ccc(C/N=c3/nc4c(=Cc5[n-]c(=O)[n-]c5[O-])cnn4/c(=N/C4CC4)[n-]3)cc2)CC1 (3D coordinates assigned)
CN1CCN(C(=O)c2ccc(C/N=c3/nc4c(=Cc5[n-]c(=O)[n-]c5[O-])cnn4/c(=N/C4CC4)[n-]3)cc2)CC1 (nonaromatic ring conformer: 411.49915872053236 kcal/mol)

>  <smiles>  (87) 
CN1CCN(C(=O)c2ccc(CN=c3nc4c(=Cc5[nH]c(=O)[nH]c5O)cnn4c(=NC4CC4)[nH]3)cc2)CC1

>  <score_type>  (87) 
oracle

>  <origin>  (87) 
adg

>  <m_score__min__energy>  (87) 
-18.890000000000001

>  <m_primary>  (87) 
energy

$$$$
87:0
     RDKit          3D

 47 49  0  0  0  0  0  0  0  0999 V2000
   58.1470   27.3300   43.4380 C   0  0  0  0  0  0  0  0  0  0  0  0
   58.3400   26.8830   44.6900 C   0  0  0  0  0  0  0  0  0  0  0  0
   57.7860   25.7220   45.2500 C   0  0  0  0  0  0  0  0  0  0  0  0
   56.9860   24.8270   44.6310 C   0  0  0  0  0  0  0  0  0  0  0  0
   55.5970   24.4960   45.0220 C   0  0  0  0  0  0  0  0  0  0  0  0
   54.9690   23.3270   44.7980 N   0  0  0  0  0  0  0  0  0  0  0  0
   53.7290   23.5340   45.2910 C   0  0  0  0  0  0  0  0  0  0  0  0
   52.8350   22.6490   45.2690 O   0  0  0  0  0  0  0  0  0  0  0  0
   53.5220   24.7640   45.8070 N   0  0  0  0  0  0  0  0  0  0  0  0
   54.7120   25.3600   45.6230 C   0  0  0  0  0  0  0  0  0  0  0  0
   54.9830   26.6710   45.9980 O   0  0  0  0  0  0  0  0  0  0  0  0
   58.2010   25.7000   46.5770 C   0  0  0  0  0  0  0  0  0  0  0  0
   58.9870   26.8180   46.7670 C   0  0  0  0  0  0  0  0  0  0  0  0
   59.6530   27.1740   48.0640 C   0  0  0  0  0  0  0  0  0  0  0  0
   59.0760   27.5370   45.6260 N   0  0  0  0  0  0  0  0  0  0  0  0
   59.8480   28.7410   45.4600 C   0  0  0  0  0  0  0  0  0  0  0  0
   60.5790   28.8810   44.4430 O   0  0  0  0  0  0  0  0  0  0  0  0
   59.7480   29.7950   46.4230 N   0  0  0  0  0  0  0  0  0  0  0  0
   58.4970   30.4600   46.7700 C   0  0  0  0  0  0  0  0  0  0  0  0
   58.4210   31.8140   46.0990 C   0  0  0  0  0  0  0  0  0  0  0  0
   59.3190   32.8320   46.4910 C   0  0  0  0  0  0  0  0  0  0  0  0
   60.2770   32.5470   47.4790 O   0  0  0  0  0  0  0  0  0  0  0  0
   61.3310   33.4250   47.8610 C   0  0  0  0  0  0  0  0  0  0  0  0
   59.2360   34.0990   45.8870 C   0  0  0  0  0  0  0  0  0  0  0  0
   58.2710   34.3560   44.9150 C   0  0  0  0  0  0  0  0  0  0  0  0
   57.3780   33.3580   44.5310 C   0  0  0  0  0  0  0  0  0  0  0  0
   57.4390   32.0800   45.1180 C   0  0  0  0  0  0  0  0  0  0  0  0
   56.5440   31.0610   44.7490 O   0  0  0  0  0  0  0  0  0  0  0  0
   56.6750   30.2450   43.5900 C   0  0  0  0  0  0  0  0  0  0  0  0
   58.6343   28.2579   43.1040 H   0  0  0  0  0  0  0  0  0  0  0  0
   57.5016   26.7681   42.7468 H   0  0  0  0  0  0  0  0  0  0  0  0
   57.4026   24.2982   43.7610 H   0  0  0  0  0  0  0  0  0  0  0  0
   57.9509   24.9382   47.3301 H   0  0  0  0  0  0  0  0  0  0  0  0
   59.0253   26.8385   48.9027 H   0  0  0  0  0  0  0  0  0  0  0  0
   60.6343   26.6801   48.1200 H   0  0  0  0  0  0  0  0  0  0  0  0
   59.7875   28.2643   48.1200 H   0  0  0  0  0  0  0  0  0  0  0  0
   57.6515   29.8409   46.4356 H   0  0  0  0  0  0  0  0  0  0  0  0
   58.4541   30.5971   47.8606 H   0  0  0  0  0  0  0  0  0  0  0  0
   61.3886   33.4730   48.9584 H   0  0  0  0  0  0  0  0  0  0  0  0
   62.2841   33.0500   47.4598 H   0  0  0  0  0  0  0  0  0  0  0  0
   61.1344   34.4302   47.4598 H   0  0  0  0  0  0  0  0  0  0  0  0
   59.9375   34.8927   46.1837 H   0  0  0  0  0  0  0  0  0  0  0  0
   58.2141   35.3508   44.4491 H   0  0  0  0  0  0  0  0  0  0  0  0
   56.6194   33.5703   43.7632 H   0  0  0  0  0  0  0  0  0  0  0  0
   56.8426   29.2011   43.8936 H   0  0  0  0  0  0  0  0  0  0  0  0
   55.7550   30.3093   42.9904 H   0  0  0  0  0  0  0  0  0  0  0  0
   57.5286   30.5940   42.9904 H   0  0  0  0  0  0  0  0  0  0  0  0
  1  2  2  0
  2  3  1  0
  3  4  2  3
  4  5  1  0
  5  6  1  0
  6  7  1  0
  7  8  2  0
  7  9  1  0
  9 10  1  0
 10 11  1  0
  3 12  1  0
 12 13  2  0
 13 14  1  0
 13 15  1  0
 15 16  1  0
 16 17  2  0
 16 18  1  0
 18 19  1  0
 19 20  1  0
 20 21  2  0
 21 22  1  0
 22 23  1  0
 21 24  1  0
 24 25  2  0
 25 26  1  0
 26 27  2  0
 27 28  1  0
 28 29  1  0
 15  2  1  0
 27 20  1  0
 10  5  2  0
  1 30  1  0
  1 31  1  0
  4 32  1  0
 12 33  1  0
 14 34  1  0
 14 35  1  0
 14 36  1  0
 19 37  1  0
 19 38  1  0
 23 39  1  0
 23 40  1  0
 23 41  1  0
 24 42  1  0
 25 43  1  0
 26 44  1  0
 29 45  1  0
 29 46  1  0
 29 47  1  0
M  CHG  4   6  -1   9  -1  11  -1  18  -1
M  END
>  <UniqueID>  (88) 
84

>  <SMILES>  (88) 
C=c1c(=Cc2[n-]c(=O)[n-]c2[O-])cc(C)n1C(=O)[N-]Cc1c(OC)cccc1OC

>  <Energy>  (88) 
113.61236992709088

>  <Genealogy>  (88) 
C=c1c(=Cc2[n-]c(=O)[n-]c2[O-])cc(C)n1C(=O)[N-]Cc1c(OC)cccc1OC (protonated)
C=c1c(=Cc2[n-]c(=O)[n-]c2[O-])cc(C)n1C(=O)[N-]Cc1c(OC)cccc1OC (3D coordinates assigned)
C=c1c(=Cc2[n-]c(=O)[n-]c2[O-])cc(C)n1C(=O)[N-]Cc1c(OC)cccc1OC (optimized conformer: 113.61236992709088 kcal/mol)

>  <smiles>  (88) 
C=c1c(=Cc2[nH]c(=O)[nH]c2O)cc(C)n1C(=O)NCc1c(OC)cccc1OC

>  <score_type>  (88) 
oracle

>  <origin>  (88) 
adg

>  <m_score__min__energy>  (88) 
-16.75

>  <m_primary>  (88) 
energy

$$$$
88:0
     RDKit          3D

 51 53  0  0  0  0  0  0  0  0999 V2000
   62.3580   34.1630   49.1110 C   0  0  0  0  0  0  0  0  0  0  0  0
   61.6140   33.3280   49.8430 C   0  0  0  0  0  0  0  0  0  0  0  0
   60.3730   33.8090   50.5430 C   0  0  0  0  0  0  0  0  0  0  0  0
   59.2050   33.2260   49.9650 O   0  0  0  0  0  0  0  0  0  0  0  0
   59.1640   32.4830   48.7700 C   0  0  0  0  0  0  0  0  0  0  0  0
   59.1000   31.0740   48.7780 C   0  0  0  0  0  0  0  0  0  0  0  0
   59.1250   30.3550   47.5830 C   0  0  0  0  0  0  0  0  0  0  0  0
   59.2360   31.0250   46.3580 C   0  0  0  0  0  0  0  0  0  0  0  0
   59.2470   30.2830   45.0860 C   0  0  0  0  0  0  0  0  0  0  0  0
   58.1390   30.0480   44.3590 C   0  0  0  0  0  0  0  0  0  0  0  0
   57.1360   31.0930   43.9900 C   0  0  0  0  0  0  0  0  0  0  0  0
   56.1520   30.3990   43.0370 C   0  0  0  0  0  0  0  0  0  0  0  0
   56.7360   29.0270   42.6870 C   0  0  0  0  0  0  0  0  0  0  0  0
   57.7770   28.7780   43.7190 C   0  0  0  0  0  0  0  0  0  0  0  0
   58.1720   27.5270   44.0330 C   0  0  0  0  0  0  0  0  0  0  0  0
   58.6480   27.0910   45.3620 C   0  0  0  0  0  0  0  0  0  0  0  0
   60.0250   27.1910   45.6190 C   0  0  0  0  0  0  0  0  0  0  0  0
   60.5410   26.8590   46.8700 C   0  0  0  0  0  0  0  0  0  0  0  0
   59.6910   26.4070   47.8780 C   0  0  0  0  0  0  0  0  0  0  0  0
   58.3230   26.2680   47.6330 C   0  0  0  0  0  0  0  0  0  0  0  0
   57.7800   26.5880   46.3720 C   0  0  0  0  0  0  0  0  0  0  0  0
   56.3320   26.3620   46.1460 C   0  0  0  0  0  0  0  0  0  0  0  0
   55.8200   25.2380   46.3990 O   0  0  0  0  0  0  0  0  0  0  0  0
   55.5210   27.3640   45.6220 O   0  0  0  0  0  0  0  0  0  0  0  0
   59.2620   32.4240   46.3360 C   0  0  0  0  0  0  0  0  0  0  0  0
   59.2130   33.1630   47.5290 C   0  0  0  0  0  0  0  0  0  0  0  0
   59.2630   34.6400   47.4310 C   0  0  0  0  0  0  0  0  0  0  0  0
   59.5960   35.2870   46.3130 C   0  0  0  0  0  0  0  0  0  0  0  0
   63.2628   33.7942   48.6057 H   0  0  0  0  0  0  0  0  0  0  0  0
   62.0655   35.2189   49.0139 H   0  0  0  0  0  0  0  0  0  0  0  0
   61.9138   32.2736   49.9347 H   0  0  0  0  0  0  0  0  0  0  0  0
   60.4273   33.5294   51.6055 H   0  0  0  0  0  0  0  0  0  0  0  0
   60.3102   34.9020   50.4367 H   0  0  0  0  0  0  0  0  0  0  0  0
   59.0297   30.5372   49.7355 H   0  0  0  0  0  0  0  0  0  0  0  0
   59.0573   29.2573   47.6027 H   0  0  0  0  0  0  0  0  0  0  0  0
   60.2085   29.9019   44.7115 H   0  0  0  0  0  0  0  0  0  0  0  0
   56.6118   31.4562   44.8863 H   0  0  0  0  0  0  0  0  0  0  0  0
   57.6112   31.9669   43.5205 H   0  0  0  0  0  0  0  0  0  0  0  0
   55.1760   30.2767   43.5294 H   0  0  0  0  0  0  0  0  0  0  0  0
   56.0060   31.0002   42.1275 H   0  0  0  0  0  0  0  0  0  0  0  0
   55.9561   28.2524   42.7296 H   0  0  0  0  0  0  0  0  0  0  0  0
   57.1495   29.0014   41.6680 H   0  0  0  0  0  0  0  0  0  0  0  0
   58.1369   26.7705   43.2353 H   0  0  0  0  0  0  0  0  0  0  0  0
   60.7034   27.5350   44.8243 H   0  0  0  0  0  0  0  0  0  0  0  0
   61.6199   26.9537   47.0623 H   0  0  0  0  0  0  0  0  0  0  0  0
   60.0987   26.1591   48.8691 H   0  0  0  0  0  0  0  0  0  0  0  0
   57.6616   25.9046   48.4333 H   0  0  0  0  0  0  0  0  0  0  0  0
   59.3215   32.9512   45.3724 H   0  0  0  0  0  0  0  0  0  0  0  0
   59.0134   35.2323   48.3237 H   0  0  0  0  0  0  0  0  0  0  0  0
   59.6161   36.3867   46.2992 H   0  0  0  0  0  0  0  0  0  0  0  0
   59.8505   34.7208   45.4049 H   0  0  0  0  0  0  0  0  0  0  0  0
  1  2  2  0
  2  3  1  0
  3  4  1  0
  4  5  1  0
  5  6  2  0
  6  7  1  0
  7  8  2  0
  8  9  1  0
  9 10  2  3
 10 11  1  0
 11 12  1  0
 12 13  1  0
 13 14  1  0
 14 15  2  3
 15 16  1  0
 16 17  2  0
 17 18  1  0
 18 19  2  0
 19 20  1  0
 20 21  2  0
 21 22  1  0
 22 23  2  0
 22 24  1  0
  8 25  1  0
 25 26  2  0
 26 27  1  0
 27 28  2  0
 26  5  1  0
 14 10  1  0
 21 16  1  0
  1 29  1  0
  1 30  1  0
  2 31  1  0
  3 32  1  0
  3 33  1  0
  6 34  1  0
  7 35  1  0
  9 36  1  0
 11 37  1  0
 11 38  1  0
 12 39  1  0
 12 40  1  0
 13 41  1  0
 13 42  1  0
 15 43  1  0
 17 44  1  0
 18 45  1  0
 19 46  1  0
 20 47  1  0
 25 48  1  0
 27 49  1  0
 28 50  1  0
 28 51  1  0
M  CHG  1  24  -1
M  END
>  <UniqueID>  (89) 
85

>  <SMILES>  (89) 
C=CCOc1ccc(C=C2CCCC2=Cc2ccccc2C(=O)[O-])cc1C=C

>  <Energy>  (89) 
80.14365451427177

>  <Genealogy>  (89) 
C=CCOc1ccc(C=C2CCCC2=Cc2ccccc2C(=O)[O-])cc1C=C (protonated)
C=CCOc1ccc(C=C2CCCC2=Cc2ccccc2C(=O)[O-])cc1C=C (3D coordinates assigned)
C=CCOc1ccc(C=C2CCCC2=Cc2ccccc2C(=O)[O-])cc1C=C (nonaromatic ring conformer: 80.14365451427177 kcal/mol)

>  <smiles>  (89) 
C=CCOc1ccc(C=C2CCCC2=Cc2ccccc2C(=O)O)cc1C=C

>  <score_type>  (89) 
oracle

>  <origin>  (89) 
adg

>  <m_score__min__energy>  (89) 
-11.77

>  <m_primary>  (89) 
energy

$$$$
89:0
     RDKit          3D

 50 53  0  0  0  0  0  0  0  0999 V2000
   58.1000   26.5050   42.2450 C   0  0  0  0  0  0  0  0  0  0  0  0
   58.0290   27.0270   43.4730 C   0  0  0  0  0  0  0  0  0  0  0  0
   58.3220   28.3230   43.7130 N   0  0  0  0  0  0  0  0  0  0  0  0
   57.9680   28.5820   44.9870 C   0  0  0  0  0  0  0  0  0  0  0  0
   58.1160   29.8920   45.6500 C   0  0  0  0  0  0  0  0  0  0  0  0
   58.2830   29.9330   46.8990 O   0  0  0  0  0  0  0  0  0  0  0  0
   58.0290   31.1130   44.8960 N   0  0  0  0  0  0  0  0  0  0  0  0
   58.5120   32.3810   45.3750 C   0  0  0  0  0  0  0  0  0  0  0  0
   58.4560   33.5020   44.5330 C   0  0  0  0  0  0  0  0  0  0  0  0
   58.9340   34.7400   44.9700 C   0  0  0  0  0  0  0  0  0  0  0  0
   59.4860   34.8680   46.2470 C   0  0  0  0  0  0  0  0  0  0  0  0
   59.5680   33.7520   47.0920 C   0  0  0  0  0  0  0  0  0  0  0  0
   60.3010   33.8850   48.6890 S   0  0  0  0  0  0  0  0  0  0  0  0
   60.1310   32.5750   49.4070 O   0  0  0  0  0  0  0  0  0  0  0  0
   59.6160   34.9620   49.4840 O   0  0  0  0  0  0  0  0  0  0  0  0
   61.9990   34.2560   48.5180 N   0  0  0  0  0  0  0  0  0  0  0  0
   62.7340   33.9960   49.7760 C   0  0  0  0  0  0  0  0  0  0  0  0
   63.5790   32.7110   49.7020 C   0  0  0  0  0  0  0  0  0  0  0  0
   64.5330   32.7330   48.6500 O   0  0  0  0  0  0  0  0  0  0  0  0
   64.0860   33.4110   47.4830 C   0  0  0  0  0  0  0  0  0  0  0  0
   62.5570   33.5250   47.3630 C   0  0  0  0  0  0  0  0  0  0  0  0
   59.0910   32.5100   46.6500 C   0  0  0  0  0  0  0  0  0  0  0  0
   57.4600   27.4440   45.5830 C   0  0  0  0  0  0  0  0  0  0  0  0
   57.5270   26.4320   44.6390 C   0  0  0  0  0  0  0  0  0  0  0  0
   57.1730   25.1590   44.9030 C   0  0  0  0  0  0  0  0  0  0  0  0
   55.7950   24.6720   45.0740 C   0  0  0  0  0  0  0  0  0  0  0  0
   55.4050   23.3970   44.8950 N   0  0  0  0  0  0  0  0  0  0  0  0
   54.1190   23.4020   45.3090 C   0  0  0  0  0  0  0  0  0  0  0  0
   53.3930   22.3740   45.2800 O   0  0  0  0  0  0  0  0  0  0  0  0
   53.6770   24.5920   45.7680 N   0  0  0  0  0  0  0  0  0  0  0  0
   54.7560   25.3800   45.6260 C   0  0  0  0  0  0  0  0  0  0  0  0
   54.7920   26.7150   46.0050 O   0  0  0  0  0  0  0  0  0  0  0  0
   57.8546   25.4450   42.0829 H   0  0  0  0  0  0  0  0  0  0  0  0
   58.4038   27.1352   41.3962 H   0  0  0  0  0  0  0  0  0  0  0  0
   58.7110   29.0030   43.0220 H   0  0  0  0  0  0  0  0  0  0  0  0
   57.4940   31.1040   43.9990 H   0  0  0  0  0  0  0  0  0  0  0  0
   58.0330   33.4055   43.5222 H   0  0  0  0  0  0  0  0  0  0  0  0
   58.8756   35.6159   44.3071 H   0  0  0  0  0  0  0  0  0  0  0  0
   59.8567   35.8452   46.5899 H   0  0  0  0  0  0  0  0  0  0  0  0
   63.4008   34.8470   49.9789 H   0  0  0  0  0  0  0  0  0  0  0  0
   61.9933   33.8669   50.5789 H   0  0  0  0  0  0  0  0  0  0  0  0
   64.1123   32.5869   50.6560 H   0  0  0  0  0  0  0  0  0  0  0  0
   62.8908   31.8760   49.5041 H   0  0  0  0  0  0  0  0  0  0  0  0
   64.5074   34.4270   47.4923 H   0  0  0  0  0  0  0  0  0  0  0  0
   64.4256   32.8148   46.6232 H   0  0  0  0  0  0  0  0  0  0  0  0
   62.3061   34.0647   46.4379 H   0  0  0  0  0  0  0  0  0  0  0  0
   62.1262   32.5131   47.3415 H   0  0  0  0  0  0  0  0  0  0  0  0
   59.1702   31.6300   47.3053 H   0  0  0  0  0  0  0  0  0  0  0  0
   57.0759   27.3578   46.6102 H   0  0  0  0  0  0  0  0  0  0  0  0
   57.9830   24.4210   44.9988 H   0  0  0  0  0  0  0  0  0  0  0  0
  1  2  2  0
  2  3  1  0
  3  4  1  0
  4  5  1  0
  5  6  2  0
  5  7  1  0
  7  8  1  0
  8  9  2  0
  9 10  1  0
 10 11  2  0
 11 12  1  0
 12 13  1  0
 13 14  2  0
 13 15  2  0
 13 16  1  0
 16 17  1  0
 17 18  1  0
 18 19  1  0
 19 20  1  0
 20 21  1  0
 12 22  2  0
  4 23  2  0
 23 24  1  0
 24 25  2  3
 25 26  1  0
 26 27  1  0
 27 28  1  0
 28 29  2  0
 28 30  1  0
 30 31  1  0
 31 32  1  0
 24  2  1  0
 31 26  2  0
 22  8  1  0
 21 16  1  0
  1 33  1  0
  1 34  1  0
  3 35  1  0
  7 36  1  0
  9 37  1  0
 10 38  1  0
 11 39  1  0
 17 40  1  0
 17 41  1  0
 18 42  1  0
 18 43  1  0
 20 44  1  0
 20 45  1  0
 21 46  1  0
 21 47  1  0
 22 48  1  0
 23 49  1  0
 25 50  1  0
M  CHG  3  27  -1  30  -1  32  -1
M  END
>  <UniqueID>  (90) 
86

>  <SMILES>  (90) 
C=c1[nH]c(C(=O)Nc2cccc(S(=O)(=O)N3CCOCC3)c2)cc1=Cc1[n-]c(=O)[n-]c1[O-]

>  <Energy>  (90) 
135.99808455286586

>  <Genealogy>  (90) 
C=c1[nH]c(C(=O)Nc2cccc(S(=O)(=O)N3CCOCC3)c2)cc1=Cc1[n-]c(=O)[n-]c1[O-] (protonated)
C=c1[nH]c(C(=O)Nc2cccc(S(=O)(=O)N3CCOCC3)c2)cc1=Cc1[n-]c(=O)[n-]c1[O-] (3D coordinates assigned)
C=c1[nH]c(C(=O)Nc2cccc(S(=O)(=O)N3CCOCC3)c2)cc1=Cc1[n-]c(=O)[n-]c1[O-] (nonaromatic ring conformer: 135.99808455286586 kcal/mol)

>  <smiles>  (90) 
C=c1[nH]c(C(=O)Nc2cccc(S(=O)(=O)N3CCOCC3)c2)cc1=Cc1[nH]c(=O)[nH]c1O

>  <score_type>  (90) 
oracle

>  <origin>  (90) 
adg

>  <m_score__min__energy>  (90) 
-19.390000000000001

>  <m_primary>  (90) 
energy

$$$$
90:0
     RDKit          3D

 43 45  0  0  0  0  0  0  0  0999 V2000
   55.5170   25.3100   47.9030 H   0  0  0  0  0  0  0  0  0  0  0  0
   56.1040   25.0620   47.1150 O   0  0  0  0  0  0  0  0  0  0  0  0
   57.0620   25.9420   46.6140 C   0  0  0  0  0  0  0  0  0  0  0  0
   58.3700   25.8870   47.1020 C   0  0  0  0  0  0  0  0  0  0  0  0
   58.6319   25.1675   47.8917 H   0  0  0  0  0  0  0  0  0  0  0  0
   59.3460   26.7450   46.5880 C   0  0  0  0  0  0  0  0  0  0  0  0
   60.3781   26.6893   46.9644 H   0  0  0  0  0  0  0  0  0  0  0  0
   59.0150   27.6740   45.5970 C   0  0  0  0  0  0  0  0  0  0  0  0
   59.7929   28.3320   45.1825 H   0  0  0  0  0  0  0  0  0  0  0  0
   57.6930   27.7720   45.1270 C   0  0  0  0  0  0  0  0  0  0  0  0
   57.3440   28.7660   44.0410 C   0  0  0  0  0  0  0  0  0  0  0  0
   56.9231   28.2179   43.1852 H   0  0  0  0  0  0  0  0  0  0  0  0
   58.2677   29.2986   43.7706 H   0  0  0  0  0  0  0  0  0  0  0  0
   56.3400   29.7990   44.4930 C   0  0  0  0  0  0  0  0  0  0  0  0
   55.1490   29.4350   44.6790 O   0  0  0  0  0  0  0  0  0  0  0  0
   56.6420   31.2020   44.5910 N   0  0  0  0  0  0  0  0  0  0  0  0
   57.4760   31.8010   45.3890 C   0  0  0  0  0  0  0  0  0  0  0  0
   57.8380   33.0890   45.2080 N   0  0  0  0  0  0  0  0  0  0  0  0
   58.6870   33.5260   46.1800 C   0  0  0  0  0  0  0  0  0  0  0  0
   59.2240   34.9230   46.1630 C   0  0  0  0  0  0  0  0  0  0  0  0
   59.3598   35.2762   47.1959 H   0  0  0  0  0  0  0  0  0  0  0  0
   60.1918   34.9375   45.6403 H   0  0  0  0  0  0  0  0  0  0  0  0
   58.5151   35.5820   45.6403 H   0  0  0  0  0  0  0  0  0  0  0  0
   59.0000   32.5740   47.1620 C   0  0  0  0  0  0  0  0  0  0  0  0
   59.9460   32.7170   48.2900 C   0  0  0  0  0  0  0  0  0  0  0  0
   59.5580   32.4430   49.4590 O   0  0  0  0  0  0  0  0  0  0  0  0
   61.2890   33.1990   48.0890 N   0  0  0  0  0  0  0  0  0  0  0  0
   62.0500   32.8660   46.8800 C   0  0  0  0  0  0  0  0  0  0  0  0
   61.6685   31.9261   46.4544 H   0  0  0  0  0  0  0  0  0  0  0  0
   61.9386   33.6753   46.1434 H   0  0  0  0  0  0  0  0  0  0  0  0
   63.5310   32.7010   47.2350 C   0  0  0  0  0  0  0  0  0  0  0  0
   63.6537   31.8070   47.8640 H   0  0  0  0  0  0  0  0  0  0  0  0
   64.1073   32.5959   46.3040 H   0  0  0  0  0  0  0  0  0  0  0  0
   64.0080   33.8330   47.9390 O   0  0  0  0  0  0  0  0  0  0  0  0
   63.3530   33.9300   49.1900 C   0  0  0  0  0  0  0  0  0  0  0  0
   63.4844   32.9865   49.7400 H   0  0  0  0  0  0  0  0  0  0  0  0
   63.7919   34.7663   49.7539 H   0  0  0  0  0  0  0  0  0  0  0  0
   61.8560   34.1970   49.0010 C   0  0  0  0  0  0  0  0  0  0  0  0
   61.3473   34.1341   49.9743 H   0  0  0  0  0  0  0  0  0  0  0  0
   61.7153   35.2017   48.5758 H   0  0  0  0  0  0  0  0  0  0  0  0
   58.1800   31.1590   46.7730 S   0  0  0  0  0  0  0  0  0  0  0  0
   56.7260   26.8770   45.6230 C   0  0  0  0  0  0  0  0  0  0  0  0
   55.6989   26.9109   45.2306 H   0  0  0  0  0  0  0  0  0  0  0  0
  1  2  1  0
  2  3  1  0
  3  4  2  0
  4  5  1  0
  4  6  1  0
  6  7  1  0
  6  8  2  0
  8  9  1  0
  8 10  1  0
 10 11  1  0
 11 12  1  0
 11 13  1  0
 11 14  1  0
 14 15  2  0
 14 16  1  0
 16 17  2  0
 17 18  1  0
 18 19  1  0
 19 20  1  0
 20 21  1  0
 20 22  1  0
 20 23  1  0
 19 24  2  0
 24 25  1  0
 25 26  2  0
 25 27  1  0
 27 28  1  0
 28 29  1  0
 28 30  1  0
 28 31  1  0
 31 32  1  0
 31 33  1  0
 31 34  1  0
 34 35  1  0
 35 36  1  0
 35 37  1  0
 35 38  1  0
 38 39  1  0
 38 40  1  0
 24 41  1  0
 10 42  2  0
 42 43  1  0
 42  3  1  0
 41 17  1  0
 38 27  1  0
M  CHG  1  18  -1
M  END
>  <UniqueID>  (91) 
87

>  <SMILES>  (91) 
Cc1[n-]/c(=N/C(=O)Cc2cccc(O)c2)sc1C(=O)N1CCOCC1

>  <Energy>  (91) 
84.3863432692084

>  <Genealogy>  (91) 
Cc1[n-]c(=NC(=O)Cc2cccc(O)c2)sc1C(=O)N1CCOCC1 (protonated)
Cc1[n-]/c(=N/C(=O)Cc2cccc(O)c2)sc1C(=O)N1CCOCC1 (cis-trans isomerization)
Cc1[n-]/c(=N/C(=O)Cc2cccc(O)c2)sc1C(=O)N1CCOCC1 (3D coordinates assigned)
Cc1[n-]/c(=N/C(=O)Cc2cccc(O)c2)sc1C(=O)N1CCOCC1 (nonaromatic ring conformer: 84.3863432692084 kcal/mol)

>  <smiles>  (91) 
Cc1[nH]c(=NC(=O)Cc2cccc(O)c2)sc1C(=O)N1CCOCC1

>  <score_type>  (91) 
oracle

>  <origin>  (91) 
adg

>  <m_score__min__energy>  (91) 
-10.33

>  <m_primary>  (91) 
energy

$$$$
91:0
     RDKit          3D

 57 60  0  0  0  0  0  0  0  0999 V2000
   59.6819   29.7666   52.2735 H   0  0  0  0  0  0  0  0  0  0  0  0
   59.7420   29.4090   51.2350 C   0  0  0  0  0  0  0  0  0  0  0  0
   60.7040   28.4620   50.8770 C   0  0  0  0  0  0  0  0  0  0  0  0
   61.3950   28.0670   51.6362 H   0  0  0  0  0  0  0  0  0  0  0  0
   60.7900   28.0150   49.5540 C   0  0  0  0  0  0  0  0  0  0  0  0
   61.5398   27.2588   49.2783 H   0  0  0  0  0  0  0  0  0  0  0  0
   59.9200   28.5300   48.5750 C   0  0  0  0  0  0  0  0  0  0  0  0
   59.9710   28.1010   47.2070 N   0  0  0  0  0  0  0  0  0  0  0  0
   59.9920   28.9290   46.0350 C   0  0  0  0  0  0  0  0  0  0  0  0
   60.3780   28.4260   44.9480 O   0  0  0  0  0  0  0  0  0  0  0  0
   59.4600   30.3140   46.0430 C   0  0  0  0  0  0  0  0  0  0  0  0
   60.2740   31.3920   46.4980 C   0  0  0  0  0  0  0  0  0  0  0  0
   61.6360   31.1280   47.1080 C   0  0  0  0  0  0  0  0  0  0  0  0
   61.5557   31.1436   48.2050 H   0  0  0  0  0  0  0  0  0  0  0  0
   61.9995   30.1427   46.7809 H   0  0  0  0  0  0  0  0  0  0  0  0
   62.3413   31.9061   46.7809 H   0  0  0  0  0  0  0  0  0  0  0  0
   59.8120   32.7280   46.3370 C   0  0  0  0  0  0  0  0  0  0  0  0
   60.6230   33.9450   46.7380 C   0  0  0  0  0  0  0  0  0  0  0  0
   61.5425   33.9799   46.1352 H   0  0  0  0  0  0  0  0  0  0  0  0
   60.0157   34.8455   46.5639 H   0  0  0  0  0  0  0  0  0  0  0  0
   60.9920   33.8870   48.1990 C   0  0  0  0  0  0  0  0  0  0  0  0
   60.0030   33.6790   49.1750 C   0  0  0  0  0  0  0  0  0  0  0  0
   58.9560   33.5335   48.8707 H   0  0  0  0  0  0  0  0  0  0  0  0
   60.3430   33.6560   50.5320 C   0  0  0  0  0  0  0  0  0  0  0  0
   59.5640   33.4913   51.2909 H   0  0  0  0  0  0  0  0  0  0  0  0
   61.6710   33.8420   50.9240 C   0  0  0  0  0  0  0  0  0  0  0  0
   61.9369   33.8224   51.9912 H   0  0  0  0  0  0  0  0  0  0  0  0
   62.6620   34.0530   49.9610 C   0  0  0  0  0  0  0  0  0  0  0  0
   63.7074   34.1987   50.2708 H   0  0  0  0  0  0  0  0  0  0  0  0
   62.3250   34.0790   48.6030 C   0  0  0  0  0  0  0  0  0  0  0  0
   63.1066   34.2504   47.8482 H   0  0  0  0  0  0  0  0  0  0  0  0
   58.5540   32.9550   45.7650 C   0  0  0  0  0  0  0  0  0  0  0  0
   58.2038   33.9878   45.6209 H   0  0  0  0  0  0  0  0  0  0  0  0
   57.7420   31.8990   45.3770 C   0  0  0  0  0  0  0  0  0  0  0  0
   56.7546   32.1067   44.9389 H   0  0  0  0  0  0  0  0  0  0  0  0
   58.1610   30.5750   45.5350 C   0  0  0  0  0  0  0  0  0  0  0  0
   57.0820   29.2850   44.9640 S   0  0  0  0  0  0  0  0  0  0  0  0
   55.6650   29.7720   44.8390 O   0  0  0  0  0  0  0  0  0  0  0  0
   57.5460   28.8790   43.5940 O   0  0  0  0  0  0  0  0  0  0  0  0
   57.1060   27.8750   45.9790 N   0  0  0  0  0  0  0  0  0  0  0  0
   56.4530   26.7510   45.8910 C   0  0  0  0  0  0  0  0  0  0  0  0
   55.1450   26.7150   45.9980 O   0  0  0  0  0  0  0  0  0  0  0  0
   54.6890   25.5050   45.8620 N   0  0  0  0  0  0  0  0  0  0  0  0
   55.7500   24.7050   45.6550 C   0  0  0  0  0  0  0  0  0  0  0  0
   55.6370   23.2320   45.4250 C   0  0  0  0  0  0  0  0  0  0  0  0
   55.5971   22.7117   46.3933 H   0  0  0  0  0  0  0  0  0  0  0  0
   54.7199   23.0190   44.8562 H   0  0  0  0  0  0  0  0  0  0  0  0
   56.5109   22.8816   44.8562 H   0  0  0  0  0  0  0  0  0  0  0  0
   56.9180   25.4530   45.6770 C   0  0  0  0  0  0  0  0  0  0  0  0
   58.2910   24.9280   45.3900 C   0  0  0  0  0  0  0  0  0  0  0  0
   58.8128   24.7285   46.3376 H   0  0  0  0  0  0  0  0  0  0  0  0
   58.2135   23.9961   44.8108 H   0  0  0  0  0  0  0  0  0  0  0  0
   58.8551   25.6739   44.8108 H   0  0  0  0  0  0  0  0  0  0  0  0
   58.9390   29.4570   48.9520 C   0  0  0  0  0  0  0  0  0  0  0  0
   58.2295   29.8369   48.2022 H   0  0  0  0  0  0  0  0  0  0  0  0
   58.8560   29.9020   50.2740 C   0  0  0  0  0  0  0  0  0  0  0  0
   58.0924   30.6411   50.5582 H   0  0  0  0  0  0  0  0  0  0  0  0
  1  2  1  0
  2  3  2  0
  3  4  1  0
  3  5  1  0
  5  6  1  0
  5  7  2  0
  7  8  1  0
  8  9  1  0
  9 10  2  0
  9 11  1  0
 11 12  2  0
 12 13  1  0
 13 14  1  0
 13 15  1  0
 13 16  1  0
 12 17  1  0
 17 18  1  0
 18 19  1  0
 18 20  1  0
 18 21  1  0
 21 22  2  0
 22 23  1  0
 22 24  1  0
 24 25  1  0
 24 26  2  0
 26 27  1  0
 26 28  1  0
 28 29  1  0
 28 30  2  0
 30 31  1  0
 17 32  2  0
 32 33  1  0
 32 34  1  0
 34 35  1  0
 34 36  2  0
 36 37  1  0
 37 38  2  0
 37 39  2  0
 37 40  1  0
 40 41  2  0
 41 42  1  0
 42 43  1  0
 43 44  1  0
 44 45  1  0
 45 46  1  0
 45 47  1  0
 45 48  1  0
 44 49  2  0
 49 50  1  0
 50 51  1  0
 50 52  1  0
 50 53  1  0
  7 54  1  0
 54 55  1  0
 54 56  2  0
 56 57  1  0
 56  2  1  0
 36 11  1  0
 49 41  1  0
 30 21  1  0
M  CHG  2   8  -1  43  -1
M  END
>  <UniqueID>  (92) 
88

>  <SMILES>  (92) 
Cc1[n-]o/c(=N/S(=O)(=O)c2ccc(Cc3ccccc3)c(C)c2C(=O)[N-]c2ccccc2)c1C

>  <Energy>  (92) 
116.47408804686444

>  <Genealogy>  (92) 
Cc1[n-]oc(=NS(=O)(=O)c2ccc(Cc3ccccc3)c(C)c2C(=O)[N-]c2ccccc2)c1C (protonated)
Cc1[n-]o/c(=N/S(=O)(=O)c2ccc(Cc3ccccc3)c(C)c2C(=O)[N-]c2ccccc2)c1C (cis-trans isomerization)
Cc1[n-]o/c(=N/S(=O)(=O)c2ccc(Cc3ccccc3)c(C)c2C(=O)[N-]c2ccccc2)c1C (3D coordinates assigned)
Cc1[n-]o/c(=N/S(=O)(=O)c2ccc(Cc3ccccc3)c(C)c2C(=O)[N-]c2ccccc2)c1C (optimized conformer: 116.47408804686444 kcal/mol)

>  <smiles>  (92) 
Cc1[nH]oc(=NS(=O)(=O)c2ccc(Cc3ccccc3)c(C)c2C(=O)Nc2ccccc2)c1C

>  <score_type>  (92) 
oracle

>  <origin>  (92) 
adg

>  <m_score__min__energy>  (92) 
-14.039999999999999

>  <m_primary>  (92) 
energy

$$$$
