0:0
     RDKit          3D

 28 29  0  0  0  0  0  0  0  0999 V2000
   59.9680   26.5700   46.1710 O   0  0  0  0  0  0  0  0  0  0  0  0
   58.9490   27.2660   45.9110 C   0  0  0  0  0  0  0  0  0  0  0  0
   57.8330   26.6830   45.1070 C   0  0  0  0  0  0  0  0  0  0  0  0
   57.1490   25.6210   45.9080 C   0  0  0  0  0  0  0  0  0  0  0  0
   57.7750   24.5580   46.4450 N   0  0  0  0  0  0  0  0  0  0  0  0
   56.7990   23.9460   47.1510 C   0  0  0  0  0  0  0  0  0  0  0  0
   56.9960   22.8890   47.8030 O   0  0  0  0  0  0  0  0  0  0  0  0
   55.5970   24.5600   47.1090 N   0  0  0  0  0  0  0  0  0  0  0  0
   55.8380   25.6240   46.3240 C   0  0  0  0  0  0  0  0  0  0  0  0
   54.8870   26.5840   45.9980 O   0  0  0  0  0  0  0  0  0  0  0  0
   58.8160   28.5870   46.4450 N   0  0  0  0  0  0  0  0  0  0  0  0
   57.5680   29.3400   46.4140 C   0  0  0  0  0  0  0  0  0  0  0  0
   57.3750   29.9630   45.0550 C   0  0  0  0  0  0  0  0  0  0  0  0
   58.3730   30.7850   44.5080 C   0  0  0  0  0  0  0  0  0  0  0  0
   58.1800   31.4030   43.2700 C   0  0  0  0  0  0  0  0  0  0  0  0
   56.9860   31.2110   42.5690 C   0  0  0  0  0  0  0  0  0  0  0  0
   56.7940   31.8340   41.3410 O   0  0  0  0  0  0  0  0  0  0  0  0
   55.9870   30.3940   43.1040 C   0  0  0  0  0  0  0  0  0  0  0  0
   56.1750   29.7710   44.3430 C   0  0  0  0  0  0  0  0  0  0  0  0
   55.1660   28.9670   44.8590 O   0  0  0  0  0  0  0  0  0  0  0  0
   57.1115   27.4734   44.8526 H   0  0  0  0  0  0  0  0  0  0  0  0
   58.2352   26.2450   44.1816 H   0  0  0  0  0  0  0  0  0  0  0  0
   55.1600   27.4570   45.5660 H   0  0  0  0  0  0  0  0  0  0  0  0
   56.7282   28.6621   46.6265 H   0  0  0  0  0  0  0  0  0  0  0  0
   57.6072   30.1350   47.1732 H   0  0  0  0  0  0  0  0  0  0  0  0
   59.3127   30.9434   45.0575 H   0  0  0  0  0  0  0  0  0  0  0  0
   58.9689   32.0417   42.8462 H   0  0  0  0  0  0  0  0  0  0  0  0
   55.0495   30.2399   42.5496 H   0  0  0  0  0  0  0  0  0  0  0  0
  1  2  2  0
  2  3  1  0
  3  4  1  0
  4  5  1  0
  5  6  1  0
  6  7  2  0
  6  8  1  0
  8  9  1  0
  9 10  1  0
  2 11  1  0
 11 12  1  0
 12 13  1  0
 13 14  2  0
 14 15  1  0
 15 16  2  0
 16 17  1  0
 16 18  1  0
 18 19  2  0
 19 20  1  0
  9  4  2  0
 19 13  1  0
  3 21  1  0
  3 22  1  0
 10 23  1  0
 12 24  1  0
 12 25  1  0
 14 26  1  0
 15 27  1  0
 18 28  1  0
M  CHG  5   5  -1   8  -1  11  -1  17  -1  20  -1
M  END
>  <UniqueID>  (1) 
1

>  <SMILES>  (1) 
O=C(Cc1[n-]c(=O)[n-]c1O)[N-]Cc1ccc([O-])cc1[O-]

>  <Energy>  (1) 
51.99756959126129

>  <Genealogy>  (1) 
O=C(Cc1[n-]c(=O)[n-]c1O)[N-]Cc1ccc([O-])cc1[O-] (protonated)
O=C(Cc1[n-]c(=O)[n-]c1O)[N-]Cc1ccc([O-])cc1[O-] (3D coordinates assigned)
O=C(Cc1[n-]c(=O)[n-]c1O)[N-]Cc1ccc([O-])cc1[O-] (optimized conformer: 51.99756959126129 kcal/mol)

>  <smiles>  (1) 
O=C(Cc1[nH]c(=O)[nH]c1O)NCc1ccc(O)cc1O

>  <score_type>  (1) 
oracle

>  <origin>  (1) 
adg

>  <m_score__min__energy>  (1) 
-16.460000000000001

>  <m_primary>  (1) 
energy

$$$$
1:0
     RDKit          3D

 44 46  0  0  0  0  0  0  0  0999 V2000
   56.2920   27.9600   46.2480 H   0  0  0  0  0  0  0  0  0  0  0  0
   55.8040   27.1110   45.9850 O   0  0  0  0  0  0  0  0  0  0  0  0
   56.4830   25.9090   45.7780 C   0  0  0  0  0  0  0  0  0  0  0  0
   55.8200   24.8340   45.1630 C   0  0  0  0  0  0  0  0  0  0  0  0
   54.7614   24.9332   44.8808 H   0  0  0  0  0  0  0  0  0  0  0  0
   56.4980   23.6400   44.9080 C   0  0  0  0  0  0  0  0  0  0  0  0
   55.9709   22.8001   44.4319 H   0  0  0  0  0  0  0  0  0  0  0  0
   57.8420   23.5110   45.2560 C   0  0  0  0  0  0  0  0  0  0  0  0
   58.3769   22.5736   45.0435 H   0  0  0  0  0  0  0  0  0  0  0  0
   58.5110   24.5720   45.8750 C   0  0  0  0  0  0  0  0  0  0  0  0
   59.5728   24.4658   46.1420 H   0  0  0  0  0  0  0  0  0  0  0  0
   57.8370   25.7740   46.1590 C   0  0  0  0  0  0  0  0  0  0  0  0
   58.5710   26.8700   46.8320 C   0  0  0  0  0  0  0  0  0  0  0  0
   57.8820   27.8000   47.5470 N   0  0  0  0  0  0  0  0  0  0  0  0
   58.5070   28.8330   48.1700 C   0  0  0  0  0  0  0  0  0  0  0  0
   57.9243   29.5658   48.7475 H   0  0  0  0  0  0  0  0  0  0  0  0
   59.9070   28.9590   48.0710 C   0  0  0  0  0  0  0  0  0  0  0  0
   60.5810   29.9280   48.6250 N   0  0  0  0  0  0  0  0  0  0  0  0
   60.1180   30.9240   49.5500 C   0  0  0  0  0  0  0  0  0  0  0  0
   59.8620   30.6300   50.7480 O   0  0  0  0  0  0  0  0  0  0  0  0
   59.9910   32.3420   49.0940 C   0  0  0  0  0  0  0  0  0  0  0  0
   58.9543   32.5322   48.7791 H   0  0  0  0  0  0  0  0  0  0  0  0
   60.2575   33.0138   49.9232 H   0  0  0  0  0  0  0  0  0  0  0  0
   60.8900   32.5860   47.9710 N   0  0  0  0  0  0  0  0  0  0  0  0
   60.4330   32.9560   46.6640 C   0  0  0  0  0  0  0  0  0  0  0  0
   60.9920   33.9070   46.0510 O   0  0  0  0  0  0  0  0  0  0  0  0
   59.3160   32.2200   46.0240 C   0  0  0  0  0  0  0  0  0  0  0  0
   59.4390   30.8530   45.7180 C   0  0  0  0  0  0  0  0  0  0  0  0
   60.3719   30.3213   45.9565 H   0  0  0  0  0  0  0  0  0  0  0  0
   58.3820   30.1650   45.1120 C   0  0  0  0  0  0  0  0  0  0  0  0
   58.4901   29.0968   44.8729 H   0  0  0  0  0  0  0  0  0  0  0  0
   57.1860   30.8300   44.8080 C   0  0  0  0  0  0  0  0  0  0  0  0
   56.0670   30.0970   44.1190 C   0  0  0  0  0  0  0  0  0  0  0  0
   55.4780   30.8098   43.5232 H   0  0  0  0  0  0  0  0  0  0  0  0
   56.4938   29.3234   43.4638 H   0  0  0  0  0  0  0  0  0  0  0  0
   55.2340   29.4860   45.0670 O   0  0  0  0  0  0  0  0  0  0  0  0
   55.6010   29.7230   45.9610 H   0  0  0  0  0  0  0  0  0  0  0  0
   57.0640   32.1970   45.0990 C   0  0  0  0  0  0  0  0  0  0  0  0
   56.1353   32.7296   44.8463 H   0  0  0  0  0  0  0  0  0  0  0  0
   58.1160   32.8850   45.7080 C   0  0  0  0  0  0  0  0  0  0  0  0
   58.0061   33.9541   45.9424 H   0  0  0  0  0  0  0  0  0  0  0  0
   60.5840   28.0490   47.3200 N   0  0  0  0  0  0  0  0  0  0  0  0
   59.9590   27.0130   46.7040 C   0  0  0  0  0  0  0  0  0  0  0  0
   60.5379   26.2914   46.1089 H   0  0  0  0  0  0  0  0  0  0  0  0
  1  2  1  0
  2  3  1  0
  3  4  2  0
  4  5  1  0
  4  6  1  0
  6  7  1  0
  6  8  2  0
  8  9  1  0
  8 10  1  0
 10 11  1  0
 10 12  2  0
 12 13  1  0
 13 14  1  0
 14 15  2  0
 15 16  1  0
 15 17  1  0
 17 18  2  0
 18 19  1  0
 19 20  2  0
 19 21  1  0
 21 22  1  0
 21 23  1  0
 21 24  1  0
 24 25  1  0
 25 26  2  0
 25 27  1  0
 27 28  2  0
 28 29  1  0
 28 30  1  0
 30 31  1  0
 30 32  2  0
 32 33  1  0
 33 34  1  0
 33 35  1  0
 33 36  1  0
 36 37  1  0
 32 38  1  0
 38 39  1  0
 38 40  2  0
 40 41  1  0
 17 42  1  0
 42 43  1  0
 43 44  1  0
 12  3  1  0
 43 13  2  0
 40 27  1  0
M  CHG  2  24  -1  42  -1
M  END
>  <UniqueID>  (2) 
2

>  <SMILES>  (2) 
O=C(C[N-]C(=O)c1ccc(CO)cc1)/N=c1\cnc(-c2ccccc2O)c[n-]1

>  <Energy>  (2) 
58.699736454600234

>  <Genealogy>  (2) 
O=C(C[N-]C(=O)c1ccc(CO)cc1)N=c1cnc(-c2ccccc2O)c[n-]1 (protonated)
O=C(C[N-]C(=O)c1ccc(CO)cc1)/N=c1\cnc(-c2ccccc2O)c[n-]1 (cis-trans isomerization)
O=C(C[N-]C(=O)c1ccc(CO)cc1)/N=c1\cnc(-c2ccccc2O)c[n-]1 (3D coordinates assigned)
O=C(C[N-]C(=O)c1ccc(CO)cc1)/N=c1\cnc(-c2ccccc2O)c[n-]1 (optimized conformer: 58.699736454600234 kcal/mol)

>  <smiles>  (2) 
O=C(CNC(=O)c1ccc(CO)cc1)N=c1cnc(-c2ccccc2O)c[nH]1

>  <score_type>  (2) 
oracle

>  <origin>  (2) 
adg

>  <m_score__min__energy>  (2) 
-11.949999999999999

>  <m_primary>  (2) 
energy

$$$$
2:0
     RDKit          3D

 59 62  0  0  0  0  0  0  0  0999 V2000
   56.8880   31.1140   42.3350 O   0  0  0  0  0  0  0  0  0  0  0  0
   56.6570   30.8280   43.5420 C   0  0  0  0  0  0  0  0  0  0  0  0
   55.6260   29.7780   43.8340 C   0  0  0  0  0  0  0  0  0  0  0  0
   56.0320   29.0120   45.0060 N   0  0  0  0  0  0  0  0  0  0  0  0
   57.1350   28.0990   45.0330 C   0  0  0  0  0  0  0  0  0  0  0  0
   58.1700   28.3740   44.3690 O   0  0  0  0  0  0  0  0  0  0  0  0
   57.0980   26.8570   45.8270 C   0  0  0  0  0  0  0  0  0  0  0  0
   58.1370   26.5530   46.7180 C   0  0  0  0  0  0  0  0  0  0  0  0
   58.0960   25.3760   47.4700 C   0  0  0  0  0  0  0  0  0  0  0  0
   57.0200   24.4880   47.3470 C   0  0  0  0  0  0  0  0  0  0  0  0
   57.0340   23.2860   48.1290 N   0  0  0  0  0  0  0  0  0  0  0  0
   56.6700   21.6900   47.5530 S   0  0  0  0  0  0  0  0  0  0  0  0
   57.5300   20.7150   48.3060 O   0  0  0  0  0  0  0  0  0  0  0  0
   55.2280   21.3580   47.8120 O   0  0  0  0  0  0  0  0  0  0  0  0
   57.0390   21.5530   45.8400 C   0  0  0  0  0  0  0  0  0  0  0  0
   56.1820   21.0580   44.8710 C   0  0  0  0  0  0  0  0  0  0  0  0
   56.7460   21.0610   43.5890 C   0  0  0  0  0  0  0  0  0  0  0  0
   58.0460   21.5510   43.5540 C   0  0  0  0  0  0  0  0  0  0  0  0
   58.4890   21.9940   45.1140 S   0  0  0  0  0  0  0  0  0  0  0  0
   55.9660   24.8050   46.4690 C   0  0  0  0  0  0  0  0  0  0  0  0
   56.0020   25.9880   45.7230 C   0  0  0  0  0  0  0  0  0  0  0  0
   57.3880   31.5490   44.6200 C   0  0  0  0  0  0  0  0  0  0  0  0
   57.0300   32.8700   44.9480 C   0  0  0  0  0  0  0  0  0  0  0  0
   57.7010   33.5600   45.9610 C   0  0  0  0  0  0  0  0  0  0  0  0
   58.7480   32.9520   46.6600 C   0  0  0  0  0  0  0  0  0  0  0  0
   59.6020   33.8320   47.9280 S   0  0  0  0  0  0  0  0  0  0  0  0
   59.4920   35.3090   47.6630 O   0  0  0  0  0  0  0  0  0  0  0  0
   58.9480   33.5480   49.2520 O   0  0  0  0  0  0  0  0  0  0  0  0
   61.2900   33.3820   48.0060 N   0  0  0  0  0  0  0  0  0  0  0  0
   62.0040   33.8530   46.8070 C   0  0  0  0  0  0  0  0  0  0  0  0
   63.4210   33.2460   46.7560 C   0  0  0  0  0  0  0  0  0  0  0  0
   63.9300   32.8230   48.1450 C   0  0  0  0  0  0  0  0  0  0  0  0
   63.4470   33.7940   49.2270 C   0  0  0  0  0  0  0  0  0  0  0  0
   61.9060   33.9220   49.2370 C   0  0  0  0  0  0  0  0  0  0  0  0
   59.1100   31.6370   46.3460 C   0  0  0  0  0  0  0  0  0  0  0  0
   58.4370   30.9380   45.3380 C   0  0  0  0  0  0  0  0  0  0  0  0
   54.6565   30.2599   44.0286 H   0  0  0  0  0  0  0  0  0  0  0  0
   55.5332   29.1043   42.9694 H   0  0  0  0  0  0  0  0  0  0  0  0
   58.9869   27.2430   46.8254 H   0  0  0  0  0  0  0  0  0  0  0  0
   58.9166   25.1447   48.1651 H   0  0  0  0  0  0  0  0  0  0  0  0
   55.1644   20.6998   45.0859 H   0  0  0  0  0  0  0  0  0  0  0  0
   56.2108   20.7090   42.6948 H   0  0  0  0  0  0  0  0  0  0  0  0
   58.6780   21.6348   42.6576 H   0  0  0  0  0  0  0  0  0  0  0  0
   55.1111   24.1200   46.3692 H   0  0  0  0  0  0  0  0  0  0  0  0
   55.1670   26.2377   45.0519 H   0  0  0  0  0  0  0  0  0  0  0  0
   56.2135   33.3644   44.4013 H   0  0  0  0  0  0  0  0  0  0  0  0
   57.4032   34.5892   46.2103 H   0  0  0  0  0  0  0  0  0  0  0  0
   61.4461   33.5485   45.9092 H   0  0  0  0  0  0  0  0  0  0  0  0
   62.0851   34.9493   46.8459 H   0  0  0  0  0  0  0  0  0  0  0  0
   63.4028   32.3615   46.1023 H   0  0  0  0  0  0  0  0  0  0  0  0
   64.1025   34.0188   46.3709 H   0  0  0  0  0  0  0  0  0  0  0  0
   63.5549   31.8145   48.3736 H   0  0  0  0  0  0  0  0  0  0  0  0
   65.0299   32.8320   48.1324 H   0  0  0  0  0  0  0  0  0  0  0  0
   63.7802   33.4272   50.2091 H   0  0  0  0  0  0  0  0  0  0  0  0
   63.8711   34.7856   49.0107 H   0  0  0  0  0  0  0  0  0  0  0  0
   61.5108   33.3694   50.1021 H   0  0  0  0  0  0  0  0  0  0  0  0
   61.6576   34.9920   49.2961 H   0  0  0  0  0  0  0  0  0  0  0  0
   59.9291   31.1498   46.8953 H   0  0  0  0  0  0  0  0  0  0  0  0
   58.7284   29.9035   45.1036 H   0  0  0  0  0  0  0  0  0  0  0  0
  1  2  2  0
  2  3  1  0
  3  4  1  0
  4  5  1  0
  5  6  2  0
  5  7  1  0
  7  8  2  0
  8  9  1  0
  9 10  2  0
 10 11  1  0
 11 12  1  0
 12 13  2  0
 12 14  2  0
 12 15  1  0
 15 16  2  0
 16 17  1  0
 17 18  2  0
 18 19  1  0
 10 20  1  0
 20 21  2  0
  2 22  1  0
 22 23  2  0
 23 24  1  0
 24 25  2  0
 25 26  1  0
 26 27  2  0
 26 28  2  0
 26 29  1  0
 29 30  1  0
 30 31  1  0
 31 32  1  0
 32 33  1  0
 33 34  1  0
 25 35  1  0
 35 36  2  0
 21  7  1  0
 36 22  1  0
 19 15  1  0
 34 29  1  0
  3 37  1  0
  3 38  1  0
  8 39  1  0
  9 40  1  0
 16 41  1  0
 17 42  1  0
 18 43  1  0
 20 44  1  0
 21 45  1  0
 23 46  1  0
 24 47  1  0
 30 48  1  0
 30 49  1  0
 31 50  1  0
 31 51  1  0
 32 52  1  0
 32 53  1  0
 33 54  1  0
 33 55  1  0
 34 56  1  0
 34 57  1  0
 35 58  1  0
 36 59  1  0
M  CHG  2   4  -1  11  -1
M  END
>  <UniqueID>  (3) 
3

>  <SMILES>  (3) 
O=C(C[N-]C(=O)c1ccc([N-]S(=O)(=O)c2cccs2)cc1)c1ccc(S(=O)(=O)N2CCCCC2)cc1

>  <Energy>  (3) 
99.28313385433552

>  <Genealogy>  (3) 
O=C(C[N-]C(=O)c1ccc([N-]S(=O)(=O)c2cccs2)cc1)c1ccc(S(=O)(=O)N2CCCCC2)cc1 (protonated)
O=C(C[N-]C(=O)c1ccc([N-]S(=O)(=O)c2cccs2)cc1)c1ccc(S(=O)(=O)N2CCCCC2)cc1 (3D coordinates assigned)
O=C(C[N-]C(=O)c1ccc([N-]S(=O)(=O)c2cccs2)cc1)c1ccc(S(=O)(=O)N2CCCCC2)cc1 (nonaromatic ring conformer: 99.28313385433552 kcal/mol)

>  <smiles>  (3) 
O=C(CNC(=O)c1ccc(NS(=O)(=O)c2cccs2)cc1)c1ccc(S(=O)(=O)N2CCCCC2)cc1

>  <score_type>  (3) 
oracle

>  <origin>  (3) 
adg

>  <m_score__min__energy>  (3) 
-14.25

>  <m_primary>  (3) 
energy

$$$$
3:0
     RDKit          3D

 53 56  0  0  0  0  0  0  0  0999 V2000
   58.1290   30.7890   43.5420 O   0  0  0  0  0  0  0  0  0  0  0  0
   57.4650   30.7130   44.6100 C   0  0  0  0  0  0  0  0  0  0  0  0
   56.8250   31.8880   45.1250 N   0  0  0  0  0  0  0  0  0  0  0  0
   57.3180   33.2560   44.9620 C   0  0  0  0  0  0  0  0  0  0  0  0
   58.4140   33.5680   45.9510 C   0  0  0  0  0  0  0  0  0  0  0  0
   58.1660   33.5030   47.3330 C   0  0  0  0  0  0  0  0  0  0  0  0
   59.1800   33.8120   48.2450 C   0  0  0  0  0  0  0  0  0  0  0  0
   60.4490   34.1780   47.7870 C   0  0  0  0  0  0  0  0  0  0  0  0
   61.4300   34.4790   48.6720 F   0  0  0  0  0  0  0  0  0  0  0  0
   60.7080   34.2290   46.4150 C   0  0  0  0  0  0  0  0  0  0  0  0
   59.6970   33.9250   45.5000 C   0  0  0  0  0  0  0  0  0  0  0  0
   57.4180   29.4280   45.3240 C   0  0  0  0  0  0  0  0  0  0  0  0
   58.5110   29.0310   46.0290 N   0  0  0  0  0  0  0  0  0  0  0  0
   58.5380   27.8700   46.7420 C   0  0  0  0  0  0  0  0  0  0  0  0
   59.7700   27.5080   47.4770 C   0  0  0  0  0  0  0  0  0  0  0  0
   60.1390   26.2960   47.4860 O   0  0  0  0  0  0  0  0  0  0  0  0
   60.5210   28.4830   48.2280 N   0  0  0  0  0  0  0  0  0  0  0  0
   60.8330   29.8070   47.6690 C   0  0  0  0  0  0  0  0  0  0  0  0
   60.5290   30.9210   48.6940 C   0  0  0  0  0  0  0  0  0  0  0  0
   60.3220   30.3490   50.0330 N   0  0  0  0  0  0  0  0  0  0  0  0
   59.0720   30.5670   50.7240 C   0  0  0  0  0  0  0  0  0  0  0  0
   58.3750   31.7830   50.5910 C   0  0  0  0  0  0  0  0  0  0  0  0
   57.1960   32.0050   51.3070 C   0  0  0  0  0  0  0  0  0  0  0  0
   56.6990   31.0190   52.1640 C   0  0  0  0  0  0  0  0  0  0  0  0
   57.3830   29.8080   52.3090 C   0  0  0  0  0  0  0  0  0  0  0  0
   56.7670   28.5770   53.3990 Cl  0  0  0  0  0  0  0  0  0  0  0  0
   58.5630   29.5830   51.5900 C   0  0  0  0  0  0  0  0  0  0  0  0
   61.2550   29.2970   50.4520 C   0  0  0  0  0  0  0  0  0  0  0  0
   61.1470   28.0920   49.5000 C   0  0  0  0  0  0  0  0  0  0  0  0
   57.4200   27.0200   46.7110 C   0  0  0  0  0  0  0  0  0  0  0  0
   56.2830   27.4020   45.9950 C   0  0  0  0  0  0  0  0  0  0  0  0
   55.1710   26.5710   45.9670 O   0  0  0  0  0  0  0  0  0  0  0  0
   56.2740   28.6150   45.2950 C   0  0  0  0  0  0  0  0  0  0  0  0
   55.1480   28.9930   44.5720 O   0  0  0  0  0  0  0  0  0  0  0  0
   57.7119   33.3752   43.9419 H   0  0  0  0  0  0  0  0  0  0  0  0
   56.4825   33.9486   45.1414 H   0  0  0  0  0  0  0  0  0  0  0  0
   57.1712   33.2081   47.6983 H   0  0  0  0  0  0  0  0  0  0  0  0
   58.9786   33.7670   49.3255 H   0  0  0  0  0  0  0  0  0  0  0  0
   61.7090   34.5088   46.0549 H   0  0  0  0  0  0  0  0  0  0  0  0
   59.9059   33.9652   44.4208 H   0  0  0  0  0  0  0  0  0  0  0  0
   61.8996   29.8436   47.4025 H   0  0  0  0  0  0  0  0  0  0  0  0
   60.2095   29.9689   46.7774 H   0  0  0  0  0  0  0  0  0  0  0  0
   61.3756   31.6226   48.7274 H   0  0  0  0  0  0  0  0  0  0  0  0
   59.6124   31.4457   48.3866 H   0  0  0  0  0  0  0  0  0  0  0  0
   58.7612   32.5635   49.9189 H   0  0  0  0  0  0  0  0  0  0  0  0
   56.6577   32.9578   51.1960 H   0  0  0  0  0  0  0  0  0  0  0  0
   55.7693   31.1957   52.7247 H   0  0  0  0  0  0  0  0  0  0  0  0
   59.0968   28.6279   51.7035 H   0  0  0  0  0  0  0  0  0  0  0  0
   62.2822   29.6898   50.4283 H   0  0  0  0  0  0  0  0  0  0  0  0
   61.0036   28.9755   51.4735 H   0  0  0  0  0  0  0  0  0  0  0  0
   62.1550   27.6996   49.2998 H   0  0  0  0  0  0  0  0  0  0  0  0
   60.5229   27.3219   49.9769 H   0  0  0  0  0  0  0  0  0  0  0  0
   57.4398   26.0597   47.2471 H   0  0  0  0  0  0  0  0  0  0  0  0
  1  2  2  0
  2  3  1  0
  3  4  1  0
  4  5  1  0
  5  6  2  0
  6  7  1  0
  7  8  2  0
  8  9  1  0
  8 10  1  0
 10 11  2  0
  2 12  1  0
 12 13  2  0
 13 14  1  0
 14 15  1  0
 15 16  2  0
 15 17  1  0
 17 18  1  0
 18 19  1  0
 19 20  1  0
 20 21  1  0
 21 22  2  0
 22 23  1  0
 23 24  2  0
 24 25  1  0
 25 26  1  0
 25 27  2  0
 20 28  1  0
 28 29  1  0
 14 30  2  0
 30 31  1  0
 31 32  1  0
 31 33  2  0
 33 34  1  0
 11  5  1  0
 33 12  1  0
 29 17  1  0
 27 21  1  0
  4 35  1  0
  4 36  1  0
  6 37  1  0
  7 38  1  0
 10 39  1  0
 11 40  1  0
 18 41  1  0
 18 42  1  0
 19 43  1  0
 19 44  1  0
 22 45  1  0
 23 46  1  0
 24 47  1  0
 27 48  1  0
 28 49  1  0
 28 50  1  0
 29 51  1  0
 29 52  1  0
 30 53  1  0
M  CHG  3   3  -1  32  -1  34  -1
M  END
>  <UniqueID>  (4) 
4

>  <SMILES>  (4) 
O=C([N-]Cc1ccc(F)cc1)c1nc(C(=O)N2CCN(c3cccc(Cl)c3)CC2)cc([O-])c1[O-]

>  <Energy>  (4) 
72.05086981860738

>  <Genealogy>  (4) 
O=C([N-]Cc1ccc(F)cc1)c1nc(C(=O)N2CCN(c3cccc(Cl)c3)CC2)cc([O-])c1[O-] (protonated)
O=C([N-]Cc1ccc(F)cc1)c1nc(C(=O)N2CCN(c3cccc(Cl)c3)CC2)cc([O-])c1[O-] (3D coordinates assigned)
O=C([N-]Cc1ccc(F)cc1)c1nc(C(=O)N2CCN(c3cccc(Cl)c3)CC2)cc([O-])c1[O-] (nonaromatic ring conformer: 72.05086981860738 kcal/mol)

>  <smiles>  (4) 
O=C(NCc1ccc(F)cc1)c1nc(C(=O)N2CCN(c3cccc(Cl)c3)CC2)cc(O)c1O

>  <score_type>  (4) 
oracle

>  <origin>  (4) 
adg

>  <m_score__min__energy>  (4) 
-16.579999999999998

>  <m_primary>  (4) 
energy

$$$$
4:0
     RDKit          3D

 66 70  0  0  0  0  0  0  0  0999 V2000
   51.0420   32.1910   52.4430 C   0  0  0  0  0  0  0  0  0  0  0  0
   52.3830   31.5930   52.5650 N   0  0  0  0  0  0  0  0  0  0  0  0
   52.3400   30.4370   53.4820 C   0  0  0  0  0  0  0  0  0  0  0  0
   53.7340   29.7870   53.6300 C   0  0  0  0  0  0  0  0  0  0  0  0
   54.7150   30.4100   52.7250 N   0  0  0  0  0  0  0  0  0  0  0  0
   56.0890   29.8640   52.8770 C   0  0  0  0  0  0  0  0  0  0  0  0
   57.2120   30.8610   52.5860 C   0  0  0  0  0  0  0  0  0  0  0  0
   56.8460   32.1760   52.2350 C   0  0  0  0  0  0  0  0  0  0  0  0
   57.8020   33.1140   51.8590 C   0  0  0  0  0  0  0  0  0  0  0  0
   59.1520   32.7720   51.8390 C   0  0  0  0  0  0  0  0  0  0  0  0
   60.1050   33.7590   51.4210 N   0  0  0  0  0  0  0  0  0  0  0  0
   60.7730   33.8100   50.1520 C   0  0  0  0  0  0  0  0  0  0  0  0
   61.9100   34.3470   50.1020 O   0  0  0  0  0  0  0  0  0  0  0  0
   60.1510   33.2920   48.9040 C   0  0  0  0  0  0  0  0  0  0  0  0
   58.7590   33.1070   48.8190 C   0  0  0  0  0  0  0  0  0  0  0  0
   58.1760   32.6260   47.6420 C   0  0  0  0  0  0  0  0  0  0  0  0
   58.9690   32.3570   46.5190 C   0  0  0  0  0  0  0  0  0  0  0  0
   58.3420   31.9290   45.2520 C   0  0  0  0  0  0  0  0  0  0  0  0
   58.3700   32.7920   44.1490 C   0  0  0  0  0  0  0  0  0  0  0  0
   57.7470   32.4280   42.9570 C   0  0  0  0  0  0  0  0  0  0  0  0
   57.1000   31.1970   42.8740 C   0  0  0  0  0  0  0  0  0  0  0  0
   57.0870   30.3640   43.9450 N   0  0  0  0  0  0  0  0  0  0  0  0
   57.6830   30.6850   45.1290 C   0  0  0  0  0  0  0  0  0  0  0  0
   57.6740   29.8470   46.1290 N   0  0  0  0  0  0  0  0  0  0  0  0
   58.1260   28.4800   46.0980 C   0  0  0  0  0  0  0  0  0  0  0  0
   59.3530   28.2050   45.9980 O   0  0  0  0  0  0  0  0  0  0  0  0
   57.1460   27.3920   46.1720 C   0  0  0  0  0  0  0  0  0  0  0  0
   57.3150   26.1900   46.8260 C   0  0  0  0  0  0  0  0  0  0  0  0
   56.1840   25.4700   46.7170 N   0  0  0  0  0  0  0  0  0  0  0  0
   55.3670   26.2710   46.0040 C   0  0  0  0  0  0  0  0  0  0  0  0
   54.1930   25.9430   45.6990 O   0  0  0  0  0  0  0  0  0  0  0  0
   55.9090   27.4560   45.6540 N   0  0  0  0  0  0  0  0  0  0  0  0
   60.3540   32.5580   46.5880 C   0  0  0  0  0  0  0  0  0  0  0  0
   60.9430   33.0130   47.7700 C   0  0  0  0  0  0  0  0  0  0  0  0
   62.2910   33.1730   47.8040 F   0  0  0  0  0  0  0  0  0  0  0  0
   59.5500   31.5080   52.2920 C   0  0  0  0  0  0  0  0  0  0  0  0
   58.6020   30.5440   52.6990 C   0  0  0  0  0  0  0  0  0  0  0  0
   59.0970   29.2520   53.3330 C   0  0  0  0  0  0  0  0  0  0  0  0
   58.4510   28.1720   52.7590 F   0  0  0  0  0  0  0  0  0  0  0  0
   58.8440   29.2130   54.6950 F   0  0  0  0  0  0  0  0  0  0  0  0
   60.4590   29.1210   53.1560 F   0  0  0  0  0  0  0  0  0  0  0  0
   54.2220   30.4390   51.3330 C   0  0  0  0  0  0  0  0  0  0  0  0
   52.8680   31.1720   51.2370 C   0  0  0  0  0  0  0  0  0  0  0  0
   50.6298   32.3748   53.4462 H   0  0  0  0  0  0  0  0  0  0  0  0
   51.1133   33.1426   51.8959 H   0  0  0  0  0  0  0  0  0  0  0  0
   50.3817   31.5021   51.8959 H   0  0  0  0  0  0  0  0  0  0  0  0
   51.9957   30.7759   54.4702 H   0  0  0  0  0  0  0  0  0  0  0  0
   51.6498   29.6885   53.0657 H   0  0  0  0  0  0  0  0  0  0  0  0
   54.0771   29.9080   54.6681 H   0  0  0  0  0  0  0  0  0  0  0  0
   53.6493   28.7217   53.3692 H   0  0  0  0  0  0  0  0  0  0  0  0
   56.2044   29.5115   53.9126 H   0  0  0  0  0  0  0  0  0  0  0  0
   56.1871   29.0612   52.1314 H   0  0  0  0  0  0  0  0  0  0  0  0
   55.7851   32.4659   52.2588 H   0  0  0  0  0  0  0  0  0  0  0  0
   57.4904   34.1303   51.5762 H   0  0  0  0  0  0  0  0  0  0  0  0
   58.1236   33.3426   49.6855 H   0  0  0  0  0  0  0  0  0  0  0  0
   57.0898   32.4582   47.5980 H   0  0  0  0  0  0  0  0  0  0  0  0
   58.8857   33.7607   44.2241 H   0  0  0  0  0  0  0  0  0  0  0  0
   57.7658   33.1055   42.0906 H   0  0  0  0  0  0  0  0  0  0  0  0
   56.5997   30.9004   41.9403 H   0  0  0  0  0  0  0  0  0  0  0  0
   58.2271   25.8714   47.3518 H   0  0  0  0  0  0  0  0  0  0  0  0
   60.9807   32.3564   45.7067 H   0  0  0  0  0  0  0  0  0  0  0  0
   60.6213   31.2616   52.3315 H   0  0  0  0  0  0  0  0  0  0  0  0
   54.9576   30.9597   50.7024 H   0  0  0  0  0  0  0  0  0  0  0  0
   54.0828   29.4029   50.9907 H   0  0  0  0  0  0  0  0  0  0  0  0
   52.9883   32.0622   50.6022 H   0  0  0  0  0  0  0  0  0  0  0  0
   52.1312   30.4785   50.8056 H   0  0  0  0  0  0  0  0  0  0  0  0
  1  2  1  0
  2  3  1  0
  3  4  1  0
  4  5  1  0
  5  6  1  0
  6  7  1  0
  7  8  2  0
  8  9  1  0
  9 10  2  0
 10 11  1  0
 11 12  1  0
 12 13  2  0
 12 14  1  0
 14 15  2  0
 15 16  1  0
 16 17  2  0
 17 18  1  0
 18 19  2  0
 19 20  1  0
 20 21  2  0
 21 22  1  0
 22 23  1  0
 23 24  2  3
 24 25  1  0
 25 26  2  0
 25 27  1  0
 27 28  2  0
 28 29  1  0
 29 30  1  0
 30 31  2  0
 30 32  1  0
 17 33  1  0
 33 34  2  0
 34 35  1  0
 10 36  1  0
 36 37  2  0
 37 38  1  0
 38 39  1  0
 38 40  1  0
 38 41  1  0
  5 42  1  0
 42 43  1  0
 43  2  1  0
 37  7  1  0
 34 14  1  0
 23 18  1  0
 32 27  1  0
  1 44  1  0
  1 45  1  0
  1 46  1  0
  3 47  1  0
  3 48  1  0
  4 49  1  0
  4 50  1  0
  6 51  1  0
  6 52  1  0
  8 53  1  0
  9 54  1  0
 15 55  1  0
 16 56  1  0
 19 57  1  0
 20 58  1  0
 21 59  1  0
 28 60  1  0
 33 61  1  0
 36 62  1  0
 42 63  1  0
 42 64  1  0
 43 65  1  0
 43 66  1  0
M  CHG  4  11  -1  22  -1  29  -1  32  -1
M  END
>  <UniqueID>  (5) 
5

>  <SMILES>  (5) 
CN1CCN(Cc2ccc([N-]C(=O)c3ccc(-c4ccc[n-]c4=NC(=O)c4c[n-]c(=O)[n-]4)cc3F)cc2C(F)(F)F)CC1

>  <Energy>  (5) 
134.36581858023325

>  <Genealogy>  (5) 
CN1CCN(Cc2ccc([N-]C(=O)c3ccc(-c4ccc[n-]c4=NC(=O)c4c[n-]c(=O)[n-]4)cc3F)cc2C(F)(F)F)CC1 (protonated)
CN1CCN(Cc2ccc([N-]C(=O)c3ccc(-c4ccc[n-]c4=NC(=O)c4c[n-]c(=O)[n-]4)cc3F)cc2C(F)(F)F)CC1 (3D coordinates assigned)
CN1CCN(Cc2ccc([N-]C(=O)c3ccc(-c4ccc[n-]c4=NC(=O)c4c[n-]c(=O)[n-]4)cc3F)cc2C(F)(F)F)CC1 (nonaromatic ring conformer: 134.36581858023325 kcal/mol)

>  <smiles>  (5) 
CN1CCN(Cc2ccc(NC(=O)c3ccc(-c4ccc[nH]c4=NC(=O)c4c[nH]c(=O)[nH]4)cc3F)cc2C(F)(F)F)CC1

>  <score_type>  (5) 
oracle

>  <origin>  (5) 
adg

>  <m_score__min__energy>  (5) 
-17.09

>  <m_primary>  (5) 
energy

$$$$
5:0
     RDKit          3D

 55 57  0  0  0  0  0  0  0  0999 V2000
   58.8875   33.6709   44.4509 H   0  0  0  0  0  0  0  0  0  0  0  0
   58.7810   32.8300   45.1520 C   0  0  0  0  0  0  0  0  0  0  0  0
   59.2800   32.9820   46.3960 C   0  0  0  0  0  0  0  0  0  0  0  0
   60.7230   32.8300   46.6870 C   0  0  0  0  0  0  0  0  0  0  0  0
   61.2040   31.6520   47.2820 C   0  0  0  0  0  0  0  0  0  0  0  0
   60.5090   30.8319   47.5151 H   0  0  0  0  0  0  0  0  0  0  0  0
   62.5650   31.5190   47.5790 C   0  0  0  0  0  0  0  0  0  0  0  0
   62.9404   30.5908   48.0345 H   0  0  0  0  0  0  0  0  0  0  0  0
   63.4470   32.5650   47.2970 C   0  0  0  0  0  0  0  0  0  0  0  0
   64.5170   32.4587   47.5288 H   0  0  0  0  0  0  0  0  0  0  0  0
   62.9720   33.7460   46.7210 C   0  0  0  0  0  0  0  0  0  0  0  0
   63.6668   34.5718   46.5084 H   0  0  0  0  0  0  0  0  0  0  0  0
   61.6160   33.8790   46.4150 C   0  0  0  0  0  0  0  0  0  0  0  0
   61.2459   34.8092   45.9591 H   0  0  0  0  0  0  0  0  0  0  0  0
   58.3930   33.5250   47.4840 C   0  0  0  0  0  0  0  0  0  0  0  0
   57.4160   33.7978   47.0585 H   0  0  0  0  0  0  0  0  0  0  0  0
   58.8614   34.4157   47.9282 H   0  0  0  0  0  0  0  0  0  0  0  0
   58.2020   32.4760   48.5470 C   0  0  0  0  0  0  0  0  0  0  0  0
   57.6097   31.5793   48.3121 H   0  0  0  0  0  0  0  0  0  0  0  0
   58.7330   32.6030   49.7720 C   0  0  0  0  0  0  0  0  0  0  0  0
   59.7811   32.9194   49.8789 H   0  0  0  0  0  0  0  0  0  0  0  0
   57.9160   32.3190   51.0000 C   0  0  0  0  0  0  0  0  0  0  0  0
   56.9688   32.8751   50.9401 H   0  0  0  0  0  0  0  0  0  0  0  0
   58.4877   32.6333   51.8857 H   0  0  0  0  0  0  0  0  0  0  0  0
   57.6130   30.8180   51.1150 C   0  0  0  0  0  0  0  0  0  0  0  0
   58.4825   30.3169   51.5654 H   0  0  0  0  0  0  0  0  0  0  0  0
   57.4066   30.4420   50.1021 H   0  0  0  0  0  0  0  0  0  0  0  0
   56.3990   30.5330   51.9630 C   0  0  0  0  0  0  0  0  0  0  0  0
   55.6530   31.4790   52.3340 O   0  0  0  0  0  0  0  0  0  0  0  0
   56.0830   29.2010   52.3970 N   0  0  0  0  0  0  0  0  0  0  0  0
   54.7620   28.7260   52.8100 C   0  0  0  0  0  0  0  0  0  0  0  0
   54.5710   27.7442   52.3522 H   0  0  0  0  0  0  0  0  0  0  0  0
   54.7405   28.6439   53.9067 H   0  0  0  0  0  0  0  0  0  0  0  0
   53.6930   29.6930   52.3730 C   0  0  0  0  0  0  0  0  0  0  0  0
   53.4770   29.9620   51.0130 C   0  0  0  0  0  0  0  0  0  0  0  0
   54.1094   29.4824   50.2514 H   0  0  0  0  0  0  0  0  0  0  0  0
   52.4600   30.8380   50.6240 C   0  0  0  0  0  0  0  0  0  0  0  0
   52.2924   31.0418   49.5561 H   0  0  0  0  0  0  0  0  0  0  0  0
   51.6540   31.4570   51.5850 C   0  0  0  0  0  0  0  0  0  0  0  0
   50.6450   32.3270   51.1840 O   0  0  0  0  0  0  0  0  0  0  0  0
   51.8660   31.1990   52.9460 C   0  0  0  0  0  0  0  0  0  0  0  0
   50.8620   31.9660   54.1710 Cl  0  0  0  0  0  0  0  0  0  0  0  0
   52.8820   30.3170   53.3370 C   0  0  0  0  0  0  0  0  0  0  0  0
   53.0461   30.1115   54.4051 H   0  0  0  0  0  0  0  0  0  0  0  0
   58.1000   31.6090   44.6660 C   0  0  0  0  0  0  0  0  0  0  0  0
   58.0920   30.4200   45.4240 C   0  0  0  0  0  0  0  0  0  0  0  0
   58.6064   30.3857   46.3957 H   0  0  0  0  0  0  0  0  0  0  0  0
   57.4320   29.2840   44.9440 C   0  0  0  0  0  0  0  0  0  0  0  0
   57.4421   28.3538   45.5311 H   0  0  0  0  0  0  0  0  0  0  0  0
   56.7600   29.3290   43.7200 C   0  0  0  0  0  0  0  0  0  0  0  0
   56.2456   28.4332   43.3419 H   0  0  0  0  0  0  0  0  0  0  0  0
   56.7410   30.5130   42.9750 C   0  0  0  0  0  0  0  0  0  0  0  0
   56.2069   30.5484   42.0140 H   0  0  0  0  0  0  0  0  0  0  0  0
   57.4000   31.6520   43.4500 C   0  0  0  0  0  0  0  0  0  0  0  0
   57.3695   32.5851   42.8682 H   0  0  0  0  0  0  0  0  0  0  0  0
  1  2  1  0
  2  3  2  3
  3  4  1  0
  4  5  2  0
  5  6  1  0
  5  7  1  0
  7  8  1  0
  7  9  2  0
  9 10  1  0
  9 11  1  0
 11 12  1  0
 11 13  2  0
 13 14  1  0
  3 15  1  0
 15 16  1  0
 15 17  1  0
 15 18  1  0
 18 19  1  0
 18 20  2  0
 20 21  1  0
 20 22  1  0
 22 23  1  0
 22 24  1  0
 22 25  1  0
 25 26  1  0
 25 27  1  0
 25 28  1  0
 28 29  2  0
 28 30  1  0
 30 31  1  0
 31 32  1  0
 31 33  1  0
 31 34  1  0
 34 35  2  0
 35 36  1  0
 35 37  1  0
 37 38  1  0
 37 39  2  0
 39 40  1  0
 39 41  1  0
 41 42  1  0
 41 43  2  0
 43 44  1  0
  2 45  1  0
 45 46  2  0
 46 47  1  0
 46 48  1  0
 48 49  1  0
 48 50  2  0
 50 51  1  0
 50 52  1  0
 52 53  1  0
 52 54  2  0
 54 55  1  0
 13  4  1  0
 43 34  1  0
 54 45  1  0
M  CHG  2  30  -1  40  -1
M  END
>  <UniqueID>  (6) 
6

>  <SMILES>  (6) 
O=C(CC/C=C/CC(=Cc1ccccc1)c1ccccc1)[N-]Cc1ccc([O-])c(Cl)c1

>  <Energy>  (6) 
59.00275237615513

>  <Genealogy>  (6) 
O=C(CCC=CCC(=Cc1ccccc1)c1ccccc1)[N-]Cc1ccc([O-])c(Cl)c1 (protonated)
O=C(CC/C=C/CC(=Cc1ccccc1)c1ccccc1)[N-]Cc1ccc([O-])c(Cl)c1 (cis-trans isomerization)
O=C(CC/C=C/CC(=Cc1ccccc1)c1ccccc1)[N-]Cc1ccc([O-])c(Cl)c1 (3D coordinates assigned)
O=C(CC/C=C/CC(=Cc1ccccc1)c1ccccc1)[N-]Cc1ccc([O-])c(Cl)c1 (optimized conformer: 59.00275237615513 kcal/mol)

>  <smiles>  (6) 
O=C(CCC=CCC(=Cc1ccccc1)c1ccccc1)NCc1ccc(O)c(Cl)c1

>  <score_type>  (6) 
oracle

>  <origin>  (6) 
adg

>  <m_score__min__energy>  (6) 
-15.33

>  <m_primary>  (6) 
energy

$$$$
6:0
     RDKit          3D

 50 53  0  0  0  0  0  0  0  0999 V2000
   59.4470   26.0530   47.5440 O   0  0  0  0  0  0  0  0  0  0  0  0
   59.3270   27.3030   47.6370 C   0  0  0  0  0  0  0  0  0  0  0  0
   60.1750   28.0100   48.5540 N   0  0  0  0  0  0  0  0  0  0  0  0
   59.8440   29.2130   49.2620 C   0  0  0  0  0  0  0  0  0  0  0  0
   58.6040   29.3730   49.9050 C   0  0  0  0  0  0  0  0  0  0  0  0
   58.3050   30.5670   50.5640 C   0  0  0  0  0  0  0  0  0  0  0  0
   59.2430   31.6000   50.6060 C   0  0  0  0  0  0  0  0  0  0  0  0
   60.5040   31.4400   50.0080 C   0  0  0  0  0  0  0  0  0  0  0  0
   61.5030   32.5330   50.0460 C   0  0  0  0  0  0  0  0  0  0  0  0
   61.9620   32.9120   51.1580 O   0  0  0  0  0  0  0  0  0  0  0  0
   61.9850   33.1490   48.8400 N   0  0  0  0  0  0  0  0  0  0  0  0
   63.4010   33.5170   48.7460 C   0  0  0  0  0  0  0  0  0  0  0  0
   63.7230   34.0420   47.3460 C   0  0  0  0  0  0  0  0  0  0  0  0
   63.0170   33.2820   46.3880 O   0  0  0  0  0  0  0  0  0  0  0  0
   61.6390   33.6150   46.4190 C   0  0  0  0  0  0  0  0  0  0  0  0
   61.0400   33.6720   47.8440 C   0  0  0  0  0  0  0  0  0  0  0  0
   60.7930   30.2390   49.3350 C   0  0  0  0  0  0  0  0  0  0  0  0
   58.3500   28.0070   46.7680 C   0  0  0  0  0  0  0  0  0  0  0  0
   57.1710   27.3690   46.3570 C   0  0  0  0  0  0  0  0  0  0  0  0
   56.9050   26.0560   46.7370 O   0  0  0  0  0  0  0  0  0  0  0  0
   56.2700   28.0390   45.5980 N   0  0  0  0  0  0  0  0  0  0  0  0
   56.4710   29.3280   45.2260 C   0  0  0  0  0  0  0  0  0  0  0  0
   55.5840   29.9130   44.5460 O   0  0  0  0  0  0  0  0  0  0  0  0
   57.6140   29.9840   45.5980 N   0  0  0  0  0  0  0  0  0  0  0  0
   57.8090   31.3660   45.2340 C   0  0  0  0  0  0  0  0  0  0  0  0
   57.8430   32.3590   46.2280 C   0  0  0  0  0  0  0  0  0  0  0  0
   58.0340   33.6990   45.8790 C   0  0  0  0  0  0  0  0  0  0  0  0
   58.1930   34.0570   44.5360 C   0  0  0  0  0  0  0  0  0  0  0  0
   58.1600   33.0740   43.5430 C   0  0  0  0  0  0  0  0  0  0  0  0
   57.9700   31.7330   43.8880 C   0  0  0  0  0  0  0  0  0  0  0  0
   58.5670   29.3310   46.3380 C   0  0  0  0  0  0  0  0  0  0  0  0
   59.6550   29.9090   46.6160 O   0  0  0  0  0  0  0  0  0  0  0  0
   57.8679   28.5558   49.8888 H   0  0  0  0  0  0  0  0  0  0  0  0
   57.3272   30.6941   51.0516 H   0  0  0  0  0  0  0  0  0  0  0  0
   58.9932   32.5451   51.1104 H   0  0  0  0  0  0  0  0  0  0  0  0
   63.6221   34.2998   49.4865 H   0  0  0  0  0  0  0  0  0  0  0  0
   64.0153   32.6261   48.9433 H   0  0  0  0  0  0  0  0  0  0  0  0
   63.4225   35.0975   47.2714 H   0  0  0  0  0  0  0  0  0  0  0  0
   64.8038   33.9562   47.1602 H   0  0  0  0  0  0  0  0  0  0  0  0
   61.5104   34.6014   45.9495 H   0  0  0  0  0  0  0  0  0  0  0  0
   61.1057   32.8181   45.8800 H   0  0  0  0  0  0  0  0  0  0  0  0
   60.8006   34.7169   48.0908 H   0  0  0  0  0  0  0  0  0  0  0  0
   60.1328   33.0503   47.8651 H   0  0  0  0  0  0  0  0  0  0  0  0
   61.7763   30.1047   48.8606 H   0  0  0  0  0  0  0  0  0  0  0  0
   57.6190   25.4850   47.1740 H   0  0  0  0  0  0  0  0  0  0  0  0
   57.7188   32.0806   47.2849 H   0  0  0  0  0  0  0  0  0  0  0  0
   58.0593   34.4724   46.6608 H   0  0  0  0  0  0  0  0  0  0  0  0
   58.3439   35.1115   44.2617 H   0  0  0  0  0  0  0  0  0  0  0  0
   58.2839   33.3565   42.4871 H   0  0  0  0  0  0  0  0  0  0  0  0
   57.9465   30.9628   43.1030 H   0  0  0  0  0  0  0  0  0  0  0  0
  1  2  2  0
  2  3  1  0
  3  4  1  0
  4  5  2  0
  5  6  1  0
  6  7  2  0
  7  8  1  0
  8  9  1  0
  9 10  2  0
  9 11  1  0
 11 12  1  0
 12 13  1  0
 13 14  1  0
 14 15  1  0
 15 16  1  0
  8 17  2  0
  2 18  1  0
 18 19  2  0
 19 20  1  0
 19 21  1  0
 21 22  1  0
 22 23  2  0
 22 24  1  0
 24 25  1  0
 25 26  2  0
 26 27  1  0
 27 28  2  0
 28 29  1  0
 29 30  2  0
 24 31  1  0
 31 32  2  0
 17  4  1  0
 31 18  1  0
 16 11  1  0
 30 25  1  0
  5 33  1  0
  6 34  1  0
  7 35  1  0
 12 36  1  0
 12 37  1  0
 13 38  1  0
 13 39  1  0
 15 40  1  0
 15 41  1  0
 16 42  1  0
 16 43  1  0
 17 44  1  0
 20 45  1  0
 26 46  1  0
 27 47  1  0
 28 48  1  0
 29 49  1  0
 30 50  1  0
M  CHG  2   3  -1  21  -1
M  END
>  <UniqueID>  (7) 
7

>  <SMILES>  (7) 
O=C([N-]c1cccc(C(=O)N2CCOCC2)c1)c1c(O)[n-]c(=O)n(-c2ccccc2)c1=O

>  <Energy>  (7) 
83.79676062250913

>  <Genealogy>  (7) 
O=C([N-]c1cccc(C(=O)N2CCOCC2)c1)c1c(O)[n-]c(=O)n(-c2ccccc2)c1=O (protonated)
O=C([N-]c1cccc(C(=O)N2CCOCC2)c1)c1c(O)[n-]c(=O)n(-c2ccccc2)c1=O (3D coordinates assigned)
O=C([N-]c1cccc(C(=O)N2CCOCC2)c1)c1c(O)[n-]c(=O)n(-c2ccccc2)c1=O (nonaromatic ring conformer: 83.79676062250913 kcal/mol)

>  <smiles>  (7) 
O=C(Nc1cccc(C(=O)N2CCOCC2)c1)c1c(O)[nH]c(=O)n(-c2ccccc2)c1=O

>  <score_type>  (7) 
oracle

>  <origin>  (7) 
adg

>  <m_score__min__energy>  (7) 
-11.59

>  <m_primary>  (7) 
energy

$$$$
7:0
     RDKit          3D

 49 51  0  0  0  0  0  0  0  0999 V2000
   59.1350   27.9400   47.0310 C   0  0  0  0  0  0  0  0  0  0  0  0
   59.6320   27.3240   45.9540 C   0  0  0  0  0  0  0  0  0  0  0  0
   59.8190   25.8550   46.0100 C   0  0  0  0  0  0  0  0  0  0  0  0
   58.8820   24.9750   46.3820 C   0  0  0  0  0  0  0  0  0  0  0  0
   58.1560   24.0890   45.4550 C   0  0  0  0  0  0  0  0  0  0  0  0
   56.8460   24.4330   45.0880 C   0  0  0  0  0  0  0  0  0  0  0  0
   56.1000   23.5930   44.2580 C   0  0  0  0  0  0  0  0  0  0  0  0
   56.6470   22.3890   43.8070 C   0  0  0  0  0  0  0  0  0  0  0  0
   55.9030   21.5550   42.9820 O   0  0  0  0  0  0  0  0  0  0  0  0
   57.9380   22.0220   44.1920 C   0  0  0  0  0  0  0  0  0  0  0  0
   58.6980   22.8560   45.0200 C   0  0  0  0  0  0  0  0  0  0  0  0
   59.9700   22.4260   45.4010 O   0  0  0  0  0  0  0  0  0  0  0  0
   59.7220   28.0640   44.6340 C   0  0  0  0  0  0  0  0  0  0  0  0
   58.6270   29.0830   44.4020 C   0  0  0  0  0  0  0  0  0  0  0  0
   57.3830   28.6470   43.9180 C   0  0  0  0  0  0  0  0  0  0  0  0
   56.3160   29.5380   43.7960 C   0  0  0  0  0  0  0  0  0  0  0  0
   56.4720   30.8740   44.1670 C   0  0  0  0  0  0  0  0  0  0  0  0
   57.7060   31.3410   44.6520 C   0  0  0  0  0  0  0  0  0  0  0  0
   57.8760   32.7570   45.0700 C   0  0  0  0  0  0  0  0  0  0  0  0
   57.0200   33.6110   44.7100 O   0  0  0  0  0  0  0  0  0  0  0  0
   58.9950   33.1830   45.8710 N   0  0  0  0  0  0  0  0  0  0  0  0
   59.3860   32.4580   47.0840 C   0  0  0  0  0  0  0  0  0  0  0  0
   59.2730   33.4030   48.2860 C   0  0  0  0  0  0  0  0  0  0  0  0
   60.0150   34.5900   48.0630 O   0  0  0  0  0  0  0  0  0  0  0  0
   59.4700   35.3090   46.9680 C   0  0  0  0  0  0  0  0  0  0  0  0
   59.6000   34.5030   45.6730 C   0  0  0  0  0  0  0  0  0  0  0  0
   58.7710   30.4310   44.7870 C   0  0  0  0  0  0  0  0  0  0  0  0
   58.9844   29.0296   47.0208 H   0  0  0  0  0  0  0  0  0  0  0  0
   58.8766   27.3574   47.9275 H   0  0  0  0  0  0  0  0  0  0  0  0
   60.8038   25.4573   45.7237 H   0  0  0  0  0  0  0  0  0  0  0  0
   58.6371   24.9085   47.4523 H   0  0  0  0  0  0  0  0  0  0  0  0
   56.4037   25.3704   45.4564 H   0  0  0  0  0  0  0  0  0  0  0  0
   55.0809   23.8796   43.9591 H   0  0  0  0  0  0  0  0  0  0  0  0
   58.3614   21.0692   43.8415 H   0  0  0  0  0  0  0  0  0  0  0  0
   60.7050   22.2160   44.7370 H   0  0  0  0  0  0  0  0  0  0  0  0
   60.6891   28.5871   44.6001 H   0  0  0  0  0  0  0  0  0  0  0  0
   59.6113   27.3053   43.8453 H   0  0  0  0  0  0  0  0  0  0  0  0
   57.2484   27.5933   43.6324 H   0  0  0  0  0  0  0  0  0  0  0  0
   55.3494   29.1862   43.4063 H   0  0  0  0  0  0  0  0  0  0  0  0
   55.6226   31.5674   44.0793 H   0  0  0  0  0  0  0  0  0  0  0  0
   58.7198   31.5948   47.2291 H   0  0  0  0  0  0  0  0  0  0  0  0
   60.4219   32.1009   46.9870 H   0  0  0  0  0  0  0  0  0  0  0  0
   58.2156   33.6625   48.4429 H   0  0  0  0  0  0  0  0  0  0  0  0
   59.6777   32.8951   49.1738 H   0  0  0  0  0  0  0  0  0  0  0  0
   58.4063   35.5112   47.1623 H   0  0  0  0  0  0  0  0  0  0  0  0
   60.0233   36.2529   46.8542 H   0  0  0  0  0  0  0  0  0  0  0  0
   59.0809   35.0283   44.8578 H   0  0  0  0  0  0  0  0  0  0  0  0
   60.6621   34.3898   45.4102 H   0  0  0  0  0  0  0  0  0  0  0  0
   59.7303   30.7771   45.1992 H   0  0  0  0  0  0  0  0  0  0  0  0
  1  2  2  0
  2  3  1  0
  3  4  2  3
  4  5  1  0
  5  6  2  0
  6  7  1  0
  7  8  2  0
  8  9  1  0
  8 10  1  0
 10 11  2  0
 11 12  1  0
  2 13  1  0
 13 14  1  0
 14 15  2  0
 15 16  1  0
 16 17  2  0
 17 18  1  0
 18 19  1  0
 19 20  2  0
 19 21  1  0
 21 22  1  0
 22 23  1  0
 23 24  1  0
 24 25  1  0
 25 26  1  0
 18 27  2  0
 11  5  1  0
 27 14  1  0
 26 21  1  0
  1 28  1  0
  1 29  1  0
  3 30  1  0
  4 31  1  0
  6 32  1  0
  7 33  1  0
 10 34  1  0
 12 35  1  0
 13 36  1  0
 13 37  1  0
 15 38  1  0
 16 39  1  0
 17 40  1  0
 22 41  1  0
 22 42  1  0
 23 43  1  0
 23 44  1  0
 25 45  1  0
 25 46  1  0
 26 47  1  0
 26 48  1  0
 27 49  1  0
M  CHG  1   9  -1
M  END
>  <UniqueID>  (8) 
8

>  <SMILES>  (8) 
C=C(C=Cc1ccc([O-])cc1O)Cc1cccc(C(=O)N2CCOCC2)c1

>  <Energy>  (8) 
65.80880300524558

>  <Genealogy>  (8) 
C=C(C=Cc1ccc([O-])cc1O)Cc1cccc(C(=O)N2CCOCC2)c1 (protonated)
C=C(C=Cc1ccc([O-])cc1O)Cc1cccc(C(=O)N2CCOCC2)c1 (3D coordinates assigned)
C=C(C=Cc1ccc([O-])cc1O)Cc1cccc(C(=O)N2CCOCC2)c1 (nonaromatic ring conformer: 65.80880300524558 kcal/mol)

>  <smiles>  (8) 
C=C(C=Cc1ccc(O)cc1O)Cc1cccc(C(=O)N2CCOCC2)c1

>  <score_type>  (8) 
oracle

>  <origin>  (8) 
adg

>  <m_score__min__energy>  (8) 
-12.07

>  <m_primary>  (8) 
energy

$$$$
8:0
     RDKit          3D

 64 67  0  0  0  0  0  0  0  0999 V2000
   59.6660   35.2150   46.0100 C   0  0  0  0  0  0  0  0  0  0  0  0
   59.4200   33.8700   45.5070 N   0  0  0  0  0  0  0  0  0  0  0  0
   58.2940   33.0500   45.8470 C   0  0  0  0  0  0  0  0  0  0  0  0
   57.5020   33.4540   46.7390 O   0  0  0  0  0  0  0  0  0  0  0  0
   58.0120   31.7660   45.1700 C   0  0  0  0  0  0  0  0  0  0  0  0
   56.9950   31.6880   44.2080 C   0  0  0  0  0  0  0  0  0  0  0  0
   56.7040   30.4710   43.5860 C   0  0  0  0  0  0  0  0  0  0  0  0
   57.4140   29.3170   43.9340 C   0  0  0  0  0  0  0  0  0  0  0  0
   58.4150   29.3730   44.9150 C   0  0  0  0  0  0  0  0  0  0  0  0
   59.1610   28.1230   45.3200 C   0  0  0  0  0  0  0  0  0  0  0  0
   58.2410   27.0190   45.6380 N   0  0  0  0  0  0  0  0  0  0  0  0
   58.0370   26.6080   47.0360 C   0  0  0  0  0  0  0  0  0  0  0  0
   58.9450   27.3880   47.9470 C   0  0  0  0  0  0  0  0  0  0  0  0
   60.2070   26.8760   48.2810 C   0  0  0  0  0  0  0  0  0  0  0  0
   61.0130   27.5410   49.2050 C   0  0  0  0  0  0  0  0  0  0  0  0
   60.5670   28.7210   49.8060 C   0  0  0  0  0  0  0  0  0  0  0  0
   59.3090   29.2590   49.4740 C   0  0  0  0  0  0  0  0  0  0  0  0
   58.8240   30.4900   50.1370 C   0  0  0  0  0  0  0  0  0  0  0  0
   57.7530   30.4720   50.8020 O   0  0  0  0  0  0  0  0  0  0  0  0
   59.5710   31.7070   50.0320 N   0  0  0  0  0  0  0  0  0  0  0  0
   59.5810   32.5230   48.8260 C   0  0  0  0  0  0  0  0  0  0  0  0
   60.9830   32.6070   48.2920 C   0  0  0  0  0  0  0  0  0  0  0  0
   61.5530   31.5090   47.6270 C   0  0  0  0  0  0  0  0  0  0  0  0
   62.8590   31.5850   47.1340 C   0  0  0  0  0  0  0  0  0  0  0  0
   63.6110   32.7490   47.3180 C   0  0  0  0  0  0  0  0  0  0  0  0
   63.0600   33.8380   48.0010 C   0  0  0  0  0  0  0  0  0  0  0  0
   61.7500   33.7680   48.4890 C   0  0  0  0  0  0  0  0  0  0  0  0
   58.5090   28.5910   48.5310 C   0  0  0  0  0  0  0  0  0  0  0  0
   57.6340   26.2610   44.5740 C   0  0  0  0  0  0  0  0  0  0  0  0
   57.9370   26.5170   43.3770 O   0  0  0  0  0  0  0  0  0  0  0  0
   56.6620   25.1780   44.8660 C   0  0  0  0  0  0  0  0  0  0  0  0
   56.9400   23.8630   44.4530 C   0  0  0  0  0  0  0  0  0  0  0  0
   56.0350   22.8310   44.7150 C   0  0  0  0  0  0  0  0  0  0  0  0
   54.8400   23.0990   45.3870 C   0  0  0  0  0  0  0  0  0  0  0  0
   53.9390   22.0710   45.6430 O   0  0  0  0  0  0  0  0  0  0  0  0
   54.5500   24.4020   45.8020 C   0  0  0  0  0  0  0  0  0  0  0  0
   55.4520   25.4420   45.5430 C   0  0  0  0  0  0  0  0  0  0  0  0
   55.1410   26.7260   45.9780 O   0  0  0  0  0  0  0  0  0  0  0  0
   58.7080   30.6020   45.5260 C   0  0  0  0  0  0  0  0  0  0  0  0
   59.6635   35.2013   47.1099 H   0  0  0  0  0  0  0  0  0  0  0  0
   60.6436   35.5680   45.6499 H   0  0  0  0  0  0  0  0  0  0  0  0
   58.8766   35.8912   45.6499 H   0  0  0  0  0  0  0  0  0  0  0  0
   56.4234   32.5893   43.9416 H   0  0  0  0  0  0  0  0  0  0  0  0
   55.9150   30.4203   42.8212 H   0  0  0  0  0  0  0  0  0  0  0  0
   57.1866   28.3626   43.4367 H   0  0  0  0  0  0  0  0  0  0  0  0
   59.8155   27.8142   44.4915 H   0  0  0  0  0  0  0  0  0  0  0  0
   59.7478   28.3510   46.2220 H   0  0  0  0  0  0  0  0  0  0  0  0
   56.9908   26.7943   47.3201 H   0  0  0  0  0  0  0  0  0  0  0  0
   58.2683   25.5368   47.1316 H   0  0  0  0  0  0  0  0  0  0  0  0
   60.5627   25.9465   47.8126 H   0  0  0  0  0  0  0  0  0  0  0  0
   62.0028   27.1353   49.4614 H   0  0  0  0  0  0  0  0  0  0  0  0
   61.2029   29.2329   50.5433 H   0  0  0  0  0  0  0  0  0  0  0  0
   58.9265   32.0667   48.0687 H   0  0  0  0  0  0  0  0  0  0  0  0
   59.2169   33.5336   49.0630 H   0  0  0  0  0  0  0  0  0  0  0  0
   60.9697   30.5860   47.4936 H   0  0  0  0  0  0  0  0  0  0  0  0
   63.2955   30.7277   46.6006 H   0  0  0  0  0  0  0  0  0  0  0  0
   64.6368   32.8084   46.9253 H   0  0  0  0  0  0  0  0  0  0  0  0
   63.6562   34.7496   48.1547 H   0  0  0  0  0  0  0  0  0  0  0  0
   61.3194   34.6245   49.0285 H   0  0  0  0  0  0  0  0  0  0  0  0
   57.5335   29.0127   48.2472 H   0  0  0  0  0  0  0  0  0  0  0  0
   57.8770   23.6450   43.9196 H   0  0  0  0  0  0  0  0  0  0  0  0
   56.2642   21.8050   44.3913 H   0  0  0  0  0  0  0  0  0  0  0  0
   53.6102   24.6114   46.3338 H   0  0  0  0  0  0  0  0  0  0  0  0
   59.4938   30.6528   46.2941 H   0  0  0  0  0  0  0  0  0  0  0  0
  1  2  1  0
  2  3  1  0
  3  4  2  0
  3  5  1  0
  5  6  2  0
  6  7  1  0
  7  8  2  0
  8  9  1  0
  9 10  1  0
 10 11  1  0
 11 12  1  0
 12 13  1  0
 13 14  2  0
 14 15  1  0
 15 16  2  0
 16 17  1  0
 17 18  1  0
 18 19  2  0
 18 20  1  0
 20 21  1  0
 21 22  1  0
 22 23  2  0
 23 24  1  0
 24 25  2  0
 25 26  1  0
 26 27  2  0
 17 28  2  0
 11 29  1  0
 29 30  2  0
 29 31  1  0
 31 32  2  0
 32 33  1  0
 33 34  2  0
 34 35  1  0
 34 36  1  0
 36 37  2  0
 37 38  1  0
  9 39  2  0
 39  5  1  0
 28 13  1  0
 37 31  1  0
 27 22  1  0
  1 40  1  0
  1 41  1  0
  1 42  1  0
  6 43  1  0
  7 44  1  0
  8 45  1  0
 10 46  1  0
 10 47  1  0
 12 48  1  0
 12 49  1  0
 14 50  1  0
 15 51  1  0
 16 52  1  0
 21 53  1  0
 21 54  1  0
 23 55  1  0
 24 56  1  0
 25 57  1  0
 26 58  1  0
 27 59  1  0
 28 60  1  0
 32 61  1  0
 33 62  1  0
 36 63  1  0
 39 64  1  0
M  CHG  4   2  -1  20  -1  35  -1  38  -1
M  END
>  <UniqueID>  (9) 
9

>  <SMILES>  (9) 
C[N-]C(=O)c1cccc(CN(Cc2cccc(C(=O)[N-]Cc3ccccc3)c2)C(=O)c2ccc([O-])cc2[O-])c1

>  <Energy>  (9) 
71.61587073283945

>  <Genealogy>  (9) 
C[N-]C(=O)c1cccc(CN(Cc2cccc(C(=O)[N-]Cc3ccccc3)c2)C(=O)c2ccc([O-])cc2[O-])c1 (protonated)
C[N-]C(=O)c1cccc(CN(Cc2cccc(C(=O)[N-]Cc3ccccc3)c2)C(=O)c2ccc([O-])cc2[O-])c1 (3D coordinates assigned)
C[N-]C(=O)c1cccc(CN(Cc2cccc(C(=O)[N-]Cc3ccccc3)c2)C(=O)c2ccc([O-])cc2[O-])c1 (optimized conformer: 71.61587073283945 kcal/mol)

>  <smiles>  (9) 
CNC(=O)c1cccc(CN(Cc2cccc(C(=O)NCc3ccccc3)c2)C(=O)c2ccc(O)cc2O)c1

>  <score_type>  (9) 
oracle

>  <origin>  (9) 
adg

>  <m_score__min__energy>  (9) 
-17.289999999999999

>  <m_primary>  (9) 
energy

$$$$
9:0
     RDKit          3D

 45 47  0  0  0  0  0  0  0  0999 V2000
   63.2100   33.7120   46.7490 C   0  0  0  0  0  0  0  0  0  0  0  0
   62.8690   33.1950   48.1430 C   0  0  0  0  0  0  0  0  0  0  0  0
   62.0550   34.1370   48.8440 O   0  0  0  0  0  0  0  0  0  0  0  0
   60.6610   34.0280   48.9460 C   0  0  0  0  0  0  0  0  0  0  0  0
   60.0930   34.1860   50.0630 O   0  0  0  0  0  0  0  0  0  0  0  0
   59.8580   33.7180   47.7450 C   0  0  0  0  0  0  0  0  0  0  0  0
   59.6760   34.6780   46.7330 C   0  0  0  0  0  0  0  0  0  0  0  0
   58.8750   34.3920   45.6240 C   0  0  0  0  0  0  0  0  0  0  0  0
   58.2640   33.1410   45.4880 C   0  0  0  0  0  0  0  0  0  0  0  0
   57.4210   32.9000   44.3490 N   0  0  0  0  0  0  0  0  0  0  0  0
   57.4280   31.7280   43.5220 C   0  0  0  0  0  0  0  0  0  0  0  0
   57.4630   31.8470   42.2690 O   0  0  0  0  0  0  0  0  0  0  0  0
   57.3490   30.3780   44.1440 C   0  0  0  0  0  0  0  0  0  0  0  0
   58.5250   29.7270   44.5440 C   0  0  0  0  0  0  0  0  0  0  0  0
   58.4740   28.4490   45.1130 C   0  0  0  0  0  0  0  0  0  0  0  0
   59.6500   27.8160   45.5410 C   0  0  0  0  0  0  0  0  0  0  0  0
   59.5930   26.5510   46.1250 C   0  0  0  0  0  0  0  0  0  0  0  0
   58.3700   25.8980   46.2710 C   0  0  0  0  0  0  0  0  0  0  0  0
   57.1790   26.4970   45.8250 C   0  0  0  0  0  0  0  0  0  0  0  0
   55.9270   25.7210   45.9570 C   0  0  0  0  0  0  0  0  0  0  0  0
   55.9410   24.2320   46.1550 C   0  0  0  0  0  0  0  0  0  0  0  0
   54.8220   26.3290   45.9770 O   0  0  0  0  0  0  0  0  0  0  0  0
   57.2240   27.8040   45.2660 C   0  0  0  0  0  0  0  0  0  0  0  0
   56.0870   28.4740   44.9090 N   0  0  0  0  0  0  0  0  0  0  0  0
   56.1170   29.7230   44.3610 C   0  0  0  0  0  0  0  0  0  0  0  0
   55.0270   30.2880   44.0650 O   0  0  0  0  0  0  0  0  0  0  0  0
   58.4340   32.1830   46.5030 C   0  0  0  0  0  0  0  0  0  0  0  0
   59.2270   32.4680   47.6180 C   0  0  0  0  0  0  0  0  0  0  0  0
   63.8138   34.6274   46.8350 H   0  0  0  0  0  0  0  0  0  0  0  0
   63.7808   32.9462   46.2034 H   0  0  0  0  0  0  0  0  0  0  0  0
   62.2813   33.9352   46.2034 H   0  0  0  0  0  0  0  0  0  0  0  0
   62.3244   32.2436   48.0524 H   0  0  0  0  0  0  0  0  0  0  0  0
   63.8033   33.0469   48.7045 H   0  0  0  0  0  0  0  0  0  0  0  0
   60.1667   35.6590   46.8150 H   0  0  0  0  0  0  0  0  0  0  0  0
   58.7234   35.1587   44.8499 H   0  0  0  0  0  0  0  0  0  0  0  0
   59.4964   30.2252   44.4094 H   0  0  0  0  0  0  0  0  0  0  0  0
   60.6203   28.3189   45.4156 H   0  0  0  0  0  0  0  0  0  0  0  0
   60.5173   26.0661   46.4721 H   0  0  0  0  0  0  0  0  0  0  0  0
   58.3366   24.9036   46.7401 H   0  0  0  0  0  0  0  0  0  0  0  0
   55.9431   24.0052   47.2314 H   0  0  0  0  0  0  0  0  0  0  0  0
   55.0470   23.7918   45.6893 H   0  0  0  0  0  0  0  0  0  0  0  0
   56.8432   23.8086   45.6893 H   0  0  0  0  0  0  0  0  0  0  0  0
   55.1480   28.0490   45.0770 H   0  0  0  0  0  0  0  0  0  0  0  0
   57.9401   31.2037   46.4190 H   0  0  0  0  0  0  0  0  0  0  0  0
   59.3585   31.7082   48.4025 H   0  0  0  0  0  0  0  0  0  0  0  0
  1  2  1  0
  2  3  1  0
  3  4  1  0
  4  5  2  0
  4  6  1  0
  6  7  2  0
  7  8  1  0
  8  9  2  0
  9 10  1  0
 10 11  1  0
 11 12  2  0
 11 13  1  0
 13 14  2  0
 14 15  1  0
 15 16  2  0
 16 17  1  0
 17 18  2  0
 18 19  1  0
 19 20  1  0
 20 21  1  0
 20 22  2  0
 19 23  2  0
 23 24  1  0
 24 25  1  0
 25 26  2  0
  9 27  1  0
 27 28  2  0
 28  6  1  0
 25 13  1  0
 23 15  1  0
  1 29  1  0
  1 30  1  0
  1 31  1  0
  2 32  1  0
  2 33  1  0
  7 34  1  0
  8 35  1  0
 14 36  1  0
 16 37  1  0
 17 38  1  0
 18 39  1  0
 21 40  1  0
 21 41  1  0
 21 42  1  0
 24 43  1  0
 27 44  1  0
 28 45  1  0
M  CHG  1  10  -1
M  END
>  <UniqueID>  (10) 
10

>  <SMILES>  (10) 
CCOC(=O)c1ccc([N-]C(=O)c2cc3cccc(C(C)=O)c3[nH]c2=O)cc1

>  <Energy>  (10) 
60.979857273439045

>  <Genealogy>  (10) 
CCOC(=O)c1ccc([N-]C(=O)c2cc3cccc(C(C)=O)c3[nH]c2=O)cc1 (protonated)
CCOC(=O)c1ccc([N-]C(=O)c2cc3cccc(C(C)=O)c3[nH]c2=O)cc1 (3D coordinates assigned)
CCOC(=O)c1ccc([N-]C(=O)c2cc3cccc(C(C)=O)c3[nH]c2=O)cc1 (optimized conformer: 60.979857273439045 kcal/mol)

>  <smiles>  (10) 
CCOC(=O)c1ccc(NC(=O)c2cc3cccc(C(C)=O)c3[nH]c2=O)cc1

>  <score_type>  (10) 
oracle

>  <origin>  (10) 
adg

>  <m_score__min__energy>  (10) 
-11.15

>  <m_primary>  (10) 
energy

$$$$
10:0
     RDKit          3D

 67 69  0  0  0  0  0  0  0  0999 V2000
   59.1812   25.7155   48.0102 H   0  0  0  0  0  0  0  0  0  0  0  0
   58.6480   26.6140   46.2000 C   0  0  0  0  0  0  0  0  0  0  0  0
   57.3920   27.3270   45.8380 C   0  0  0  0  0  0  0  0  0  0  0  0
   59.1410   26.0240   45.4133 H   0  0  0  0  0  0  0  0  0  0  0  0
   57.3440   28.2420   44.8440 C   0  0  0  0  0  0  0  0  0  0  0  0
   56.2300   26.9600   46.4380 F   0  0  0  0  0  0  0  0  0  0  0  0
   59.2240   26.6350   47.4080 C   0  0  0  0  0  0  0  0  0  0  0  0
   56.6460   29.5320   44.9990 C   0  0  0  0  0  0  0  0  0  0  0  0
   55.3970   29.5820   44.8350 O   0  0  0  0  0  0  0  0  0  0  0  0
   57.3720   30.6900   45.4370 N   0  0  0  0  0  0  0  0  0  0  0  0
   57.0310   32.0850   45.1630 C   0  0  0  0  0  0  0  0  0  0  0  0
   56.8988   32.2069   44.0778 H   0  0  0  0  0  0  0  0  0  0  0  0
   56.1086   32.3132   45.7172 H   0  0  0  0  0  0  0  0  0  0  0  0
   58.0890   33.0530   45.6300 C   0  0  0  0  0  0  0  0  0  0  0  0
   58.5840   34.0240   44.7470 C   0  0  0  0  0  0  0  0  0  0  0  0
   58.2110   34.0638   43.7129 H   0  0  0  0  0  0  0  0  0  0  0  0
   59.5450   34.9380   45.1720 C   0  0  0  0  0  0  0  0  0  0  0  0
   59.9275   35.6966   44.4733 H   0  0  0  0  0  0  0  0  0  0  0  0
   60.0240   34.8940   46.4820 C   0  0  0  0  0  0  0  0  0  0  0  0
   60.7843   35.6191   46.8078 H   0  0  0  0  0  0  0  0  0  0  0  0
   59.5450   33.9320   47.3910 C   0  0  0  0  0  0  0  0  0  0  0  0
   60.0480   33.9430   48.7950 C   0  0  0  0  0  0  0  0  0  0  0  0
   59.3450   34.5090   49.6790 O   0  0  0  0  0  0  0  0  0  0  0  0
   61.2880   33.2760   49.1720 N   0  0  0  0  0  0  0  0  0  0  0  0
   61.2650   33.0320   50.1900 H   0  0  0  0  0  0  0  0  0  0  0  0
   61.5290   32.0400   48.4040 C   0  0  0  0  0  0  0  0  0  0  0  0
   62.0929   31.3210   49.0164 H   0  0  0  0  0  0  0  0  0  0  0  0
   60.5769   31.5712   48.1148 H   0  0  0  0  0  0  0  0  0  0  0  0
   62.3390   32.4200   47.1680 C   0  0  0  0  0  0  0  0  0  0  0  0
   63.1618   31.7064   47.0137 H   0  0  0  0  0  0  0  0  0  0  0  0
   61.7235   32.4027   46.2565 H   0  0  0  0  0  0  0  0  0  0  0  0
   62.8880   33.8110   47.4510 C   0  0  0  0  0  0  0  0  0  0  0  0
   63.9859   33.8132   47.3833 H   0  0  0  0  0  0  0  0  0  0  0  0
   62.5232   34.5519   46.7244 H   0  0  0  0  0  0  0  0  0  0  0  0
   62.4400   34.1380   48.8700 C   0  0  0  0  0  0  0  0  0  0  0  0
   63.2569   33.9372   49.5788 H   0  0  0  0  0  0  0  0  0  0  0  0
   62.1667   35.1999   48.9581 H   0  0  0  0  0  0  0  0  0  0  0  0
   58.5710   33.0100   46.9490 C   0  0  0  0  0  0  0  0  0  0  0  0
   58.1856   32.2501   47.6447 H   0  0  0  0  0  0  0  0  0  0  0  0
   58.1220   28.0040   43.5780 C   0  0  0  0  0  0  0  0  0  0  0  0
   59.1459   27.6908   43.8302 H   0  0  0  0  0  0  0  0  0  0  0  0
   57.6317   27.2148   42.9892 H   0  0  0  0  0  0  0  0  0  0  0  0
   58.1571   28.9325   42.9892 H   0  0  0  0  0  0  0  0  0  0  0  0
   58.6030   29.7680   49.6880 C   0  0  0  0  0  0  0  0  0  0  0  0
   58.4588   28.7206   49.9914 H   0  0  0  0  0  0  0  0  0  0  0  0
   59.7240   29.0660   47.5550 C   0  0  0  0  0  0  0  0  0  0  0  0
   59.9150   27.8080   47.9920 C   0  0  0  0  0  0  0  0  0  0  0  0
   60.6175   27.6426   48.8222 H   0  0  0  0  0  0  0  0  0  0  0  0
   58.9610   30.0030   48.4170 C   0  0  0  0  0  0  0  0  0  0  0  0
   58.6655   30.9674   47.9782 H   0  0  0  0  0  0  0  0  0  0  0  0
   58.3880   30.8130   50.7110 C   0  0  0  0  0  0  0  0  0  0  0  0
   57.1310   30.9880   51.3110 C   0  0  0  0  0  0  0  0  0  0  0  0
   56.2916   30.3367   51.0260 H   0  0  0  0  0  0  0  0  0  0  0  0
   56.9440   31.9850   52.2670 C   0  0  0  0  0  0  0  0  0  0  0  0
   55.9523   32.1319   52.7197 H   0  0  0  0  0  0  0  0  0  0  0  0
   58.0140   32.7990   52.6520 C   0  0  0  0  0  0  0  0  0  0  0  0
   57.8597   33.5824   53.4086 H   0  0  0  0  0  0  0  0  0  0  0  0
   59.2850   32.6230   52.0790 C   0  0  0  0  0  0  0  0  0  0  0  0
   60.4090   33.4990   52.4770 C   0  0  0  0  0  0  0  0  0  0  0  0
   60.3280   34.2140   53.5110 O   0  0  0  0  0  0  0  0  0  0  0  0
   61.5740   33.5340   51.7220 O   0  0  0  0  0  0  0  0  0  0  0  0
   59.4670   31.6130   51.1170 C   0  0  0  0  0  0  0  0  0  0  0  0
   60.4629   31.4490   50.6796 H   0  0  0  0  0  0  0  0  0  0  0  0
   60.3750   29.5620   46.2830 C   0  0  0  0  0  0  0  0  0  0  0  0
   61.2266   30.2108   46.5358 H   0  0  0  0  0  0  0  0  0  0  0  0
   60.7303   28.7035   45.6941 H   0  0  0  0  0  0  0  0  0  0  0  0
   59.6416   30.1324   45.6941 H   0  0  0  0  0  0  0  0  0  0  0  0
  1  2  1  0
  2  3  2  3
  3  4  1  0
  3  5  1  0
  5  6  1  0
  5  7  2  3
  7  8  1  0
  8  9  2  0
  8 10  1  0
 10 11  1  0
 11 12  1  0
 11 13  1  0
 11 14  1  0
 14 15  2  0
 15 16  1  0
 15 17  1  0
 17 18  1  0
 17 19  2  0
 19 20  1  0
 19 21  1  0
 21 22  1  0
 22 23  2  0
 22 24  1  0
 24 25  1  0
 24 26  1  0
 26 27  1  0
 26 28  1  0
 26 29  1  0
 29 30  1  0
 29 31  1  0
 29 32  1  0
 32 33  1  0
 32 34  1  0
 32 35  1  0
 35 36  1  0
 35 37  1  0
 21 38  2  0
 38 39  1  0
  7 40  1  0
 40 41  1  0
 40 42  1  0
 40 43  1  0
  2 44  1  0
 44 45  1  0
 44 46  2  0
 46 47  1  0
 47 48  1  0
 47 49  2  0
 49 50  1  0
 49 51  1  0
 51 52  2  0
 52 53  1  0
 52 54  1  0
 54 55  1  0
 54 56  2  0
 56 57  1  0
 56 58  1  0
 58 59  1  0
 59 60  2  0
 59 61  1  0
 58 62  2  0
 62 63  1  0
 46 64  1  0
 64 65  1  0
 64 66  1  0
 64 67  1  0
 38 14  1  0
 62 51  1  0
 35 24  1  0
M  CHG  3  10  -1  24   1  61  -1
M  END
>  <UniqueID>  (11) 
11

>  <SMILES>  (11) 
CC(=CC=CC(F)=C(C)C(=O)[N-]Cc1cccc(C(=O)[NH+]2CCCC2)c1)/C=C\c1cccc(C(=O)[O-])c1

>  <Energy>  (11) 
98.65711578190765

>  <Genealogy>  (11) 
CC(C=Cc1cccc(C(=O)[O-])c1)=CC=CC(F)=C(C)C(=O)[N-]Cc1cccc(C(=O)[NH+]2CCCC2)c1 (protonated)
CC(=CC=CC(F)=C(C)C(=O)[N-]Cc1cccc(C(=O)[NH+]2CCCC2)c1)/C=C\c1cccc(C(=O)[O-])c1 (cis-trans isomerization)
CC(=CC=CC(F)=C(C)C(=O)[N-]Cc1cccc(C(=O)[NH+]2CCCC2)c1)/C=C\c1cccc(C(=O)[O-])c1 (3D coordinates assigned)
CC(=CC=CC(F)=C(C)C(=O)[N-]Cc1cccc(C(=O)[NH+]2CCCC2)c1)/C=C\c1cccc(C(=O)[O-])c1 (nonaromatic ring conformer: 98.65711578190765 kcal/mol)

>  <smiles>  (11) 
CC(C=Cc1cccc(C(=O)O)c1)=CC=CC(F)=C(C)C(=O)NCc1cccc(C(=O)N2CCCC2)c1

>  <score_type>  (11) 
oracle

>  <origin>  (11) 
adg

>  <m_score__min__energy>  (11) 
-13.779999999999999

>  <m_primary>  (11) 
energy

$$$$
11:0
     RDKit          3D

 58 61  0  0  0  0  0  0  0  0999 V2000
   57.5400   27.6860   44.8930 C   0  0  0  0  0  0  0  0  0  0  0  0
   56.9540   29.0380   44.6450 C   0  0  0  0  0  0  0  0  0  0  0  0
   55.8590   29.3490   45.1880 O   0  0  0  0  0  0  0  0  0  0  0  0
   57.6390   29.9670   43.7880 N   0  0  0  0  0  0  0  0  0  0  0  0
   57.1630   31.3340   43.5510 C   0  0  2  0  0  0  0  0  0  0  0  0
   57.2800   31.6760   42.0580 C   0  0  0  0  0  0  0  0  0  0  0  0
   57.9230   32.2930   44.4460 C   0  0  0  0  0  0  0  0  0  0  0  0
   58.1310   31.9500   45.7920 C   0  0  0  0  0  0  0  0  0  0  0  0
   58.8870   32.7740   46.6290 C   0  0  0  0  0  0  0  0  0  0  0  0
   59.4560   33.9620   46.1330 C   0  0  0  0  0  0  0  0  0  0  0  0
   60.2300   34.8200   46.9280 O   0  0  0  0  0  0  0  0  0  0  0  0
   60.7180   34.5030   48.2350 C   0  0  2  0  0  0  0  0  0  0  0  0
   61.4830   33.1810   48.2170 C   0  0  0  0  0  0  0  0  0  0  0  0
   61.1380   32.4820   49.5270 C   0  0  0  0  0  0  0  0  0  0  0  0
   59.9260   33.1240   50.0040 N   0  0  0  0  0  0  0  0  0  0  0  0
   59.1520   32.6200   51.1090 C   0  0  0  0  0  0  0  0  0  0  0  0
   58.2740   31.5360   50.9470 C   0  0  0  0  0  0  0  0  0  0  0  0
   57.5430   31.0830   52.0550 C   0  0  0  0  0  0  0  0  0  0  0  0
   56.6690   29.9870   51.9640 O   0  0  0  0  0  0  0  0  0  0  0  0
   55.3190   29.9960   52.3420 C   0  0  0  0  0  0  0  0  0  0  0  0
   54.8490   29.2130   53.4120 C   0  0  0  0  0  0  0  0  0  0  0  0
   53.4950   29.2440   53.7630 C   0  0  0  0  0  0  0  0  0  0  0  0
   52.6020   30.0490   53.0490 C   0  0  0  0  0  0  0  0  0  0  0  0
   53.0610   30.8190   51.9720 C   0  0  0  0  0  0  0  0  0  0  0  0
   52.1470   31.6590   51.2400 C   0  0  0  0  0  0  0  0  0  0  0  0
   51.4080   32.3340   50.6570 N   0  0  0  0  0  0  0  0  0  0  0  0
   54.4150   30.7790   51.6120 C   0  0  0  0  0  0  0  0  0  0  0  0
   57.7200   31.6880   53.2600 N   0  0  0  0  0  0  0  0  0  0  0  0
   58.5750   32.7340   53.4070 C   0  0  0  0  0  0  0  0  0  0  0  0
   59.2800   33.1920   52.3400 N   0  0  0  0  0  0  0  0  0  0  0  0
   59.5650   34.2900   49.2160 C   0  0  0  0  0  0  0  0  0  0  0  0
   59.2540   34.3040   44.7930 C   0  0  0  0  0  0  0  0  0  0  0  0
   58.5150   33.4700   43.9490 C   0  0  0  0  0  0  0  0  0  0  0  0
   57.6153   27.5122   45.9766 H   0  0  0  0  0  0  0  0  0  0  0  0
   56.8940   26.9181   44.4425 H   0  0  0  0  0  0  0  0  0  0  0  0
   58.5421   27.6325   44.4425 H   0  0  0  0  0  0  0  0  0  0  0  0
   58.5460   29.6710   43.3540 H   0  0  0  0  0  0  0  0  0  0  0  0
   56.0980   31.4246   43.8107 H   0  0  0  0  0  0  0  0  0  0  0  0
   57.6342   32.7113   41.9457 H   0  0  0  0  0  0  0  0  0  0  0  0
   57.9946   30.9901   41.5796 H   0  0  0  0  0  0  0  0  0  0  0  0
   56.2950   31.5715   41.5796 H   0  0  0  0  0  0  0  0  0  0  0  0
   57.6940   31.0228   46.1912 H   0  0  0  0  0  0  0  0  0  0  0  0
   59.0385   32.4929   47.6816 H   0  0  0  0  0  0  0  0  0  0  0  0
   61.3570   35.3449   48.5399 H   0  0  0  0  0  0  0  0  0  0  0  0
   61.1666   32.5673   47.3607 H   0  0  0  0  0  0  0  0  0  0  0  0
   62.5666   33.3423   48.1180 H   0  0  0  0  0  0  0  0  0  0  0  0
   60.9627   31.4097   49.3556 H   0  0  0  0  0  0  0  0  0  0  0  0
   61.9557   32.5610   50.2585 H   0  0  0  0  0  0  0  0  0  0  0  0
   58.1614   31.0499   49.9667 H   0  0  0  0  0  0  0  0  0  0  0  0
   55.5473   28.5752   53.9738 H   0  0  0  0  0  0  0  0  0  0  0  0
   53.1320   28.6335   54.6029 H   0  0  0  0  0  0  0  0  0  0  0  0
   51.5396   30.0778   53.3327 H   0  0  0  0  0  0  0  0  0  0  0  0
   54.7699   31.3655   50.7517 H   0  0  0  0  0  0  0  0  0  0  0  0
   58.6963   33.2103   54.3911 H   0  0  0  0  0  0  0  0  0  0  0  0
   58.6269   34.1085   48.6710 H   0  0  0  0  0  0  0  0  0  0  0  0
   59.4050   35.1740   49.8508 H   0  0  0  0  0  0  0  0  0  0  0  0
   59.6805   35.2382   44.3988 H   0  0  0  0  0  0  0  0  0  0  0  0
   58.3950   33.7353   42.8882 H   0  0  0  0  0  0  0  0  0  0  0  0
  1  2  1  0
  2  3  2  0
  2  4  1  0
  4  5  1  0
  5  6  1  0
  5  7  1  0
  7  8  2  0
  8  9  1  0
  9 10  2  0
 10 11  1  0
 11 12  1  0
 12 13  1  0
 13 14  1  0
 14 15  1  0
 15 16  1  0
 16 17  2  0
 17 18  1  0
 18 19  1  0
 19 20  1  0
 20 21  2  0
 21 22  1  0
 22 23  2  0
 23 24  1  0
 24 25  1  0
 25 26  3  0
 24 27  2  0
 18 28  2  0
 28 29  1  0
 29 30  2  0
 15 31  1  0
 10 32  1  0
 32 33  2  0
 33  7  1  0
 31 12  1  0
 30 16  1  0
 27 20  1  0
  1 34  1  0
  1 35  1  0
  1 36  1  0
  4 37  1  0
  5 38  1  1
  6 39  1  0
  6 40  1  0
  6 41  1  0
  8 42  1  0
  9 43  1  0
 12 44  1  1
 13 45  1  0
 13 46  1  0
 14 47  1  0
 14 48  1  0
 17 49  1  0
 21 50  1  0
 22 51  1  0
 23 52  1  0
 27 53  1  0
 29 54  1  0
 31 55  1  0
 31 56  1  0
 32 57  1  0
 33 58  1  0
M  END
>  <UniqueID>  (12) 
12

>  <SMILES>  (12) 
CC(=O)N[C@H](C)c1ccc(O[C@@H]2CCN(c3cc(Oc4cccc(C#N)c4)ncn3)C2)cc1

>  <Energy>  (12) 
65.53622322464366

>  <Genealogy>  (12) 
CC(=O)N[C@H](C)c1ccc(O[C@@H]2CCN(c3cc(Oc4cccc(C#N)c4)ncn3)C2)cc1 (chirality)
CC(=O)N[C@H](C)c1ccc(O[C@@H]2CCN(c3cc(Oc4cccc(C#N)c4)ncn3)C2)cc1 (3D coordinates assigned)
CC(=O)N[C@H](C)c1ccc(O[C@@H]2CCN(c3cc(Oc4cccc(C#N)c4)ncn3)C2)cc1 (nonaromatic ring conformer: 65.53622322464366 kcal/mol)

>  <smiles>  (12) 
CC(=O)NC(C)c1ccc(OC2CCN(c3cc(Oc4cccc(C#N)c4)ncn3)C2)cc1

>  <score_type>  (12) 
oracle

>  <origin>  (12) 
adg

>  <m_score__min__energy>  (12) 
-10.25

>  <m_primary>  (12) 
energy

$$$$
12:0
     RDKit          3D

 48 51  0  0  1  0  0  0  0  0999 V2000
   57.1110   34.5410   44.9220 C   0  0  0  0  0  0  0  0  0  0  0  0
   57.6160   33.6940   45.8100 C   0  0  0  0  0  0  0  0  0  0  0  0
   58.0100   34.0070   47.0760 N   0  0  0  0  0  0  0  0  0  0  0  0
   58.4700   32.9050   47.6960 C   0  0  0  0  0  0  0  0  0  0  0  0
   58.9930   32.7280   49.0300 C   0  0  0  0  0  0  0  0  0  0  0  0
   59.2650   33.7790   49.6870 O   0  0  0  0  0  0  0  0  0  0  0  0
   59.2040   31.4330   49.6090 N   0  0  0  0  0  0  0  0  0  0  0  0
   58.2030   30.7280   50.3820 C   0  0  0  0  0  0  0  0  0  0  0  0
   59.0090   29.6540   51.0150 C   0  0  0  0  0  0  0  0  0  0  0  0
   60.2420   29.6240   50.5230 C   0  0  0  0  0  0  0  0  0  0  0  0
   60.4270   30.6690   49.5010 C   0  0  1  0  0  0  0  0  0  0  0  0
   60.6940   30.1590   48.1390 C   0  0  0  0  0  0  0  0  0  0  0  0
   61.3710   30.7430   47.0840 C   0  0  0  0  0  0  0  0  0  0  0  0
   61.9900   32.0680   47.1190 C   0  0  0  0  0  0  0  0  0  0  0  0
   61.3600   29.8830   46.0210 N   0  0  0  0  0  0  0  0  0  0  0  0
   60.7090   28.7880   46.3610 N   0  0  0  0  0  0  0  0  0  0  0  0
   60.2920   28.9170   47.6340 C   0  0  0  0  0  0  0  0  0  0  0  0
   59.5200   27.8570   48.3360 C   0  0  0  0  0  0  0  0  0  0  0  0
   58.3600   31.8620   46.7840 C   0  0  0  0  0  0  0  0  0  0  0  0
   57.8240   32.3480   45.5950 C   0  0  0  0  0  0  0  0  0  0  0  0
   57.5770   31.6300   44.4980 C   0  0  0  0  0  0  0  0  0  0  0  0
   57.5440   30.1840   44.6630 C   0  0  0  0  0  0  0  0  0  0  0  0
   58.6710   29.4230   44.6830 N   0  0  0  0  0  0  0  0  0  0  0  0
   58.3030   28.1190   44.8520 C   0  0  0  0  0  0  0  0  0  0  0  0
   59.1440   27.1630   44.9110 O   0  0  0  0  0  0  0  0  0  0  0  0
   56.9690   28.0750   44.9350 N   0  0  0  0  0  0  0  0  0  0  0  0
   56.4690   29.3360   44.8220 C   0  0  0  0  0  0  0  0  0  0  0  0
   55.1430   29.7430   44.8530 O   0  0  0  0  0  0  0  0  0  0  0  0
   56.8236   34.1832   43.9223 H   0  0  0  0  0  0  0  0  0  0  0  0
   56.9798   35.6009   45.1856 H   0  0  0  0  0  0  0  0  0  0  0  0
   57.9640   34.9540   47.5030 H   0  0  0  0  0  0  0  0  0  0  0  0
   57.7454   31.3835   51.1376 H   0  0  0  0  0  0  0  0  0  0  0  0
   57.3579   30.3569   49.7836 H   0  0  0  0  0  0  0  0  0  0  0  0
   58.6333   28.9712   51.7913 H   0  0  0  0  0  0  0  0  0  0  0  0
   61.0213   28.9138   50.8366 H   0  0  0  0  0  0  0  0  0  0  0  0
   61.3313   31.2704   49.6757 H   0  0  0  0  0  0  0  0  0  0  0  0
   62.1346   32.3776   48.1646 H   0  0  0  0  0  0  0  0  0  0  0  0
   62.9641   32.0312   46.6094 H   0  0  0  0  0  0  0  0  0  0  0  0
   61.3367   32.7915   46.6094 H   0  0  0  0  0  0  0  0  0  0  0  0
   60.5430   27.9490   45.7390 H   0  0  0  0  0  0  0  0  0  0  0  0
   59.6179   27.9914   49.4234 H   0  0  0  0  0  0  0  0  0  0  0  0
   58.4596   27.9266   48.0519 H   0  0  0  0  0  0  0  0  0  0  0  0
   59.9116   26.8691   48.0519 H   0  0  0  0  0  0  0  0  0  0  0  0
   58.6505   30.8179   46.9721 H   0  0  0  0  0  0  0  0  0  0  0  0
   57.4073   32.1054   43.5207 H   0  0  0  0  0  0  0  0  0  0  0  0
   59.6690   29.7520   44.5890 H   0  0  0  0  0  0  0  0  0  0  0  0
   56.3890   27.1950   45.0680 H   0  0  0  0  0  0  0  0  0  0  0  0
   54.9080   30.4250   45.5860 H   0  0  0  0  0  0  0  0  0  0  0  0
  1  2  2  0
  2  3  1  0
  3  4  1  0
  4  5  1  0
  5  6  2  0
  5  7  1  0
  7  8  1  0
  8  9  1  0
  9 10  2  0
 10 11  1  0
 11 12  1  0
 12 13  1  0
 13 14  1  0
 13 15  2  0
 15 16  1  0
 16 17  1  0
 17 18  1  0
  4 19  2  0
 19 20  1  0
 20 21  2  0
 21 22  1  0
 22 23  1  0
 23 24  1  0
 24 25  2  0
 24 26  1  0
 26 27  1  0
 27 28  1  0
 20  2  1  0
 27 22  2  0
 11  7  1  0
 17 12  2  0
  1 29  1  0
  1 30  1  0
  3 31  1  0
  8 32  1  0
  8 33  1  0
  9 34  1  0
 10 35  1  0
 11 36  1  1
 14 37  1  0
 14 38  1  0
 14 39  1  0
 16 40  1  0
 18 41  1  0
 18 42  1  0
 18 43  1  0
 19 44  1  0
 21 45  1  0
 23 46  1  0
 26 47  1  0
 28 48  1  0
M  END
>  <smiles>  (13) 
C=c1[nH]c(C(=O)N2CC=CC2c2c(C)n[nH]c2C)cc1=Cc1[nH]c(=O)[nH]c1O

>  <score_type>  (13) 
oracle

>  <origin>  (13) 
adg

>  <m_score__min__energy>  (13) 
-9.9700000000000006

>  <m_primary>  (13) 
energy

$$$$
13:0
     RDKit          3D

 59 62  0  0  0  0  0  0  0  0999 V2000
   57.3690   22.0330   45.3090 C   0  0  0  0  0  0  0  0  0  0  0  0
   57.4940   21.9250   46.7220 O   0  0  0  0  0  0  0  0  0  0  0  0
   56.5950   22.5270   47.6140 C   0  0  0  0  0  0  0  0  0  0  0  0
   57.0270   23.2420   48.5550 O   0  0  0  0  0  0  0  0  0  0  0  0
   55.1390   22.4060   47.3680 C   0  0  0  0  0  0  0  0  0  0  0  0
   54.4610   21.3760   48.0460 C   0  0  0  0  0  0  0  0  0  0  0  0
   53.0960   21.1590   47.8450 C   0  0  0  0  0  0  0  0  0  0  0  0
   52.3830   21.9730   46.9690 C   0  0  0  0  0  0  0  0  0  0  0  0
   53.0260   23.0130   46.3010 C   0  0  0  0  0  0  0  0  0  0  0  0
   54.4030   23.2520   46.4820 C   0  0  0  0  0  0  0  0  0  0  0  0
   55.0990   24.6900   45.6950 S   0  0  0  0  0  0  0  0  0  0  0  0
   54.0570   25.7740   45.6220 O   0  0  0  0  0  0  0  0  0  0  0  0
   55.5260   24.3900   44.2860 O   0  0  0  0  0  0  0  0  0  0  0  0
   56.4130   25.2940   46.6560 N   0  0  0  0  0  0  0  0  0  0  0  0
   57.1550   26.4870   46.3910 C   0  0  0  0  0  0  0  0  0  0  0  0
   58.5150   26.6220   46.7750 C   0  0  0  0  0  0  0  0  0  0  0  0
   59.2150   27.8190   46.5200 C   0  0  0  0  0  0  0  0  0  0  0  0
   58.5290   28.8440   45.8760 C   0  0  0  0  0  0  0  0  0  0  0  0
   58.9680   30.0790   45.5940 N   0  0  0  0  0  0  0  0  0  0  0  0
   57.8790   30.6520   45.0150 C   0  0  0  0  0  0  0  0  0  0  0  0
   57.8660   32.0400   44.5280 C   0  0  0  0  0  0  0  0  0  0  0  0
   57.5380   32.2610   43.3290 O   0  0  0  0  0  0  0  0  0  0  0  0
   58.2610   33.1360   45.3750 N   0  0  0  0  0  0  0  0  0  0  0  0
   57.7700   33.2120   46.7620 C   0  0  0  0  0  0  0  0  0  0  0  0
   58.8040   33.8570   47.7150 C   0  0  0  0  0  0  0  0  0  0  0  0
   60.0790   34.3740   46.9910 C   0  0  0  0  0  0  0  0  0  0  0  0
   60.9900   33.2690   46.5500 N   0  0  0  0  0  0  0  0  0  0  0  0
   62.4080   33.6650   46.6840 C   0  0  0  0  0  0  0  0  0  0  0  0
   60.7780   32.0310   47.3310 C   0  0  0  0  0  0  0  0  0  0  0  0
   59.5730   35.2130   45.7920 C   0  0  0  0  0  0  0  0  0  0  0  0
   58.8800   34.3190   44.7510 C   0  0  0  0  0  0  0  0  0  0  0  0
   56.7960   29.8380   44.9150 N   0  0  0  0  0  0  0  0  0  0  0  0
   57.2360   28.7040   45.4780 C   0  0  0  0  0  0  0  0  0  0  0  0
   56.5170   27.5340   45.7000 C   0  0  0  0  0  0  0  0  0  0  0  0
   56.5573   22.7343   45.0652 H   0  0  0  0  0  0  0  0  0  0  0  0
   58.3137   22.4037   44.8846 H   0  0  0  0  0  0  0  0  0  0  0  0
   57.1393   21.0445   44.8846 H   0  0  0  0  0  0  0  0  0  0  0  0
   55.0146   20.7319   48.7450 H   0  0  0  0  0  0  0  0  0  0  0  0
   52.5842   20.3448   48.3789 H   0  0  0  0  0  0  0  0  0  0  0  0
   51.3102   21.7948   46.8040 H   0  0  0  0  0  0  0  0  0  0  0  0
   52.4496   23.6579   45.6214 H   0  0  0  0  0  0  0  0  0  0  0  0
   59.0265   25.7865   47.2752 H   0  0  0  0  0  0  0  0  0  0  0  0
   60.2666   27.9384   46.8197 H   0  0  0  0  0  0  0  0  0  0  0  0
   56.8493   33.8137   46.7791 H   0  0  0  0  0  0  0  0  0  0  0  0
   57.5847   32.1853   47.1107 H   0  0  0  0  0  0  0  0  0  0  0  0
   58.3251   34.7059   48.2248 H   0  0  0  0  0  0  0  0  0  0  0  0
   59.1267   33.0751   48.4182 H   0  0  0  0  0  0  0  0  0  0  0  0
   60.6928   34.9754   47.6777 H   0  0  0  0  0  0  0  0  0  0  0  0
   62.6692   33.7379   47.7501 H   0  0  0  0  0  0  0  0  0  0  0  0
   63.0466   32.9108   46.2008 H   0  0  0  0  0  0  0  0  0  0  0  0
   62.5634   34.6409   46.2008 H   0  0  0  0  0  0  0  0  0  0  0  0
   60.8179   32.2639   48.4053 H   0  0  0  0  0  0  0  0  0  0  0  0
   59.7940   31.6058   47.0843 H   0  0  0  0  0  0  0  0  0  0  0  0
   61.5645   31.3026   47.0843 H   0  0  0  0  0  0  0  0  0  0  0  0
   58.8568   35.9648   46.1551 H   0  0  0  0  0  0  0  0  0  0  0  0
   60.4356   35.7026   45.3165 H   0  0  0  0  0  0  0  0  0  0  0  0
   58.0992   34.9034   44.2423 H   0  0  0  0  0  0  0  0  0  0  0  0
   59.6406   33.9716   44.0363 H   0  0  0  0  0  0  0  0  0  0  0  0
   55.4807   27.4303   45.3460 H   0  0  0  0  0  0  0  0  0  0  0  0
  1  2  1  0
  2  3  1  0
  3  4  2  0
  3  5  1  0
  5  6  2  0
  6  7  1  0
  7  8  2  0
  8  9  1  0
  9 10  2  0
 10 11  1  0
 11 12  2  0
 11 13  2  0
 11 14  1  0
 14 15  1  0
 15 16  2  0
 16 17  1  0
 17 18  2  0
 18 19  1  0
 19 20  1  0
 20 21  1  0
 21 22  2  0
 21 23  1  0
 23 24  1  0
 24 25  1  0
 25 26  1  0
 26 27  1  0
 27 28  1  0
 27 29  1  0
 26 30  1  0
 30 31  1  0
 20 32  2  0
 32 33  1  0
 33 34  2  0
 10  5  1  0
 34 15  1  0
 33 18  1  0
 31 23  1  0
  1 35  1  0
  1 36  1  0
  1 37  1  0
  6 38  1  0
  7 39  1  0
  8 40  1  0
  9 41  1  0
 16 42  1  0
 17 43  1  0
 24 44  1  0
 24 45  1  0
 25 46  1  0
 25 47  1  0
 26 48  1  0
 28 49  1  0
 28 50  1  0
 28 51  1  0
 29 52  1  0
 29 53  1  0
 29 54  1  0
 30 55  1  0
 30 56  1  0
 31 57  1  0
 31 58  1  0
 34 59  1  0
M  CHG  2  14  -1  19  -1
M  END
>  <UniqueID>  (14) 
13

>  <SMILES>  (14) 
COC(=O)c1ccccc1S(=O)(=O)[N-]c1ccc2[n-]c(C(=O)N3CCC(N(C)C)CC3)nc2c1

>  <Energy>  (14) 
121.22580780612019

>  <Genealogy>  (14) 
COC(=O)c1ccccc1S(=O)(=O)[N-]c1ccc2[n-]c(C(=O)N3CCC(N(C)C)CC3)nc2c1 (protonated)
COC(=O)c1ccccc1S(=O)(=O)[N-]c1ccc2[n-]c(C(=O)N3CCC(N(C)C)CC3)nc2c1 (3D coordinates assigned)
COC(=O)c1ccccc1S(=O)(=O)[N-]c1ccc2[n-]c(C(=O)N3CCC(N(C)C)CC3)nc2c1 (nonaromatic ring conformer: 121.22580780612019 kcal/mol)

>  <smiles>  (14) 
COC(=O)c1ccccc1S(=O)(=O)Nc1ccc2[nH]c(C(=O)N3CCC(N(C)C)CC3)nc2c1

>  <score_type>  (14) 
oracle

>  <origin>  (14) 
adg

>  <m_score__min__energy>  (14) 
-13.02

>  <m_primary>  (14) 
energy

$$$$
14:0
     RDKit          3D

 52 55  0  0  0  0  0  0  0  0999 V2000
   59.2259   34.0747   45.0693 H   0  0  0  0  0  0  0  0  0  0  0  0
   58.8890   33.8350   44.0500 C   0  0  0  0  0  0  0  0  0  0  0  0
   59.2337   34.4419   43.1998 H   0  0  0  0  0  0  0  0  0  0  0  0
   58.0630   32.8090   43.8450 C   0  0  0  0  0  0  0  0  0  0  0  0
   57.6820   31.7360   44.7740 C   0  0  0  0  0  0  0  0  0  0  0  0
   57.7710   31.6820   46.0730 N   0  0  0  0  0  0  0  0  0  0  0  0
   57.7740   32.7920   46.9760 C   0  0  0  0  0  0  0  0  0  0  0  0
   57.0420   33.7870   46.7250 O   0  0  0  0  0  0  0  0  0  0  0  0
   58.6090   32.8160   48.1440 N   0  0  0  0  0  0  0  0  0  0  0  0
   59.9970   33.1780   48.1930 C   0  0  0  0  0  0  0  0  0  0  0  0
   60.5890   33.4110   49.4420 C   0  0  0  0  0  0  0  0  0  0  0  0
   59.9883   33.3141   50.3584 H   0  0  0  0  0  0  0  0  0  0  0  0
   61.9390   33.7660   49.5300 C   0  0  0  0  0  0  0  0  0  0  0  0
   62.3983   33.9399   50.5143 H   0  0  0  0  0  0  0  0  0  0  0  0
   62.7050   33.9000   48.3690 C   0  0  0  0  0  0  0  0  0  0  0  0
   63.7680   34.1740   48.4402 H   0  0  0  0  0  0  0  0  0  0  0  0
   62.1210   33.6860   47.1170 C   0  0  0  0  0  0  0  0  0  0  0  0
   62.8590   33.8390   45.9900 F   0  0  0  0  0  0  0  0  0  0  0  0
   60.7670   33.3380   47.0240 C   0  0  0  0  0  0  0  0  0  0  0  0
   60.3045   33.1895   46.0370 H   0  0  0  0  0  0  0  0  0  0  0  0
   57.0610   30.7020   43.9450 C   0  0  0  0  0  0  0  0  0  0  0  0
   56.4420   29.4550   44.4370 C   0  0  0  0  0  0  0  0  0  0  0  0
   55.1870   29.3320   44.3740 O   0  0  0  0  0  0  0  0  0  0  0  0
   57.2350   28.3890   44.9900 N   0  0  0  0  0  0  0  0  0  0  0  0
   57.9140   27.3950   44.1750 C   0  0  0  0  0  0  0  0  0  0  0  0
   57.1793   26.7429   43.6801 H   0  0  0  0  0  0  0  0  0  0  0  0
   58.5181   27.8705   43.3882 H   0  0  0  0  0  0  0  0  0  0  0  0
   58.7870   26.5800   45.1250 C   0  0  0  0  0  0  0  0  0  0  0  0
   58.4070   25.5505   45.2005 H   0  0  0  0  0  0  0  0  0  0  0  0
   59.8243   26.5265   44.7628 H   0  0  0  0  0  0  0  0  0  0  0  0
   58.7130   27.2780   46.5020 C   0  0  1  0  0  0  0  0  0  0  0  0
   58.4641   26.5320   47.2711 H   0  0  0  0  0  0  0  0  0  0  0  0
   60.0070   27.8440   46.9690 N   0  0  0  0  0  0  0  0  0  0  0  0
   60.6220   28.7620   45.9960 C   0  0  0  0  0  0  0  0  0  0  0  0
   61.5852   28.3547   45.6549 H   0  0  0  0  0  0  0  0  0  0  0  0
   59.9678   28.8873   45.1206 H   0  0  0  0  0  0  0  0  0  0  0  0
   60.8420   30.0980   46.6890 C   0  0  0  0  0  0  0  0  0  0  0  0
   61.8069   30.5345   46.3917 H   0  0  0  0  0  0  0  0  0  0  0  0
   60.0702   30.8355   46.4237 H   0  0  0  0  0  0  0  0  0  0  0  0
   60.8370   29.7730   48.1630 C   0  0  0  0  0  0  0  0  0  0  0  0
   61.8570   29.5675   48.5198 H   0  0  0  0  0  0  0  0  0  0  0  0
   60.4583   30.6052   48.7746 H   0  0  0  0  0  0  0  0  0  0  0  0
   59.9690   28.5320   48.2730 C   0  0  0  0  0  0  0  0  0  0  0  0
   60.3605   27.8689   49.0585 H   0  0  0  0  0  0  0  0  0  0  0  0
   58.9363   28.8050   48.5357 H   0  0  0  0  0  0  0  0  0  0  0  0
   57.6280   28.3580   46.3870 C   0  0  0  0  0  0  0  0  0  0  0  0
   56.7659   28.1015   47.0202 H   0  0  0  0  0  0  0  0  0  0  0  0
   58.0003   29.3378   46.7208 H   0  0  0  0  0  0  0  0  0  0  0  0
   57.0000   31.1530   42.6860 C   0  0  0  0  0  0  0  0  0  0  0  0
   56.5487   30.5935   41.8534 H   0  0  0  0  0  0  0  0  0  0  0  0
   57.5900   32.4460   42.5520 N   0  0  0  0  0  0  0  0  0  0  0  0
   57.6950   32.9900   41.6620 H   0  0  0  0  0  0  0  0  0  0  0  0
  1  2  1  0
  2  3  1  0
  2  4  2  0
  4  5  1  0
  5  6  2  0
  6  7  1  0
  7  8  2  0
  7  9  1  0
  9 10  1  0
 10 11  2  0
 11 12  1  0
 11 13  1  0
 13 14  1  0
 13 15  2  0
 15 16  1  0
 15 17  1  0
 17 18  1  0
 17 19  2  0
 19 20  1  0
  5 21  1  0
 21 22  1  0
 22 23  2  0
 22 24  1  0
 24 25  1  0
 25 26  1  0
 25 27  1  0
 25 28  1  0
 28 29  1  0
 28 30  1  0
 28 31  1  0
 31 32  1  1
 31 33  1  0
 33 34  1  0
 34 35  1  0
 34 36  1  0
 34 37  1  0
 37 38  1  0
 37 39  1  0
 37 40  1  0
 40 41  1  0
 40 42  1  0
 40 43  1  0
 43 44  1  0
 43 45  1  0
 31 46  1  0
 46 47  1  0
 46 48  1  0
 21 49  2  0
 49 50  1  0
 49 51  1  0
 51 52  1  0
 51  4  1  0
 19 10  1  0
 46 24  1  0
 43 33  1  0
M  CHG  1   9  -1
M  END
>  <UniqueID>  (15) 
14

>  <SMILES>  (15) 
C=C1NC=C(C(=O)N2CC[C@@H](N3CCCC3)C2)/C1=N/C(=O)[N-]c1cccc(F)c1

>  <Energy>  (15) 
102.32231879725484

>  <Genealogy>  (15) 
C=C1NC=C(C(=O)N2CCC(N3CCCC3)C2)C1=NC(=O)[N-]c1cccc(F)c1 (protonated)
C=C1NC=C(C(=O)N2CC[C@@H](N3CCCC3)C2)C1=NC(=O)[N-]c1cccc(F)c1 (chirality)
C=C1NC=C(C(=O)N2CC[C@@H](N3CCCC3)C2)/C1=N/C(=O)[N-]c1cccc(F)c1 (cis-trans isomerization)
C=C1NC=C(C(=O)N2CC[C@@H](N3CCCC3)C2)/C1=N/C(=O)[N-]c1cccc(F)c1 (3D coordinates assigned)
C=C1NC=C(C(=O)N2CC[C@@H](N3CCCC3)C2)/C1=N/C(=O)[N-]c1cccc(F)c1 (nonaromatic ring conformer: 102.32231879725484 kcal/mol)

>  <smiles>  (15) 
C=C1NC=C(C(=O)N2CCC(N3CCCC3)C2)C1=NC(=O)Nc1cccc(F)c1

>  <score_type>  (15) 
oracle

>  <origin>  (15) 
adg

>  <m_score__min__energy>  (15) 
-10.98

>  <m_primary>  (15) 
energy

$$$$
15:0
     RDKit          3D

 43 45  0  0  0  0  0  0  0  0999 V2000
   64.5480   32.6510   46.7930 H   0  0  0  0  0  0  0  0  0  0  0  0
   64.1960   33.3750   47.4580 N   0  0  0  0  0  0  0  0  0  0  0  0
   63.3690   33.0670   48.4030 C   0  0  0  0  0  0  0  0  0  0  0  0
   63.0300   31.7730   48.7220 O   0  0  0  0  0  0  0  0  0  0  0  0
   62.1210   31.7770   49.8170 C   0  0  0  0  0  0  0  0  0  0  0  0
   62.5644   31.2705   50.6870 H   0  0  0  0  0  0  0  0  0  0  0  0
   61.1895   31.2435   49.5769 H   0  0  0  0  0  0  0  0  0  0  0  0
   61.8620   33.2790   50.1350 C   0  0  2  0  0  0  0  0  0  0  0  0
   62.0922   33.4910   51.1895 H   0  0  0  0  0  0  0  0  0  0  0  0
   60.3850   33.6940   49.9780 C   0  0  0  0  0  0  0  0  0  0  0  0
   60.3491   34.6523   49.4392 H   0  0  0  0  0  0  0  0  0  0  0  0
   59.8805   32.8847   49.4298 H   0  0  0  0  0  0  0  0  0  0  0  0
   59.6430   33.8610   51.3160 C   0  0  0  0  0  0  0  0  0  0  0  0
   60.3607   33.7606   52.1435 H   0  0  0  0  0  0  0  0  0  0  0  0
   59.1731   34.8553   51.3420 H   0  0  0  0  0  0  0  0  0  0  0  0
   58.5730   32.8110   51.4570 C   0  0  0  0  0  0  0  0  0  0  0  0
   57.5240   32.9860   52.3730 C   0  0  0  0  0  0  0  0  0  0  0  0
   57.4684   33.9067   52.9724 H   0  0  0  0  0  0  0  0  0  0  0  0
   56.5500   31.9960   52.5270 C   0  0  0  0  0  0  0  0  0  0  0  0
   55.7205   32.1514   53.2325 H   0  0  0  0  0  0  0  0  0  0  0  0
   56.6220   30.8060   51.7890 C   0  0  0  0  0  0  0  0  0  0  0  0
   55.5960   29.8120   51.9480 N   0  0  0  0  0  0  0  0  0  0  0  0
   55.8290   28.8250   51.6930 H   0  0  0  0  0  0  0  0  0  0  0  0
   54.2710   30.0830   52.4370 C   0  0  0  0  0  0  0  0  0  0  0  0
   53.7660   29.3330   53.5050 C   0  0  0  0  0  0  0  0  0  0  0  0
   54.3907   28.5569   53.9713 H   0  0  0  0  0  0  0  0  0  0  0  0
   52.4760   29.5630   53.9820 C   0  0  0  0  0  0  0  0  0  0  0  0
   52.0941   28.9768   54.8308 H   0  0  0  0  0  0  0  0  0  0  0  0
   51.6650   30.5350   53.3870 C   0  0  0  0  0  0  0  0  0  0  0  0
   50.4180   30.7260   53.8870 F   0  0  0  0  0  0  0  0  0  0  0  0
   52.1420   31.2870   52.2920 C   0  0  0  0  0  0  0  0  0  0  0  0
   51.3020   32.3170   51.6280 C   0  0  0  0  0  0  0  0  0  0  0  0
   51.4620   32.5710   50.4040 O   0  0  0  0  0  0  0  0  0  0  0  0
   50.3050   33.0340   52.3540 N   0  0  0  0  0  0  0  0  0  0  0  0
   49.9570   33.9590   52.0190 H   0  0  0  0  0  0  0  0  0  0  0  0
   53.4480   31.0430   51.8220 C   0  0  0  0  0  0  0  0  0  0  0  0
   53.8292   31.6120   50.9612 H   0  0  0  0  0  0  0  0  0  0  0  0
   57.6680   30.6360   50.8650 C   0  0  0  0  0  0  0  0  0  0  0  0
   57.7200   29.7184   50.2606 H   0  0  0  0  0  0  0  0  0  0  0  0
   58.6420   31.6260   50.7100 C   0  0  0  0  0  0  0  0  0  0  0  0
   59.4671   31.4751   49.9984 H   0  0  0  0  0  0  0  0  0  0  0  0
   62.7170   34.0180   49.2150 N   0  0  0  0  0  0  0  0  0  0  0  0
   62.8290   35.0550   49.1690 H   0  0  0  0  0  0  0  0  0  0  0  0
  1  2  1  0
  2  3  2  0
  3  4  1  0
  4  5  1  0
  5  6  1  0
  5  7  1  0
  5  8  1  0
  8  9  1  1
  8 10  1  0
 10 11  1  0
 10 12  1  0
 10 13  1  0
 13 14  1  0
 13 15  1  0
 13 16  1  0
 16 17  2  0
 17 18  1  0
 17 19  1  0
 19 20  1  0
 19 21  2  0
 21 22  1  0
 22 23  1  0
 22 24  1  0
 24 25  2  0
 25 26  1  0
 25 27  1  0
 27 28  1  0
 27 29  2  0
 29 30  1  0
 29 31  1  0
 31 32  1  0
 32 33  2  0
 32 34  1  0
 34 35  1  0
 31 36  2  0
 36 37  1  0
 21 38  1  0
 38 39  1  0
 38 40  2  0
 40 41  1  0
  8 42  1  0
 42 43  1  0
 42  3  1  0
 40 16  1  0
 36 24  1  0
M  CHG  1  34  -1
M  END
>  <UniqueID>  (16) 
15

>  <SMILES>  (16) 
[H]/N=C1\N[C@@H](CCc2ccc(Nc3ccc(F)c(C([NH-])=O)c3)cc2)CO1

>  <Energy>  (16) 
62.29812268921986

>  <Genealogy>  (16) 
N=C1NC(CCc2ccc(Nc3ccc(F)c(C([NH-])=O)c3)cc2)CO1 (protonated)
N=C1N[C@@H](CCc2ccc(Nc3ccc(F)c(C([NH-])=O)c3)cc2)CO1 (chirality)
[H]/N=C1\N[C@@H](CCc2ccc(Nc3ccc(F)c(C([NH-])=O)c3)cc2)CO1 (cis-trans isomerization)
[H]/N=C1\N[C@@H](CCc2ccc(Nc3ccc(F)c(C([NH-])=O)c3)cc2)CO1 (3D coordinates assigned)
[H]/N=C1\N[C@@H](CCc2ccc(Nc3ccc(F)c(C([NH-])=O)c3)cc2)CO1 (nonaromatic ring conformer: 62.29812268921986 kcal/mol)

>  <smiles>  (16) 
N=C1NC(CCc2ccc(Nc3ccc(F)c(C(N)=O)c3)cc2)CO1

>  <score_type>  (16) 
oracle

>  <origin>  (16) 
adg

>  <m_score__min__energy>  (16) 
-10.99

>  <m_primary>  (16) 
energy

$$$$
16:0
     RDKit          3D

 61 64  0  0  0  0  0  0  0  0999 V2000
   60.2530   29.3870   45.3010 C   0  0  0  0  0  0  0  0  0  0  0  0
   58.9990   28.5790   45.5080 C   0  0  0  0  0  0  0  0  0  0  0  0
   59.0700   27.4450   46.3360 C   0  0  0  0  0  0  0  0  0  0  0  0
   57.9370   26.6720   46.5910 C   0  0  0  0  0  0  0  0  0  0  0  0
   56.7110   27.0030   46.0130 C   0  0  0  0  0  0  0  0  0  0  0  0
   55.5570   26.2300   46.3630 N   0  0  0  0  0  0  0  0  0  0  0  0
   55.2580   24.9020   45.9080 C   0  0  0  0  0  0  0  0  0  0  0  0
   54.6510   24.0910   46.6590 O   0  0  0  0  0  0  0  0  0  0  0  0
   55.6720   24.4400   44.5330 C   0  0  0  0  0  0  0  0  0  0  0  0
   57.1790   24.3200   44.2910 C   0  0  0  0  0  0  0  0  0  0  0  0
   57.0260   22.8180   44.1050 C   0  0  0  0  0  0  0  0  0  0  0  0
   55.5280   22.9330   44.3570 C   0  0  0  0  0  0  0  0  0  0  0  0
   56.6200   28.1430   45.1990 C   0  0  0  0  0  0  0  0  0  0  0  0
   57.7460   28.9460   44.9460 C   0  0  0  0  0  0  0  0  0  0  0  0
   57.4830   30.4060   43.9700 S   0  0  0  0  0  0  0  0  0  0  0  0
   58.8250   30.9890   43.6370 O   0  0  0  0  0  0  0  0  0  0  0  0
   56.7860   30.1100   42.6730 O   0  0  0  0  0  0  0  0  0  0  0  0
   56.5850   31.5800   44.8900 N   0  0  0  0  0  0  0  0  0  0  0  0
   57.3310   32.8300   45.0400 C   0  0  0  0  0  0  0  0  0  0  0  0
   58.2440   32.7630   46.2370 C   0  0  0  0  0  0  0  0  0  0  0  0
   59.5590   32.2930   46.1080 C   0  0  0  0  0  0  0  0  0  0  0  0
   60.3870   32.1920   47.2300 C   0  0  0  0  0  0  0  0  0  0  0  0
   59.9200   32.5700   48.5000 C   0  0  0  0  0  0  0  0  0  0  0  0
   60.7880   32.4300   49.6910 C   0  0  0  0  0  0  0  0  0  0  0  0
   60.5680   31.5050   50.5200 O   0  0  0  0  0  0  0  0  0  0  0  0
   61.8770   33.3400   49.9050 N   0  0  0  0  0  0  0  0  0  0  0  0
   63.1520   33.3460   49.1840 C   0  0  0  0  0  0  0  0  0  0  0  0
   63.5760   31.9370   48.7590 C   0  0  0  0  0  0  0  0  0  0  0  0
   63.5860   31.9290   47.2400 C   0  0  0  0  0  0  0  0  0  0  0  0
   63.7500   33.3790   46.8200 C   0  0  0  0  0  0  0  0  0  0  0  0
   63.1010   34.2070   47.9180 C   0  0  0  0  0  0  0  0  0  0  0  0
   58.6170   33.0890   48.6180 C   0  0  0  0  0  0  0  0  0  0  0  0
   57.7890   33.1850   47.4970 C   0  0  0  0  0  0  0  0  0  0  0  0
   60.6781   29.6609   46.2779 H   0  0  0  0  0  0  0  0  0  0  0  0
   60.9849   28.7901   44.7370 H   0  0  0  0  0  0  0  0  0  0  0  0
   60.0119   30.3001   44.7370 H   0  0  0  0  0  0  0  0  0  0  0  0
   60.0320   27.1634   46.7890 H   0  0  0  0  0  0  0  0  0  0  0  0
   58.0107   25.7959   47.2520 H   0  0  0  0  0  0  0  0  0  0  0  0
   55.0926   25.1565   43.9323 H   0  0  0  0  0  0  0  0  0  0  0  0
   57.5341   24.8501   43.3950 H   0  0  0  0  0  0  0  0  0  0  0  0
   57.8953   24.7214   45.0230 H   0  0  0  0  0  0  0  0  0  0  0  0
   57.2848   22.4626   43.0967 H   0  0  0  0  0  0  0  0  0  0  0  0
   57.6362   22.1207   44.6978 H   0  0  0  0  0  0  0  0  0  0  0  0
   54.9047   22.6387   43.4997 H   0  0  0  0  0  0  0  0  0  0  0  0
   55.0469   22.3252   45.1375 H   0  0  0  0  0  0  0  0  0  0  0  0
   55.6518   28.4125   44.7517 H   0  0  0  0  0  0  0  0  0  0  0  0
   57.9329   33.0024   44.1356 H   0  0  0  0  0  0  0  0  0  0  0  0
   56.6167   33.6539   45.1848 H   0  0  0  0  0  0  0  0  0  0  0  0
   59.9412   32.0021   45.1184 H   0  0  0  0  0  0  0  0  0  0  0  0
   61.4135   31.8131   47.1174 H   0  0  0  0  0  0  0  0  0  0  0  0
   63.8796   33.7662   49.8940 H   0  0  0  0  0  0  0  0  0  0  0  0
   64.5798   31.7091   49.1468 H   0  0  0  0  0  0  0  0  0  0  0  0
   62.8865   31.1775   49.1561 H   0  0  0  0  0  0  0  0  0  0  0  0
   64.4252   31.3244   46.8656 H   0  0  0  0  0  0  0  0  0  0  0  0
   62.6635   31.4908   46.8313 H   0  0  0  0  0  0  0  0  0  0  0  0
   64.8165   33.6327   46.7291 H   0  0  0  0  0  0  0  0  0  0  0  0
   63.2856   33.5710   45.8415 H   0  0  0  0  0  0  0  0  0  0  0  0
   63.6579   35.1433   48.0701 H   0  0  0  0  0  0  0  0  0  0  0  0
   62.0675   34.4801   47.6585 H   0  0  0  0  0  0  0  0  0  0  0  0
   58.2482   33.4213   49.5996 H   0  0  0  0  0  0  0  0  0  0  0  0
   56.7733   33.5941   47.6019 H   0  0  0  0  0  0  0  0  0  0  0  0
  1  2  1  0
  2  3  2  0
  3  4  1  0
  4  5  2  0
  5  6  1  0
  6  7  1  0
  7  8  2  0
  7  9  1  0
  9 10  1  0
 10 11  1  0
 11 12  1  0
  5 13  1  0
 13 14  2  0
 14 15  1  0
 15 16  2  0
 15 17  2  0
 15 18  1  0
 18 19  1  0
 19 20  1  0
 20 21  2  0
 21 22  1  0
 22 23  2  0
 23 24  1  0
 24 25  2  0
 24 26  1  0
 26 27  1  0
 27 28  1  0
 28 29  1  0
 29 30  1  0
 30 31  1  0
 23 32  1  0
 32 33  2  0
 14  2  1  0
 33 20  1  0
 12  9  1  0
 31 27  1  0
  1 34  1  0
  1 35  1  0
  1 36  1  0
  3 37  1  0
  4 38  1  0
  9 39  1  0
 10 40  1  0
 10 41  1  0
 11 42  1  0
 11 43  1  0
 12 44  1  0
 12 45  1  0
 13 46  1  0
 19 47  1  0
 19 48  1  0
 21 49  1  0
 22 50  1  0
 27 51  1  0
 28 52  1  0
 28 53  1  0
 29 54  1  0
 29 55  1  0
 30 56  1  0
 30 57  1  0
 31 58  1  0
 31 59  1  0
 32 60  1  0
 33 61  1  0
M  CHG  3   6  -1  18  -1  26  -1
M  END
>  <UniqueID>  (17) 
16

>  <SMILES>  (17) 
Cc1ccc([N-]C(=O)C2CCC2)cc1S(=O)(=O)[N-]Cc1ccc(C(=O)[N-]C2CCCC2)cc1

>  <Energy>  (17) 
130.32465109383833

>  <Genealogy>  (17) 
Cc1ccc([N-]C(=O)C2CCC2)cc1S(=O)(=O)[N-]Cc1ccc(C(=O)[N-]C2CCCC2)cc1 (protonated)
Cc1ccc([N-]C(=O)C2CCC2)cc1S(=O)(=O)[N-]Cc1ccc(C(=O)[N-]C2CCCC2)cc1 (3D coordinates assigned)
Cc1ccc([N-]C(=O)C2CCC2)cc1S(=O)(=O)[N-]Cc1ccc(C(=O)[N-]C2CCCC2)cc1 (nonaromatic ring conformer: 130.32465109383833 kcal/mol)

>  <smiles>  (17) 
Cc1ccc(NC(=O)C2CCC2)cc1S(=O)(=O)NCc1ccc(C(=O)NC2CCCC2)cc1

>  <score_type>  (17) 
oracle

>  <origin>  (17) 
adg

>  <m_score__min__energy>  (17) 
-14.619999999999999

>  <m_primary>  (17) 
energy

$$$$
17:0
     RDKit          3D

 45 48  0  0  0  0  0  0  0  0999 V2000
   54.7290   28.9680   45.4120 H   0  0  0  0  0  0  0  0  0  0  0  0
   55.5800   28.5130   45.1060 O   0  0  0  0  0  0  0  0  0  0  0  0
   55.9560   27.2840   45.6380 C   0  0  0  0  0  0  0  0  0  0  0  0
   55.0840   26.3230   45.9890 N   0  0  0  0  0  0  0  0  0  0  0  0
   55.8920   25.3150   46.3770 C   0  0  0  0  0  0  0  0  0  0  0  0
   55.4500   24.2080   46.7800 O   0  0  0  0  0  0  0  0  0  0  0  0
   57.2130   25.5810   46.2880 N   0  0  0  0  0  0  0  0  0  0  0  0
   57.2480   26.8490   45.8400 C   0  0  0  0  0  0  0  0  0  0  0  0
   58.4990   27.5550   45.5100 C   0  0  0  0  0  0  0  0  0  0  0  0
   59.3966   26.9510   45.3114 H   0  0  0  0  0  0  0  0  0  0  0  0
   58.6090   28.8960   45.4370 C   0  0  0  0  0  0  0  0  0  0  0  0
   58.0350   29.7190   44.4770 C   0  0  0  0  0  0  0  0  0  0  0  0
   57.4301   29.4002   43.6154 H   0  0  0  0  0  0  0  0  0  0  0  0
   58.3710   31.0150   44.8140 C   0  0  0  0  0  0  0  0  0  0  0  0
   57.9260   32.2340   44.0650 C   0  0  0  0  0  0  0  0  0  0  0  0
   57.6393   33.0193   44.7799 H   0  0  0  0  0  0  0  0  0  0  0  0
   58.7497   32.5968   43.4326 H   0  0  0  0  0  0  0  0  0  0  0  0
   57.0623   31.9808   43.4326 H   0  0  0  0  0  0  0  0  0  0  0  0
   59.1100   31.0320   45.9460 N   0  0  0  0  0  0  0  0  0  0  0  0
   59.6200   32.2080   46.5970 C   0  0  0  0  0  0  0  0  0  0  0  0
   60.9980   32.3490   46.8130 C   0  0  0  0  0  0  0  0  0  0  0  0
   61.6849   31.5559   46.4824 H   0  0  0  0  0  0  0  0  0  0  0  0
   61.5110   33.4940   47.4480 C   0  0  0  0  0  0  0  0  0  0  0  0
   62.9670   33.6220   47.6670 C   0  0  0  0  0  0  0  0  0  0  0  0
   63.6590   34.2990   46.8590 O   0  0  0  0  0  0  0  0  0  0  0  0
   63.6090   33.0340   48.8020 N   0  0  0  0  0  0  0  0  0  0  0  0
   63.2470   32.3730   50.0720 C   0  0  0  0  0  0  0  0  0  0  0  0
   62.5550   32.9734   50.6808 H   0  0  0  0  0  0  0  0  0  0  0  0
   62.7122   31.4142   50.0028 H   0  0  0  0  0  0  0  0  0  0  0  0
   64.6290   32.3410   50.6340 C   0  0  0  0  0  0  0  0  0  0  0  0
   64.7884   32.9485   51.5371 H   0  0  0  0  0  0  0  0  0  0  0  0
   65.1180   31.4305   51.0108 H   0  0  0  0  0  0  0  0  0  0  0  0
   64.9800   33.0020   49.3430 C   0  0  0  0  0  0  0  0  0  0  0  0
   65.4043   34.0072   49.4829 H   0  0  0  0  0  0  0  0  0  0  0  0
   65.7496   32.5157   48.7256 H   0  0  0  0  0  0  0  0  0  0  0  0
   60.6200   34.4840   47.8900 C   0  0  0  0  0  0  0  0  0  0  0  0
   61.0063   35.3763   48.4044 H   0  0  0  0  0  0  0  0  0  0  0  0
   59.2450   34.3440   47.6810 C   0  0  0  0  0  0  0  0  0  0  0  0
   58.5553   35.1278   48.0276 H   0  0  0  0  0  0  0  0  0  0  0  0
   58.7440   33.2130   47.0340 C   0  0  0  0  0  0  0  0  0  0  0  0
   57.4050   33.0810   46.8550 F   0  0  0  0  0  0  0  0  0  0  0  0
   59.2610   29.7420   46.3410 C   0  0  0  0  0  0  0  0  0  0  0  0
   59.9190   29.3700   47.4500 C   0  0  0  0  0  0  0  0  0  0  0  0
   60.3953   30.1293   48.0877 H   0  0  0  0  0  0  0  0  0  0  0  0
   59.9820   28.3058   47.7213 H   0  0  0  0  0  0  0  0  0  0  0  0
  1  2  1  0
  2  3  1  0
  3  4  1  0
  4  5  1  0
  5  6  2  0
  5  7  1  0
  7  8  1  0
  8  9  1  0
  9 10  1  0
  9 11  2  0
 11 12  1  0
 12 13  1  0
 12 14  2  0
 14 15  1  0
 15 16  1  0
 15 17  1  0
 15 18  1  0
 14 19  1  0
 19 20  1  0
 20 21  2  0
 21 22  1  0
 21 23  1  0
 23 24  1  0
 24 25  2  0
 24 26  1  0
 26 27  1  0
 27 28  1  0
 27 29  1  0
 27 30  1  0
 30 31  1  0
 30 32  1  0
 30 33  1  0
 33 34  1  0
 33 35  1  0
 23 36  2  0
 36 37  1  0
 36 38  1  0
 38 39  1  0
 38 40  2  0
 40 41  1  0
 19 42  1  0
 42 43  2  0
 43 44  1  0
 43 45  1  0
  8  3  2  0
 42 11  1  0
 40 20  1  0
 33 26  1  0
M  CHG  2   4  -1   7  -1
M  END
>  <UniqueID>  (18) 
17

>  <SMILES>  (18) 
C=c1/c(=C/c2[n-]c(=O)[n-]c2O)cc(C)n1-c1cc(C(=O)N2CCC2)ccc1F

>  <Energy>  (18) 
164.60698457536483

>  <Genealogy>  (18) 
C=c1c(=Cc2[n-]c(=O)[n-]c2O)cc(C)n1-c1cc(C(=O)N2CCC2)ccc1F (protonated)
C=c1/c(=C/c2[n-]c(=O)[n-]c2O)cc(C)n1-c1cc(C(=O)N2CCC2)ccc1F (cis-trans isomerization)
C=c1/c(=C/c2[n-]c(=O)[n-]c2O)cc(C)n1-c1cc(C(=O)N2CCC2)ccc1F (3D coordinates assigned)
C=c1/c(=C/c2[n-]c(=O)[n-]c2O)cc(C)n1-c1cc(C(=O)N2CCC2)ccc1F (nonaromatic ring conformer: 164.60698457536483 kcal/mol)

>  <smiles>  (18) 
C=c1c(=Cc2[nH]c(=O)[nH]c2O)cc(C)n1-c1cc(C(=O)N2CCC2)ccc1F

>  <score_type>  (18) 
oracle

>  <origin>  (18) 
adg

>  <m_score__min__energy>  (18) 
-13.67

>  <m_primary>  (18) 
energy

$$$$
18:0
     RDKit          3D

 47 49  0  0  0  0  0  0  0  0999 V2000
   53.6640   23.8340   45.0040 C   0  0  0  0  0  0  0  0  0  0  0  0
   55.0830   24.2150   45.1160 N   0  0  0  0  0  0  0  0  0  0  0  0
   55.4090   25.4450   45.6190 C   0  0  0  0  0  0  0  0  0  0  0  0
   54.3980   26.3410   45.9660 O   0  0  0  0  0  0  0  0  0  0  0  0
   56.7540   25.8170   45.7770 C   0  0  0  0  0  0  0  0  0  0  0  0
   57.1200   27.1490   46.3310 C   0  0  0  0  0  0  0  0  0  0  0  0
   57.7010   27.2280   47.4490 O   0  0  0  0  0  0  0  0  0  0  0  0
   56.7600   28.3460   45.6270 N   0  0  0  0  0  0  0  0  0  0  0  0
   57.4440   29.6070   45.6740 C   0  0  0  0  0  0  0  0  0  0  0  0
   58.6030   29.7920   46.4500 C   0  0  0  0  0  0  0  0  0  0  0  0
   59.2600   31.0310   46.4600 C   0  0  0  0  0  0  0  0  0  0  0  0
   60.7080   31.2660   47.4340 S   0  0  0  0  0  0  0  0  0  0  0  0
   60.5280   30.6040   48.7730 O   0  0  0  0  0  0  0  0  0  0  0  0
   61.8700   30.6320   46.7210 O   0  0  0  0  0  0  0  0  0  0  0  0
   60.9910   32.9830   47.6460 N   0  0  0  0  0  0  0  0  0  0  0  0
   62.0030   33.4890   46.7020 C   0  0  0  0  0  0  0  0  0  0  0  0
   63.4380   33.0640   47.0940 C   0  0  0  0  0  0  0  0  0  0  0  0
   63.5600   32.6480   48.4440 O   0  0  0  0  0  0  0  0  0  0  0  0
   62.8250   33.5040   49.2880 C   0  0  0  0  0  0  0  0  0  0  0  0
   61.3150   33.3180   49.0520 C   0  0  0  0  0  0  0  0  0  0  0  0
   58.7720   32.0810   45.6710 C   0  0  0  0  0  0  0  0  0  0  0  0
   57.6380   31.8940   44.8800 C   0  0  0  0  0  0  0  0  0  0  0  0
   56.9780   30.6610   44.8750 C   0  0  0  0  0  0  0  0  0  0  0  0
   55.8530   30.4890   44.0760 O   0  0  0  0  0  0  0  0  0  0  0  0
   57.7420   24.8900   45.4000 C   0  0  0  0  0  0  0  0  0  0  0  0
   58.9620   25.1790   45.5560 O   0  0  0  0  0  0  0  0  0  0  0  0
   57.3890   23.6680   44.8900 N   0  0  0  0  0  0  0  0  0  0  0  0
   58.4340   22.6900   44.5350 C   0  0  0  0  0  0  0  0  0  0  0  0
   56.0680   23.3190   44.7900 C   0  0  0  0  0  0  0  0  0  0  0  0
   55.7540   22.1580   44.3990 O   0  0  0  0  0  0  0  0  0  0  0  0
   53.2348   23.7188   46.0102 H   0  0  0  0  0  0  0  0  0  0  0  0
   53.1161   24.6168   44.4591 H   0  0  0  0  0  0  0  0  0  0  0  0
   53.5819   22.8820   44.4591 H   0  0  0  0  0  0  0  0  0  0  0  0
   58.9962   28.9598   47.0524 H   0  0  0  0  0  0  0  0  0  0  0  0
   61.7792   33.0956   45.6994 H   0  0  0  0  0  0  0  0  0  0  0  0
   61.9609   34.5880   46.7216 H   0  0  0  0  0  0  0  0  0  0  0  0
   63.7429   32.2301   46.4446 H   0  0  0  0  0  0  0  0  0  0  0  0
   64.0804   33.9483   46.9706 H   0  0  0  0  0  0  0  0  0  0  0  0
   63.0602   33.2695   50.3367 H   0  0  0  0  0  0  0  0  0  0  0  0
   63.0967   34.5464   49.0654 H   0  0  0  0  0  0  0  0  0  0  0  0
   60.9557   32.5042   49.6990 H   0  0  0  0  0  0  0  0  0  0  0  0
   60.8228   34.2733   49.2868 H   0  0  0  0  0  0  0  0  0  0  0  0
   59.2839   33.0546   45.6752 H   0  0  0  0  0  0  0  0  0  0  0  0
   57.2616   32.7195   44.2580 H   0  0  0  0  0  0  0  0  0  0  0  0
   58.8761   22.2762   45.4533 H   0  0  0  0  0  0  0  0  0  0  0  0
   57.9890   21.8764   43.9434 H   0  0  0  0  0  0  0  0  0  0  0  0
   59.2164   23.1879   43.9434 H   0  0  0  0  0  0  0  0  0  0  0  0
  1  2  1  0
  2  3  1  0
  3  4  1  0
  3  5  2  0
  5  6  1  0
  6  7  2  0
  6  8  1  0
  8  9  1  0
  9 10  2  0
 10 11  1  0
 11 12  1  0
 12 13  2  0
 12 14  2  0
 12 15  1  0
 15 16  1  0
 16 17  1  0
 17 18  1  0
 18 19  1  0
 19 20  1  0
 11 21  2  0
 21 22  1  0
 22 23  2  0
 23 24  1  0
  5 25  1  0
 25 26  2  0
 25 27  1  0
 27 28  1  0
 27 29  1  0
 29 30  2  0
 29  2  1  0
 23  9  1  0
 20 15  1  0
  1 31  1  0
  1 32  1  0
  1 33  1  0
 10 34  1  0
 16 35  1  0
 16 36  1  0
 17 37  1  0
 17 38  1  0
 19 39  1  0
 19 40  1  0
 20 41  1  0
 20 42  1  0
 21 43  1  0
 22 44  1  0
 28 45  1  0
 28 46  1  0
 28 47  1  0
M  CHG  3   4  -1   8  -1  24  -1
M  END
>  <UniqueID>  (19) 
18

>  <SMILES>  (19) 
Cn1c([O-])c(C(=O)[N-]c2cc(S(=O)(=O)N3CCOCC3)ccc2[O-])c(=O)n(C)c1=O

>  <Energy>  (19) 
75.39234364614427

>  <Genealogy>  (19) 
Cn1c([O-])c(C(=O)[N-]c2cc(S(=O)(=O)N3CCOCC3)ccc2[O-])c(=O)n(C)c1=O (protonated)
Cn1c([O-])c(C(=O)[N-]c2cc(S(=O)(=O)N3CCOCC3)ccc2[O-])c(=O)n(C)c1=O (3D coordinates assigned)
Cn1c([O-])c(C(=O)[N-]c2cc(S(=O)(=O)N3CCOCC3)ccc2[O-])c(=O)n(C)c1=O (nonaromatic ring conformer: 75.39234364614427 kcal/mol)

>  <smiles>  (19) 
Cn1c(O)c(C(=O)Nc2cc(S(=O)(=O)N3CCOCC3)ccc2O)c(=O)n(C)c1=O

>  <score_type>  (19) 
oracle

>  <origin>  (19) 
adg

>  <m_score__min__energy>  (19) 
-15.25

>  <m_primary>  (19) 
energy

$$$$
19:0
     RDKit          3D

 51 54  0  0  0  0  0  0  0  0999 V2000
   56.2060   30.2010   43.1620 O   0  0  0  0  0  0  0  0  0  0  0  0
   56.5250   30.1810   44.3810 C   0  0  0  0  0  0  0  0  0  0  0  0
   56.0690   29.0880   45.1900 N   0  0  0  0  0  0  0  0  0  0  0  0
   56.8420   27.9420   45.5770 C   0  0  0  0  0  0  0  0  0  0  0  0
   58.2380   28.0130   45.4820 C   0  0  0  0  0  0  0  0  0  0  0  0
   59.0300   26.9230   45.8550 C   0  0  0  0  0  0  0  0  0  0  0  0
   58.4310   25.7470   46.3100 C   0  0  0  0  0  0  0  0  0  0  0  0
   57.0380   25.6530   46.3800 C   0  0  0  0  0  0  0  0  0  0  0  0
   56.2400   26.7380   46.0020 C   0  0  0  0  0  0  0  0  0  0  0  0
   54.8560   26.6000   46.0260 O   0  0  0  0  0  0  0  0  0  0  0  0
   57.3960   31.2520   44.9220 C   0  0  0  0  0  0  0  0  0  0  0  0
   56.9430   32.5800   44.9460 C   0  0  0  0  0  0  0  0  0  0  0  0
   57.7540   33.5970   45.4590 C   0  0  0  0  0  0  0  0  0  0  0  0
   59.0340   33.3040   45.9590 C   0  0  0  0  0  0  0  0  0  0  0  0
   59.8980   34.3780   46.5000 C   0  0  0  0  0  0  0  0  0  0  0  0
   59.9960   35.4690   45.8760 O   0  0  0  0  0  0  0  0  0  0  0  0
   60.6230   34.2030   47.7330 N   0  0  0  0  0  0  0  0  0  0  0  0
   62.0480   33.8660   47.6850 C   0  0  0  0  0  0  0  0  0  0  0  0
   62.4820   33.0900   48.9370 C   0  0  0  0  0  0  0  0  0  0  0  0
   61.8390   31.6880   48.9910 C   0  0  0  0  0  0  0  0  0  0  0  0
   60.5100   31.6360   49.6520 N   0  0  0  0  0  0  0  0  0  0  0  0
   60.0120   30.2520   49.6930 C   0  0  0  0  0  0  0  0  0  0  0  0
   60.2510   29.4790   48.4050 C   0  0  0  0  0  0  0  0  0  0  0  0
   58.8610   29.9910   48.7340 C   0  0  0  0  0  0  0  0  0  0  0  0
   59.4590   32.5220   49.0980 C   0  0  0  0  0  0  0  0  0  0  0  0
   59.8830   33.9940   48.9830 C   0  0  0  0  0  0  0  0  0  0  0  0
   59.4980   31.9800   45.9060 C   0  0  0  0  0  0  0  0  0  0  0  0
   58.6880   30.9630   45.3930 C   0  0  0  0  0  0  0  0  0  0  0  0
   58.7142   28.9327   45.1114 H   0  0  0  0  0  0  0  0  0  0  0  0
   60.1259   26.9921   45.7899 H   0  0  0  0  0  0  0  0  0  0  0  0
   59.0555   24.8939   46.6136 H   0  0  0  0  0  0  0  0  0  0  0  0
   56.5681   24.7233   46.7333 H   0  0  0  0  0  0  0  0  0  0  0  0
   55.9426   32.8227   44.5584 H   0  0  0  0  0  0  0  0  0  0  0  0
   57.3873   34.6340   45.4712 H   0  0  0  0  0  0  0  0  0  0  0  0
   62.2398   33.2473   46.7959 H   0  0  0  0  0  0  0  0  0  0  0  0
   62.6241   34.8020   47.6405 H   0  0  0  0  0  0  0  0  0  0  0  0
   63.5764   32.9801   48.9267 H   0  0  0  0  0  0  0  0  0  0  0  0
   62.1507   33.6535   49.8217 H   0  0  0  0  0  0  0  0  0  0  0  0
   61.7221   31.3254   47.9591 H   0  0  0  0  0  0  0  0  0  0  0  0
   62.5107   31.0631   49.5979 H   0  0  0  0  0  0  0  0  0  0  0  0
   60.1975   30.0669   50.7613 H   0  0  0  0  0  0  0  0  0  0  0  0
   60.8266   29.9375   47.5873 H   0  0  0  0  0  0  0  0  0  0  0  0
   60.6789   28.4968   48.1558 H   0  0  0  0  0  0  0  0  0  0  0  0
   58.4293   30.8204   48.1547 H   0  0  0  0  0  0  0  0  0  0  0  0
   57.8646   29.5333   48.8218 H   0  0  0  0  0  0  0  0  0  0  0  0
   59.1933   32.1586   48.0943 H   0  0  0  0  0  0  0  0  0  0  0  0
   58.6109   32.4877   49.7977 H   0  0  0  0  0  0  0  0  0  0  0  0
   58.9878   34.6332   48.9884 H   0  0  0  0  0  0  0  0  0  0  0  0
   60.5291   34.2530   49.8347 H   0  0  0  0  0  0  0  0  0  0  0  0
   60.5077   31.7410   46.2713 H   0  0  0  0  0  0  0  0  0  0  0  0
   59.0642   29.9299   45.3577 H   0  0  0  0  0  0  0  0  0  0  0  0
  1  2  2  0
  2  3  1  0
  3  4  1  0
  4  5  2  0
  5  6  1  0
  6  7  2  0
  7  8  1  0
  8  9  2  0
  9 10  1  0
  2 11  1  0
 11 12  2  0
 12 13  1  0
 13 14  2  0
 14 15  1  0
 15 16  2  0
 15 17  1  0
 17 18  1  0
 18 19  1  0
 19 20  1  0
 20 21  1  0
 21 22  1  0
 22 23  1  0
 23 24  1  0
 21 25  1  0
 25 26  1  0
 14 27  1  0
 27 28  2  0
  9  4  1  0
 28 11  1  0
 26 17  1  0
 24 22  1  0
  5 29  1  0
  6 30  1  0
  7 31  1  0
  8 32  1  0
 12 33  1  0
 13 34  1  0
 18 35  1  0
 18 36  1  0
 19 37  1  0
 19 38  1  0
 20 39  1  0
 20 40  1  0
 22 41  1  0
 23 42  1  0
 23 43  1  0
 24 44  1  0
 24 45  1  0
 25 46  1  0
 25 47  1  0
 26 48  1  0
 26 49  1  0
 27 50  1  0
 28 51  1  0
M  CHG  2   3  -1  10  -1
M  END
>  <UniqueID>  (20) 
19

>  <SMILES>  (20) 
O=C([N-]c1ccccc1[O-])c1ccc(C(=O)N2CCCN(C3CC3)CC2)cc1

>  <Energy>  (20) 
339.3481833263542

>  <Genealogy>  (20) 
O=C([N-]c1ccccc1[O-])c1ccc(C(=O)N2CCCN(C3CC3)CC2)cc1 (protonated)
O=C([N-]c1ccccc1[O-])c1ccc(C(=O)N2CCCN(C3CC3)CC2)cc1 (3D coordinates assigned)
O=C([N-]c1ccccc1[O-])c1ccc(C(=O)N2CCCN(C3CC3)CC2)cc1 (nonaromatic ring conformer: 339.3481833263542 kcal/mol)

>  <smiles>  (20) 
O=C(Nc1ccccc1O)c1ccc(C(=O)N2CCCN(C3CC3)CC2)cc1

>  <score_type>  (20) 
oracle

>  <origin>  (20) 
adg

>  <m_score__min__energy>  (20) 
-13.529999999999999

>  <m_primary>  (20) 
energy

$$$$
20:0
     RDKit          3D

 62 65  0  0  0  0  0  0  0  0999 V2000
   57.0200   26.0000   45.6180 C   0  0  0  0  0  0  0  0  0  0  0  0
   57.0900   27.0950   46.3550 C   0  0  0  0  0  0  0  0  0  0  0  0
   58.2350   27.9870   46.3390 C   0  0  0  0  0  0  0  0  0  0  0  0
   58.7410   28.3920   47.5530 C   0  0  0  0  0  0  0  0  0  0  0  0
   59.8420   29.2570   47.6470 C   0  0  0  0  0  0  0  0  0  0  0  0
   60.3400   29.6300   49.0180 C   0  0  0  0  0  0  0  0  0  0  0  0
   59.3190   30.3600   49.7820 C   0  0  0  0  0  0  0  0  0  0  0  0
   58.7630   29.7600   50.9110 C   0  0  0  0  0  0  0  0  0  0  0  0
   57.8290   30.4010   51.7050 C   0  0  0  0  0  0  0  0  0  0  0  0
   57.4580   31.6630   51.3440 C   0  0  0  0  0  0  0  0  0  0  0  0
   58.0000   32.2470   50.2410 C   0  0  0  0  0  0  0  0  0  0  0  0
   58.9440   31.6270   49.4200 C   0  0  0  0  0  0  0  0  0  0  0  0
   59.3920   32.3600   48.2610 C   0  0  0  0  0  0  0  0  0  0  0  0
   60.5890   32.9610   48.0700 C   0  0  0  0  0  0  0  0  0  0  0  0
   60.9360   33.6820   46.9180 C   0  0  0  0  0  0  0  0  0  0  0  0
   62.1860   34.2150   46.8910 O   0  0  0  0  0  0  0  0  0  0  0  0
   63.4290   33.6450   46.7180 C   0  0  0  0  0  0  0  0  0  0  0  0
   63.6790   32.3890   47.4970 C   0  0  0  0  0  0  0  0  0  0  0  0
   63.5990   32.6840   48.9200 N   0  0  0  0  0  0  0  0  0  0  0  0
   64.9030   33.0840   49.4320 C   0  0  0  0  0  0  0  0  0  0  0  0
   63.0990   31.5380   49.6600 C   0  0  0  0  0  0  0  0  0  0  0  0
   59.9750   33.7600   45.9520 C   0  0  0  0  0  0  0  0  0  0  0  0
   58.7360   33.1820   46.0660 C   0  0  0  0  0  0  0  0  0  0  0  0
   57.7040   33.2870   45.0570 C   0  0  0  0  0  0  0  0  0  0  0  0
   56.8200   34.1860   45.2420 O   0  0  0  0  0  0  0  0  0  0  0  0
   57.5790   32.5030   43.9020 N   0  0  0  0  0  0  0  0  0  0  0  0
   57.0740   31.3000   44.0250 C   0  0  0  0  0  0  0  0  0  0  0  0
   56.0500   31.0440   44.8590 N   0  0  0  0  0  0  0  0  0  0  0  0
   55.7830   29.7570   44.7310 N   0  0  0  0  0  0  0  0  0  0  0  0
   56.6130   29.2260   43.8480 N   0  0  0  0  0  0  0  0  0  0  0  0
   57.4390   30.1710   43.3840 N   0  0  0  0  0  0  0  0  0  0  0  0
   58.4600   32.4880   47.2170 C   0  0  0  0  0  0  0  0  0  0  0  0
   60.4360   29.7180   46.4970 C   0  0  0  0  0  0  0  0  0  0  0  0
   59.8890   29.2820   45.3000 C   0  0  0  0  0  0  0  0  0  0  0  0
   58.8320   28.4510   45.2340 N   0  0  0  0  0  0  0  0  0  0  0  0
   56.1276   25.3589   45.6689 H   0  0  0  0  0  0  0  0  0  0  0  0
   57.8542   25.7298   44.9538 H   0  0  0  0  0  0  0  0  0  0  0  0
   56.2417   27.3416   47.0105 H   0  0  0  0  0  0  0  0  0  0  0  0
   58.2685   28.0269   48.4769 H   0  0  0  0  0  0  0  0  0  0  0  0
   60.6064   28.7126   49.5633 H   0  0  0  0  0  0  0  0  0  0  0  0
   61.2164   30.2843   48.9005 H   0  0  0  0  0  0  0  0  0  0  0  0
   59.0781   28.7410   51.1799 H   0  0  0  0  0  0  0  0  0  0  0  0
   57.4021   29.9120   52.5930 H   0  0  0  0  0  0  0  0  0  0  0  0
   56.7182   32.2104   51.9466 H   0  0  0  0  0  0  0  0  0  0  0  0
   57.6760   33.2656   49.9813 H   0  0  0  0  0  0  0  0  0  0  0  0
   61.3390   32.8788   48.8704 H   0  0  0  0  0  0  0  0  0  0  0  0
   63.5481   33.4103   45.6499 H   0  0  0  0  0  0  0  0  0  0  0  0
   64.1534   34.3822   47.0945 H   0  0  0  0  0  0  0  0  0  0  0  0
   62.9212   31.6362   47.2342 H   0  0  0  0  0  0  0  0  0  0  0  0
   64.6786   31.9980   47.2565 H   0  0  0  0  0  0  0  0  0  0  0  0
   64.8827   33.0778   50.5318 H   0  0  0  0  0  0  0  0  0  0  0  0
   65.6688   32.3795   49.0754 H   0  0  0  0  0  0  0  0  0  0  0  0
   65.1420   34.0968   49.0754 H   0  0  0  0  0  0  0  0  0  0  0  0
   63.1840   31.7329   50.7392 H   0  0  0  0  0  0  0  0  0  0  0  0
   62.0440   31.3659   49.4005 H   0  0  0  0  0  0  0  0  0  0  0  0
   63.6904   30.6475   49.4005 H   0  0  0  0  0  0  0  0  0  0  0  0
   60.2065   34.3166   45.0319 H   0  0  0  0  0  0  0  0  0  0  0  0
   56.6250   28.2130   43.5540 H   0  0  0  0  0  0  0  0  0  0  0  0
   58.1990   30.0720   42.6790 H   0  0  0  0  0  0  0  0  0  0  0  0
   57.4732   32.0145   47.3266 H   0  0  0  0  0  0  0  0  0  0  0  0
   61.3005   30.3976   46.5246 H   0  0  0  0  0  0  0  0  0  0  0  0
   60.3401   29.6317   44.3597 H   0  0  0  0  0  0  0  0  0  0  0  0
  1  2  2  0
  2  3  1  0
  3  4  2  0
  4  5  1  0
  5  6  1  0
  6  7  1  0
  7  8  2  0
  8  9  1  0
  9 10  2  0
 10 11  1  0
 11 12  2  0
 12 13  1  0
 13 14  2  0
 14 15  1  0
 15 16  1  0
 16 17  1  0
 17 18  1  0
 18 19  1  0
 19 20  1  0
 19 21  1  0
 15 22  2  0
 22 23  1  0
 23 24  1  0
 24 25  2  0
 24 26  1  0
 26 27  2  3
 27 28  1  0
 28 29  2  0
 29 30  1  0
 30 31  1  0
 23 32  2  0
  5 33  2  0
 33 34  1  0
 34 35  2  0
 35  3  1  0
 12  7  1  0
 32 13  1  0
 31 27  1  0
  1 36  1  0
  1 37  1  0
  2 38  1  0
  4 39  1  0
  6 40  1  0
  6 41  1  0
  8 42  1  0
  9 43  1  0
 10 44  1  0
 11 45  1  0
 14 46  1  0
 17 47  1  0
 17 48  1  0
 18 49  1  0
 18 50  1  0
 20 51  1  0
 20 52  1  0
 20 53  1  0
 21 54  1  0
 21 55  1  0
 21 56  1  0
 22 57  1  0
 30 58  1  0
 31 59  1  0
 32 60  1  0
 33 61  1  0
 34 62  1  0
M  END
>  <smiles>  (21) 
C=Cc1cc(Cc2ccccc2-c2cc(OCCN(C)C)cc(C(=O)N=c3nn[nH][nH]3)c2)ccn1

>  <score_type>  (21) 
oracle

>  <origin>  (21) 
adg

>  <m_score__min__energy>  (21) 
-10.699999999999999

>  <m_primary>  (21) 
energy

$$$$
21:0
     RDKit          3D

 53 56  0  0  0  0  0  0  0  0999 V2000
   57.7252   29.8924   54.1718 H   0  0  0  0  0  0  0  0  0  0  0  0
   56.6490   29.7140   54.3130 C   0  0  0  0  0  0  0  0  0  0  0  0
   56.2926   29.1799   55.2061 H   0  0  0  0  0  0  0  0  0  0  0  0
   55.7750   30.1460   53.4000 C   0  0  0  0  0  0  0  0  0  0  0  0
   56.0560   30.8560   52.2380 C   0  0  0  0  0  0  0  0  0  0  0  0
   57.3620   31.2710   51.6900 C   0  0  0  0  0  0  0  0  0  0  0  0
   57.7190   32.4760   51.7970 O   0  0  0  0  0  0  0  0  0  0  0  0
   58.2030   30.3500   50.9770 N   0  0  0  0  0  0  0  0  0  0  0  0
   58.9710   29.3670   51.7230 C   0  0  0  0  0  0  0  0  0  0  0  0
   58.7142   29.4181   52.7914 H   0  0  0  0  0  0  0  0  0  0  0  0
   58.7514   28.3478   51.3724 H   0  0  0  0  0  0  0  0  0  0  0  0
   60.4360   29.7060   51.5220 C   0  0  0  0  0  0  0  0  0  0  0  0
   60.7702   30.3948   52.3119 H   0  0  0  0  0  0  0  0  0  0  0  0
   61.0466   28.7922   51.5695 H   0  0  0  0  0  0  0  0  0  0  0  0
   60.6210   30.5020   49.8900 S   0  0  0  0  0  0  0  0  0  0  0  0
   58.8130   30.6520   49.6750 C   0  0  2  0  0  0  0  0  0  0  0  0
   58.4109   29.9406   48.9387 H   0  0  0  0  0  0  0  0  0  0  0  0
   58.4600   32.0490   49.1030 C   0  0  0  0  0  0  0  0  0  0  0  0
   57.4921   31.9845   48.5843 H   0  0  0  0  0  0  0  0  0  0  0  0
   58.4188   32.7563   49.9445 H   0  0  0  0  0  0  0  0  0  0  0  0
   59.5230   32.5610   48.1080 C   0  0  0  0  0  0  0  0  0  0  0  0
   59.9222   33.5181   48.4750 H   0  0  0  0  0  0  0  0  0  0  0  0
   60.3165   31.8026   48.0359 H   0  0  0  0  0  0  0  0  0  0  0  0
   58.9580   32.7650   46.7550 N   0  0  0  0  0  0  0  0  0  0  0  0
   58.4140   31.5050   46.1990 C   0  0  0  0  0  0  0  0  0  0  0  0
   59.2272   30.7677   46.1272 H   0  0  0  0  0  0  0  0  0  0  0  0
   57.6170   31.1523   46.8702 H   0  0  0  0  0  0  0  0  0  0  0  0
   57.8000   31.7120   44.7920 C   0  0  0  0  0  0  0  0  0  0  0  0
   58.3407   31.0785   44.0734 H   0  0  0  0  0  0  0  0  0  0  0  0
   56.7356   31.4399   44.8461 H   0  0  0  0  0  0  0  0  0  0  0  0
   57.8880   33.1680   44.3280 C   0  0  0  0  0  0  0  0  0  0  0  0
   58.9401   33.4227   44.1325 H   0  0  0  0  0  0  0  0  0  0  0  0
   57.2926   33.2857   43.4106 H   0  0  0  0  0  0  0  0  0  0  0  0
   57.3330   34.1080   45.4030 C   0  0  0  0  0  0  0  0  0  0  0  0
   57.6000   35.1422   45.1403 H   0  0  0  0  0  0  0  0  0  0  0  0
   56.2422   33.9706   45.4387 H   0  0  0  0  0  0  0  0  0  0  0  0
   57.8940   33.7920   46.8060 C   0  0  0  0  0  0  0  0  0  0  0  0
   58.3097   34.7138   47.2390 H   0  0  0  0  0  0  0  0  0  0  0  0
   57.0713   33.4009   47.4226 H   0  0  0  0  0  0  0  0  0  0  0  0
   54.8370   31.1150   51.6350 C   0  0  0  0  0  0  0  0  0  0  0  0
   54.6712   31.6653   50.6971 H   0  0  0  0  0  0  0  0  0  0  0  0
   53.8640   30.5440   52.4460 C   0  0  0  0  0  0  0  0  0  0  0  0
   52.5340   30.5180   52.2470 C   0  0  0  0  0  0  0  0  0  0  0  0
   51.9075   30.2097   53.0970 H   0  0  0  0  0  0  0  0  0  0  0  0
   51.8370   30.8660   50.9900 C   0  0  0  0  0  0  0  0  0  0  0  0
   51.7540   30.0900   49.8930 N   0  0  0  0  0  0  0  0  0  0  0  0
   51.0290   30.8350   49.0300 C   0  0  0  0  0  0  0  0  0  0  0  0
   50.7340   30.4360   47.8730 O   0  0  0  0  0  0  0  0  0  0  0  0
   50.6510   32.0400   49.5040 N   0  0  0  0  0  0  0  0  0  0  0  0
   51.1710   32.0450   50.7440 C   0  0  0  0  0  0  0  0  0  0  0  0
   51.0310   33.1020   51.6340 O   0  0  0  0  0  0  0  0  0  0  0  0
   54.4450   29.9590   53.5150 N   0  0  0  0  0  0  0  0  0  0  0  0
   53.9560   29.4580   54.2920 H   0  0  0  0  0  0  0  0  0  0  0  0
  1  2  1  0
  2  3  1  0
  2  4  2  0
  4  5  1  0
  5  6  1  0
  6  7  2  0
  6  8  1  0
  8  9  1  0
  9 10  1  0
  9 11  1  0
  9 12  1  0
 12 13  1  0
 12 14  1  0
 12 15  1  0
 15 16  1  0
 16 17  1  6
 16 18  1  0
 18 19  1  0
 18 20  1  0
 18 21  1  0
 21 22  1  0
 21 23  1  0
 21 24  1  0
 24 25  1  0
 25 26  1  0
 25 27  1  0
 25 28  1  0
 28 29  1  0
 28 30  1  0
 28 31  1  0
 31 32  1  0
 31 33  1  0
 31 34  1  0
 34 35  1  0
 34 36  1  0
 34 37  1  0
 37 38  1  0
 37 39  1  0
  5 40  2  0
 40 41  1  0
 40 42  1  0
 42 43  2  0
 43 44  1  0
 43 45  1  0
 45 46  1  0
 46 47  1  0
 47 48  2  0
 47 49  1  0
 49 50  1  0
 50 51  1  0
 42 52  1  0
 52 53  1  0
 52  4  1  0
 16  8  1  0
 37 24  1  0
 50 45  2  0
M  CHG  3  46  -1  49  -1  51  -1
M  END
>  <UniqueID>  (22) 
20

>  <SMILES>  (22) 
C=c1[nH]/c(=C/c2[n-]c(=O)[n-]c2[O-])cc1C(=O)N1CCS[C@@H]1CCN1CCCCC1

>  <Energy>  (22) 
124.25807965121804

>  <Genealogy>  (22) 
C=c1[nH]c(=Cc2[n-]c(=O)[n-]c2[O-])cc1C(=O)N1CCSC1CCN1CCCCC1 (protonated)
C=c1[nH]c(=Cc2[n-]c(=O)[n-]c2[O-])cc1C(=O)N1CCS[C@@H]1CCN1CCCCC1 (chirality)
C=c1[nH]/c(=C/c2[n-]c(=O)[n-]c2[O-])cc1C(=O)N1CCS[C@@H]1CCN1CCCCC1 (cis-trans isomerization)
C=c1[nH]/c(=C/c2[n-]c(=O)[n-]c2[O-])cc1C(=O)N1CCS[C@@H]1CCN1CCCCC1 (3D coordinates assigned)
C=c1[nH]/c(=C/c2[n-]c(=O)[n-]c2[O-])cc1C(=O)N1CCS[C@@H]1CCN1CCCCC1 (nonaromatic ring conformer: 124.25807965121804 kcal/mol)

>  <smiles>  (22) 
C=c1[nH]c(=Cc2[nH]c(=O)[nH]c2O)cc1C(=O)N1CCSC1CCN1CCCCC1

>  <score_type>  (22) 
oracle

>  <origin>  (22) 
adg

>  <m_score__min__energy>  (22) 
-18.190000000000001

>  <m_primary>  (22) 
energy

$$$$
22:0
     RDKit          3D

 47 49  0  0  1  0  0  0  0  0999 V2000
   59.9150   25.3420   46.0030 C   0  0  0  0  0  0  0  0  0  0  0  0
   59.4130   26.6760   46.2670 N   0  0  0  0  0  0  0  0  0  0  0  0
   60.3820   27.6970   46.0770 C   0  0  0  0  0  0  0  0  0  0  0  0
   60.0850   28.5650   44.8490 C   0  0  0  0  0  0  0  0  0  0  0  0
   58.7690   29.1850   45.0340 N   0  0  0  0  0  0  0  0  0  0  0  0
   58.5350   30.5520   44.7600 C   0  0  0  0  0  0  0  0  0  0  0  0
   58.1110   30.8660   43.5210 N   0  0  0  0  0  0  0  0  0  0  0  0
   57.8360   32.1170   43.1200 C   0  0  0  0  0  0  0  0  0  0  0  0
   57.4420   32.3200   41.9370 O   0  0  0  0  0  0  0  0  0  0  0  0
   57.9980   33.1060   44.0160 N   0  0  0  0  0  0  0  0  0  0  0  0
   58.4190   32.8290   45.2560 C   0  0  0  0  0  0  0  0  0  0  0  0
   58.5940   33.8010   46.0610 N   0  0  0  0  0  0  0  0  0  0  0  0
   59.5480   34.8630   45.9600 C   0  0  0  0  0  0  0  0  0  0  0  0
   60.6670   34.2900   46.8370 C   0  0  0  0  0  0  0  0  0  0  0  0
   61.8370   33.8460   46.2950 C   0  0  0  0  0  0  0  0  0  0  0  0
   62.8320   33.3570   47.1150 C   0  0  0  0  0  0  0  0  0  0  0  0
   62.5730   33.3470   48.4650 C   0  0  0  0  0  0  0  0  0  0  0  0
   63.9180   32.6810   49.6310 Br  0  0  0  0  0  0  0  0  0  0  0  0
   61.3940   33.7940   49.0180 C   0  0  0  0  0  0  0  0  0  0  0  0
   60.4130   34.2780   48.1890 C   0  0  0  0  0  0  0  0  0  0  0  0
   58.7070   31.5660   45.7010 C   0  0  0  0  0  0  0  0  0  0  0  0
   59.1570   31.1790   47.0000 C   0  0  0  0  0  0  0  0  0  0  0  0
   60.5660   30.8410   47.1290 N   0  0  0  0  0  0  0  0  0  0  0  0
   58.5030   31.0850   48.0600 O   0  0  0  0  0  0  0  0  0  0  0  0
   57.7260   28.3100   45.5380 C   0  0  0  0  0  0  0  0  0  0  0  0
   58.1290   26.8840   45.6840 C   0  0  0  0  0  0  0  0  0  0  0  0
   60.1085   24.8278   46.9560 H   0  0  0  0  0  0  0  0  0  0  0  0
   59.1681   24.7766   45.4263 H   0  0  0  0  0  0  0  0  0  0  0  0
   60.8493   25.4093   45.4263 H   0  0  0  0  0  0  0  0  0  0  0  0
   60.3964   28.3405   46.9690 H   0  0  0  0  0  0  0  0  0  0  0  0
   61.3547   27.2095   45.9152 H   0  0  0  0  0  0  0  0  0  0  0  0
   60.8538   29.3455   44.7499 H   0  0  0  0  0  0  0  0  0  0  0  0
   60.0902   27.9489   43.9378 H   0  0  0  0  0  0  0  0  0  0  0  0
   57.9780   30.1040   42.7990 H   0  0  0  0  0  0  0  0  0  0  0  0
   57.7960   34.0750   43.7370 H   0  0  0  0  0  0  0  0  0  0  0  0
   59.8796   35.0182   44.9227 H   0  0  0  0  0  0  0  0  0  0  0  0
   59.1775   35.8528   46.2649 H   0  0  0  0  0  0  0  0  0  0  0  0
   61.9867   33.8779   45.2057 H   0  0  0  0  0  0  0  0  0  0  0  0
   63.7869   32.9925   46.7085 H   0  0  0  0  0  0  0  0  0  0  0  0
   61.2407   33.7637   50.1068 H   0  0  0  0  0  0  0  0  0  0  0  0
   59.4569   34.6436   48.5917 H   0  0  0  0  0  0  0  0  0  0  0  0
   61.0200   30.1220   46.5630 H   0  0  0  0  0  0  0  0  0  0  0  0
   61.1290   31.3730   47.8440 H   0  0  0  0  0  0  0  0  0  0  0  0
   57.4145   28.6812   46.5255 H   0  0  0  0  0  0  0  0  0  0  0  0
   56.9162   28.3301   44.7939 H   0  0  0  0  0  0  0  0  0  0  0  0
   57.3821   26.3816   46.3162 H   0  0  0  0  0  0  0  0  0  0  0  0
   58.1853   26.4752   44.6643 H   0  0  0  0  0  0  0  0  0  0  0  0
  1  2  1  0
  2  3  1  0
  3  4  1  0
  4  5  1  0
  5  6  1  0
  6  7  1  0
  7  8  1  0
  8  9  2  0
  8 10  1  0
 10 11  1  0
 11 12  2  0
 12 13  1  0
 13 14  1  0
 14 15  2  0
 15 16  1  0
 16 17  2  0
 17 18  1  0
 17 19  1  0
 19 20  2  0
 11 21  1  0
 21 22  1  0
 22 23  1  0
 22 24  2  0
  5 25  1  0
 25 26  1  0
 26  2  1  0
 21  6  2  0
 20 14  1  0
  1 27  1  0
  1 28  1  0
  1 29  1  0
  3 30  1  0
  3 31  1  0
  4 32  1  0
  4 33  1  0
  7 34  1  0
 10 35  1  0
 13 36  1  0
 13 37  1  0
 15 38  1  0
 16 39  1  0
 19 40  1  0
 20 41  1  0
 23 42  1  0
 23 43  1  0
 25 44  1  0
 25 45  1  0
 26 46  1  0
 26 47  1  0
M  END
>  <smiles>  (23) 
CN1CCN(c2[nH]c(=O)[nH]c(=NCc3ccc(Br)cc3)c2C(N)=O)CC1

>  <score_type>  (23) 
oracle

>  <origin>  (23) 
adg

>  <m_score__min__energy>  (23) 
-7.7999999999999998

>  <m_primary>  (23) 
energy

$$$$
23:0
     RDKit          3D

 57 61  0  0  0  0  0  0  0  0999 V2000
   54.5320   29.3860   43.5220 O   0  0  0  0  0  0  0  0  0  0  0  0
   55.5950   29.5220   44.1880 C   0  0  0  0  0  0  0  0  0  0  0  0
   55.8960   28.5860   45.2300 N   0  0  0  0  0  0  0  0  0  0  0  0
   57.2270   28.3260   45.6960 C   0  0  0  0  0  0  0  0  0  0  0  0
   57.9350   27.2350   45.1780 C   0  0  0  0  0  0  0  0  0  0  0  0
   59.2180   26.9430   45.6500 C   0  0  0  0  0  0  0  0  0  0  0  0
   59.7920   27.7210   46.6600 C   0  0  0  0  0  0  0  0  0  0  0  0
   59.0800   28.8010   47.2090 C   0  0  0  0  0  0  0  0  0  0  0  0
   59.6450   29.6040   48.3100 C   0  0  0  0  0  0  0  0  0  0  0  0
   60.9370   29.5840   48.6940 N   0  0  0  0  0  0  0  0  0  0  0  0
   61.0360   30.4240   49.7130 N   0  0  0  0  0  0  0  0  0  0  0  0
   59.8010   30.9260   49.9140 C   0  0  0  0  0  0  0  0  0  0  0  0
   59.4480   31.9010   50.9620 C   0  0  0  0  0  0  0  0  0  0  0  0
   60.4600   32.6150   51.6260 C   0  0  0  0  0  0  0  0  0  0  0  0
   60.1330   33.5480   52.6150 C   0  0  0  0  0  0  0  0  0  0  0  0
   58.7950   33.7750   52.9490 C   0  0  0  0  0  0  0  0  0  0  0  0
   57.7830   33.0680   52.2940 C   0  0  0  0  0  0  0  0  0  0  0  0
   58.1040   32.1350   51.3040 C   0  0  0  0  0  0  0  0  0  0  0  0
   58.9460   30.4270   49.0530 O   0  0  0  0  0  0  0  0  0  0  0  0
   57.8010   29.1000   46.7190 C   0  0  0  0  0  0  0  0  0  0  0  0
   56.5450   30.6070   43.8580 C   0  0  0  0  0  0  0  0  0  0  0  0
   56.9270   30.8440   42.5270 C   0  0  0  0  0  0  0  0  0  0  0  0
   57.7320   31.9420   42.2100 C   0  0  0  0  0  0  0  0  0  0  0  0
   58.1390   32.8250   43.2120 C   0  0  0  0  0  0  0  0  0  0  0  0
   57.7670   32.6070   44.5420 C   0  0  0  0  0  0  0  0  0  0  0  0
   58.1390   33.5800   45.5270 N   0  0  0  0  0  0  0  0  0  0  0  0
   58.9150   33.2450   47.0450 S   0  0  0  0  0  0  0  0  0  0  0  0
   57.8670   33.0160   48.0990 O   0  0  0  0  0  0  0  0  0  0  0  0
   59.7230   31.9880   46.8940 O   0  0  0  0  0  0  0  0  0  0  0  0
   60.0170   34.5650   47.5630 C   0  0  0  0  0  0  0  0  0  0  0  0
   61.4030   34.0640   47.8700 C   0  0  0  0  0  0  0  0  0  0  0  0
   62.2210   33.5560   46.8450 C   0  0  0  0  0  0  0  0  0  0  0  0
   63.5060   33.0850   47.1350 C   0  0  0  0  0  0  0  0  0  0  0  0
   63.9860   33.1280   48.4460 C   0  0  0  0  0  0  0  0  0  0  0  0
   63.1870   33.6470   49.4680 C   0  0  0  0  0  0  0  0  0  0  0  0
   61.9010   34.1170   49.1830 C   0  0  0  0  0  0  0  0  0  0  0  0
   57.0030   31.4740   44.8660 C   0  0  0  0  0  0  0  0  0  0  0  0
   57.4808   26.6063   44.3980 H   0  0  0  0  0  0  0  0  0  0  0  0
   59.7785   26.0973   45.2249 H   0  0  0  0  0  0  0  0  0  0  0  0
   60.8028   27.4873   47.0255 H   0  0  0  0  0  0  0  0  0  0  0  0
   61.5144   32.4391   51.3666 H   0  0  0  0  0  0  0  0  0  0  0  0
   60.9298   34.1039   53.1307 H   0  0  0  0  0  0  0  0  0  0  0  0
   58.5387   34.5095   53.7267 H   0  0  0  0  0  0  0  0  0  0  0  0
   56.7303   33.2464   52.5584 H   0  0  0  0  0  0  0  0  0  0  0  0
   57.3032   31.5822   50.7909 H   0  0  0  0  0  0  0  0  0  0  0  0
   57.2413   29.9486   47.1393 H   0  0  0  0  0  0  0  0  0  0  0  0
   56.5913   30.1629   41.7311 H   0  0  0  0  0  0  0  0  0  0  0  0
   58.0454   32.1106   41.1692 H   0  0  0  0  0  0  0  0  0  0  0  0
   58.7564   33.6979   42.9534 H   0  0  0  0  0  0  0  0  0  0  0  0
   60.0807   35.3099   46.7561 H   0  0  0  0  0  0  0  0  0  0  0  0
   59.6062   35.0047   48.4838 H   0  0  0  0  0  0  0  0  0  0  0  0
   61.8487   33.5289   45.8103 H   0  0  0  0  0  0  0  0  0  0  0  0
   64.1383   32.6809   46.3307 H   0  0  0  0  0  0  0  0  0  0  0  0
   64.9945   32.7527   48.6742 H   0  0  0  0  0  0  0  0  0  0  0  0
   63.5701   33.6860   50.4984 H   0  0  0  0  0  0  0  0  0  0  0  0
   61.2771   34.5296   49.9895 H   0  0  0  0  0  0  0  0  0  0  0  0
   56.7606   31.2628   45.9180 H   0  0  0  0  0  0  0  0  0  0  0  0
  1  2  2  0
  2  3  1  0
  3  4  1  0
  4  5  2  0
  5  6  1  0
  6  7  2  0
  7  8  1  0
  8  9  1  0
  9 10  2  0
 10 11  1  0
 11 12  2  0
 12 13  1  0
 13 14  2  0
 14 15  1  0
 15 16  2  0
 16 17  1  0
 17 18  2  0
 12 19  1  0
  8 20  2  0
  2 21  1  0
 21 22  2  0
 22 23  1  0
 23 24  2  0
 24 25  1  0
 25 26  1  0
 26 27  1  0
 27 28  2  0
 27 29  2  0
 27 30  1  0
 30 31  1  0
 31 32  2  0
 32 33  1  0
 33 34  2  0
 34 35  1  0
 35 36  2  0
 25 37  2  0
 20  4  1  0
 37 21  1  0
 19  9  1  0
 36 31  1  0
 18 13  1  0
  5 38  1  0
  6 39  1  0
  7 40  1  0
 14 41  1  0
 15 42  1  0
 16 43  1  0
 17 44  1  0
 18 45  1  0
 20 46  1  0
 22 47  1  0
 23 48  1  0
 24 49  1  0
 30 50  1  0
 30 51  1  0
 32 52  1  0
 33 53  1  0
 34 54  1  0
 35 55  1  0
 36 56  1  0
 37 57  1  0
M  CHG  2   3  -1  26  -1
M  END
>  <UniqueID>  (24) 
21

>  <SMILES>  (24) 
O=C([N-]c1cccc(-c2nnc(-c3ccccc3)o2)c1)c1cccc([N-]S(=O)(=O)Cc2ccccc2)c1

>  <Energy>  (24) 
100.36606955305042

>  <Genealogy>  (24) 
O=C([N-]c1cccc(-c2nnc(-c3ccccc3)o2)c1)c1cccc([N-]S(=O)(=O)Cc2ccccc2)c1 (protonated)
O=C([N-]c1cccc(-c2nnc(-c3ccccc3)o2)c1)c1cccc([N-]S(=O)(=O)Cc2ccccc2)c1 (3D coordinates assigned)
O=C([N-]c1cccc(-c2nnc(-c3ccccc3)o2)c1)c1cccc([N-]S(=O)(=O)Cc2ccccc2)c1 (optimized conformer: 100.36606955305042 kcal/mol)

>  <smiles>  (24) 
O=C(Nc1cccc(-c2nnc(-c3ccccc3)o2)c1)c1cccc(NS(=O)(=O)Cc2ccccc2)c1

>  <score_type>  (24) 
oracle

>  <origin>  (24) 
adg

>  <m_score__min__energy>  (24) 
-14.109999999999999

>  <m_primary>  (24) 
energy

$$$$
24:0
     RDKit          3D

 53 56  0  0  0  0  0  0  0  0999 V2000
   55.6930   27.4040   54.8970 C   0  0  0  0  0  0  0  0  0  0  0  0
   55.8120   28.8210   54.9630 O   0  0  0  0  0  0  0  0  0  0  0  0
   56.4640   29.5960   53.9950 C   0  0  0  0  0  0  0  0  0  0  0  0
   57.7080   30.0620   54.2910 N   0  0  0  0  0  0  0  0  0  0  0  0
   58.4280   30.8320   53.4270 C   0  0  0  0  0  0  0  0  0  0  0  0
   59.7040   31.2870   53.7900 C   0  0  0  0  0  0  0  0  0  0  0  0
   60.4500   32.0670   52.9100 C   0  0  0  0  0  0  0  0  0  0  0  0
   59.9320   32.4090   51.6620 C   0  0  0  0  0  0  0  0  0  0  0  0
   58.6490   31.9830   51.2740 C   0  0  0  0  0  0  0  0  0  0  0  0
   58.1430   32.3860   49.9020 C   0  0  0  0  0  0  0  0  0  0  0  0
   58.6500   31.4810   48.8010 C   0  0  0  0  0  0  0  0  0  0  0  0
   59.2300   30.4010   49.1100 O   0  0  0  0  0  0  0  0  0  0  0  0
   58.4950   31.8310   47.4060 N   0  0  0  0  0  0  0  0  0  0  0  0
   58.0060   33.1630   47.0160 C   0  0  0  0  0  0  0  0  0  0  0  0
   57.4500   33.1420   45.5890 C   0  0  0  0  0  0  0  0  0  0  0  0
   58.3720   32.5510   44.6970 O   0  0  0  0  0  0  0  0  0  0  0  0
   58.5300   31.1860   45.0230 C   0  0  0  0  0  0  0  0  0  0  0  0
   59.1930   31.0270   46.3930 C   0  0  0  0  0  0  0  0  0  0  0  0
   57.8940   31.1670   52.1610 C   0  0  0  0  0  0  0  0  0  0  0  0
   56.6280   30.6580   51.8240 C   0  0  0  0  0  0  0  0  0  0  0  0
   55.8980   29.8720   52.7290 C   0  0  0  0  0  0  0  0  0  0  0  0
   54.5690   29.3010   52.2800 C   0  0  0  0  0  0  0  0  0  0  0  0
   53.4660   30.3340   52.1880 C   0  0  0  0  0  0  0  0  0  0  0  0
   52.7370   30.6670   53.3440 C   0  0  0  0  0  0  0  0  0  0  0  0
   51.6820   31.5820   53.2810 C   0  0  0  0  0  0  0  0  0  0  0  0
   51.3250   32.1570   52.0590 C   0  0  0  0  0  0  0  0  0  0  0  0
   50.2760   33.0660   51.9990 O   0  0  0  0  0  0  0  0  0  0  0  0
   52.0210   31.8140   50.8980 C   0  0  0  0  0  0  0  0  0  0  0  0
   53.0770   30.9000   50.9560 C   0  0  0  0  0  0  0  0  0  0  0  0
   55.6583   26.9911   55.9160 H   0  0  0  0  0  0  0  0  0  0  0  0
   54.7694   27.1381   54.3620 H   0  0  0  0  0  0  0  0  0  0  0  0
   56.5594   26.9878   54.3620 H   0  0  0  0  0  0  0  0  0  0  0  0
   58.1130   29.8230   55.2260 H   0  0  0  0  0  0  0  0  0  0  0  0
   60.1178   31.0263   54.7753 H   0  0  0  0  0  0  0  0  0  0  0  0
   61.4522   32.4147   53.2010 H   0  0  0  0  0  0  0  0  0  0  0  0
   60.5337   33.0193   50.9724 H   0  0  0  0  0  0  0  0  0  0  0  0
   57.0436   32.3499   49.9083 H   0  0  0  0  0  0  0  0  0  0  0  0
   58.5168   33.3998   49.6958 H   0  0  0  0  0  0  0  0  0  0  0  0
   57.2094   33.4718   47.7089 H   0  0  0  0  0  0  0  0  0  0  0  0
   58.8455   33.8726   47.0569 H   0  0  0  0  0  0  0  0  0  0  0  0
   56.5145   32.5634   45.5755 H   0  0  0  0  0  0  0  0  0  0  0  0
   57.2659   34.1780   45.2685 H   0  0  0  0  0  0  0  0  0  0  0  0
   57.5418   30.7033   45.0425 H   0  0  0  0  0  0  0  0  0  0  0  0
   59.1718   30.7146   44.2642 H   0  0  0  0  0  0  0  0  0  0  0  0
   59.1614   29.9679   46.6884 H   0  0  0  0  0  0  0  0  0  0  0  0
   60.2346   31.3737   46.3234 H   0  0  0  0  0  0  0  0  0  0  0  0
   56.2021   30.8794   50.8342 H   0  0  0  0  0  0  0  0  0  0  0  0
   54.7033   28.8462   51.2875 H   0  0  0  0  0  0  0  0  0  0  0  0
   54.2607   28.5663   53.0383 H   0  0  0  0  0  0  0  0  0  0  0  0
   52.9995   30.2032   54.3063 H   0  0  0  0  0  0  0  0  0  0  0  0
   51.1320   31.8497   54.1953 H   0  0  0  0  0  0  0  0  0  0  0  0
   51.7375   32.2643   49.9352 H   0  0  0  0  0  0  0  0  0  0  0  0
   53.6084   30.6202   50.0344 H   0  0  0  0  0  0  0  0  0  0  0  0
  1  2  1  0
  2  3  1  0
  3  4  2  0
  4  5  1  0
  5  6  2  0
  6  7  1  0
  7  8  2  0
  8  9  1  0
  9 10  1  0
 10 11  1  0
 11 12  2  0
 11 13  1  0
 13 14  1  0
 14 15  1  0
 15 16  1  0
 16 17  1  0
 17 18  1  0
  9 19  2  0
 19 20  1  0
 20 21  2  0
 21 22  1  0
 22 23  1  0
 23 24  2  0
 24 25  1  0
 25 26  2  0
 26 27  1  0
 26 28  1  0
 28 29  2  0
 21  3  1  0
 29 23  1  0
 19  5  1  0
 18 13  1  0
  1 30  1  0
  1 31  1  0
  1 32  1  0
  4 33  1  0
  6 34  1  0
  7 35  1  0
  8 36  1  0
 10 37  1  0
 10 38  1  0
 14 39  1  0
 14 40  1  0
 15 41  1  0
 15 42  1  0
 17 43  1  0
 17 44  1  0
 18 45  1  0
 18 46  1  0
 20 47  1  0
 22 48  1  0
 22 49  1  0
 24 50  1  0
 25 51  1  0
 28 52  1  0
 29 53  1  0
M  CHG  2   4   1  27  -1
M  END
>  <UniqueID>  (25) 
22

>  <SMILES>  (25) 
COc1[nH+]c2cccc(CC(=O)N3CCOCC3)c2cc1Cc1ccc([O-])cc1

>  <Energy>  (25) 
72.45066969957202

>  <Genealogy>  (25) 
COc1[nH+]c2cccc(CC(=O)N3CCOCC3)c2cc1Cc1ccc([O-])cc1 (protonated)
COc1[nH+]c2cccc(CC(=O)N3CCOCC3)c2cc1Cc1ccc([O-])cc1 (3D coordinates assigned)
COc1[nH+]c2cccc(CC(=O)N3CCOCC3)c2cc1Cc1ccc([O-])cc1 (nonaromatic ring conformer: 72.45066969957202 kcal/mol)

>  <smiles>  (25) 
COc1nc2cccc(CC(=O)N3CCOCC3)c2cc1Cc1ccc(O)cc1

>  <score_type>  (25) 
oracle

>  <origin>  (25) 
adg

>  <m_score__min__energy>  (25) 
-10.449999999999999

>  <m_primary>  (25) 
energy

$$$$
25:0
     RDKit          3D

 49 52  0  0  0  0  0  0  0  0999 V2000
   54.8018   31.2289   43.7865 H   0  0  0  0  0  0  0  0  0  0  0  0
   55.5550   30.5070   44.1350 C   0  0  0  0  0  0  0  0  0  0  0  0
   55.2230   29.3020   44.6710 N   0  0  0  0  0  0  0  0  0  0  0  0
   56.3130   28.5880   45.0260 C   0  0  0  0  0  0  0  0  0  0  0  0
   56.2170   27.4300   45.6100 N   0  0  0  0  0  0  0  0  0  0  0  0
   57.2900   26.6290   46.1260 C   0  0  0  0  0  0  0  0  0  0  0  0
   57.6590   26.7990   47.3180 O   0  0  0  0  0  0  0  0  0  0  0  0
   57.9220   25.6280   45.3190 N   0  0  0  0  0  0  0  0  0  0  0  0
   57.3330   25.0860   44.1010 C   0  0  0  0  0  0  0  0  0  0  0  0
   56.2894   25.4237   44.0179 H   0  0  0  0  0  0  0  0  0  0  0  0
   57.9061   25.4391   43.2310 H   0  0  0  0  0  0  0  0  0  0  0  0
   57.3700   23.5830   44.1450 C   0  0  0  0  0  0  0  0  0  0  0  0
   58.1470   22.9120   45.0980 C   0  0  0  0  0  0  0  0  0  0  0  0
   58.7201   23.4806   45.8451 H   0  0  0  0  0  0  0  0  0  0  0  0
   58.1890   21.5160   45.0930 C   0  0  0  0  0  0  0  0  0  0  0  0
   58.7924   20.9830   45.8426 H   0  0  0  0  0  0  0  0  0  0  0  0
   57.4860   20.8130   44.1640 N   0  0  0  0  0  0  0  0  0  0  0  0
   57.5280   19.7690   44.1740 H   0  0  0  0  0  0  0  0  0  0  0  0
   56.7320   21.4400   43.2210 C   0  0  0  0  0  0  0  0  0  0  0  0
   56.1770   20.8473   42.4789 H   0  0  0  0  0  0  0  0  0  0  0  0
   56.6610   22.8350   43.1930 C   0  0  0  0  0  0  0  0  0  0  0  0
   56.0534   23.3434   42.4299 H   0  0  0  0  0  0  0  0  0  0  0  0
   57.7400   29.4310   44.6960 S   0  0  0  0  0  0  0  0  0  0  0  0
   56.9220   30.7550   44.0620 C   0  0  0  0  0  0  0  0  0  0  0  0
   57.5680   32.0180   43.5850 C   0  0  0  0  0  0  0  0  0  0  0  0
   58.3181   31.7765   42.8175 H   0  0  0  0  0  0  0  0  0  0  0  0
   56.7989   32.6791   43.1590 H   0  0  0  0  0  0  0  0  0  0  0  0
   58.2390   32.7170   44.7350 C   0  0  0  0  0  0  0  0  0  0  0  0
   58.2120   32.1510   46.0190 C   0  0  0  0  0  0  0  0  0  0  0  0
   57.6543   31.2192   46.1945 H   0  0  0  0  0  0  0  0  0  0  0  0
   58.8900   32.7650   47.0760 C   0  0  0  0  0  0  0  0  0  0  0  0
   58.8655   32.3128   48.0785 H   0  0  0  0  0  0  0  0  0  0  0  0
   59.6020   33.9560   46.8640 C   0  0  0  0  0  0  0  0  0  0  0  0
   60.3720   34.5920   47.9860 C   0  0  0  0  0  0  0  0  0  0  0  0
   60.3824   35.6833   47.8482 H   0  0  0  0  0  0  0  0  0  0  0  0
   59.8899   34.3419   48.9426 H   0  0  0  0  0  0  0  0  0  0  0  0
   61.7450   34.0920   47.9950 N   0  0  0  0  0  0  0  0  0  0  0  0
   62.5550   34.0150   49.0680 C   0  0  0  0  0  0  0  0  0  0  0  0
   62.3007   34.3622   50.0803 H   0  0  0  0  0  0  0  0  0  0  0  0
   63.7530   33.4340   48.7040 C   0  0  0  0  0  0  0  0  0  0  0  0
   64.6162   33.2411   49.3579 H   0  0  0  0  0  0  0  0  0  0  0  0
   63.6550   33.1420   47.3560 C   0  0  0  0  0  0  0  0  0  0  0  0
   64.4269   32.6735   46.7278 H   0  0  0  0  0  0  0  0  0  0  0  0
   62.4020   33.5520   46.9520 C   0  0  0  0  0  0  0  0  0  0  0  0
   62.0007   33.4528   45.9326 H   0  0  0  0  0  0  0  0  0  0  0  0
   59.6480   34.5100   45.5750 C   0  0  0  0  0  0  0  0  0  0  0  0
   60.2201   35.4323   45.3958 H   0  0  0  0  0  0  0  0  0  0  0  0
   58.9710   33.8960   44.5190 C   0  0  0  0  0  0  0  0  0  0  0  0
   59.0113   34.3382   43.5126 H   0  0  0  0  0  0  0  0  0  0  0  0
  1  2  1  0
  2  3  1  0
  3  4  1  0
  4  5  2  0
  5  6  1  0
  6  7  2  0
  6  8  1  0
  8  9  1  0
  9 10  1  0
  9 11  1  0
  9 12  1  0
 12 13  2  0
 13 14  1  0
 13 15  1  0
 15 16  1  0
 15 17  2  0
 17 18  1  0
 17 19  1  0
 19 20  1  0
 19 21  2  0
 21 22  1  0
  4 23  1  0
 23 24  1  0
 24 25  1  0
 25 26  1  0
 25 27  1  0
 25 28  1  0
 28 29  2  0
 29 30  1  0
 29 31  1  0
 31 32  1  0
 31 33  2  0
 33 34  1  0
 34 35  1  0
 34 36  1  0
 34 37  1  0
 37 38  1  0
 38 39  1  0
 38 40  2  0
 40 41  1  0
 40 42  1  0
 42 43  1  0
 42 44  2  0
 44 45  1  0
 33 46  1  0
 46 47  1  0
 46 48  2  0
 48 49  1  0
 24  2  2  0
 48 28  1  0
 21 12  1  0
 44 37  1  0
M  CHG  3   3  -1   8  -1  17   1
M  END
>  <UniqueID>  (26) 
23

>  <SMILES>  (26) 
O=C(/N=c1/[n-]cc(Cc2ccc(Cn3cccc3)cc2)s1)[N-]Cc1cc[nH+]cc1

>  <Energy>  (26) 
104.39312920215878

>  <Genealogy>  (26) 
O=C(N=c1[n-]cc(Cc2ccc(Cn3cccc3)cc2)s1)[N-]Cc1cc[nH+]cc1 (protonated)
O=C(/N=c1/[n-]cc(Cc2ccc(Cn3cccc3)cc2)s1)[N-]Cc1cc[nH+]cc1 (cis-trans isomerization)
O=C(/N=c1/[n-]cc(Cc2ccc(Cn3cccc3)cc2)s1)[N-]Cc1cc[nH+]cc1 (3D coordinates assigned)
O=C(/N=c1/[n-]cc(Cc2ccc(Cn3cccc3)cc2)s1)[N-]Cc1cc[nH+]cc1 (optimized conformer: 104.39312920215878 kcal/mol)

>  <smiles>  (26) 
O=C(N=c1[nH]cc(Cc2ccc(Cn3cccc3)cc2)s1)NCc1ccncc1

>  <score_type>  (26) 
oracle

>  <origin>  (26) 
adg

>  <m_score__min__energy>  (26) 
-11.56

>  <m_primary>  (26) 
energy

$$$$
26:0
     RDKit          3D

 48 50  0  0  0  0  0  0  0  0999 V2000
   62.1750   31.1570   47.4390 O   0  0  0  0  0  0  0  0  0  0  0  0
   60.9250   30.9920   47.4350 C   0  0  0  0  0  0  0  0  0  0  0  0
   60.3210   29.8040   46.7350 C   0  0  0  0  0  0  0  0  0  0  0  0
   58.5030   29.7510   46.9200 S   0  0  0  0  0  0  0  0  0  0  0  0
   58.1940   30.8650   45.5370 C   0  0  0  0  0  0  0  0  0  0  0  0
   58.6280   32.1530   45.6520 N   0  0  0  0  0  0  0  0  0  0  0  0
   58.4440   33.0670   44.6640 C   0  0  0  0  0  0  0  0  0  0  0  0
   57.7930   32.7030   43.4900 C   0  0  0  0  0  0  0  0  0  0  0  0
   57.3360   31.3970   43.3370 C   0  0  0  0  0  0  0  0  0  0  0  0
   57.5280   30.4460   44.3520 C   0  0  0  0  0  0  0  0  0  0  0  0
   57.0400   29.0590   44.1310 C   0  0  0  0  0  0  0  0  0  0  0  0
   57.0520   28.5470   42.9800 O   0  0  0  0  0  0  0  0  0  0  0  0
   56.5040   28.3130   45.2360 N   0  0  0  0  0  0  0  0  0  0  0  0
   56.9720   27.0480   45.7260 C   0  0  0  0  0  0  0  0  0  0  0  0
   58.3430   26.7680   45.8790 C   0  0  0  0  0  0  0  0  0  0  0  0
   58.7570   25.5220   46.3600 C   0  0  0  0  0  0  0  0  0  0  0  0
   57.8110   24.5550   46.7060 C   0  0  0  0  0  0  0  0  0  0  0  0
   56.4480   24.8340   46.5820 C   0  0  0  0  0  0  0  0  0  0  0  0
   56.0290   26.0790   46.1010 C   0  0  0  0  0  0  0  0  0  0  0  0
   54.7020   26.3340   45.9810 F   0  0  0  0  0  0  0  0  0  0  0  0
   60.1080   31.9550   48.1130 N   0  0  0  0  0  0  0  0  0  0  0  0
   60.1130   33.6630   47.8130 S   0  0  0  0  0  0  0  0  0  0  0  0
   58.6910   34.1500   47.8030 O   0  0  0  0  0  0  0  0  0  0  0  0
   60.7220   33.9440   46.4660 O   0  0  0  0  0  0  0  0  0  0  0  0
   61.0140   34.5480   49.0790 C   0  0  0  0  0  0  0  0  0  0  0  0
   62.3640   33.9260   49.3230 C   0  0  0  0  0  0  0  0  0  0  0  0
   63.2410   33.6890   48.2500 C   0  0  0  0  0  0  0  0  0  0  0  0
   64.4980   33.1210   48.4790 C   0  0  0  0  0  0  0  0  0  0  0  0
   64.8920   32.7900   49.7770 C   0  0  0  0  0  0  0  0  0  0  0  0
   64.0280   33.0250   50.8480 C   0  0  0  0  0  0  0  0  0  0  0  0
   62.7680   33.5910   50.6250 C   0  0  0  0  0  0  0  0  0  0  0  0
   60.5675   29.8596   45.6644 H   0  0  0  0  0  0  0  0  0  0  0  0
   60.7356   28.8935   47.1922 H   0  0  0  0  0  0  0  0  0  0  0  0
   59.1260   32.4540   46.5210 H   0  0  0  0  0  0  0  0  0  0  0  0
   58.8103   34.0962   44.7926 H   0  0  0  0  0  0  0  0  0  0  0  0
   57.6405   33.4412   42.6889 H   0  0  0  0  0  0  0  0  0  0  0  0
   56.8187   31.1068   42.4106 H   0  0  0  0  0  0  0  0  0  0  0  0
   59.0909   27.5317   45.6194 H   0  0  0  0  0  0  0  0  0  0  0  0
   59.8298   25.3032   46.4660 H   0  0  0  0  0  0  0  0  0  0  0  0
   58.1394   23.5727   47.0765 H   0  0  0  0  0  0  0  0  0  0  0  0
   55.7036   24.0743   46.8627 H   0  0  0  0  0  0  0  0  0  0  0  0
   61.1523   35.5910   48.7581 H   0  0  0  0  0  0  0  0  0  0  0  0
   60.4358   34.5029   50.0137 H   0  0  0  0  0  0  0  0  0  0  0  0
   62.9370   33.9515   47.2260 H   0  0  0  0  0  0  0  0  0  0  0  0
   65.1780   32.9345   47.6347 H   0  0  0  0  0  0  0  0  0  0  0  0
   65.8819   32.3447   49.9554 H   0  0  0  0  0  0  0  0  0  0  0  0
   64.3388   32.7644   51.8705 H   0  0  0  0  0  0  0  0  0  0  0  0
   62.0916   33.7741   51.4729 H   0  0  0  0  0  0  0  0  0  0  0  0
  1  2  2  0
  2  3  1  0
  3  4  1  0
  4  5  1  0
  5  6  2  0
  6  7  1  0
  7  8  2  0
  8  9  1  0
  9 10  2  0
 10 11  1  0
 11 12  2  0
 11 13  1  0
 13 14  1  0
 14 15  2  0
 15 16  1  0
 16 17  2  0
 17 18  1  0
 18 19  2  0
 19 20  1  0
  2 21  1  0
 21 22  1  0
 22 23  2  0
 22 24  2  0
 22 25  1  0
 25 26  1  0
 26 27  2  0
 27 28  1  0
 28 29  2  0
 29 30  1  0
 30 31  2  0
 10  5  1  0
 19 14  1  0
 31 26  1  0
  3 32  1  0
  3 33  1  0
  6 34  1  0
  7 35  1  0
  8 36  1  0
  9 37  1  0
 15 38  1  0
 16 39  1  0
 17 40  1  0
 18 41  1  0
 25 42  1  0
 25 43  1  0
 27 44  1  0
 28 45  1  0
 29 46  1  0
 30 47  1  0
 31 48  1  0
M  CHG  3   6   1  13  -1  21  -1
M  END
>  <UniqueID>  (27) 
24

>  <SMILES>  (27) 
O=C(CSc1[nH+]cccc1C(=O)[N-]c1ccccc1F)[N-]S(=O)(=O)Cc1ccccc1

>  <Energy>  (27) 
49.559795785434446

>  <Genealogy>  (27) 
O=C(CSc1[nH+]cccc1C(=O)[N-]c1ccccc1F)[N-]S(=O)(=O)Cc1ccccc1 (protonated)
O=C(CSc1[nH+]cccc1C(=O)[N-]c1ccccc1F)[N-]S(=O)(=O)Cc1ccccc1 (3D coordinates assigned)
O=C(CSc1[nH+]cccc1C(=O)[N-]c1ccccc1F)[N-]S(=O)(=O)Cc1ccccc1 (optimized conformer: 49.559795785434446 kcal/mol)

>  <smiles>  (27) 
O=C(CSc1ncccc1C(=O)Nc1ccccc1F)NS(=O)(=O)Cc1ccccc1

>  <score_type>  (27) 
oracle

>  <origin>  (27) 
adg

>  <m_score__min__energy>  (27) 
-10.710000000000001

>  <m_primary>  (27) 
energy

$$$$
27:0
     RDKit          3D

 41 44  0  0  0  0  0  0  0  0999 V2000
   54.3770   27.1010   46.3660 H   0  0  0  0  0  0  0  0  0  0  0  0
   55.1570   26.7430   45.8280 O   0  0  0  0  0  0  0  0  0  0  0  0
   56.0390   25.8070   46.3620 C   0  0  0  0  0  0  0  0  0  0  0  0
   55.6550   24.8160   47.1830 N   0  0  0  0  0  0  0  0  0  0  0  0
   56.8120   24.1660   47.4270 C   0  0  0  0  0  0  0  0  0  0  0  0
   56.8760   23.1500   48.1680 O   0  0  0  0  0  0  0  0  0  0  0  0
   57.8940   24.6830   46.8090 N   0  0  0  0  0  0  0  0  0  0  0  0
   57.3990   25.7460   46.1450 C   0  0  0  0  0  0  0  0  0  0  0  0
   58.1710   26.5900   45.2060 C   0  0  0  0  0  0  0  0  0  0  0  0
   58.7742   26.0723   44.4456 H   0  0  0  0  0  0  0  0  0  0  0  0
   58.2000   27.9530   45.2010 C   0  0  0  0  0  0  0  0  0  0  0  0
   57.6650   28.6580   44.0980 C   0  0  0  0  0  0  0  0  0  0  0  0
   57.2738   28.0994   43.2349 H   0  0  0  0  0  0  0  0  0  0  0  0
   57.6270   30.0470   44.0900 C   0  0  0  0  0  0  0  0  0  0  0  0
   57.0860   30.7560   42.9630 C   0  0  0  0  0  0  0  0  0  0  0  0
   56.6500   31.3270   42.0550 N   0  0  0  0  0  0  0  0  0  0  0  0
   58.0820   30.7420   45.1540 N   0  0  0  0  0  0  0  0  0  0  0  0
   58.6270   30.1440   46.2430 C   0  0  0  0  0  0  0  0  0  0  0  0
   59.0120   31.0390   47.3570 C   0  0  0  0  0  0  0  0  0  0  0  0
   58.5400   30.9720   48.6560 C   0  0  0  0  0  0  0  0  0  0  0  0
   57.8767   30.2025   49.0777 H   0  0  0  0  0  0  0  0  0  0  0  0
   59.0700   32.0690   49.3210 C   0  0  0  0  0  0  0  0  0  0  0  0
   58.8520   32.4340   50.7430 C   0  0  0  0  0  0  0  0  0  0  0  0
   59.4020   33.6180   51.2740 C   0  0  0  0  0  0  0  0  0  0  0  0
   59.9992   34.2796   50.6293 H   0  0  0  0  0  0  0  0  0  0  0  0
   59.1940   33.9580   52.6150 C   0  0  0  0  0  0  0  0  0  0  0  0
   59.6260   34.8855   53.0189 H   0  0  0  0  0  0  0  0  0  0  0  0
   58.4400   33.1240   53.4420 C   0  0  0  0  0  0  0  0  0  0  0  0
   58.2797   33.3931   54.4965 H   0  0  0  0  0  0  0  0  0  0  0  0
   57.8890   31.9470   52.9290 C   0  0  0  0  0  0  0  0  0  0  0  0
   57.2940   31.2903   53.5806 H   0  0  0  0  0  0  0  0  0  0  0  0
   58.0920   31.6020   51.5900 C   0  0  0  0  0  0  0  0  0  0  0  0
   57.6551   30.6735   51.1937 H   0  0  0  0  0  0  0  0  0  0  0  0
   59.8240   32.7630   48.3860 C   0  0  0  0  0  0  0  0  0  0  0  0
   60.3828   33.6886   48.5885 H   0  0  0  0  0  0  0  0  0  0  0  0
   59.7720   32.1390   47.1960 N   0  0  0  0  0  0  0  0  0  0  0  0
   60.2340   32.4550   46.3150 H   0  0  0  0  0  0  0  0  0  0  0  0
   58.7800   28.7230   46.2740 C   0  0  0  0  0  0  0  0  0  0  0  0
   59.5100   28.1580   47.2640 C   0  0  0  0  0  0  0  0  0  0  0  0
   59.6358   27.0658   47.2999 H   0  0  0  0  0  0  0  0  0  0  0  0
   59.9774   28.7910   48.0326 H   0  0  0  0  0  0  0  0  0  0  0  0
  1  2  1  0
  2  3  1  0
  3  4  1  0
  4  5  1  0
  5  6  2  0
  5  7  1  0
  7  8  1  0
  8  9  1  0
  9 10  1  0
  9 11  2  0
 11 12  1  0
 12 13  1  0
 12 14  2  0
 14 15  1  0
 15 16  3  0
 14 17  1  0
 17 18  2  0
 18 19  1  0
 19 20  2  0
 20 21  1  0
 20 22  1  0
 22 23  1  0
 23 24  2  0
 24 25  1  0
 24 26  1  0
 26 27  1  0
 26 28  2  0
 28 29  1  0
 28 30  1  0
 30 31  1  0
 30 32  2  0
 32 33  1  0
 22 34  2  0
 34 35  1  0
 34 36  1  0
 36 37  1  0
 18 38  1  0
 38 39  2  0
 39 40  1  0
 39 41  1  0
  8  3  2  0
 38 11  1  0
 36 19  1  0
 32 23  1  0
M  CHG  2   4  -1   7  -1
M  END
>  <UniqueID>  (28) 
25

>  <SMILES>  (28) 
C=c1c(-c2cc(-c3ccccc3)c[nH]2)nc(C#N)c/c1=C\c1[n-]c(=O)[n-]c1O

>  <Energy>  (28) 
127.14343954900187

>  <Genealogy>  (28) 
C=c1c(-c2cc(-c3ccccc3)c[nH]2)nc(C#N)cc1=Cc1[n-]c(=O)[n-]c1O (protonated)
C=c1c(-c2cc(-c3ccccc3)c[nH]2)nc(C#N)c/c1=C\c1[n-]c(=O)[n-]c1O (cis-trans isomerization)
C=c1c(-c2cc(-c3ccccc3)c[nH]2)nc(C#N)c/c1=C\c1[n-]c(=O)[n-]c1O (3D coordinates assigned)
C=c1c(-c2cc(-c3ccccc3)c[nH]2)nc(C#N)c/c1=C\c1[n-]c(=O)[n-]c1O (optimized conformer: 127.14343954900187 kcal/mol)

>  <smiles>  (28) 
C=c1c(-c2cc(-c3ccccc3)c[nH]2)nc(C#N)cc1=Cc1[nH]c(=O)[nH]c1O

>  <score_type>  (28) 
oracle

>  <origin>  (28) 
adg

>  <m_score__min__energy>  (28) 
-13.050000000000001

>  <m_primary>  (28) 
energy

$$$$
28:0
     RDKit          3D

 53 56  0  0  0  0  0  0  0  0999 V2000
   55.1440   29.3100   44.8650 N   0  0  0  0  0  0  0  0  0  0  0  0
   56.5640   29.7050   43.9620 S   0  0  0  0  0  0  0  0  0  0  0  0
   57.3940   28.4700   43.7580 O   0  0  0  0  0  0  0  0  0  0  0  0
   56.1390   30.2340   42.6200 O   0  0  0  0  0  0  0  0  0  0  0  0
   57.5180   30.9280   44.8210 C   0  0  0  0  0  0  0  0  0  0  0  0
   57.4290   32.2640   44.4000 C   0  0  0  0  0  0  0  0  0  0  0  0
   58.1230   33.2710   45.0710 C   0  0  0  0  0  0  0  0  0  0  0  0
   58.9180   32.9620   46.1780 C   0  0  0  0  0  0  0  0  0  0  0  0
   59.8310   34.2300   47.0010 S   0  0  0  0  0  0  0  0  0  0  0  0
   58.9020   35.3560   47.3610 O   0  0  0  0  0  0  0  0  0  0  0  0
   60.8780   34.7730   46.0670 O   0  0  0  0  0  0  0  0  0  0  0  0
   60.6000   33.6260   48.4500 N   0  0  0  0  0  0  0  0  0  0  0  0
   59.6100   33.3680   49.5240 C   0  0  0  0  0  0  0  0  0  0  0  0
   59.2780   31.8780   49.6970 C   0  0  0  0  0  0  0  0  0  0  0  0
   60.5070   31.1040   49.9090 N   0  0  0  0  0  0  0  0  0  0  0  0
   60.4720   29.8520   50.6310 C   0  0  0  0  0  0  0  0  0  0  0  0
   60.1050   29.8180   51.9890 C   0  0  0  0  0  0  0  0  0  0  0  0
   60.0710   28.6060   52.6840 C   0  0  0  0  0  0  0  0  0  0  0  0
   60.4020   27.4150   52.0350 C   0  0  0  0  0  0  0  0  0  0  0  0
   60.7700   27.4330   50.6840 C   0  0  0  0  0  0  0  0  0  0  0  0
   61.1060   26.2510   50.0250 O   0  0  0  0  0  0  0  0  0  0  0  0
   60.8050   28.6450   49.9870 C   0  0  0  0  0  0  0  0  0  0  0  0
   61.7690   31.6090   49.3510 C   0  0  0  0  0  0  0  0  0  0  0  0
   61.4840   32.4840   48.1270 C   0  0  0  0  0  0  0  0  0  0  0  0
   59.0100   31.6340   46.6130 C   0  0  0  0  0  0  0  0  0  0  0  0
   58.3310   30.6060   45.9370 C   0  0  0  0  0  0  0  0  0  0  0  0
   58.5160   29.2140   46.4030 C   0  0  0  0  0  0  0  0  0  0  0  0
   59.7990   28.7180   46.6850 C   0  0  0  0  0  0  0  0  0  0  0  0
   59.9460   27.3930   47.1070 C   0  0  0  0  0  0  0  0  0  0  0  0
   61.0890   26.9360   47.3700 O   0  0  0  0  0  0  0  0  0  0  0  0
   58.8190   26.5770   47.2350 C   0  0  0  0  0  0  0  0  0  0  0  0
   57.5590   27.1010   46.9370 C   0  0  0  0  0  0  0  0  0  0  0  0
   57.4370   28.3920   46.5300 N   0  0  0  0  0  0  0  0  0  0  0  0
   55.4380   28.6570   45.6260 H   0  0  0  0  0  0  0  0  0  0  0  0
   56.8049   32.5199   43.5311 H   0  0  0  0  0  0  0  0  0  0  0  0
   58.0441   34.3129   44.7272 H   0  0  0  0  0  0  0  0  0  0  0  0
   60.0168   33.7478   50.4728 H   0  0  0  0  0  0  0  0  0  0  0  0
   58.6786   33.8791   49.2392 H   0  0  0  0  0  0  0  0  0  0  0  0
   58.6154   31.7523   50.5660 H   0  0  0  0  0  0  0  0  0  0  0  0
   58.7785   31.5145   48.7869 H   0  0  0  0  0  0  0  0  0  0  0  0
   59.8430   30.7522   52.5073 H   0  0  0  0  0  0  0  0  0  0  0  0
   59.7826   28.5904   53.7454 H   0  0  0  0  0  0  0  0  0  0  0  0
   60.3737   26.4627   52.5848 H   0  0  0  0  0  0  0  0  0  0  0  0
   61.3340   26.2430   49.0380 H   0  0  0  0  0  0  0  0  0  0  0  0
   61.0953   28.6554   48.9261 H   0  0  0  0  0  0  0  0  0  0  0  0
   62.2915   32.2063   50.1127 H   0  0  0  0  0  0  0  0  0  0  0  0
   62.3981   30.7584   49.0498 H   0  0  0  0  0  0  0  0  0  0  0  0
   62.4374   32.8725   47.7395 H   0  0  0  0  0  0  0  0  0  0  0  0
   60.9717   31.8614   47.3787 H   0  0  0  0  0  0  0  0  0  0  0  0
   59.6215   31.3925   47.4949 H   0  0  0  0  0  0  0  0  0  0  0  0
   60.6809   29.3662   46.5749 H   0  0  0  0  0  0  0  0  0  0  0  0
   58.9229   25.5334   47.5668 H   0  0  0  0  0  0  0  0  0  0  0  0
   56.6644   26.4680   47.0318 H   0  0  0  0  0  0  0  0  0  0  0  0
  1  2  1  0
  2  3  2  0
  2  4  2  0
  2  5  1  0
  5  6  2  0
  6  7  1  0
  7  8  2  0
  8  9  1  0
  9 10  2  0
  9 11  2  0
  9 12  1  0
 12 13  1  0
 13 14  1  0
 14 15  1  0
 15 16  1  0
 16 17  2  0
 17 18  1  0
 18 19  2  0
 19 20  1  0
 20 21  1  0
 20 22  2  0
 15 23  1  0
 23 24  1  0
  8 25  1  0
 25 26  2  0
 26 27  1  0
 27 28  2  0
 28 29  1  0
 29 30  2  0
 29 31  1  0
 31 32  2  0
 32 33  1  0
 26  5  1  0
 33 27  1  0
 24 12  1  0
 22 16  1  0
  1 34  1  0
  6 35  1  0
  7 36  1  0
 13 37  1  0
 13 38  1  0
 14 39  1  0
 14 40  1  0
 17 41  1  0
 18 42  1  0
 19 43  1  0
 21 44  1  0
 22 45  1  0
 23 46  1  0
 23 47  1  0
 24 48  1  0
 24 49  1  0
 25 50  1  0
 28 51  1  0
 31 52  1  0
 32 53  1  0
M  CHG  2   1  -1  33  -1
M  END
>  <UniqueID>  (29) 
26

>  <SMILES>  (29) 
[NH-]S(=O)(=O)c1ccc(S(=O)(=O)N2CCN(c3cccc(O)c3)CC2)cc1-c1cc(=O)cc[n-]1

>  <Energy>  (29) 
71.78244351764896

>  <Genealogy>  (29) 
[NH-]S(=O)(=O)c1ccc(S(=O)(=O)N2CCN(c3cccc(O)c3)CC2)cc1-c1cc(=O)cc[n-]1 (protonated)
[NH-]S(=O)(=O)c1ccc(S(=O)(=O)N2CCN(c3cccc(O)c3)CC2)cc1-c1cc(=O)cc[n-]1 (3D coordinates assigned)
[NH-]S(=O)(=O)c1ccc(S(=O)(=O)N2CCN(c3cccc(O)c3)CC2)cc1-c1cc(=O)cc[n-]1 (nonaromatic ring conformer: 71.78244351764896 kcal/mol)

>  <smiles>  (29) 
NS(=O)(=O)c1ccc(S(=O)(=O)N2CCN(c3cccc(O)c3)CC2)cc1-c1cc(=O)cc[nH]1

>  <score_type>  (29) 
oracle

>  <origin>  (29) 
adg

>  <m_score__min__energy>  (29) 
-13.220000000000001

>  <m_primary>  (29) 
energy

$$$$
29:0
     RDKit          3D

 34 35  0  0  0  0  0  0  0  0999 V2000
   58.9440   29.2450   47.0300 C   0  0  0  0  0  0  0  0  0  0  0  0
   58.1270   29.7280   46.0820 C   0  0  0  0  0  0  0  0  0  0  0  0
   57.3690   29.0030   45.1500 C   0  0  0  0  0  0  0  0  0  0  0  0
   57.3610   27.6900   44.8360 C   0  0  0  0  0  0  0  0  0  0  0  0
   57.3440   26.5800   45.8070 C   0  0  0  0  0  0  0  0  0  0  0  0
   56.1290   26.1080   46.3210 C   0  0  0  0  0  0  0  0  0  0  0  0
   54.9280   26.7130   45.9650 O   0  0  0  0  0  0  0  0  0  0  0  0
   56.1170   25.0570   47.1810 N   0  0  0  0  0  0  0  0  0  0  0  0
   57.2680   24.4370   47.5450 C   0  0  0  0  0  0  0  0  0  0  0  0
   57.2350   23.4680   48.3460 O   0  0  0  0  0  0  0  0  0  0  0  0
   58.4560   24.8570   47.0390 N   0  0  0  0  0  0  0  0  0  0  0  0
   58.5210   25.9020   46.1750 C   0  0  0  0  0  0  0  0  0  0  0  0
   59.6380   26.2520   45.7090 O   0  0  0  0  0  0  0  0  0  0  0  0
   56.5630   29.9660   44.5520 C   0  0  0  0  0  0  0  0  0  0  0  0
   55.5520   29.7490   43.4690 C   0  0  0  0  0  0  0  0  0  0  0  0
   56.8520   31.1820   45.0500 N   0  0  0  0  0  0  0  0  0  0  0  0
   57.7920   31.0380   45.9690 N   0  0  0  0  0  0  0  0  0  0  0  0
   58.3670   32.1560   46.6690 C   0  0  0  0  0  0  0  0  0  0  0  0
   58.4670   32.1110   47.9260 O   0  0  0  0  0  0  0  0  0  0  0  0
   58.8530   33.3140   45.9570 N   0  0  0  0  0  0  0  0  0  0  0  0
   59.6240   34.3290   46.6800 C   0  0  0  0  0  0  0  0  0  0  0  0
   58.5110   33.5200   44.5460 C   0  0  0  0  0  0  0  0  0  0  0  0
   59.4805   29.9353   47.6976 H   0  0  0  0  0  0  0  0  0  0  0  0
   59.0774   28.1587   47.1398 H   0  0  0  0  0  0  0  0  0  0  0  0
   57.3677   27.4264   43.7681 H   0  0  0  0  0  0  0  0  0  0  0  0
   54.5710   29.5384   43.9200 H   0  0  0  0  0  0  0  0  0  0  0  0
   55.4826   30.6527   42.8457 H   0  0  0  0  0  0  0  0  0  0  0  0
   55.8596   28.8964   42.8457 H   0  0  0  0  0  0  0  0  0  0  0  0
   59.5074   34.1755   47.7630 H   0  0  0  0  0  0  0  0  0  0  0  0
   60.6869   34.2434   46.4099 H   0  0  0  0  0  0  0  0  0  0  0  0
   59.2565   35.3300   46.4099 H   0  0  0  0  0  0  0  0  0  0  0  0
   57.5707   34.0864   44.4756 H   0  0  0  0  0  0  0  0  0  0  0  0
   59.3163   34.0834   44.0520 H   0  0  0  0  0  0  0  0  0  0  0  0
   58.3895   32.5447   44.0520 H   0  0  0  0  0  0  0  0  0  0  0  0
  1  2  2  0
  2  3  1  0
  3  4  2  3
  4  5  1  0
  5  6  2  0
  6  7  1  0
  6  8  1  0
  8  9  1  0
  9 10  2  0
  9 11  1  0
 11 12  1  0
 12 13  2  0
  3 14  1  0
 14 15  1  0
 14 16  2  0
 16 17  1  0
 17 18  1  0
 18 19  2  0
 18 20  1  0
 20 21  1  0
 20 22  1  0
 17  2  1  0
 12  5  1  0
  1 23  1  0
  1 24  1  0
  4 25  1  0
 15 26  1  0
 15 27  1  0
 15 28  1  0
 21 29  1  0
 21 30  1  0
 21 31  1  0
 22 32  1  0
 22 33  1  0
 22 34  1  0
M  CHG  3   7  -1   8  -1  11  -1
M  END
>  <UniqueID>  (30) 
27

>  <SMILES>  (30) 
C=c1c(=Cc2c([O-])[n-]c(=O)[n-]c2=O)c(C)nn1C(=O)N(C)C

>  <Energy>  (30) 
83.02674313506272

>  <Genealogy>  (30) 
C=c1c(=Cc2c([O-])[n-]c(=O)[n-]c2=O)c(C)nn1C(=O)N(C)C (protonated)
C=c1c(=Cc2c([O-])[n-]c(=O)[n-]c2=O)c(C)nn1C(=O)N(C)C (3D coordinates assigned)
C=c1c(=Cc2c([O-])[n-]c(=O)[n-]c2=O)c(C)nn1C(=O)N(C)C (optimized conformer: 83.02674313506272 kcal/mol)

>  <smiles>  (30) 
C=c1c(=Cc2c(O)[nH]c(=O)[nH]c2=O)c(C)nn1C(=O)N(C)C

>  <score_type>  (30) 
oracle

>  <origin>  (30) 
adg

>  <m_score__min__energy>  (30) 
-15.029999999999999

>  <m_primary>  (30) 
energy

$$$$
30:0
     RDKit          3D

 40 42  0  0  0  0  0  0  0  0999 V2000
   63.7860   32.2050   49.3840 C   0  0  0  0  0  0  0  0  0  0  0  0
   62.5890   31.5910   48.7170 C   0  0  0  0  0  0  0  0  0  0  0  0
   62.3440   31.8260   47.3570 C   0  0  0  0  0  0  0  0  0  0  0  0
   61.2100   31.2920   46.7440 C   0  0  0  0  0  0  0  0  0  0  0  0
   60.2980   30.5240   47.4820 C   0  0  0  0  0  0  0  0  0  0  0  0
   59.1280   29.9980   46.8280 N   0  0  0  0  0  0  0  0  0  0  0  0
   58.1290   30.8470   46.4360 C   0  0  0  0  0  0  0  0  0  0  0  0
   58.2240   32.0880   46.6370 O   0  0  0  0  0  0  0  0  0  0  0  0
   57.0250   30.3610   45.8210 N   0  0  0  0  0  0  0  0  0  0  0  0
   56.8690   29.0380   45.5760 C   0  0  0  0  0  0  0  0  0  0  0  0
   55.7230   28.6110   44.9160 O   0  0  0  0  0  0  0  0  0  0  0  0
   57.8670   28.1270   45.9710 C   0  0  0  0  0  0  0  0  0  0  0  0
   57.7200   26.6680   45.7180 C   0  0  0  0  0  0  0  0  0  0  0  0
   57.7470   26.2340   44.5340 O   0  0  0  0  0  0  0  0  0  0  0  0
   57.5550   25.7600   46.8220 N   0  0  0  0  0  0  0  0  0  0  0  0
   56.7930   24.7040   46.8710 C   0  0  0  0  0  0  0  0  0  0  0  0
   57.2120   23.5630   47.4900 N   0  0  0  0  0  0  0  0  0  0  0  0
   56.4370   22.4480   47.5530 C   0  0  0  0  0  0  0  0  0  0  0  0
   55.1690   22.4450   46.9730 C   0  0  0  0  0  0  0  0  0  0  0  0
   54.7100   23.5950   46.3300 C   0  0  0  0  0  0  0  0  0  0  0  0
   55.5170   24.7350   46.2730 C   0  0  0  0  0  0  0  0  0  0  0  0
   55.0350   25.8740   45.6250 O   0  0  0  0  0  0  0  0  0  0  0  0
   59.0100   28.6500   46.6130 C   0  0  0  0  0  0  0  0  0  0  0  0
   59.9230   27.8710   47.0080 O   0  0  0  0  0  0  0  0  0  0  0  0
   60.5360   30.2810   48.8520 C   0  0  0  0  0  0  0  0  0  0  0  0
   59.5640   29.4790   49.6730 C   0  0  0  0  0  0  0  0  0  0  0  0
   61.6720   30.8360   49.4640 C   0  0  0  0  0  0  0  0  0  0  0  0
   63.6684   32.1447   50.4760 H   0  0  0  0  0  0  0  0  0  0  0  0
   64.6932   31.6609   49.0823 H   0  0  0  0  0  0  0  0  0  0  0  0
   63.8733   33.2592   49.0823 H   0  0  0  0  0  0  0  0  0  0  0  0
   63.0487   32.4339   46.7706 H   0  0  0  0  0  0  0  0  0  0  0  0
   61.0302   31.4748   45.6743 H   0  0  0  0  0  0  0  0  0  0  0  0
   56.8105   21.5472   48.0620 H   0  0  0  0  0  0  0  0  0  0  0  0
   54.5374   21.5457   47.0219 H   0  0  0  0  0  0  0  0  0  0  0  0
   53.7120   23.6046   45.8674 H   0  0  0  0  0  0  0  0  0  0  0  0
   55.6220   26.4520   45.0360 H   0  0  0  0  0  0  0  0  0  0  0  0
   59.7637   29.6438   50.7421 H   0  0  0  0  0  0  0  0  0  0  0  0
   58.5371   29.7961   49.4387 H   0  0  0  0  0  0  0  0  0  0  0  0
   59.6803   28.4106   49.4387 H   0  0  0  0  0  0  0  0  0  0  0  0
   61.8443   30.6773   50.5388 H   0  0  0  0  0  0  0  0  0  0  0  0
  1  2  1  0
  2  3  2  0
  3  4  1  0
  4  5  2  0
  5  6  1  0
  6  7  1  0
  7  8  2  0
  7  9  1  0
  9 10  1  0
 10 11  1  0
 10 12  2  0
 12 13  1  0
 13 14  2  0
 13 15  1  0
 15 16  2  3
 16 17  1  0
 17 18  1  0
 18 19  2  0
 19 20  1  0
 20 21  2  0
 21 22  1  0
 12 23  1  0
 23 24  2  0
  5 25  1  0
 25 26  1  0
 25 27  2  0
 27  2  1  0
 23  6  1  0
 21 16  1  0
  1 28  1  0
  1 29  1  0
  1 30  1  0
  3 31  1  0
  4 32  1  0
 18 33  1  0
 19 34  1  0
 20 35  1  0
 22 36  1  0
 26 37  1  0
 26 38  1  0
 26 39  1  0
 27 40  1  0
M  CHG  3   9  -1  11  -1  17  -1
M  END
>  <UniqueID>  (31) 
28

>  <SMILES>  (31) 
Cc1ccc(-n2c(=O)[n-]c([O-])c(C(=O)N=c3[n-]cccc3O)c2=O)c(C)c1

>  <Energy>  (31) 
61.44071842480266

>  <Genealogy>  (31) 
Cc1ccc(-n2c(=O)[n-]c([O-])c(C(=O)N=c3[n-]cccc3O)c2=O)c(C)c1 (protonated)
Cc1ccc(-n2c(=O)[n-]c([O-])c(C(=O)N=c3[n-]cccc3O)c2=O)c(C)c1 (3D coordinates assigned)
Cc1ccc(-n2c(=O)[n-]c([O-])c(C(=O)N=c3[n-]cccc3O)c2=O)c(C)c1 (optimized conformer: 61.44071842480266 kcal/mol)

>  <smiles>  (31) 
Cc1ccc(-n2c(=O)[nH]c(O)c(C(=O)N=c3[nH]cccc3O)c2=O)c(C)c1

>  <score_type>  (31) 
oracle

>  <origin>  (31) 
adg

>  <m_score__min__energy>  (31) 
-13.890000000000001

>  <m_primary>  (31) 
energy

$$$$
31:0
     RDKit          3D

 44 47  0  0  1  0  0  0  0  0999 V2000
   57.2480   24.9500   47.2190 O   0  0  0  0  0  0  0  0  0  0  0  0
   57.5660   25.1300   46.0200 C   0  0  0  0  0  0  0  0  0  0  0  0
   57.4700   24.0180   45.0740 C   0  0  0  0  0  0  0  0  0  0  0  0
   58.3390   22.9330   45.1360 C   0  0  0  0  0  0  0  0  0  0  0  0
   58.1470   21.9160   44.2210 C   0  0  0  0  0  0  0  0  0  0  0  0
   57.1390   21.9640   43.2800 C   0  0  0  0  0  0  0  0  0  0  0  0
   56.2720   23.0300   43.2060 C   0  0  0  0  0  0  0  0  0  0  0  0
   56.4600   24.0540   44.1200 C   0  0  0  0  0  0  0  0  0  0  0  0
   58.0180   26.4610   45.6450 C   0  0  0  0  0  0  0  0  0  0  0  0
   59.3370   26.8180   45.5130 C   0  0  0  0  0  0  0  0  0  0  0  0
   59.6230   28.1190   45.1300 C   0  0  0  0  0  0  0  0  0  0  0  0
   58.6430   29.0480   44.8820 C   0  0  0  0  0  0  0  0  0  0  0  0
   58.9070   30.3130   44.5160 N   0  0  0  0  0  0  0  0  0  0  0  0
   58.0250   31.2580   44.2660 C   0  0  0  0  0  0  0  0  0  0  0  0
   58.2120   32.5840   43.7590 C   0  0  0  0  0  0  0  0  0  0  0  0
   58.4900   33.6780   44.3890 C   0  0  0  0  0  0  0  0  0  0  0  0
   59.0290   33.8700   45.7010 C   0  0  0  0  0  0  0  0  0  0  0  0
   60.1940   34.4780   46.0740 C   0  0  0  0  0  0  0  0  0  0  0  0
   60.6800   34.5180   47.3660 C   0  0  0  0  0  0  0  0  0  0  0  0
   59.9790   33.9210   48.3880 C   0  0  0  0  0  0  0  0  0  0  0  0
   58.7910   33.2980   48.0290 C   0  0  0  0  0  0  0  0  0  0  0  0
   58.3150   33.2610   46.7450 C   0  0  0  0  0  0  0  0  0  0  0  0
   57.1000   32.6060   46.4900 O   0  0  0  0  0  0  0  0  0  0  0  0
   56.7060   30.8780   44.4060 N   0  0  0  0  0  0  0  0  0  0  0  0
   56.3770   29.6380   44.7670 C   0  0  0  0  0  0  0  0  0  0  0  0
   55.1620   29.3450   44.8790 O   0  0  0  0  0  0  0  0  0  0  0  0
   57.3290   28.6880   45.0150 C   0  0  0  0  0  0  0  0  0  0  0  0
   57.0160   27.4000   45.3940 C   0  0  0  0  0  0  0  0  0  0  0  0
   59.1454   22.8870   45.8827 H   0  0  0  0  0  0  0  0  0  0  0  0
   58.8165   21.0435   44.2432 H   0  0  0  0  0  0  0  0  0  0  0  0
   57.0257   21.1299   42.5718 H   0  0  0  0  0  0  0  0  0  0  0  0
   55.4677   23.0673   42.4566 H   0  0  0  0  0  0  0  0  0  0  0  0
   55.7878   24.9242   44.0896 H   0  0  0  0  0  0  0  0  0  0  0  0
   60.1422   26.0937   45.7053 H   0  0  0  0  0  0  0  0  0  0  0  0
   60.6757   28.4187   45.0205 H   0  0  0  0  0  0  0  0  0  0  0  0
   59.9230   30.5630   44.4750 H   0  0  0  0  0  0  0  0  0  0  0  0
   58.1026   32.6873   42.6693 H   0  0  0  0  0  0  0  0  0  0  0  0
   58.2803   34.6028   43.8316 H   0  0  0  0  0  0  0  0  0  0  0  0
   60.7871   34.9707   45.2895 H   0  0  0  0  0  0  0  0  0  0  0  0
   61.6307   35.0289   47.5786 H   0  0  0  0  0  0  0  0  0  0  0  0
   60.3381   33.9362   49.4276 H   0  0  0  0  0  0  0  0  0  0  0  0
   58.2008   32.8082   48.8175 H   0  0  0  0  0  0  0  0  0  0  0  0
   57.0190   31.6150   46.4000 H   0  0  0  0  0  0  0  0  0  0  0  0
   55.9608   27.1078   45.5002 H   0  0  0  0  0  0  0  0  0  0  0  0
  1  2  2  0
  2  3  1  0
  3  4  2  0
  4  5  1  0
  5  6  2  0
  6  7  1  0
  7  8  2  0
  2  9  1  0
  9 10  2  0
 10 11  1  0
 11 12  2  0
 12 13  1  0
 13 14  1  0
 14 15  1  0
 15 16  2  0
 16 17  1  0
 17 18  2  0
 18 19  1  0
 19 20  2  0
 20 21  1  0
 21 22  2  0
 22 23  1  0
 14 24  2  0
 24 25  1  0
 25 26  2  0
 25 27  1  0
 27 28  2  0
  8  3  1  0
 28  9  1  0
 27 12  1  0
 22 17  1  0
  4 29  1  0
  5 30  1  0
  6 31  1  0
  7 32  1  0
  8 33  1  0
 10 34  1  0
 11 35  1  0
 13 36  1  0
 15 37  1  0
 16 38  1  0
 18 39  1  0
 19 40  1  0
 20 41  1  0
 21 42  1  0
 23 43  1  0
 28 44  1  0
M  END
>  <smiles>  (32) 
O=C(c1ccccc1)c1ccc2[nH]c(C=Cc3ccccc3O)nc(=O)c2c1

>  <score_type>  (32) 
oracle

>  <origin>  (32) 
adg

>  <m_score__min__energy>  (32) 
-9.9700000000000006

>  <m_primary>  (32) 
energy

$$$$
32:0
     RDKit          3D

 58 61  0  0  0  0  0  0  0  0999 V2000
   58.8590   31.0843   43.7150 H   0  0  0  0  0  0  0  0  0  0  0  0
   58.7150   30.2200   44.3800 C   0  0  0  0  0  0  0  0  0  0  0  0
   59.8630   29.7110   44.9630 C   0  0  0  0  0  0  0  0  0  0  0  0
   60.7933   30.2529   44.7376 H   0  0  0  0  0  0  0  0  0  0  0  0
   59.9950   28.6090   45.7930 C   0  0  0  0  0  0  0  0  0  0  0  0
   61.0196   28.3971   46.1326 H   0  0  0  0  0  0  0  0  0  0  0  0
   59.0140   27.7250   46.2630 C   0  0  0  0  0  0  0  0  0  0  0  0
   59.5310   26.5960   47.0790 C   0  0  0  0  0  0  0  0  0  0  0  0
   59.9230   25.5550   46.4870 O   0  0  0  0  0  0  0  0  0  0  0  0
   59.5750   26.6150   48.5150 N   0  0  0  0  0  0  0  0  0  0  0  0
   60.1720   27.4630   49.3040 C   0  0  0  0  0  0  0  0  0  0  0  0
   60.9910   27.0570   50.2960 N   0  0  0  0  0  0  0  0  0  0  0  0
   61.5150   28.1030   50.9940 C   0  0  0  0  0  0  0  0  0  0  0  0
   62.4010   27.8710   52.1750 C   0  0  0  0  0  0  0  0  0  0  0  0
   61.8256   28.0217   53.1003 H   0  0  0  0  0  0  0  0  0  0  0  0
   62.7873   26.8414   52.1470 H   0  0  0  0  0  0  0  0  0  0  0  0
   63.2423   28.5791   52.1470 H   0  0  0  0  0  0  0  0  0  0  0  0
   61.1610   29.3690   50.5090 C   0  0  0  0  0  0  0  0  0  0  0  0
   61.3870   30.6610   51.1870 C   0  0  0  0  0  0  0  0  0  0  0  0
   60.4840   31.0710   51.9680 O   0  0  0  0  0  0  0  0  0  0  0  0
   62.5580   31.4930   50.9600 N   0  0  0  0  0  0  0  0  0  0  0  0
   63.2870   31.1300   51.6230 H   0  0  0  0  0  0  0  0  0  0  0  0
   63.1530   31.3660   49.5960 C   0  0  0  0  0  0  0  0  0  0  0  0
   62.7036   30.4910   49.1036 H   0  0  0  0  0  0  0  0  0  0  0  0
   64.2398   31.2662   49.7331 H   0  0  0  0  0  0  0  0  0  0  0  0
   62.9320   32.5920   48.6960 C   0  0  0  0  0  0  0  0  0  0  0  0
   62.9376   32.2756   47.6425 H   0  0  0  0  0  0  0  0  0  0  0  0
   63.7387   33.3186   48.8730 H   0  0  0  0  0  0  0  0  0  0  0  0
   61.6480   33.2180   49.0060 N   0  0  0  0  0  0  0  0  0  0  0  0
   60.6390   33.4020   47.9920 C   0  0  0  0  0  0  0  0  0  0  0  0
   60.9720   33.9710   46.7530 C   0  0  0  0  0  0  0  0  0  0  0  0
   61.9983   34.3237   46.5731 H   0  0  0  0  0  0  0  0  0  0  0  0
   60.0130   34.0930   45.7480 C   0  0  0  0  0  0  0  0  0  0  0  0
   60.2932   34.5308   44.7786 H   0  0  0  0  0  0  0  0  0  0  0  0
   58.6910   33.6620   45.9610 C   0  0  0  0  0  0  0  0  0  0  0  0
   57.6830   33.7910   44.8750 C   0  0  0  0  0  0  0  0  0  0  0  0
   56.6910   34.5530   45.0330 O   0  0  0  0  0  0  0  0  0  0  0  0
   57.8040   33.0400   43.5830 C   0  0  0  0  0  0  0  0  0  0  0  0
   57.9758   31.9740   43.7932 H   0  0  0  0  0  0  0  0  0  0  0  0
   56.8758   33.1546   43.0039 H   0  0  0  0  0  0  0  0  0  0  0  0
   58.6492   33.4404   43.0039 H   0  0  0  0  0  0  0  0  0  0  0  0
   58.3560   33.1000   47.2070 C   0  0  0  0  0  0  0  0  0  0  0  0
   57.3248   32.7665   47.3952 H   0  0  0  0  0  0  0  0  0  0  0  0
   59.3220   32.9620   48.2070 C   0  0  0  0  0  0  0  0  0  0  0  0
   59.0494   32.5054   49.1699 H   0  0  0  0  0  0  0  0  0  0  0  0
   61.4120   33.6600   50.3860 C   0  0  0  0  0  0  0  0  0  0  0  0
   60.3584   33.4801   50.6459 H   0  0  0  0  0  0  0  0  0  0  0  0
   61.6492   34.7319   50.4555 H   0  0  0  0  0  0  0  0  0  0  0  0
   62.3120   32.8940   51.3740 C   0  0  0  0  0  0  0  0  0  0  0  0
   61.8256   32.8885   52.3606 H   0  0  0  0  0  0  0  0  0  0  0  0
   63.2849   33.4067   51.4011 H   0  0  0  0  0  0  0  0  0  0  0  0
   60.0760   29.1430   49.2450 S   0  0  0  0  0  0  0  0  0  0  0  0
   57.6150   27.8160   46.0780 C   0  0  0  0  0  0  0  0  0  0  0  0
   56.9060   26.9570   46.6720 O   0  0  0  0  0  0  0  0  0  0  0  0
   56.9070   28.7380   45.2920 C   0  0  0  0  0  0  0  0  0  0  0  0
   55.5240   28.5900   45.2510 O   0  0  0  0  0  0  0  0  0  0  0  0
   57.4100   29.7830   44.5250 C   0  0  0  0  0  0  0  0  0  0  0  0
   56.6603   30.3450   43.9487 H   0  0  0  0  0  0  0  0  0  0  0  0
  1  2  1  0
  2  3  2  0
  3  4  1  0
  3  5  1  0
  5  6  1  0
  5  7  2  0
  7  8  1  0
  8  9  2  0
  8 10  1  0
 10 11  2  0
 11 12  1  0
 12 13  1  0
 13 14  1  0
 14 15  1  0
 14 16  1  0
 14 17  1  0
 13 18  2  0
 18 19  1  0
 19 20  2  0
 19 21  1  0
 21 22  1  0
 21 23  1  0
 23 24  1  0
 23 25  1  0
 23 26  1  0
 26 27  1  0
 26 28  1  0
 26 29  1  0
 29 30  1  0
 30 31  2  0
 31 32  1  0
 31 33  1  0
 33 34  1  0
 33 35  2  0
 35 36  1  0
 36 37  2  0
 36 38  1  0
 38 39  1  0
 38 40  1  0
 38 41  1  0
 35 42  1  0
 42 43  1  0
 42 44  2  0
 44 45  1  0
 29 46  1  0
 46 47  1  0
 46 48  1  0
 46 49  1  0
 49 50  1  0
 49 51  1  0
 18 52  1  0
  7 53  1  0
 53 54  2  0
 53 55  1  0
 55 56  1  0
 55 57  2  0
 57 58  1  0
 57  2  1  0
 52 11  1  0
 49 21  1  0
 44 30  1  0
M  CHG  3  12  -1  21   1  56  -1
M  END
>  <UniqueID>  (33) 
29

>  <SMILES>  (33) 
CC(=O)c1ccc(N2CC[NH+](C(=O)c3s/c(=N\C(=O)c4ccccc([O-])c4=O)[n-]c3C)CC2)cc1

>  <Energy>  (33) 
141.92861860238705

>  <Genealogy>  (33) 
CC(=O)c1ccc(N2CC[NH+](C(=O)c3sc(=NC(=O)c4ccccc([O-])c4=O)[n-]c3C)CC2)cc1 (protonated)
CC(=O)c1ccc(N2CC[NH+](C(=O)c3s/c(=N\C(=O)c4ccccc([O-])c4=O)[n-]c3C)CC2)cc1 (cis-trans isomerization)
CC(=O)c1ccc(N2CC[NH+](C(=O)c3s/c(=N\C(=O)c4ccccc([O-])c4=O)[n-]c3C)CC2)cc1 (3D coordinates assigned)
CC(=O)c1ccc(N2CC[NH+](C(=O)c3s/c(=N\C(=O)c4ccccc([O-])c4=O)[n-]c3C)CC2)cc1 (nonaromatic ring conformer: 141.92861860238705 kcal/mol)

>  <smiles>  (33) 
CC(=O)c1ccc(N2CCN(C(=O)c3sc(=NC(=O)c4ccccc(O)c4=O)[nH]c3C)CC2)cc1

>  <score_type>  (33) 
oracle

>  <origin>  (33) 
adg

>  <m_score__min__energy>  (33) 
-13.67

>  <m_primary>  (33) 
energy

$$$$
33:0
     RDKit          3D

 51 54  0  0  1  0  0  0  0  0999 V2000
   58.1460   26.7580   45.8850 C   0  0  0  0  0  0  0  0  0  0  0  0
   58.0940   28.0330   45.5770 C   0  0  0  0  0  0  0  0  0  0  0  0
   56.9620   28.5460   45.0250 N   0  0  0  0  0  0  0  0  0  0  0  0
   56.8420   29.8400   44.6870 C   0  0  0  0  0  0  0  0  0  0  0  0
   55.7230   30.1760   44.1810 O   0  0  0  0  0  0  0  0  0  0  0  0
   57.8370   30.7460   44.8680 N   0  0  0  0  0  0  0  0  0  0  0  0
   57.6740   32.1150   44.4990 C   0  0  0  0  0  0  0  0  0  0  0  0
   58.2630   32.9800   45.5460 C   0  0  0  0  0  0  0  0  0  0  0  0
   59.1670   33.9970   45.2530 C   0  0  0  0  0  0  0  0  0  0  0  0
   59.7190   34.8040   46.2250 C   0  0  0  0  0  0  0  0  0  0  0  0
   59.3940   34.6330   47.5390 C   0  0  0  0  0  0  0  0  0  0  0  0
   58.5050   33.6400   47.8640 C   0  0  0  0  0  0  0  0  0  0  0  0
   57.9500   32.8270   46.8830 C   0  0  0  0  0  0  0  0  0  0  0  0
   58.9690   30.2720   45.4130 C   0  0  0  0  0  0  0  0  0  0  0  0
   59.9420   31.0120   45.6230 O   0  0  0  0  0  0  0  0  0  0  0  0
   59.1200   28.9280   45.7730 C   0  0  0  0  0  0  0  0  0  0  0  0
   60.2450   28.5190   46.2970 C   0  0  0  0  0  0  0  0  0  0  0  0
   60.3390   28.0130   47.6770 C   0  0  0  0  0  0  0  0  0  0  0  0
   60.3500   26.6940   48.0180 N   0  0  0  0  0  0  0  0  0  0  0  0
   60.4480   26.6810   49.3570 C   0  0  0  0  0  0  0  0  0  0  0  0
   60.4960   27.9380   49.8480 N   0  0  0  0  0  0  0  0  0  0  0  0
   60.4290   28.7910   48.8130 C   0  0  0  0  0  0  0  0  0  0  0  0
   60.4580   30.2350   48.9640 C   0  0  0  0  0  0  0  0  0  0  0  0
   59.5250   30.8990   48.4420 O   0  0  0  0  0  0  0  0  0  0  0  0
   61.5180   30.9730   49.6930 C   0  0  0  0  0  0  0  0  0  0  0  0
   62.1800   31.9380   48.7550 C   0  0  0  0  0  0  0  0  0  0  0  0
   62.8200   31.5470   47.6110 C   0  0  0  0  0  0  0  0  0  0  0  0
   63.4120   32.4960   46.7850 C   0  0  0  0  0  0  0  0  0  0  0  0
   63.3610   33.8550   47.1090 C   0  0  0  0  0  0  0  0  0  0  0  0
   62.7050   34.1890   48.2700 C   0  0  0  0  0  0  0  0  0  0  0  0
   62.1110   33.2900   49.1100 C   0  0  0  0  0  0  0  0  0  0  0  0
   61.2950   33.8050   50.5700 Cl  0  0  0  0  0  0  0  0  0  0  0  0
   59.0587   26.3369   46.3318 H   0  0  0  0  0  0  0  0  0  0  0  0
   57.2769   26.1107   45.6963 H   0  0  0  0  0  0  0  0  0  0  0  0
   56.1490   27.8810   44.8610 H   0  0  0  0  0  0  0  0  0  0  0  0
   58.1825   32.3000   43.5413 H   0  0  0  0  0  0  0  0  0  0  0  0
   56.6028   32.3423   44.3944 H   0  0  0  0  0  0  0  0  0  0  0  0
   59.4525   34.1635   44.2038 H   0  0  0  0  0  0  0  0  0  0  0  0
   60.4288   35.5939   45.9382 H   0  0  0  0  0  0  0  0  0  0  0  0
   59.8332   35.2744   48.3173 H   0  0  0  0  0  0  0  0  0  0  0  0
   58.2273   33.4849   48.9170 H   0  0  0  0  0  0  0  0  0  0  0  0
   57.2415   32.0395   47.1793 H   0  0  0  0  0  0  0  0  0  0  0  0
   61.1574   28.5540   45.6835 H   0  0  0  0  0  0  0  0  0  0  0  0
   60.4843   25.7692   49.9713 H   0  0  0  0  0  0  0  0  0  0  0  0
   60.5730   28.1390   50.8770 H   0  0  0  0  0  0  0  0  0  0  0  0
   61.0711   31.5244   50.5334 H   0  0  0  0  0  0  0  0  0  0  0  0
   62.2636   30.2630   50.0803 H   0  0  0  0  0  0  0  0  0  0  0  0
   62.8664   30.4808   47.3443 H   0  0  0  0  0  0  0  0  0  0  0  0
   63.9258   32.1741   45.8671 H   0  0  0  0  0  0  0  0  0  0  0  0
   63.8229   34.6192   46.4667 H   0  0  0  0  0  0  0  0  0  0  0  0
   62.6549   35.2538   48.5415 H   0  0  0  0  0  0  0  0  0  0  0  0
  1  2  2  0
  2  3  1  0
  3  4  1  0
  4  5  2  0
  4  6  1  0
  6  7  1  0
  7  8  1  0
  8  9  2  0
  9 10  1  0
 10 11  2  0
 11 12  1  0
 12 13  2  0
  6 14  1  0
 14 15  2  0
 14 16  1  0
 16 17  2  0
 17 18  1  0
 18 19  1  0
 19 20  2  0
 20 21  1  0
 21 22  1  0
 22 23  1  0
 23 24  2  0
 23 25  1  0
 25 26  1  0
 26 27  2  0
 27 28  1  0
 28 29  2  0
 29 30  1  0
 30 31  2  0
 31 32  1  0
 16  2  1  0
 22 18  2  0
 31 26  1  0
 13  8  1  0
  1 33  1  0
  1 34  1  0
  3 35  1  0
  7 36  1  0
  7 37  1  0
  9 38  1  0
 10 39  1  0
 11 40  1  0
 12 41  1  0
 13 42  1  0
 17 43  1  0
 20 44  1  0
 21 45  1  0
 25 46  1  0
 25 47  1  0
 27 48  1  0
 28 49  1  0
 29 50  1  0
 30 51  1  0
M  END
>  <smiles>  (34) 
C=c1[nH]c(=O)n(Cc2ccccc2)c(=O)c1=Cc1nc[nH]c1C(=O)Cc1ccccc1Cl

>  <score_type>  (34) 
oracle

>  <origin>  (34) 
adg

>  <m_score__min__energy>  (34) 
-9.9299999999999997

>  <m_primary>  (34) 
energy

$$$$
34:0
     RDKit          3D

 44 47  0  0  0  0  0  0  0  0999 V2000
   58.1310   32.3150   42.6330 C   0  0  0  0  0  0  0  0  0  0  0  0
   57.6800   33.0880   43.7410 O   0  0  0  0  0  0  0  0  0  0  0  0
   58.4600   33.3950   44.8690 C   0  0  0  0  0  0  0  0  0  0  0  0
   58.9060   34.7060   45.1290 C   0  0  0  0  0  0  0  0  0  0  0  0
   59.6800   34.9790   46.2590 C   0  0  0  0  0  0  0  0  0  0  0  0
   60.0120   33.9530   47.1440 C   0  0  0  0  0  0  0  0  0  0  0  0
   59.5760   32.6500   46.8980 C   0  0  0  0  0  0  0  0  0  0  0  0
   58.8100   32.3550   45.7560 C   0  0  0  0  0  0  0  0  0  0  0  0
   58.3360   31.0180   45.5140 N   0  0  0  0  0  0  0  0  0  0  0  0
   59.0010   29.8420   46.0030 C   0  0  0  0  0  0  0  0  0  0  0  0
   60.2340   29.8780   46.2560 O   0  0  0  0  0  0  0  0  0  0  0  0
   58.2800   28.5630   46.1400 C   0  0  0  0  0  0  0  0  0  0  0  0
   58.9130   27.2250   47.0170 S   0  0  0  0  0  0  0  0  0  0  0  0
   57.5650   26.2950   46.6910 C   0  0  0  0  0  0  0  0  0  0  0  0
   57.1600   25.0690   47.0270 N   0  0  0  0  0  0  0  0  0  0  0  0
   55.9270   25.0340   46.4300 C   0  0  0  0  0  0  0  0  0  0  0  0
   55.0310   23.8510   46.5330 C   0  0  0  0  0  0  0  0  0  0  0  0
   54.7850   23.3010   47.8040 C   0  0  0  0  0  0  0  0  0  0  0  0
   53.9400   22.2040   47.9540 C   0  0  0  0  0  0  0  0  0  0  0  0
   53.3380   21.6480   46.8270 C   0  0  0  0  0  0  0  0  0  0  0  0
   52.5680   20.6600   46.9440 O   0  0  0  0  0  0  0  0  0  0  0  0
   53.5860   22.1710   45.6000 N   0  0  0  0  0  0  0  0  0  0  0  0
   54.4090   23.2390   45.4110 C   0  0  0  0  0  0  0  0  0  0  0  0
   54.6260   23.7100   44.0020 C   0  0  0  0  0  0  0  0  0  0  0  0
   55.5800   26.1890   45.7790 N   0  0  0  0  0  0  0  0  0  0  0  0
   56.6660   26.9430   45.9760 C   0  0  0  0  0  0  0  0  0  0  0  0
   56.9930   28.2510   45.6340 C   0  0  0  0  0  0  0  0  0  0  0  0
   56.0840   29.1650   44.8710 C   0  0  0  0  0  0  0  0  0  0  0  0
   58.6537   31.4191   42.9994 H   0  0  0  0  0  0  0  0  0  0  0  0
   57.2681   32.0118   42.0219 H   0  0  0  0  0  0  0  0  0  0  0  0
   58.8196   32.9170   42.0219 H   0  0  0  0  0  0  0  0  0  0  0  0
   58.6428   35.5199   44.4374 H   0  0  0  0  0  0  0  0  0  0  0  0
   60.0283   36.0045   46.4515 H   0  0  0  0  0  0  0  0  0  0  0  0
   60.6176   34.1709   48.0360 H   0  0  0  0  0  0  0  0  0  0  0  0
   59.8339   31.8466   47.6037 H   0  0  0  0  0  0  0  0  0  0  0  0
   57.5250   30.8830   44.8710 H   0  0  0  0  0  0  0  0  0  0  0  0
   55.2655   23.7423   48.6897 H   0  0  0  0  0  0  0  0  0  0  0  0
   53.7499   21.7811   48.9515 H   0  0  0  0  0  0  0  0  0  0  0  0
   55.0863   24.7090   44.0161 H   0  0  0  0  0  0  0  0  0  0  0  0
   55.2911   23.0072   43.4788 H   0  0  0  0  0  0  0  0  0  0  0  0
   53.6596   23.7589   43.4788 H   0  0  0  0  0  0  0  0  0  0  0  0
   55.4890   29.7633   45.5767 H   0  0  0  0  0  0  0  0  0  0  0  0
   56.6846   29.8348   44.2380 H   0  0  0  0  0  0  0  0  0  0  0  0
   55.4109   28.5681   44.2380 H   0  0  0  0  0  0  0  0  0  0  0  0
  1  2  1  0
  2  3  1  0
  3  4  2  0
  4  5  1  0
  5  6  2  0
  6  7  1  0
  7  8  2  0
  8  9  1  0
  9 10  1  0
 10 11  2  0
 10 12  1  0
 12 13  1  0
 13 14  1  0
 14 15  1  0
 15 16  2  0
 16 17  1  0
 17 18  1  0
 18 19  2  0
 19 20  1  0
 20 21  2  0
 20 22  1  0
 22 23  1  0
 23 24  1  0
 16 25  1  0
 25 26  1  0
 26 27  1  0
 27 28  1  0
  8  3  1  0
 27 12  2  0
 26 14  2  0
 23 17  2  0
  1 29  1  0
  1 30  1  0
  1 31  1  0
  4 32  1  0
  5 33  1  0
  6 34  1  0
  7 35  1  0
  9 36  1  0
 18 37  1  0
 19 38  1  0
 24 39  1  0
 24 40  1  0
 24 41  1  0
 28 42  1  0
 28 43  1  0
 28 44  1  0
M  CHG  2  22  -1  25  -1
M  END
>  <UniqueID>  (35) 
30

>  <SMILES>  (35) 
COc1ccccc1NC(=O)c1sc2nc(-c3ccc(=O)[n-]c3C)[n-]c2c1C

>  <Energy>  (35) 
134.17189750320753

>  <Genealogy>  (35) 
COc1ccccc1NC(=O)c1sc2nc(-c3ccc(=O)[n-]c3C)[n-]c2c1C (protonated)
COc1ccccc1NC(=O)c1sc2nc(-c3ccc(=O)[n-]c3C)[n-]c2c1C (3D coordinates assigned)
COc1ccccc1NC(=O)c1sc2nc(-c3ccc(=O)[n-]c3C)[n-]c2c1C (optimized conformer: 134.17189750320753 kcal/mol)

>  <smiles>  (35) 
COc1ccccc1NC(=O)c1sc2nc(-c3ccc(=O)[nH]c3C)[nH]c2c1C

>  <score_type>  (35) 
oracle

>  <origin>  (35) 
adg

>  <m_score__min__energy>  (35) 
-10.44

>  <m_primary>  (35) 
energy

$$$$
35:0
     RDKit          3D

 56 58  0  0  0  0  0  0  0  0999 V2000
   57.1798   34.2788   43.6763 H   0  0  0  0  0  0  0  0  0  0  0  0
   57.7640   33.4570   44.1160 C   0  0  0  0  0  0  0  0  0  0  0  0
   57.9230   32.3360   43.3860 C   0  0  0  0  0  0  0  0  0  0  0  0
   57.9300   30.9930   44.0200 C   0  0  0  0  0  0  0  0  0  0  0  0
   58.7601   30.7275   44.6911 H   0  0  0  0  0  0  0  0  0  0  0  0
   56.9630   30.0950   43.8040 C   0  0  0  0  0  0  0  0  0  0  0  0
   56.3532   30.1778   42.8923 H   0  0  0  0  0  0  0  0  0  0  0  0
   56.6890   29.0000   44.7470 C   0  0  0  0  0  0  0  0  0  0  0  0
   55.5240   28.8920   45.2150 O   0  0  0  0  0  0  0  0  0  0  0  0
   57.7410   28.1590   45.2580 N   0  0  0  0  0  0  0  0  0  0  0  0
   58.8720   27.7260   44.4320 C   0  0  0  0  0  0  0  0  0  0  0  0
   58.9609   26.6309   44.4847 H   0  0  0  0  0  0  0  0  0  0  0  0
   58.6962   28.0416   43.3930 H   0  0  0  0  0  0  0  0  0  0  0  0
   60.1780   28.3650   44.9330 C   0  0  0  0  0  0  0  0  0  0  0  0
   61.0101   27.6831   44.7038 H   0  0  0  0  0  0  0  0  0  0  0  0
   60.2819   29.3340   44.4229 H   0  0  0  0  0  0  0  0  0  0  0  0
   60.1800   28.6490   46.4640 C   0  0  0  0  0  0  0  0  0  0  0  0
   61.2026   28.4622   46.8237 H   0  0  0  0  0  0  0  0  0  0  0  0
   59.8480   30.1290   46.7900 C   0  0  0  0  0  0  0  0  0  0  0  0
   59.7821   30.6919   45.8473 H   0  0  0  0  0  0  0  0  0  0  0  0
   58.8941   30.1454   47.3375 H   0  0  0  0  0  0  0  0  0  0  0  0
   60.8920   30.7740   47.6670 C   0  0  0  0  0  0  0  0  0  0  0  0
   61.8050   31.6980   47.1280 C   0  0  0  0  0  0  0  0  0  0  0  0
   61.7520   31.9623   46.0615 H   0  0  0  0  0  0  0  0  0  0  0  0
   62.7800   32.2820   47.9430 C   0  0  0  0  0  0  0  0  0  0  0  0
   63.4924   33.0032   47.5160 H   0  0  0  0  0  0  0  0  0  0  0  0
   62.8510   31.9510   49.2990 C   0  0  0  0  0  0  0  0  0  0  0  0
   63.6196   32.4109   49.9376 H   0  0  0  0  0  0  0  0  0  0  0  0
   61.9460   31.0360   49.8440 C   0  0  0  0  0  0  0  0  0  0  0  0
   62.0017   30.7781   50.9119 H   0  0  0  0  0  0  0  0  0  0  0  0
   60.9700   30.4480   49.0340 C   0  0  0  0  0  0  0  0  0  0  0  0
   60.2602   29.7277   49.4667 H   0  0  0  0  0  0  0  0  0  0  0  0
   59.2150   27.6930   47.2030 C   0  0  0  0  0  0  0  0  0  0  0  0
   59.5487   26.6570   47.0438 H   0  0  0  0  0  0  0  0  0  0  0  0
   59.2282   27.9525   48.2719 H   0  0  0  0  0  0  0  0  0  0  0  0
   57.7670   27.8350   46.6930 C   0  0  0  0  0  0  0  0  0  0  0  0
   57.2336   26.8871   46.8572 H   0  0  0  0  0  0  0  0  0  0  0  0
   57.2804   28.6526   47.2450 H   0  0  0  0  0  0  0  0  0  0  0  0
   58.1380   32.4580   41.9000 C   0  0  0  0  0  0  0  0  0  0  0  0
   59.0801   32.9926   41.7085 H   0  0  0  0  0  0  0  0  0  0  0  0
   58.1887   31.4541   41.4532 H   0  0  0  0  0  0  0  0  0  0  0  0
   57.3022   33.0164   41.4532 H   0  0  0  0  0  0  0  0  0  0  0  0
   58.3240   33.6540   45.4700 C   0  0  0  0  0  0  0  0  0  0  0  0
   59.4370   34.4840   45.6720 C   0  0  0  0  0  0  0  0  0  0  0  0
   59.8848   35.0157   44.8195 H   0  0  0  0  0  0  0  0  0  0  0  0
   59.9800   34.6390   46.9510 C   0  0  0  0  0  0  0  0  0  0  0  0
   60.8355   35.3131   47.1050 H   0  0  0  0  0  0  0  0  0  0  0  0
   59.4380   33.9380   48.0390 C   0  0  0  0  0  0  0  0  0  0  0  0
   59.9980   34.1300   49.4190 C   0  0  0  0  0  0  0  0  0  0  0  0
   59.2332   33.8678   50.1648 H   0  0  0  0  0  0  0  0  0  0  0  0
   60.8768   33.4818   49.5515 H   0  0  0  0  0  0  0  0  0  0  0  0
   60.2942   35.1810   49.5515 H   0  0  0  0  0  0  0  0  0  0  0  0
   58.3320   33.0970   47.8350 C   0  0  0  0  0  0  0  0  0  0  0  0
   57.8907   32.5564   48.6853 H   0  0  0  0  0  0  0  0  0  0  0  0
   57.7890   32.9440   46.5540 C   0  0  0  0  0  0  0  0  0  0  0  0
   56.9389   32.2638   46.3972 H   0  0  0  0  0  0  0  0  0  0  0  0
  1  2  1  0
  2  3  2  0
  3  4  1  0
  4  5  1  0
  4  6  2  0
  6  7  1  0
  6  8  1  0
  8  9  2  0
  8 10  1  0
 10 11  1  0
 11 12  1  0
 11 13  1  0
 11 14  1  0
 14 15  1  0
 14 16  1  0
 14 17  1  0
 17 18  1  0
 17 19  1  0
 19 20  1  0
 19 21  1  0
 19 22  1  0
 22 23  2  0
 23 24  1  0
 23 25  1  0
 25 26  1  0
 25 27  2  0
 27 28  1  0
 27 29  1  0
 29 30  1  0
 29 31  2  0
 31 32  1  0
 17 33  1  0
 33 34  1  0
 33 35  1  0
 33 36  1  0
 36 37  1  0
 36 38  1  0
  3 39  1  0
 39 40  1  0
 39 41  1  0
 39 42  1  0
  2 43  1  0
 43 44  2  0
 44 45  1  0
 44 46  1  0
 46 47  1  0
 46 48  2  0
 48 49  1  0
 49 50  1  0
 49 51  1  0
 49 52  1  0
 48 53  1  0
 53 54  1  0
 53 55  2  0
 55 56  1  0
 36 10  1  0
 55 43  1  0
 31 22  1  0
M  END
>  <UniqueID>  (36) 
31

>  <SMILES>  (36) 
CC(=Cc1ccc(C)cc1)/C=C/C(=O)N1CCC(Cc2ccccc2)CC1

>  <Energy>  (36) 
73.03514457718705

>  <Genealogy>  (36) 
CC(=Cc1ccc(C)cc1)/C=C/C(=O)N1CCC(Cc2ccccc2)CC1 (cis-trans isomerization)
CC(=Cc1ccc(C)cc1)/C=C/C(=O)N1CCC(Cc2ccccc2)CC1 (3D coordinates assigned)
CC(=Cc1ccc(C)cc1)/C=C/C(=O)N1CCC(Cc2ccccc2)CC1 (nonaromatic ring conformer: 73.03514457718705 kcal/mol)

>  <smiles>  (36) 
CC(C=CC(=O)N1CCC(Cc2ccccc2)CC1)=Cc1ccc(C)cc1

>  <score_type>  (36) 
oracle

>  <origin>  (36) 
adg

>  <m_score__min__energy>  (36) 
-9.6400000000000006

>  <m_primary>  (36) 
energy

$$$$
36:0
     RDKit          3D

 52 54  0  0  0  0  0  0  0  0999 V2000
   55.8820   23.6500   47.2220 C   0  0  0  0  0  0  0  0  0  0  0  0
   56.5030   24.6420   46.2850 C   0  0  0  0  0  0  0  0  0  0  0  0
   56.8670   25.9170   46.7460 C   0  0  0  0  0  0  0  0  0  0  0  0
   57.4800   26.8280   45.8800 C   0  0  0  0  0  0  0  0  0  0  0  0
   57.7370   26.4740   44.5510 C   0  0  0  0  0  0  0  0  0  0  0  0
   58.5170   27.6500   43.4400 S   0  0  0  0  0  0  0  0  0  0  0  0
   57.0370   28.7030   43.2520 C   0  0  0  0  0  0  0  0  0  0  0  0
   57.1500   29.9280   44.1050 C   0  0  0  0  0  0  0  0  0  0  0  0
   56.1700   30.2810   44.8180 O   0  0  0  0  0  0  0  0  0  0  0  0
   58.3650   30.6930   44.1120 N   0  0  0  0  0  0  0  0  0  0  0  0
   58.4880   31.9170   44.8510 C   0  0  0  0  0  0  0  0  0  0  0  0
   57.7740   33.0350   44.4070 C   0  0  0  0  0  0  0  0  0  0  0  0
   57.8160   34.2290   45.1230 C   0  0  0  0  0  0  0  0  0  0  0  0
   58.5690   34.3180   46.2910 C   0  0  0  0  0  0  0  0  0  0  0  0
   59.3150   33.2200   46.7470 C   0  0  0  0  0  0  0  0  0  0  0  0
   60.2220   33.3860   48.2630 S   0  0  0  0  0  0  0  0  0  0  0  0
   60.4610   32.0310   48.8690 O   0  0  0  0  0  0  0  0  0  0  0  0
   59.3990   34.1970   49.2250 O   0  0  0  0  0  0  0  0  0  0  0  0
   61.7550   34.1870   47.9790 N   0  0  0  0  0  0  0  0  0  0  0  0
   62.4670   33.6160   46.8210 C   0  0  0  0  0  0  0  0  0  0  0  0
   63.1100   32.2450   47.1410 C   0  0  0  0  0  0  0  0  0  0  0  0
   63.2420   31.9890   48.5280 O   0  0  0  0  0  0  0  0  0  0  0  0
   63.6930   33.1450   49.1950 C   0  0  0  0  0  0  0  0  0  0  0  0
   62.5960   34.2230   49.1970 C   0  0  0  0  0  0  0  0  0  0  0  0
   59.3140   32.0130   45.9990 C   0  0  0  0  0  0  0  0  0  0  0  0
   60.1620   30.8370   46.4220 C   0  0  0  0  0  0  0  0  0  0  0  0
   57.4060   25.1930   44.0970 C   0  0  0  0  0  0  0  0  0  0  0  0
   56.7940   24.2780   44.9610 C   0  0  0  0  0  0  0  0  0  0  0  0
   56.0741   23.9568   48.2607 H   0  0  0  0  0  0  0  0  0  0  0  0
   54.7969   23.6093   47.0464 H   0  0  0  0  0  0  0  0  0  0  0  0
   56.3194   22.6561   47.0464 H   0  0  0  0  0  0  0  0  0  0  0  0
   56.6697   26.2001   47.7905 H   0  0  0  0  0  0  0  0  0  0  0  0
   57.7612   27.8268   46.2451 H   0  0  0  0  0  0  0  0  0  0  0  0
   56.9389   29.0039   42.1985 H   0  0  0  0  0  0  0  0  0  0  0  0
   56.1523   28.1310   43.5684 H   0  0  0  0  0  0  0  0  0  0  0  0
   59.0930   30.4760   43.3950 H   0  0  0  0  0  0  0  0  0  0  0  0
   57.1754   32.9708   43.4864 H   0  0  0  0  0  0  0  0  0  0  0  0
   57.2531   35.1036   44.7650 H   0  0  0  0  0  0  0  0  0  0  0  0
   58.5793   35.2582   46.8619 H   0  0  0  0  0  0  0  0  0  0  0  0
   61.7518   33.4866   45.9953 H   0  0  0  0  0  0  0  0  0  0  0  0
   63.2756   34.3103   46.5489 H   0  0  0  0  0  0  0  0  0  0  0  0
   62.4832   31.4558   46.7001 H   0  0  0  0  0  0  0  0  0  0  0  0
   64.1254   32.2590   46.7181 H   0  0  0  0  0  0  0  0  0  0  0  0
   63.9506   32.8877   50.2330 H   0  0  0  0  0  0  0  0  0  0  0  0
   64.5783   33.5367   48.6727 H   0  0  0  0  0  0  0  0  0  0  0  0
   61.9511   34.0667   50.0743 H   0  0  0  0  0  0  0  0  0  0  0  0
   63.0944   35.2031   49.2268 H   0  0  0  0  0  0  0  0  0  0  0  0
   60.1980   30.7871   47.5203 H   0  0  0  0  0  0  0  0  0  0  0  0
   59.7243   29.9084   46.0269 H   0  0  0  0  0  0  0  0  0  0  0  0
   61.1813   30.9590   46.0269 H   0  0  0  0  0  0  0  0  0  0  0  0
   57.6272   24.9043   43.0589 H   0  0  0  0  0  0  0  0  0  0  0  0
   56.5401   23.2700   44.6013 H   0  0  0  0  0  0  0  0  0  0  0  0
  1  2  1  0
  2  3  2  0
  3  4  1  0
  4  5  2  0
  5  6  1  0
  6  7  1  0
  7  8  1  0
  8  9  2  0
  8 10  1  0
 10 11  1  0
 11 12  2  0
 12 13  1  0
 13 14  2  0
 14 15  1  0
 15 16  1  0
 16 17  2  0
 16 18  2  0
 16 19  1  0
 19 20  1  0
 20 21  1  0
 21 22  1  0
 22 23  1  0
 23 24  1  0
 15 25  2  0
 25 26  1  0
  5 27  1  0
 27 28  2  0
 28  2  1  0
 25 11  1  0
 24 19  1  0
  1 29  1  0
  1 30  1  0
  1 31  1  0
  3 32  1  0
  4 33  1  0
  7 34  1  0
  7 35  1  0
 10 36  1  0
 12 37  1  0
 13 38  1  0
 14 39  1  0
 20 40  1  0
 20 41  1  0
 21 42  1  0
 21 43  1  0
 23 44  1  0
 23 45  1  0
 24 46  1  0
 24 47  1  0
 26 48  1  0
 26 49  1  0
 26 50  1  0
 27 51  1  0
 28 52  1  0
M  END
>  <UniqueID>  (37) 
32

>  <SMILES>  (37) 
Cc1ccc(SCC(=O)Nc2cccc(S(=O)(=O)N3CCOCC3)c2C)cc1

>  <Energy>  (37) 
64.8080133006366

>  <Genealogy>  (37) 
Cc1ccc(SCC(=O)Nc2cccc(S(=O)(=O)N3CCOCC3)c2C)cc1 (3D coordinates assigned)
Cc1ccc(SCC(=O)Nc2cccc(S(=O)(=O)N3CCOCC3)c2C)cc1 (nonaromatic ring conformer: 64.8080133006366 kcal/mol)

>  <smiles>  (37) 
Cc1ccc(SCC(=O)Nc2cccc(S(=O)(=O)N3CCOCC3)c2C)cc1

>  <score_type>  (37) 
oracle

>  <origin>  (37) 
adg

>  <m_score__min__energy>  (37) 
-9.4900000000000002

>  <m_primary>  (37) 
energy

$$$$
37:0
     RDKit          3D

 47 49  0  0  0  0  0  0  0  0999 V2000
   57.8440   24.9010   45.4880 O   0  0  0  0  0  0  0  0  0  0  0  0
   58.2980   25.9870   45.9440 C   0  0  0  0  0  0  0  0  0  0  0  0
   59.4190   25.9570   46.8330 N   0  0  0  0  0  0  0  0  0  0  0  0
   60.1800   27.1470   47.1900 C   0  0  0  0  0  0  0  0  0  0  0  0
   59.6000   27.7640   48.4610 C   0  0  0  0  0  0  0  0  0  0  0  0
   59.7050   29.2640   48.4170 C   0  0  0  0  0  0  0  0  0  0  0  0
   60.5360   29.8900   47.4730 C   0  0  0  0  0  0  0  0  0  0  0  0
   60.6080   31.2850   47.4110 C   0  0  0  0  0  0  0  0  0  0  0  0
   59.8410   32.0690   48.2810 C   0  0  0  0  0  0  0  0  0  0  0  0
   59.9590   33.8260   48.2090 S   0  0  0  0  0  0  0  0  0  0  0  0
   61.3390   34.2290   47.7660 O   0  0  0  0  0  0  0  0  0  0  0  0
   59.7140   34.3850   49.5830 O   0  0  0  0  0  0  0  0  0  0  0  0
   58.7670   34.4580   47.0980 N   0  0  0  0  0  0  0  0  0  0  0  0
   57.7410   33.4340   46.8250 C   0  0  0  0  0  0  0  0  0  0  0  0
   57.0040   33.7420   45.5120 C   0  0  0  0  0  0  0  0  0  0  0  0
   57.8460   33.7870   44.3660 O   0  0  0  0  0  0  0  0  0  0  0  0
   59.2120   34.0300   44.6690 C   0  0  0  0  0  0  0  0  0  0  0  0
   59.4080   34.9750   45.8680 C   0  0  0  0  0  0  0  0  0  0  0  0
   59.0040   31.4490   49.2190 C   0  0  0  0  0  0  0  0  0  0  0  0
   58.9310   30.0540   49.2830 C   0  0  0  0  0  0  0  0  0  0  0  0
   57.6680   27.2750   45.5500 C   0  0  0  0  0  0  0  0  0  0  0  0
   58.4740   28.3330   45.0910 C   0  0  0  0  0  0  0  0  0  0  0  0
   57.9030   29.5500   44.7180 C   0  0  0  0  0  0  0  0  0  0  0  0
   56.5220   29.7110   44.8040 C   0  0  0  0  0  0  0  0  0  0  0  0
   55.9890   30.8020   44.4710 O   0  0  0  0  0  0  0  0  0  0  0  0
   55.7460   28.6880   45.2470 N   0  0  0  0  0  0  0  0  0  0  0  0
   56.2710   27.4880   45.6190 C   0  0  0  0  0  0  0  0  0  0  0  0
   55.4100   26.4870   46.0630 O   0  0  0  0  0  0  0  0  0  0  0  0
   61.2307   26.8713   47.3634 H   0  0  0  0  0  0  0  0  0  0  0  0
   60.1216   27.8776   46.3698 H   0  0  0  0  0  0  0  0  0  0  0  0
   58.5416   27.4782   48.5512 H   0  0  0  0  0  0  0  0  0  0  0  0
   60.1692   27.3939   49.3265 H   0  0  0  0  0  0  0  0  0  0  0  0
   61.1329   29.2798   46.7793 H   0  0  0  0  0  0  0  0  0  0  0  0
   61.2693   31.7679   46.6764 H   0  0  0  0  0  0  0  0  0  0  0  0
   58.2253   32.4496   46.7452 H   0  0  0  0  0  0  0  0  0  0  0  0
   57.0121   33.4344   47.6489 H   0  0  0  0  0  0  0  0  0  0  0  0
   56.2449   32.9622   45.3517 H   0  0  0  0  0  0  0  0  0  0  0  0
   56.5680   34.7458   45.6228 H   0  0  0  0  0  0  0  0  0  0  0  0
   59.6956   33.0690   44.8985 H   0  0  0  0  0  0  0  0  0  0  0  0
   59.6598   34.5185   43.7910 H   0  0  0  0  0  0  0  0  0  0  0  0
   60.4858   35.0935   46.0532 H   0  0  0  0  0  0  0  0  0  0  0  0
   58.9362   35.9373   45.6202 H   0  0  0  0  0  0  0  0  0  0  0  0
   58.4028   32.0617   49.9069 H   0  0  0  0  0  0  0  0  0  0  0  0
   58.2647   29.5733   50.0145 H   0  0  0  0  0  0  0  0  0  0  0  0
   59.5639   28.1994   45.0257 H   0  0  0  0  0  0  0  0  0  0  0  0
   58.5370   30.3743   44.3595 H   0  0  0  0  0  0  0  0  0  0  0  0
   55.7120   25.5220   46.1040 H   0  0  0  0  0  0  0  0  0  0  0  0
  1  2  2  0
  2  3  1  0
  3  4  1  0
  4  5  1  0
  5  6  1  0
  6  7  2  0
  7  8  1  0
  8  9  2  0
  9 10  1  0
 10 11  2  0
 10 12  2  0
 10 13  1  0
 13 14  1  0
 14 15  1  0
 15 16  1  0
 16 17  1  0
 17 18  1  0
  9 19  1  0
 19 20  2  0
  2 21  1  0
 21 22  1  0
 22 23  2  0
 23 24  1  0
 24 25  2  0
 24 26  1  0
 26 27  1  0
 27 28  1  0
 20  6  1  0
 27 21  2  0
 18 13  1  0
  4 29  1  0
  4 30  1  0
  5 31  1  0
  5 32  1  0
  7 33  1  0
  8 34  1  0
 14 35  1  0
 14 36  1  0
 15 37  1  0
 15 38  1  0
 17 39  1  0
 17 40  1  0
 18 41  1  0
 18 42  1  0
 19 43  1  0
 20 44  1  0
 22 45  1  0
 23 46  1  0
 28 47  1  0
M  CHG  2   3  -1  26  -1
M  END
>  <UniqueID>  (38) 
33

>  <SMILES>  (38) 
O=C([N-]CCc1ccc(S(=O)(=O)N2CCOCC2)cc1)c1ccc(=O)[n-]c1O

>  <Energy>  (38) 
58.18069534335176

>  <Genealogy>  (38) 
O=C([N-]CCc1ccc(S(=O)(=O)N2CCOCC2)cc1)c1ccc(=O)[n-]c1O (protonated)
O=C([N-]CCc1ccc(S(=O)(=O)N2CCOCC2)cc1)c1ccc(=O)[n-]c1O (3D coordinates assigned)
O=C([N-]CCc1ccc(S(=O)(=O)N2CCOCC2)cc1)c1ccc(=O)[n-]c1O (nonaromatic ring conformer: 58.18069534335176 kcal/mol)

>  <smiles>  (38) 
O=C(NCCc1ccc(S(=O)(=O)N2CCOCC2)cc1)c1ccc(=O)[nH]c1O

>  <score_type>  (38) 
oracle

>  <origin>  (38) 
adg

>  <m_score__min__energy>  (38) 
-12.74

>  <m_primary>  (38) 
energy

$$$$
38:0
     RDKit          3D

 47 49  0  0  0  0  0  0  0  0999 V2000
   57.9200   34.5670   45.2010 N   0  0  0  0  0  0  0  0  0  0  0  0
   59.2920   34.9390   45.3260 C   0  0  0  0  0  0  0  0  0  0  0  0
   59.6240   36.1470   45.2010 O   0  0  0  0  0  0  0  0  0  0  0  0
   60.3300   33.9100   45.6630 C   0  0  0  0  0  0  0  0  0  0  0  0
   60.0250   33.2920   46.9630 N   0  0  0  0  0  0  0  0  0  0  0  0
   60.6640   33.7520   48.0810 C   0  0  0  0  0  0  0  0  0  0  0  0
   60.4280   33.1730   49.3290 C   0  0  0  0  0  0  0  0  0  0  0  0
   59.5320   32.0990   49.4500 C   0  0  0  0  0  0  0  0  0  0  0  0
   59.2720   31.4870   50.7370 N   0  0  0  0  0  0  0  0  0  0  0  0
   60.2050   30.5900   51.4080 C   0  0  0  0  0  0  0  0  0  0  0  0
   59.5200   30.2410   52.6690 C   0  0  0  0  0  0  0  0  0  0  0  0
   60.0160   29.5260   53.5260 O   0  0  0  0  0  0  0  0  0  0  0  0
   58.1730   30.8660   52.7940 C   0  0  2  0  0  0  0  0  0  0  0  0
   57.0610   29.8120   52.9230 C   0  0  0  0  0  0  0  0  0  0  0  0
   55.9770   30.0830   51.9770 N   0  0  0  0  0  0  0  0  0  0  0  0
   54.4470   29.7770   52.7350 S   0  0  0  0  0  0  0  0  0  0  0  0
   54.2350   28.2950   52.8450 O   0  0  0  0  0  0  0  0  0  0  0  0
   54.4390   30.3700   54.1160 O   0  0  0  0  0  0  0  0  0  0  0  0
   53.1540   30.4700   51.7600 C   0  0  0  0  0  0  0  0  0  0  0  0
   52.8370   29.9320   50.5040 C   0  0  0  0  0  0  0  0  0  0  0  0
   51.7930   30.4800   49.7510 C   0  0  0  0  0  0  0  0  0  0  0  0
   51.0610   31.5640   50.2480 C   0  0  0  0  0  0  0  0  0  0  0  0
   51.3720   32.1010   51.5020 C   0  0  0  0  0  0  0  0  0  0  0  0
   50.6450   33.1780   51.9960 O   0  0  0  0  0  0  0  0  0  0  0  0
   52.4150   31.5540   52.2580 C   0  0  0  0  0  0  0  0  0  0  0  0
   58.0490   31.7120   51.5130 C   0  0  0  0  0  0  0  0  0  0  0  0
   58.8930   31.6350   48.2890 C   0  0  0  0  0  0  0  0  0  0  0  0
   59.1520   32.2360   47.0530 C   0  0  0  0  0  0  0  0  0  0  0  0
   58.5750   31.7890   46.0230 O   0  0  0  0  0  0  0  0  0  0  0  0
   57.6250   33.5720   45.3110 H   0  0  0  0  0  0  0  0  0  0  0  0
   57.1950   35.2890   44.9900 H   0  0  0  0  0  0  0  0  0  0  0  0
   60.3390   33.1334   44.8840 H   0  0  0  0  0  0  0  0  0  0  0  0
   61.3151   34.3964   45.7175 H   0  0  0  0  0  0  0  0  0  0  0  0
   61.3729   34.5888   47.9958 H   0  0  0  0  0  0  0  0  0  0  0  0
   60.9453   33.5591   50.2197 H   0  0  0  0  0  0  0  0  0  0  0  0
   60.3886   29.6912   50.8009 H   0  0  0  0  0  0  0  0  0  0  0  0
   61.1900   31.0506   51.5744 H   0  0  0  0  0  0  0  0  0  0  0  0
   58.0634   31.4740   53.7041 H   0  0  0  0  0  0  0  0  0  0  0  0
   57.4811   28.8169   52.7149 H   0  0  0  0  0  0  0  0  0  0  0  0
   56.6555   29.8498   53.9448 H   0  0  0  0  0  0  0  0  0  0  0  0
   53.4095   29.0789   50.1109 H   0  0  0  0  0  0  0  0  0  0  0  0
   51.5469   30.0576   48.7656 H   0  0  0  0  0  0  0  0  0  0  0  0
   50.2415   31.9937   49.6532 H   0  0  0  0  0  0  0  0  0  0  0  0
   52.6562   31.9749   53.2453 H   0  0  0  0  0  0  0  0  0  0  0  0
   57.1692   31.3952   50.9336 H   0  0  0  0  0  0  0  0  0  0  0  0
   57.9252   32.7780   51.7544 H   0  0  0  0  0  0  0  0  0  0  0  0
   58.1855   30.7950   48.3519 H   0  0  0  0  0  0  0  0  0  0  0  0
  1  2  1  0
  2  3  2  0
  2  4  1  0
  4  5  1  0
  5  6  1  0
  6  7  2  0
  7  8  1  0
  8  9  1  0
  9 10  1  0
 10 11  1  0
 11 12  2  0
 11 13  1  0
 13 14  1  0
 14 15  1  0
 15 16  1  0
 16 17  2  0
 16 18  2  0
 16 19  1  0
 19 20  2  0
 20 21  1  0
 21 22  2  0
 22 23  1  0
 23 24  1  0
 23 25  2  0
 13 26  1  0
  8 27  2  0
 27 28  1  0
 28 29  2  0
 28  5  1  0
 26  9  1  0
 25 19  1  0
  1 30  1  0
  1 31  1  0
  4 32  1  0
  4 33  1  0
  6 34  1  0
  7 35  1  0
 10 36  1  0
 10 37  1  0
 13 38  1  1
 14 39  1  0
 14 40  1  0
 20 41  1  0
 21 42  1  0
 22 43  1  0
 25 44  1  0
 26 45  1  0
 26 46  1  0
 27 47  1  0
M  CHG  2  15  -1  24  -1
M  END
>  <UniqueID>  (39) 
34

>  <SMILES>  (39) 
NC(=O)Cn1ccc(N2CC(=O)[C@H](C[N-]S(=O)(=O)c3cccc([O-])c3)C2)cc1=O

>  <Energy>  (39) 
48.232682034334125

>  <Genealogy>  (39) 
NC(=O)Cn1ccc(N2CC(=O)C(C[N-]S(=O)(=O)c3cccc([O-])c3)C2)cc1=O (protonated)
NC(=O)Cn1ccc(N2CC(=O)[C@H](C[N-]S(=O)(=O)c3cccc([O-])c3)C2)cc1=O (chirality)
NC(=O)Cn1ccc(N2CC(=O)[C@H](C[N-]S(=O)(=O)c3cccc([O-])c3)C2)cc1=O (3D coordinates assigned)
NC(=O)Cn1ccc(N2CC(=O)[C@H](C[N-]S(=O)(=O)c3cccc([O-])c3)C2)cc1=O (nonaromatic ring conformer: 48.232682034334125 kcal/mol)

>  <smiles>  (39) 
NC(=O)Cn1ccc(N2CC(=O)C(CNS(=O)(=O)c3cccc(O)c3)C2)cc1=O

>  <score_type>  (39) 
oracle

>  <origin>  (39) 
adg

>  <m_score__min__energy>  (39) 
-13.41

>  <m_primary>  (39) 
energy

$$$$
39:0
     RDKit          3D

 53 56  0  0  0  0  0  0  0  0999 V2000
   57.9770   32.3440   42.5050 C   0  0  0  0  0  0  0  0  0  0  0  0
   58.0470   32.8580   43.9180 C   0  0  0  0  0  0  0  0  0  0  0  0
   58.9290   33.9140   44.2070 C   0  0  0  0  0  0  0  0  0  0  0  0
   59.0680   34.3860   45.5150 C   0  0  0  0  0  0  0  0  0  0  0  0
   58.3310   33.8080   46.5480 C   0  0  0  0  0  0  0  0  0  0  0  0
   57.4320   32.7760   46.2730 C   0  0  0  0  0  0  0  0  0  0  0  0
   57.2530   32.3170   44.9610 C   0  0  0  0  0  0  0  0  0  0  0  0
   56.2660   31.2990   44.7310 N   0  0  0  0  0  0  0  0  0  0  0  0
   56.4430   29.8820   44.8790 C   0  0  0  0  0  0  0  0  0  0  0  0
   55.4880   29.1240   44.5610 O   0  0  0  0  0  0  0  0  0  0  0  0
   57.7030   29.2710   45.3630 C   0  0  0  0  0  0  0  0  0  0  0  0
   58.1620   29.4530   46.6770 C   0  0  0  0  0  0  0  0  0  0  0  0
   59.3590   28.8460   47.0970 C   0  0  0  0  0  0  0  0  0  0  0  0
   59.8340   28.9150   48.5340 C   0  0  0  0  0  0  0  0  0  0  0  0
   60.9600   29.8980   48.7400 C   0  0  0  0  0  0  0  0  0  0  0  0
   61.6290   29.9580   49.9710 C   0  0  0  0  0  0  0  0  0  0  0  0
   62.7220   30.8130   50.1400 C   0  0  0  0  0  0  0  0  0  0  0  0
   63.1760   31.6040   49.0730 C   0  0  0  0  0  0  0  0  0  0  0  0
   64.3030   32.4760   49.2700 N   0  0  0  0  0  0  0  0  0  0  0  0
   64.5670   33.1650   50.5030 C   0  0  0  0  0  0  0  0  0  0  0  0
   63.6280   33.3580   51.3240 O   0  0  0  0  0  0  0  0  0  0  0  0
   65.9180   33.6980   50.8030 C   0  0  0  0  0  0  0  0  0  0  0  0
   66.0950   34.7600   51.7080 C   0  0  0  0  0  0  0  0  0  0  0  0
   67.3790   35.2450   51.9640 C   0  0  0  0  0  0  0  0  0  0  0  0
   68.4530   34.6980   51.3370 N   0  0  0  0  0  0  0  0  0  0  0  0
   68.3160   33.6770   50.4520 C   0  0  0  0  0  0  0  0  0  0  0  0
   67.0500   33.1620   50.1660 C   0  0  0  0  0  0  0  0  0  0  0  0
   62.4930   31.5580   47.8460 C   0  0  0  0  0  0  0  0  0  0  0  0
   61.3990   30.7050   47.6790 C   0  0  0  0  0  0  0  0  0  0  0  0
   60.0760   28.0650   46.1790 C   0  0  0  0  0  0  0  0  0  0  0  0
   59.6080   27.9300   44.8720 C   0  0  0  0  0  0  0  0  0  0  0  0
   58.4470   28.5280   44.4980 N   0  0  0  0  0  0  0  0  0  0  0  0
   57.8286   31.2541   42.5182 H   0  0  0  0  0  0  0  0  0  0  0  0
   57.1357   32.8223   41.9821 H   0  0  0  0  0  0  0  0  0  0  0  0
   58.9156   32.5799   41.9821 H   0  0  0  0  0  0  0  0  0  0  0  0
   59.5147   34.3726   43.3966 H   0  0  0  0  0  0  0  0  0  0  0  0
   59.7594   35.2142   45.7298 H   0  0  0  0  0  0  0  0  0  0  0  0
   58.4581   34.1655   47.5805 H   0  0  0  0  0  0  0  0  0  0  0  0
   56.8591   32.3191   47.0933 H   0  0  0  0  0  0  0  0  0  0  0  0
   57.5843   30.0716   47.3795 H   0  0  0  0  0  0  0  0  0  0  0  0
   58.9870   29.2153   49.1684 H   0  0  0  0  0  0  0  0  0  0  0  0
   60.2163   27.9186   48.8007 H   0  0  0  0  0  0  0  0  0  0  0  0
   61.2919   29.3290   50.8081 H   0  0  0  0  0  0  0  0  0  0  0  0
   63.2291   30.8662   51.1147 H   0  0  0  0  0  0  0  0  0  0  0  0
   64.8860   32.7160   48.4360 H   0  0  0  0  0  0  0  0  0  0  0  0
   65.2253   35.2067   52.2121 H   0  0  0  0  0  0  0  0  0  0  0  0
   67.5214   36.0721   52.6751 H   0  0  0  0  0  0  0  0  0  0  0  0
   69.2043   33.2548   49.9594 H   0  0  0  0  0  0  0  0  0  0  0  0
   66.9392   32.3393   49.4443 H   0  0  0  0  0  0  0  0  0  0  0  0
   62.8212   32.1967   47.0127 H   0  0  0  0  0  0  0  0  0  0  0  0
   60.8789   30.6658   46.7105 H   0  0  0  0  0  0  0  0  0  0  0  0
   61.0035   27.5610   46.4884 H   0  0  0  0  0  0  0  0  0  0  0  0
   60.1803   27.3380   44.1425 H   0  0  0  0  0  0  0  0  0  0  0  0
  1  2  1  0
  2  3  2  0
  3  4  1  0
  4  5  2  0
  5  6  1  0
  6  7  2  0
  7  8  1  0
  8  9  1  0
  9 10  2  0
  9 11  1  0
 11 12  2  0
 12 13  1  0
 13 14  1  0
 14 15  1  0
 15 16  2  0
 16 17  1  0
 17 18  2  0
 18 19  1  0
 19 20  1  0
 20 21  2  0
 20 22  1  0
 22 23  2  0
 23 24  1  0
 24 25  2  0
 25 26  1  0
 26 27  2  0
 18 28  1  0
 28 29  2  0
 13 30  2  0
 30 31  1  0
 31 32  2  0
  7  2  1  0
 32 11  1  0
 29 15  1  0
 27 22  1  0
  1 33  1  0
  1 34  1  0
  1 35  1  0
  3 36  1  0
  4 37  1  0
  5 38  1  0
  6 39  1  0
 12 40  1  0
 14 41  1  0
 14 42  1  0
 16 43  1  0
 17 44  1  0
 19 45  1  0
 23 46  1  0
 24 47  1  0
 26 48  1  0
 27 49  1  0
 28 50  1  0
 29 51  1  0
 30 52  1  0
 31 53  1  0
M  CHG  1   8  -1
M  END
>  <UniqueID>  (40) 
35

>  <SMILES>  (40) 
Cc1ccccc1[N-]C(=O)c1cc(Cc2ccc(NC(=O)c3ccncc3)cc2)ccn1

>  <Energy>  (40) 
71.90904700960303

>  <Genealogy>  (40) 
Cc1ccccc1[N-]C(=O)c1cc(Cc2ccc(NC(=O)c3ccncc3)cc2)ccn1 (protonated)
Cc1ccccc1[N-]C(=O)c1cc(Cc2ccc(NC(=O)c3ccncc3)cc2)ccn1 (3D coordinates assigned)
Cc1ccccc1[N-]C(=O)c1cc(Cc2ccc(NC(=O)c3ccncc3)cc2)ccn1 (optimized conformer: 71.90904700960303 kcal/mol)

>  <smiles>  (40) 
Cc1ccccc1NC(=O)c1cc(Cc2ccc(NC(=O)c3ccncc3)cc2)ccn1

>  <score_type>  (40) 
oracle

>  <origin>  (40) 
adg

>  <m_score__min__energy>  (40) 
-11.85

>  <m_primary>  (40) 
energy

$$$$
40:0
     RDKit          3D

 36 38  0  0  0  0  0  0  0  0999 V2000
   58.2420   25.7350   47.2180 O   0  0  0  0  0  0  0  0  0  0  0  0
   58.0930   26.6300   46.3430 C   0  0  0  0  0  0  0  0  0  0  0  0
   57.1420   26.4420   45.2770 N   0  0  0  0  0  0  0  0  0  0  0  0
   56.3840   25.2330   45.0930 C   0  0  0  0  0  0  0  0  0  0  0  0
   56.9700   24.0890   44.5190 C   0  0  0  0  0  0  0  0  0  0  0  0
   56.2120   22.9300   44.3200 C   0  0  0  0  0  0  0  0  0  0  0  0
   56.9530   21.5080   43.6070 Cl  0  0  0  0  0  0  0  0  0  0  0  0
   54.8610   22.9080   44.6770 C   0  0  0  0  0  0  0  0  0  0  0  0
   54.2640   24.0450   45.2270 C   0  0  0  0  0  0  0  0  0  0  0  0
   55.0180   25.2070   45.4300 C   0  0  0  0  0  0  0  0  0  0  0  0
   54.4070   26.3300   45.9770 O   0  0  0  0  0  0  0  0  0  0  0  0
   58.9020   27.8690   46.4410 C   0  0  0  0  0  0  0  0  0  0  0  0
   58.8190   28.6650   47.5960 C   0  0  0  0  0  0  0  0  0  0  0  0
   59.5700   29.8380   47.7060 C   0  0  0  0  0  0  0  0  0  0  0  0
   60.3990   30.2540   46.6560 C   0  0  0  0  0  0  0  0  0  0  0  0
   61.1790   31.4530   46.8030 N   0  0  0  0  0  0  0  0  0  0  0  0
   60.6150   32.7590   47.0090 C   0  0  0  0  0  0  0  0  0  0  0  0
   60.3950   33.2270   48.3090 C   0  0  0  0  0  0  0  0  0  0  0  0
   59.8190   34.4880   48.4770 C   0  0  0  0  0  0  0  0  0  0  0  0
   59.6150   34.9420   49.6330 O   0  0  0  0  0  0  0  0  0  0  0  0
   59.4780   35.2270   47.3900 N   0  0  0  0  0  0  0  0  0  0  0  0
   59.6860   34.7550   46.1330 C   0  0  0  0  0  0  0  0  0  0  0  0
   59.3600   35.4520   45.1380 O   0  0  0  0  0  0  0  0  0  0  0  0
   60.2450   33.5310   45.9510 N   0  0  0  0  0  0  0  0  0  0  0  0
   60.4930   29.4560   45.5030 C   0  0  0  0  0  0  0  0  0  0  0  0
   59.7440   28.2810   45.3920 C   0  0  0  0  0  0  0  0  0  0  0  0
   56.9530   27.2260   44.6160 H   0  0  0  0  0  0  0  0  0  0  0  0
   58.0299   24.1064   44.2253 H   0  0  0  0  0  0  0  0  0  0  0  0
   54.2672   21.9946   44.5248 H   0  0  0  0  0  0  0  0  0  0  0  0
   53.1989   24.0272   45.5012 H   0  0  0  0  0  0  0  0  0  0  0  0
   58.1571   28.3620   48.4206 H   0  0  0  0  0  0  0  0  0  0  0  0
   59.5099   30.4399   48.6247 H   0  0  0  0  0  0  0  0  0  0  0  0
   62.2190   31.3550   46.8430 H   0  0  0  0  0  0  0  0  0  0  0  0
   60.6700   32.6146   49.1804 H   0  0  0  0  0  0  0  0  0  0  0  0
   61.1604   29.7580   44.6824 H   0  0  0  0  0  0  0  0  0  0  0  0
   59.8135   27.6738   44.4774 H   0  0  0  0  0  0  0  0  0  0  0  0
  1  2  2  0
  2  3  1  0
  3  4  1  0
  4  5  2  0
  5  6  1  0
  6  7  1  0
  6  8  2  0
  8  9  1  0
  9 10  2  0
 10 11  1  0
  2 12  1  0
 12 13  2  0
 13 14  1  0
 14 15  2  0
 15 16  1  0
 16 17  1  0
 17 18  2  0
 18 19  1  0
 19 20  2  0
 19 21  1  0
 21 22  1  0
 22 23  2  0
 22 24  1  0
 15 25  1  0
 25 26  2  0
 10  4  1  0
 26 12  1  0
 24 17  1  0
  3 27  1  0
  5 28  1  0
  8 29  1  0
  9 30  1  0
 13 31  1  0
 14 32  1  0
 16 33  1  0
 18 34  1  0
 25 35  1  0
 26 36  1  0
M  CHG  3  11  -1  21  -1  24  -1
M  END
>  <UniqueID>  (41) 
36

>  <SMILES>  (41) 
O=C(Nc1cc(Cl)ccc1[O-])c1ccc(Nc2cc(=O)[n-]c(=O)[n-]2)cc1

>  <Energy>  (41) 
51.61868794125022

>  <Genealogy>  (41) 
O=C(Nc1cc(Cl)ccc1[O-])c1ccc(Nc2cc(=O)[n-]c(=O)[n-]2)cc1 (protonated)
O=C(Nc1cc(Cl)ccc1[O-])c1ccc(Nc2cc(=O)[n-]c(=O)[n-]2)cc1 (3D coordinates assigned)
O=C(Nc1cc(Cl)ccc1[O-])c1ccc(Nc2cc(=O)[n-]c(=O)[n-]2)cc1 (optimized conformer: 51.61868794125022 kcal/mol)

>  <smiles>  (41) 
O=C(Nc1cc(Cl)ccc1O)c1ccc(Nc2cc(=O)[nH]c(=O)[nH]2)cc1

>  <score_type>  (41) 
oracle

>  <origin>  (41) 
adg

>  <m_score__min__energy>  (41) 
-12.529999999999999

>  <m_primary>  (41) 
energy

$$$$
41:0
     RDKit          3D

 43 45  0  0  0  0  0  0  0  0999 V2000
   58.1744   27.0523   44.1050 H   0  0  0  0  0  0  0  0  0  0  0  0
   57.8050   27.7500   43.3390 C   0  0  0  0  0  0  0  0  0  0  0  0
   57.5681   27.3832   42.3294 H   0  0  0  0  0  0  0  0  0  0  0  0
   57.6430   29.0520   43.6370 C   0  0  0  0  0  0  0  0  0  0  0  0
   58.0440   29.6350   44.8870 C   0  0  0  0  0  0  0  0  0  0  0  0
   58.2380   28.8960   46.0220 C   0  0  0  0  0  0  0  0  0  0  0  0
   58.9581   29.2914   46.7535 H   0  0  0  0  0  0  0  0  0  0  0  0
   57.5740   27.6150   46.3640 C   0  0  0  0  0  0  0  0  0  0  0  0
   56.2580   27.3730   45.9420 C   0  0  0  0  0  0  0  0  0  0  0  0
   55.5480   28.3450   45.2430 O   0  0  0  0  0  0  0  0  0  0  0  0
   55.6590   26.1870   46.2240 N   0  0  0  0  0  0  0  0  0  0  0  0
   56.3200   25.2130   46.9000 C   0  0  0  0  0  0  0  0  0  0  0  0
   55.7430   24.1250   47.1550 O   0  0  0  0  0  0  0  0  0  0  0  0
   57.6050   25.4090   47.2920 N   0  0  0  0  0  0  0  0  0  0  0  0
   58.2490   26.5760   47.0320 C   0  0  0  0  0  0  0  0  0  0  0  0
   59.4520   26.7060   47.3820 O   0  0  0  0  0  0  0  0  0  0  0  0
   58.1910   31.0130   44.9390 N   0  0  0  0  0  0  0  0  0  0  0  0
   58.7370   31.6780   46.0990 C   0  0  0  0  0  0  0  0  0  0  0  0
   57.9120   32.4600   46.9170 C   0  0  0  0  0  0  0  0  0  0  0  0
   56.8452   32.5719   46.6733 H   0  0  0  0  0  0  0  0  0  0  0  0
   58.4410   33.0990   48.0430 C   0  0  0  0  0  0  0  0  0  0  0  0
   57.7870   33.7126   48.6800 H   0  0  0  0  0  0  0  0  0  0  0  0
   59.8030   32.9630   48.3670 C   0  0  0  0  0  0  0  0  0  0  0  0
   60.3580   33.6390   49.5590 C   0  0  0  0  0  0  0  0  0  0  0  0
   61.5290   34.1070   49.5340 O   0  0  0  0  0  0  0  0  0  0  0  0
   59.5810   33.7510   50.7210 O   0  0  0  0  0  0  0  0  0  0  0  0
   58.9110   32.6490   51.3280 C   0  0  0  0  0  0  0  0  0  0  0  0
   58.3649   32.0880   50.5553 H   0  0  0  0  0  0  0  0  0  0  0  0
   59.6584   32.0027   51.8114 H   0  0  0  0  0  0  0  0  0  0  0  0
   57.9250   33.1350   52.3850 C   0  0  0  0  0  0  0  0  0  0  0  0
   58.3327   32.9340   53.3867 H   0  0  0  0  0  0  0  0  0  0  0  0
   57.7626   34.2164   52.2654 H   0  0  0  0  0  0  0  0  0  0  0  0
   56.9685   32.6052   52.2654 H   0  0  0  0  0  0  0  0  0  0  0  0
   60.6250   32.1760   47.5380 C   0  0  0  0  0  0  0  0  0  0  0  0
   61.6923   32.0612   47.7780 H   0  0  0  0  0  0  0  0  0  0  0  0
   60.0950   31.5400   46.4130 C   0  0  0  0  0  0  0  0  0  0  0  0
   60.7465   30.9286   45.7713 H   0  0  0  0  0  0  0  0  0  0  0  0
   57.7730   31.8010   43.8990 C   0  0  0  0  0  0  0  0  0  0  0  0
   57.8710   33.0600   43.9650 O   0  0  0  0  0  0  0  0  0  0  0  0
   57.2300   31.2200   42.7560 C   0  0  0  0  0  0  0  0  0  0  0  0
   56.8100   31.9420   41.8120 O   0  0  0  0  0  0  0  0  0  0  0  0
   57.1820   29.8710   42.6480 N   0  0  0  0  0  0  0  0  0  0  0  0
   56.8290   29.4680   41.7480 H   0  0  0  0  0  0  0  0  0  0  0  0
  1  2  1  0
  2  3  1  0
  2  4  2  0
  4  5  1  0
  5  6  2  0
  6  7  1  0
  6  8  1  0
  8  9  2  0
  9 10  1  0
  9 11  1  0
 11 12  1  0
 12 13  2  0
 12 14  1  0
 14 15  1  0
 15 16  2  0
  5 17  1  0
 17 18  1  0
 18 19  2  0
 19 20  1  0
 19 21  1  0
 21 22  1  0
 21 23  2  0
 23 24  1  0
 24 25  2  0
 24 26  1  0
 26 27  1  0
 27 28  1  0
 27 29  1  0
 27 30  1  0
 30 31  1  0
 30 32  1  0
 30 33  1  0
 23 34  1  0
 34 35  1  0
 34 36  2  0
 36 37  1  0
 17 38  1  0
 38 39  2  0
 38 40  1  0
 40 41  2  0
 40 42  1  0
 42 43  1  0
 42  4  1  0
 15  8  1  0
 36 18  1  0
M  CHG  3  10  -1  11  -1  14  -1
M  END
>  <UniqueID>  (42) 
37

>  <SMILES>  (42) 
C=c1[nH]c(=O)c(=O)n(-c2ccc(C(=O)OCC)cc2)/c1=C/c1c([O-])[n-]c(=O)[n-]c1=O

>  <Energy>  (42) 
82.96594984301535

>  <Genealogy>  (42) 
C=c1[nH]c(=O)c(=O)n(-c2ccc(C(=O)OCC)cc2)c1=Cc1c([O-])[n-]c(=O)[n-]c1=O (protonated)
C=c1[nH]c(=O)c(=O)n(-c2ccc(C(=O)OCC)cc2)/c1=C/c1c([O-])[n-]c(=O)[n-]c1=O (cis-trans isomerization)
C=c1[nH]c(=O)c(=O)n(-c2ccc(C(=O)OCC)cc2)/c1=C/c1c([O-])[n-]c(=O)[n-]c1=O (3D coordinates assigned)
C=c1[nH]c(=O)c(=O)n(-c2ccc(C(=O)OCC)cc2)/c1=C/c1c([O-])[n-]c(=O)[n-]c1=O (optimized conformer: 82.96594984301535 kcal/mol)

>  <smiles>  (42) 
C=c1[nH]c(=O)c(=O)n(-c2ccc(C(=O)OCC)cc2)c1=Cc1c(O)[nH]c(=O)[nH]c1=O

>  <score_type>  (42) 
oracle

>  <origin>  (42) 
adg

>  <m_score__min__energy>  (42) 
-14.369999999999999

>  <m_primary>  (42) 
energy

$$$$
42:0
     RDKit          3D

 45 47  0  0  0  0  0  0  0  0999 V2000
   57.6580   23.9280   44.5450 C   0  0  0  0  0  0  0  0  0  0  0  0
   58.6310   24.3840   45.6240 C   0  0  0  0  0  0  0  0  0  0  0  0
   58.6310   25.8520   45.7230 N   0  0  0  0  0  0  0  0  0  0  0  0
   57.7370   26.6170   44.8390 C   0  0  0  0  0  0  0  0  0  0  0  0
   56.5070   27.0420   45.5750 C   0  0  0  0  0  0  0  0  0  0  0  0
   55.9880   26.2560   46.4100 O   0  0  0  0  0  0  0  0  0  0  0  0
   55.8870   28.2930   45.2550 N   0  0  0  0  0  0  0  0  0  0  0  0
   56.4750   29.4000   44.5570 C   0  0  0  0  0  0  0  0  0  0  0  0
   57.4270   30.1830   45.2280 C   0  0  0  0  0  0  0  0  0  0  0  0
   58.0250   31.2720   44.5890 C   0  0  0  0  0  0  0  0  0  0  0  0
   57.6680   31.5980   43.2740 C   0  0  0  0  0  0  0  0  0  0  0  0
   58.2560   32.6470   42.6480 F   0  0  0  0  0  0  0  0  0  0  0  0
   56.6940   30.8470   42.6100 C   0  0  0  0  0  0  0  0  0  0  0  0
   56.0890   29.7590   43.2510 C   0  0  0  0  0  0  0  0  0  0  0  0
   59.5220   26.5010   46.6670 C   0  0  0  0  0  0  0  0  0  0  0  0
   60.7530   26.5850   46.4000 O   0  0  0  0  0  0  0  0  0  0  0  0
   59.0550   27.0740   47.9780 C   0  0  0  0  0  0  0  0  0  0  0  0
   60.4270   27.9180   48.8370 S   0  0  0  0  0  0  0  0  0  0  0  0
   60.3960   29.3590   47.7770 C   0  0  0  0  0  0  0  0  0  0  0  0
   60.7290   29.3540   46.4750 N   0  0  0  0  0  0  0  0  0  0  0  0
   60.5760   30.5880   46.0230 N   0  0  0  0  0  0  0  0  0  0  0  0
   60.1630   31.3070   47.0860 C   0  0  0  0  0  0  0  0  0  0  0  0
   59.8640   32.7390   47.0340 C   0  0  0  0  0  0  0  0  0  0  0  0
   59.5250   33.5340   48.1100 C   0  0  0  0  0  0  0  0  0  0  0  0
   59.3340   34.7960   47.5890 C   0  0  0  0  0  0  0  0  0  0  0  0
   59.5620   34.6910   46.2330 C   0  0  0  0  0  0  0  0  0  0  0  0
   59.8790   33.4530   45.9320 O   0  0  0  0  0  0  0  0  0  0  0  0
   60.0500   30.5620   48.1630 O   0  0  0  0  0  0  0  0  0  0  0  0
   56.7583   23.5064   45.0170 H   0  0  0  0  0  0  0  0  0  0  0  0
   57.3753   24.7874   43.9193 H   0  0  0  0  0  0  0  0  0  0  0  0
   58.1376   23.1609   43.9193 H   0  0  0  0  0  0  0  0  0  0  0  0
   58.3284   23.9549   46.5906 H   0  0  0  0  0  0  0  0  0  0  0  0
   59.6431   24.0427   45.3611 H   0  0  0  0  0  0  0  0  0  0  0  0
   58.2664   27.5095   44.4740 H   0  0  0  0  0  0  0  0  0  0  0  0
   57.4416   25.9777   43.9940 H   0  0  0  0  0  0  0  0  0  0  0  0
   57.7041   29.9377   46.2639 H   0  0  0  0  0  0  0  0  0  0  0  0
   58.7773   31.8744   45.1192 H   0  0  0  0  0  0  0  0  0  0  0  0
   56.4024   31.1110   41.5827 H   0  0  0  0  0  0  0  0  0  0  0  0
   55.3090   29.1823   42.7324 H   0  0  0  0  0  0  0  0  0  0  0  0
   58.2477   27.7970   47.7892 H   0  0  0  0  0  0  0  0  0  0  0  0
   58.6907   26.2534   48.6135 H   0  0  0  0  0  0  0  0  0  0  0  0
   61.0500   28.5400   45.9060 H   0  0  0  0  0  0  0  0  0  0  0  0
   59.4277   33.2257   49.1614 H   0  0  0  0  0  0  0  0  0  0  0  0
   59.0556   35.7043   48.1435 H   0  0  0  0  0  0  0  0  0  0  0  0
   59.4893   35.5191   45.5126 H   0  0  0  0  0  0  0  0  0  0  0  0
  1  2  1  0
  2  3  1  0
  3  4  1  0
  4  5  1  0
  5  6  2  0
  5  7  1  0
  7  8  1  0
  8  9  2  0
  9 10  1  0
 10 11  2  0
 11 12  1  0
 11 13  1  0
 13 14  2  0
  3 15  1  0
 15 16  2  0
 15 17  1  0
 17 18  1  0
 18 19  1  0
 19 20  2  0
 20 21  1  0
 21 22  2  0
 22 23  1  0
 23 24  2  0
 24 25  1  0
 25 26  2  0
 26 27  1  0
 22 28  1  0
 14  8  1  0
 28 19  1  0
 27 23  1  0
  1 29  1  0
  1 30  1  0
  1 31  1  0
  2 32  1  0
  2 33  1  0
  4 34  1  0
  4 35  1  0
  9 36  1  0
 10 37  1  0
 13 38  1  0
 14 39  1  0
 17 40  1  0
 17 41  1  0
 20 42  1  0
 24 43  1  0
 25 44  1  0
 26 45  1  0
M  CHG  2   7  -1  20   1
M  END
>  <UniqueID>  (43) 
38

>  <SMILES>  (43) 
CCN(CC(=O)[N-]c1ccc(F)cc1)C(=O)CSc1[nH+]nc(-c2ccco2)o1

>  <Energy>  (43) 
99.54574585298514

>  <Genealogy>  (43) 
CCN(CC(=O)[N-]c1ccc(F)cc1)C(=O)CSc1[nH+]nc(-c2ccco2)o1 (protonated)
CCN(CC(=O)[N-]c1ccc(F)cc1)C(=O)CSc1[nH+]nc(-c2ccco2)o1 (3D coordinates assigned)
CCN(CC(=O)[N-]c1ccc(F)cc1)C(=O)CSc1[nH+]nc(-c2ccco2)o1 (optimized conformer: 99.54574585298514 kcal/mol)

>  <smiles>  (43) 
CCN(CC(=O)Nc1ccc(F)cc1)C(=O)CSc1nnc(-c2ccco2)o1

>  <score_type>  (43) 
oracle

>  <origin>  (43) 
adg

>  <m_score__min__energy>  (43) 
-7.1600000000000001

>  <m_primary>  (43) 
energy

$$$$
43:0
     RDKit          3D

 55 58  0  0  1  0  0  0  0  0999 V2000
   59.1000   33.8580   53.7770 C   0  0  0  0  0  0  0  0  0  0  0  0
   58.7450   34.0570   52.0340 S   0  0  0  0  0  0  0  0  0  0  0  0
   58.5300   32.4830   51.1880 C   0  0  0  0  0  0  0  0  0  0  0  0
   57.8970   31.5370   51.8940 N   0  0  0  0  0  0  0  0  0  0  0  0
   57.7310   30.3320   51.3370 C   0  0  0  0  0  0  0  0  0  0  0  0
   57.1160   29.4080   51.9960 N   0  0  0  0  0  0  0  0  0  0  0  0
   55.7390   29.5180   52.3910 C   0  0  0  0  0  0  0  0  0  0  0  0
   55.2630   30.4950   53.3990 C   0  0  0  0  0  0  0  0  0  0  0  0
   54.9580   30.7880   52.0000 C   0  0  0  0  0  0  0  0  0  0  0  0
   58.2000   30.1370   50.1230 N   0  0  0  0  0  0  0  0  0  0  0  0
   58.8590   31.0600   49.3410 C   0  0  0  0  0  0  0  0  0  0  0  0
   59.2700   30.5730   48.0270 C   0  0  0  0  0  0  0  0  0  0  0  0
   58.8760   29.1990   47.6180 C   0  0  0  0  0  0  0  0  0  0  0  0
   58.3300   29.1270   46.2380 C   0  0  0  0  0  0  0  0  0  0  0  0
   57.7820   30.3220   45.7490 C   0  0  0  0  0  0  0  0  0  0  0  0
   57.2480   30.3440   44.5030 C   0  0  0  0  0  0  0  0  0  0  0  0
   57.2390   29.2210   43.7220 C   0  0  0  0  0  0  0  0  0  0  0  0
   57.7710   28.0270   44.1700 C   0  0  0  0  0  0  0  0  0  0  0  0
   58.3170   28.0100   45.4510 C   0  0  0  0  0  0  0  0  0  0  0  0
   59.0330   32.2810   49.8920 C   0  0  0  0  0  0  0  0  0  0  0  0
   59.7360   33.4400   49.3480 C   0  0  0  0  0  0  0  0  0  0  0  0
   60.8700   33.6990   49.8370 O   0  0  0  0  0  0  0  0  0  0  0  0
   59.1890   34.2370   48.3620 N   0  0  0  0  0  0  0  0  0  0  0  0
   58.8410   34.0490   47.2010 C   0  0  0  0  0  0  0  0  0  0  0  0
   57.5110   33.8480   46.9400 N   0  0  0  0  0  0  0  0  0  0  0  0
   57.0410   33.6390   45.6990 C   0  0  0  0  0  0  0  0  0  0  0  0
   57.8860   33.6170   44.6250 C   0  0  0  0  0  0  0  0  0  0  0  0
   59.2320   33.8190   44.8980 C   0  0  0  0  0  0  0  0  0  0  0  0
   59.7200   34.0330   46.1640 C   0  0  0  0  0  0  0  0  0  0  0  0
   61.1570   34.1940   46.3790 C   0  0  0  0  0  0  0  0  0  0  0  0
   58.2918   34.3111   54.3699 H   0  0  0  0  0  0  0  0  0  0  0  0
   59.1740   32.7869   54.0162 H   0  0  0  0  0  0  0  0  0  0  0  0
   60.0524   34.3538   54.0162 H   0  0  0  0  0  0  0  0  0  0  0  0
   57.5230   31.6970   52.8550 H   0  0  0  0  0  0  0  0  0  0  0  0
   55.6379   28.4290   52.2737 H   0  0  0  0  0  0  0  0  0  0  0  0
   54.4487   30.2136   54.0829 H   0  0  0  0  0  0  0  0  0  0  0  0
   55.7594   31.0598   54.2019 H   0  0  0  0  0  0  0  0  0  0  0  0
   53.9245   30.7096   51.6317 H   0  0  0  0  0  0  0  0  0  0  0  0
   55.1316   31.6364   51.3217 H   0  0  0  0  0  0  0  0  0  0  0  0
   58.8527   31.2649   47.2805 H   0  0  0  0  0  0  0  0  0  0  0  0
   60.3672   30.5276   48.0909 H   0  0  0  0  0  0  0  0  0  0  0  0
   59.7624   28.5503   47.6764 H   0  0  0  0  0  0  0  0  0  0  0  0
   58.0768   28.8741   48.3004 H   0  0  0  0  0  0  0  0  0  0  0  0
   57.7855   31.2305   46.3691 H   0  0  0  0  0  0  0  0  0  0  0  0
   56.8159   31.2781   44.1146 H   0  0  0  0  0  0  0  0  0  0  0  0
   56.7986   29.2695   42.7152 H   0  0  0  0  0  0  0  0  0  0  0  0
   57.7635   27.1255   43.5397 H   0  0  0  0  0  0  0  0  0  0  0  0
   58.7481   27.0751   45.8385 H   0  0  0  0  0  0  0  0  0  0  0  0
   56.7950   33.8520   47.7010 H   0  0  0  0  0  0  0  0  0  0  0  0
   55.9629   33.4837   45.5453 H   0  0  0  0  0  0  0  0  0  0  0  0
   57.5200   33.4486   43.6014 H   0  0  0  0  0  0  0  0  0  0  0  0
   59.9431   33.8071   44.0588 H   0  0  0  0  0  0  0  0  0  0  0  0
   61.3658   34.2174   47.4587 H   0  0  0  0  0  0  0  0  0  0  0  0
   61.6932   33.3503   45.9200 H   0  0  0  0  0  0  0  0  0  0  0  0
   61.4932   35.1354   45.9200 H   0  0  0  0  0  0  0  0  0  0  0  0
  1  2  1  0
  2  3  1  0
  3  4  1  0
  4  5  1  0
  5  6  2  0
  6  7  1  0
  7  8  1  0
  8  9  1  0
  5 10  1  0
 10 11  2  0
 11 12  1  0
 12 13  1  0
 13 14  1  0
 14 15  2  0
 15 16  1  0
 16 17  2  0
 17 18  1  0
 18 19  2  0
 11 20  1  0
 20 21  1  0
 21 22  2  0
 21 23  1  0
 23 24  2  0
 24 25  1  0
 25 26  1  0
 26 27  2  0
 27 28  1  0
 28 29  2  0
 29 30  1  0
 20  3  2  0
 29 24  1  0
  9  7  1  0
 19 14  1  0
  1 31  1  0
  1 32  1  0
  1 33  1  0
  4 34  1  0
  7 35  1  0
  8 36  1  0
  8 37  1  0
  9 38  1  0
  9 39  1  0
 12 40  1  0
 12 41  1  0
 13 42  1  0
 13 43  1  0
 15 44  1  0
 16 45  1  0
 17 46  1  0
 18 47  1  0
 19 48  1  0
 25 49  1  0
 26 50  1  0
 27 51  1  0
 28 52  1  0
 30 53  1  0
 30 54  1  0
 30 55  1  0
M  END
>  <smiles>  (44) 
CSc1[nH]c(=NC2CC2)nc(CCc2ccccc2)c1C(=O)N=c1[nH]cccc1C

>  <score_type>  (44) 
oracle

>  <origin>  (44) 
adg

>  <m_score__min__energy>  (44) 
-8.6500000000000004

>  <m_primary>  (44) 
energy

$$$$
44:0
     RDKit          3D

 40 42  0  0  0  0  0  0  0  0999 V2000
   56.3400   29.5500   43.6470 N   0  0  0  0  0  0  0  0  0  0  0  0
   57.3320   30.2380   44.4220 C   0  0  0  0  0  0  0  0  0  0  0  0
   57.2740   31.6380   44.4970 C   0  0  0  0  0  0  0  0  0  0  0  0
   58.1520   32.3550   45.3130 C   0  0  0  0  0  0  0  0  0  0  0  0
   58.0470   33.7540   45.3420 O   0  0  0  0  0  0  0  0  0  0  0  0
   59.1050   34.6450   45.5700 C   0  0  0  0  0  0  0  0  0  0  0  0
   59.2630   35.6530   44.8280 O   0  0  0  0  0  0  0  0  0  0  0  0
   60.0750   34.3650   46.6520 C   0  0  0  0  0  0  0  0  0  0  0  0
   59.6880   34.4760   48.0000 C   0  0  0  0  0  0  0  0  0  0  0  0
   60.6040   34.2140   49.0230 C   0  0  0  0  0  0  0  0  0  0  0  0
   61.9140   33.8390   48.7130 C   0  0  0  0  0  0  0  0  0  0  0  0
   62.3100   33.7250   47.3790 C   0  0  0  0  0  0  0  0  0  0  0  0
   63.5820   33.3610   47.0810 F   0  0  0  0  0  0  0  0  0  0  0  0
   61.3980   33.9870   46.3520 C   0  0  0  0  0  0  0  0  0  0  0  0
   59.1290   31.6620   46.0450 C   0  0  0  0  0  0  0  0  0  0  0  0
   59.2100   30.2710   45.9680 C   0  0  0  0  0  0  0  0  0  0  0  0
   58.3280   29.5400   45.1530 C   0  0  0  0  0  0  0  0  0  0  0  0
   58.5030   28.0730   45.0550 C   0  0  0  0  0  0  0  0  0  0  0  0
   59.6230   27.5550   45.3100 O   0  0  0  0  0  0  0  0  0  0  0  0
   57.3590   27.2350   44.8410 N   0  0  0  0  0  0  0  0  0  0  0  0
   57.0760   26.0710   45.3650 C   0  0  0  0  0  0  0  0  0  0  0  0
   58.0740   25.1400   45.4270 N   0  0  0  0  0  0  0  0  0  0  0  0
   57.8740   23.8920   45.9310 C   0  0  0  0  0  0  0  0  0  0  0  0
   56.6240   23.5270   46.4250 C   0  0  0  0  0  0  0  0  0  0  0  0
   55.5900   24.4590   46.4140 C   0  0  0  0  0  0  0  0  0  0  0  0
   55.8040   25.7420   45.9050 C   0  0  0  0  0  0  0  0  0  0  0  0
   54.7700   26.6660   45.9990 O   0  0  0  0  0  0  0  0  0  0  0  0
   56.1660   28.5310   43.7970 H   0  0  0  0  0  0  0  0  0  0  0  0
   55.8580   30.0000   42.8390 H   0  0  0  0  0  0  0  0  0  0  0  0
   56.5239   32.1803   43.9027 H   0  0  0  0  0  0  0  0  0  0  0  0
   58.6583   34.7708   48.2506 H   0  0  0  0  0  0  0  0  0  0  0  0
   60.2929   34.3032   50.0743 H   0  0  0  0  0  0  0  0  0  0  0  0
   62.6330   33.6337   49.5198 H   0  0  0  0  0  0  0  0  0  0  0  0
   61.7160   33.8973   45.3028 H   0  0  0  0  0  0  0  0  0  0  0  0
   59.8333   32.2175   46.6816 H   0  0  0  0  0  0  0  0  0  0  0  0
   59.9746   29.7391   46.5531 H   0  0  0  0  0  0  0  0  0  0  0  0
   59.0240   25.3760   45.0580 H   0  0  0  0  0  0  0  0  0  0  0  0
   58.7026   23.1687   45.9483 H   0  0  0  0  0  0  0  0  0  0  0  0
   56.4557   22.5140   46.8193 H   0  0  0  0  0  0  0  0  0  0  0  0
   54.6004   24.1839   46.8078 H   0  0  0  0  0  0  0  0  0  0  0  0
  1  2  1  0
  2  3  2  0
  3  4  1  0
  4  5  1  0
  5  6  1  0
  6  7  2  0
  6  8  1  0
  8  9  2  0
  9 10  1  0
 10 11  2  0
 11 12  1  0
 12 13  1  0
 12 14  2  0
  4 15  2  0
 15 16  1  0
 16 17  2  0
 17 18  1  0
 18 19  2  0
 18 20  1  0
 20 21  2  3
 21 22  1  0
 22 23  1  0
 23 24  2  0
 24 25  1  0
 25 26  2  0
 26 27  1  0
 17  2  1  0
 26 21  1  0
 14  8  1  0
  1 28  1  0
  1 29  1  0
  3 30  1  0
  9 31  1  0
 10 32  1  0
 11 33  1  0
 14 34  1  0
 15 35  1  0
 16 36  1  0
 22 37  1  0
 23 38  1  0
 24 39  1  0
 25 40  1  0
M  CHG  1  27  -1
M  END
>  <UniqueID>  (45) 
39

>  <SMILES>  (45) 
Nc1cc(OC(=O)c2cccc(F)c2)ccc1C(=O)N=c1[nH]cccc1[O-]

>  <Energy>  (45) 
65.62035667312566

>  <Genealogy>  (45) 
Nc1cc(OC(=O)c2cccc(F)c2)ccc1C(=O)N=c1[nH]cccc1[O-] (protonated)
Nc1cc(OC(=O)c2cccc(F)c2)ccc1C(=O)N=c1[nH]cccc1[O-] (3D coordinates assigned)
Nc1cc(OC(=O)c2cccc(F)c2)ccc1C(=O)N=c1[nH]cccc1[O-] (optimized conformer: 65.62035667312566 kcal/mol)

>  <smiles>  (45) 
Nc1cc(OC(=O)c2cccc(F)c2)ccc1C(=O)N=c1[nH]cccc1O

>  <score_type>  (45) 
oracle

>  <origin>  (45) 
adg

>  <m_score__min__energy>  (45) 
-11.81

>  <m_primary>  (45) 
energy

$$$$
45:0
     RDKit          3D

 49 52  0  0  0  0  0  0  0  0999 V2000
   57.5790   32.3420   41.3000 C   0  0  0  0  0  0  0  0  0  0  0  0
   57.3730   31.4050   42.4360 C   0  0  0  0  0  0  0  0  0  0  0  0
   56.3820   30.4480   42.3670 C   0  0  0  0  0  0  0  0  0  0  0  0
   56.2280   29.5870   43.4340 C   0  0  0  0  0  0  0  0  0  0  0  0
   57.0540   29.6980   44.5320 C   0  0  0  0  0  0  0  0  0  0  0  0
   57.1080   28.9910   45.6770 N   0  0  0  0  0  0  0  0  0  0  0  0
   58.0950   29.4630   46.4700 C   0  0  0  0  0  0  0  0  0  0  0  0
   58.5130   28.7920   48.0710 S   0  0  0  0  0  0  0  0  0  0  0  0
   60.2720   28.3850   48.1040 C   0  0  0  0  0  0  0  0  0  0  0  0
   61.0320   29.5990   48.5540 C   0  0  0  0  0  0  0  0  0  0  0  0
   61.5750   29.6590   49.6880 O   0  0  0  0  0  0  0  0  0  0  0  0
   61.1170   30.7050   47.6330 N   0  0  0  0  0  0  0  0  0  0  0  0
   61.8120   31.9020   47.9500 C   0  0  0  0  0  0  0  0  0  0  0  0
   63.1570   31.7170   48.2960 C   0  0  0  0  0  0  0  0  0  0  0  0
   63.9580   32.7690   48.6530 C   0  0  0  0  0  0  0  0  0  0  0  0
   63.3910   34.0200   48.6570 C   0  0  0  0  0  0  0  0  0  0  0  0
   62.0480   34.2150   48.3120 C   0  0  0  0  0  0  0  0  0  0  0  0
   61.2260   33.1520   47.9490 C   0  0  0  0  0  0  0  0  0  0  0  0
   59.8660   33.3820   47.5950 N   0  0  0  0  0  0  0  0  0  0  0  0
   59.4880   34.5280   46.7790 C   0  0  0  0  0  0  0  0  0  0  0  0
   58.6500   34.0120   45.6120 C   0  0  0  0  0  0  0  0  0  0  0  0
   57.5440   33.3230   46.0490 O   0  0  0  0  0  0  0  0  0  0  0  0
   57.4900   33.1310   47.4060 C   0  0  0  0  0  0  0  0  0  0  0  0
   58.7740   32.5090   47.9830 C   0  0  0  0  0  0  0  0  0  0  0  0
   58.6830   30.4980   45.8090 N   0  0  0  0  0  0  0  0  0  0  0  0
   58.0580   30.6630   44.6080 C   0  0  0  0  0  0  0  0  0  0  0  0
   58.2150   31.5230   43.5450 C   0  0  0  0  0  0  0  0  0  0  0  0
   57.7999   33.3469   41.6890 H   0  0  0  0  0  0  0  0  0  0  0  0
   58.4219   31.9933   40.6853 H   0  0  0  0  0  0  0  0  0  0  0  0
   56.6675   32.3790   40.6853 H   0  0  0  0  0  0  0  0  0  0  0  0
   55.7309   30.3732   41.4835 H   0  0  0  0  0  0  0  0  0  0  0  0
   55.4470   28.8128   43.4085 H   0  0  0  0  0  0  0  0  0  0  0  0
   56.4810   28.1820   45.9400 H   0  0  0  0  0  0  0  0  0  0  0  0
   60.4482   27.5557   48.8049 H   0  0  0  0  0  0  0  0  0  0  0  0
   60.6076   28.0795   47.1020 H   0  0  0  0  0  0  0  0  0  0  0  0
   60.6410   30.6490   46.6860 H   0  0  0  0  0  0  0  0  0  0  0  0
   63.5801   30.7017   48.2805 H   0  0  0  0  0  0  0  0  0  0  0  0
   65.0130   32.6181   48.9256 H   0  0  0  0  0  0  0  0  0  0  0  0
   64.0056   34.8881   48.9375 H   0  0  0  0  0  0  0  0  0  0  0  0
   61.6324   35.2333   48.3282 H   0  0  0  0  0  0  0  0  0  0  0  0
   58.8982   35.2367   47.3790 H   0  0  0  0  0  0  0  0  0  0  0  0
   60.3833   35.0491   46.4091 H   0  0  0  0  0  0  0  0  0  0  0  0
   58.3205   34.8671   45.0036 H   0  0  0  0  0  0  0  0  0  0  0  0
   59.2716   33.3246   45.0195 H   0  0  0  0  0  0  0  0  0  0  0  0
   57.3253   34.1048   47.8904 H   0  0  0  0  0  0  0  0  0  0  0  0
   56.6687   32.4264   47.6035 H   0  0  0  0  0  0  0  0  0  0  0  0
   58.7073   32.4484   49.0793 H   0  0  0  0  0  0  0  0  0  0  0  0
   58.9268   31.4882   47.6026 H   0  0  0  0  0  0  0  0  0  0  0  0
   58.9966   32.2966   43.5682 H   0  0  0  0  0  0  0  0  0  0  0  0
  1  2  1  0
  2  3  2  0
  3  4  1  0
  4  5  2  0
  5  6  1  0
  6  7  1  0
  7  8  1  0
  8  9  1  0
  9 10  1  0
 10 11  2  0
 10 12  1  0
 12 13  1  0
 13 14  2  0
 14 15  1  0
 15 16  2  0
 16 17  1  0
 17 18  2  0
 18 19  1  0
 19 20  1  0
 20 21  1  0
 21 22  1  0
 22 23  1  0
 23 24  1  0
  7 25  2  0
 25 26  1  0
 26 27  2  0
 27  2  1  0
 26  5  1  0
 18 13  1  0
 24 19  1  0
  1 28  1  0
  1 29  1  0
  1 30  1  0
  3 31  1  0
  4 32  1  0
  6 33  1  0
  9 34  1  0
  9 35  1  0
 12 36  1  0
 14 37  1  0
 15 38  1  0
 16 39  1  0
 17 40  1  0
 20 41  1  0
 20 42  1  0
 21 43  1  0
 21 44  1  0
 23 45  1  0
 23 46  1  0
 24 47  1  0
 24 48  1  0
 27 49  1  0
M  END
>  <smiles>  (46) 
Cc1ccc2[nH]c(SCC(=O)Nc3ccccc3N3CCOCC3)nc2c1

>  <score_type>  (46) 
oracle

>  <origin>  (46) 
adg

>  <m_score__min__energy>  (46) 
-8.0500000000000007

>  <m_primary>  (46) 
energy

$$$$
46:0
     RDKit          3D

 44 46  0  0  0  0  0  0  0  0999 V2000
   60.2870   34.1900   49.8680 C   0  0  0  0  0  0  0  0  0  0  0  0
   59.7030   32.8550   49.9870 N   0  0  0  0  0  0  0  0  0  0  0  0
   59.7500   32.0720   51.0770 C   0  0  0  0  0  0  0  0  0  0  0  0
   59.0260   30.9350   50.8000 C   0  0  0  0  0  0  0  0  0  0  0  0
   58.8190   29.8510   51.7170 N   0  0  0  0  0  0  0  0  0  0  0  0
   57.5410   29.4990   52.2590 C   0  0  0  0  0  0  0  0  0  0  0  0
   56.5000   30.1390   51.9510 O   0  0  0  0  0  0  0  0  0  0  0  0
   58.5180   30.9920   49.5530 N   0  0  0  0  0  0  0  0  0  0  0  0
   58.9560   32.1790   49.0800 C   0  0  0  0  0  0  0  0  0  0  0  0
   58.5860   32.6730   47.7420 C   0  0  0  0  0  0  0  0  0  0  0  0
   57.4210   33.0950   47.5110 O   0  0  0  0  0  0  0  0  0  0  0  0
   59.5680   32.6700   46.6990 N   0  0  0  0  0  0  0  0  0  0  0  0
   60.9840   32.6960   46.9210 C   0  0  0  0  0  0  0  0  0  0  0  0
   61.6380   33.9330   46.8460 C   0  0  0  0  0  0  0  0  0  0  0  0
   63.0250   34.0140   46.9790 C   0  0  0  0  0  0  0  0  0  0  0  0
   63.7730   32.8570   47.1970 C   0  0  0  0  0  0  0  0  0  0  0  0
   63.1340   31.6200   47.3090 C   0  0  0  0  0  0  0  0  0  0  0  0
   61.7350   31.5230   47.1990 C   0  0  0  0  0  0  0  0  0  0  0  0
   61.0970   30.2080   47.4370 C   0  0  0  0  0  0  0  0  0  0  0  0
   61.0360   29.7510   48.6100 O   0  0  0  0  0  0  0  0  0  0  0  0
   60.5710   29.4550   46.3340 N   0  0  0  0  0  0  0  0  0  0  0  0
   59.1920   29.2870   45.9780 C   0  0  0  0  0  0  0  0  0  0  0  0
   58.5390   30.3380   45.3270 C   0  0  0  0  0  0  0  0  0  0  0  0
   57.2000   30.2190   44.9590 C   0  0  0  0  0  0  0  0  0  0  0  0
   56.4850   29.0560   45.2570 C   0  0  0  0  0  0  0  0  0  0  0  0
   55.1520   28.9750   44.8680 O   0  0  0  0  0  0  0  0  0  0  0  0
   57.1140   27.9920   45.9430 C   0  0  0  0  0  0  0  0  0  0  0  0
   56.3840   26.7490   46.2980 C   0  0  0  0  0  0  0  0  0  0  0  0
   56.9780   25.7780   46.8380 O   0  0  0  0  0  0  0  0  0  0  0  0
   55.0220   26.6360   46.0370 O   0  0  0  0  0  0  0  0  0  0  0  0
   58.4690   28.1250   46.3060 C   0  0  0  0  0  0  0  0  0  0  0  0
   60.4673   34.6021   50.8718 H   0  0  0  0  0  0  0  0  0  0  0  0
   61.2394   34.1262   49.3213 H   0  0  0  0  0  0  0  0  0  0  0  0
   59.5937   34.8461   49.3213 H   0  0  0  0  0  0  0  0  0  0  0  0
   60.2716   32.2981   52.0187 H   0  0  0  0  0  0  0  0  0  0  0  0
   59.6450   29.2860   52.0140 H   0  0  0  0  0  0  0  0  0  0  0  0
   57.4665   28.6530   52.9582 H   0  0  0  0  0  0  0  0  0  0  0  0
   61.0524   34.8494   46.6807 H   0  0  0  0  0  0  0  0  0  0  0  0
   63.5281   34.9899   46.9119 H   0  0  0  0  0  0  0  0  0  0  0  0
   64.8681   32.9189   47.2809 H   0  0  0  0  0  0  0  0  0  0  0  0
   63.7306   30.7128   47.4849 H   0  0  0  0  0  0  0  0  0  0  0  0
   59.0861   31.2657   45.1036 H   0  0  0  0  0  0  0  0  0  0  0  0
   56.7029   31.0459   44.4306 H   0  0  0  0  0  0  0  0  0  0  0  0
   58.9677   27.3108   46.8523 H   0  0  0  0  0  0  0  0  0  0  0  0
  1  2  1  0
  2  3  1  0
  3  4  2  0
  4  5  1  0
  5  6  1  0
  6  7  2  0
  4  8  1  0
  8  9  2  0
  9 10  1  0
 10 11  2  0
 10 12  1  0
 12 13  1  0
 13 14  2  0
 14 15  1  0
 15 16  2  0
 16 17  1  0
 17 18  2  0
 18 19  1  0
 19 20  2  0
 19 21  1  0
 21 22  1  0
 22 23  2  0
 23 24  1  0
 24 25  2  0
 25 26  1  0
 25 27  1  0
 27 28  1  0
 28 29  2  0
 28 30  1  0
 27 31  2  0
  9  2  1  0
 18 13  1  0
 31 22  1  0
  1 32  1  0
  1 33  1  0
  1 34  1  0
  3 35  1  0
  5 36  1  0
  6 37  1  0
 14 38  1  0
 15 39  1  0
 16 40  1  0
 17 41  1  0
 23 42  1  0
 24 43  1  0
 31 44  1  0
M  CHG  4  12  -1  21  -1  26  -1  30  -1
M  END
>  <UniqueID>  (47) 
40

>  <SMILES>  (47) 
Cn1cc(NC=O)nc1C(=O)[N-]c1ccccc1C(=O)[N-]c1ccc([O-])c(C(=O)[O-])c1

>  <Energy>  (47) 
89.7328617965129

>  <Genealogy>  (47) 
Cn1cc(NC=O)nc1C(=O)[N-]c1ccccc1C(=O)[N-]c1ccc([O-])c(C(=O)[O-])c1 (protonated)
Cn1cc(NC=O)nc1C(=O)[N-]c1ccccc1C(=O)[N-]c1ccc([O-])c(C(=O)[O-])c1 (3D coordinates assigned)
Cn1cc(NC=O)nc1C(=O)[N-]c1ccccc1C(=O)[N-]c1ccc([O-])c(C(=O)[O-])c1 (optimized conformer: 89.7328617965129 kcal/mol)

>  <smiles>  (47) 
Cn1cc(NC=O)nc1C(=O)Nc1ccccc1C(=O)Nc1ccc(O)c(C(=O)O)c1

>  <score_type>  (47) 
oracle

>  <origin>  (47) 
adg

>  <m_score__min__energy>  (47) 
-17.329999999999998

>  <m_primary>  (47) 
energy

$$$$
47:0
     RDKit          3D

 49 51  0  0  1  0  0  0  0  0999 V2000
   60.6120   30.0660   48.2900 C   0  0  0  0  0  0  0  0  0  0  0  0
   61.1240   31.3880   47.8460 C   0  0  0  0  0  0  0  0  0  0  0  0
   62.4630   31.6290   47.5900 C   0  0  0  0  0  0  0  0  0  0  0  0
   62.9010   32.8910   47.1730 C   0  0  0  0  0  0  0  0  0  0  0  0
   62.0320   33.9060   47.0090 N   0  0  0  0  0  0  0  0  0  0  0  0
   60.7390   33.6430   47.2640 C   0  0  0  0  0  0  0  0  0  0  0  0
   59.8720   34.5840   47.1210 N   0  0  0  0  0  0  0  0  0  0  0  0
   59.5800   35.2310   45.8900 C   0  0  0  0  0  0  0  0  0  0  0  0
   60.0210   36.3980   45.7230 O   0  0  0  0  0  0  0  0  0  0  0  0
   58.7780   34.5030   44.8750 C   0  0  0  0  0  0  0  0  0  0  0  0
   58.5060   33.1720   45.3590 N   0  0  0  0  0  0  0  0  0  0  0  0
   58.0670   32.2020   44.4140 C   0  0  0  0  0  0  0  0  0  0  0  0
   57.9280   32.5110   43.1990 O   0  0  0  0  0  0  0  0  0  0  0  0
   57.7650   30.8330   44.7910 C   0  0  0  0  0  0  0  0  0  0  0  0
   58.7140   30.1200   45.4880 C   0  0  0  0  0  0  0  0  0  0  0  0
   58.5150   28.8030   45.8910 C   0  0  0  0  0  0  0  0  0  0  0  0
   57.3200   28.1620   45.5910 C   0  0  0  0  0  0  0  0  0  0  0  0
   57.0260   26.5130   46.0760 S   0  0  0  0  0  0  0  0  0  0  0  0
   55.5690   26.2280   45.9770 O   0  0  0  0  0  0  0  0  0  0  0  0
   57.4730   26.3150   47.4910 O   0  0  0  0  0  0  0  0  0  0  0  0
   57.8960   25.4220   45.0600 N   0  0  0  0  0  0  0  0  0  0  0  0
   57.9210   24.0890   45.5740 C   0  0  0  0  0  0  0  0  0  0  0  0
   57.4110   23.1810   44.4650 C   0  0  0  0  0  0  0  0  0  0  0  0
   56.5800   24.1330   43.6450 C   0  0  0  0  0  0  0  0  0  0  0  0
   57.3850   25.4130   43.7260 C   0  0  0  0  0  0  0  0  0  0  0  0
   56.3570   28.8780   44.8870 C   0  0  0  0  0  0  0  0  0  0  0  0
   56.5850   30.1970   44.4960 C   0  0  0  0  0  0  0  0  0  0  0  0
   60.2940   32.4440   47.6650 N   0  0  0  0  0  0  0  0  0  0  0  0
   60.5976   30.0288   49.3893 H   0  0  0  0  0  0  0  0  0  0  0  0
   59.5921   29.9196   47.9047 H   0  0  0  0  0  0  0  0  0  0  0  0
   61.2672   29.2708   47.9047 H   0  0  0  0  0  0  0  0  0  0  0  0
   63.1936   30.8164   47.7163 H   0  0  0  0  0  0  0  0  0  0  0  0
   63.9706   33.0560   46.9764 H   0  0  0  0  0  0  0  0  0  0  0  0
   62.3200   34.8510   46.7030 H   0  0  0  0  0  0  0  0  0  0  0  0
   57.8301   35.0341   44.7035 H   0  0  0  0  0  0  0  0  0  0  0  0
   59.3367   34.4479   43.9291 H   0  0  0  0  0  0  0  0  0  0  0  0
   58.6240   32.9320   46.3570 H   0  0  0  0  0  0  0  0  0  0  0  0
   59.6669   30.6104   45.7361 H   0  0  0  0  0  0  0  0  0  0  0  0
   59.3020   28.2711   46.4457 H   0  0  0  0  0  0  0  0  0  0  0  0
   58.9482   23.8089   45.8505 H   0  0  0  0  0  0  0  0  0  0  0  0
   57.2959   24.0014   46.4748 H   0  0  0  0  0  0  0  0  0  0  0  0
   58.2408   22.7638   43.8756 H   0  0  0  0  0  0  0  0  0  0  0  0
   56.8555   22.3036   44.8277 H   0  0  0  0  0  0  0  0  0  0  0  0
   56.4860   23.7863   42.6053 H   0  0  0  0  0  0  0  0  0  0  0  0
   55.5459   24.2386   44.0050 H   0  0  0  0  0  0  0  0  0  0  0  0
   58.2059   25.4045   42.9939 H   0  0  0  0  0  0  0  0  0  0  0  0
   56.7821   26.3048   43.4998 H   0  0  0  0  0  0  0  0  0  0  0  0
   55.4008   28.3961   44.6349 H   0  0  0  0  0  0  0  0  0  0  0  0
   55.8045   30.7379   43.9407 H   0  0  0  0  0  0  0  0  0  0  0  0
  1  2  1  0
  2  3  1  0
  3  4  2  0
  4  5  1  0
  5  6  1  0
  6  7  2  0
  7  8  1  0
  8  9  2  0
  8 10  1  0
 10 11  1  0
 11 12  1  0
 12 13  2  0
 12 14  1  0
 14 15  2  0
 15 16  1  0
 16 17  2  0
 17 18  1  0
 18 19  2  0
 18 20  2  0
 18 21  1  0
 21 22  1  0
 22 23  1  0
 23 24  1  0
 24 25  1  0
 17 26  1  0
 26 27  2  0
  6 28  1  0
 28  2  2  0
 27 14  1  0
 25 21  1  0
  1 29  1  0
  1 30  1  0
  1 31  1  0
  3 32  1  0
  4 33  1  0
  5 34  1  0
 10 35  1  0
 10 36  1  0
 11 37  1  0
 15 38  1  0
 16 39  1  0
 22 40  1  0
 22 41  1  0
 23 42  1  0
 23 43  1  0
 24 44  1  0
 24 45  1  0
 25 46  1  0
 25 47  1  0
 26 48  1  0
 27 49  1  0
M  END
>  <smiles>  (48) 
Cc1cc[nH]c(=NC(=O)CNC(=O)c2ccc(S(=O)(=O)N3CCCC3)cc2)n1

>  <score_type>  (48) 
oracle

>  <origin>  (48) 
adg

>  <m_score__min__energy>  (48) 
-8.3900000000000006

>  <m_primary>  (48) 
energy

$$$$
48:0
     RDKit          3D

 48 51  0  0  0  0  0  0  0  0999 V2000
   55.5650   29.7120   45.9340 H   0  0  0  0  0  0  0  0  0  0  0  0
   55.5320   28.9660   45.2500 O   0  0  0  0  0  0  0  0  0  0  0  0
   55.9770   27.6810   45.5510 C   0  0  0  0  0  0  0  0  0  0  0  0
   55.1670   26.7050   45.9900 N   0  0  0  0  0  0  0  0  0  0  0  0
   56.0210   25.6780   46.1980 C   0  0  0  0  0  0  0  0  0  0  0  0
   55.6420   24.5580   46.6270 O   0  0  0  0  0  0  0  0  0  0  0  0
   57.3140   25.9510   45.9190 N   0  0  0  0  0  0  0  0  0  0  0  0
   57.2770   27.2220   45.4800 C   0  0  0  0  0  0  0  0  0  0  0  0
   58.4810   27.9940   45.1410 C   0  0  0  0  0  0  0  0  0  0  0  0
   59.3329   27.4378   44.7228 H   0  0  0  0  0  0  0  0  0  0  0  0
   58.6320   29.3240   45.2980 C   0  0  0  0  0  0  0  0  0  0  0  0
   58.1760   30.2430   44.3670 C   0  0  0  0  0  0  0  0  0  0  0  0
   57.6122   30.0207   43.4490 H   0  0  0  0  0  0  0  0  0  0  0  0
   58.5640   31.4900   44.8110 C   0  0  0  0  0  0  0  0  0  0  0  0
   58.2790   32.7760   44.0970 C   0  0  0  0  0  0  0  0  0  0  0  0
   58.1023   33.5732   44.8340 H   0  0  0  0  0  0  0  0  0  0  0  0
   59.1396   33.0438   43.4664 H   0  0  0  0  0  0  0  0  0  0  0  0
   57.3858   32.6551   43.4664 H   0  0  0  0  0  0  0  0  0  0  0  0
   59.2090   31.3870   45.9940 N   0  0  0  0  0  0  0  0  0  0  0  0
   59.7250   32.4870   46.7660 C   0  0  0  0  0  0  0  0  0  0  0  0
   61.1100   32.6400   46.9320 C   0  0  0  0  0  0  0  0  0  0  0  0
   61.7985   31.9137   46.4754 H   0  0  0  0  0  0  0  0  0  0  0  0
   61.6230   33.7140   47.6770 C   0  0  0  0  0  0  0  0  0  0  0  0
   63.0820   33.8540   47.8590 C   0  0  0  0  0  0  0  0  0  0  0  0
   63.7930   34.1600   46.8630 O   0  0  0  0  0  0  0  0  0  0  0  0
   63.7030   33.6630   49.1430 N   0  0  0  0  0  0  0  0  0  0  0  0
   64.7780   32.7130   49.3880 C   0  0  0  0  0  0  0  0  0  0  0  0
   64.4641   31.6972   49.1057 H   0  0  0  0  0  0  0  0  0  0  0  0
   65.6731   32.9505   48.7945 H   0  0  0  0  0  0  0  0  0  0  0  0
   65.0590   32.7860   50.8840 C   0  0  0  0  0  0  0  0  0  0  0  0
   65.1944   31.7760   51.2981 H   0  0  0  0  0  0  0  0  0  0  0  0
   65.9799   33.3490   51.0962 H   0  0  0  0  0  0  0  0  0  0  0  0
   63.8360   33.4550   51.5040 C   0  0  1  0  0  0  0  0  0  0  0  0
   63.1633   32.7131   51.9590 H   0  0  0  0  0  0  0  0  0  0  0  0
   64.2060   34.3210   52.5200 F   0  0  0  0  0  0  0  0  0  0  0  0
   63.1450   34.2050   50.3710 C   0  0  0  0  0  0  0  0  0  0  0  0
   62.0586   34.0363   50.4058 H   0  0  0  0  0  0  0  0  0  0  0  0
   63.3055   35.2907   50.4454 H   0  0  0  0  0  0  0  0  0  0  0  0
   60.7360   34.6130   48.2870 C   0  0  0  0  0  0  0  0  0  0  0  0
   61.1285   35.4419   48.8944 H   0  0  0  0  0  0  0  0  0  0  0  0
   59.3560   34.4610   48.1270 C   0  0  0  0  0  0  0  0  0  0  0  0
   58.6666   35.1757   48.6003 H   0  0  0  0  0  0  0  0  0  0  0  0
   58.8500   33.4030   47.3670 C   0  0  0  0  0  0  0  0  0  0  0  0
   57.5070   33.2580   47.2320 F   0  0  0  0  0  0  0  0  0  0  0  0
   59.2370   30.0700   46.3240 C   0  0  0  0  0  0  0  0  0  0  0  0
   59.6600   29.6200   47.5160 C   0  0  0  0  0  0  0  0  0  0  0  0
   60.1202   30.3145   48.2343 H   0  0  0  0  0  0  0  0  0  0  0  0
   59.5464   28.5568   47.7744 H   0  0  0  0  0  0  0  0  0  0  0  0
  1  2  1  0
  2  3  1  0
  3  4  1  0
  4  5  1  0
  5  6  2  0
  5  7  1  0
  7  8  1  0
  8  9  1  0
  9 10  1  0
  9 11  2  0
 11 12  1  0
 12 13  1  0
 12 14  2  0
 14 15  1  0
 15 16  1  0
 15 17  1  0
 15 18  1  0
 14 19  1  0
 19 20  1  0
 20 21  2  0
 21 22  1  0
 21 23  1  0
 23 24  1  0
 24 25  2  0
 24 26  1  0
 26 27  1  0
 27 28  1  0
 27 29  1  0
 27 30  1  0
 30 31  1  0
 30 32  1  0
 30 33  1  0
 33 34  1  1
 33 35  1  0
 33 36  1  0
 36 37  1  0
 36 38  1  0
 23 39  2  0
 39 40  1  0
 39 41  1  0
 41 42  1  0
 41 43  2  0
 43 44  1  0
 19 45  1  0
 45 46  2  0
 46 47  1  0
 46 48  1  0
  8  3  2  0
 45 11  1  0
 43 20  1  0
 36 26  1  0
M  CHG  2   4  -1   7  -1
M  END
>  <UniqueID>  (49) 
41

>  <SMILES>  (49) 
C=c1/c(=C\c2[n-]c(=O)[n-]c2O)cc(C)n1-c1cc(C(=O)N2CC[C@@H](F)C2)ccc1F

>  <Energy>  (49) 
131.00622408379596

>  <Genealogy>  (49) 
C=c1c(=Cc2[n-]c(=O)[n-]c2O)cc(C)n1-c1cc(C(=O)N2CCC(F)C2)ccc1F (protonated)
C=c1c(=Cc2[n-]c(=O)[n-]c2O)cc(C)n1-c1cc(C(=O)N2CC[C@@H](F)C2)ccc1F (chirality)
C=c1/c(=C\c2[n-]c(=O)[n-]c2O)cc(C)n1-c1cc(C(=O)N2CC[C@@H](F)C2)ccc1F (cis-trans isomerization)
C=c1/c(=C\c2[n-]c(=O)[n-]c2O)cc(C)n1-c1cc(C(=O)N2CC[C@@H](F)C2)ccc1F (3D coordinates assigned)
C=c1/c(=C\c2[n-]c(=O)[n-]c2O)cc(C)n1-c1cc(C(=O)N2CC[C@@H](F)C2)ccc1F (nonaromatic ring conformer: 131.00622408379596 kcal/mol)

>  <smiles>  (49) 
C=c1c(=Cc2[nH]c(=O)[nH]c2O)cc(C)n1-c1cc(C(=O)N2CCC(F)C2)ccc1F

>  <score_type>  (49) 
oracle

>  <origin>  (49) 
adg

>  <m_score__min__energy>  (49) 
-13.960000000000001

>  <m_primary>  (49) 
energy

$$$$
49:0
     RDKit          3D

 43 45  0  0  0  0  0  0  0  0999 V2000
   51.0800   32.3390   50.4140 N   0  0  0  0  0  0  0  0  0  0  0  0
   51.0180   32.4520   51.8340 C   0  0  0  0  0  0  0  0  0  0  0  0
   50.4800   33.4630   52.3560 O   0  0  0  0  0  0  0  0  0  0  0  0
   51.5930   31.4440   52.6730 N   0  0  0  0  0  0  0  0  0  0  0  0
   52.1240   30.1770   52.1710 C   0  0  0  0  0  0  0  0  0  0  0  0
   53.6210   30.1310   52.3480 C   0  0  0  0  0  0  0  0  0  0  0  0
   54.4070   31.2190   51.9420 C   0  0  0  0  0  0  0  0  0  0  0  0
   55.8020   31.1510   52.0180 C   0  0  0  0  0  0  0  0  0  0  0  0
   56.4350   29.9890   52.4990 C   0  0  0  0  0  0  0  0  0  0  0  0
   57.9140   29.8890   52.5110 C   0  0  0  0  0  0  0  0  0  0  0  0
   58.4800   29.1700   53.3780 O   0  0  0  0  0  0  0  0  0  0  0  0
   58.7240   30.6260   51.5900 N   0  0  0  0  0  0  0  0  0  0  0  0
   59.1140   30.1660   50.2860 C   0  0  0  0  0  0  0  0  0  0  0  0
   59.9800   29.0740   50.1240 C   0  0  0  0  0  0  0  0  0  0  0  0
   60.3050   28.6150   48.8450 C   0  0  0  0  0  0  0  0  0  0  0  0
   59.7750   29.2480   47.7190 C   0  0  0  0  0  0  0  0  0  0  0  0
   58.9230   30.3570   47.8670 C   0  0  0  0  0  0  0  0  0  0  0  0
   58.3890   31.0200   46.7540 O   0  0  0  0  0  0  0  0  0  0  0  0
   58.6880   32.3450   46.3960 C   0  0  0  0  0  0  0  0  0  0  0  0
   57.8610   33.0020   45.4780 C   0  0  0  0  0  0  0  0  0  0  0  0
   58.1470   34.3140   45.0800 C   0  0  0  0  0  0  0  0  0  0  0  0
   59.2750   34.9700   45.5870 C   0  0  0  0  0  0  0  0  0  0  0  0
   60.1140   34.3150   46.4950 C   0  0  0  0  0  0  0  0  0  0  0  0
   59.8250   33.0080   46.8970 C   0  0  0  0  0  0  0  0  0  0  0  0
   58.6140   30.8210   49.1530 C   0  0  0  0  0  0  0  0  0  0  0  0
   55.6460   28.9180   52.9450 C   0  0  0  0  0  0  0  0  0  0  0  0
   54.2490   28.9850   52.8670 C   0  0  0  0  0  0  0  0  0  0  0  0
   50.2120   32.3350   49.8320 H   0  0  0  0  0  0  0  0  0  0  0  0
   51.6669   29.3457   52.7278 H   0  0  0  0  0  0  0  0  0  0  0  0
   51.8870   30.0884   51.1005 H   0  0  0  0  0  0  0  0  0  0  0  0
   53.9238   32.1310   51.5616 H   0  0  0  0  0  0  0  0  0  0  0  0
   56.4088   32.0115   51.6997 H   0  0  0  0  0  0  0  0  0  0  0  0
   60.4052   28.5768   51.0083 H   0  0  0  0  0  0  0  0  0  0  0  0
   60.9791   27.7541   48.7250 H   0  0  0  0  0  0  0  0  0  0  0  0
   60.0245   28.8783   46.7135 H   0  0  0  0  0  0  0  0  0  0  0  0
   56.9814   32.4851   45.0667 H   0  0  0  0  0  0  0  0  0  0  0  0
   57.4849   34.8293   44.3686 H   0  0  0  0  0  0  0  0  0  0  0  0
   59.5014   35.9993   45.2718 H   0  0  0  0  0  0  0  0  0  0  0  0
   61.0015   34.8289   46.8927 H   0  0  0  0  0  0  0  0  0  0  0  0
   60.4889   32.4947   47.6082 H   0  0  0  0  0  0  0  0  0  0  0  0
   57.9734   31.7070   49.2737 H   0  0  0  0  0  0  0  0  0  0  0  0
   56.1276   28.0197   53.3587 H   0  0  0  0  0  0  0  0  0  0  0  0
   53.6402   28.1369   53.2135 H   0  0  0  0  0  0  0  0  0  0  0  0
  1  2  1  0
  2  3  2  0
  2  4  1  0
  4  5  1  0
  5  6  1  0
  6  7  2  0
  7  8  1  0
  8  9  2  0
  9 10  1  0
 10 11  2  0
 10 12  1  0
 12 13  1  0
 13 14  2  0
 14 15  1  0
 15 16  2  0
 16 17  1  0
 17 18  1  0
 18 19  1  0
 19 20  2  0
 20 21  1  0
 21 22  2  0
 22 23  1  0
 23 24  2  0
 17 25  2  0
  9 26  1  0
 26 27  2  0
 27  6  1  0
 25 13  1  0
 24 19  1  0
  1 28  1  0
  5 29  1  0
  5 30  1  0
  7 31  1  0
  8 32  1  0
 14 33  1  0
 15 34  1  0
 16 35  1  0
 20 36  1  0
 21 37  1  0
 22 38  1  0
 23 39  1  0
 24 40  1  0
 25 41  1  0
 26 42  1  0
 27 43  1  0
M  CHG  3   1  -1   4  -1  12  -1
M  END
>  <UniqueID>  (50) 
42

>  <SMILES>  (50) 
[NH-]C(=O)[N-]Cc1ccc(C(=O)[N-]c2cccc(Oc3ccccc3)c2)cc1

>  <Energy>  (50) 
56.45764047161484

>  <Genealogy>  (50) 
[NH-]C(=O)[N-]Cc1ccc(C(=O)[N-]c2cccc(Oc3ccccc3)c2)cc1 (protonated)
[NH-]C(=O)[N-]Cc1ccc(C(=O)[N-]c2cccc(Oc3ccccc3)c2)cc1 (3D coordinates assigned)
[NH-]C(=O)[N-]Cc1ccc(C(=O)[N-]c2cccc(Oc3ccccc3)c2)cc1 (optimized conformer: 56.45764047161484 kcal/mol)

>  <smiles>  (50) 
NC(=O)NCc1ccc(C(=O)Nc2cccc(Oc3ccccc3)c2)cc1

>  <score_type>  (50) 
oracle

>  <origin>  (50) 
adg

>  <m_score__min__energy>  (50) 
-15.949999999999999

>  <m_primary>  (50) 
energy

$$$$
50:0
     RDKit          3D

 52 55  0  0  0  0  0  0  0  0999 V2000
   55.1790   30.0430   44.3960 O   0  0  0  0  0  0  0  0  0  0  0  0
   56.0400   29.4180   45.0690 C   0  0  0  0  0  0  0  0  0  0  0  0
   57.1520   30.1090   45.6530 N   0  0  0  0  0  0  0  0  0  0  0  0
   57.6660   31.3930   45.2680 C   0  0  0  0  0  0  0  0  0  0  0  0
   57.5810   31.7710   43.9240 C   0  0  0  0  0  0  0  0  0  0  0  0
   58.0900   33.0000   43.5020 C   0  0  0  0  0  0  0  0  0  0  0  0
   58.6990   33.8600   44.4190 C   0  0  0  0  0  0  0  0  0  0  0  0
   58.8050   33.4950   45.7730 C   0  0  0  0  0  0  0  0  0  0  0  0
   59.4870   34.3810   46.7480 C   0  0  0  0  0  0  0  0  0  0  0  0
   58.8900   35.4160   47.1510 O   0  0  0  0  0  0  0  0  0  0  0  0
   60.8470   34.0930   47.2660 C   0  0  0  0  0  0  0  0  0  0  0  0
   61.1050   34.0690   48.6500 C   0  0  0  0  0  0  0  0  0  0  0  0
   62.3880   33.7780   49.1250 C   0  0  0  0  0  0  0  0  0  0  0  0
   63.4210   33.4970   48.2280 C   0  0  0  0  0  0  0  0  0  0  0  0
   63.1720   33.5010   46.8540 C   0  0  0  0  0  0  0  0  0  0  0  0
   61.8910   33.7920   46.3730 C   0  0  0  0  0  0  0  0  0  0  0  0
   58.3030   32.2480   46.1860 C   0  0  0  0  0  0  0  0  0  0  0  0
   55.8860   28.0060   45.2470 N   0  0  0  0  0  0  0  0  0  0  0  0
   56.8930   27.0950   45.7110 C   0  0  0  0  0  0  0  0  0  0  0  0
   56.9460   25.7590   45.2710 C   0  0  0  0  0  0  0  0  0  0  0  0
   57.9340   24.9000   45.7580 C   0  0  0  0  0  0  0  0  0  0  0  0
   58.8580   25.3530   46.7000 C   0  0  0  0  0  0  0  0  0  0  0  0
   58.7870   26.6680   47.1840 C   0  0  0  0  0  0  0  0  0  0  0  0
   59.7660   27.1590   48.1750 C   0  0  0  0  0  0  0  0  0  0  0  0
   60.2520   26.3430   49.0050 O   0  0  0  0  0  0  0  0  0  0  0  0
   60.1810   28.5370   48.2080 N   0  0  0  0  0  0  0  0  0  0  0  0
   60.2180   29.3980   47.0360 C   0  0  0  0  0  0  0  0  0  0  0  0
   60.8010   30.7210   47.5150 C   0  0  0  0  0  0  0  0  0  0  0  0
   61.4700   30.4250   48.8540 C   0  0  0  0  0  0  0  0  0  0  0  0
   60.8550   29.1230   49.3540 C   0  0  0  0  0  0  0  0  0  0  0  0
   57.8070   27.5350   46.6770 C   0  0  0  0  0  0  0  0  0  0  0  0
   57.1099   31.0952   43.1950 H   0  0  0  0  0  0  0  0  0  0  0  0
   58.0114   33.2923   42.4445 H   0  0  0  0  0  0  0  0  0  0  0  0
   59.0977   34.8276   44.0803 H   0  0  0  0  0  0  0  0  0  0  0  0
   60.2931   34.2803   49.3615 H   0  0  0  0  0  0  0  0  0  0  0  0
   62.5838   33.7704   50.2074 H   0  0  0  0  0  0  0  0  0  0  0  0
   64.4302   33.2727   48.6037 H   0  0  0  0  0  0  0  0  0  0  0  0
   63.9849   33.2748   46.1483 H   0  0  0  0  0  0  0  0  0  0  0  0
   61.6991   33.7854   45.2899 H   0  0  0  0  0  0  0  0  0  0  0  0
   58.4093   31.9383   47.2361 H   0  0  0  0  0  0  0  0  0  0  0  0
   56.2084   25.3909   44.5427 H   0  0  0  0  0  0  0  0  0  0  0  0
   57.9837   23.8620   45.3973 H   0  0  0  0  0  0  0  0  0  0  0  0
   59.6452   24.6767   47.0646 H   0  0  0  0  0  0  0  0  0  0  0  0
   60.8566   28.9573   46.2563 H   0  0  0  0  0  0  0  0  0  0  0  0
   59.2179   29.5300   46.5974 H   0  0  0  0  0  0  0  0  0  0  0  0
   61.5408   31.0966   46.7928 H   0  0  0  0  0  0  0  0  0  0  0  0
   60.0227   31.4918   47.6149 H   0  0  0  0  0  0  0  0  0  0  0  0
   62.5557   30.3082   48.7210 H   0  0  0  0  0  0  0  0  0  0  0  0
   61.3149   31.2446   49.5711 H   0  0  0  0  0  0  0  0  0  0  0  0
   61.6393   28.4464   49.7242 H   0  0  0  0  0  0  0  0  0  0  0  0
   60.1583   29.2984   50.1870 H   0  0  0  0  0  0  0  0  0  0  0  0
   57.7560   28.5714   47.0421 H   0  0  0  0  0  0  0  0  0  0  0  0
  1  2  2  0
  2  3  1  0
  3  4  1  0
  4  5  2  0
  5  6  1  0
  6  7  2  0
  7  8  1  0
  8  9  1  0
  9 10  2  0
  9 11  1  0
 11 12  2  0
 12 13  1  0
 13 14  2  0
 14 15  1  0
 15 16  2  0
  8 17  2  0
  2 18  1  0
 18 19  1  0
 19 20  2  0
 20 21  1  0
 21 22  2  0
 22 23  1  0
 23 24  1  0
 24 25  2  0
 24 26  1  0
 26 27  1  0
 27 28  1  0
 28 29  1  0
 29 30  1  0
 23 31  2  0
 17  4  1  0
 31 19  1  0
 16 11  1  0
 30 26  1  0
  5 32  1  0
  6 33  1  0
  7 34  1  0
 12 35  1  0
 13 36  1  0
 14 37  1  0
 15 38  1  0
 16 39  1  0
 17 40  1  0
 20 41  1  0
 21 42  1  0
 22 43  1  0
 27 44  1  0
 27 45  1  0
 28 46  1  0
 28 47  1  0
 29 48  1  0
 29 49  1  0
 30 50  1  0
 30 51  1  0
 31 52  1  0
M  CHG  2   3  -1  18  -1
M  END
>  <UniqueID>  (51) 
43

>  <SMILES>  (51) 
O=C([N-]c1cccc(C(=O)c2ccccc2)c1)[N-]c1cccc(C(=O)N2CCCC2)c1

>  <Energy>  (51) 
73.44877556728859

>  <Genealogy>  (51) 
O=C([N-]c1cccc(C(=O)c2ccccc2)c1)[N-]c1cccc(C(=O)N2CCCC2)c1 (protonated)
O=C([N-]c1cccc(C(=O)c2ccccc2)c1)[N-]c1cccc(C(=O)N2CCCC2)c1 (3D coordinates assigned)
O=C([N-]c1cccc(C(=O)c2ccccc2)c1)[N-]c1cccc(C(=O)N2CCCC2)c1 (nonaromatic ring conformer: 73.44877556728859 kcal/mol)

>  <smiles>  (51) 
O=C(Nc1cccc(C(=O)c2ccccc2)c1)Nc1cccc(C(=O)N2CCCC2)c1

>  <score_type>  (51) 
oracle

>  <origin>  (51) 
adg

>  <m_score__min__energy>  (51) 
-13.9

>  <m_primary>  (51) 
energy

$$$$
51:0
     RDKit          3D

 51 54  0  0  0  0  0  0  0  0999 V2000
   57.3970   23.1420   46.3530 C   0  0  0  0  0  0  0  0  0  0  0  0
   57.6910   24.5980   46.1130 C   0  0  0  0  0  0  0  0  0  0  0  0
   59.0310   25.0600   46.2100 C   0  0  0  0  0  0  0  0  0  0  0  0
   59.3450   26.4110   45.9930 C   0  0  0  0  0  0  0  0  0  0  0  0
   58.3050   27.2750   45.6770 C   0  0  0  0  0  0  0  0  0  0  0  0
   58.3830   28.5930   45.4390 N   0  0  0  0  0  0  0  0  0  0  0  0
   57.0890   28.9230   45.1880 C   0  0  0  0  0  0  0  0  0  0  0  0
   56.6630   30.2910   44.8800 C   0  0  0  0  0  0  0  0  0  0  0  0
   55.5170   30.5000   44.3970 O   0  0  0  0  0  0  0  0  0  0  0  0
   57.5560   31.3800   45.1240 N   0  0  0  0  0  0  0  0  0  0  0  0
   57.2800   32.7630   44.7390 C   0  0  0  0  0  0  0  0  0  0  0  0
   56.8730   33.5630   45.9820 C   0  0  0  0  0  0  0  0  0  0  0  0
   58.0430   33.6860   46.9810 C   0  0  0  0  0  0  0  0  0  0  0  0
   59.3680   33.9280   46.3470 N   0  0  0  0  0  0  0  0  0  0  0  0
   60.3000   32.7920   46.5260 C   0  0  0  0  0  0  0  0  0  0  0  0
   61.4350   33.1610   47.4470 C   0  0  0  0  0  0  0  0  0  0  0  0
   62.7470   32.7650   47.1410 C   0  0  0  0  0  0  0  0  0  0  0  0
   63.8000   33.0900   48.0010 C   0  0  0  0  0  0  0  0  0  0  0  0
   63.5500   33.8130   49.1720 C   0  0  0  0  0  0  0  0  0  0  0  0
   62.2460   34.2090   49.4850 C   0  0  0  0  0  0  0  0  0  0  0  0
   61.1900   33.8850   48.6270 C   0  0  0  0  0  0  0  0  0  0  0  0
   59.2720   34.3880   44.9430 C   0  0  0  0  0  0  0  0  0  0  0  0
   58.5090   33.3970   44.0440 C   0  0  0  0  0  0  0  0  0  0  0  0
   56.2180   27.8830   45.2600 N   0  0  0  0  0  0  0  0  0  0  0  0
   57.0160   26.8490   45.5710 C   0  0  0  0  0  0  0  0  0  0  0  0
   56.6520   25.5110   45.7740 C   0  0  0  0  0  0  0  0  0  0  0  0
   55.2150   25.0750   45.6630 C   0  0  0  0  0  0  0  0  0  0  0  0
   57.3581   22.9493   47.4353 H   0  0  0  0  0  0  0  0  0  0  0  0
   56.4286   22.8839   45.8996 H   0  0  0  0  0  0  0  0  0  0  0  0
   58.1894   22.5283   45.8996 H   0  0  0  0  0  0  0  0  0  0  0  0
   59.8332   24.3496   46.4585 H   0  0  0  0  0  0  0  0  0  0  0  0
   60.3808   26.7731   46.0707 H   0  0  0  0  0  0  0  0  0  0  0  0
   56.4507   32.7799   44.0165 H   0  0  0  0  0  0  0  0  0  0  0  0
   56.5596   34.5709   45.6721 H   0  0  0  0  0  0  0  0  0  0  0  0
   56.0474   33.0331   46.4796 H   0  0  0  0  0  0  0  0  0  0  0  0
   57.8285   34.5236   47.6610 H   0  0  0  0  0  0  0  0  0  0  0  0
   58.1151   32.7197   47.5017 H   0  0  0  0  0  0  0  0  0  0  0  0
   59.7509   31.9411   46.9555 H   0  0  0  0  0  0  0  0  0  0  0  0
   60.7191   32.5259   45.5444 H   0  0  0  0  0  0  0  0  0  0  0  0
   62.9470   32.1967   46.2207 H   0  0  0  0  0  0  0  0  0  0  0  0
   64.8258   32.7770   47.7567 H   0  0  0  0  0  0  0  0  0  0  0  0
   64.3796   34.0702   49.8470 H   0  0  0  0  0  0  0  0  0  0  0  0
   62.0504   34.7760   50.4071 H   0  0  0  0  0  0  0  0  0  0  0  0
   60.1651   34.1975   48.8761 H   0  0  0  0  0  0  0  0  0  0  0  0
   58.7482   35.3551   44.9245 H   0  0  0  0  0  0  0  0  0  0  0  0
   60.2960   34.4726   44.5502 H   0  0  0  0  0  0  0  0  0  0  0  0
   58.1653   33.9326   43.1468 H   0  0  0  0  0  0  0  0  0  0  0  0
   59.2024   32.5794   43.7977 H   0  0  0  0  0  0  0  0  0  0  0  0
   54.7919   24.9466   46.6702 H   0  0  0  0  0  0  0  0  0  0  0  0
   54.6409   25.8394   45.1188 H   0  0  0  0  0  0  0  0  0  0  0  0
   55.1624   24.1205   45.1188 H   0  0  0  0  0  0  0  0  0  0  0  0
  1  2  1  0
  2  3  2  0
  3  4  1  0
  4  5  2  0
  5  6  1  0
  6  7  1  0
  7  8  1  0
  8  9  2  0
  8 10  1  0
 10 11  1  0
 11 12  1  0
 12 13  1  0
 13 14  1  0
 14 15  1  0
 15 16  1  0
 16 17  2  0
 17 18  1  0
 18 19  2  0
 19 20  1  0
 20 21  2  0
 14 22  1  0
 22 23  1  0
  7 24  2  0
 24 25  1  0
 25 26  2  0
 26 27  1  0
 26  2  1  0
 25  5  1  0
 23 11  1  0
 21 16  1  0
  1 28  1  0
  1 29  1  0
  1 30  1  0
  3 31  1  0
  4 32  1  0
 11 33  1  0
 12 34  1  0
 12 35  1  0
 13 36  1  0
 13 37  1  0
 15 38  1  0
 15 39  1  0
 17 40  1  0
 18 41  1  0
 19 42  1  0
 20 43  1  0
 21 44  1  0
 22 45  1  0
 22 46  1  0
 23 47  1  0
 23 48  1  0
 27 49  1  0
 27 50  1  0
 27 51  1  0
M  CHG  2   6  -1  10  -1
M  END
>  <UniqueID>  (52) 
44

>  <SMILES>  (52) 
Cc1ccc2[n-]c(C(=O)[N-]C3CCN(Cc4ccccc4)CC3)nc2c1C

>  <Energy>  (52) 
95.0044392379099

>  <Genealogy>  (52) 
Cc1ccc2[n-]c(C(=O)[N-]C3CCN(Cc4ccccc4)CC3)nc2c1C (protonated)
Cc1ccc2[n-]c(C(=O)[N-]C3CCN(Cc4ccccc4)CC3)nc2c1C (3D coordinates assigned)
Cc1ccc2[n-]c(C(=O)[N-]C3CCN(Cc4ccccc4)CC3)nc2c1C (nonaromatic ring conformer: 95.0044392379099 kcal/mol)

>  <smiles>  (52) 
Cc1ccc2[nH]c(C(=O)NC3CCN(Cc4ccccc4)CC3)nc2c1C

>  <score_type>  (52) 
oracle

>  <origin>  (52) 
adg

>  <m_score__min__energy>  (52) 
-11.550000000000001

>  <m_primary>  (52) 
energy

$$$$
52:0
     RDKit          3D

 56 59  0  0  0  0  0  0  0  0999 V2000
   55.7910   28.7300   43.8050 H   0  0  0  0  0  0  0  0  0  0  0  0
   55.7320   28.7720   44.8150 O   0  0  0  0  0  0  0  0  0  0  0  0
   56.2090   27.7400   45.6190 C   0  0  0  0  0  0  0  0  0  0  0  0
   55.4880   26.6460   45.9140 N   0  0  0  0  0  0  0  0  0  0  0  0
   56.3510   25.9030   46.6370 C   0  0  0  0  0  0  0  0  0  0  0  0
   56.0480   24.7740   47.1040 O   0  0  0  0  0  0  0  0  0  0  0  0
   57.5670   26.4600   46.8150 N   0  0  0  0  0  0  0  0  0  0  0  0
   57.4660   27.6420   46.1850 C   0  0  0  0  0  0  0  0  0  0  0  0
   58.5810   28.5990   46.0800 C   0  0  0  0  0  0  0  0  0  0  0  0
   59.4065   28.3629   45.3924 H   0  0  0  0  0  0  0  0  0  0  0  0
   58.6440   29.7480   46.7810 C   0  0  0  0  0  0  0  0  0  0  0  0
   58.8380   29.8580   48.1470 C   0  0  0  0  0  0  0  0  0  0  0  0
   58.9560   29.0295   48.8609 H   0  0  0  0  0  0  0  0  0  0  0  0
   58.8550   31.2060   48.4420 C   0  0  0  0  0  0  0  0  0  0  0  0
   59.0950   31.7440   49.7970 C   0  0  0  0  0  0  0  0  0  0  0  0
   58.1670   32.3790   50.3670 O   0  0  0  0  0  0  0  0  0  0  0  0
   60.3710   31.5910   50.4590 N   0  0  0  0  0  0  0  0  0  0  0  0
   61.3810   30.6530   49.9510 C   0  0  0  0  0  0  0  0  0  0  0  0
   60.8762   29.7905   49.4915 H   0  0  0  0  0  0  0  0  0  0  0  0
   62.0033   31.1682   49.2044 H   0  0  0  0  0  0  0  0  0  0  0  0
   62.2770   30.1640   51.0930 C   0  0  0  0  0  0  0  0  0  0  0  0
   61.6885   29.5191   51.7621 H   0  0  0  0  0  0  0  0  0  0  0  0
   63.1201   29.6029   50.6637 H   0  0  0  0  0  0  0  0  0  0  0  0
   62.7890   31.2550   51.8330 O   0  0  0  0  0  0  0  0  0  0  0  0
   61.7260   31.9170   52.4880 C   0  0  0  0  0  0  0  0  0  0  0  0
   61.1616   31.1872   53.0870 H   0  0  0  0  0  0  0  0  0  0  0  0
   62.1454   32.7018   53.1347 H   0  0  0  0  0  0  0  0  0  0  0  0
   60.7830   32.5700   51.4740 C   0  0  0  0  0  0  0  0  0  0  0  0
   59.8921   32.9474   51.9973 H   0  0  0  0  0  0  0  0  0  0  0  0
   61.3082   33.4001   50.9790 H   0  0  0  0  0  0  0  0  0  0  0  0
   58.7020   31.9420   47.3120 N   0  0  0  0  0  0  0  0  0  0  0  0
   58.5530   33.4050   47.2380 C   0  0  0  0  0  0  0  0  0  0  0  0
   58.6208   33.7238   46.1874 H   0  0  0  0  0  0  0  0  0  0  0  0
   57.5748   33.6862   47.6552 H   0  0  0  0  0  0  0  0  0  0  0  0
   59.6380   34.0830   48.0340 C   0  0  0  0  0  0  0  0  0  0  0  0
   59.3020   34.8660   48.9630 O   0  0  0  0  0  0  0  0  0  0  0  0
   61.0380   33.8160   47.8030 N   0  0  0  0  0  0  0  0  0  0  0  0
   62.0000   34.0410   48.8930 C   0  0  0  0  0  0  0  0  0  0  0  0
   62.3768   35.0730   48.8379 H   0  0  0  0  0  0  0  0  0  0  0  0
   61.4956   33.8764   49.8566 H   0  0  0  0  0  0  0  0  0  0  0  0
   63.1740   33.0670   48.7710 C   0  0  0  0  0  0  0  0  0  0  0  0
   63.9133   33.3086   49.5488 H   0  0  0  0  0  0  0  0  0  0  0  0
   62.7737   32.0494   48.8903 H   0  0  0  0  0  0  0  0  0  0  0  0
   63.8670   33.1350   47.3940 C   0  0  0  0  0  0  0  0  0  0  0  0
   64.8072   33.6950   47.5057 H   0  0  0  0  0  0  0  0  0  0  0  0
   64.0324   32.0982   47.0658 H   0  0  0  0  0  0  0  0  0  0  0  0
   63.0200   33.8200   46.3090 C   0  0  0  0  0  0  0  0  0  0  0  0
   63.1563   34.9087   46.3872 H   0  0  0  0  0  0  0  0  0  0  0  0
   63.3551   33.4453   45.3306 H   0  0  0  0  0  0  0  0  0  0  0  0
   61.5290   33.4970   46.4530 C   0  0  0  0  0  0  0  0  0  0  0  0
   60.9624   34.0870   45.7175 H   0  0  0  0  0  0  0  0  0  0  0  0
   61.3901   32.4196   46.2799 H   0  0  0  0  0  0  0  0  0  0  0  0
   58.5740   31.0540   46.2880 C   0  0  0  0  0  0  0  0  0  0  0  0
   58.3990   31.4010   45.0020 C   0  0  0  0  0  0  0  0  0  0  0  0
   58.3581   32.4634   44.7196 H   0  0  0  0  0  0  0  0  0  0  0  0
   58.2966   30.6228   44.2314 H   0  0  0  0  0  0  0  0  0  0  0  0
  1  2  1  0
  2  3  1  0
  3  4  1  0
  4  5  1  0
  5  6  2  0
  5  7  1  0
  7  8  1  0
  8  9  1  0
  9 10  1  0
  9 11  2  0
 11 12  1  0
 12 13  1  0
 12 14  2  0
 14 15  1  0
 15 16  2  0
 15 17  1  0
 17 18  1  0
 18 19  1  0
 18 20  1  0
 18 21  1  0
 21 22  1  0
 21 23  1  0
 21 24  1  0
 24 25  1  0
 25 26  1  0
 25 27  1  0
 25 28  1  0
 28 29  1  0
 28 30  1  0
 14 31  1  0
 31 32  1  0
 32 33  1  0
 32 34  1  0
 32 35  1  0
 35 36  2  0
 35 37  1  0
 37 38  1  0
 38 39  1  0
 38 40  1  0
 38 41  1  0
 41 42  1  0
 41 43  1  0
 41 44  1  0
 44 45  1  0
 44 46  1  0
 44 47  1  0
 47 48  1  0
 47 49  1  0
 47 50  1  0
 50 51  1  0
 50 52  1  0
 31 53  1  0
 53 54  2  0
 54 55  1  0
 54 56  1  0
  8  3  2  0
 53 11  1  0
 28 17  1  0
 50 37  1  0
M  CHG  2   4  -1   7  -1
M  END
>  <UniqueID>  (53) 
45

>  <SMILES>  (53) 
C=c1/c(=C/c2[n-]c(=O)[n-]c2O)cc(C(=O)N2CCOCC2)n1CC(=O)N1CCCCC1

>  <Energy>  (53) 
128.0984298264183

>  <Genealogy>  (53) 
C=c1c(=Cc2[n-]c(=O)[n-]c2O)cc(C(=O)N2CCOCC2)n1CC(=O)N1CCCCC1 (protonated)
C=c1/c(=C/c2[n-]c(=O)[n-]c2O)cc(C(=O)N2CCOCC2)n1CC(=O)N1CCCCC1 (cis-trans isomerization)
C=c1/c(=C/c2[n-]c(=O)[n-]c2O)cc(C(=O)N2CCOCC2)n1CC(=O)N1CCCCC1 (3D coordinates assigned)
C=c1/c(=C/c2[n-]c(=O)[n-]c2O)cc(C(=O)N2CCOCC2)n1CC(=O)N1CCCCC1 (nonaromatic ring conformer: 128.0984298264183 kcal/mol)

>  <smiles>  (53) 
C=c1c(=Cc2[nH]c(=O)[nH]c2O)cc(C(=O)N2CCOCC2)n1CC(=O)N1CCCCC1

>  <score_type>  (53) 
oracle

>  <origin>  (53) 
adg

>  <m_score__min__energy>  (53) 
-13.15

>  <m_primary>  (53) 
energy

$$$$
53:0
     RDKit          3D

 62 65  0  0  0  0  0  0  0  0999 V2000
   62.1510   33.4340   52.3120 C   0  0  0  0  0  0  0  0  0  0  0  0
   62.7550   34.2190   51.2880 O   0  0  0  0  0  0  0  0  0  0  0  0
   62.6270   33.9680   49.9110 C   0  0  0  0  0  0  0  0  0  0  0  0
   61.3930   34.0990   49.2440 C   0  0  0  0  0  0  0  0  0  0  0  0
   61.2890   33.8380   47.8690 C   0  0  0  0  0  0  0  0  0  0  0  0
   60.0250   33.9820   47.1950 N   0  0  0  0  0  0  0  0  0  0  0  0
   58.8600   33.1980   47.6210 C   0  0  0  0  0  0  0  0  0  0  0  0
   57.9000   32.9730   46.4380 C   0  0  0  0  0  0  0  0  0  0  0  0
   58.6670   32.8360   45.1790 N   0  0  0  0  0  0  0  0  0  0  0  0
   57.7870   32.3710   44.0810 C   0  0  0  0  0  0  0  0  0  0  0  0
   57.3110   30.9550   44.3200 C   0  0  0  0  0  0  0  0  0  0  0  0
   56.0050   30.5510   44.1050 C   0  0  0  0  0  0  0  0  0  0  0  0
   55.8910   29.2840   44.6320 C   0  0  0  0  0  0  0  0  0  0  0  0
   57.1310   28.9580   45.1470 C   0  0  0  0  0  0  0  0  0  0  0  0
   57.3780   27.7610   46.0230 C   0  0  0  0  0  0  0  0  0  0  0  0
   57.2250   26.5310   45.2450 N   0  0  0  0  0  0  0  0  0  0  0  0
   57.8670   26.2850   43.9650 C   0  0  0  0  0  0  0  0  0  0  0  0
   57.3940   24.8890   43.5130 C   0  0  0  0  0  0  0  0  0  0  0  0
   56.2520   24.4710   44.4530 C   0  0  0  0  0  0  0  0  0  0  0  0
   56.2940   25.4980   45.5130 C   0  0  0  0  0  0  0  0  0  0  0  0
   55.5750   25.4630   46.5500 O   0  0  0  0  0  0  0  0  0  0  0  0
   58.0060   29.9700   44.9430 N   0  0  0  0  0  0  0  0  0  0  0  0
   59.3850   30.0280   45.4330 C   0  0  0  0  0  0  0  0  0  0  0  0
   59.3410   34.1150   44.8230 C   0  0  0  0  0  0  0  0  0  0  0  0
   59.8750   34.8830   46.0490 C   0  0  0  0  0  0  0  0  0  0  0  0
   62.4350   33.4640   47.1530 C   0  0  0  0  0  0  0  0  0  0  0  0
   63.6610   33.3280   47.8060 C   0  0  0  0  0  0  0  0  0  0  0  0
   63.7660   33.5770   49.1830 C   0  0  0  0  0  0  0  0  0  0  0  0
   65.0890   33.4180   49.8800 C   0  0  0  0  0  0  0  0  0  0  0  0
   62.4501   33.8228   53.2966 H   0  0  0  0  0  0  0  0  0  0  0  0
   61.0564   33.4843   52.2150 H   0  0  0  0  0  0  0  0  0  0  0  0
   62.4801   32.3889   52.2150 H   0  0  0  0  0  0  0  0  0  0  0  0
   60.5007   34.4094   49.8074 H   0  0  0  0  0  0  0  0  0  0  0  0
   59.1992   32.2236   48.0024 H   0  0  0  0  0  0  0  0  0  0  0  0
   58.3288   33.7500   48.4104 H   0  0  0  0  0  0  0  0  0  0  0  0
   57.3181   32.0557   46.6111 H   0  0  0  0  0  0  0  0  0  0  0  0
   57.2228   33.8359   46.3548 H   0  0  0  0  0  0  0  0  0  0  0  0
   59.4040   32.1040   45.3350 H   0  0  0  0  0  0  0  0  0  0  0  0
   56.9135   33.0364   44.0157 H   0  0  0  0  0  0  0  0  0  0  0  0
   58.3620   32.3903   43.1435 H   0  0  0  0  0  0  0  0  0  0  0  0
   55.2118   31.1298   43.6092 H   0  0  0  0  0  0  0  0  0  0  0  0
   54.9890   28.6544   44.6412 H   0  0  0  0  0  0  0  0  0  0  0  0
   58.3994   27.8109   46.4284 H   0  0  0  0  0  0  0  0  0  0  0  0
   56.6491   27.7600   46.8468 H   0  0  0  0  0  0  0  0  0  0  0  0
   57.5631   27.0472   43.2324 H   0  0  0  0  0  0  0  0  0  0  0  0
   58.9628   26.3313   44.0487 H   0  0  0  0  0  0  0  0  0  0  0  0
   57.0318   24.9313   42.4752 H   0  0  0  0  0  0  0  0  0  0  0  0
   58.2200   24.1638   43.5548 H   0  0  0  0  0  0  0  0  0  0  0  0
   55.2849   24.4844   43.9290 H   0  0  0  0  0  0  0  0  0  0  0  0
   56.3645   23.4474   44.8396 H   0  0  0  0  0  0  0  0  0  0  0  0
   59.3836   30.0279   46.5330 H   0  0  0  0  0  0  0  0  0  0  0  0
   59.9413   29.1525   45.0670 H   0  0  0  0  0  0  0  0  0  0  0  0
   59.8658   30.9472   45.0670 H   0  0  0  0  0  0  0  0  0  0  0  0
   60.1863   33.8906   44.1558 H   0  0  0  0  0  0  0  0  0  0  0  0
   58.5900   34.7559   44.3380 H   0  0  0  0  0  0  0  0  0  0  0  0
   60.8533   35.3216   45.8032 H   0  0  0  0  0  0  0  0  0  0  0  0
   59.1587   35.6755   46.3115 H   0  0  0  0  0  0  0  0  0  0  0  0
   62.3675   33.2768   46.0711 H   0  0  0  0  0  0  0  0  0  0  0  0
   64.5517   33.0233   47.2369 H   0  0  0  0  0  0  0  0  0  0  0  0
   64.9343   33.4366   50.9689 H   0  0  0  0  0  0  0  0  0  0  0  0
   65.5430   32.4588   49.5905 H   0  0  0  0  0  0  0  0  0  0  0  0
   65.7574   34.2423   49.5905 H   0  0  0  0  0  0  0  0  0  0  0  0
  1  2  1  0
  2  3  1  0
  3  4  2  0
  4  5  1  0
  5  6  1  0
  6  7  1  0
  7  8  1  0
  8  9  1  0
  9 10  1  0
 10 11  1  0
 11 12  2  0
 12 13  1  0
 13 14  2  0
 14 15  1  0
 15 16  1  0
 16 17  1  0
 17 18  1  0
 18 19  1  0
 19 20  1  0
 20 21  2  0
 14 22  1  0
 22 23  1  0
  9 24  1  0
 24 25  1  0
  5 26  2  0
 26 27  1  0
 27 28  2  0
 28 29  1  0
 28  3  1  0
 25  6  1  0
 22 11  1  0
 20 16  1  0
  1 30  1  0
  1 31  1  0
  1 32  1  0
  4 33  1  0
  7 34  1  0
  7 35  1  0
  8 36  1  0
  8 37  1  0
  9 38  1  0
 10 39  1  0
 10 40  1  0
 12 41  1  0
 13 42  1  0
 15 43  1  0
 15 44  1  0
 17 45  1  0
 17 46  1  0
 18 47  1  0
 18 48  1  0
 19 49  1  0
 19 50  1  0
 23 51  1  0
 23 52  1  0
 23 53  1  0
 24 54  1  0
 24 55  1  0
 25 56  1  0
 25 57  1  0
 26 58  1  0
 27 59  1  0
 29 60  1  0
 29 61  1  0
 29 62  1  0
M  CHG  1   9   1
M  END
>  <UniqueID>  (54) 
46

>  <SMILES>  (54) 
COc1cc(N2CC[NH+](Cc3ccc(CN4CCCC4=O)n3C)CC2)ccc1C

>  <Energy>  (54) 
102.07253667014494

>  <Genealogy>  (54) 
COc1cc(N2CC[NH+](Cc3ccc(CN4CCCC4=O)n3C)CC2)ccc1C (protonated)
COc1cc(N2CC[NH+](Cc3ccc(CN4CCCC4=O)n3C)CC2)ccc1C (3D coordinates assigned)
COc1cc(N2CC[NH+](Cc3ccc(CN4CCCC4=O)n3C)CC2)ccc1C (nonaromatic ring conformer: 102.07253667014494 kcal/mol)

>  <smiles>  (54) 
COc1cc(N2CCN(Cc3ccc(CN4CCCC4=O)n3C)CC2)ccc1C

>  <score_type>  (54) 
oracle

>  <origin>  (54) 
adg

>  <m_score__min__energy>  (54) 
-7.71

>  <m_primary>  (54) 
energy

$$$$
54:0
     RDKit          3D

 44 47  0  0  0  0  0  0  0  0999 V2000
   53.7930   23.3480   44.5150 O   0  0  0  0  0  0  0  0  0  0  0  0
   54.8680   23.8670   44.9230 C   0  0  0  0  0  0  0  0  0  0  0  0
   54.8220   25.0230   45.6250 N   0  0  0  0  0  0  0  0  0  0  0  0
   55.9470   25.6250   46.0880 C   0  0  0  0  0  0  0  0  0  0  0  0
   55.8330   26.6990   46.7380 O   0  0  0  0  0  0  0  0  0  0  0  0
   57.1820   25.0720   45.8510 N   0  0  0  0  0  0  0  0  0  0  0  0
   58.4040   25.7120   46.3830 C   0  0  0  0  0  0  0  0  0  0  0  0
   58.3590   27.2030   46.1620 C   0  0  0  0  0  0  0  0  0  0  0  0
   58.5460   28.0820   47.2380 C   0  0  0  0  0  0  0  0  0  0  0  0
   58.5350   29.4640   47.0330 C   0  0  0  0  0  0  0  0  0  0  0  0
   58.3300   29.9910   45.7470 C   0  0  0  0  0  0  0  0  0  0  0  0
   58.3330   31.4170   45.5300 N   0  0  0  0  0  0  0  0  0  0  0  0
   57.6160   31.9910   44.3850 C   0  0  0  0  0  0  0  0  0  0  0  0
   57.3940   33.4960   44.5840 C   0  0  0  0  0  0  0  0  0  0  0  0
   57.0670   33.7800   45.9880 N   0  0  0  0  0  0  0  0  0  0  0  0
   58.1840   33.4700   46.9070 C   0  0  0  0  0  0  0  0  0  0  0  0
   59.0820   32.3160   46.4160 C   0  0  0  0  0  0  0  0  0  0  0  0
   58.1510   29.1090   44.6680 C   0  0  0  0  0  0  0  0  0  0  0  0
   58.1640   27.7270   44.8740 C   0  0  0  0  0  0  0  0  0  0  0  0
   57.2710   23.8960   45.1440 C   0  0  0  0  0  0  0  0  0  0  0  0
   58.4850   23.3230   44.8980 N   0  0  0  0  0  0  0  0  0  0  0  0
   58.6120   22.1610   44.2060 C   0  0  0  0  0  0  0  0  0  0  0  0
   57.4800   21.5100   43.7160 C   0  0  0  0  0  0  0  0  0  0  0  0
   56.2200   22.0640   43.9440 C   0  0  0  0  0  0  0  0  0  0  0  0
   56.1040   23.2660   44.6610 C   0  0  0  0  0  0  0  0  0  0  0  0
   58.4792   25.5081   47.4613 H   0  0  0  0  0  0  0  0  0  0  0  0
   59.2784   25.3009   45.8572 H   0  0  0  0  0  0  0  0  0  0  0  0
   58.7024   27.6810   48.2503 H   0  0  0  0  0  0  0  0  0  0  0  0
   58.6879   30.1439   47.8841 H   0  0  0  0  0  0  0  0  0  0  0  0
   58.2073   31.8308   43.4714 H   0  0  0  0  0  0  0  0  0  0  0  0
   56.6369   31.4974   44.2970 H   0  0  0  0  0  0  0  0  0  0  0  0
   58.3104   34.0380   44.3077 H   0  0  0  0  0  0  0  0  0  0  0  0
   56.5580   33.8224   43.9479 H   0  0  0  0  0  0  0  0  0  0  0  0
   56.8230   34.7930   46.0800 H   0  0  0  0  0  0  0  0  0  0  0  0
   56.2240   33.2230   46.2640 H   0  0  0  0  0  0  0  0  0  0  0  0
   58.8046   34.3715   47.0173 H   0  0  0  0  0  0  0  0  0  0  0  0
   57.7392   33.1507   47.8610 H   0  0  0  0  0  0  0  0  0  0  0  0
   59.9385   32.7336   45.8664 H   0  0  0  0  0  0  0  0  0  0  0  0
   59.4307   31.7435   47.2881 H   0  0  0  0  0  0  0  0  0  0  0  0
   57.9997   29.5090   43.6545 H   0  0  0  0  0  0  0  0  0  0  0  0
   58.0207   27.0457   44.0223 H   0  0  0  0  0  0  0  0  0  0  0  0
   59.6100   21.7324   44.0317 H   0  0  0  0  0  0  0  0  0  0  0  0
   57.5797   20.5689   43.1552 H   0  0  0  0  0  0  0  0  0  0  0  0
   55.3193   21.5604   43.5630 H   0  0  0  0  0  0  0  0  0  0  0  0
  1  2  2  0
  2  3  1  0
  3  4  1  0
  4  5  2  0
  4  6  1  0
  6  7  1  0
  7  8  1  0
  8  9  2  0
  9 10  1  0
 10 11  2  0
 11 12  1  0
 12 13  1  0
 13 14  1  0
 14 15  1  0
 15 16  1  0
 16 17  1  0
 11 18  1  0
 18 19  2  0
  6 20  1  0
 20 21  2  0
 21 22  1  0
 22 23  2  0
 23 24  1  0
 24 25  2  0
 25  2  1  0
 19  8  1  0
 25 20  1  0
 17 12  1  0
  7 26  1  0
  7 27  1  0
  9 28  1  0
 10 29  1  0
 13 30  1  0
 13 31  1  0
 14 32  1  0
 14 33  1  0
 15 34  1  0
 15 35  1  0
 16 36  1  0
 16 37  1  0
 17 38  1  0
 17 39  1  0
 18 40  1  0
 19 41  1  0
 22 42  1  0
 23 43  1  0
 24 44  1  0
M  CHG  2   3  -1  15   1
M  END
>  <UniqueID>  (55) 
47

>  <SMILES>  (55) 
O=c1[n-]c(=O)n(Cc2ccc(N3CC[NH2+]CC3)cc2)c2ncccc12

>  <Energy>  (55) 
63.84155312442204

>  <Genealogy>  (55) 
O=c1[n-]c(=O)n(Cc2ccc(N3CC[NH2+]CC3)cc2)c2ncccc12 (protonated)
O=c1[n-]c(=O)n(Cc2ccc(N3CC[NH2+]CC3)cc2)c2ncccc12 (3D coordinates assigned)
O=c1[n-]c(=O)n(Cc2ccc(N3CC[NH2+]CC3)cc2)c2ncccc12 (nonaromatic ring conformer: 63.84155312442204 kcal/mol)

>  <smiles>  (55) 
O=c1[nH]c(=O)n(Cc2ccc(N3CCNCC3)cc2)c2ncccc12

>  <score_type>  (55) 
oracle

>  <origin>  (55) 
adg

>  <m_score__min__energy>  (55) 
-7.71

>  <m_primary>  (55) 
energy

$$$$
55:0
     RDKit          3D

 51 54  0  0  0  0  0  0  0  0999 V2000
   52.7320   30.1090   48.9820 H   0  0  0  0  0  0  0  0  0  0  0  0
   51.8070   30.3320   49.3250 O   0  0  0  0  0  0  0  0  0  0  0  0
   51.6120   31.0140   50.5240 C   0  0  0  0  0  0  0  0  0  0  0  0
   51.0150   32.2150   50.5950 N   0  0  0  0  0  0  0  0  0  0  0  0
   51.0440   32.4870   51.9150 C   0  0  0  0  0  0  0  0  0  0  0  0
   50.5730   33.5480   52.4010 O   0  0  0  0  0  0  0  0  0  0  0  0
   51.6240   31.5340   52.6760 N   0  0  0  0  0  0  0  0  0  0  0  0
   51.9750   30.5880   51.7860 C   0  0  0  0  0  0  0  0  0  0  0  0
   52.7210   29.3510   52.1100 C   0  0  0  0  0  0  0  0  0  0  0  0
   52.1995   28.3918   51.9758 H   0  0  0  0  0  0  0  0  0  0  0  0
   53.9940   29.3130   52.5580 C   0  0  0  0  0  0  0  0  0  0  0  0
   54.6410   28.2250   53.1290 C   0  0  0  0  0  0  0  0  0  0  0  0
   54.2082   27.2326   53.3236 H   0  0  0  0  0  0  0  0  0  0  0  0
   55.9300   28.6280   53.4050 C   0  0  0  0  0  0  0  0  0  0  0  0
   56.9890   27.7230   53.9630 C   0  0  0  0  0  0  0  0  0  0  0  0
   56.9546   27.7524   55.0621 H   0  0  0  0  0  0  0  0  0  0  0  0
   56.8108   26.6938   53.6180 H   0  0  0  0  0  0  0  0  0  0  0  0
   57.9778   28.0594   53.6180 H   0  0  0  0  0  0  0  0  0  0  0  0
   56.1230   29.9120   53.0240 N   0  0  0  0  0  0  0  0  0  0  0  0
   57.4020   30.6380   53.1100 C   0  0  0  0  0  0  0  0  0  0  0  0
   57.2125   31.6635   53.4598 H   0  0  0  0  0  0  0  0  0  0  0  0
   58.0618   30.1108   53.8148 H   0  0  0  0  0  0  0  0  0  0  0  0
   58.0750   30.6910   51.7620 C   0  0  0  0  0  0  0  0  0  0  0  0
   58.4050   29.5050   51.0860 C   0  0  0  0  0  0  0  0  0  0  0  0
   58.1792   28.5314   51.5455 H   0  0  0  0  0  0  0  0  0  0  0  0
   59.0190   29.5570   49.8320 C   0  0  0  0  0  0  0  0  0  0  0  0
   59.2816   28.6246   49.3107 H   0  0  0  0  0  0  0  0  0  0  0  0
   59.3000   30.7890   49.2390 C   0  0  0  0  0  0  0  0  0  0  0  0
   59.7878   30.8236   48.2537 H   0  0  0  0  0  0  0  0  0  0  0  0
   58.9630   31.9840   49.8940 C   0  0  0  0  0  0  0  0  0  0  0  0
   59.2650   33.2930   49.2800 C   0  0  0  0  0  0  0  0  0  0  0  0
   59.7450   34.2080   50.0020 O   0  0  0  0  0  0  0  0  0  0  0  0
   59.0060   33.5510   47.8870 N   0  0  0  0  0  0  0  0  0  0  0  0
   59.5080   34.7310   47.2060 C   0  0  0  0  0  0  0  0  0  0  0  0
   59.1656   35.6434   47.7162 H   0  0  0  0  0  0  0  0  0  0  0  0
   60.6076   34.7594   47.1989 H   0  0  0  0  0  0  0  0  0  0  0  0
   58.9380   34.6650   45.7970 C   0  0  0  0  0  0  0  0  0  0  0  0
   58.6001   35.6602   45.4724 H   0  0  0  0  0  0  0  0  0  0  0  0
   59.6903   34.3277   45.0688 H   0  0  0  0  0  0  0  0  0  0  0  0
   57.7570   33.7010   45.8770 C   0  0  0  0  0  0  0  0  0  0  0  0
   56.8154   34.2570   45.9964 H   0  0  0  0  0  0  0  0  0  0  0  0
   57.6620   33.0983   44.9617 H   0  0  0  0  0  0  0  0  0  0  0  0
   58.0180   32.8310   47.0980 C   0  0  0  0  0  0  0  0  0  0  0  0
   57.0922   32.6922   47.6757 H   0  0  0  0  0  0  0  0  0  0  0  0
   58.3739   31.8292   46.8156 H   0  0  0  0  0  0  0  0  0  0  0  0
   58.3680   31.9270   51.1650 C   0  0  0  0  0  0  0  0  0  0  0  0
   58.1295   32.8596   51.6974 H   0  0  0  0  0  0  0  0  0  0  0  0
   54.9440   30.3420   52.4970 C   0  0  0  0  0  0  0  0  0  0  0  0
   54.7370   31.5730   51.9980 C   0  0  0  0  0  0  0  0  0  0  0  0
   55.5531   32.3105   51.9972 H   0  0  0  0  0  0  0  0  0  0  0  0
   53.7515   31.8427   51.5905 H   0  0  0  0  0  0  0  0  0  0  0  0
  1  2  1  0
  2  3  1  0
  3  4  1  0
  4  5  1  0
  5  6  2  0
  5  7  1  0
  7  8  1  0
  8  9  1  0
  9 10  1  0
  9 11  2  0
 11 12  1  0
 12 13  1  0
 12 14  2  0
 14 15  1  0
 15 16  1  0
 15 17  1  0
 15 18  1  0
 14 19  1  0
 19 20  1  0
 20 21  1  0
 20 22  1  0
 20 23  1  0
 23 24  2  0
 24 25  1  0
 24 26  1  0
 26 27  1  0
 26 28  2  0
 28 29  1  0
 28 30  1  0
 30 31  1  0
 31 32  2  0
 31 33  1  0
 33 34  1  0
 34 35  1  0
 34 36  1  0
 34 37  1  0
 37 38  1  0
 37 39  1  0
 37 40  1  0
 40 41  1  0
 40 42  1  0
 40 43  1  0
 43 44  1  0
 43 45  1  0
 30 46  2  0
 46 47  1  0
 19 48  1  0
 48 49  2  0
 49 50  1  0
 49 51  1  0
  8  3  2  0
 48 11  1  0
 46 23  1  0
 43 33  1  0
M  CHG  2   4  -1   7  -1
M  END
>  <UniqueID>  (56) 
48

>  <SMILES>  (56) 
C=c1/c(=C/c2[n-]c(=O)[n-]c2O)cc(C)n1Cc1cccc(C(=O)N2CCCC2)c1

>  <Energy>  (56) 
119.149063476463

>  <Genealogy>  (56) 
C=c1c(=Cc2[n-]c(=O)[n-]c2O)cc(C)n1Cc1cccc(C(=O)N2CCCC2)c1 (protonated)
C=c1/c(=C/c2[n-]c(=O)[n-]c2O)cc(C)n1Cc1cccc(C(=O)N2CCCC2)c1 (cis-trans isomerization)
C=c1/c(=C/c2[n-]c(=O)[n-]c2O)cc(C)n1Cc1cccc(C(=O)N2CCCC2)c1 (3D coordinates assigned)
C=c1/c(=C/c2[n-]c(=O)[n-]c2O)cc(C)n1Cc1cccc(C(=O)N2CCCC2)c1 (nonaromatic ring conformer: 119.149063476463 kcal/mol)

>  <smiles>  (56) 
C=c1c(=Cc2[nH]c(=O)[nH]c2O)cc(C)n1Cc1cccc(C(=O)N2CCCC2)c1

>  <score_type>  (56) 
oracle

>  <origin>  (56) 
adg

>  <m_score__min__energy>  (56) 
-14.289999999999999

>  <m_primary>  (56) 
energy

$$$$
56:0
     RDKit          3D

 35 37  0  0  0  0  0  0  0  0999 V2000
   59.9960   27.7040   46.4120 C   0  0  0  0  0  0  0  0  0  0  0  0
   58.8870   28.3940   46.1160 C   0  0  0  0  0  0  0  0  0  0  0  0
   59.0610   29.6670   45.6680 N   0  0  0  0  0  0  0  0  0  0  0  0
   58.0470   30.4190   45.1660 C   0  0  0  0  0  0  0  0  0  0  0  0
   58.3310   31.8310   44.7300 C   0  0  0  0  0  0  0  0  0  0  0  0
   58.7430   32.6690   45.9140 C   0  0  0  0  0  0  0  0  0  0  0  0
   58.6460   32.1320   47.2100 C   0  0  0  0  0  0  0  0  0  0  0  0
   58.9900   32.9020   48.3230 C   0  0  0  0  0  0  0  0  0  0  0  0
   59.4280   34.2180   48.1560 C   0  0  0  0  0  0  0  0  0  0  0  0
   59.7700   34.9830   49.2650 O   0  0  0  0  0  0  0  0  0  0  0  0
   59.5200   34.7660   46.8730 C   0  0  0  0  0  0  0  0  0  0  0  0
   59.1770   34.0010   45.7530 C   0  0  0  0  0  0  0  0  0  0  0  0
   59.2730   34.5710   44.4880 O   0  0  0  0  0  0  0  0  0  0  0  0
   56.7690   29.8550   45.0910 C   0  0  0  0  0  0  0  0  0  0  0  0
   55.8020   30.4960   44.5990 O   0  0  0  0  0  0  0  0  0  0  0  0
   56.5680   28.6030   45.5690 N   0  0  0  0  0  0  0  0  0  0  0  0
   57.5600   27.8540   46.1280 C   0  0  0  0  0  0  0  0  0  0  0  0
   57.1800   26.6760   46.6740 C   0  0  0  0  0  0  0  0  0  0  0  0
   56.6750   25.4850   45.9570 C   0  0  0  0  0  0  0  0  0  0  0  0
   55.3150   25.3490   45.6210 C   0  0  0  0  0  0  0  0  0  0  0  0
   54.3930   26.3260   45.9790 O   0  0  0  0  0  0  0  0  0  0  0  0
   54.8940   24.2590   44.9300 N   0  0  0  0  0  0  0  0  0  0  0  0
   55.7680   23.2990   44.5350 C   0  0  0  0  0  0  0  0  0  0  0  0
   55.3540   22.2950   43.8980 O   0  0  0  0  0  0  0  0  0  0  0  0
   57.0900   23.4230   44.8190 N   0  0  0  0  0  0  0  0  0  0  0  0
   57.5610   24.4930   45.5090 C   0  0  0  0  0  0  0  0  0  0  0  0
   58.7960   24.5780   45.7500 O   0  0  0  0  0  0  0  0  0  0  0  0
   59.9188   26.6698   46.7788 H   0  0  0  0  0  0  0  0  0  0  0  0
   60.9840   28.1714   46.2883 H   0  0  0  0  0  0  0  0  0  0  0  0
   59.1433   31.8258   43.9883 H   0  0  0  0  0  0  0  0  0  0  0  0
   57.4202   32.2597   44.2866 H   0  0  0  0  0  0  0  0  0  0  0  0
   58.2967   31.0981   47.3480 H   0  0  0  0  0  0  0  0  0  0  0  0
   58.9160   32.4717   49.3326 H   0  0  0  0  0  0  0  0  0  0  0  0
   59.8635   35.8030   46.7437 H   0  0  0  0  0  0  0  0  0  0  0  0
   57.2546   26.5953   47.7685 H   0  0  0  0  0  0  0  0  0  0  0  0
  1  2  2  0
  2  3  1  0
  3  4  2  0
  4  5  1  0
  5  6  1  0
  6  7  2  0
  7  8  1  0
  8  9  2  0
  9 10  1  0
  9 11  1  0
 11 12  2  0
 12 13  1  0
  4 14  1  0
 14 15  2  0
 14 16  1  0
 16 17  1  0
 17 18  2  3
 18 19  1  0
 19 20  2  0
 20 21  1  0
 20 22  1  0
 22 23  1  0
 23 24  2  0
 23 25  1  0
 25 26  1  0
 26 27  2  0
 17  2  1  0
 26 19  1  0
 12  6  1  0
  1 28  1  0
  1 29  1  0
  5 30  1  0
  5 31  1  0
  7 32  1  0
  8 33  1  0
 11 34  1  0
 18 35  1  0
M  CHG  6  10  -1  13  -1  16  -1  21  -1  22  -1  25  -1
M  END
>  <UniqueID>  (57) 
49

>  <SMILES>  (57) 
C=c1nc(Cc2ccc([O-])cc2[O-])c(=O)[n-]c1=Cc1c([O-])[n-]c(=O)[n-]c1=O

>  <Energy>  (57) 
62.11139341958864

>  <Genealogy>  (57) 
C=c1nc(Cc2ccc([O-])cc2[O-])c(=O)[n-]c1=Cc1c([O-])[n-]c(=O)[n-]c1=O (protonated)
C=c1nc(Cc2ccc([O-])cc2[O-])c(=O)[n-]c1=Cc1c([O-])[n-]c(=O)[n-]c1=O (3D coordinates assigned)
C=c1nc(Cc2ccc([O-])cc2[O-])c(=O)[n-]c1=Cc1c([O-])[n-]c(=O)[n-]c1=O (optimized conformer: 62.11139341958864 kcal/mol)

>  <smiles>  (57) 
C=c1nc(Cc2ccc(O)cc2O)c(=O)[nH]c1=Cc1c(O)[nH]c(=O)[nH]c1=O

>  <score_type>  (57) 
oracle

>  <origin>  (57) 
adg

>  <m_score__min__energy>  (57) 
-17.899999999999999

>  <m_primary>  (57) 
energy

$$$$
57:0
     RDKit          3D

 57 60  0  0  0  0  0  0  0  0999 V2000
   59.8743   20.8223   45.2395 H   0  0  0  0  0  0  0  0  0  0  0  0
   59.5850   21.8560   44.9990 C   0  0  0  0  0  0  0  0  0  0  0  0
   60.3850   22.7930   45.2660 O   0  0  0  0  0  0  0  0  0  0  0  0
   58.2670   22.1060   44.3710 C   0  0  0  0  0  0  0  0  0  0  0  0
   57.8660   21.2470   43.3360 C   0  0  0  0  0  0  0  0  0  0  0  0
   58.5010   20.3950   43.0516 H   0  0  0  0  0  0  0  0  0  0  0  0
   56.6630   21.4730   42.6680 C   0  0  0  0  0  0  0  0  0  0  0  0
   56.3523   20.8013   41.8542 H   0  0  0  0  0  0  0  0  0  0  0  0
   55.8750   22.5200   43.0200 N   0  0  0  0  0  0  0  0  0  0  0  0
   56.2190   23.3670   44.0230 C   0  0  0  0  0  0  0  0  0  0  0  0
   55.5539   24.2040   44.2821 H   0  0  0  0  0  0  0  0  0  0  0  0
   57.4170   23.1840   44.7330 C   0  0  0  0  0  0  0  0  0  0  0  0
   57.7020   24.0800   45.8760 C   0  0  0  0  0  0  0  0  0  0  0  0
   57.4300   23.6770   47.0400 O   0  0  0  0  0  0  0  0  0  0  0  0
   58.2620   25.4430   45.6840 C   0  0  0  0  0  0  0  0  0  0  0  0
   59.5250   25.7880   46.1960 C   0  0  0  0  0  0  0  0  0  0  0  0
   60.1193   25.0449   46.7478 H   0  0  0  0  0  0  0  0  0  0  0  0
   60.0210   27.0770   46.0010 C   0  0  0  0  0  0  0  0  0  0  0  0
   61.0118   27.3490   46.3937 H   0  0  0  0  0  0  0  0  0  0  0  0
   59.2840   27.9960   45.3280 N   0  0  0  0  0  0  0  0  0  0  0  0
   58.0480   27.7080   44.8330 C   0  0  0  0  0  0  0  0  0  0  0  0
   57.3580   28.6000   44.1800 N   0  0  0  0  0  0  0  0  0  0  0  0
   56.7810   29.7940   44.7340 C   0  0  0  0  0  0  0  0  0  0  0  0
   55.5270   29.8650   44.8340 O   0  0  0  0  0  0  0  0  0  0  0  0
   57.6110   30.9120   45.2390 C   0  0  0  0  0  0  0  0  0  0  0  0
   57.4200   32.2130   44.7450 C   0  0  0  0  0  0  0  0  0  0  0  0
   56.6432   32.4021   43.9894 H   0  0  0  0  0  0  0  0  0  0  0  0
   58.2100   33.2680   45.2070 C   0  0  0  0  0  0  0  0  0  0  0  0
   58.0608   34.2804   44.8035 H   0  0  0  0  0  0  0  0  0  0  0  0
   59.1930   33.0440   46.1830 C   0  0  0  0  0  0  0  0  0  0  0  0
   60.0700   34.1780   46.6410 C   0  0  0  0  0  0  0  0  0  0  0  0
   59.4914   34.8390   47.3030 H   0  0  0  0  0  0  0  0  0  0  0  0
   60.4195   34.7367   45.7603 H   0  0  0  0  0  0  0  0  0  0  0  0
   61.2420   33.6590   47.3750 N   0  0  0  0  0  0  0  0  0  0  0  0
   62.4730   33.8490   46.5780 C   0  0  0  0  0  0  0  0  0  0  0  0
   62.5192   34.8938   46.2371 H   0  0  0  0  0  0  0  0  0  0  0  0
   62.4387   33.1568   45.7238 H   0  0  0  0  0  0  0  0  0  0  0  0
   63.7400   33.5350   47.4010 C   0  0  0  0  0  0  0  0  0  0  0  0
   64.2470   34.4766   47.6586 H   0  0  0  0  0  0  0  0  0  0  0  0
   64.4059   32.8980   46.8003 H   0  0  0  0  0  0  0  0  0  0  0  0
   63.3860   32.8200   48.6400 N   0  0  0  0  0  0  0  0  0  0  0  0
   64.5990   32.4210   49.3670 C   0  0  0  0  0  0  0  0  0  0  0  0
   64.4143   32.4818   50.4497 H   0  0  0  0  0  0  0  0  0  0  0  0
   64.8648   31.3881   49.0978 H   0  0  0  0  0  0  0  0  0  0  0  0
   65.4260   33.0944   49.0978 H   0  0  0  0  0  0  0  0  0  0  0  0
   62.5300   33.6680   49.4950 C   0  0  0  0  0  0  0  0  0  0  0  0
   63.1462   34.4636   49.9392 H   0  0  0  0  0  0  0  0  0  0  0  0
   62.0863   33.0319   50.2751 H   0  0  0  0  0  0  0  0  0  0  0  0
   61.3830   34.3140   48.6900 C   0  0  0  0  0  0  0  0  0  0  0  0
   61.6018   35.3817   48.5411 H   0  0  0  0  0  0  0  0  0  0  0  0
   60.4438   34.1940   49.2499 H   0  0  0  0  0  0  0  0  0  0  0  0
   59.3720   31.7490   46.6930 C   0  0  0  0  0  0  0  0  0  0  0  0
   60.1374   31.5643   47.4612 H   0  0  0  0  0  0  0  0  0  0  0  0
   58.5830   30.6930   46.2300 C   0  0  0  0  0  0  0  0  0  0  0  0
   58.7236   29.6836   46.6439 H   0  0  0  0  0  0  0  0  0  0  0  0
   57.5210   26.4210   44.9980 C   0  0  0  0  0  0  0  0  0  0  0  0
   56.5287   26.1758   44.5914 H   0  0  0  0  0  0  0  0  0  0  0  0
  1  2  1  0
  2  3  2  0
  2  4  1  0
  4  5  2  0
  5  6  1  0
  5  7  1  0
  7  8  1  0
  7  9  2  0
  9 10  1  0
 10 11  1  0
 10 12  2  0
 12 13  1  0
 13 14  2  0
 13 15  1  0
 15 16  1  0
 16 17  1  0
 16 18  2  0
 18 19  1  0
 18 20  1  0
 20 21  1  0
 21 22  2  0
 22 23  1  0
 23 24  2  0
 23 25  1  0
 25 26  2  0
 26 27  1  0
 26 28  1  0
 28 29  1  0
 28 30  2  0
 30 31  1  0
 31 32  1  0
 31 33  1  0
 31 34  1  0
 34 35  1  0
 35 36  1  0
 35 37  1  0
 35 38  1  0
 38 39  1  0
 38 40  1  0
 38 41  1  0
 41 42  1  0
 42 43  1  0
 42 44  1  0
 42 45  1  0
 41 46  1  0
 46 47  1  0
 46 48  1  0
 46 49  1  0
 49 50  1  0
 49 51  1  0
 30 52  1  0
 52 53  1  0
 52 54  2  0
 54 55  1  0
 21 56  1  0
 56 57  1  0
 12  4  1  0
 56 15  2  0
 54 25  1  0
 49 34  1  0
M  CHG  1  20  -1
M  END
>  <UniqueID>  (58) 
50

>  <SMILES>  (58) 
CN1CCN(Cc2ccc(C(=O)/N=c3/cc(C(=O)c4cnccc4C=O)cc[n-]3)cc2)CC1

>  <Energy>  (58) 
88.01951763530475

>  <Genealogy>  (58) 
CN1CCN(Cc2ccc(C(=O)N=c3cc(C(=O)c4cnccc4C=O)cc[n-]3)cc2)CC1 (protonated)
CN1CCN(Cc2ccc(C(=O)/N=c3/cc(C(=O)c4cnccc4C=O)cc[n-]3)cc2)CC1 (cis-trans isomerization)
CN1CCN(Cc2ccc(C(=O)/N=c3/cc(C(=O)c4cnccc4C=O)cc[n-]3)cc2)CC1 (3D coordinates assigned)
CN1CCN(Cc2ccc(C(=O)/N=c3/cc(C(=O)c4cnccc4C=O)cc[n-]3)cc2)CC1 (nonaromatic ring conformer: 88.01951763530475 kcal/mol)

>  <smiles>  (58) 
CN1CCN(Cc2ccc(C(=O)N=c3cc(C(=O)c4cnccc4C=O)cc[nH]3)cc2)CC1

>  <score_type>  (58) 
oracle

>  <origin>  (58) 
adg

>  <m_score__min__energy>  (58) 
-11.960000000000001

>  <m_primary>  (58) 
energy

$$$$
58:0
     RDKit          3D

 44 47  0  0  0  0  0  0  0  0999 V2000
   62.9310   32.8590   47.4560 C   0  0  0  0  0  0  0  0  0  0  0  0
   62.6810   33.2330   48.8890 C   0  0  0  0  0  0  0  0  0  0  0  0
   63.6760   33.8600   49.5760 N   0  0  0  0  0  0  0  0  0  0  0  0
   63.5210   34.2260   50.8770 C   0  0  0  0  0  0  0  0  0  0  0  0
   64.4650   34.8000   51.4840 O   0  0  0  0  0  0  0  0  0  0  0  0
   62.3510   33.9740   51.5210 N   0  0  0  0  0  0  0  0  0  0  0  0
   61.3170   33.3570   50.8850 C   0  0  0  0  0  0  0  0  0  0  0  0
   60.2360   33.1610   51.5090 O   0  0  0  0  0  0  0  0  0  0  0  0
   61.4500   32.9660   49.5370 C   0  0  0  0  0  0  0  0  0  0  0  0
   60.3530   32.3220   48.8550 N   0  0  0  0  0  0  0  0  0  0  0  0
   59.0500   32.9950   48.7870 C   0  0  0  0  0  0  0  0  0  0  0  0
   58.8270   33.5730   47.4200 C   0  0  0  0  0  0  0  0  0  0  0  0
   59.8530   34.1570   46.6580 C   0  0  0  0  0  0  0  0  0  0  0  0
   59.4460   34.5470   45.3870 C   0  0  0  0  0  0  0  0  0  0  0  0
   57.8140   34.1590   45.2200 S   0  0  0  0  0  0  0  0  0  0  0  0
   57.6060   33.4960   46.7520 C   0  0  0  0  0  0  0  0  0  0  0  0
   60.4640   30.9550   48.4290 C   0  0  0  0  0  0  0  0  0  0  0  0
   61.3560   30.2170   48.9240 O   0  0  0  0  0  0  0  0  0  0  0  0
   59.4320   30.3350   47.5340 C   0  0  2  0  0  0  0  0  0  0  0  0
   59.8640   28.9890   46.9360 C   0  0  0  0  0  0  0  0  0  0  0  0
   59.7670   30.2290   46.0430 C   0  0  1  0  0  0  0  0  0  0  0  0
   58.5690   30.3870   45.1200 C   0  0  0  0  0  0  0  0  0  0  0  0
   58.5700   31.1970   43.9650 C   0  0  0  0  0  0  0  0  0  0  0  0
   57.4340   31.2690   43.1510 C   0  0  0  0  0  0  0  0  0  0  0  0
   56.2900   30.5310   43.4670 C   0  0  0  0  0  0  0  0  0  0  0  0
   56.2820   29.7160   44.5970 C   0  0  0  0  0  0  0  0  0  0  0  0
   55.1470   28.9760   44.9100 O   0  0  0  0  0  0  0  0  0  0  0  0
   57.4140   29.6460   45.4180 C   0  0  0  0  0  0  0  0  0  0  0  0
   63.5419   31.9451   47.4168 H   0  0  0  0  0  0  0  0  0  0  0  0
   61.9704   32.6799   46.9509 H   0  0  0  0  0  0  0  0  0  0  0  0
   63.4638   33.6781   46.9509 H   0  0  0  0  0  0  0  0  0  0  0  0
   58.2549   32.2672   49.0063 H   0  0  0  0  0  0  0  0  0  0  0  0
   59.0321   33.8105   49.5250 H   0  0  0  0  0  0  0  0  0  0  0  0
   60.8789   34.2925   47.0309 H   0  0  0  0  0  0  0  0  0  0  0  0
   60.0781   35.0250   44.6241 H   0  0  0  0  0  0  0  0  0  0  0  0
   56.6725   33.0763   47.1550 H   0  0  0  0  0  0  0  0  0  0  0  0
   58.5670   30.7229   48.0919 H   0  0  0  0  0  0  0  0  0  0  0  0
   60.8485   28.5666   47.1858 H   0  0  0  0  0  0  0  0  0  0  0  0
   59.4362   27.9759   46.9099 H   0  0  0  0  0  0  0  0  0  0  0  0
   60.4670   30.7016   45.3383 H   0  0  0  0  0  0  0  0  0  0  0  0
   59.4684   31.7750   43.7029 H   0  0  0  0  0  0  0  0  0  0  0  0
   57.4415   31.9102   42.2572 H   0  0  0  0  0  0  0  0  0  0  0  0
   55.3986   30.5934   42.8255 H   0  0  0  0  0  0  0  0  0  0  0  0
   57.3984   29.0013   46.3092 H   0  0  0  0  0  0  0  0  0  0  0  0
  1  2  1  0
  2  3  1  0
  3  4  1  0
  4  5  2  0
  4  6  1  0
  6  7  1  0
  7  8  2  0
  7  9  1  0
  9 10  1  0
 10 11  1  0
 11 12  1  0
 12 13  1  0
 13 14  2  0
 14 15  1  0
 15 16  1  0
 10 17  1  0
 17 18  2  0
 17 19  1  0
 19 20  1  0
 20 21  1  0
 21 22  1  0
 22 23  2  0
 23 24  1  0
 24 25  2  0
 25 26  1  0
 26 27  1  0
 26 28  2  0
  9  2  2  0
 16 12  2  0
 21 19  1  0
 28 22  1  0
  1 29  1  0
  1 30  1  0
  1 31  1  0
 11 32  1  0
 11 33  1  0
 13 34  1  0
 14 35  1  0
 16 36  1  0
 19 37  1  6
 20 38  1  0
 20 39  1  0
 21 40  1  6
 23 41  1  0
 24 42  1  0
 25 43  1  0
 28 44  1  0
M  CHG  3   3  -1   6  -1  27  -1
M  END
>  <UniqueID>  (59) 
51

>  <SMILES>  (59) 
Cc1[n-]c(=O)[n-]c(=O)c1N(Cc1ccsc1)C(=O)[C@@H]1C[C@H]1c1cccc([O-])c1

>  <Energy>  (59) 
352.34939857568605

>  <Genealogy>  (59) 
Cc1[n-]c(=O)[n-]c(=O)c1N(Cc1ccsc1)C(=O)C1CC1c1cccc([O-])c1 (protonated)
Cc1[n-]c(=O)[n-]c(=O)c1N(Cc1ccsc1)C(=O)[C@@H]1C[C@H]1c1cccc([O-])c1 (chirality)
Cc1[n-]c(=O)[n-]c(=O)c1N(Cc1ccsc1)C(=O)[C@@H]1C[C@H]1c1cccc([O-])c1 (3D coordinates assigned)
Cc1[n-]c(=O)[n-]c(=O)c1N(Cc1ccsc1)C(=O)[C@@H]1C[C@H]1c1cccc([O-])c1 (nonaromatic ring conformer: 352.34939857568605 kcal/mol)

>  <smiles>  (59) 
Cc1[nH]c(=O)[nH]c(=O)c1N(Cc1ccsc1)C(=O)C1CC1c1cccc(O)c1

>  <score_type>  (59) 
oracle

>  <origin>  (59) 
adg

>  <m_score__min__energy>  (59) 
-13.73

>  <m_primary>  (59) 
energy

$$$$
59:0
     RDKit          3D

 72 75  0  0  0  0  0  0  0  0999 V2000
   61.2199   29.8210   52.9613 H   0  0  0  0  0  0  0  0  0  0  0  0
   61.7600   30.1520   52.0620 C   0  0  0  0  0  0  0  0  0  0  0  0
   63.1940   30.2960   52.1260 N   0  0  0  0  0  0  0  0  0  0  0  0
   63.8490   30.0290   53.4070 C   0  0  0  0  0  0  0  0  0  0  0  0
   63.1724   30.3048   54.2293 H   0  0  0  0  0  0  0  0  0  0  0  0
   64.0945   28.9590   53.4773 H   0  0  0  0  0  0  0  0  0  0  0  0
   64.7725   30.6224   53.4773 H   0  0  0  0  0  0  0  0  0  0  0  0
   63.9870   30.6980   50.9590 C   0  0  0  0  0  0  0  0  0  0  0  0
   64.9210   31.1715   51.2958 H   0  0  0  0  0  0  0  0  0  0  0  0
   64.2234   29.8109   50.3531 H   0  0  0  0  0  0  0  0  0  0  0  0
   63.4112   31.4131   50.3531 H   0  0  0  0  0  0  0  0  0  0  0  0
   61.0810   30.4000   50.9770 N   0  0  0  0  0  0  0  0  0  0  0  0
   60.6500   31.3380   50.8370 H   0  0  0  0  0  0  0  0  0  0  0  0
   60.8530   29.4020   49.9630 C   0  0  0  0  0  0  0  0  0  0  0  0
   61.1470   28.1940   50.1870 O   0  0  0  0  0  0  0  0  0  0  0  0
   60.2430   29.7660   48.6620 C   0  0  0  0  0  0  0  0  0  0  0  0
   60.7710   29.2470   47.4660 C   0  0  0  0  0  0  0  0  0  0  0  0
   61.6488   28.5849   47.4990 H   0  0  0  0  0  0  0  0  0  0  0  0
   60.1890   29.5660   46.2360 C   0  0  0  0  0  0  0  0  0  0  0  0
   60.6027   29.1445   45.3080 H   0  0  0  0  0  0  0  0  0  0  0  0
   59.0790   30.4220   46.1810 C   0  0  0  0  0  0  0  0  0  0  0  0
   58.4100   30.7130   44.8940 C   0  0  0  0  0  0  0  0  0  0  0  0
   58.1030   29.7840   44.0310 N   0  0  0  0  0  0  0  0  0  0  0  0
   57.7850   28.4090   44.3050 C   0  0  0  0  0  0  0  0  0  0  0  0
   58.0820   27.4430   43.3370 C   0  0  0  0  0  0  0  0  0  0  0  0
   58.5310   27.7473   42.3800 H   0  0  0  0  0  0  0  0  0  0  0  0
   57.8110   26.0930   43.5800 C   0  0  0  0  0  0  0  0  0  0  0  0
   58.0246   25.3437   42.8035 H   0  0  0  0  0  0  0  0  0  0  0  0
   57.2680   25.6890   44.8090 C   0  0  0  0  0  0  0  0  0  0  0  0
   56.9370   24.2470   45.0500 C   0  0  0  0  0  0  0  0  0  0  0  0
   56.8933   24.0568   46.1325 H   0  0  0  0  0  0  0  0  0  0  0  0
   55.9620   24.0140   44.5972 H   0  0  0  0  0  0  0  0  0  0  0  0
   57.7128   23.6121   44.5972 H   0  0  0  0  0  0  0  0  0  0  0  0
   56.9850   26.6540   45.7860 C   0  0  0  0  0  0  0  0  0  0  0  0
   56.5446   26.3480   46.7464 H   0  0  0  0  0  0  0  0  0  0  0  0
   57.2600   28.0030   45.5450 C   0  0  0  0  0  0  0  0  0  0  0  0
   57.0650   28.7502   46.3284 H   0  0  0  0  0  0  0  0  0  0  0  0
   57.9970   32.0580   44.6350 N   0  0  0  0  0  0  0  0  0  0  0  0
   58.7850   32.9180   43.7550 C   0  0  0  0  0  0  0  0  0  0  0  0
   59.7104   32.3966   43.4692 H   0  0  0  0  0  0  0  0  0  0  0  0
   58.1957   33.1517   42.8560 H   0  0  0  0  0  0  0  0  0  0  0  0
   59.1420   34.2310   44.4820 C   0  0  0  0  0  0  0  0  0  0  0  0
   60.0763   34.0720   45.0404 H   0  0  0  0  0  0  0  0  0  0  0  0
   59.2328   35.0050   43.7056 H   0  0  0  0  0  0  0  0  0  0  0  0
   58.1020   34.7080   45.4390 N   0  0  0  0  0  0  0  0  0  0  0  0
   58.5000   34.5460   46.8590 C   0  0  0  0  0  0  0  0  0  0  0  0
   57.7372   35.0123   47.4998 H   0  0  0  0  0  0  0  0  0  0  0  0
   58.5862   33.4706   47.0736 H   0  0  0  0  0  0  0  0  0  0  0  0
   59.8610   35.2060   47.1400 C   0  0  0  0  0  0  0  0  0  0  0  0
   60.2126   35.6960   46.2201 H   0  0  0  0  0  0  0  0  0  0  0  0
   59.7200   35.9315   47.9547 H   0  0  0  0  0  0  0  0  0  0  0  0
   60.9010   34.2110   47.5860 C   0  0  0  0  0  0  0  0  0  0  0  0
   60.9940   33.8450   48.9410 C   0  0  0  0  0  0  0  0  0  0  0  0
   60.3351   34.3190   49.6834 H   0  0  0  0  0  0  0  0  0  0  0  0
   61.9210   32.8810   49.3470 C   0  0  0  0  0  0  0  0  0  0  0  0
   61.9846   32.5921   50.4065 H   0  0  0  0  0  0  0  0  0  0  0  0
   62.7680   32.2830   48.4080 C   0  0  0  0  0  0  0  0  0  0  0  0
   63.4983   31.5258   48.7294 H   0  0  0  0  0  0  0  0  0  0  0  0
   62.6860   32.6480   47.0610 C   0  0  0  0  0  0  0  0  0  0  0  0
   63.3556   32.1804   46.3242 H   0  0  0  0  0  0  0  0  0  0  0  0
   61.7550   33.6060   46.6480 C   0  0  0  0  0  0  0  0  0  0  0  0
   61.6908   33.8868   45.5864 H   0  0  0  0  0  0  0  0  0  0  0  0
   56.7700   34.1220   45.1750 C   0  0  0  0  0  0  0  0  0  0  0  0
   56.0508   34.5223   45.9047 H   0  0  0  0  0  0  0  0  0  0  0  0
   56.4700   34.3860   44.1501 H   0  0  0  0  0  0  0  0  0  0  0  0
   56.8040   32.5920   45.2930 C   0  0  0  0  0  0  0  0  0  0  0  0
   56.8193   32.3103   46.3562 H   0  0  0  0  0  0  0  0  0  0  0  0
   55.9101   32.1757   44.8056 H   0  0  0  0  0  0  0  0  0  0  0  0
   58.5640   30.9570   47.3690 C   0  0  0  0  0  0  0  0  0  0  0  0
   57.6972   31.6333   47.3326 H   0  0  0  0  0  0  0  0  0  0  0  0
   59.1430   30.6380   48.5990 C   0  0  0  0  0  0  0  0  0  0  0  0
   58.7356   31.0719   49.5241 H   0  0  0  0  0  0  0  0  0  0  0  0
  1  2  1  0
  2  3  1  0
  3  4  1  0
  4  5  1  0
  4  6  1  0
  4  7  1  0
  3  8  1  0
  8  9  1  0
  8 10  1  0
  8 11  1  0
  2 12  2  0
 12 13  1  0
 12 14  1  0
 14 15  2  0
 14 16  1  0
 16 17  2  0
 17 18  1  0
 17 19  1  0
 19 20  1  0
 19 21  2  0
 21 22  1  0
 22 23  2  3
 23 24  1  0
 24 25  2  0
 25 26  1  0
 25 27  1  0
 27 28  1  0
 27 29  2  0
 29 30  1  0
 30 31  1  0
 30 32  1  0
 30 33  1  0
 29 34  1  0
 34 35  1  0
 34 36  2  0
 36 37  1  0
 22 38  1  0
 38 39  1  0
 39 40  1  0
 39 41  1  0
 39 42  1  0
 42 43  1  0
 42 44  1  0
 42 45  1  0
 45 46  1  0
 46 47  1  0
 46 48  1  0
 46 49  1  0
 49 50  1  0
 49 51  1  0
 49 52  1  0
 52 53  2  0
 53 54  1  0
 53 55  1  0
 55 56  1  0
 55 57  2  0
 57 58  1  0
 57 59  1  0
 59 60  1  0
 59 61  2  0
 61 62  1  0
 45 63  1  0
 63 64  1  0
 63 65  1  0
 63 66  1  0
 66 67  1  0
 66 68  1  0
 21 69  1  0
 69 70  1  0
 69 71  2  0
 71 72  1  0
 71 16  1  0
 36 24  1  0
 66 38  1  0
 61 52  1  0
M  CHG  1  12   1
M  END
>  <UniqueID>  (60) 
52

>  <SMILES>  (60) 
Cc1ccc(N=C(c2ccc(C(=O)/[NH+]=C/N(C)C)cc2)N2CCN(CCc3ccccc3)CC2)cc1

>  <Energy>  (60) 
94.86109673866922

>  <Genealogy>  (60) 
Cc1ccc(N=C(c2ccc(C(=O)[NH+]=CN(C)C)cc2)N2CCN(CCc3ccccc3)CC2)cc1 (protonated)
Cc1ccc(N=C(c2ccc(C(=O)/[NH+]=C/N(C)C)cc2)N2CCN(CCc3ccccc3)CC2)cc1 (cis-trans isomerization)
Cc1ccc(N=C(c2ccc(C(=O)/[NH+]=C/N(C)C)cc2)N2CCN(CCc3ccccc3)CC2)cc1 (3D coordinates assigned)
Cc1ccc(N=C(c2ccc(C(=O)/[NH+]=C/N(C)C)cc2)N2CCN(CCc3ccccc3)CC2)cc1 (nonaromatic ring conformer: 94.86109673866922 kcal/mol)

>  <smiles>  (60) 
Cc1ccc(N=C(c2ccc(C(=O)N=CN(C)C)cc2)N2CCN(CCc3ccccc3)CC2)cc1

>  <score_type>  (60) 
oracle

>  <origin>  (60) 
adg

>  <m_score__min__energy>  (60) 
-7.9100000000000001

>  <m_primary>  (60) 
energy

$$$$
60:0
     RDKit          3D

 38 40  0  0  0  0  0  0  0  0999 V2000
   55.5150   28.9760   45.0290 N   0  0  0  0  0  0  0  0  0  0  0  0
   56.7260   29.7000   45.2390 C   0  0  0  0  0  0  0  0  0  0  0  0
   56.8290   30.8740   44.7940 O   0  0  0  0  0  0  0  0  0  0  0  0
   57.8340   29.1010   46.0170 C   0  0  0  0  0  0  0  0  0  0  0  0
   58.6450   29.9500   46.7940 C   0  0  0  0  0  0  0  0  0  0  0  0
   59.6330   29.4280   47.6460 C   0  0  0  0  0  0  0  0  0  0  0  0
   60.4890   30.3240   48.4610 C   0  0  0  0  0  0  0  0  0  0  0  0
   60.6340   30.0740   49.6890 O   0  0  0  0  0  0  0  0  0  0  0  0
   61.1800   31.5030   47.8860 C   0  0  0  0  0  0  0  0  0  0  0  0
   62.5860   31.5670   47.8350 C   0  0  0  0  0  0  0  0  0  0  0  0
   63.2230   32.6780   47.2750 C   0  0  0  0  0  0  0  0  0  0  0  0
   62.4680   33.7300   46.7530 C   0  0  0  0  0  0  0  0  0  0  0  0
   61.0720   33.6710   46.7830 C   0  0  0  0  0  0  0  0  0  0  0  0
   60.4300   32.5610   47.3420 C   0  0  0  0  0  0  0  0  0  0  0  0
   59.8230   28.0410   47.6990 C   0  0  0  0  0  0  0  0  0  0  0  0
   59.0430   27.1890   46.9160 C   0  0  0  0  0  0  0  0  0  0  0  0
   58.0720   27.7040   46.0510 C   0  0  0  0  0  0  0  0  0  0  0  0
   57.3800   26.7820   45.1970 N   0  0  0  0  0  0  0  0  0  0  0  0
   56.3400   25.8790   45.6010 C   0  0  0  0  0  0  0  0  0  0  0  0
   55.4370   26.3030   46.3700 O   0  0  0  0  0  0  0  0  0  0  0  0
   56.3000   24.4700   45.1560 C   0  0  0  0  0  0  0  0  0  0  0  0
   56.8960   23.9860   44.0060 C   0  0  0  0  0  0  0  0  0  0  0  0
   56.6040   22.6380   43.9560 C   0  0  0  0  0  0  0  0  0  0  0  0
   55.8340   22.3600   45.0680 C   0  0  0  0  0  0  0  0  0  0  0  0
   55.6470   23.4780   45.7930 N   0  0  0  0  0  0  0  0  0  0  0  0
   55.5200   27.9350   44.9430 H   0  0  0  0  0  0  0  0  0  0  0  0
   58.5030   31.0391   46.7331 H   0  0  0  0  0  0  0  0  0  0  0  0
   63.1862   30.7380   48.2381 H   0  0  0  0  0  0  0  0  0  0  0  0
   64.3217   32.7236   47.2455 H   0  0  0  0  0  0  0  0  0  0  0  0
   62.9721   34.6056   46.3180 H   0  0  0  0  0  0  0  0  0  0  0  0
   60.4778   34.4979   46.3668 H   0  0  0  0  0  0  0  0  0  0  0  0
   59.3310   32.5154   47.3562 H   0  0  0  0  0  0  0  0  0  0  0  0
   60.5928   27.6204   48.3628 H   0  0  0  0  0  0  0  0  0  0  0  0
   59.1934   26.1012   46.9797 H   0  0  0  0  0  0  0  0  0  0  0  0
   57.4854   24.5608   43.2764 H   0  0  0  0  0  0  0  0  0  0  0  0
   56.9224   21.9246   43.1817 H   0  0  0  0  0  0  0  0  0  0  0  0
   55.4319   21.3686   45.3240 H   0  0  0  0  0  0  0  0  0  0  0  0
   55.0720   23.5500   46.6600 H   0  0  0  0  0  0  0  0  0  0  0  0
  1  2  1  0
  2  3  2  0
  2  4  1  0
  4  5  2  0
  5  6  1  0
  6  7  1  0
  7  8  2  0
  7  9  1  0
  9 10  2  0
 10 11  1  0
 11 12  2  0
 12 13  1  0
 13 14  2  0
  6 15  2  0
 15 16  1  0
 16 17  2  0
 17 18  1  0
 18 19  1  0
 19 20  2  0
 19 21  1  0
 21 22  2  0
 22 23  1  0
 23 24  2  0
 24 25  1  0
 17  4  1  0
 25 21  1  0
 14  9  1  0
  1 26  1  0
  5 27  1  0
 10 28  1  0
 11 29  1  0
 12 30  1  0
 13 31  1  0
 14 32  1  0
 15 33  1  0
 16 34  1  0
 22 35  1  0
 23 36  1  0
 24 37  1  0
 25 38  1  0
M  CHG  2   1  -1  18  -1
M  END
>  <UniqueID>  (61) 
53

>  <SMILES>  (61) 
[NH-]C(=O)c1cc(C(=O)c2ccccc2)ccc1[N-]C(=O)c1ccc[nH]1

>  <Energy>  (61) 
83.00711416096293

>  <Genealogy>  (61) 
[NH-]C(=O)c1cc(C(=O)c2ccccc2)ccc1[N-]C(=O)c1ccc[nH]1 (protonated)
[NH-]C(=O)c1cc(C(=O)c2ccccc2)ccc1[N-]C(=O)c1ccc[nH]1 (3D coordinates assigned)
[NH-]C(=O)c1cc(C(=O)c2ccccc2)ccc1[N-]C(=O)c1ccc[nH]1 (optimized conformer: 83.00711416096293 kcal/mol)

>  <smiles>  (61) 
NC(=O)c1cc(C(=O)c2ccccc2)ccc1NC(=O)c1ccc[nH]1

>  <score_type>  (61) 
oracle

>  <origin>  (61) 
adg

>  <m_score__min__energy>  (61) 
-13.109999999999999

>  <m_primary>  (61) 
energy

$$$$
61:0
     RDKit          3D

 41 44  0  0  0  0  0  0  0  0999 V2000
   54.8540   29.3650   45.7780 H   0  0  0  0  0  0  0  0  0  0  0  0
   55.1300   29.3500   44.7710 N   0  0  0  0  0  0  0  0  0  0  0  0
   56.8350   29.6250   44.7150 S   0  0  0  0  0  0  0  0  0  0  0  0
   57.2810   29.7380   43.2850 O   0  0  0  0  0  0  0  0  0  0  0  0
   57.1570   30.9120   45.4230 O   0  0  0  0  0  0  0  0  0  0  0  0
   57.6730   28.2870   45.4950 C   0  0  0  0  0  0  0  0  0  0  0  0
   57.2310   26.9700   45.3100 C   0  0  0  0  0  0  0  0  0  0  0  0
   56.3557   26.7692   44.6748 H   0  0  0  0  0  0  0  0  0  0  0  0
   57.8990   25.9120   45.9300 C   0  0  0  0  0  0  0  0  0  0  0  0
   57.5449   24.8804   45.7871 H   0  0  0  0  0  0  0  0  0  0  0  0
   59.0170   26.1610   46.7320 C   0  0  0  0  0  0  0  0  0  0  0  0
   59.5331   25.3254   47.2275 H   0  0  0  0  0  0  0  0  0  0  0  0
   59.4830   27.4730   46.9070 C   0  0  0  0  0  0  0  0  0  0  0  0
   60.6630   27.7460   47.7970 C   0  0  0  0  0  0  0  0  0  0  0  0
   60.9146   26.8343   48.3588 H   0  0  0  0  0  0  0  0  0  0  0  0
   61.5201   28.0504   47.1784 H   0  0  0  0  0  0  0  0  0  0  0  0
   60.3340   28.8450   48.7570 C   0  0  0  0  0  0  0  0  0  0  0  0
   59.1180   29.0160   49.3160 N   0  0  0  0  0  0  0  0  0  0  0  0
   59.3030   30.1530   50.0230 C   0  0  0  0  0  0  0  0  0  0  0  0
   58.2700   30.7990   50.8450 C   0  0  0  0  0  0  0  0  0  0  0  0
   57.1880   30.0800   51.2430 N   0  0  0  0  0  0  0  0  0  0  0  0
   56.2070   30.6360   52.0070 C   0  0  0  0  0  0  0  0  0  0  0  0
   55.1790   29.9400   52.3840 N   0  0  0  0  0  0  0  0  0  0  0  0
   53.9390   29.8570   51.6180 C   0  0  0  0  0  0  0  0  0  0  0  0
   54.2248   29.0211   50.9625 H   0  0  0  0  0  0  0  0  0  0  0  0
   52.7010   30.2120   52.4210 C   0  0  0  0  0  0  0  0  0  0  0  0
   51.7453   29.7103   52.2093 H   0  0  0  0  0  0  0  0  0  0  0  0
   52.4490   30.2396   53.4914 H   0  0  0  0  0  0  0  0  0  0  0  0
   53.2750   31.2080   51.4240 C   0  0  0  0  0  0  0  0  0  0  0  0
   52.7344   31.4265   50.4913 H   0  0  0  0  0  0  0  0  0  0  0  0
   53.6102   32.2545   51.4745 H   0  0  0  0  0  0  0  0  0  0  0  0
   56.3050   31.9380   52.3840 N   0  0  0  0  0  0  0  0  0  0  0  0
   57.3680   32.6980   52.0100 C   0  0  0  0  0  0  0  0  0  0  0  0
   57.4350   33.9010   52.3720 O   0  0  0  0  0  0  0  0  0  0  0  0
   58.3810   32.1430   51.2280 C   0  0  0  0  0  0  0  0  0  0  0  0
   59.2473   32.7462   50.9188 H   0  0  0  0  0  0  0  0  0  0  0  0
   60.5220   30.6200   49.8800 O   0  0  0  0  0  0  0  0  0  0  0  0
   61.1840   29.8300   49.0950 N   0  0  0  0  0  0  0  0  0  0  0  0
   62.1740   29.9590   48.7910 H   0  0  0  0  0  0  0  0  0  0  0  0
   58.7990   28.5360   46.2930 C   0  0  0  0  0  0  0  0  0  0  0  0
   59.1486   29.5687   46.4391 H   0  0  0  0  0  0  0  0  0  0  0  0
  1  2  1  0
  2  3  1  0
  3  4  2  0
  3  5  2  0
  3  6  1  0
  6  7  2  0
  7  8  1  0
  7  9  1  0
  9 10  1  0
  9 11  2  0
 11 12  1  0
 11 13  1  0
 13 14  1  0
 14 15  1  0
 14 16  1  0
 14 17  1  0
 17 18  1  0
 18 19  2  0
 19 20  1  0
 20 21  1  0
 21 22  1  0
 22 23  2  0
 23 24  1  0
 24 25  1  0
 24 26  1  0
 26 27  1  0
 26 28  1  0
 26 29  1  0
 29 30  1  0
 29 31  1  0
 22 32  1  0
 32 33  1  0
 33 34  2  0
 33 35  1  0
 35 36  1  0
 19 37  1  0
 37 38  1  0
 38 39  1  0
 13 40  2  0
 40 41  1  0
 40  6  1  0
 38 17  2  0
 35 20  2  0
 29 24  1  0
M  CHG  4   2  -1  21  -1  32  -1  38   1
M  END
>  <UniqueID>  (62) 
54

>  <SMILES>  (62) 
[NH-]S(=O)(=O)c1cccc(Cc2nc(-c3cc(=O)[n-]/c(=N/C4CC4)[n-]3)o[nH+]2)c1

>  <Energy>  (62) 
340.4604585765103

>  <Genealogy>  (62) 
[NH-]S(=O)(=O)c1cccc(Cc2nc(-c3cc(=O)[n-]c(=NC4CC4)[n-]3)o[nH+]2)c1 (protonated)
[NH-]S(=O)(=O)c1cccc(Cc2nc(-c3cc(=O)[n-]/c(=N/C4CC4)[n-]3)o[nH+]2)c1 (cis-trans isomerization)
[NH-]S(=O)(=O)c1cccc(Cc2nc(-c3cc(=O)[n-]/c(=N/C4CC4)[n-]3)o[nH+]2)c1 (3D coordinates assigned)
[NH-]S(=O)(=O)c1cccc(Cc2nc(-c3cc(=O)[n-]/c(=N/C4CC4)[n-]3)o[nH+]2)c1 (nonaromatic ring conformer: 340.4604585765103 kcal/mol)

>  <smiles>  (62) 
NS(=O)(=O)c1cccc(Cc2noc(-c3cc(=O)[nH]c(=NC4CC4)[nH]3)n2)c1

>  <score_type>  (62) 
oracle

>  <origin>  (62) 
adg

>  <m_score__min__energy>  (62) 
-12.34

>  <m_primary>  (62) 
energy

$$$$
62:0
     RDKit          3D

 45 47  0  0  0  0  0  0  0  0999 V2000
   58.6790   32.3760   49.5380 C   0  0  0  0  0  0  0  0  0  0  0  0
   59.7510   32.6520   50.5990 C   0  0  0  0  0  0  0  0  0  0  0  0
   59.1650   33.3810   51.8130 C   0  0  0  0  0  0  0  0  0  0  0  0
   60.3710   31.3910   51.0240 N   0  0  0  0  0  0  0  0  0  0  0  0
   61.7560   31.4700   50.7010 C   0  0  0  0  0  0  0  0  0  0  0  0
   62.5600   30.5220   50.9100 O   0  0  0  0  0  0  0  0  0  0  0  0
   62.1370   32.7060   50.1150 N   0  0  0  0  0  0  0  0  0  0  0  0
   63.3780   32.9690   49.3820 C   0  0  0  0  0  0  0  0  0  0  0  0
   63.0880   33.4710   47.9910 C   0  0  0  0  0  0  0  0  0  0  0  0
   63.5910   34.5650   47.6220 O   0  0  0  0  0  0  0  0  0  0  0  0
   62.2410   32.7370   47.0850 N   0  0  0  0  0  0  0  0  0  0  0  0
   61.3610   33.4480   46.1490 C   0  0  0  0  0  0  0  0  0  0  0  0
   59.9060   33.0290   46.4010 C   0  0  0  0  0  0  0  0  0  0  0  0
   59.8000   31.5630   46.4750 N   0  0  0  0  0  0  0  0  0  0  0  0
   58.6290   30.8970   45.9600 C   0  0  0  0  0  0  0  0  0  0  0  0
   58.2920   29.6030   46.4060 C   0  0  0  0  0  0  0  0  0  0  0  0
   57.1340   28.9690   45.9350 C   0  0  0  0  0  0  0  0  0  0  0  0
   56.3040   29.6190   45.0130 C   0  0  0  0  0  0  0  0  0  0  0  0
   55.1490   28.9890   44.5530 O   0  0  0  0  0  0  0  0  0  0  0  0
   56.6330   30.9010   44.5570 C   0  0  0  0  0  0  0  0  0  0  0  0
   57.7900   31.5390   45.0270 C   0  0  0  0  0  0  0  0  0  0  0  0
   60.7200   30.8470   47.3750 C   0  0  0  0  0  0  0  0  0  0  0  0
   62.1610   31.2720   47.0940 C   0  0  0  0  0  0  0  0  0  0  0  0
   60.9080   33.4200   50.0110 C   0  0  0  0  0  0  0  0  0  0  0  0
   60.8080   34.5610   49.4740 O   0  0  0  0  0  0  0  0  0  0  0  0
   57.7277   32.1311   50.0330 H   0  0  0  0  0  0  0  0  0  0  0  0
   58.5462   33.2692   48.9099 H   0  0  0  0  0  0  0  0  0  0  0  0
   58.9941   31.5297   48.9099 H   0  0  0  0  0  0  0  0  0  0  0  0
   59.5395   32.9151   52.7364 H   0  0  0  0  0  0  0  0  0  0  0  0
   59.4675   34.4383   51.7870 H   0  0  0  0  0  0  0  0  0  0  0  0
   58.0674   33.3129   51.7870 H   0  0  0  0  0  0  0  0  0  0  0  0
   63.9618   33.7277   49.9238 H   0  0  0  0  0  0  0  0  0  0  0  0
   63.9448   32.0295   49.3043 H   0  0  0  0  0  0  0  0  0  0  0  0
   61.4625   34.5327   46.3014 H   0  0  0  0  0  0  0  0  0  0  0  0
   61.6427   33.1965   45.1158 H   0  0  0  0  0  0  0  0  0  0  0  0
   59.5623   33.4657   47.3503 H   0  0  0  0  0  0  0  0  0  0  0  0
   59.2816   33.3905   45.5707 H   0  0  0  0  0  0  0  0  0  0  0  0
   58.9420   29.0874   47.1283 H   0  0  0  0  0  0  0  0  0  0  0  0
   56.8769   27.9600   46.2899 H   0  0  0  0  0  0  0  0  0  0  0  0
   55.9831   31.4086   43.8290 H   0  0  0  0  0  0  0  0  0  0  0  0
   58.0442   32.5463   44.6654 H   0  0  0  0  0  0  0  0  0  0  0  0
   60.4670   31.0844   48.4189 H   0  0  0  0  0  0  0  0  0  0  0  0
   60.6227   29.7646   47.2049 H   0  0  0  0  0  0  0  0  0  0  0  0
   62.8214   30.8727   47.8778 H   0  0  0  0  0  0  0  0  0  0  0  0
   62.4772   30.8795   46.1163 H   0  0  0  0  0  0  0  0  0  0  0  0
  1  2  1  0
  2  3  1  0
  2  4  1  0
  4  5  1  0
  5  6  2  0
  5  7  1  0
  7  8  1  0
  8  9  1  0
  9 10  2  0
  9 11  1  0
 11 12  1  0
 12 13  1  0
 13 14  1  0
 14 15  1  0
 15 16  2  0
 16 17  1  0
 17 18  2  0
 18 19  1  0
 18 20  1  0
 20 21  2  0
 14 22  1  0
 22 23  1  0
  7 24  1  0
 24 25  2  0
 24  2  1  0
 23 11  1  0
 21 15  1  0
  1 26  1  0
  1 27  1  0
  1 28  1  0
  3 29  1  0
  3 30  1  0
  3 31  1  0
  8 32  1  0
  8 33  1  0
 12 34  1  0
 12 35  1  0
 13 36  1  0
 13 37  1  0
 16 38  1  0
 17 39  1  0
 20 40  1  0
 21 41  1  0
 22 42  1  0
 22 43  1  0
 23 44  1  0
 23 45  1  0
M  CHG  2   4  -1  19  -1
M  END
>  <UniqueID>  (63) 
55

>  <SMILES>  (63) 
CC1(C)[N-]C(=O)N(CC(=O)N2CCN(c3ccc([O-])cc3)CC2)C1=O

>  <Energy>  (63) 
65.76808474953764

>  <Genealogy>  (63) 
CC1(C)[N-]C(=O)N(CC(=O)N2CCN(c3ccc([O-])cc3)CC2)C1=O (protonated)
CC1(C)[N-]C(=O)N(CC(=O)N2CCN(c3ccc([O-])cc3)CC2)C1=O (3D coordinates assigned)
CC1(C)[N-]C(=O)N(CC(=O)N2CCN(c3ccc([O-])cc3)CC2)C1=O (nonaromatic ring conformer: 65.76808474953764 kcal/mol)

>  <smiles>  (63) 
CC1(C)NC(=O)N(CC(=O)N2CCN(c3ccc(O)cc3)CC2)C1=O

>  <score_type>  (63) 
oracle

>  <origin>  (63) 
adg

>  <m_score__min__energy>  (63) 
-10.369999999999999

>  <m_primary>  (63) 
energy

$$$$
63:0
     RDKit          3D

 20 21  0  0  0  0  0  0  0  0999 V2000
   57.0700   30.5440   44.5760 C   0  0  0  0  0  0  0  0  0  0  0  0
   57.1410   29.2820   44.9910 C   0  0  0  0  0  0  0  0  0  0  0  0
   58.3170   28.5710   45.2100 C   0  0  0  0  0  0  0  0  0  0  0  0
   57.8880   27.3280   45.6240 C   0  0  0  0  0  0  0  0  0  0  0  0
   58.5970   26.1820   45.9920 C   0  0  0  0  0  0  0  0  0  0  0  0
   59.9910   26.1490   45.9880 O   0  0  0  0  0  0  0  0  0  0  0  0
   57.8610   25.0430   46.3740 C   0  0  0  0  0  0  0  0  0  0  0  0
   58.5530   23.8920   46.7440 O   0  0  0  0  0  0  0  0  0  0  0  0
   56.4330   25.0680   46.3820 C   0  0  0  0  0  0  0  0  0  0  0  0
   55.7370   23.9810   46.7470 C   0  0  0  0  0  0  0  0  0  0  0  0
   55.7570   26.2560   46.0000 C   0  0  0  0  0  0  0  0  0  0  0  0
   54.3670   26.3390   45.9870 O   0  0  0  0  0  0  0  0  0  0  0  0
   56.5180   27.3600   45.6280 C   0  0  0  0  0  0  0  0  0  0  0  0
   56.0830   28.5360   45.2470 O   0  0  0  0  0  0  0  0  0  0  0  0
   56.0895   31.0211   44.4315 H   0  0  0  0  0  0  0  0  0  0  0  0
   57.9918   31.1103   44.3773 H   0  0  0  0  0  0  0  0  0  0  0  0
   59.3520   28.9207   45.0821 H   0  0  0  0  0  0  0  0  0  0  0  0
   60.5100   25.3450   46.3190 H   0  0  0  0  0  0  0  0  0  0  0  0
   54.6373   24.0077   46.7507 H   0  0  0  0  0  0  0  0  0  0  0  0
   56.2659   23.0629   47.0426 H   0  0  0  0  0  0  0  0  0  0  0  0
  1  2  2  0
  2  3  1  0
  3  4  2  0
  4  5  1  0
  5  6  1  0
  5  7  2  0
  7  8  1  0
  7  9  1  0
  9 10  2  0
  9 11  1  0
 11 12  1  0
 11 13  2  0
 13 14  1  0
 14  2  1  0
 13  4  1  0
  1 15  1  0
  1 16  1  0
  3 17  1  0
  6 18  1  0
 10 19  1  0
 10 20  1  0
M  CHG  2   8  -1  12  -1
M  END
>  <UniqueID>  (64) 
56

>  <SMILES>  (64) 
C=c1cc2c(O)c([O-])c(=C)c([O-])c2o1

>  <Energy>  (64) 
56.42394942611798

>  <Genealogy>  (64) 
C=c1cc2c(O)c([O-])c(=C)c([O-])c2o1 (protonated)
C=c1cc2c(O)c([O-])c(=C)c([O-])c2o1 (3D coordinates assigned)
C=c1cc2c(O)c([O-])c(=C)c([O-])c2o1 (optimized conformer: 56.42394942611798 kcal/mol)

>  <smiles>  (64) 
C=c1cc2c(O)c(O)c(=C)c(O)c2o1

>  <score_type>  (64) 
oracle

>  <origin>  (64) 
adg

>  <m_score__min__energy>  (64) 
-11.140000000000001

>  <m_primary>  (64) 
energy

$$$$
64:0
     RDKit          3D

 43 45  0  0  0  0  0  0  0  0999 V2000
   55.1450   26.6920   46.0050 O   0  0  0  0  0  0  0  0  0  0  0  0
   56.1390   25.9240   46.1200 C   0  0  0  0  0  0  0  0  0  0  0  0
   55.9300   24.4810   46.4390 C   0  0  0  0  0  0  0  0  0  0  0  0
   56.8530   23.6580   45.5840 C   0  0  0  0  0  0  0  0  0  0  0  0
   56.3600   22.9780   44.4580 C   0  0  0  0  0  0  0  0  0  0  0  0
   57.1970   22.1380   43.7190 C   0  0  0  0  0  0  0  0  0  0  0  0
   58.5280   21.9600   44.1030 C   0  0  0  0  0  0  0  0  0  0  0  0
   59.0300   22.6230   45.2270 C   0  0  0  0  0  0  0  0  0  0  0  0
   60.3560   22.4290   45.6060 O   0  0  0  0  0  0  0  0  0  0  0  0
   58.1930   23.4700   45.9680 C   0  0  0  0  0  0  0  0  0  0  0  0
   57.4560   26.3970   45.8260 N   0  0  0  0  0  0  0  0  0  0  0  0
   57.9890   27.6280   46.3950 C   0  0  0  0  0  0  0  0  0  0  0  0
   57.6640   28.7750   45.4800 C   0  0  0  0  0  0  0  0  0  0  0  0
   57.1880   28.6260   44.1890 C   0  0  0  0  0  0  0  0  0  0  0  0
   57.1750   29.8850   43.6260 C   0  0  0  0  0  0  0  0  0  0  0  0
   57.6510   30.7530   44.5860 C   0  0  0  0  0  0  0  0  0  0  0  0
   57.9460   30.0780   45.7150 N   0  0  0  0  0  0  0  0  0  0  0  0
   58.5270   30.6780   46.9210 C   0  0  0  0  0  0  0  0  0  0  0  0
   58.8630   32.1250   46.6840 C   0  0  0  0  0  0  0  0  0  0  0  0
   60.2050   32.5280   46.5860 C   0  0  0  0  0  0  0  0  0  0  0  0
   60.5230   33.8710   46.3640 C   0  0  0  0  0  0  0  0  0  0  0  0
   59.5060   34.8220   46.2500 C   0  0  0  0  0  0  0  0  0  0  0  0
   58.1680   34.4300   46.3570 C   0  0  0  0  0  0  0  0  0  0  0  0
   57.8460   33.0870   46.5730 C   0  0  0  0  0  0  0  0  0  0  0  0
   56.1514   24.3012   47.5014 H   0  0  0  0  0  0  0  0  0  0  0  0
   54.8853   24.2011   46.2385 H   0  0  0  0  0  0  0  0  0  0  0  0
   55.3100   23.1074   44.1566 H   0  0  0  0  0  0  0  0  0  0  0  0
   56.8069   21.6158   42.8329 H   0  0  0  0  0  0  0  0  0  0  0  0
   59.1831   21.2964   43.5195 H   0  0  0  0  0  0  0  0  0  0  0  0
   61.0650   22.1620   44.9320 H   0  0  0  0  0  0  0  0  0  0  0  0
   58.5865   23.9899   46.8539 H   0  0  0  0  0  0  0  0  0  0  0  0
   57.5355   27.8041   47.3815 H   0  0  0  0  0  0  0  0  0  0  0  0
   59.0798   27.5418   46.5074 H   0  0  0  0  0  0  0  0  0  0  0  0
   56.8801   27.6868   43.7062 H   0  0  0  0  0  0  0  0  0  0  0  0
   56.8483   30.1461   42.6086 H   0  0  0  0  0  0  0  0  0  0  0  0
   57.7723   31.8378   44.4503 H   0  0  0  0  0  0  0  0  0  0  0  0
   57.8026   30.6056   47.7456 H   0  0  0  0  0  0  0  0  0  0  0  0
   59.4501   30.1371   47.1764 H   0  0  0  0  0  0  0  0  0  0  0  0
   61.0090   31.7837   46.6843 H   0  0  0  0  0  0  0  0  0  0  0  0
   61.5754   34.1794   46.2789 H   0  0  0  0  0  0  0  0  0  0  0  0
   59.7576   35.8786   46.0762 H   0  0  0  0  0  0  0  0  0  0  0  0
   57.3676   35.1796   46.2711 H   0  0  0  0  0  0  0  0  0  0  0  0
   56.7922   32.7826   46.6563 H   0  0  0  0  0  0  0  0  0  0  0  0
  1  2  2  0
  2  3  1  0
  3  4  1  0
  4  5  2  0
  5  6  1  0
  6  7  2  0
  7  8  1  0
  8  9  1  0
  8 10  2  0
  2 11  1  0
 11 12  1  0
 12 13  1  0
 13 14  2  0
 14 15  1  0
 15 16  2  0
 16 17  1  0
 17 18  1  0
 18 19  1  0
 19 20  2  0
 20 21  1  0
 21 22  2  0
 22 23  1  0
 23 24  2  0
 10  4  1  0
 17 13  1  0
 24 19  1  0
  3 25  1  0
  3 26  1  0
  5 27  1  0
  6 28  1  0
  7 29  1  0
  9 30  1  0
 10 31  1  0
 12 32  1  0
 12 33  1  0
 14 34  1  0
 15 35  1  0
 16 36  1  0
 18 37  1  0
 18 38  1  0
 20 39  1  0
 21 40  1  0
 22 41  1  0
 23 42  1  0
 24 43  1  0
M  CHG  1  11  -1
M  END
>  <UniqueID>  (65) 
57

>  <SMILES>  (65) 
O=C(Cc1cccc(O)c1)[N-]Cc1cccn1Cc1ccccc1

>  <Energy>  (65) 
60.86589244987474

>  <Genealogy>  (65) 
O=C(Cc1cccc(O)c1)[N-]Cc1cccn1Cc1ccccc1 (protonated)
O=C(Cc1cccc(O)c1)[N-]Cc1cccn1Cc1ccccc1 (3D coordinates assigned)
O=C(Cc1cccc(O)c1)[N-]Cc1cccn1Cc1ccccc1 (optimized conformer: 60.86589244987474 kcal/mol)

>  <smiles>  (65) 
O=C(Cc1cccc(O)c1)NCc1cccn1Cc1ccccc1

>  <score_type>  (65) 
oracle

>  <origin>  (65) 
adg

>  <m_score__min__energy>  (65) 
-10.460000000000001

>  <m_primary>  (65) 
energy

$$$$
65:0
     RDKit          3D

 69 72  0  0  0  0  0  0  0  0999 V2000
   57.8160   26.8780   44.6550 C   0  0  0  0  0  0  0  0  0  0  0  0
   58.2810   28.2640   44.8080 N   0  0  0  0  0  0  0  0  0  0  0  0
   58.6670   28.5100   46.2100 C   0  0  0  0  0  0  0  0  0  0  0  0
   60.0270   29.1460   46.3040 C   0  0  0  0  0  0  0  0  0  0  0  0
   60.5230   29.6840   45.2770 O   0  0  0  0  0  0  0  0  0  0  0  0
   60.7240   29.2380   47.5580 N   0  0  0  0  0  0  0  0  0  0  0  0
   60.7050   28.1560   48.5450 C   0  0  0  0  0  0  0  0  0  0  0  0
   60.1770   28.6870   49.8920 C   0  0  0  0  0  0  0  0  0  0  0  0
   60.6000   30.0850   50.2200 N   0  0  0  0  0  0  0  0  0  0  0  0
   59.4410   31.0340   50.2340 C   0  0  0  0  0  0  0  0  0  0  0  0
   58.1260   30.2860   50.6480 C   0  0  0  0  0  0  0  0  0  0  0  0
   57.6260   30.6450   52.0580 C   0  0  0  0  0  0  0  0  0  0  0  0
   57.3650   32.1560   52.2050 C   0  0  0  0  0  0  0  0  0  0  0  0
   58.3630   33.0250   51.4140 C   0  0  0  0  0  0  0  0  0  0  0  0
   59.6760   32.2800   51.1410 C   0  0  0  0  0  0  0  0  0  0  0  0
   61.7590   30.5190   49.3950 C   0  0  0  0  0  0  0  0  0  0  0  0
   61.4340   30.4730   47.8920 C   0  0  0  0  0  0  0  0  0  0  0  0
   57.0080   29.3550   44.3060 S   0  0  0  0  0  0  0  0  0  0  0  0
   56.7200   29.1820   42.8390 O   0  0  0  0  0  0  0  0  0  0  0  0
   55.7510   29.0710   45.0810 O   0  0  0  0  0  0  0  0  0  0  0  0
   57.4890   31.0190   44.6340 C   0  0  0  0  0  0  0  0  0  0  0  0
   57.7590   31.4140   45.9510 C   0  0  0  0  0  0  0  0  0  0  0  0
   58.2330   32.7010   46.2180 C   0  0  0  0  0  0  0  0  0  0  0  0
   58.4430   33.6090   45.1670 C   0  0  0  0  0  0  0  0  0  0  0  0
   59.0220   34.9710   45.4520 C   0  0  0  0  0  0  0  0  0  0  0  0
   60.4010   34.8560   45.9550 N   0  0  0  0  0  0  0  0  0  0  0  0
   60.4620   34.5220   47.3880 C   0  0  0  0  0  0  0  0  0  0  0  0
   61.7840   33.9280   47.7720 C   0  0  0  0  0  0  0  0  0  0  0  0
   62.6190   33.3300   46.8960 N   0  0  0  0  0  0  0  0  0  0  0  0
   63.7320   32.8420   47.5100 C   0  0  0  0  0  0  0  0  0  0  0  0
   63.7910   33.0500   48.8840 C   0  0  0  0  0  0  0  0  0  0  0  0
   62.3940   33.8690   49.3400 S   0  0  0  0  0  0  0  0  0  0  0  0
   58.1580   33.2160   43.8490 C   0  0  0  0  0  0  0  0  0  0  0  0
   57.6850   31.9270   43.5840 C   0  0  0  0  0  0  0  0  0  0  0  0
   57.6657   26.4299   45.6483 H   0  0  0  0  0  0  0  0  0  0  0  0
   56.8657   26.8691   44.1011 H   0  0  0  0  0  0  0  0  0  0  0  0
   58.5687   26.2978   44.1011 H   0  0  0  0  0  0  0  0  0  0  0  0
   57.9267   29.1794   46.6724 H   0  0  0  0  0  0  0  0  0  0  0  0
   58.7013   27.5430   46.7332 H   0  0  0  0  0  0  0  0  0  0  0  0
   60.0490   27.3481   48.1886 H   0  0  0  0  0  0  0  0  0  0  0  0
   61.7264   27.7712   48.6816 H   0  0  0  0  0  0  0  0  0  0  0  0
   59.0777   28.6587   49.8647 H   0  0  0  0  0  0  0  0  0  0  0  0
   60.6062   28.0405   50.6716 H   0  0  0  0  0  0  0  0  0  0  0  0
   59.3354   31.4158   49.2078 H   0  0  0  0  0  0  0  0  0  0  0  0
   57.3382   30.5431   49.9246 H   0  0  0  0  0  0  0  0  0  0  0  0
   58.3570   29.2106   50.6538 H   0  0  0  0  0  0  0  0  0  0  0  0
   56.6898   30.1014   52.2529 H   0  0  0  0  0  0  0  0  0  0  0  0
   58.4059   30.3609   52.7799 H   0  0  0  0  0  0  0  0  0  0  0  0
   56.3493   32.3722   51.8422 H   0  0  0  0  0  0  0  0  0  0  0  0
   57.4859   32.4064   53.2693 H   0  0  0  0  0  0  0  0  0  0  0  0
   57.9068   33.3061   50.4533 H   0  0  0  0  0  0  0  0  0  0  0  0
   58.5942   33.9151   52.0175 H   0  0  0  0  0  0  0  0  0  0  0  0
   60.3774   32.9622   50.6384 H   0  0  0  0  0  0  0  0  0  0  0  0
   60.0878   31.9378   52.1019 H   0  0  0  0  0  0  0  0  0  0  0  0
   62.0273   31.5495   49.6707 H   0  0  0  0  0  0  0  0  0  0  0  0
   62.5949   29.8303   49.5872 H   0  0  0  0  0  0  0  0  0  0  0  0
   60.8024   31.3352   47.6318 H   0  0  0  0  0  0  0  0  0  0  0  0
   62.3752   30.5067   47.3237 H   0  0  0  0  0  0  0  0  0  0  0  0
   57.5970   30.7076   46.7785 H   0  0  0  0  0  0  0  0  0  0  0  0
   58.4424   33.0041   47.2545 H   0  0  0  0  0  0  0  0  0  0  0  0
   59.0240   35.5635   44.5252 H   0  0  0  0  0  0  0  0  0  0  0  0
   58.4060   35.4635   46.2188 H   0  0  0  0  0  0  0  0  0  0  0  0
   60.8990   34.1130   45.4040 H   0  0  0  0  0  0  0  0  0  0  0  0
   60.3017   35.4394   47.9733 H   0  0  0  0  0  0  0  0  0  0  0  0
   59.6815   33.7752   47.5957 H   0  0  0  0  0  0  0  0  0  0  0  0
   64.5280   32.3203   46.9585 H   0  0  0  0  0  0  0  0  0  0  0  0
   64.6055   32.7352   49.5529 H   0  0  0  0  0  0  0  0  0  0  0  0
   58.3075   33.9253   43.0216 H   0  0  0  0  0  0  0  0  0  0  0  0
   57.4662   31.6248   42.5492 H   0  0  0  0  0  0  0  0  0  0  0  0
  1  2  1  0
  2  3  1  0
  3  4  1  0
  4  5  2  0
  4  6  1  0
  6  7  1  0
  7  8  1  0
  8  9  1  0
  9 10  1  0
 10 11  1  0
 11 12  1  0
 12 13  1  0
 13 14  1  0
 14 15  1  0
  9 16  1  0
 16 17  1  0
  2 18  1  0
 18 19  2  0
 18 20  2  0
 18 21  1  0
 21 22  2  0
 22 23  1  0
 23 24  2  0
 24 25  1  0
 25 26  1  0
 26 27  1  0
 27 28  1  0
 28 29  2  0
 29 30  1  0
 30 31  2  0
 31 32  1  0
 24 33  1  0
 33 34  2  0
 17  6  1  0
 34 21  1  0
 15 10  1  0
 32 28  1  0
  1 35  1  0
  1 36  1  0
  1 37  1  0
  3 38  1  0
  3 39  1  0
  7 40  1  0
  7 41  1  0
  8 42  1  0
  8 43  1  0
 10 44  1  0
 11 45  1  0
 11 46  1  0
 12 47  1  0
 12 48  1  0
 13 49  1  0
 13 50  1  0
 14 51  1  0
 14 52  1  0
 15 53  1  0
 15 54  1  0
 16 55  1  0
 16 56  1  0
 17 57  1  0
 17 58  1  0
 22 59  1  0
 23 60  1  0
 25 61  1  0
 25 62  1  0
 26 63  1  0
 27 64  1  0
 27 65  1  0
 30 66  1  0
 31 67  1  0
 33 68  1  0
 34 69  1  0
M  END
>  <UniqueID>  (66) 
58

>  <SMILES>  (66) 
CN(CC(=O)N1CCN(C2CCCCC2)CC1)S(=O)(=O)c1ccc(CNCc2nccs2)cc1

>  <Energy>  (66) 
117.45932642433212

>  <Genealogy>  (66) 
CN(CC(=O)N1CCN(C2CCCCC2)CC1)S(=O)(=O)c1ccc(CNCc2nccs2)cc1 (3D coordinates assigned)
CN(CC(=O)N1CCN(C2CCCCC2)CC1)S(=O)(=O)c1ccc(CNCc2nccs2)cc1 (nonaromatic ring conformer: 117.45932642433212 kcal/mol)

>  <smiles>  (66) 
CN(CC(=O)N1CCN(C2CCCCC2)CC1)S(=O)(=O)c1ccc(CNCc2nccs2)cc1

>  <score_type>  (66) 
oracle

>  <origin>  (66) 
adg

>  <m_score__min__energy>  (66) 
-9.6500000000000004

>  <m_primary>  (66) 
energy

$$$$
66:0
     RDKit          3D

 49 52  0  0  0  0  0  0  0  0999 V2000
   58.7730   28.5660   46.9080 C   0  0  0  0  0  0  0  0  0  0  0  0
   58.3750   29.0110   45.7050 C   0  0  0  0  0  0  0  0  0  0  0  0
   57.8560   28.2500   44.6430 C   0  0  0  0  0  0  0  0  0  0  0  0
   57.7710   26.9170   44.4680 C   0  0  0  0  0  0  0  0  0  0  0  0
   57.4460   25.9300   45.5160 C   0  0  0  0  0  0  0  0  0  0  0  0
   56.1640   25.8700   46.0890 C   0  0  0  0  0  0  0  0  0  0  0  0
   55.1520   26.7180   45.6570 O   0  0  0  0  0  0  0  0  0  0  0  0
   55.9080   24.9770   47.0800 N   0  0  0  0  0  0  0  0  0  0  0  0
   56.8760   24.1480   47.5450 C   0  0  0  0  0  0  0  0  0  0  0  0
   56.5370   23.0850   48.7360 S   0  0  0  0  0  0  0  0  0  0  0  0
   58.1300   24.2100   47.0280 N   0  0  0  0  0  0  0  0  0  0  0  0
   58.4390   25.0830   46.0350 C   0  0  0  0  0  0  0  0  0  0  0  0
   59.6130   25.1180   45.5830 O   0  0  0  0  0  0  0  0  0  0  0  0
   57.4050   29.1590   43.6990 C   0  0  0  0  0  0  0  0  0  0  0  0
   57.7110   30.4160   44.1750 C   0  0  0  0  0  0  0  0  0  0  0  0
   57.4040   31.6950   43.4540 C   0  0  0  0  0  0  0  0  0  0  0  0
   58.2970   30.3300   45.3890 N   0  0  0  0  0  0  0  0  0  0  0  0
   58.7290   31.4450   46.1930 C   0  0  0  0  0  0  0  0  0  0  0  0
   57.8600   32.5130   46.4280 C   0  0  0  0  0  0  0  0  0  0  0  0
   58.2690   33.5830   47.2200 C   0  0  0  0  0  0  0  0  0  0  0  0
   59.5480   33.5960   47.7830 C   0  0  0  0  0  0  0  0  0  0  0  0
   60.4560   32.5340   47.5590 C   0  0  0  0  0  0  0  0  0  0  0  0
   61.7950   32.5420   48.1490 N   0  0  0  0  0  0  0  0  0  0  0  0
   62.1620   31.4740   49.1050 C   0  0  0  0  0  0  0  0  0  0  0  0
   63.5540   31.6260   49.7290 C   0  0  0  0  0  0  0  0  0  0  0  0
   64.5230   32.1390   48.7640 N   0  0  0  0  0  0  0  0  0  0  0  0
   64.1350   33.4950   48.3870 C   0  0  0  0  0  0  0  0  0  0  0  0
   62.7930   33.5160   47.6470 C   0  0  0  0  0  0  0  0  0  0  0  0
   60.0140   31.4550   46.7540 C   0  0  0  0  0  0  0  0  0  0  0  0
   59.1629   29.2734   47.6547 H   0  0  0  0  0  0  0  0  0  0  0  0
   58.7090   27.4941   47.1467 H   0  0  0  0  0  0  0  0  0  0  0  0
   57.9603   26.5305   43.4557 H   0  0  0  0  0  0  0  0  0  0  0  0
   56.8995   28.9226   42.7511 H   0  0  0  0  0  0  0  0  0  0  0  0
   57.2126   32.4924   44.1872 H   0  0  0  0  0  0  0  0  0  0  0  0
   58.2605   31.9749   42.8230 H   0  0  0  0  0  0  0  0  0  0  0  0
   56.5138   31.5557   42.8230 H   0  0  0  0  0  0  0  0  0  0  0  0
   56.8521   32.5089   45.9873 H   0  0  0  0  0  0  0  0  0  0  0  0
   57.5818   34.4222   47.4034 H   0  0  0  0  0  0  0  0  0  0  0  0
   59.8540   34.4459   48.4107 H   0  0  0  0  0  0  0  0  0  0  0  0
   61.4204   31.4712   49.9174 H   0  0  0  0  0  0  0  0  0  0  0  0
   62.1783   30.5352   48.5320 H   0  0  0  0  0  0  0  0  0  0  0  0
   63.4908   32.3240   50.5768 H   0  0  0  0  0  0  0  0  0  0  0  0
   63.8921   30.6335   50.0615 H   0  0  0  0  0  0  0  0  0  0  0  0
   64.5260   31.5270   47.9140 H   0  0  0  0  0  0  0  0  0  0  0  0
   64.0499   34.1073   49.2968 H   0  0  0  0  0  0  0  0  0  0  0  0
   64.9050   33.8966   47.7119 H   0  0  0  0  0  0  0  0  0  0  0  0
   62.3651   34.5249   47.7415 H   0  0  0  0  0  0  0  0  0  0  0  0
   63.0073   33.2333   46.6058 H   0  0  0  0  0  0  0  0  0  0  0  0
   60.6917   30.6093   46.5656 H   0  0  0  0  0  0  0  0  0  0  0  0
  1  2  2  0
  2  3  1  0
  3  4  2  3
  4  5  1  0
  5  6  2  0
  6  7  1  0
  6  8  1  0
  8  9  1  0
  9 10  2  0
  9 11  1  0
 11 12  1  0
 12 13  2  0
  3 14  1  0
 14 15  2  0
 15 16  1  0
 15 17  1  0
 17 18  1  0
 18 19  2  0
 19 20  1  0
 20 21  2  0
 21 22  1  0
 22 23  1  0
 23 24  1  0
 24 25  1  0
 25 26  1  0
 26 27  1  0
 27 28  1  0
 22 29  2  0
 17  2  1  0
 29 18  1  0
 12  5  1  0
 28 23  1  0
  1 30  1  0
  1 31  1  0
  4 32  1  0
 14 33  1  0
 16 34  1  0
 16 35  1  0
 16 36  1  0
 19 37  1  0
 20 38  1  0
 21 39  1  0
 24 40  1  0
 24 41  1  0
 25 42  1  0
 25 43  1  0
 26 44  1  0
 27 45  1  0
 27 46  1  0
 28 47  1  0
 28 48  1  0
 29 49  1  0
M  CHG  3   7  -1   8  -1  11  -1
M  END
>  <UniqueID>  (67) 
59

>  <SMILES>  (67) 
C=c1c(=Cc2c([O-])[n-]c(=S)[n-]c2=O)cc(C)n1-c1cccc(N2CCNCC2)c1

>  <Energy>  (67) 
107.97577263228732

>  <Genealogy>  (67) 
C=c1c(=Cc2c([O-])[n-]c(=S)[n-]c2=O)cc(C)n1-c1cccc(N2CCNCC2)c1 (protonated)
C=c1c(=Cc2c([O-])[n-]c(=S)[n-]c2=O)cc(C)n1-c1cccc(N2CCNCC2)c1 (3D coordinates assigned)
C=c1c(=Cc2c([O-])[n-]c(=S)[n-]c2=O)cc(C)n1-c1cccc(N2CCNCC2)c1 (nonaromatic ring conformer: 107.97577263228732 kcal/mol)

>  <smiles>  (67) 
C=c1c(=Cc2c(O)[nH]c(=S)[nH]c2=O)cc(C)n1-c1cccc(N2CCNCC2)c1

>  <score_type>  (67) 
oracle

>  <origin>  (67) 
adg

>  <m_score__min__energy>  (67) 
-16.190000000000001

>  <m_primary>  (67) 
energy

$$$$
67:0
     RDKit          3D

 38 41  0  0  0  0  0  0  0  0999 V2000
   57.1560   22.1920   45.9980 H   0  0  0  0  0  0  0  0  0  0  0  0
   57.6770   22.8270   46.5910 O   0  0  0  0  0  0  0  0  0  0  0  0
   57.5000   24.2070   46.5090 C   0  0  0  0  0  0  0  0  0  0  0  0
   56.2110   24.7550   46.3010 C   0  0  0  0  0  0  0  0  0  0  0  0
   55.3425   24.0870   46.2037 H   0  0  0  0  0  0  0  0  0  0  0  0
   56.0340   26.1480   46.2180 C   0  0  0  0  0  0  0  0  0  0  0  0
   54.7730   26.6940   46.0150 O   0  0  0  0  0  0  0  0  0  0  0  0
   57.1540   26.9660   46.3440 C   0  0  0  0  0  0  0  0  0  0  0  0
   58.4070   26.4290   46.5460 C   0  0  0  0  0  0  0  0  0  0  0  0
   58.6160   25.0550   46.6330 C   0  0  0  0  0  0  0  0  0  0  0  0
   59.6238   24.6446   46.7939 H   0  0  0  0  0  0  0  0  0  0  0  0
   59.3360   27.5390   46.6330 C   0  0  0  0  0  0  0  0  0  0  0  0
   60.5840   27.4680   46.7950 O   0  0  0  0  0  0  0  0  0  0  0  0
   58.5170   28.7470   46.4690 C   0  0  0  0  0  0  0  0  0  0  0  0
   58.9140   30.0220   46.4780 C   0  0  0  0  0  0  0  0  0  0  0  0
   59.5433   30.3702   47.3103 H   0  0  0  0  0  0  0  0  0  0  0  0
   58.5470   30.9840   45.4230 C   0  0  0  0  0  0  0  0  0  0  0  0
   58.0280   30.4840   44.2190 C   0  0  0  0  0  0  0  0  0  0  0  0
   57.9207   29.3982   44.0796 H   0  0  0  0  0  0  0  0  0  0  0  0
   57.6470   31.3550   43.1970 C   0  0  0  0  0  0  0  0  0  0  0  0
   57.2525   30.9539   42.2518 H   0  0  0  0  0  0  0  0  0  0  0  0
   57.7660   32.7330   43.3730 C   0  0  0  0  0  0  0  0  0  0  0  0
   57.4672   33.4174   42.5654 H   0  0  0  0  0  0  0  0  0  0  0  0
   58.2640   33.2460   44.5730 C   0  0  0  0  0  0  0  0  0  0  0  0
   58.3425   34.3347   44.7090 H   0  0  0  0  0  0  0  0  0  0  0  0
   58.6660   32.3840   45.6090 C   0  0  0  0  0  0  0  0  0  0  0  0
   59.1370   32.9800   46.9150 C   0  0  0  0  0  0  0  0  0  0  0  0
   58.7759   34.0161   46.9925 H   0  0  0  0  0  0  0  0  0  0  0  0
   58.7395   32.3800   47.7469 H   0  0  0  0  0  0  0  0  0  0  0  0
   60.5960   32.9720   46.9770 N   0  0  0  0  0  0  0  0  0  0  0  0
   61.4350   33.8650   46.4190 C   0  0  0  0  0  0  0  0  0  0  0  0
   61.1027   34.7211   45.8134 H   0  0  0  0  0  0  0  0  0  0  0  0
   62.7290   33.5920   46.6860 N   0  0  0  0  0  0  0  0  0  0  0  0
   62.6850   32.4780   47.4470 C   0  0  0  0  0  0  0  0  0  0  0  0
   63.5617   31.9560   47.8581 H   0  0  0  0  0  0  0  0  0  0  0  0
   61.3760   32.0950   47.6300 C   0  0  0  0  0  0  0  0  0  0  0  0
   61.0301   31.2255   48.2081 H   0  0  0  0  0  0  0  0  0  0  0  0
   57.1870   28.3590   46.2900 O   0  0  0  0  0  0  0  0  0  0  0  0
  1  2  1  0
  2  3  1  0
  3  4  2  0
  4  5  1  0
  4  6  1  0
  6  7  1  0
  6  8  2  0
  8  9  1  0
  9 10  2  0
 10 11  1  0
  9 12  1  0
 12 13  2  0
 12 14  1  0
 14 15  2  0
 15 16  1  0
 15 17  1  0
 17 18  2  0
 18 19  1  0
 18 20  1  0
 20 21  1  0
 20 22  2  0
 22 23  1  0
 22 24  1  0
 24 25  1  0
 24 26  2  0
 26 27  1  0
 27 28  1  0
 27 29  1  0
 27 30  1  0
 30 31  1  0
 31 32  1  0
 31 33  2  0
 33 34  1  0
 34 35  1  0
 34 36  2  0
 36 37  1  0
 14 38  1  0
 10  3  1  0
 26 17  1  0
 36 30  1  0
 38  8  1  0
M  CHG  1   7  -1
M  END
>  <UniqueID>  (68) 
60

>  <SMILES>  (68) 
O=C1/C(=C\c2ccccc2Cn2ccnc2)Oc2c([O-])cc(O)cc21

>  <Energy>  (68) 
109.5582174706773

>  <Genealogy>  (68) 
O=C1C(=Cc2ccccc2Cn2ccnc2)Oc2c([O-])cc(O)cc21 (protonated)
O=C1/C(=C\c2ccccc2Cn2ccnc2)Oc2c([O-])cc(O)cc21 (cis-trans isomerization)
O=C1/C(=C\c2ccccc2Cn2ccnc2)Oc2c([O-])cc(O)cc21 (3D coordinates assigned)
O=C1/C(=C\c2ccccc2Cn2ccnc2)Oc2c([O-])cc(O)cc21 (nonaromatic ring conformer: 109.5582174706773 kcal/mol)

>  <smiles>  (68) 
O=C1C(=Cc2ccccc2Cn2ccnc2)Oc2c(O)cc(O)cc21

>  <score_type>  (68) 
oracle

>  <origin>  (68) 
adg

>  <m_score__min__energy>  (68) 
-11.34

>  <m_primary>  (68) 
energy

$$$$
68:0
     RDKit          3D

 39 42  0  0  0  0  0  0  0  0999 V2000
   60.1737   35.7380   46.0581 H   0  0  0  0  0  0  0  0  0  0  0  0
   59.6110   34.9340   46.5550 C   0  0  0  0  0  0  0  0  0  0  0  0
   59.8530   34.5620   47.8400 N   0  0  0  0  0  0  0  0  0  0  0  0
   59.0410   33.5590   48.2360 C   0  0  0  0  0  0  0  0  0  0  0  0
   59.1060   33.0520   49.4320 N   0  0  0  0  0  0  0  0  0  0  0  0
   58.3980   31.9110   49.9420 C   0  0  0  0  0  0  0  0  0  0  0  0
   58.6540   30.7480   49.5270 O   0  0  0  0  0  0  0  0  0  0  0  0
   57.3530   32.1200   50.9030 N   0  0  0  0  0  0  0  0  0  0  0  0
   56.9910   33.0940   51.0140 H   0  0  0  0  0  0  0  0  0  0  0  0
   56.6980   31.0660   51.6280 C   0  0  0  0  0  0  0  0  0  0  0  0
   57.3970   29.8940   52.0220 C   0  0  0  0  0  0  0  0  0  0  0  0
   58.4566   29.7768   51.7509 H   0  0  0  0  0  0  0  0  0  0  0  0
   56.7520   28.8820   52.7540 C   0  0  0  0  0  0  0  0  0  0  0  0
   57.2893   27.9705   53.0548 H   0  0  0  0  0  0  0  0  0  0  0  0
   55.4090   29.0680   53.0880 C   0  0  0  0  0  0  0  0  0  0  0  0
   54.7340   30.2070   52.7280 C   0  0  0  0  0  0  0  0  0  0  0  0
   55.3480   31.2300   52.0080 C   0  0  0  0  0  0  0  0  0  0  0  0
   54.7946   32.1428   51.7422 H   0  0  0  0  0  0  0  0  0  0  0  0
   53.4540   30.0970   53.2400 C   0  0  0  0  0  0  0  0  0  0  0  0
   52.3670   31.1260   53.1990 C   0  0  0  0  0  0  0  0  0  0  0  0
   51.5699   30.8420   53.9018 H   0  0  0  0  0  0  0  0  0  0  0  0
   52.7842   32.1034   53.4831 H   0  0  0  0  0  0  0  0  0  0  0  0
   51.8000   31.2170   51.8170 C   0  0  0  0  0  0  0  0  0  0  0  0
   52.0330   30.3180   50.8440 N   0  0  0  0  0  0  0  0  0  0  0  0
   51.3890   30.8400   49.7790 C   0  0  0  0  0  0  0  0  0  0  0  0
   51.3700   30.2730   48.6540 O   0  0  0  0  0  0  0  0  0  0  0  0
   50.7730   32.0200   50.0090 N   0  0  0  0  0  0  0  0  0  0  0  0
   51.0480   32.2460   51.3030 C   0  0  0  0  0  0  0  0  0  0  0  0
   50.6290   33.3730   51.9980 O   0  0  0  0  0  0  0  0  0  0  0  0
   53.4180   28.8830   53.9170 C   0  0  0  0  0  0  0  0  0  0  0  0
   52.5473   28.4921   54.4639 H   0  0  0  0  0  0  0  0  0  0  0  0
   54.6110   28.2520   53.8050 N   0  0  0  0  0  0  0  0  0  0  0  0
   54.9760   26.9840   54.4290 C   0  0  0  0  0  0  0  0  0  0  0  0
   54.9450   27.0915   55.5233 H   0  0  0  0  0  0  0  0  0  0  0  0
   54.2659   26.2040   54.1170 H   0  0  0  0  0  0  0  0  0  0  0  0
   55.9921   26.7009   54.1170 H   0  0  0  0  0  0  0  0  0  0  0  0
   57.9910   33.0940   46.9990 S   0  0  0  0  0  0  0  0  0  0  0  0
   58.6010   34.2250   45.9140 C   0  0  0  0  0  0  0  0  0  0  0  0
   58.2608   34.3772   44.8791 H   0  0  0  0  0  0  0  0  0  0  0  0
  1  2  1  0
  2  3  1  0
  3  4  1  0
  4  5  2  0
  5  6  1  0
  6  7  2  0
  6  8  1  0
  8  9  1  0
  8 10  1  0
 10 11  2  0
 11 12  1  0
 11 13  1  0
 13 14  1  0
 13 15  2  0
 15 16  1  0
 16 17  2  0
 17 18  1  0
 16 19  1  0
 19 20  1  0
 20 21  1  0
 20 22  1  0
 20 23  1  0
 23 24  1  0
 24 25  1  0
 25 26  2  0
 25 27  1  0
 27 28  1  0
 28 29  1  0
 19 30  2  0
 30 31  1  0
 30 32  1  0
 32 33  1  0
 33 34  1  0
 33 35  1  0
 33 36  1  0
  4 37  1  0
 37 38  1  0
 38 39  1  0
 38  2  2  0
 17 10  1  0
 28 23  2  0
 32 15  1  0
M  CHG  4   3  -1  24  -1  27  -1  29  -1
M  END
>  <UniqueID>  (69) 
61

>  <SMILES>  (69) 
Cn1cc(Cc2[n-]c(=O)[n-]c2[O-])c2cc(NC(=O)/N=c3/[n-]ccs3)ccc21

>  <Energy>  (69) 
139.77415785172155

>  <Genealogy>  (69) 
Cn1cc(Cc2[n-]c(=O)[n-]c2[O-])c2cc(NC(=O)N=c3[n-]ccs3)ccc21 (protonated)
Cn1cc(Cc2[n-]c(=O)[n-]c2[O-])c2cc(NC(=O)/N=c3/[n-]ccs3)ccc21 (cis-trans isomerization)
Cn1cc(Cc2[n-]c(=O)[n-]c2[O-])c2cc(NC(=O)/N=c3/[n-]ccs3)ccc21 (3D coordinates assigned)
Cn1cc(Cc2[n-]c(=O)[n-]c2[O-])c2cc(NC(=O)/N=c3/[n-]ccs3)ccc21 (optimized conformer: 139.77415785172155 kcal/mol)

>  <smiles>  (69) 
Cn1cc(Cc2[nH]c(=O)[nH]c2O)c2cc(NC(=O)N=c3[nH]ccs3)ccc21

>  <score_type>  (69) 
oracle

>  <origin>  (69) 
adg

>  <m_score__min__energy>  (69) 
-18.260000000000002

>  <m_primary>  (69) 
energy

$$$$
69:0
     RDKit          3D

 60 62  0  0  0  0  0  0  0  0999 V2000
   62.5450   31.3910   51.9500 H   0  0  0  0  0  0  0  0  0  0  0  0
   63.2820   31.9640   51.6060 O   0  0  0  0  0  0  0  0  0  0  0  0
   62.7880   32.6920   50.5040 C   0  0  2  0  0  0  0  0  0  0  0  0
   61.7160   33.7050   50.9870 C   0  0  0  0  0  0  0  0  0  0  0  0
   61.3895   34.3082   50.1270 H   0  0  0  0  0  0  0  0  0  0  0  0
   62.1758   34.3263   51.7697 H   0  0  0  0  0  0  0  0  0  0  0  0
   60.5060   33.0320   51.5920 C   0  0  0  0  0  0  0  0  0  0  0  0
   59.7510   33.7560   52.6390 C   0  0  0  0  0  0  0  0  0  0  0  0
   60.2052   33.8968   53.6309 H   0  0  0  0  0  0  0  0  0  0  0  0
   58.5920   34.2170   52.4160 O   0  0  0  0  0  0  0  0  0  0  0  0
   60.0750   31.8420   51.1340 C   0  0  0  0  0  0  0  0  0  0  0  0
   59.0942   31.4745   51.4700 H   0  0  0  0  0  0  0  0  0  0  0  0
   60.8760   30.9880   50.1800 C   0  0  1  0  0  0  0  0  0  0  0  0
   61.3284   30.2370   50.8443 H   0  0  0  0  0  0  0  0  0  0  0  0
   60.0260   30.1890   49.1900 C   0  0  0  0  0  0  0  0  0  0  0  0
   60.5020   29.3080   48.2700 C   0  0  0  0  0  0  0  0  0  0  0  0
   61.5658   29.0398   48.3503 H   0  0  0  0  0  0  0  0  0  0  0  0
   59.7250   28.6590   47.1500 C   0  0  0  0  0  0  0  0  0  0  0  0
   60.2775   27.7761   46.7960 H   0  0  0  0  0  0  0  0  0  0  0  0
   58.7359   28.3719   47.5363 H   0  0  0  0  0  0  0  0  0  0  0  0
   59.5260   29.6080   45.9960 C   0  0  0  0  0  0  0  0  0  0  0  0
   60.4110   30.4620   45.7250 O   0  0  0  0  0  0  0  0  0  0  0  0
   58.2870   29.5940   45.2070 C   0  0  0  0  0  0  0  0  0  0  0  0
   58.1180   28.7330   44.3000 O   0  0  0  0  0  0  0  0  0  0  0  0
   57.3000   30.5500   45.4700 O   0  0  0  0  0  0  0  0  0  0  0  0
   57.2610   31.8320   44.8420 C   0  0  2  0  0  0  0  0  0  0  0  0
   56.2179   32.1810   44.8290 H   0  0  0  0  0  0  0  0  0  0  0  0
   57.7810   31.7120   43.4410 C   0  0  0  0  0  0  0  0  0  0  0  0
   58.7835   32.0936   43.1974 H   0  0  0  0  0  0  0  0  0  0  0  0
   57.1040   31.1960   42.5700 O   0  0  0  0  0  0  0  0  0  0  0  0
   58.0790   32.8470   45.6070 C   0  0  0  0  0  0  0  0  0  0  0  0
   58.1560   32.7650   47.0100 C   0  0  0  0  0  0  0  0  0  0  0  0
   57.6804   31.9231   47.5344 H   0  0  0  0  0  0  0  0  0  0  0  0
   58.8320   33.7450   47.7420 C   0  0  0  0  0  0  0  0  0  0  0  0
   58.8881   33.6705   48.8380 H   0  0  0  0  0  0  0  0  0  0  0  0
   59.4360   34.8180   47.0850 C   0  0  0  0  0  0  0  0  0  0  0  0
   59.9732   35.5854   47.6617 H   0  0  0  0  0  0  0  0  0  0  0  0
   59.3570   34.9160   45.6900 C   0  0  0  0  0  0  0  0  0  0  0  0
   59.8340   35.7602   45.1705 H   0  0  0  0  0  0  0  0  0  0  0  0
   58.6740   33.9440   44.9590 C   0  0  0  0  0  0  0  0  0  0  0  0
   58.6001   34.0365   43.8654 H   0  0  0  0  0  0  0  0  0  0  0  0
   58.5280   30.3320   49.2860 C   0  0  0  0  0  0  0  0  0  0  0  0
   58.2295   30.3605   50.3443 H   0  0  0  0  0  0  0  0  0  0  0  0
   58.2162   31.2640   48.7919 H   0  0  0  0  0  0  0  0  0  0  0  0
   58.0455   29.4758   48.7919 H   0  0  0  0  0  0  0  0  0  0  0  0
   62.1110   31.6870   49.5260 C   0  0  1  0  0  0  0  0  0  0  0  0
   62.7944   30.8530   49.3083 H   0  0  0  0  0  0  0  0  0  0  0  0
   61.8500   32.3640   48.1910 C   0  0  0  0  0  0  0  0  0  0  0  0
   60.8676   32.2805   47.7032 H   0  0  0  0  0  0  0  0  0  0  0  0
   62.8420   33.0670   47.6170 C   0  0  0  0  0  0  0  0  0  0  0  0
   62.6240   33.8080   46.3220 C   0  0  0  0  0  0  0  0  0  0  0  0
   62.3196   34.8427   46.5383 H   0  0  0  0  0  0  0  0  0  0  0  0
   63.5583   33.8144   45.7415 H   0  0  0  0  0  0  0  0  0  0  0  0
   61.8351   33.3075   45.7415 H   0  0  0  0  0  0  0  0  0  0  0  0
   64.1710   33.1480   48.3240 C   0  0  0  0  0  0  0  0  0  0  0  0
   64.7770   33.9416   47.8626 H   0  0  0  0  0  0  0  0  0  0  0  0
   64.6782   32.1762   48.2327 H   0  0  0  0  0  0  0  0  0  0  0  0
   63.9780   33.4650   49.8190 C   0  0  0  0  0  0  0  0  0  0  0  0
   63.7895   34.5441   49.9196 H   0  0  0  0  0  0  0  0  0  0  0  0
   64.8967   33.1387   50.3285 H   0  0  0  0  0  0  0  0  0  0  0  0
  1  2  1  0
  3  2  1  1
  3  4  1  0
  4  5  1  0
  4  6  1  0
  4  7  1  0
  7  8  1  0
  8  9  1  0
  8 10  2  0
  7 11  2  0
 11 12  1  0
 11 13  1  0
 13 14  1  1
 13 15  1  0
 15 16  2  0
 16 17  1  0
 16 18  1  0
 18 19  1  0
 18 20  1  0
 18 21  1  0
 21 22  2  0
 21 23  1  0
 23 24  2  0
 23 25  1  0
 25 26  1  0
 26 27  1  6
 26 28  1  0
 28 29  1  0
 28 30  2  0
 26 31  1  0
 31 32  2  0
 32 33  1  0
 32 34  1  0
 34 35  1  0
 34 36  2  0
 36 37  1  0
 36 38  1  0
 38 39  1  0
 38 40  2  0
 40 41  1  0
 15 42  1  0
 42 43  1  0
 42 44  1  0
 42 45  1  0
 13 46  1  0
 46 47  1  6
 46 48  1  0
 48 49  1  0
 48 50  2  0
 50 51  1  0
 51 52  1  0
 51 53  1  0
 51 54  1  0
 50 55  1  0
 55 56  1  0
 55 57  1  0
 55 58  1  0
 58 59  1  0
 58 60  1  0
 46  3  1  0
 58  3  1  0
 40 31  1  0
M  END
>  <UniqueID>  (70) 
62

>  <SMILES>  (70) 
CC1=C[C@@H]2[C@H](/C(C)=C\CC(=O)C(=O)OC(C=O)c3ccccc3)C=C(C=O)CC2(O)CC1

>  <Energy>  (70) 
69.33348546567808

>  <Genealogy>  (70) 
CC1=C[C@@H]2[C@H](C(C)=CCC(=O)C(=O)OC(C=O)c3ccccc3)C=C(C=O)CC2(O)CC1 (chirality)
CC1=C[C@@H]2[C@H](/C(C)=C\CC(=O)C(=O)OC(C=O)c3ccccc3)C=C(C=O)CC2(O)CC1 (cis-trans isomerization)
CC1=C[C@@H]2[C@H](/C(C)=C\CC(=O)C(=O)OC(C=O)c3ccccc3)C=C(C=O)CC2(O)CC1 (3D coordinates assigned)
CC1=C[C@@H]2[C@H](/C(C)=C\CC(=O)C(=O)OC(C=O)c3ccccc3)C=C(C=O)CC2(O)CC1 (nonaromatic ring conformer: 69.33348546567808 kcal/mol)

>  <smiles>  (70) 
CC1=CC2C(C(C)=CCC(=O)C(=O)OC(C=O)c3ccccc3)C=C(C=O)CC2(O)CC1

>  <score_type>  (70) 
oracle

>  <origin>  (70) 
adg

>  <m_score__min__energy>  (70) 
-10.27

>  <m_primary>  (70) 
energy

$$$$
70:0
     RDKit          3D

 47 50  0  0  0  0  0  0  0  0999 V2000
   60.2662   30.1173   45.0591 H   0  0  0  0  0  0  0  0  0  0  0  0
   59.6770   29.1920   45.1410 C   0  0  0  0  0  0  0  0  0  0  0  0
   60.1836   28.2306   45.3115 H   0  0  0  0  0  0  0  0  0  0  0  0
   58.3420   29.2360   45.0330 C   0  0  0  0  0  0  0  0  0  0  0  0
   57.4520   28.1640   45.1120 C   0  0  0  0  0  0  0  0  0  0  0  0
   57.7530   26.8770   45.3590 C   0  0  0  0  0  0  0  0  0  0  0  0
   58.7727   26.6403   45.6969 H   0  0  0  0  0  0  0  0  0  0  0  0
   56.7970   25.7620   45.2040 C   0  0  0  0  0  0  0  0  0  0  0  0
   57.0960   24.6330   44.5270 N   0  0  0  0  0  0  0  0  0  0  0  0
   55.9560   23.9110   44.5780 C   0  0  0  0  0  0  0  0  0  0  0  0
   55.8510   22.7620   44.0690 O   0  0  0  0  0  0  0  0  0  0  0  0
   54.9500   24.5340   45.2230 N   0  0  0  0  0  0  0  0  0  0  0  0
   53.6150   24.0180   45.5110 C   0  0  0  0  0  0  0  0  0  0  0  0
   53.4705   23.9622   46.6000 H   0  0  0  0  0  0  0  0  0  0  0  0
   52.8605   24.6893   45.0750 H   0  0  0  0  0  0  0  0  0  0  0  0
   53.5081   23.0138   45.0750 H   0  0  0  0  0  0  0  0  0  0  0  0
   55.4780   25.7020   45.6220 C   0  0  0  0  0  0  0  0  0  0  0  0
   54.7710   26.6900   46.2980 O   0  0  0  0  0  0  0  0  0  0  0  0
   56.1910   28.6200   44.9460 N   0  0  0  0  0  0  0  0  0  0  0  0
   56.3400   29.9460   44.7620 C   0  0  0  0  0  0  0  0  0  0  0  0
   55.3660   30.7180   44.5620 O   0  0  0  0  0  0  0  0  0  0  0  0
   57.6240   30.3620   44.8130 N   0  0  0  0  0  0  0  0  0  0  0  0
   58.1070   31.7320   44.5990 C   0  0  0  0  0  0  0  0  0  0  0  0
   58.7439   31.7557   43.7025 H   0  0  0  0  0  0  0  0  0  0  0  0
   57.2419   32.3983   44.4663 H   0  0  0  0  0  0  0  0  0  0  0  0
   58.9060   32.2000   45.7880 C   0  0  0  0  0  0  0  0  0  0  0  0
   58.8120   31.5330   47.0190 C   0  0  0  0  0  0  0  0  0  0  0  0
   58.1442   30.6649   47.1212 H   0  0  0  0  0  0  0  0  0  0  0  0
   59.5630   31.9660   48.1170 C   0  0  0  0  0  0  0  0  0  0  0  0
   59.4868   31.4314   49.0753 H   0  0  0  0  0  0  0  0  0  0  0  0
   60.4150   33.0800   48.0050 C   0  0  0  0  0  0  0  0  0  0  0  0
   61.2020   33.5220   49.1290 N   0  0  0  0  0  0  0  0  0  0  0  0
   60.8610   33.3890   50.4990 C   0  0  0  0  0  0  0  0  0  0  0  0
   59.7460   32.9620   50.8990 O   0  0  0  0  0  0  0  0  0  0  0  0
   61.9120   33.8860   51.4080 C   0  0  0  0  0  0  0  0  0  0  0  0
   62.2292   33.1013   52.1106 H   0  0  0  0  0  0  0  0  0  0  0  0
   61.5784   34.7264   52.0345 H   0  0  0  0  0  0  0  0  0  0  0  0
   63.0520   34.2630   50.4530 C   0  0  0  0  0  0  0  0  0  0  0  0
   63.8815   33.5477   50.5541 H   0  0  0  0  0  0  0  0  0  0  0  0
   63.4410   35.2659   50.6829 H   0  0  0  0  0  0  0  0  0  0  0  0
   62.4790   34.2100   49.0240 C   0  0  0  0  0  0  0  0  0  0  0  0
   63.1585   33.6553   48.3602 H   0  0  0  0  0  0  0  0  0  0  0  0
   62.3597   35.2181   48.6003 H   0  0  0  0  0  0  0  0  0  0  0  0
   60.5120   33.7370   46.7680 C   0  0  0  0  0  0  0  0  0  0  0  0
   61.1860   34.5996   46.6605 H   0  0  0  0  0  0  0  0  0  0  0  0
   59.7600   33.3050   45.6720 C   0  0  0  0  0  0  0  0  0  0  0  0
   59.8390   33.8359   44.7119 H   0  0  0  0  0  0  0  0  0  0  0  0
  1  2  1  0
  2  3  1  0
  2  4  2  0
  4  5  1  0
  5  6  2  0
  6  7  1  0
  6  8  1  0
  8  9  1  0
  9 10  1  0
 10 11  2  0
 10 12  1  0
 12 13  1  0
 13 14  1  0
 13 15  1  0
 13 16  1  0
 12 17  1  0
 17 18  1  0
  5 19  1  0
 19 20  1  0
 20 21  2  0
 20 22  1  0
 22 23  1  0
 23 24  1  0
 23 25  1  0
 23 26  1  0
 26 27  2  0
 27 28  1  0
 27 29  1  0
 29 30  1  0
 29 31  2  0
 31 32  1  0
 32 33  1  0
 33 34  2  0
 33 35  1  0
 35 36  1  0
 35 37  1  0
 35 38  1  0
 38 39  1  0
 38 40  1  0
 38 41  1  0
 41 42  1  0
 41 43  1  0
 31 44  1  0
 44 45  1  0
 44 46  2  0
 46 47  1  0
 22  4  1  0
 46 26  1  0
 17  8  2  0
 41 32  1  0
M  CHG  3   9  -1  18  -1  19  -1
M  END
>  <UniqueID>  (71) 
63

>  <SMILES>  (71) 
C=c1/c(=C/c2[n-]c(=O)n(C)c2[O-])[n-]c(=O)n1Cc1ccc(N2CCCC2=O)cc1

>  <Energy>  (71) 
129.94247699952797

>  <Genealogy>  (71) 
C=c1c(=Cc2[n-]c(=O)n(C)c2[O-])[n-]c(=O)n1Cc1ccc(N2CCCC2=O)cc1 (protonated)
C=c1/c(=C/c2[n-]c(=O)n(C)c2[O-])[n-]c(=O)n1Cc1ccc(N2CCCC2=O)cc1 (cis-trans isomerization)
C=c1/c(=C/c2[n-]c(=O)n(C)c2[O-])[n-]c(=O)n1Cc1ccc(N2CCCC2=O)cc1 (3D coordinates assigned)
C=c1/c(=C/c2[n-]c(=O)n(C)c2[O-])[n-]c(=O)n1Cc1ccc(N2CCCC2=O)cc1 (nonaromatic ring conformer: 129.94247699952797 kcal/mol)

>  <smiles>  (71) 
C=c1c(=Cc2[nH]c(=O)n(C)c2O)[nH]c(=O)n1Cc1ccc(N2CCCC2=O)cc1

>  <score_type>  (71) 
oracle

>  <origin>  (71) 
adg

>  <m_score__min__energy>  (71) 
-14.869999999999999

>  <m_primary>  (71) 
energy

$$$$
71:0
     RDKit          3D

 53 56  0  0  0  0  0  0  0  0999 V2000
   59.5350   35.7960   45.0560 O   0  0  0  0  0  0  0  0  0  0  0  0
   59.5670   34.7470   45.7520 C   0  0  0  0  0  0  0  0  0  0  0  0
   60.2990   34.7720   46.9870 N   0  0  0  0  0  0  0  0  0  0  0  0
   61.2610   33.8050   47.4390 C   0  0  0  0  0  0  0  0  0  0  0  0
   62.4410   33.5650   46.7070 C   0  0  0  0  0  0  0  0  0  0  0  0
   63.4070   32.6810   47.1910 C   0  0  0  0  0  0  0  0  0  0  0  0
   63.2230   32.0480   48.4210 C   0  0  0  0  0  0  0  0  0  0  0  0
   62.0720   32.2990   49.1700 C   0  0  0  0  0  0  0  0  0  0  0  0
   61.0810   33.1690   48.6860 C   0  0  0  0  0  0  0  0  0  0  0  0
   59.8930   33.4280   49.5260 C   0  0  0  0  0  0  0  0  0  0  0  0
   59.5590   34.6160   49.7780 O   0  0  0  0  0  0  0  0  0  0  0  0
   59.1550   32.3580   50.1200 N   0  0  0  0  0  0  0  0  0  0  0  0
   57.9920   32.2410   51.0170 C   0  0  0  0  0  0  0  0  0  0  0  0
   58.1210   30.7720   51.2570 C   0  0  0  0  0  0  0  0  0  0  0  0
   59.2920   30.9050   50.3420 C   0  0  0  0  0  0  0  0  0  0  0  0
   58.8080   33.5540   45.2990 C   0  0  0  0  0  0  0  0  0  0  0  0
   58.4500   33.3870   43.9480 C   0  0  0  0  0  0  0  0  0  0  0  0
   57.7500   32.2510   43.5360 C   0  0  0  0  0  0  0  0  0  0  0  0
   57.4020   31.2610   44.4620 C   0  0  0  0  0  0  0  0  0  0  0  0
   56.5390   29.8230   43.9200 S   0  0  0  0  0  0  0  0  0  0  0  0
   55.4630   29.4580   44.9050 O   0  0  0  0  0  0  0  0  0  0  0  0
   55.8890   30.1250   42.5990 O   0  0  0  0  0  0  0  0  0  0  0  0
   57.6310   28.4810   43.7190 N   0  0  0  0  0  0  0  0  0  0  0  0
   57.7650   27.7060   44.9560 C   0  0  0  0  0  0  0  0  0  0  0  0
   58.7840   28.3260   45.8750 C   0  0  0  0  0  0  0  0  0  0  0  0
   58.6840   28.1400   47.2640 C   0  0  0  0  0  0  0  0  0  0  0  0
   59.6200   28.7240   48.1240 C   0  0  0  0  0  0  0  0  0  0  0  0
   60.6650   29.4950   47.6020 C   0  0  0  0  0  0  0  0  0  0  0  0
   60.7740   29.6790   46.2210 C   0  0  0  0  0  0  0  0  0  0  0  0
   59.8400   29.0960   45.3580 C   0  0  0  0  0  0  0  0  0  0  0  0
   57.7660   31.4140   45.8060 C   0  0  0  0  0  0  0  0  0  0  0  0
   58.4680   32.5480   46.2200 C   0  0  0  0  0  0  0  0  0  0  0  0
   62.6021   34.0779   45.7473 H   0  0  0  0  0  0  0  0  0  0  0  0
   64.3146   32.4831   46.6019 H   0  0  0  0  0  0  0  0  0  0  0  0
   63.9850   31.3512   48.8004 H   0  0  0  0  0  0  0  0  0  0  0  0
   61.9400   31.8115   50.1472 H   0  0  0  0  0  0  0  0  0  0  0  0
   58.1049   32.8327   51.9374 H   0  0  0  0  0  0  0  0  0  0  0  0
   57.0263   32.6021   50.6335 H   0  0  0  0  0  0  0  0  0  0  0  0
   58.3568   30.4786   52.2906 H   0  0  0  0  0  0  0  0  0  0  0  0
   57.3038   30.0508   51.1086 H   0  0  0  0  0  0  0  0  0  0  0  0
   60.2423   30.6376   50.8273 H   0  0  0  0  0  0  0  0  0  0  0  0
   59.3056   30.2616   49.4499 H   0  0  0  0  0  0  0  0  0  0  0  0
   58.7236   34.1568   43.2114 H   0  0  0  0  0  0  0  0  0  0  0  0
   57.4708   32.1337   42.4785 H   0  0  0  0  0  0  0  0  0  0  0  0
   56.7917   27.6743   45.4676 H   0  0  0  0  0  0  0  0  0  0  0  0
   58.0987   26.6901   44.6980 H   0  0  0  0  0  0  0  0  0  0  0  0
   57.8656   27.5321   47.6773 H   0  0  0  0  0  0  0  0  0  0  0  0
   59.5347   28.5773   49.2108 H   0  0  0  0  0  0  0  0  0  0  0  0
   61.4000   29.9558   48.2783 H   0  0  0  0  0  0  0  0  0  0  0  0
   61.5964   30.2839   45.8114 H   0  0  0  0  0  0  0  0  0  0  0  0
   59.9324   29.2407   44.2715 H   0  0  0  0  0  0  0  0  0  0  0  0
   57.4979   30.6380   46.5380 H   0  0  0  0  0  0  0  0  0  0  0  0
   58.7574   32.6549   47.2759 H   0  0  0  0  0  0  0  0  0  0  0  0
  1  2  2  0
  2  3  1  0
  3  4  1  0
  4  5  2  0
  5  6  1  0
  6  7  2  0
  7  8  1  0
  8  9  2  0
  9 10  1  0
 10 11  2  0
 10 12  1  0
 12 13  1  0
 13 14  1  0
 14 15  1  0
  2 16  1  0
 16 17  2  0
 17 18  1  0
 18 19  2  0
 19 20  1  0
 20 21  2  0
 20 22  2  0
 20 23  1  0
 23 24  1  0
 24 25  1  0
 25 26  2  0
 26 27  1  0
 27 28  2  0
 28 29  1  0
 29 30  2  0
 19 31  1  0
 31 32  2  0
  9  4  1  0
 15 12  1  0
 32 16  1  0
 30 25  1  0
  5 33  1  0
  6 34  1  0
  7 35  1  0
  8 36  1  0
 13 37  1  0
 13 38  1  0
 14 39  1  0
 14 40  1  0
 15 41  1  0
 15 42  1  0
 17 43  1  0
 18 44  1  0
 24 45  1  0
 24 46  1  0
 26 47  1  0
 27 48  1  0
 28 49  1  0
 29 50  1  0
 30 51  1  0
 31 52  1  0
 32 53  1  0
M  CHG  2   3  -1  23  -1
M  END
>  <UniqueID>  (72) 
64

>  <SMILES>  (72) 
O=C([N-]c1ccccc1C(=O)N1CCC1)c1ccc(S(=O)(=O)[N-]Cc2ccccc2)cc1

>  <Energy>  (72) 
109.61339418779671

>  <Genealogy>  (72) 
O=C([N-]c1ccccc1C(=O)N1CCC1)c1ccc(S(=O)(=O)[N-]Cc2ccccc2)cc1 (protonated)
O=C([N-]c1ccccc1C(=O)N1CCC1)c1ccc(S(=O)(=O)[N-]Cc2ccccc2)cc1 (3D coordinates assigned)
O=C([N-]c1ccccc1C(=O)N1CCC1)c1ccc(S(=O)(=O)[N-]Cc2ccccc2)cc1 (nonaromatic ring conformer: 109.61339418779671 kcal/mol)

>  <smiles>  (72) 
O=C(Nc1ccccc1C(=O)N1CCC1)c1ccc(S(=O)(=O)NCc2ccccc2)cc1

>  <score_type>  (72) 
oracle

>  <origin>  (72) 
adg

>  <m_score__min__energy>  (72) 
-11.869999999999999

>  <m_primary>  (72) 
energy

$$$$
72:0
     RDKit          3D

 71 75  0  0  0  0  0  0  0  0999 V2000
   61.1920   26.3570   47.5630 O   0  0  0  0  0  0  0  0  0  0  0  0
   60.2480   27.0930   47.9580 C   0  0  0  0  0  0  0  0  0  0  0  0
   58.9990   27.1580   47.1710 C   0  0  0  0  0  0  0  0  0  0  0  0
   57.9170   26.3230   47.4890 C   0  0  0  0  0  0  0  0  0  0  0  0
   56.7560   26.3500   46.7120 C   0  0  0  0  0  0  0  0  0  0  0  0
   56.6620   27.2170   45.6220 C   0  0  0  0  0  0  0  0  0  0  0  0
   57.7190   28.0800   45.3100 C   0  0  0  0  0  0  0  0  0  0  0  0
   57.5530   28.9950   44.2190 N   0  0  0  0  0  0  0  0  0  0  0  0
   57.1200   30.6740   44.3400 S   0  0  0  0  0  0  0  0  0  0  0  0
   57.2150   31.3610   43.0070 O   0  0  0  0  0  0  0  0  0  0  0  0
   55.6930   30.7440   44.8060 O   0  0  0  0  0  0  0  0  0  0  0  0
   58.1520   31.4810   45.5240 C   0  0  0  0  0  0  0  0  0  0  0  0
   59.3820   30.9200   45.8970 C   0  0  0  0  0  0  0  0  0  0  0  0
   60.1560   31.5130   46.8970 C   0  0  0  0  0  0  0  0  0  0  0  0
   59.7090   32.6770   47.5370 C   0  0  0  0  0  0  0  0  0  0  0  0
   60.5100   33.2670   48.6260 C   0  0  0  0  0  0  0  0  0  0  0  0
   60.1330   33.0620   49.8130 O   0  0  0  0  0  0  0  0  0  0  0  0
   61.6980   34.0690   48.3790 N   0  0  0  0  0  0  0  0  0  0  0  0
   62.6450   34.0540   49.5250 C   0  0  0  0  0  0  0  0  0  0  0  0
   63.8580   33.1360   49.2890 C   0  0  0  0  0  0  0  0  0  0  0  0
   63.4960   32.0460   48.4750 O   0  0  0  0  0  0  0  0  0  0  0  0
   63.2550   32.4910   47.1530 C   0  0  0  0  0  0  0  0  0  0  0  0
   62.3450   33.7440   47.0850 C   0  0  0  0  0  0  0  0  0  0  0  0
   58.5110   33.2760   47.1220 C   0  0  0  0  0  0  0  0  0  0  0  0
   57.7340   32.6780   46.1250 C   0  0  0  0  0  0  0  0  0  0  0  0
   58.8980   28.0310   46.0760 C   0  0  0  0  0  0  0  0  0  0  0  0
   60.4010   27.8530   49.1660 N   0  0  0  0  0  0  0  0  0  0  0  0
   61.1430   27.2860   50.2970 C   0  0  0  0  0  0  0  0  0  0  0  0
   60.8100   28.0550   51.5810 C   0  0  0  0  0  0  0  0  0  0  0  0
   61.0750   29.5080   51.4480 N   0  0  0  0  0  0  0  0  0  0  0  0
   60.4240   30.3220   52.5020 C   0  0  0  0  0  0  0  0  0  0  0  0
   58.9180   30.4270   52.3540 C   0  0  0  0  0  0  0  0  0  0  0  0
   58.0790   29.4070   52.8420 C   0  0  0  0  0  0  0  0  0  0  0  0
   56.6880   29.5190   52.7340 C   0  0  0  0  0  0  0  0  0  0  0  0
   56.1200   30.6400   52.1220 C   0  0  0  0  0  0  0  0  0  0  0  0
   54.3760   30.7840   51.9940 Cl  0  0  0  0  0  0  0  0  0  0  0  0
   56.9460   31.6410   51.5960 C   0  0  0  0  0  0  0  0  0  0  0  0
   58.3360   31.5310   51.7040 C   0  0  0  0  0  0  0  0  0  0  0  0
   60.9450   30.0590   50.0780 C   0  0  0  0  0  0  0  0  0  0  0  0
   59.9660   29.2530   49.2170 C   0  0  0  0  0  0  0  0  0  0  0  0
   57.9830   25.6450   48.3527 H   0  0  0  0  0  0  0  0  0  0  0  0
   55.9143   25.6866   46.9598 H   0  0  0  0  0  0  0  0  0  0  0  0
   55.7517   27.2220   45.0045 H   0  0  0  0  0  0  0  0  0  0  0  0
   59.7396   30.0069   45.3987 H   0  0  0  0  0  0  0  0  0  0  0  0
   61.1191   31.0652   47.1831 H   0  0  0  0  0  0  0  0  0  0  0  0
   61.3640   35.0600   48.2840 H   0  0  0  0  0  0  0  0  0  0  0  0
   63.0080   35.0786   49.6936 H   0  0  0  0  0  0  0  0  0  0  0  0
   62.1007   33.6633   50.3974 H   0  0  0  0  0  0  0  0  0  0  0  0
   64.6557   33.7092   48.7939 H   0  0  0  0  0  0  0  0  0  0  0  0
   64.2124   32.7558   50.2585 H   0  0  0  0  0  0  0  0  0  0  0  0
   64.2202   32.7345   46.6850 H   0  0  0  0  0  0  0  0  0  0  0  0
   62.7323   31.6793   46.6258 H   0  0  0  0  0  0  0  0  0  0  0  0
   62.9570   34.6038   46.7748 H   0  0  0  0  0  0  0  0  0  0  0  0
   61.5426   33.5256   46.3649 H   0  0  0  0  0  0  0  0  0  0  0  0
   58.1814   34.2192   47.5822 H   0  0  0  0  0  0  0  0  0  0  0  0
   56.7906   33.1482   45.8104 H   0  0  0  0  0  0  0  0  0  0  0  0
   59.7463   28.6809   45.8153 H   0  0  0  0  0  0  0  0  0  0  0  0
   60.8642   26.2293   50.4226 H   0  0  0  0  0  0  0  0  0  0  0  0
   62.2218   27.3661   50.0976 H   0  0  0  0  0  0  0  0  0  0  0  0
   59.7452   27.9090   51.8154 H   0  0  0  0  0  0  0  0  0  0  0  0
   61.4534   27.6663   52.3841 H   0  0  0  0  0  0  0  0  0  0  0  0
   60.6453   29.8659   53.4782 H   0  0  0  0  0  0  0  0  0  0  0  0
   60.8259   31.3420   52.4121 H   0  0  0  0  0  0  0  0  0  0  0  0
   58.5200   28.5154   53.3116 H   0  0  0  0  0  0  0  0  0  0  0  0
   56.0406   28.7234   53.1315 H   0  0  0  0  0  0  0  0  0  0  0  0
   56.5011   32.5147   51.0974 H   0  0  0  0  0  0  0  0  0  0  0  0
   58.9798   32.3142   51.2772 H   0  0  0  0  0  0  0  0  0  0  0  0
   60.5847   31.0960   50.1466 H   0  0  0  0  0  0  0  0  0  0  0  0
   61.9342   30.0081   49.5997 H   0  0  0  0  0  0  0  0  0  0  0  0
   58.9591   29.3087   49.6563 H   0  0  0  0  0  0  0  0  0  0  0  0
   59.9441   29.6684   48.1987 H   0  0  0  0  0  0  0  0  0  0  0  0
  1  2  2  0
  2  3  1  0
  3  4  2  0
  4  5  1  0
  5  6  2  0
  6  7  1  0
  7  8  1  0
  8  9  1  0
  9 10  2  0
  9 11  2  0
  9 12  1  0
 12 13  2  0
 13 14  1  0
 14 15  2  0
 15 16  1  0
 16 17  2  0
 16 18  1  0
 18 19  1  0
 19 20  1  0
 20 21  1  0
 21 22  1  0
 22 23  1  0
 15 24  1  0
 24 25  2  0
  7 26  2  0
  2 27  1  0
 27 28  1  0
 28 29  1  0
 29 30  1  0
 30 31  1  0
 31 32  1  0
 32 33  2  0
 33 34  1  0
 34 35  2  0
 35 36  1  0
 35 37  1  0
 37 38  2  0
 30 39  1  0
 39 40  1  0
 26  3  1  0
 40 27  1  0
 25 12  1  0
 38 32  1  0
 23 18  1  0
  4 41  1  0
  5 42  1  0
  6 43  1  0
 13 44  1  0
 14 45  1  0
 18 46  1  0
 19 47  1  0
 19 48  1  0
 20 49  1  0
 20 50  1  0
 22 51  1  0
 22 52  1  0
 23 53  1  0
 23 54  1  0
 24 55  1  0
 25 56  1  0
 26 57  1  0
 28 58  1  0
 28 59  1  0
 29 60  1  0
 29 61  1  0
 31 62  1  0
 31 63  1  0
 33 64  1  0
 34 65  1  0
 37 66  1  0
 38 67  1  0
 39 68  1  0
 39 69  1  0
 40 70  1  0
 40 71  1  0
M  CHG  2   8  -1  18   1
M  END
>  <UniqueID>  (73) 
65

>  <SMILES>  (73) 
O=C(c1cccc([N-]S(=O)(=O)c2ccc(C(=O)[NH+]3CCOCC3)cc2)c1)N1CCN(Cc2ccc(Cl)cc2)CC1

>  <Energy>  (73) 
118.09218694251697

>  <Genealogy>  (73) 
O=C(c1cccc([N-]S(=O)(=O)c2ccc(C(=O)[NH+]3CCOCC3)cc2)c1)N1CCN(Cc2ccc(Cl)cc2)CC1 (protonated)
O=C(c1cccc([N-]S(=O)(=O)c2ccc(C(=O)[NH+]3CCOCC3)cc2)c1)N1CCN(Cc2ccc(Cl)cc2)CC1 (3D coordinates assigned)
O=C(c1cccc([N-]S(=O)(=O)c2ccc(C(=O)[NH+]3CCOCC3)cc2)c1)N1CCN(Cc2ccc(Cl)cc2)CC1 (nonaromatic ring conformer: 118.09218694251697 kcal/mol)

>  <smiles>  (73) 
O=C(c1ccc(S(=O)(=O)Nc2cccc(C(=O)N3CCN(Cc4ccc(Cl)cc4)CC3)c2)cc1)N1CCOCC1

>  <score_type>  (73) 
oracle

>  <origin>  (73) 
adg

>  <m_score__min__energy>  (73) 
-10.56

>  <m_primary>  (73) 
energy

$$$$
73:0
     RDKit          3D

 59 61  0  0  0  0  0  0  0  0999 V2000
   56.9370   20.8690   42.8650 C   0  0  0  0  0  0  0  0  0  0  0  0
   56.8800   21.1580   44.3620 C   0  0  0  0  0  0  0  0  0  0  0  0
   57.3460   22.5170   44.6340 N   0  0  0  0  0  0  0  0  0  0  0  0
   58.4400   22.7770   45.3390 N   0  0  0  0  0  0  0  0  0  0  0  0
   58.5940   24.1160   45.3830 C   0  0  0  0  0  0  0  0  0  0  0  0
   59.7760   24.7930   46.0000 C   0  0  0  0  0  0  0  0  0  0  0  0
   57.5640   24.7130   44.6760 C   0  0  0  0  0  0  0  0  0  0  0  0
   57.3880   26.1090   44.4030 N   0  0  0  0  0  0  0  0  0  0  0  0
   57.2930   27.0870   45.4490 C   0  0  0  0  0  0  0  0  0  0  0  0
   56.9880   26.7210   46.6180 O   0  0  0  0  0  0  0  0  0  0  0  0
   57.5050   28.5250   45.1630 C   0  0  0  0  0  0  0  0  0  0  0  0
   56.4510   29.3280   44.6930 C   0  0  0  0  0  0  0  0  0  0  0  0
   56.6600   30.6820   44.4200 C   0  0  0  0  0  0  0  0  0  0  0  0
   57.9210   31.2620   44.6190 C   0  0  0  0  0  0  0  0  0  0  0  0
   58.1390   32.7250   44.3250 C   0  0  0  0  0  0  0  0  0  0  0  0
   57.7910   33.5640   45.4880 N   0  0  0  0  0  0  0  0  0  0  0  0
   56.6480   34.4380   45.1720 C   0  0  0  0  0  0  0  0  0  0  0  0
   59.1700   34.5500   45.9460 S   0  0  0  0  0  0  0  0  0  0  0  0
   59.4870   35.5560   44.8720 O   0  0  0  0  0  0  0  0  0  0  0  0
   58.8890   35.2930   47.2240 O   0  0  0  0  0  0  0  0  0  0  0  0
   60.6010   33.5200   46.2310 C   0  0  0  0  0  0  0  0  0  0  0  0
   60.3010   32.4230   47.2140 C   0  0  0  0  0  0  0  0  0  0  0  0
   61.1690   31.3240   47.3380 C   0  0  0  0  0  0  0  0  0  0  0  0
   60.8780   30.2940   48.2400 C   0  0  0  0  0  0  0  0  0  0  0  0
   59.7200   30.3530   49.0180 C   0  0  0  0  0  0  0  0  0  0  0  0
   58.8510   31.4420   48.8980 C   0  0  0  0  0  0  0  0  0  0  0  0
   59.1390   32.4740   47.9990 C   0  0  0  0  0  0  0  0  0  0  0  0
   58.9800   30.4610   45.0750 C   0  0  0  0  0  0  0  0  0  0  0  0
   58.7750   29.1040   45.3400 C   0  0  0  0  0  0  0  0  0  0  0  0
   56.8070   23.6710   44.1810 C   0  0  0  0  0  0  0  0  0  0  0  0
   55.5350   23.7850   43.3930 C   0  0  0  0  0  0  0  0  0  0  0  0
   57.1476   19.8012   42.7055 H   0  0  0  0  0  0  0  0  0  0  0  0
   55.9711   21.1249   42.4051 H   0  0  0  0  0  0  0  0  0  0  0  0
   57.7334   21.4725   42.4051 H   0  0  0  0  0  0  0  0  0  0  0  0
   55.8427   21.0529   44.7127 H   0  0  0  0  0  0  0  0  0  0  0  0
   57.5299   20.4443   44.8895 H   0  0  0  0  0  0  0  0  0  0  0  0
   59.6945   24.7463   47.0960 H   0  0  0  0  0  0  0  0  0  0  0  0
   60.6979   24.2860   45.6789 H   0  0  0  0  0  0  0  0  0  0  0  0
   59.8051   25.8447   45.6789 H   0  0  0  0  0  0  0  0  0  0  0  0
   57.1790   26.4000   43.4230 H   0  0  0  0  0  0  0  0  0  0  0  0
   55.4550   28.8871   44.5392 H   0  0  0  0  0  0  0  0  0  0  0  0
   55.8289   31.2979   44.0460 H   0  0  0  0  0  0  0  0  0  0  0  0
   59.1972   32.8856   44.0713 H   0  0  0  0  0  0  0  0  0  0  0  0
   57.4893   33.0105   43.4845 H   0  0  0  0  0  0  0  0  0  0  0  0
   56.1868   34.7907   46.1063 H   0  0  0  0  0  0  0  0  0  0  0  0
   56.9974   35.3014   44.5869 H   0  0  0  0  0  0  0  0  0  0  0  0
   55.9063   33.8745   44.5869 H   0  0  0  0  0  0  0  0  0  0  0  0
   60.9136   33.0700   45.2772 H   0  0  0  0  0  0  0  0  0  0  0  0
   61.4020   34.1483   46.6477 H   0  0  0  0  0  0  0  0  0  0  0  0
   62.0802   31.2734   46.7239 H   0  0  0  0  0  0  0  0  0  0  0  0
   61.5618   29.4377   48.3360 H   0  0  0  0  0  0  0  0  0  0  0  0
   59.4912   29.5425   49.7256 H   0  0  0  0  0  0  0  0  0  0  0  0
   57.9393   31.4871   49.5118 H   0  0  0  0  0  0  0  0  0  0  0  0
   58.4524   33.3284   47.9070 H   0  0  0  0  0  0  0  0  0  0  0  0
   59.9759   30.9035   45.2245 H   0  0  0  0  0  0  0  0  0  0  0  0
   59.6134   28.4837   45.6898 H   0  0  0  0  0  0  0  0  0  0  0  0
   54.6818   23.8615   44.0831 H   0  0  0  0  0  0  0  0  0  0  0  0
   55.5756   24.6831   42.7592 H   0  0  0  0  0  0  0  0  0  0  0  0
   55.4152   22.8940   42.7592 H   0  0  0  0  0  0  0  0  0  0  0  0
  1  2  1  0
  2  3  1  0
  3  4  1  0
  4  5  2  0
  5  6  1  0
  5  7  1  0
  7  8  1  0
  8  9  1  0
  9 10  2  0
  9 11  1  0
 11 12  2  0
 12 13  1  0
 13 14  2  0
 14 15  1  0
 15 16  1  0
 16 17  1  0
 16 18  1  0
 18 19  2  0
 18 20  2  0
 18 21  1  0
 21 22  1  0
 22 23  2  0
 23 24  1  0
 24 25  2  0
 25 26  1  0
 26 27  2  0
 14 28  1  0
 28 29  2  0
  7 30  2  0
 30 31  1  0
 30  3  1  0
 29 11  1  0
 27 22  1  0
  1 32  1  0
  1 33  1  0
  1 34  1  0
  2 35  1  0
  2 36  1  0
  6 37  1  0
  6 38  1  0
  6 39  1  0
  8 40  1  0
 12 41  1  0
 13 42  1  0
 15 43  1  0
 15 44  1  0
 17 45  1  0
 17 46  1  0
 17 47  1  0
 21 48  1  0
 21 49  1  0
 23 50  1  0
 24 51  1  0
 25 52  1  0
 26 53  1  0
 27 54  1  0
 28 55  1  0
 29 56  1  0
 31 57  1  0
 31 58  1  0
 31 59  1  0
M  END
>  <UniqueID>  (74) 
66

>  <SMILES>  (74) 
CCn1nc(C)c(NC(=O)c2ccc(CN(C)S(=O)(=O)Cc3ccccc3)cc2)c1C

>  <Energy>  (74) 
86.92729684151314

>  <Genealogy>  (74) 
CCn1nc(C)c(NC(=O)c2ccc(CN(C)S(=O)(=O)Cc3ccccc3)cc2)c1C (3D coordinates assigned)
CCn1nc(C)c(NC(=O)c2ccc(CN(C)S(=O)(=O)Cc3ccccc3)cc2)c1C (optimized conformer: 86.92729684151314 kcal/mol)

>  <smiles>  (74) 
CCn1nc(C)c(NC(=O)c2ccc(CN(C)S(=O)(=O)Cc3ccccc3)cc2)c1C

>  <score_type>  (74) 
oracle

>  <origin>  (74) 
adg

>  <m_score__min__energy>  (74) 
-8.9199999999999999

>  <m_primary>  (74) 
energy

$$$$
74:0
     RDKit          3D

 63 68  0  0  0  0  0  0  0  0999 V2000
   63.0390   33.5860   47.2370 C   0  0  0  0  0  0  0  0  0  0  0  0
   61.5900   33.7530   47.1780 N   0  0  0  0  0  0  0  0  0  0  0  0
   60.9540   34.1200   46.0770 N   0  0  0  0  0  0  0  0  0  0  0  0
   59.6400   34.1720   46.3670 C   0  0  0  0  0  0  0  0  0  0  0  0
   58.5830   34.5670   45.3830 C   0  0  0  0  0  0  0  0  0  0  0  0
   58.1460   33.4410   44.4550 C   0  0  0  0  0  0  0  0  0  0  0  0
   57.2330   33.8920   45.5810 C   0  0  0  0  0  0  0  0  0  0  0  0
   59.4330   33.8510   47.6960 C   0  0  0  0  0  0  0  0  0  0  0  0
   60.6950   33.5600   48.1720 C   0  0  0  0  0  0  0  0  0  0  0  0
   60.9990   33.0870   49.5380 C   0  0  0  0  0  0  0  0  0  0  0  0
   61.1510   33.9270   50.4610 O   0  0  0  0  0  0  0  0  0  0  0  0
   61.1120   31.6930   49.8430 N   0  0  0  0  0  0  0  0  0  0  0  0
   60.2570   30.6760   49.3030 C   0  0  0  0  0  0  0  0  0  0  0  0
   60.5200   29.8420   47.8630 S   0  0  0  0  0  0  0  0  0  0  0  0
   59.0820   28.9800   48.0000 C   0  0  0  0  0  0  0  0  0  0  0  0
   58.6360   27.9920   47.0650 N   0  0  0  0  0  0  0  0  0  0  0  0
   58.8290   28.0970   45.6190 C   0  0  0  0  0  0  0  0  0  0  0  0
   58.2180   26.8460   45.1120 C   0  0  0  0  0  0  0  0  0  0  0  0
   58.1120   26.4240   43.7900 C   0  0  0  0  0  0  0  0  0  0  0  0
   57.4880   25.1960   43.5170 C   0  0  0  0  0  0  0  0  0  0  0  0
   57.3910   24.8130   42.2220 F   0  0  0  0  0  0  0  0  0  0  0  0
   56.9760   24.3990   44.5830 C   0  0  0  0  0  0  0  0  0  0  0  0
   56.3470   23.1540   44.4010 O   0  0  0  0  0  0  0  0  0  0  0  0
   56.9480   21.9520   43.9130 C   0  0  0  0  0  0  0  0  0  0  0  0
   56.3970   20.7230   44.6710 C   0  0  0  0  0  0  0  0  0  0  0  0
   57.1930   20.4330   45.9570 C   0  0  0  0  0  0  0  0  0  0  0  0
   57.7950   21.6130   46.4490 O   0  0  0  0  0  0  0  0  0  0  0  0
   58.8610   22.0070   45.5980 C   0  0  0  0  0  0  0  0  0  0  0  0
   58.4660   22.0470   44.1020 C   0  0  0  0  0  0  0  0  0  0  0  0
   57.1010   24.8630   45.9060 C   0  0  0  0  0  0  0  0  0  0  0  0
   57.7240   26.0880   46.1430 C   0  0  0  0  0  0  0  0  0  0  0  0
   57.9430   26.7630   47.4490 C   0  0  0  0  0  0  0  0  0  0  0  0
   58.3900   29.3200   49.1100 N   0  0  0  0  0  0  0  0  0  0  0  0
   59.0310   30.2740   49.8420 C   0  0  0  0  0  0  0  0  0  0  0  0
   58.4580   30.7990   51.0980 C   0  0  0  0  0  0  0  0  0  0  0  0
   59.0440   31.9290   51.7480 N   0  0  0  0  0  0  0  0  0  0  0  0
   57.4410   30.2570   51.6080 O   0  0  0  0  0  0  0  0  0  0  0  0
   63.3613   33.5489   48.2881 H   0  0  0  0  0  0  0  0  0  0  0  0
   63.3209   32.6494   46.7337 H   0  0  0  0  0  0  0  0  0  0  0  0
   63.5266   34.4339   46.7337 H   0  0  0  0  0  0  0  0  0  0  0  0
   58.9191   35.6065   45.2550 H   0  0  0  0  0  0  0  0  0  0  0  0
   57.8807   33.6611   43.4104 H   0  0  0  0  0  0  0  0  0  0  0  0
   58.5784   32.4789   44.1427 H   0  0  0  0  0  0  0  0  0  0  0  0
   56.3063   34.4385   45.3518 H   0  0  0  0  0  0  0  0  0  0  0  0
   56.7304   33.3914   46.4217 H   0  0  0  0  0  0  0  0  0  0  0  0
   58.4811   33.8320   48.2470 H   0  0  0  0  0  0  0  0  0  0  0  0
   58.3146   28.9810   45.2142 H   0  0  0  0  0  0  0  0  0  0  0  0
   59.8835   28.2142   45.3288 H   0  0  0  0  0  0  0  0  0  0  0  0
   58.5106   27.0424   42.9722 H   0  0  0  0  0  0  0  0  0  0  0  0
   56.7094   21.8319   42.8459 H   0  0  0  0  0  0  0  0  0  0  0  0
   55.3470   20.9123   44.9385 H   0  0  0  0  0  0  0  0  0  0  0  0
   56.4882   19.8480   44.0107 H   0  0  0  0  0  0  0  0  0  0  0  0
   56.5112   20.0301   46.7205 H   0  0  0  0  0  0  0  0  0  0  0  0
   57.9828   19.7027   45.7268 H   0  0  0  0  0  0  0  0  0  0  0  0
   59.1947   23.0113   45.8982 H   0  0  0  0  0  0  0  0  0  0  0  0
   59.6582   21.2567   45.7050 H   0  0  0  0  0  0  0  0  0  0  0  0
   58.8211   22.9919   43.6648 H   0  0  0  0  0  0  0  0  0  0  0  0
   58.9282   21.1828   43.6024 H   0  0  0  0  0  0  0  0  0  0  0  0
   56.7116   24.2659   46.7438 H   0  0  0  0  0  0  0  0  0  0  0  0
   56.9870   26.9856   47.9454 H   0  0  0  0  0  0  0  0  0  0  0  0
   58.5077   26.1503   48.1671 H   0  0  0  0  0  0  0  0  0  0  0  0
   59.8870   32.4010   51.3540 H   0  0  0  0  0  0  0  0  0  0  0  0
   58.6140   32.3140   52.6170 H   0  0  0  0  0  0  0  0  0  0  0  0
  1  2  1  0
  2  3  1  0
  3  4  2  0
  4  5  1  0
  5  6  1  0
  6  7  1  0
  4  8  1  0
  8  9  2  0
  9 10  1  0
 10 11  2  0
 10 12  1  0
 12 13  1  0
 13 14  1  0
 14 15  1  0
 15 16  1  0
 16 17  1  0
 17 18  1  0
 18 19  2  0
 19 20  1  0
 20 21  1  0
 20 22  2  0
 22 23  1  0
 23 24  1  0
 24 25  1  0
 25 26  1  0
 26 27  1  0
 27 28  1  0
 28 29  1  0
 22 30  1  0
 30 31  2  0
 31 32  1  0
 15 33  2  0
 33 34  1  0
 34 35  1  0
 35 36  1  0
 35 37  2  0
  9  2  1  0
 34 13  2  0
  7  5  1  0
 32 16  1  0
 31 18  1  0
 29 24  1  0
  1 38  1  0
  1 39  1  0
  1 40  1  0
  5 41  1  0
  6 42  1  0
  6 43  1  0
  7 44  1  0
  7 45  1  0
  8 46  1  0
 17 47  1  0
 17 48  1  0
 19 49  1  0
 24 50  1  0
 25 51  1  0
 25 52  1  0
 26 53  1  0
 26 54  1  0
 28 55  1  0
 28 56  1  0
 29 57  1  0
 29 58  1  0
 30 59  1  0
 32 60  1  0
 32 61  1  0
 36 62  1  0
 36 63  1  0
M  CHG  1  12  -1
M  END
>  <UniqueID>  (75) 
67

>  <SMILES>  (75) 
Cn1nc(C2CC2)cc1C(=O)[N-]c1sc(N2Cc3cc(F)c(OC4CCOCC4)cc3C2)nc1C(N)=O

>  <Energy>  (75) 
414.1170206327506

>  <Genealogy>  (75) 
Cn1nc(C2CC2)cc1C(=O)[N-]c1sc(N2Cc3cc(F)c(OC4CCOCC4)cc3C2)nc1C(N)=O (protonated)
Cn1nc(C2CC2)cc1C(=O)[N-]c1sc(N2Cc3cc(F)c(OC4CCOCC4)cc3C2)nc1C(N)=O (3D coordinates assigned)
Cn1nc(C2CC2)cc1C(=O)[N-]c1sc(N2Cc3cc(F)c(OC4CCOCC4)cc3C2)nc1C(N)=O (nonaromatic ring conformer: 414.1170206327506 kcal/mol)

>  <smiles>  (75) 
Cn1nc(C2CC2)cc1C(=O)Nc1sc(N2Cc3cc(F)c(OC4CCOCC4)cc3C2)nc1C(N)=O

>  <score_type>  (75) 
oracle

>  <origin>  (75) 
adg

>  <m_score__min__energy>  (75) 
-10.15

>  <m_primary>  (75) 
energy

$$$$
75:0
     RDKit          3D

 47 49  0  0  0  0  0  0  0  0999 V2000
   55.1280   29.0550   44.4920 N   0  0  0  0  0  0  0  0  0  0  0  0
   56.5530   29.9920   44.2160 S   0  0  0  0  0  0  0  0  0  0  0  0
   56.3460   31.3840   44.7440 O   0  0  0  0  0  0  0  0  0  0  0  0
   56.8220   30.0730   42.7400 O   0  0  0  0  0  0  0  0  0  0  0  0
   57.9180   29.2440   45.0370 C   0  0  0  0  0  0  0  0  0  0  0  0
   58.9830   28.7190   44.2930 C   0  0  0  0  0  0  0  0  0  0  0  0
   60.0690   28.1280   44.9420 C   0  0  0  0  0  0  0  0  0  0  0  0
   60.1030   28.0640   46.3380 C   0  0  0  0  0  0  0  0  0  0  0  0
   59.0480   28.6000   47.0960 C   0  0  0  0  0  0  0  0  0  0  0  0
   59.0660   28.5150   48.5980 C   0  0  0  0  0  0  0  0  0  0  0  0
   59.6070   29.7430   49.1680 N   0  0  0  0  0  0  0  0  0  0  0  0
   59.3150   31.0480   48.6590 C   0  0  0  0  0  0  0  0  0  0  0  0
   58.5500   31.8200   49.2980 O   0  0  0  0  0  0  0  0  0  0  0  0
   59.9280   31.4780   47.4370 N   0  0  0  0  0  0  0  0  0  0  0  0
   59.5640   32.6850   46.7460 C   0  0  0  0  0  0  0  0  0  0  0  0
   58.3880   32.7390   45.9760 C   0  0  0  0  0  0  0  0  0  0  0  0
   58.0680   33.8880   45.2500 C   0  0  0  0  0  0  0  0  0  0  0  0
   58.9240   34.9900   45.2720 C   0  0  0  0  0  0  0  0  0  0  0  0
   60.1010   34.9460   46.0200 C   0  0  0  0  0  0  0  0  0  0  0  0
   60.4310   33.8000   46.7610 C   0  0  0  0  0  0  0  0  0  0  0  0
   61.6360   33.7760   47.5450 N   0  0  0  0  0  0  0  0  0  0  0  0
   62.9410   33.7430   46.8830 C   0  0  0  0  0  0  0  0  0  0  0  0
   63.9640   33.0750   47.8070 C   0  0  0  0  0  0  0  0  0  0  0  0
   63.9670   33.6900   49.0820 O   0  0  0  0  0  0  0  0  0  0  0  0
   62.7190   33.4830   49.7190 C   0  0  0  0  0  0  0  0  0  0  0  0
   61.5930   34.1830   48.9510 C   0  0  0  0  0  0  0  0  0  0  0  0
   57.9560   29.1870   46.4380 C   0  0  0  0  0  0  0  0  0  0  0  0
   54.7290   29.3690   45.4040 H   0  0  0  0  0  0  0  0  0  0  0  0
   58.9635   28.7726   43.1945 H   0  0  0  0  0  0  0  0  0  0  0  0
   60.8998   27.7118   44.3533 H   0  0  0  0  0  0  0  0  0  0  0  0
   60.9581   27.5927   46.8447 H   0  0  0  0  0  0  0  0  0  0  0  0
   58.0399   28.3658   48.9653 H   0  0  0  0  0  0  0  0  0  0  0  0
   59.7014   27.6697   48.9009 H   0  0  0  0  0  0  0  0  0  0  0  0
   60.7280   30.9130   47.0720 H   0  0  0  0  0  0  0  0  0  0  0  0
   57.7152   31.8693   45.9456 H   0  0  0  0  0  0  0  0  0  0  0  0
   57.1403   33.9246   44.6601 H   0  0  0  0  0  0  0  0  0  0  0  0
   58.6705   35.8942   44.6991 H   0  0  0  0  0  0  0  0  0  0  0  0
   60.7751   35.8152   46.0292 H   0  0  0  0  0  0  0  0  0  0  0  0
   62.8632   33.1705   45.9470 H   0  0  0  0  0  0  0  0  0  0  0  0
   63.2648   34.7699   46.6581 H   0  0  0  0  0  0  0  0  0  0  0  0
   63.7071   32.0114   47.9203 H   0  0  0  0  0  0  0  0  0  0  0  0
   64.9641   33.1822   47.3616 H   0  0  0  0  0  0  0  0  0  0  0  0
   62.5102   32.4038   49.7609 H   0  0  0  0  0  0  0  0  0  0  0  0
   62.7675   33.9035   50.7343 H   0  0  0  0  0  0  0  0  0  0  0  0
   60.6224   33.9009   49.3850 H   0  0  0  0  0  0  0  0  0  0  0  0
   61.7229   35.2730   49.0217 H   0  0  0  0  0  0  0  0  0  0  0  0
   57.1247   29.6050   47.0247 H   0  0  0  0  0  0  0  0  0  0  0  0
  1  2  1  0
  2  3  2  0
  2  4  2  0
  2  5  1  0
  5  6  2  0
  6  7  1  0
  7  8  2  0
  8  9  1  0
  9 10  1  0
 10 11  1  0
 11 12  1  0
 12 13  2  0
 12 14  1  0
 14 15  1  0
 15 16  2  0
 16 17  1  0
 17 18  2  0
 18 19  1  0
 19 20  2  0
 20 21  1  0
 21 22  1  0
 22 23  1  0
 23 24  1  0
 24 25  1  0
 25 26  1  0
  9 27  2  0
 27  5  1  0
 20 15  1  0
 26 21  1  0
  1 28  1  0
  6 29  1  0
  7 30  1  0
  8 31  1  0
 10 32  1  0
 10 33  1  0
 14 34  1  0
 16 35  1  0
 17 36  1  0
 18 37  1  0
 19 38  1  0
 22 39  1  0
 22 40  1  0
 23 41  1  0
 23 42  1  0
 25 43  1  0
 25 44  1  0
 26 45  1  0
 26 46  1  0
 27 47  1  0
M  CHG  2   1  -1  11  -1
M  END
>  <UniqueID>  (76) 
68

>  <SMILES>  (76) 
[NH-]S(=O)(=O)c1cccc(C[N-]C(=O)Nc2ccccc2N2CCOCC2)c1

>  <Energy>  (76) 
54.271198058413106

>  <Genealogy>  (76) 
[NH-]S(=O)(=O)c1cccc(C[N-]C(=O)Nc2ccccc2N2CCOCC2)c1 (protonated)
[NH-]S(=O)(=O)c1cccc(C[N-]C(=O)Nc2ccccc2N2CCOCC2)c1 (3D coordinates assigned)
[NH-]S(=O)(=O)c1cccc(C[N-]C(=O)Nc2ccccc2N2CCOCC2)c1 (nonaromatic ring conformer: 54.271198058413106 kcal/mol)

>  <smiles>  (76) 
NS(=O)(=O)c1cccc(CNC(=O)Nc2ccccc2N2CCOCC2)c1

>  <score_type>  (76) 
oracle

>  <origin>  (76) 
adg

>  <m_score__min__energy>  (76) 
-12.6

>  <m_primary>  (76) 
energy

$$$$
76:0
     RDKit          3D

 51 53  0  0  0  0  0  0  0  0999 V2000
   55.1510   29.1040   44.4950 O   0  0  0  0  0  0  0  0  0  0  0  0
   56.2390   29.6560   44.8110 C   0  0  0  0  0  0  0  0  0  0  0  0
   56.3310   31.0860   44.8370 N   0  0  0  0  0  0  0  0  0  0  0  0
   57.2910   31.8350   44.0320 C   0  0  0  0  0  0  0  0  0  0  0  0
   58.4280   32.3300   44.9290 C   0  0  0  0  0  0  0  0  0  0  0  0
   57.9700   33.8090   45.8270 S   0  0  0  0  0  0  0  0  0  0  0  0
   56.9910   33.4480   46.9110 O   0  0  0  0  0  0  0  0  0  0  0  0
   57.3020   34.7700   44.8830 O   0  0  0  0  0  0  0  0  0  0  0  0
   59.3610   34.5800   46.5610 N   0  0  0  0  0  0  0  0  0  0  0  0
   60.6480   34.1050   46.0070 C   0  0  0  0  0  0  0  0  0  0  0  0
   61.2390   32.8820   46.7410 C   0  0  0  0  0  0  0  0  0  0  0  0
   61.1080   32.9160   48.2960 C   0  0  0  0  0  0  0  0  0  0  0  0
   60.2330   31.8100   48.7900 N   0  0  0  0  0  0  0  0  0  0  0  0
   59.2750   31.3410   47.7780 C   0  0  0  0  0  0  0  0  0  0  0  0
   58.8970   29.9250   48.1610 C   0  0  0  0  0  0  0  0  0  0  0  0
   60.1040   29.3900   48.9030 C   0  0  0  0  0  0  0  0  0  0  0  0
   60.9850   30.6030   49.1750 C   0  0  0  0  0  0  0  0  0  0  0  0
   60.5850   34.3020   48.7380 C   0  0  0  0  0  0  0  0  0  0  0  0
   59.2620   34.6210   48.0360 C   0  0  0  0  0  0  0  0  0  0  0  0
   57.4090   28.8250   45.1670 C   0  0  0  0  0  0  0  0  0  0  0  0
   58.6870   29.1390   44.6660 C   0  0  0  0  0  0  0  0  0  0  0  0
   59.8040   28.3760   45.0360 C   0  0  0  0  0  0  0  0  0  0  0  0
   59.6540   27.2880   45.9000 C   0  0  0  0  0  0  0  0  0  0  0  0
   61.0460   26.3420   46.3720 Cl  0  0  0  0  0  0  0  0  0  0  0  0
   58.3880   26.9630   46.3980 C   0  0  0  0  0  0  0  0  0  0  0  0
   57.2720   27.7310   46.0410 C   0  0  0  0  0  0  0  0  0  0  0  0
   57.7003   31.1823   43.2469 H   0  0  0  0  0  0  0  0  0  0  0  0
   56.7885   32.6956   43.5662 H   0  0  0  0  0  0  0  0  0  0  0  0
   58.6822   31.5396   45.6506 H   0  0  0  0  0  0  0  0  0  0  0  0
   59.2887   32.5718   44.2881 H   0  0  0  0  0  0  0  0  0  0  0  0
   60.4904   33.8321   44.9531 H   0  0  0  0  0  0  0  0  0  0  0  0
   61.3685   34.9270   46.1307 H   0  0  0  0  0  0  0  0  0  0  0  0
   60.7223   31.9825   46.3751 H   0  0  0  0  0  0  0  0  0  0  0  0
   62.3174   32.8864   46.5243 H   0  0  0  0  0  0  0  0  0  0  0  0
   62.0998   32.7570   48.7444 H   0  0  0  0  0  0  0  0  0  0  0  0
   58.3824   31.9839   47.7740 H   0  0  0  0  0  0  0  0  0  0  0  0
   59.7150   31.3747   46.7704 H   0  0  0  0  0  0  0  0  0  0  0  0
   58.0100   29.9231   48.8115 H   0  0  0  0  0  0  0  0  0  0  0  0
   58.6429   29.3113   47.2842 H   0  0  0  0  0  0  0  0  0  0  0  0
   59.7965   28.9185   49.8481 H   0  0  0  0  0  0  0  0  0  0  0  0
   60.6345   28.6228   48.3200 H   0  0  0  0  0  0  0  0  0  0  0  0
   61.2390   30.6472   50.2444 H   0  0  0  0  0  0  0  0  0  0  0  0
   61.9178   30.5342   48.5961 H   0  0  0  0  0  0  0  0  0  0  0  0
   60.4265   34.2995   49.8265 H   0  0  0  0  0  0  0  0  0  0  0  0
   61.3271   35.0671   48.4663 H   0  0  0  0  0  0  0  0  0  0  0  0
   58.5097   33.8852   48.3566 H   0  0  0  0  0  0  0  0  0  0  0  0
   58.9819   35.6470   48.3166 H   0  0  0  0  0  0  0  0  0  0  0  0
   58.8101   29.9893   43.9791 H   0  0  0  0  0  0  0  0  0  0  0  0
   60.7994   28.6343   44.6456 H   0  0  0  0  0  0  0  0  0  0  0  0
   58.2683   26.1019   47.0719 H   0  0  0  0  0  0  0  0  0  0  0  0
   56.2817   27.4769   46.4469 H   0  0  0  0  0  0  0  0  0  0  0  0
  1  2  2  0
  2  3  1  0
  3  4  1  0
  4  5  1  0
  5  6  1  0
  6  7  2  0
  6  8  2  0
  6  9  1  0
  9 10  1  0
 10 11  1  0
 11 12  1  0
 12 13  1  0
 13 14  1  0
 14 15  1  0
 15 16  1  0
 16 17  1  0
 12 18  1  0
 18 19  1  0
  2 20  1  0
 20 21  2  0
 21 22  1  0
 22 23  2  0
 23 24  1  0
 23 25  1  0
 25 26  2  0
 19  9  1  0
 26 20  1  0
 17 13  1  0
  4 27  1  0
  4 28  1  0
  5 29  1  0
  5 30  1  0
 10 31  1  0
 10 32  1  0
 11 33  1  0
 11 34  1  0
 12 35  1  0
 14 36  1  0
 14 37  1  0
 15 38  1  0
 15 39  1  0
 16 40  1  0
 16 41  1  0
 17 42  1  0
 17 43  1  0
 18 44  1  0
 18 45  1  0
 19 46  1  0
 19 47  1  0
 21 48  1  0
 22 49  1  0
 25 50  1  0
 26 51  1  0
M  CHG  1   3  -1
M  END
>  <UniqueID>  (77) 
69

>  <SMILES>  (77) 
O=C([N-]CCS(=O)(=O)N1CCC(N2CCCC2)CC1)c1ccc(Cl)cc1

>  <Energy>  (77) 
57.10146169492729

>  <Genealogy>  (77) 
O=C([N-]CCS(=O)(=O)N1CCC(N2CCCC2)CC1)c1ccc(Cl)cc1 (protonated)
O=C([N-]CCS(=O)(=O)N1CCC(N2CCCC2)CC1)c1ccc(Cl)cc1 (3D coordinates assigned)
O=C([N-]CCS(=O)(=O)N1CCC(N2CCCC2)CC1)c1ccc(Cl)cc1 (nonaromatic ring conformer: 57.10146169492729 kcal/mol)

>  <smiles>  (77) 
O=C(NCCS(=O)(=O)N1CCC(N2CCCC2)CC1)c1ccc(Cl)cc1

>  <score_type>  (77) 
oracle

>  <origin>  (77) 
adg

>  <m_score__min__energy>  (77) 
-10.880000000000001

>  <m_primary>  (77) 
energy

$$$$
77:0
     RDKit          3D

 54 57  0  0  0  0  0  0  0  0999 V2000
   53.2730   27.9790   53.2250 C   0  0  0  0  0  0  0  0  0  0  0  0
   54.1200   29.0060   53.0570 C   0  0  0  0  0  0  0  0  0  0  0  0
   53.9340   30.1350   52.2430 C   0  0  0  0  0  0  0  0  0  0  0  0
   52.8440   30.5970   51.5970 C   0  0  0  0  0  0  0  0  0  0  0  0
   51.7760   31.4240   52.1820 C   0  0  0  0  0  0  0  0  0  0  0  0
   51.5090   31.5190   53.4980 N   0  0  0  0  0  0  0  0  0  0  0  0
   50.5590   32.4780   53.5570 C   0  0  0  0  0  0  0  0  0  0  0  0
   50.0310   32.8470   54.6390 O   0  0  0  0  0  0  0  0  0  0  0  0
   50.2290   33.0250   52.3650 N   0  0  0  0  0  0  0  0  0  0  0  0
   51.0200   32.3540   51.5090 C   0  0  0  0  0  0  0  0  0  0  0  0
   51.0480   32.5830   50.1430 O   0  0  0  0  0  0  0  0  0  0  0  0
   55.1520   30.7910   52.2080 C   0  0  0  0  0  0  0  0  0  0  0  0
   56.0100   30.0860   53.0220 C   0  0  0  0  0  0  0  0  0  0  0  0
   57.4110   30.4750   53.2680 C   0  0  0  0  0  0  0  0  0  0  0  0
   57.7860   30.6480   54.4580 O   0  0  0  0  0  0  0  0  0  0  0  0
   58.3440   30.6850   52.1860 N   0  0  0  0  0  0  0  0  0  0  0  0
   57.8990   31.2510   50.9010 C   0  0  0  0  0  0  0  0  0  0  0  0
   58.6060   30.5640   49.7200 C   0  0  0  0  0  0  0  0  0  0  0  0
   59.9910   30.1950   50.0510 N   0  0  0  0  0  0  0  0  0  0  0  0
   60.5900   29.0380   49.4360 C   0  0  0  0  0  0  0  0  0  0  0  0
   61.3690   28.3120   50.1110 O   0  0  0  0  0  0  0  0  0  0  0  0
   60.2710   28.6600   48.0840 N   0  0  0  0  0  0  0  0  0  0  0  0
   60.0420   27.2460   47.7710 C   0  0  0  0  0  0  0  0  0  0  0  0
   59.6950   27.0900   46.2890 C   0  0  0  0  0  0  0  0  0  0  0  0
   60.6780   27.7440   45.5140 O   0  0  0  0  0  0  0  0  0  0  0  0
   60.6330   29.1620   45.6820 C   0  0  0  0  0  0  0  0  0  0  0  0
   60.0760   29.6660   47.0360 C   0  0  0  0  0  0  0  0  0  0  0  0
   60.6230   30.8240   51.2150 C   0  0  0  0  0  0  0  0  0  0  0  0
   59.7820   30.5390   52.4610 C   0  0  0  0  0  0  0  0  0  0  0  0
   55.3800   29.0170   53.5630 N   0  0  0  0  0  0  0  0  0  0  0  0
   55.9420   28.0540   54.5160 C   0  0  0  0  0  0  0  0  0  0  0  0
   53.5403   27.1498   53.8965 H   0  0  0  0  0  0  0  0  0  0  0  0
   52.3113   27.9663   52.6912 H   0  0  0  0  0  0  0  0  0  0  0  0
   52.7438   30.3311   50.5343 H   0  0  0  0  0  0  0  0  0  0  0  0
   55.3894   31.7017   51.6386 H   0  0  0  0  0  0  0  0  0  0  0  0
   56.8128   31.1080   50.8021 H   0  0  0  0  0  0  0  0  0  0  0  0
   58.1506   32.3217   50.8845 H   0  0  0  0  0  0  0  0  0  0  0  0
   58.0493   29.6537   49.4527 H   0  0  0  0  0  0  0  0  0  0  0  0
   58.6330   31.2726   48.8791 H   0  0  0  0  0  0  0  0  0  0  0  0
   60.9525   26.6708   47.9949 H   0  0  0  0  0  0  0  0  0  0  0  0
   59.2061   26.8712   48.3800 H   0  0  0  0  0  0  0  0  0  0  0  0
   59.6694   26.0220   46.0269 H   0  0  0  0  0  0  0  0  0  0  0  0
   58.7089   27.5350   46.0899 H   0  0  0  0  0  0  0  0  0  0  0  0
   61.6580   29.5466   45.5753 H   0  0  0  0  0  0  0  0  0  0  0  0
   59.9333   29.5300   44.9172 H   0  0  0  0  0  0  0  0  0  0  0  0
   60.6005   30.5900   47.3206 H   0  0  0  0  0  0  0  0  0  0  0  0
   58.9983   29.8569   46.9257 H   0  0  0  0  0  0  0  0  0  0  0  0
   61.6339   30.4124   51.3517 H   0  0  0  0  0  0  0  0  0  0  0  0
   60.6907   31.9103   51.0560 H   0  0  0  0  0  0  0  0  0  0  0  0
   59.9789   29.5104   52.7975 H   0  0  0  0  0  0  0  0  0  0  0  0
   60.0601   31.2655   53.2387 H   0  0  0  0  0  0  0  0  0  0  0  0
   55.7429   28.3952   55.5426 H   0  0  0  0  0  0  0  0  0  0  0  0
   55.4766   27.0696   54.3601 H   0  0  0  0  0  0  0  0  0  0  0  0
   57.0280   27.9750   54.3601 H   0  0  0  0  0  0  0  0  0  0  0  0
  1  2  2  0
  2  3  1  0
  3  4  2  3
  4  5  1  0
  5  6  1  0
  6  7  1  0
  7  8  2  0
  7  9  1  0
  9 10  1  0
 10 11  1  0
  3 12  1  0
 12 13  2  0
 13 14  1  0
 14 15  2  0
 14 16  1  0
 16 17  1  0
 17 18  1  0
 18 19  1  0
 19 20  1  0
 20 21  2  0
 20 22  1  0
 22 23  1  0
 23 24  1  0
 24 25  1  0
 25 26  1  0
 26 27  1  0
 19 28  1  0
 28 29  1  0
 13 30  1  0
 30 31  1  0
 30  2  1  0
 10  5  2  0
 29 16  1  0
 27 22  1  0
  1 32  1  0
  1 33  1  0
  4 34  1  0
 12 35  1  0
 17 36  1  0
 17 37  1  0
 18 38  1  0
 18 39  1  0
 23 40  1  0
 23 41  1  0
 24 42  1  0
 24 43  1  0
 26 44  1  0
 26 45  1  0
 27 46  1  0
 27 47  1  0
 28 48  1  0
 28 49  1  0
 29 50  1  0
 29 51  1  0
 31 52  1  0
 31 53  1  0
 31 54  1  0
M  CHG  3   6  -1   9  -1  11  -1
M  END
>  <UniqueID>  (78) 
70

>  <SMILES>  (78) 
C=c1c(=Cc2[n-]c(=O)[n-]c2[O-])cc(C(=O)N2CCN(C(=O)N3CCOCC3)CC2)n1C

>  <Energy>  (78) 
142.258548672459

>  <Genealogy>  (78) 
C=c1c(=Cc2[n-]c(=O)[n-]c2[O-])cc(C(=O)N2CCN(C(=O)N3CCOCC3)CC2)n1C (protonated)
C=c1c(=Cc2[n-]c(=O)[n-]c2[O-])cc(C(=O)N2CCN(C(=O)N3CCOCC3)CC2)n1C (3D coordinates assigned)
C=c1c(=Cc2[n-]c(=O)[n-]c2[O-])cc(C(=O)N2CCN(C(=O)N3CCOCC3)CC2)n1C (nonaromatic ring conformer: 142.258548672459 kcal/mol)

>  <smiles>  (78) 
C=c1c(=Cc2[nH]c(=O)[nH]c2O)cc(C(=O)N2CCN(C(=O)N3CCOCC3)CC2)n1C

>  <score_type>  (78) 
oracle

>  <origin>  (78) 
adg

>  <m_score__min__energy>  (78) 
-17.949999999999999

>  <m_primary>  (78) 
energy

$$$$
78:0
     RDKit          3D

 61 65  0  0  0  0  0  0  0  0999 V2000
   56.7750   30.8190   43.1740 O   0  0  0  0  0  0  0  0  0  0  0  0
   57.0250   30.8340   44.4090 C   0  0  0  0  0  0  0  0  0  0  0  0
   56.5690   29.7360   45.2130 N   0  0  0  0  0  0  0  0  0  0  0  0
   57.0500   28.3860   45.1400 C   0  0  0  0  0  0  0  0  0  0  0  0
   56.2590   27.3540   45.6560 C   0  0  0  0  0  0  0  0  0  0  0  0
   56.7370   26.0410   45.6740 C   0  0  0  0  0  0  0  0  0  0  0  0
   58.0130   25.7420   45.1690 C   0  0  0  0  0  0  0  0  0  0  0  0
   58.5540   24.3290   45.2370 C   0  0  0  0  0  0  0  0  0  0  0  0
   57.7210   23.3190   44.5350 N   0  0  0  0  0  0  0  0  0  0  0  0
   58.4810   22.1110   44.1500 C   0  0  0  0  0  0  0  0  0  0  0  0
   57.5910   21.1230   43.3630 C   0  0  0  0  0  0  0  0  0  0  0  0
   56.2380   21.5340   43.3510 O   0  0  0  0  0  0  0  0  0  0  0  0
   56.1220   22.7890   42.7050 C   0  0  0  0  0  0  0  0  0  0  0  0
   57.0100   23.8700   43.3630 C   0  0  0  0  0  0  0  0  0  0  0  0
   58.7750   26.7690   44.5870 C   0  0  0  0  0  0  0  0  0  0  0  0
   58.2970   28.0810   44.5700 C   0  0  0  0  0  0  0  0  0  0  0  0
   57.7400   31.9980   44.9900 C   0  0  0  0  0  0  0  0  0  0  0  0
   57.1590   33.2760   44.9450 C   0  0  0  0  0  0  0  0  0  0  0  0
   57.8350   34.3800   45.4710 C   0  0  0  0  0  0  0  0  0  0  0  0
   59.0980   34.2210   46.0450 C   0  0  0  0  0  0  0  0  0  0  0  0
   59.6880   32.9540   46.1060 C   0  0  0  0  0  0  0  0  0  0  0  0
   61.2850   32.7670   46.8210 S   0  0  0  0  0  0  0  0  0  0  0  0
   61.7230   31.3280   46.7790 O   0  0  0  0  0  0  0  0  0  0  0  0
   62.2730   33.5850   46.0380 O   0  0  0  0  0  0  0  0  0  0  0  0
   61.2480   33.3150   48.4640 N   0  0  0  0  0  0  0  0  0  0  0  0
   60.0250   33.4700   49.2460 C   0  0  0  0  0  0  0  0  0  0  0  0
   60.4830   33.7630   50.6960 C   0  0  0  0  0  0  0  0  0  0  0  0
   61.9690   33.6820   50.6110 C   0  0  0  0  0  0  0  0  0  0  0  0
   62.9000   33.8290   51.6400 C   0  0  0  0  0  0  0  0  0  0  0  0
   64.2650   33.7060   51.3320 C   0  0  0  0  0  0  0  0  0  0  0  0
   64.6710   33.4420   50.0100 C   0  0  0  0  0  0  0  0  0  0  0  0
   63.7160   33.2990   48.9910 C   0  0  0  0  0  0  0  0  0  0  0  0
   62.3640   33.4250   49.3270 C   0  0  0  0  0  0  0  0  0  0  0  0
   58.9980   31.8430   45.6030 C   0  0  0  0  0  0  0  0  0  0  0  0
   55.2562   27.5771   46.0493 H   0  0  0  0  0  0  0  0  0  0  0  0
   56.1100   25.2367   46.0862 H   0  0  0  0  0  0  0  0  0  0  0  0
   59.5568   24.3223   44.7849 H   0  0  0  0  0  0  0  0  0  0  0  0
   58.5612   24.0462   46.3000 H   0  0  0  0  0  0  0  0  0  0  0  0
   56.9930   23.0230   45.2310 H   0  0  0  0  0  0  0  0  0  0  0  0
   59.3328   22.4076   43.5203 H   0  0  0  0  0  0  0  0  0  0  0  0
   58.8329   21.6124   45.0652 H   0  0  0  0  0  0  0  0  0  0  0  0
   57.9547   21.0633   42.3266 H   0  0  0  0  0  0  0  0  0  0  0  0
   57.6472   20.1420   43.8574 H   0  0  0  0  0  0  0  0  0  0  0  0
   56.4236   22.6751   41.6533 H   0  0  0  0  0  0  0  0  0  0  0  0
   55.0750   23.1158   42.7886 H   0  0  0  0  0  0  0  0  0  0  0  0
   57.7469   24.2279   42.6290 H   0  0  0  0  0  0  0  0  0  0  0  0
   56.3691   24.6997   43.6959 H   0  0  0  0  0  0  0  0  0  0  0  0
   59.7541   26.5382   44.1420 H   0  0  0  0  0  0  0  0  0  0  0  0
   58.8988   28.8780   44.1089 H   0  0  0  0  0  0  0  0  0  0  0  0
   56.1651   33.4087   44.4926 H   0  0  0  0  0  0  0  0  0  0  0  0
   57.3712   35.3767   45.4328 H   0  0  0  0  0  0  0  0  0  0  0  0
   59.6303   35.0942   46.4502 H   0  0  0  0  0  0  0  0  0  0  0  0
   59.4258   34.3067   48.8575 H   0  0  0  0  0  0  0  0  0  0  0  0
   59.3961   32.5689   49.1953 H   0  0  0  0  0  0  0  0  0  0  0  0
   60.1609   34.7650   51.0158 H   0  0  0  0  0  0  0  0  0  0  0  0
   60.0559   33.0649   51.4310 H   0  0  0  0  0  0  0  0  0  0  0  0
   62.5723   34.0366   52.6693 H   0  0  0  0  0  0  0  0  0  0  0  0
   65.0186   33.8162   52.1257 H   0  0  0  0  0  0  0  0  0  0  0  0
   65.7413   33.3474   49.7745 H   0  0  0  0  0  0  0  0  0  0  0  0
   64.0230   33.0932   47.9550 H   0  0  0  0  0  0  0  0  0  0  0  0
   59.4432   30.8407   45.6878 H   0  0  0  0  0  0  0  0  0  0  0  0
  1  2  2  0
  2  3  1  0
  3  4  1  0
  4  5  2  0
  5  6  1  0
  6  7  2  0
  7  8  1  0
  8  9  1  0
  9 10  1  0
 10 11  1  0
 11 12  1  0
 12 13  1  0
 13 14  1  0
  7 15  1  0
 15 16  2  0
  2 17  1  0
 17 18  2  0
 18 19  1  0
 19 20  2  0
 20 21  1  0
 21 22  1  0
 22 23  2  0
 22 24  2  0
 22 25  1  0
 25 26  1  0
 26 27  1  0
 27 28  1  0
 28 29  2  0
 29 30  1  0
 30 31  2  0
 31 32  1  0
 32 33  2  0
 21 34  2  0
 16  4  1  0
 34 17  1  0
 14  9  1  0
 33 25  1  0
 33 28  1  0
  5 35  1  0
  6 36  1  0
  8 37  1  0
  8 38  1  0
  9 39  1  0
 10 40  1  0
 10 41  1  0
 11 42  1  0
 11 43  1  0
 13 44  1  0
 13 45  1  0
 14 46  1  0
 14 47  1  0
 15 48  1  0
 16 49  1  0
 18 50  1  0
 19 51  1  0
 20 52  1  0
 26 53  1  0
 26 54  1  0
 27 55  1  0
 27 56  1  0
 29 57  1  0
 30 58  1  0
 31 59  1  0
 32 60  1  0
 34 61  1  0
M  CHG  2   3  -1   9   1
M  END
>  <UniqueID>  (79) 
71

>  <SMILES>  (79) 
O=C([N-]c1ccc(C[NH+]2CCOCC2)cc1)c1cccc(S(=O)(=O)N2CCc3ccccc32)c1

>  <Energy>  (79) 
98.00044279915257

>  <Genealogy>  (79) 
O=C([N-]c1ccc(C[NH+]2CCOCC2)cc1)c1cccc(S(=O)(=O)N2CCc3ccccc32)c1 (protonated)
O=C([N-]c1ccc(C[NH+]2CCOCC2)cc1)c1cccc(S(=O)(=O)N2CCc3ccccc32)c1 (3D coordinates assigned)
O=C([N-]c1ccc(C[NH+]2CCOCC2)cc1)c1cccc(S(=O)(=O)N2CCc3ccccc32)c1 (nonaromatic ring conformer: 98.00044279915257 kcal/mol)

>  <smiles>  (79) 
O=C(Nc1ccc(CN2CCOCC2)cc1)c1cccc(S(=O)(=O)N2CCc3ccccc32)c1

>  <score_type>  (79) 
oracle

>  <origin>  (79) 
adg

>  <m_score__min__energy>  (79) 
-10.57

>  <m_primary>  (79) 
energy

$$$$
79:0
     RDKit          3D

 39 40  0  0  0  0  0  0  0  0999 V2000
   56.8550   22.2960   43.3860 C   0  0  0  0  0  0  0  0  0  0  0  0
   58.0800   22.2870   44.2920 C   0  0  0  0  0  0  0  0  0  0  0  0
   57.6740   22.2570   45.6980 N   0  0  0  0  0  0  0  0  0  0  0  0
   57.4430   21.1540   46.4360 C   0  0  0  0  0  0  0  0  0  0  0  0
   57.0190   21.4430   47.6850 N   0  0  0  0  0  0  0  0  0  0  0  0
   56.9750   22.7900   47.7230 C   0  0  0  0  0  0  0  0  0  0  0  0
   57.3650   23.2940   46.5000 C   0  0  0  0  0  0  0  0  0  0  0  0
   57.4730   24.7470   46.1390 C   0  0  0  0  0  0  0  0  0  0  0  0
   56.3890   25.5060   46.7510 N   0  0  0  0  0  0  0  0  0  0  0  0
   55.4870   26.3340   46.0130 C   0  0  0  0  0  0  0  0  0  0  0  0
   54.3420   25.8920   45.7240 O   0  0  0  0  0  0  0  0  0  0  0  0
   55.8780   27.6500   45.6060 N   0  0  0  0  0  0  0  0  0  0  0  0
   57.2440   28.0120   45.2510 C   0  0  0  0  0  0  0  0  0  0  0  0
   57.3720   29.4970   45.1430 C   0  0  0  0  0  0  0  0  0  0  0  0
   56.3520   30.3140   44.8150 N   0  0  0  0  0  0  0  0  0  0  0  0
   56.8570   31.5080   44.8580 O   0  0  0  0  0  0  0  0  0  0  0  0
   58.1190   31.4390   45.2040 C   0  0  0  0  0  0  0  0  0  0  0  0
   59.0210   32.6230   45.3280 C   0  0  0  0  0  0  0  0  0  0  0  0
   58.1330   34.0030   46.0250 S   0  0  0  0  0  0  0  0  0  0  0  0
   59.2720   35.1780   46.7250 C   0  0  0  0  0  0  0  0  0  0  0  0
   57.2150   33.5030   47.1050 O   0  0  0  0  0  0  0  0  0  0  0  0
   57.3180   34.6750   44.9550 O   0  0  0  0  0  0  0  0  0  0  0  0
   58.5140   30.1670   45.4020 N   0  0  0  0  0  0  0  0  0  0  0  0
   55.9436   22.3027   44.0018 H   0  0  0  0  0  0  0  0  0  0  0  0
   56.8751   23.1940   42.7511 H   0  0  0  0  0  0  0  0  0  0  0  0
   56.8619   21.3978   42.7511 H   0  0  0  0  0  0  0  0  0  0  0  0
   58.6878   21.3972   44.0711 H   0  0  0  0  0  0  0  0  0  0  0  0
   58.6661   23.1997   44.1090 H   0  0  0  0  0  0  0  0  0  0  0  0
   57.5844   20.1293   46.0618 H   0  0  0  0  0  0  0  0  0  0  0  0
   56.6751   23.3925   48.5931 H   0  0  0  0  0  0  0  0  0  0  0  0
   58.4365   25.1386   46.4972 H   0  0  0  0  0  0  0  0  0  0  0  0
   57.4059   24.8484   45.0457 H   0  0  0  0  0  0  0  0  0  0  0  0
   57.9311   27.6434   46.0269 H   0  0  0  0  0  0  0  0  0  0  0  0
   57.4954   27.5582   44.2810 H   0  0  0  0  0  0  0  0  0  0  0  0
   59.8677   32.3679   45.9823 H   0  0  0  0  0  0  0  0  0  0  0  0
   59.3887   32.9004   44.3291 H   0  0  0  0  0  0  0  0  0  0  0  0
   59.2228   35.1272   47.8227 H   0  0  0  0  0  0  0  0  0  0  0  0
   60.2935   34.9414   46.3924 H   0  0  0  0  0  0  0  0  0  0  0  0
   59.0037   36.1916   46.3924 H   0  0  0  0  0  0  0  0  0  0  0  0
  1  2  1  0
  2  3  1  0
  3  4  1  0
  4  5  2  0
  5  6  1  0
  6  7  2  0
  7  8  1  0
  8  9  1  0
  9 10  1  0
 10 11  2  0
 10 12  1  0
 12 13  1  0
 13 14  1  0
 14 15  2  0
 15 16  1  0
 16 17  1  0
 17 18  1  0
 18 19  1  0
 19 20  1  0
 19 21  2  0
 19 22  2  0
 17 23  2  0
  7  3  1  0
 23 14  1  0
  1 24  1  0
  1 25  1  0
  1 26  1  0
  2 27  1  0
  2 28  1  0
  4 29  1  0
  6 30  1  0
  8 31  1  0
  8 32  1  0
 13 33  1  0
 13 34  1  0
 18 35  1  0
 18 36  1  0
 20 37  1  0
 20 38  1  0
 20 39  1  0
M  CHG  2   9  -1  12  -1
M  END
>  <UniqueID>  (80) 
72

>  <SMILES>  (80) 
CCn1cncc1C[N-]C(=O)[N-]Cc1noc(CS(C)(=O)=O)n1

>  <Energy>  (80) 
81.84217092654359

>  <Genealogy>  (80) 
CCn1cncc1C[N-]C(=O)[N-]Cc1noc(CS(C)(=O)=O)n1 (protonated)
CCn1cncc1C[N-]C(=O)[N-]Cc1noc(CS(C)(=O)=O)n1 (3D coordinates assigned)
CCn1cncc1C[N-]C(=O)[N-]Cc1noc(CS(C)(=O)=O)n1 (optimized conformer: 81.84217092654359 kcal/mol)

>  <smiles>  (80) 
CCn1cncc1CNC(=O)NCc1noc(CS(C)(=O)=O)n1

>  <score_type>  (80) 
oracle

>  <origin>  (80) 
adg

>  <m_score__min__energy>  (80) 
-11.93

>  <m_primary>  (80) 
energy

$$$$
80:0
     RDKit          3D

 46 47  0  0  0  0  0  0  0  0999 V2000
   56.0200   31.9730   52.3280 C   0  0  0  0  0  0  0  0  0  0  0  0
   55.4740   30.7620   52.5220 C   0  0  0  0  0  0  0  0  0  0  0  0
   54.1120   30.4690   52.6940 C   0  0  0  0  0  0  0  0  0  0  0  0
   53.0140   31.2170   52.4720 C   0  0  0  0  0  0  0  0  0  0  0  0
   52.2820   31.3020   51.1970 C   0  0  0  0  0  0  0  0  0  0  0  0
   52.2910   30.3530   50.2410 N   0  0  0  0  0  0  0  0  0  0  0  0
   51.3910   30.8090   49.3430 C   0  0  0  0  0  0  0  0  0  0  0  0
   51.1250   30.1920   48.2780 O   0  0  0  0  0  0  0  0  0  0  0  0
   50.7910   31.9700   49.6800 N   0  0  0  0  0  0  0  0  0  0  0  0
   51.3580   32.2600   50.8620 C   0  0  0  0  0  0  0  0  0  0  0  0
   51.0340   33.3780   51.6210 O   0  0  0  0  0  0  0  0  0  0  0  0
   54.0550   29.1730   53.1770 C   0  0  0  0  0  0  0  0  0  0  0  0
   55.3500   28.6990   53.2040 C   0  0  0  0  0  0  0  0  0  0  0  0
   55.7500   27.3820   53.8010 C   0  0  0  0  0  0  0  0  0  0  0  0
   56.2080   29.6480   52.7710 N   0  0  0  0  0  0  0  0  0  0  0  0
   57.6420   29.5570   52.8420 C   0  0  0  0  0  0  0  0  0  0  0  0
   58.1500   29.1020   53.9050 O   0  0  0  0  0  0  0  0  0  0  0  0
   58.4820   29.7750   51.6680 N   0  0  0  0  0  0  0  0  0  0  0  0
   58.9100   31.1970   51.4710 C   0  0  0  0  0  0  0  0  0  0  0  0
   58.5160   31.7700   50.0950 C   0  0  0  0  0  0  0  0  0  0  0  0
   59.3060   33.0190   49.7200 C   0  0  0  0  0  0  0  0  0  0  0  0
   59.6520   28.8550   51.6460 C   0  0  0  0  0  0  0  0  0  0  0  0
   60.5710   29.0370   50.4160 C   0  0  0  0  0  0  0  0  0  0  0  0
   59.8440   28.6530   49.1300 C   0  0  0  0  0  0  0  0  0  0  0  0
   57.1087   32.0723   52.2059 H   0  0  0  0  0  0  0  0  0  0  0  0
   55.3787   32.8660   52.2911 H   0  0  0  0  0  0  0  0  0  0  0  0
   52.6323   31.8142   53.3132 H   0  0  0  0  0  0  0  0  0  0  0  0
   53.1504   28.6260   53.4810 H   0  0  0  0  0  0  0  0  0  0  0  0
   55.7278   27.4550   54.8983 H   0  0  0  0  0  0  0  0  0  0  0  0
   55.0483   26.6017   53.4712 H   0  0  0  0  0  0  0  0  0  0  0  0
   56.7671   27.1237   53.4712 H   0  0  0  0  0  0  0  0  0  0  0  0
   57.8890   29.4850   50.8550 H   0  0  0  0  0  0  0  0  0  0  0  0
   58.4418   31.8135   52.2525 H   0  0  0  0  0  0  0  0  0  0  0  0
   60.0083   31.2165   51.5284 H   0  0  0  0  0  0  0  0  0  0  0  0
   58.6950   30.9996   49.3305 H   0  0  0  0  0  0  0  0  0  0  0  0
   57.4553   32.0564   50.1499 H   0  0  0  0  0  0  0  0  0  0  0  0
   59.6323   33.5349   50.6351 H   0  0  0  0  0  0  0  0  0  0  0  0
   60.1869   32.7315   49.1272 H   0  0  0  0  0  0  0  0  0  0  0  0
   58.6688   33.6917   49.1272 H   0  0  0  0  0  0  0  0  0  0  0  0
   60.2486   29.0322   52.5530 H   0  0  0  0  0  0  0  0  0  0  0  0
   59.2517   27.8316   51.5960 H   0  0  0  0  0  0  0  0  0  0  0  0
   60.8830   30.0899   50.3524 H   0  0  0  0  0  0  0  0  0  0  0  0
   61.4473   28.3824   50.5327 H   0  0  0  0  0  0  0  0  0  0  0  0
   58.8967   28.1527   49.3797 H   0  0  0  0  0  0  0  0  0  0  0  0
   59.6362   29.5590   48.5418 H   0  0  0  0  0  0  0  0  0  0  0  0
   60.4751   27.9706   48.5418 H   0  0  0  0  0  0  0  0  0  0  0  0
  1  2  2  0
  2  3  1  0
  3  4  2  3
  4  5  1  0
  5  6  1  0
  6  7  1  0
  7  8  2  0
  7  9  1  0
  9 10  1  0
 10 11  1  0
  3 12  1  0
 12 13  2  0
 13 14  1  0
 13 15  1  0
 15 16  1  0
 16 17  2  0
 16 18  1  0
 18 19  1  0
 19 20  1  0
 20 21  1  0
 18 22  1  0
 22 23  1  0
 23 24  1  0
 15  2  1  0
 10  5  2  0
  1 25  1  0
  1 26  1  0
  4 27  1  0
 12 28  1  0
 14 29  1  0
 14 30  1  0
 14 31  1  0
 18 32  1  0
 19 33  1  0
 19 34  1  0
 20 35  1  0
 20 36  1  0
 21 37  1  0
 21 38  1  0
 21 39  1  0
 22 40  1  0
 22 41  1  0
 23 42  1  0
 23 43  1  0
 24 44  1  0
 24 45  1  0
 24 46  1  0
M  CHG  4   6  -1   9  -1  11  -1  18   1
M  END
>  <UniqueID>  (81) 
73

>  <SMILES>  (81) 
C=c1c(=Cc2[n-]c(=O)[n-]c2[O-])cc(C)n1C(=O)[NH+](CCC)CCC

>  <Energy>  (81) 
124.94587358612064

>  <Genealogy>  (81) 
C=c1c(=Cc2[n-]c(=O)[n-]c2[O-])cc(C)n1C(=O)[NH+](CCC)CCC (protonated)
C=c1c(=Cc2[n-]c(=O)[n-]c2[O-])cc(C)n1C(=O)[NH+](CCC)CCC (3D coordinates assigned)
C=c1c(=Cc2[n-]c(=O)[n-]c2[O-])cc(C)n1C(=O)[NH+](CCC)CCC (optimized conformer: 124.94587358612064 kcal/mol)

>  <smiles>  (81) 
C=c1c(=Cc2[nH]c(=O)[nH]c2O)cc(C)n1C(=O)N(CCC)CCC

>  <score_type>  (81) 
oracle

>  <origin>  (81) 
adg

>  <m_score__min__energy>  (81) 
-13.640000000000001

>  <m_primary>  (81) 
energy

$$$$
81:0
     RDKit          3D

 63 67  0  0  0  0  0  0  0  0999 V2000
   58.5181   32.0305   45.5716 H   0  0  0  0  0  0  0  0  0  0  0  0
   58.5390   30.9310   45.5470 C   0  0  0  0  0  0  0  0  0  0  0  0
   58.4715   30.4010   44.5855 H   0  0  0  0  0  0  0  0  0  0  0  0
   58.6470   30.2350   46.6920 C   0  0  0  0  0  0  0  0  0  0  0  0
   58.6860   28.8360   46.8130 C   0  0  0  0  0  0  0  0  0  0  0  0
   58.4230   27.8630   45.9200 C   0  0  0  0  0  0  0  0  0  0  0  0
   59.1598   27.7038   45.1189 H   0  0  0  0  0  0  0  0  0  0  0  0
   57.2350   26.9940   45.9230 C   0  0  0  0  0  0  0  0  0  0  0  0
   57.2310   25.7450   46.4210 N   0  0  0  0  0  0  0  0  0  0  0  0
   55.9310   25.3860   46.3570 C   0  0  0  0  0  0  0  0  0  0  0  0
   55.5200   24.2560   46.7280 O   0  0  0  0  0  0  0  0  0  0  0  0
   55.1010   26.3390   45.8790 N   0  0  0  0  0  0  0  0  0  0  0  0
   55.9400   27.3560   45.6250 C   0  0  0  0  0  0  0  0  0  0  0  0
   55.5240   28.6000   45.1660 O   0  0  0  0  0  0  0  0  0  0  0  0
   59.0310   28.5700   48.1250 C   0  0  0  0  0  0  0  0  0  0  0  0
   59.2065   27.5787   48.5683 H   0  0  0  0  0  0  0  0  0  0  0  0
   59.1130   29.7840   48.7710 C   0  0  0  0  0  0  0  0  0  0  0  0
   59.3820   29.9310   50.2160 C   0  0  0  0  0  0  0  0  0  0  0  0
   58.4070   30.0150   51.0110 O   0  0  0  0  0  0  0  0  0  0  0  0
   60.7300   29.9520   50.7280 N   0  0  0  0  0  0  0  0  0  0  0  0
   60.9670   29.6860   52.1550 C   0  0  0  0  0  0  0  0  0  0  0  0
   61.0017   30.6432   52.6960 H   0  0  0  0  0  0  0  0  0  0  0  0
   60.1478   29.0542   52.5288 H   0  0  0  0  0  0  0  0  0  0  0  0
   62.2930   28.9380   52.3770 C   0  0  0  0  0  0  0  0  0  0  0  0
   62.6169   29.1116   53.4138 H   0  0  0  0  0  0  0  0  0  0  0  0
   62.0958   27.8774   52.1622 H   0  0  0  0  0  0  0  0  0  0  0  0
   63.4440   29.3780   51.4270 C   0  0  0  0  0  0  0  0  0  0  0  0
   63.5488   28.5797   50.6775 H   0  0  0  0  0  0  0  0  0  0  0  0
   64.7920   29.5110   52.1710 C   0  0  0  0  0  0  0  0  0  0  0  0
   65.1562   30.5436   52.0661 H   0  0  0  0  0  0  0  0  0  0  0  0
   64.6257   29.2558   53.2280 H   0  0  0  0  0  0  0  0  0  0  0  0
   65.8320   28.5680   51.6190 C   0  0  0  0  0  0  0  0  0  0  0  0
   65.6330   27.1770   51.6620 C   0  0  0  0  0  0  0  0  0  0  0  0
   64.7198   26.7687   52.1196 H   0  0  0  0  0  0  0  0  0  0  0  0
   66.5900   26.3100   51.1260 C   0  0  0  0  0  0  0  0  0  0  0  0
   66.4290   25.2225   51.1644 H   0  0  0  0  0  0  0  0  0  0  0  0
   67.7520   26.8240   50.5410 C   0  0  0  0  0  0  0  0  0  0  0  0
   68.6770   25.9830   50.0190 F   0  0  0  0  0  0  0  0  0  0  0  0
   67.9560   28.2060   50.4920 C   0  0  0  0  0  0  0  0  0  0  0  0
   68.8698   28.6097   50.0316 H   0  0  0  0  0  0  0  0  0  0  0  0
   67.0010   29.0770   51.0270 C   0  0  0  0  0  0  0  0  0  0  0  0
   67.1653   30.1638   50.9843 H   0  0  0  0  0  0  0  0  0  0  0  0
   63.1080   30.6870   50.6920 C   0  0  0  0  0  0  0  0  0  0  0  0
   62.9891   31.4971   51.4266 H   0  0  0  0  0  0  0  0  0  0  0  0
   63.9249   30.9309   49.9969 H   0  0  0  0  0  0  0  0  0  0  0  0
   61.8060   30.5240   49.9010 C   0  0  0  0  0  0  0  0  0  0  0  0
   61.4866   31.5107   49.5343 H   0  0  0  0  0  0  0  0  0  0  0  0
   61.9980   29.8342   49.0660 H   0  0  0  0  0  0  0  0  0  0  0  0
   58.8760   30.8020   47.9100 N   0  0  0  0  0  0  0  0  0  0  0  0
   58.9380   32.2360   48.2500 C   0  0  0  0  0  0  0  0  0  0  0  0
   58.3059   32.7991   47.5476 H   0  0  0  0  0  0  0  0  0  0  0  0
   58.5805   32.3653   49.2822 H   0  0  0  0  0  0  0  0  0  0  0  0
   60.3530   32.7560   48.1650 C   0  0  0  0  0  0  0  0  0  0  0  0
   61.2340   32.2890   47.1730 C   0  0  0  0  0  0  0  0  0  0  0  0
   60.8856   31.5487   46.4377 H   0  0  0  0  0  0  0  0  0  0  0  0
   62.5490   32.7590   47.1150 C   0  0  0  0  0  0  0  0  0  0  0  0
   63.2293   32.3932   46.3318 H   0  0  0  0  0  0  0  0  0  0  0  0
   63.0000   33.6930   48.0510 C   0  0  0  0  0  0  0  0  0  0  0  0
   64.0341   34.0648   48.0027 H   0  0  0  0  0  0  0  0  0  0  0  0
   62.1370   34.1550   49.0490 C   0  0  0  0  0  0  0  0  0  0  0  0
   62.4925   34.8913   49.7849 H   0  0  0  0  0  0  0  0  0  0  0  0
   60.8240   33.6830   49.1130 C   0  0  0  0  0  0  0  0  0  0  0  0
   60.1538   34.0383   49.9097 H   0  0  0  0  0  0  0  0  0  0  0  0
  1  2  1  0
  2  3  1  0
  2  4  2  0
  4  5  1  0
  5  6  2  0
  6  7  1  0
  6  8  1  0
  8  9  1  0
  9 10  1  0
 10 11  2  0
 10 12  1  0
 12 13  1  0
 13 14  1  0
  5 15  1  0
 15 16  1  0
 15 17  2  0
 17 18  1  0
 18 19  2  0
 18 20  1  0
 20 21  1  0
 21 22  1  0
 21 23  1  0
 21 24  1  0
 24 25  1  0
 24 26  1  0
 24 27  1  0
 27 28  1  0
 27 29  1  0
 29 30  1  0
 29 31  1  0
 29 32  1  0
 32 33  2  0
 33 34  1  0
 33 35  1  0
 35 36  1  0
 35 37  2  0
 37 38  1  0
 37 39  1  0
 39 40  1  0
 39 41  2  0
 41 42  1  0
 27 43  1  0
 43 44  1  0
 43 45  1  0
 43 46  1  0
 46 47  1  0
 46 48  1  0
 17 49  1  0
 49 50  1  0
 50 51  1  0
 50 52  1  0
 50 53  1  0
 53 54  2  0
 54 55  1  0
 54 56  1  0
 56 57  1  0
 56 58  2  0
 58 59  1  0
 58 60  1  0
 60 61  1  0
 60 62  2  0
 62 63  1  0
 49  4  1  0
 62 53  1  0
 13  8  2  0
 46 20  1  0
 41 32  1  0
M  CHG  3   9  -1  12  -1  14  -1
M  END
>  <UniqueID>  (82) 
74

>  <SMILES>  (82) 
C=c1/c(=C\c2[n-]c(=O)[n-]c2[O-])cc(C(=O)N2CCC(Cc3ccc(F)cc3)CC2)n1Cc1ccccc1

>  <Energy>  (82) 
144.73036197538477

>  <Genealogy>  (82) 
C=c1c(=Cc2[n-]c(=O)[n-]c2[O-])cc(C(=O)N2CCC(Cc3ccc(F)cc3)CC2)n1Cc1ccccc1 (protonated)
C=c1/c(=C\c2[n-]c(=O)[n-]c2[O-])cc(C(=O)N2CCC(Cc3ccc(F)cc3)CC2)n1Cc1ccccc1 (cis-trans isomerization)
C=c1/c(=C\c2[n-]c(=O)[n-]c2[O-])cc(C(=O)N2CCC(Cc3ccc(F)cc3)CC2)n1Cc1ccccc1 (3D coordinates assigned)
C=c1/c(=C\c2[n-]c(=O)[n-]c2[O-])cc(C(=O)N2CCC(Cc3ccc(F)cc3)CC2)n1Cc1ccccc1 (nonaromatic ring conformer: 144.73036197538477 kcal/mol)

>  <smiles>  (82) 
C=c1c(=Cc2[nH]c(=O)[nH]c2O)cc(C(=O)N2CCC(Cc3ccc(F)cc3)CC2)n1Cc1ccccc1

>  <score_type>  (82) 
oracle

>  <origin>  (82) 
adg

>  <m_score__min__energy>  (82) 
-18.48

>  <m_primary>  (82) 
energy

$$$$
82:0
     RDKit          3D

 54 56  0  0  0  0  0  0  0  0999 V2000
   57.0520   33.4670   46.2200 C   0  0  0  0  0  0  0  0  0  0  0  0
   58.2550   33.0620   45.4730 N   0  0  0  0  0  0  0  0  0  0  0  0
   59.1130   34.2340   45.2440 C   0  0  0  0  0  0  0  0  0  0  0  0
   57.8910   32.4200   44.1910 C   0  0  0  0  0  0  0  0  0  0  0  0
   57.1600   31.0950   44.4290 C   0  0  0  0  0  0  0  0  0  0  0  0
   57.5430   30.5230   45.6820 O   0  0  0  0  0  0  0  0  0  0  0  0
   57.8230   29.1670   45.9240 C   0  0  0  0  0  0  0  0  0  0  0  0
   57.0940   28.1310   45.3050 C   0  0  0  0  0  0  0  0  0  0  0  0
   57.3860   26.7940   45.5850 C   0  0  0  0  0  0  0  0  0  0  0  0
   58.4040   26.4730   46.4820 C   0  0  0  0  0  0  0  0  0  0  0  0
   59.1420   27.4880   47.0930 C   0  0  0  0  0  0  0  0  0  0  0  0
   58.8710   28.8340   46.8070 C   0  0  0  0  0  0  0  0  0  0  0  0
   59.8290   30.0870   47.6080 S   0  0  0  0  0  0  0  0  0  0  0  0
   60.8990   30.5470   46.6600 O   0  0  0  0  0  0  0  0  0  0  0  0
   60.4730   29.5630   48.8600 O   0  0  0  0  0  0  0  0  0  0  0  0
   58.8210   31.4370   48.0270 N   0  0  0  0  0  0  0  0  0  0  0  0
   58.7700   32.0010   49.3510 C   0  0  0  0  0  0  0  0  0  0  0  0
   58.0850   31.3330   50.3840 C   0  0  0  0  0  0  0  0  0  0  0  0
   58.0670   31.8520   51.6800 C   0  0  0  0  0  0  0  0  0  0  0  0
   58.7340   33.0420   51.9660 C   0  0  0  0  0  0  0  0  0  0  0  0
   59.4170   33.7210   50.9570 C   0  0  0  0  0  0  0  0  0  0  0  0
   59.4450   33.2120   49.6460 C   0  0  0  0  0  0  0  0  0  0  0  0
   60.1180   34.0020   48.5880 C   0  0  0  0  0  0  0  0  0  0  0  0
   59.5020   34.9760   48.0760 O   0  0  0  0  0  0  0  0  0  0  0  0
   61.5000   33.6970   48.1390 C   0  0  0  0  0  0  0  0  0  0  0  0
   61.8750   33.8410   46.7890 C   0  0  0  0  0  0  0  0  0  0  0  0
   63.1830   33.5600   46.3830 C   0  0  0  0  0  0  0  0  0  0  0  0
   64.1320   33.1400   47.3170 C   0  0  0  0  0  0  0  0  0  0  0  0
   63.7770   33.0050   48.6610 C   0  0  0  0  0  0  0  0  0  0  0  0
   62.4700   33.2850   49.0730 C   0  0  0  0  0  0  0  0  0  0  0  0
   57.2510   33.4000   47.2998 H   0  0  0  0  0  0  0  0  0  0  0  0
   56.7898   34.5029   45.9591 H   0  0  0  0  0  0  0  0  0  0  0  0
   56.2167   32.8005   45.9591 H   0  0  0  0  0  0  0  0  0  0  0  0
   59.4224   34.6566   46.2113 H   0  0  0  0  0  0  0  0  0  0  0  0
   60.0039   33.9306   44.6747 H   0  0  0  0  0  0  0  0  0  0  0  0
   58.5545   34.9916   44.6747 H   0  0  0  0  0  0  0  0  0  0  0  0
   57.2346   33.0962   43.6236 H   0  0  0  0  0  0  0  0  0  0  0  0
   58.8131   32.2153   43.6272 H   0  0  0  0  0  0  0  0  0  0  0  0
   56.0751   31.2769   44.4319 H   0  0  0  0  0  0  0  0  0  0  0  0
   57.4281   30.3944   43.6244 H   0  0  0  0  0  0  0  0  0  0  0  0
   56.2895   28.3774   44.5964 H   0  0  0  0  0  0  0  0  0  0  0  0
   56.8117   25.9928   45.0969 H   0  0  0  0  0  0  0  0  0  0  0  0
   58.6256   25.4196   46.7082 H   0  0  0  0  0  0  0  0  0  0  0  0
   59.9414   27.2305   47.8035 H   0  0  0  0  0  0  0  0  0  0  0  0
   58.1900   31.8020   47.2800 H   0  0  0  0  0  0  0  0  0  0  0  0
   57.5582   30.3919   50.1676 H   0  0  0  0  0  0  0  0  0  0  0  0
   57.5255   31.3209   52.4767 H   0  0  0  0  0  0  0  0  0  0  0  0
   58.7217   33.4463   52.9889 H   0  0  0  0  0  0  0  0  0  0  0  0
   59.9378   34.6619   51.1883 H   0  0  0  0  0  0  0  0  0  0  0  0
   61.1336   34.1769   46.0490 H   0  0  0  0  0  0  0  0  0  0  0  0
   63.4650   33.6700   45.3255 H   0  0  0  0  0  0  0  0  0  0  0  0
   65.1593   32.9154   46.9943 H   0  0  0  0  0  0  0  0  0  0  0  0
   64.5265   32.6779   49.3967 H   0  0  0  0  0  0  0  0  0  0  0  0
   62.1980   33.1827   50.1339 H   0  0  0  0  0  0  0  0  0  0  0  0
  1  2  1  0
  2  3  1  0
  2  4  1  0
  4  5  1  0
  5  6  1  0
  6  7  1  0
  7  8  2  0
  8  9  1  0
  9 10  2  0
 10 11  1  0
 11 12  2  0
 12 13  1  0
 13 14  2  0
 13 15  2  0
 13 16  1  0
 16 17  1  0
 17 18  2  0
 18 19  1  0
 19 20  2  0
 20 21  1  0
 21 22  2  0
 22 23  1  0
 23 24  2  0
 23 25  1  0
 25 26  2  0
 26 27  1  0
 27 28  2  0
 28 29  1  0
 29 30  2  0
 12  7  1  0
 22 17  1  0
 30 25  1  0
  1 31  1  0
  1 32  1  0
  1 33  1  0
  3 34  1  0
  3 35  1  0
  3 36  1  0
  4 37  1  0
  4 38  1  0
  5 39  1  0
  5 40  1  0
  8 41  1  0
  9 42  1  0
 10 43  1  0
 11 44  1  0
 16 45  1  0
 18 46  1  0
 19 47  1  0
 20 48  1  0
 21 49  1  0
 26 50  1  0
 27 51  1  0
 28 52  1  0
 29 53  1  0
 30 54  1  0
M  END
>  <UniqueID>  (83) 
75

>  <SMILES>  (83) 
CN(C)CCOc1ccccc1S(=O)(=O)Nc1ccccc1C(=O)c1ccccc1

>  <Energy>  (83) 
68.4872628483251

>  <Genealogy>  (83) 
CN(C)CCOc1ccccc1S(=O)(=O)Nc1ccccc1C(=O)c1ccccc1 (3D coordinates assigned)
CN(C)CCOc1ccccc1S(=O)(=O)Nc1ccccc1C(=O)c1ccccc1 (optimized conformer: 68.4872628483251 kcal/mol)

>  <smiles>  (83) 
CN(C)CCOc1ccccc1S(=O)(=O)Nc1ccccc1C(=O)c1ccccc1

>  <score_type>  (83) 
oracle

>  <origin>  (83) 
adg

>  <m_score__min__energy>  (83) 
-7.7699999999999996

>  <m_primary>  (83) 
energy

$$$$
83:0
     RDKit          3D

 60 63  0  0  0  0  0  0  0  0999 V2000
   53.1230   24.3680   45.2460 C   0  0  0  0  0  0  0  0  0  0  0  0
   54.8480   24.6500   45.6700 S   0  0  0  0  0  0  0  0  0  0  0  0
   55.7440   24.1470   44.5490 O   0  0  0  0  0  0  0  0  0  0  0  0
   55.1720   23.8830   46.9250 O   0  0  0  0  0  0  0  0  0  0  0  0
   55.1510   26.3520   45.9670 N   0  0  0  0  0  0  0  0  0  0  0  0
   56.3720   27.0490   45.6580 C   0  0  0  0  0  0  0  0  0  0  0  0
   57.5820   26.3540   45.7210 C   0  0  0  0  0  0  0  0  0  0  0  0
   58.7860   26.9880   45.3990 C   0  0  0  0  0  0  0  0  0  0  0  0
   58.7910   28.3270   45.0140 C   0  0  0  0  0  0  0  0  0  0  0  0
   57.5900   29.0570   44.9700 C   0  0  0  0  0  0  0  0  0  0  0  0
   57.5970   30.4600   44.4880 C   0  0  0  0  0  0  0  0  0  0  0  0
   57.7060   30.6760   43.2470 O   0  0  0  0  0  0  0  0  0  0  0  0
   57.3990   31.5850   45.3550 N   0  0  0  0  0  0  0  0  0  0  0  0
   58.1130   32.6730   45.4110 C   0  0  0  0  0  0  0  0  0  0  0  0
   59.2490   32.6980   46.2240 C   0  0  0  0  0  0  0  0  0  0  0  0
   59.9800   33.8840   46.3790 C   0  0  0  0  0  0  0  0  0  0  0  0
   61.1920   33.8840   47.2260 C   0  0  0  0  0  0  0  0  0  0  0  0
   62.2980   33.7040   46.6540 O   0  0  0  0  0  0  0  0  0  0  0  0
   61.1550   34.0320   48.6750 N   0  0  0  0  0  0  0  0  0  0  0  0
   59.7810   34.1730   49.2140 C   0  0  0  0  0  0  0  0  0  0  0  0
   59.2890   32.9880   50.0830 C   0  0  0  0  0  0  0  0  0  0  0  0
   59.9290   31.7070   49.7660 N   0  0  0  0  0  0  0  0  0  0  0  0
   59.2510   30.5000   50.1560 C   0  0  0  0  0  0  0  0  0  0  0  0
   58.2000   30.5810   50.8540 O   0  0  0  0  0  0  0  0  0  0  0  0
   59.7630   29.1450   49.8430 C   0  0  0  0  0  0  0  0  0  0  0  0
   59.5530   28.5620   48.5860 C   0  0  0  0  0  0  0  0  0  0  0  0
   60.0130   27.2630   48.3240 C   0  0  0  0  0  0  0  0  0  0  0  0
   60.6830   26.5330   49.3220 C   0  0  0  0  0  0  0  0  0  0  0  0
   60.8750   27.0940   50.5850 C   0  0  0  0  0  0  0  0  0  0  0  0
   60.4160   28.3900   50.8470 C   0  0  0  0  0  0  0  0  0  0  0  0
   61.3640   31.6530   49.4600 C   0  0  0  0  0  0  0  0  0  0  0  0
   61.9970   33.0470   49.3880 C   0  0  0  0  0  0  0  0  0  0  0  0
   59.5850   35.0200   45.6650 C   0  0  0  0  0  0  0  0  0  0  0  0
   58.4600   34.9570   44.8490 C   0  0  0  0  0  0  0  0  0  0  0  0
   57.7410   33.8070   44.7580 N   0  0  0  0  0  0  0  0  0  0  0  0
   56.3830   28.4100   45.2920 C   0  0  0  0  0  0  0  0  0  0  0  0
   52.5301   24.2711   46.1674 H   0  0  0  0  0  0  0  0  0  0  0  0
   52.7471   25.2166   44.6556 H   0  0  0  0  0  0  0  0  0  0  0  0
   53.0369   23.4439   44.6556 H   0  0  0  0  0  0  0  0  0  0  0  0
   57.5878   25.2974   46.0270 H   0  0  0  0  0  0  0  0  0  0  0  0
   59.7315   26.4282   45.4498 H   0  0  0  0  0  0  0  0  0  0  0  0
   59.7388   28.8153   44.7432 H   0  0  0  0  0  0  0  0  0  0  0  0
   59.5709   31.7838   46.7443 H   0  0  0  0  0  0  0  0  0  0  0  0
   61.6260   34.9500   48.8670 H   0  0  0  0  0  0  0  0  0  0  0  0
   59.7489   35.0835   49.8304 H   0  0  0  0  0  0  0  0  0  0  0  0
   59.1127   34.2099   48.3411 H   0  0  0  0  0  0  0  0  0  0  0  0
   59.4934   33.2247   51.1376 H   0  0  0  0  0  0  0  0  0  0  0  0
   58.2156   32.8664   49.8753 H   0  0  0  0  0  0  0  0  0  0  0  0
   59.0255   29.1251   47.8020 H   0  0  0  0  0  0  0  0  0  0  0  0
   59.8490   26.8134   47.3336 H   0  0  0  0  0  0  0  0  0  0  0  0
   61.0554   25.5205   49.1070 H   0  0  0  0  0  0  0  0  0  0  0  0
   61.3854   26.5197   51.3722 H   0  0  0  0  0  0  0  0  0  0  0  0
   60.5644   28.8274   51.8453 H   0  0  0  0  0  0  0  0  0  0  0  0
   61.8716   31.0743   50.2458 H   0  0  0  0  0  0  0  0  0  0  0  0
   61.4799   31.1798   48.4738 H   0  0  0  0  0  0  0  0  0  0  0  0
   62.1656   33.4080   50.4133 H   0  0  0  0  0  0  0  0  0  0  0  0
   62.9369   32.9510   48.8246 H   0  0  0  0  0  0  0  0  0  0  0  0
   60.1587   35.9549   45.7479 H   0  0  0  0  0  0  0  0  0  0  0  0
   58.1507   35.8425   44.2744 H   0  0  0  0  0  0  0  0  0  0  0  0
   55.4381   28.9721   45.2578 H   0  0  0  0  0  0  0  0  0  0  0  0
  1  2  1  0
  2  3  2  0
  2  4  2  0
  2  5  1  0
  5  6  1  0
  6  7  2  0
  7  8  1  0
  8  9  2  0
  9 10  1  0
 10 11  1  0
 11 12  2  0
 11 13  1  0
 13 14  2  3
 14 15  1  0
 15 16  2  0
 16 17  1  0
 17 18  2  0
 17 19  1  0
 19 20  1  0
 20 21  1  0
 21 22  1  0
 22 23  1  0
 23 24  2  0
 23 25  1  0
 25 26  2  0
 26 27  1  0
 27 28  2  0
 28 29  1  0
 29 30  2  0
 22 31  1  0
 31 32  1  0
 16 33  1  0
 33 34  2  0
 34 35  1  0
 10 36  2  0
 36  6  1  0
 35 14  1  0
 32 19  1  0
 30 25  1  0
  1 37  1  0
  1 38  1  0
  1 39  1  0
  7 40  1  0
  8 41  1  0
  9 42  1  0
 15 43  1  0
 19 44  1  0
 20 45  1  0
 20 46  1  0
 21 47  1  0
 21 48  1  0
 26 49  1  0
 27 50  1  0
 28 51  1  0
 29 52  1  0
 30 53  1  0
 31 54  1  0
 31 55  1  0
 32 56  1  0
 32 57  1  0
 33 58  1  0
 34 59  1  0
 36 60  1  0
M  CHG  3   5  -1  19   1  35  -1
M  END
>  <UniqueID>  (84) 
76

>  <SMILES>  (84) 
CS(=O)(=O)[N-]c1cccc(C(=O)N=c2cc(C(=O)[NH+]3CCN(C(=O)c4ccccc4)CC3)cc[n-]2)c1

>  <Energy>  (84) 
96.16092764619964

>  <Genealogy>  (84) 
CS(=O)(=O)[N-]c1cccc(C(=O)N=c2cc(C(=O)[NH+]3CCN(C(=O)c4ccccc4)CC3)cc[n-]2)c1 (protonated)
CS(=O)(=O)[N-]c1cccc(C(=O)N=c2cc(C(=O)[NH+]3CCN(C(=O)c4ccccc4)CC3)cc[n-]2)c1 (3D coordinates assigned)
CS(=O)(=O)[N-]c1cccc(C(=O)N=c2cc(C(=O)[NH+]3CCN(C(=O)c4ccccc4)CC3)cc[n-]2)c1 (nonaromatic ring conformer: 96.16092764619964 kcal/mol)

>  <smiles>  (84) 
CS(=O)(=O)Nc1cccc(C(=O)N=c2cc(C(=O)N3CCN(C(=O)c4ccccc4)CC3)cc[nH]2)c1

>  <score_type>  (84) 
oracle

>  <origin>  (84) 
adg

>  <m_score__min__energy>  (84) 
-11.84

>  <m_primary>  (84) 
energy

$$$$
84:0
     RDKit          3D

 55 58  0  0  0  0  0  0  0  0999 V2000
   57.4420   32.8080   47.0000 C   0  0  0  0  0  0  0  0  0  0  0  0
   58.1020   32.9980   45.8450 C   0  0  0  0  0  0  0  0  0  0  0  0
   59.1050   33.9460   45.6010 C   0  0  0  0  0  0  0  0  0  0  0  0
   59.8360   34.6800   46.4610 C   0  0  0  0  0  0  0  0  0  0  0  0
   60.1770   34.2650   47.8330 C   0  0  0  0  0  0  0  0  0  0  0  0
   59.1570   33.9730   48.7510 C   0  0  0  0  0  0  0  0  0  0  0  0
   59.4780   33.5600   50.0470 C   0  0  0  0  0  0  0  0  0  0  0  0
   60.8170   33.4470   50.4370 C   0  0  0  0  0  0  0  0  0  0  0  0
   61.8510   33.7720   49.5390 C   0  0  0  0  0  0  0  0  0  0  0  0
   63.2650   33.6390   49.9470 C   0  0  0  0  0  0  0  0  0  0  0  0
   63.8110   34.3290   50.9700 N   0  0  0  0  0  0  0  0  0  0  0  0
   65.1240   34.0230   51.1620 C   0  0  0  0  0  0  0  0  0  0  0  0
   65.9070   34.6760   52.2550 C   0  0  0  0  0  0  0  0  0  0  0  0
   65.6480   33.0730   50.2700 C   0  0  0  0  0  0  0  0  0  0  0  0
   67.0320   32.5590   50.1970 C   0  0  0  0  0  0  0  0  0  0  0  0
   68.1410   33.4530   50.0830 N   0  0  0  0  0  0  0  0  0  0  0  0
   67.2480   31.3210   50.2490 O   0  0  0  0  0  0  0  0  0  0  0  0
   64.4030   32.6170   49.2380 S   0  0  0  0  0  0  0  0  0  0  0  0
   61.5190   34.2060   48.2460 C   0  0  0  0  0  0  0  0  0  0  0  0
   59.2860   33.9790   44.2310 C   0  0  0  0  0  0  0  0  0  0  0  0
   58.4690   33.0030   43.7010 C   0  0  0  0  0  0  0  0  0  0  0  0
   58.3690   32.6920   42.2390 C   0  0  0  0  0  0  0  0  0  0  0  0
   57.7660   32.3860   44.6820 N   0  0  0  0  0  0  0  0  0  0  0  0
   56.7960   31.2930   44.5000 C   0  0  0  0  0  0  0  0  0  0  0  0
   57.3440   29.9810   45.0240 C   0  0  0  0  0  0  0  0  0  0  0  0
   58.7020   29.8860   45.3670 C   0  0  0  0  0  0  0  0  0  0  0  0
   59.2240   28.6920   45.8620 C   0  0  0  0  0  0  0  0  0  0  0  0
   58.4000   27.5790   46.0290 C   0  0  0  0  0  0  0  0  0  0  0  0
   57.0330   27.6470   45.7090 C   0  0  0  0  0  0  0  0  0  0  0  0
   56.1830   26.4500   45.9160 C   0  0  0  0  0  0  0  0  0  0  0  0
   54.9330   26.5540   46.0300 O   0  0  0  0  0  0  0  0  0  0  0  0
   56.7610   25.1860   45.9810 O   0  0  0  0  0  0  0  0  0  0  0  0
   56.5030   28.8620   45.2140 C   0  0  0  0  0  0  0  0  0  0  0  0
   55.1450   28.9680   44.9260 O   0  0  0  0  0  0  0  0  0  0  0  0
   56.6702   32.0274   47.0705 H   0  0  0  0  0  0  0  0  0  0  0  0
   57.6735   33.4331   47.8750 H   0  0  0  0  0  0  0  0  0  0  0  0
   60.2042   35.6572   46.1154 H   0  0  0  0  0  0  0  0  0  0  0  0
   58.1033   34.0692   48.4503 H   0  0  0  0  0  0  0  0  0  0  0  0
   58.6763   33.3233   50.7620 H   0  0  0  0  0  0  0  0  0  0  0  0
   61.0632   33.1019   51.4520 H   0  0  0  0  0  0  0  0  0  0  0  0
   65.5167   34.3505   53.2305 H   0  0  0  0  0  0  0  0  0  0  0  0
   66.9655   34.3893   52.1694 H   0  0  0  0  0  0  0  0  0  0  0  0
   65.8150   35.7688   52.1694 H   0  0  0  0  0  0  0  0  0  0  0  0
   68.0090   34.4870   50.0290 H   0  0  0  0  0  0  0  0  0  0  0  0
   69.1150   33.0760   50.0550 H   0  0  0  0  0  0  0  0  0  0  0  0
   62.3169   34.5028   47.5494 H   0  0  0  0  0  0  0  0  0  0  0  0
   59.9522   34.6528   43.6723 H   0  0  0  0  0  0  0  0  0  0  0  0
   58.0347   31.6523   42.1073 H   0  0  0  0  0  0  0  0  0  0  0  0
   57.6444   33.3726   41.7681 H   0  0  0  0  0  0  0  0  0  0  0  0
   59.3545   32.8227   41.7681 H   0  0  0  0  0  0  0  0  0  0  0  0
   55.8722   31.5388   45.0441 H   0  0  0  0  0  0  0  0  0  0  0  0
   56.5946   31.1816   43.4243 H   0  0  0  0  0  0  0  0  0  0  0  0
   59.3587   30.7599   45.2443 H   0  0  0  0  0  0  0  0  0  0  0  0
   60.2908   28.6272   46.1222 H   0  0  0  0  0  0  0  0  0  0  0  0
   58.8237   26.6399   46.4145 H   0  0  0  0  0  0  0  0  0  0  0  0
  1  2  2  0
  2  3  1  0
  3  4  2  3
  4  5  1  0
  5  6  2  0
  6  7  1  0
  7  8  2  0
  8  9  1  0
  9 10  1  0
 10 11  2  0
 11 12  1  0
 12 13  1  0
 12 14  2  0
 14 15  1  0
 15 16  1  0
 15 17  2  0
 14 18  1  0
  9 19  2  0
  3 20  1  0
 20 21  2  0
 21 22  1  0
 21 23  1  0
 23 24  1  0
 24 25  1  0
 25 26  2  0
 26 27  1  0
 27 28  2  0
 28 29  1  0
 29 30  1  0
 30 31  2  0
 30 32  1  0
 29 33  2  0
 33 34  1  0
 23  2  1  0
 33 25  1  0
 19  5  1  0
 18 10  1  0
  1 35  1  0
  1 36  1  0
  4 37  1  0
  6 38  1  0
  7 39  1  0
  8 40  1  0
 13 41  1  0
 13 42  1  0
 13 43  1  0
 16 44  1  0
 16 45  1  0
 19 46  1  0
 20 47  1  0
 22 48  1  0
 22 49  1  0
 22 50  1  0
 24 51  1  0
 24 52  1  0
 26 53  1  0
 27 54  1  0
 28 55  1  0
M  CHG  2  32  -1  34  -1
M  END
>  <UniqueID>  (85) 
77

>  <SMILES>  (85) 
C=c1c(=Cc2cccc(-c3nc(C)c(C(N)=O)s3)c2)cc(C)n1Cc1cccc(C(=O)[O-])c1[O-]

>  <Energy>  (85) 
129.8410632463996

>  <Genealogy>  (85) 
C=c1c(=Cc2cccc(-c3nc(C)c(C(N)=O)s3)c2)cc(C)n1Cc1cccc(C(=O)[O-])c1[O-] (protonated)
C=c1c(=Cc2cccc(-c3nc(C)c(C(N)=O)s3)c2)cc(C)n1Cc1cccc(C(=O)[O-])c1[O-] (3D coordinates assigned)
C=c1c(=Cc2cccc(-c3nc(C)c(C(N)=O)s3)c2)cc(C)n1Cc1cccc(C(=O)[O-])c1[O-] (optimized conformer: 129.8410632463996 kcal/mol)

>  <smiles>  (85) 
C=c1c(=Cc2cccc(-c3nc(C)c(C(N)=O)s3)c2)cc(C)n1Cc1cccc(C(=O)O)c1O

>  <score_type>  (85) 
oracle

>  <origin>  (85) 
adg

>  <m_score__min__energy>  (85) 
-16.710000000000001

>  <m_primary>  (85) 
energy

$$$$
85:0
     RDKit          3D

 39 41  0  0  0  0  0  0  0  0999 V2000
   55.1180   22.0960   49.1390 C   0  0  0  0  0  0  0  0  0  0  0  0
   56.4010   22.8530   48.1690 S   0  0  0  0  0  0  0  0  0  0  0  0
   57.1130   21.8010   47.3670 O   0  0  0  0  0  0  0  0  0  0  0  0
   57.3830   23.5190   49.0920 O   0  0  0  0  0  0  0  0  0  0  0  0
   55.7010   24.0170   47.0920 N   0  0  0  0  0  0  0  0  0  0  0  0
   56.4420   25.1250   46.5750 C   0  0  0  0  0  0  0  0  0  0  0  0
   57.8390   25.0440   46.5480 C   0  0  0  0  0  0  0  0  0  0  0  0
   58.5980   26.1140   46.0740 C   0  0  0  0  0  0  0  0  0  0  0  0
   57.9670   27.2800   45.6370 C   0  0  0  0  0  0  0  0  0  0  0  0
   56.5710   27.3840   45.6610 C   0  0  0  0  0  0  0  0  0  0  0  0
   55.9670   28.6080   45.2170 N   0  0  0  0  0  0  0  0  0  0  0  0
   56.6210   29.6540   44.4830 C   0  0  0  0  0  0  0  0  0  0  0  0
   56.5230   29.6580   43.2270 O   0  0  0  0  0  0  0  0  0  0  0  0
   57.4270   30.7070   45.1490 C   0  0  0  0  0  0  0  0  0  0  0  0
   57.4920   31.9490   44.6380 C   0  0  0  0  0  0  0  0  0  0  0  0
   58.3190   32.9890   45.2690 C   0  0  0  0  0  0  0  0  0  0  0  0
   58.4920   34.2440   44.6710 C   0  0  0  0  0  0  0  0  0  0  0  0
   59.2590   35.2220   45.3130 C   0  0  0  0  0  0  0  0  0  0  0  0
   59.8450   34.9510   46.5550 C   0  0  0  0  0  0  0  0  0  0  0  0
   59.6670   33.7000   47.1550 C   0  0  0  0  0  0  0  0  0  0  0  0
   58.9120   32.7170   46.5070 C   0  0  0  0  0  0  0  0  0  0  0  0
   58.7250   31.4650   47.0980 O   0  0  0  0  0  0  0  0  0  0  0  0
   58.2560   30.3300   46.3640 C   0  0  0  0  0  0  0  0  0  0  0  0
   55.7980   26.2780   46.0760 C   0  0  0  0  0  0  0  0  0  0  0  0
   54.4090   26.3220   45.9390 O   0  0  0  0  0  0  0  0  0  0  0  0
   55.3408   22.2274   50.2082 H   0  0  0  0  0  0  0  0  0  0  0  0
   54.1533   22.5696   48.9045 H   0  0  0  0  0  0  0  0  0  0  0  0
   55.0661   21.0225   48.9045 H   0  0  0  0  0  0  0  0  0  0  0  0
   58.3411   24.1317   46.9025 H   0  0  0  0  0  0  0  0  0  0  0  0
   59.6950   26.0389   46.0445 H   0  0  0  0  0  0  0  0  0  0  0  0
   58.5711   28.1233   45.2711 H   0  0  0  0  0  0  0  0  0  0  0  0
   56.9167   32.1916   43.7323 H   0  0  0  0  0  0  0  0  0  0  0  0
   58.0256   34.4600   43.6985 H   0  0  0  0  0  0  0  0  0  0  0  0
   59.4018   36.2053   44.8412 H   0  0  0  0  0  0  0  0  0  0  0  0
   60.4458   35.7222   47.0594 H   0  0  0  0  0  0  0  0  0  0  0  0
   60.1201   33.4897   48.1350 H   0  0  0  0  0  0  0  0  0  0  0  0
   59.1260   29.7472   46.0270 H   0  0  0  0  0  0  0  0  0  0  0  0
   57.6070   29.7500   47.0366 H   0  0  0  0  0  0  0  0  0  0  0  0
   53.7960   25.6470   46.3760 H   0  0  0  0  0  0  0  0  0  0  0  0
  1  2  1  0
  2  3  2  0
  2  4  2  0
  2  5  1  0
  5  6  1  0
  6  7  2  0
  7  8  1  0
  8  9  2  0
  9 10  1  0
 10 11  1  0
 11 12  1  0
 12 13  2  0
 12 14  1  0
 14 15  2  0
 15 16  1  0
 16 17  2  0
 17 18  1  0
 18 19  2  0
 19 20  1  0
 20 21  2  0
 21 22  1  0
 22 23  1  0
 10 24  2  0
 24 25  1  0
 24  6  1  0
 23 14  1  0
 21 16  1  0
  1 26  1  0
  1 27  1  0
  1 28  1  0
  7 29  1  0
  8 30  1  0
  9 31  1  0
 15 32  1  0
 17 33  1  0
 18 34  1  0
 19 35  1  0
 20 36  1  0
 23 37  1  0
 23 38  1  0
 25 39  1  0
M  CHG  2   5  -1  11  -1
M  END
>  <UniqueID>  (86) 
78

>  <SMILES>  (86) 
CS(=O)(=O)[N-]c1cccc([N-]C(=O)C2=Cc3ccccc3OC2)c1O

>  <Energy>  (86) 
56.31656015484533

>  <Genealogy>  (86) 
CS(=O)(=O)[N-]c1cccc([N-]C(=O)C2=Cc3ccccc3OC2)c1O (protonated)
CS(=O)(=O)[N-]c1cccc([N-]C(=O)C2=Cc3ccccc3OC2)c1O (3D coordinates assigned)
CS(=O)(=O)[N-]c1cccc([N-]C(=O)C2=Cc3ccccc3OC2)c1O (nonaromatic ring conformer: 56.31656015484533 kcal/mol)

>  <smiles>  (86) 
CS(=O)(=O)Nc1cccc(NC(=O)C2=Cc3ccccc3OC2)c1O

>  <score_type>  (86) 
oracle

>  <origin>  (86) 
adg

>  <m_score__min__energy>  (86) 
-13.470000000000001

>  <m_primary>  (86) 
energy

$$$$
86:0
     RDKit          3D

 42 44  0  0  0  0  0  0  0  0999 V2000
   63.1770   33.1550   48.9410 N   0  0  0  0  0  0  0  0  0  0  0  0
   62.6080   32.7540   47.3580 S   0  0  0  0  0  0  0  0  0  0  0  0
   62.7420   31.2710   47.1520 O   0  0  0  0  0  0  0  0  0  0  0  0
   63.4350   33.4730   46.3290 O   0  0  0  0  0  0  0  0  0  0  0  0
   60.9240   33.2430   47.2000 C   0  0  0  0  0  0  0  0  0  0  0  0
   60.5340   34.5240   47.6110 C   0  0  0  0  0  0  0  0  0  0  0  0
   59.1970   34.9180   47.5100 C   0  0  0  0  0  0  0  0  0  0  0  0
   58.2440   34.0360   46.9920 C   0  0  0  0  0  0  0  0  0  0  0  0
   58.6210   32.7610   46.5590 C   0  0  0  0  0  0  0  0  0  0  0  0
   57.6330   31.9010   46.0540 O   0  0  0  0  0  0  0  0  0  0  0  0
   57.4150   31.6520   44.6930 C   0  0  0  0  0  0  0  0  0  0  0  0
   57.9420   32.5490   43.7560 C   0  0  0  0  0  0  0  0  0  0  0  0
   57.7380   32.3430   42.3900 C   0  0  0  0  0  0  0  0  0  0  0  0
   57.0210   31.2300   41.9500 C   0  0  0  0  0  0  0  0  0  0  0  0
   56.5140   30.3130   42.8750 C   0  0  0  0  0  0  0  0  0  0  0  0
   56.7130   30.5090   44.2550 C   0  0  0  0  0  0  0  0  0  0  0  0
   56.2580   29.5530   45.2230 N   0  0  0  0  0  0  0  0  0  0  0  0
   57.0300   28.0430   45.5860 S   0  0  0  0  0  0  0  0  0  0  0  0
   55.9810   27.0240   45.9330 O   0  0  0  0  0  0  0  0  0  0  0  0
   57.7850   27.5740   44.3760 O   0  0  0  0  0  0  0  0  0  0  0  0
   58.1620   28.2560   46.9160 C   0  0  0  0  0  0  0  0  0  0  0  0
   58.8250   27.1420   47.4470 C   0  0  0  0  0  0  0  0  0  0  0  0
   59.7340   27.2980   48.4970 C   0  0  0  0  0  0  0  0  0  0  0  0
   59.9840   28.5700   49.0240 C   0  0  0  0  0  0  0  0  0  0  0  0
   61.2270   28.7830   50.4580 Br  0  0  0  0  0  0  0  0  0  0  0  0
   59.3200   29.6840   48.4990 C   0  0  0  0  0  0  0  0  0  0  0  0
   58.4110   29.5290   47.4490 C   0  0  0  0  0  0  0  0  0  0  0  0
   59.9680   32.3630   46.6720 C   0  0  0  0  0  0  0  0  0  0  0  0
   63.1360   34.1950   49.0260 H   0  0  0  0  0  0  0  0  0  0  0  0
   64.1850   32.8870   48.9790 H   0  0  0  0  0  0  0  0  0  0  0  0
   61.2824   35.2220   48.0145 H   0  0  0  0  0  0  0  0  0  0  0  0
   58.8941   35.9232   47.8384 H   0  0  0  0  0  0  0  0  0  0  0  0
   57.1910   34.3470   46.9246 H   0  0  0  0  0  0  0  0  0  0  0  0
   58.5197   33.4205   44.0976 H   0  0  0  0  0  0  0  0  0  0  0  0
   58.1431   33.0592   41.6600 H   0  0  0  0  0  0  0  0  0  0  0  0
   56.8545   31.0740   40.8739 H   0  0  0  0  0  0  0  0  0  0  0  0
   55.9561   29.4328   42.5227 H   0  0  0  0  0  0  0  0  0  0  0  0
   58.6294   26.1406   47.0359 H   0  0  0  0  0  0  0  0  0  0  0  0
   60.2533   26.4204   48.9094 H   0  0  0  0  0  0  0  0  0  0  0  0
   59.5139   30.6842   48.9137 H   0  0  0  0  0  0  0  0  0  0  0  0
   57.8899   30.4071   47.0398 H   0  0  0  0  0  0  0  0  0  0  0  0
   60.2711   31.3575   46.3446 H   0  0  0  0  0  0  0  0  0  0  0  0
  1  2  1  0
  2  3  2  0
  2  4  2  0
  2  5  1  0
  5  6  2  0
  6  7  1  0
  7  8  2  0
  8  9  1  0
  9 10  1  0
 10 11  1  0
 11 12  2  0
 12 13  1  0
 13 14  2  0
 14 15  1  0
 15 16  2  0
 16 17  1  0
 17 18  1  0
 18 19  2  0
 18 20  2  0
 18 21  1  0
 21 22  2  0
 22 23  1  0
 23 24  2  0
 24 25  1  0
 24 26  1  0
 26 27  2  0
  9 28  2  0
 28  5  1  0
 16 11  1  0
 27 21  1  0
  1 29  1  0
  1 30  1  0
  6 31  1  0
  7 32  1  0
  8 33  1  0
 12 34  1  0
 13 35  1  0
 14 36  1  0
 15 37  1  0
 22 38  1  0
 23 39  1  0
 26 40  1  0
 27 41  1  0
 28 42  1  0
M  CHG  1  17  -1
M  END
>  <UniqueID>  (87) 
79

>  <SMILES>  (87) 
NS(=O)(=O)c1cccc(Oc2ccccc2[N-]S(=O)(=O)c2ccc(Br)cc2)c1

>  <Energy>  (87) 
51.57138457362583

>  <Genealogy>  (87) 
NS(=O)(=O)c1cccc(Oc2ccccc2[N-]S(=O)(=O)c2ccc(Br)cc2)c1 (protonated)
NS(=O)(=O)c1cccc(Oc2ccccc2[N-]S(=O)(=O)c2ccc(Br)cc2)c1 (3D coordinates assigned)
NS(=O)(=O)c1cccc(Oc2ccccc2[N-]S(=O)(=O)c2ccc(Br)cc2)c1 (optimized conformer: 51.57138457362583 kcal/mol)

>  <smiles>  (87) 
NS(=O)(=O)c1cccc(Oc2ccccc2NS(=O)(=O)c2ccc(Br)cc2)c1

>  <score_type>  (87) 
oracle

>  <origin>  (87) 
adg

>  <m_score__min__energy>  (87) 
-11.449999999999999

>  <m_primary>  (87) 
energy

$$$$
87:0
     RDKit          3D

 45 47  0  0  0  0  0  0  0  0999 V2000
   60.3090   30.5870   46.3950 C   0  0  0  0  0  0  0  0  0  0  0  0
   59.1820   30.0440   45.5500 C   0  0  0  0  0  0  0  0  0  0  0  0
   59.3720   28.8200   44.8970 C   0  0  0  0  0  0  0  0  0  0  0  0
   58.3440   28.2980   44.1240 C   0  0  0  0  0  0  0  0  0  0  0  0
   58.4960   27.1960   43.5320 O   0  0  0  0  0  0  0  0  0  0  0  0
   57.1730   28.9750   44.0110 N   0  0  0  0  0  0  0  0  0  0  0  0
   56.9890   30.1700   44.6340 C   0  0  0  0  0  0  0  0  0  0  0  0
   55.8760   30.7550   44.5130 O   0  0  0  0  0  0  0  0  0  0  0  0
   57.9950   30.7290   45.3880 N   0  0  0  0  0  0  0  0  0  0  0  0
   57.7660   32.0260   46.0590 C   0  0  0  0  0  0  0  0  0  0  0  0
   58.1530   33.1600   45.1460 C   0  0  0  0  0  0  0  0  0  0  0  0
   58.9350   34.1860   45.5100 C   0  0  0  0  0  0  0  0  0  0  0  0
   60.0200   34.0990   46.5100 C   0  0  0  0  0  0  0  0  0  0  0  0
   61.3260   33.8360   46.0800 C   0  0  0  0  0  0  0  0  0  0  0  0
   62.3690   33.7280   47.0040 C   0  0  0  0  0  0  0  0  0  0  0  0
   62.1190   33.8600   48.3830 C   0  0  0  0  0  0  0  0  0  0  0  0
   63.2280   33.7620   49.3720 C   0  0  0  0  0  0  0  0  0  0  0  0
   63.1250   34.3670   50.5710 C   0  0  0  0  0  0  0  0  0  0  0  0
   64.1720   34.2110   51.6470 C   0  0  0  0  0  0  0  0  0  0  0  0
   65.4870   33.8370   51.1080 N   0  0  0  0  0  0  0  0  0  0  0  0
   65.3600   32.6930   50.1980 C   0  0  0  0  0  0  0  0  0  0  0  0
   64.5130   33.0690   48.9780 C   0  0  0  0  0  0  0  0  0  0  0  0
   60.8010   34.1050   48.8120 C   0  0  0  0  0  0  0  0  0  0  0  0
   59.7600   34.2110   47.8850 C   0  0  0  0  0  0  0  0  0  0  0  0
   60.0598   30.4669   47.4596 H   0  0  0  0  0  0  0  0  0  0  0  0
   61.2341   30.0357   46.1705 H   0  0  0  0  0  0  0  0  0  0  0  0
   60.4544   31.6540   46.1705 H   0  0  0  0  0  0  0  0  0  0  0  0
   60.3245   28.2786   44.9954 H   0  0  0  0  0  0  0  0  0  0  0  0
   56.4010   28.5690   43.4350 H   0  0  0  0  0  0  0  0  0  0  0  0
   56.7013   32.1170   46.3201 H   0  0  0  0  0  0  0  0  0  0  0  0
   58.3815   32.0725   46.9695 H   0  0  0  0  0  0  0  0  0  0  0  0
   57.7695   33.1451   44.1151 H   0  0  0  0  0  0  0  0  0  0  0  0
   58.7570   35.1603   45.0313 H   0  0  0  0  0  0  0  0  0  0  0  0
   61.5329   33.7134   45.0066 H   0  0  0  0  0  0  0  0  0  0  0  0
   63.3934   33.5384   46.6509 H   0  0  0  0  0  0  0  0  0  0  0  0
   62.2465   34.9973   50.7733 H   0  0  0  0  0  0  0  0  0  0  0  0
   64.2702   35.1661   52.1837 H   0  0  0  0  0  0  0  0  0  0  0  0
   63.8440   33.4011   52.3152 H   0  0  0  0  0  0  0  0  0  0  0  0
   65.8800   34.6520   50.5800 H   0  0  0  0  0  0  0  0  0  0  0  0
   66.3611   32.3846   49.8624 H   0  0  0  0  0  0  0  0  0  0  0  0
   64.8676   31.8668   50.7319 H   0  0  0  0  0  0  0  0  0  0  0  0
   65.0971   33.7432   48.3344 H   0  0  0  0  0  0  0  0  0  0  0  0
   64.2501   32.1416   48.4482 H   0  0  0  0  0  0  0  0  0  0  0  0
   60.5883   34.2140   49.8857 H   0  0  0  0  0  0  0  0  0  0  0  0
   58.7314   34.3831   48.2349 H   0  0  0  0  0  0  0  0  0  0  0  0
  1  2  1  0
  2  3  2  0
  3  4  1  0
  4  5  2  0
  4  6  1  0
  6  7  1  0
  7  8  2  0
  7  9  1  0
  9 10  1  0
 10 11  1  0
 11 12  2  3
 12 13  1  0
 13 14  2  0
 14 15  1  0
 15 16  2  0
 16 17  1  0
 17 18  2  0
 18 19  1  0
 19 20  1  0
 20 21  1  0
 21 22  1  0
 16 23  1  0
 23 24  2  0
  9  2  1  0
 24 13  1  0
 22 17  1  0
  1 25  1  0
  1 26  1  0
  1 27  1  0
  3 28  1  0
  6 29  1  0
 10 30  1  0
 10 31  1  0
 11 32  1  0
 12 33  1  0
 14 34  1  0
 15 35  1  0
 18 36  1  0
 19 37  1  0
 19 38  1  0
 20 39  1  0
 21 40  1  0
 21 41  1  0
 22 42  1  0
 22 43  1  0
 23 44  1  0
 24 45  1  0
M  END
>  <UniqueID>  (88) 
80

>  <SMILES>  (88) 
Cc1cc(=O)[nH]c(=O)n1CC=Cc1ccc(C2=CCNCC2)cc1

>  <Energy>  (88) 
61.288038082842846

>  <Genealogy>  (88) 
Cc1cc(=O)[nH]c(=O)n1CC=Cc1ccc(C2=CCNCC2)cc1 (3D coordinates assigned)
Cc1cc(=O)[nH]c(=O)n1CC=Cc1ccc(C2=CCNCC2)cc1 (nonaromatic ring conformer: 61.288038082842846 kcal/mol)

>  <smiles>  (88) 
Cc1cc(=O)[nH]c(=O)n1CC=Cc1ccc(C2=CCNCC2)cc1

>  <score_type>  (88) 
oracle

>  <origin>  (88) 
adg

>  <m_score__min__energy>  (88) 
-8.5800000000000001

>  <m_primary>  (88) 
energy

$$$$
