0:0
     RDKit          3D

 43 45  0  0  0  0  0  0  0  0999 V2000
   59.4300   28.7480   47.7810 C   0  0  0  0  0  0  0  0  0  0  0  0
   58.3750   28.2010   46.8810 C   0  0  0  0  0  0  0  0  0  0  0  0
   57.6860   27.1160   47.1250 O   0  0  0  0  0  0  0  0  0  0  0  0
   56.8680   26.9470   46.1060 C   0  0  0  0  0  0  0  0  0  0  0  0
   55.9280   25.8230   45.9990 C   0  0  0  0  0  0  0  0  0  0  0  0
   56.2980   24.5440   46.2060 N   0  0  0  0  0  0  0  0  0  0  0  0
   55.1720   23.8450   45.9770 C   0  0  0  0  0  0  0  0  0  0  0  0
   54.1600   24.7110   45.6370 C   0  0  0  0  0  0  0  0  0  0  0  0
   54.6330   25.9680   45.6460 N   0  0  0  0  0  0  0  0  0  0  0  0
   56.9890   27.9090   45.1640 N   0  0  0  0  0  0  0  0  0  0  0  0
   57.9560   28.7050   45.6630 C   0  0  0  0  0  0  0  0  0  0  0  0
   58.4620   29.9370   44.9710 C   0  0  0  0  0  0  0  0  0  0  0  0
   57.5750   31.1130   45.2380 C   0  0  0  0  0  0  0  0  0  0  0  0
   56.5170   31.2710   44.5660 O   0  0  0  0  0  0  0  0  0  0  0  0
   57.9710   32.0800   46.2230 N   0  0  0  0  0  0  0  0  0  0  0  0
   58.9450   33.1550   46.0290 C   0  0  2  0  0  0  0  0  0  0  0  0
   59.5300   33.6140   47.3830 C   0  0  0  0  0  0  0  0  0  0  0  0
   60.9930   33.2670   47.5010 C   0  0  0  0  0  0  0  0  0  0  0  0
   61.4430   32.4000   48.5130 C   0  0  0  0  0  0  0  0  0  0  0  0
   62.8040   32.1020   48.6300 C   0  0  0  0  0  0  0  0  0  0  0  0
   63.7270   32.6700   47.7470 C   0  0  0  0  0  0  0  0  0  0  0  0
   63.2890   33.5420   46.7490 C   0  0  0  0  0  0  0  0  0  0  0  0
   61.9280   33.8400   46.6230 C   0  0  0  0  0  0  0  0  0  0  0  0
   58.3340   34.2830   45.2310 C   0  0  0  0  0  0  0  0  0  0  0  0
   56.9690   34.2090   44.8170 N   0  0  0  0  0  0  0  0  0  0  0  0
   59.0090   35.3090   44.9500 O   0  0  0  0  0  0  0  0  0  0  0  0
   59.1336   28.5943   48.8291 H   0  0  0  0  0  0  0  0  0  0  0  0
   60.3808   28.2293   47.5890 H   0  0  0  0  0  0  0  0  0  0  0  0
   59.5540   29.8240   47.5890 H   0  0  0  0  0  0  0  0  0  0  0  0
   55.0759   22.7517   46.0503 H   0  0  0  0  0  0  0  0  0  0  0  0
   53.1268   24.4206   45.3958 H   0  0  0  0  0  0  0  0  0  0  0  0
   59.4752   30.1622   45.3353 H   0  0  0  0  0  0  0  0  0  0  0  0
   58.4716   29.7478   43.8874 H   0  0  0  0  0  0  0  0  0  0  0  0
   59.7926   32.7758   45.4393 H   0  0  0  0  0  0  0  0  0  0  0  0
   59.4133   34.7042   47.4713 H   0  0  0  0  0  0  0  0  0  0  0  0
   58.9870   33.0949   48.1865 H   0  0  0  0  0  0  0  0  0  0  0  0
   60.7220   31.9551   49.2145 H   0  0  0  0  0  0  0  0  0  0  0  0
   63.1496   31.4184   49.4194 H   0  0  0  0  0  0  0  0  0  0  0  0
   64.7966   32.4301   47.8385 H   0  0  0  0  0  0  0  0  0  0  0  0
   64.0160   33.9961   46.0597 H   0  0  0  0  0  0  0  0  0  0  0  0
   61.5885   34.5260   45.8330 H   0  0  0  0  0  0  0  0  0  0  0  0
   56.5350   34.9980   44.2870 H   0  0  0  0  0  0  0  0  0  0  0  0
   56.3840   33.3730   45.0440 H   0  0  0  0  0  0  0  0  0  0  0  0
  1  2  1  0
  2  3  1  0
  3  4  1  0
  4  5  1  0
  5  6  2  0
  6  7  1  0
  7  8  2  0
  8  9  1  0
  4 10  2  0
 10 11  1  0
 11 12  1  0
 12 13  1  0
 13 14  2  0
 13 15  1  0
 15 16  1  0
 16 17  1  0
 17 18  1  0
 18 19  2  0
 19 20  1  0
 20 21  2  0
 21 22  1  0
 22 23  2  0
 16 24  1  0
 24 25  1  0
 24 26  2  0
 11  2  2  0
 23 18  1  0
  9  5  1  0
  1 27  1  0
  1 28  1  0
  1 29  1  0
  7 30  1  0
  8 31  1  0
 12 32  1  0
 12 33  1  0
 16 34  1  6
 17 35  1  0
 17 36  1  0
 19 37  1  0
 20 38  1  0
 21 39  1  0
 22 40  1  0
 23 41  1  0
 25 42  1  0
 25 43  1  0
M  CHG  2   9  -1  15  -1
M  END
>  <UniqueID>  (1) 
1

>  <SMILES>  (1) 
Cc1oc(-c2ncc[n-]2)nc1CC(=O)[N-][C@H](Cc1ccccc1)C(N)=O

>  <Energy>  (1) 
94.55969290398512

>  <Genealogy>  (1) 
Cc1oc(-c2ncc[n-]2)nc1CC(=O)[N-]C(Cc1ccccc1)C(N)=O (protonated)
Cc1oc(-c2ncc[n-]2)nc1CC(=O)[N-][C@H](Cc1ccccc1)C(N)=O (chirality)
Cc1oc(-c2ncc[n-]2)nc1CC(=O)[N-][C@H](Cc1ccccc1)C(N)=O (3D coordinates assigned)
Cc1oc(-c2ncc[n-]2)nc1CC(=O)[N-][C@H](Cc1ccccc1)C(N)=O (optimized conformer: 94.55969290398512 kcal/mol)

>  <smiles>  (1) 
Cc1oc(-c2ncc[nH]2)nc1CC(=O)NC(Cc1ccccc1)C(N)=O

>  <score_type>  (1) 
oracle

>  <origin>  (1) 
adg

>  <m_score__min__energy>  (1) 
-11.9

>  <m_primary>  (1) 
energy

$$$$
1:0
     RDKit          3D

 38 40  0  0  1  0  0  0  0  0999 V2000
   55.8260   22.2990   42.6030 O   0  0  0  0  0  0  0  0  0  0  0  0
   56.2630   22.7680   43.8450 C   0  0  0  0  0  0  0  0  0  0  0  0
   57.1570   22.0040   44.5910 C   0  0  0  0  0  0  0  0  0  0  0  0
   57.5950   22.4620   45.8250 C   0  0  0  0  0  0  0  0  0  0  0  0
   57.1280   23.6720   46.2820 C   0  0  0  0  0  0  0  0  0  0  0  0
   56.2390   24.4430   45.5540 C   0  0  0  0  0  0  0  0  0  0  0  0
   55.8120   25.6810   46.1070 N   0  0  0  0  0  0  0  0  0  0  0  0
   56.6040   26.6840   46.0240 C   0  0  0  0  0  0  0  0  0  0  0  0
   57.9140   26.6520   46.4550 C   0  0  0  0  0  0  0  0  0  0  0  0
   58.6860   27.7870   46.3210 C   0  0  0  0  0  0  0  0  0  0  0  0
   58.2170   28.9270   45.7890 N   0  0  0  0  0  0  0  0  0  0  0  0
   56.9390   28.9310   45.3800 C   0  0  0  0  0  0  0  0  0  0  0  0
   56.4120   29.9660   44.8650 N   0  0  0  0  0  0  0  0  0  0  0  0
   57.0890   30.9140   44.0230 C   0  0  0  0  0  0  0  0  0  0  0  0
   57.6510   32.0750   44.7620 C   0  0  0  0  0  0  0  0  0  0  0  0
   57.7800   32.0360   46.1550 C   0  0  0  0  0  0  0  0  0  0  0  0
   58.2970   33.0950   46.8690 C   0  0  0  0  0  0  0  0  0  0  0  0
   58.7100   34.2450   46.2360 C   0  0  0  0  0  0  0  0  0  0  0  0
   58.5930   34.3080   44.8630 C   0  0  0  0  0  0  0  0  0  0  0  0
   58.0720   33.2370   44.1570 C   0  0  0  0  0  0  0  0  0  0  0  0
   56.1410   27.8300   45.4920 N   0  0  0  0  0  0  0  0  0  0  0  0
   55.8100   23.9770   44.3250 C   0  0  0  0  0  0  0  0  0  0  0  0
   56.2680   22.5850   41.7440 H   0  0  0  0  0  0  0  0  0  0  0  0
   57.5151   21.0392   44.2025 H   0  0  0  0  0  0  0  0  0  0  0  0
   58.3011   21.8696   46.4254 H   0  0  0  0  0  0  0  0  0  0  0  0
   57.4729   24.0396   47.2597 H   0  0  0  0  0  0  0  0  0  0  0  0
   58.3354   25.7375   46.8977 H   0  0  0  0  0  0  0  0  0  0  0  0
   59.7305   27.7570   46.6646 H   0  0  0  0  0  0  0  0  0  0  0  0
   58.7900   29.7880   45.6850 H   0  0  0  0  0  0  0  0  0  0  0  0
   57.9133   30.3966   43.5104 H   0  0  0  0  0  0  0  0  0  0  0  0
   56.3415   31.3113   43.3205 H   0  0  0  0  0  0  0  0  0  0  0  0
   57.4592   31.1334   46.6958 H   0  0  0  0  0  0  0  0  0  0  0  0
   58.3810   33.0199   47.9632 H   0  0  0  0  0  0  0  0  0  0  0  0
   59.1215   35.0895   46.8083 H   0  0  0  0  0  0  0  0  0  0  0  0
   58.9150   35.2129   44.3268 H   0  0  0  0  0  0  0  0  0  0  0  0
   57.9909   33.3187   43.0630 H   0  0  0  0  0  0  0  0  0  0  0  0
   55.1460   27.8750   45.1590 H   0  0  0  0  0  0  0  0  0  0  0  0
   55.1044   24.5739   43.7284 H   0  0  0  0  0  0  0  0  0  0  0  0
  1  2  1  0
  2  3  2  0
  3  4  1  0
  4  5  2  0
  5  6  1  0
  6  7  1  0
  7  8  2  0
  8  9  1  0
  9 10  2  0
 10 11  1  0
 11 12  1  0
 12 13  2  0
 13 14  1  0
 14 15  1  0
 15 16  2  0
 16 17  1  0
 17 18  2  0
 18 19  1  0
 19 20  2  0
 12 21  1  0
  6 22  2  0
 22  2  1  0
 21  8  1  0
 20 15  1  0
  1 23  1  0
  3 24  1  0
  4 25  1  0
  5 26  1  0
  9 27  1  0
 10 28  1  0
 11 29  1  0
 14 30  1  0
 14 31  1  0
 16 32  1  0
 17 33  1  0
 18 34  1  0
 19 35  1  0
 20 36  1  0
 21 37  1  0
 22 38  1  0
M  END
>  <smiles>  (2) 
Oc1cccc(N=c2cc[nH]c(=NCc3ccccc3)[nH]2)c1

>  <score_type>  (2) 
oracle

>  <origin>  (2) 
adg

>  <m_score__min__energy>  (2) 
-8.5299999999999994

>  <m_primary>  (2) 
energy

$$$$
2:0
     RDKit          3D

 50 53  0  0  0  0  0  0  0  0999 V2000
   64.2740   33.3880   48.3870 N   0  0  0  0  0  0  0  0  0  0  0  0
   63.0360   32.1970   48.2060 S   0  0  0  0  0  0  0  0  0  0  0  0
   63.4030   31.2550   47.0940 O   0  0  0  0  0  0  0  0  0  0  0  0
   62.9170   31.4220   49.4880 O   0  0  0  0  0  0  0  0  0  0  0  0
   61.5100   32.9900   47.8250 C   0  0  0  0  0  0  0  0  0  0  0  0
   60.7790   33.6500   48.8220 C   0  0  0  0  0  0  0  0  0  0  0  0
   59.5730   34.2790   48.5050 C   0  0  0  0  0  0  0  0  0  0  0  0
   59.0920   34.2540   47.1930 C   0  0  0  0  0  0  0  0  0  0  0  0
   59.8100   33.5960   46.1870 C   0  0  0  0  0  0  0  0  0  0  0  0
   59.2790   33.5940   44.8550 N   0  0  0  0  0  0  0  0  0  0  0  0
   57.7220   32.9810   44.4020 S   0  0  0  0  0  0  0  0  0  0  0  0
   57.5640   33.0310   42.9090 O   0  0  0  0  0  0  0  0  0  0  0  0
   56.6440   33.8100   45.0450 O   0  0  0  0  0  0  0  0  0  0  0  0
   57.5920   31.3120   44.9440 C   0  0  0  0  0  0  0  0  0  0  0  0
   56.6010   30.4830   44.4070 C   0  0  0  0  0  0  0  0  0  0  0  0
   56.4950   29.1510   44.8140 C   0  0  0  0  0  0  0  0  0  0  0  0
   57.3760   28.6240   45.7780 C   0  0  0  0  0  0  0  0  0  0  0  0
   57.2900   27.2790   46.2200 C   0  0  0  0  0  0  0  0  0  0  0  0
   56.2500   26.3950   45.7810 N   0  0  0  0  0  0  0  0  0  0  0  0
   56.1320   25.0310   46.2060 C   0  0  0  0  0  0  0  0  0  0  0  0
   55.5480   24.7590   47.2910 O   0  0  0  0  0  0  0  0  0  0  0  0
   56.7550   23.9580   45.4040 C   0  0  0  0  0  0  0  0  0  0  0  0
   58.1590   23.8960   45.3380 C   0  0  0  0  0  0  0  0  0  0  0  0
   58.7940   22.8650   44.6440 C   0  0  0  0  0  0  0  0  0  0  0  0
   58.0380   21.8820   44.0060 C   0  0  0  0  0  0  0  0  0  0  0  0
   56.6420   21.9370   44.0420 C   0  0  0  0  0  0  0  0  0  0  0  0
   55.9010   20.9610   43.3860 O   0  0  0  0  0  0  0  0  0  0  0  0
   55.9900   22.9760   44.7230 C   0  0  0  0  0  0  0  0  0  0  0  0
   54.5940   23.0210   44.6700 O   0  0  0  0  0  0  0  0  0  0  0  0
   58.2550   26.7760   47.1000 C   0  0  0  0  0  0  0  0  0  0  0  0
   59.2670   27.6000   47.5930 C   0  0  0  0  0  0  0  0  0  0  0  0
   59.3370   28.9380   47.2020 C   0  0  0  0  0  0  0  0  0  0  0  0
   58.4050   29.4580   46.2920 C   0  0  0  0  0  0  0  0  0  0  0  0
   58.4970   30.7950   45.8770 C   0  0  0  0  0  0  0  0  0  0  0  0
   61.0240   32.9610   46.5100 C   0  0  0  0  0  0  0  0  0  0  0  0
   65.0750   33.0900   47.7860 H   0  0  0  0  0  0  0  0  0  0  0  0
   61.1555   33.6727   49.8553 H   0  0  0  0  0  0  0  0  0  0  0  0
   59.0005   34.7952   49.2897 H   0  0  0  0  0  0  0  0  0  0  0  0
   58.1433   34.7545   46.9491 H   0  0  0  0  0  0  0  0  0  0  0  0
   55.9005   30.8830   43.6591 H   0  0  0  0  0  0  0  0  0  0  0  0
   55.7165   28.5080   44.3777 H   0  0  0  0  0  0  0  0  0  0  0  0
   58.7623   24.6678   45.8384 H   0  0  0  0  0  0  0  0  0  0  0  0
   59.8925   22.8277   44.6002 H   0  0  0  0  0  0  0  0  0  0  0  0
   58.5415   21.0617   43.4734 H   0  0  0  0  0  0  0  0  0  0  0  0
   54.0180   22.2250   44.4360 H   0  0  0  0  0  0  0  0  0  0  0  0
   58.2151   25.7202   47.4060 H   0  0  0  0  0  0  0  0  0  0  0  0
   60.0125   27.1937   48.2924 H   0  0  0  0  0  0  0  0  0  0  0  0
   60.1262   29.5872   47.6091 H   0  0  0  0  0  0  0  0  0  0  0  0
   59.2864   31.4413   46.2882 H   0  0  0  0  0  0  0  0  0  0  0  0
   61.5942   32.4395   45.7271 H   0  0  0  0  0  0  0  0  0  0  0  0
  1  2  1  0
  2  3  2  0
  2  4  2  0
  2  5  1  0
  5  6  2  0
  6  7  1  0
  7  8  2  0
  8  9  1  0
  9 10  1  0
 10 11  1  0
 11 12  2  0
 11 13  2  0
 11 14  1  0
 14 15  2  0
 15 16  1  0
 16 17  2  0
 17 18  1  0
 18 19  1  0
 19 20  1  0
 20 21  2  0
 20 22  1  0
 22 23  2  0
 23 24  1  0
 24 25  2  0
 25 26  1  0
 26 27  1  0
 26 28  2  0
 28 29  1  0
 18 30  2  0
 30 31  1  0
 31 32  2  0
 32 33  1  0
 33 34  2  0
  9 35  2  0
 35  5  1  0
 34 14  1  0
 33 17  1  0
 28 22  1  0
  1 36  1  0
  6 37  1  0
  7 38  1  0
  8 39  1  0
 15 40  1  0
 16 41  1  0
 23 42  1  0
 24 43  1  0
 25 44  1  0
 29 45  1  0
 30 46  1  0
 31 47  1  0
 32 48  1  0
 34 49  1  0
 35 50  1  0
M  CHG  4   1  -1  10  -1  19  -1  27  -1
M  END
>  <UniqueID>  (3) 
2

>  <SMILES>  (3) 
[NH-]S(=O)(=O)c1cccc([N-]S(=O)(=O)c2ccc3c([N-]C(=O)c4cccc([O-])c4O)cccc3c2)c1

>  <Energy>  (3) 
75.42423647457153

>  <Genealogy>  (3) 
[NH-]S(=O)(=O)c1cccc([N-]S(=O)(=O)c2ccc3c([N-]C(=O)c4cccc([O-])c4O)cccc3c2)c1 (protonated)
[NH-]S(=O)(=O)c1cccc([N-]S(=O)(=O)c2ccc3c([N-]C(=O)c4cccc([O-])c4O)cccc3c2)c1 (3D coordinates assigned)
[NH-]S(=O)(=O)c1cccc([N-]S(=O)(=O)c2ccc3c([N-]C(=O)c4cccc([O-])c4O)cccc3c2)c1 (optimized conformer: 75.42423647457153 kcal/mol)

>  <smiles>  (3) 
NS(=O)(=O)c1cccc(NS(=O)(=O)c2ccc3c(NC(=O)c4cccc(O)c4O)cccc3c2)c1

>  <score_type>  (3) 
oracle

>  <origin>  (3) 
adg

>  <m_score__min__energy>  (3) 
-19.489999999999998

>  <m_primary>  (3) 
energy

$$$$
3:0
     RDKit          3D

 48 49  0  0  0  0  0  0  0  0999 V2000
   63.2600   32.6900   47.2840 C   0  0  0  0  0  0  0  0  0  0  0  0
   62.4430   31.6530   47.4780 C   0  0  0  0  0  0  0  0  0  0  0  0
   60.9480   31.8190   47.4880 C   0  0  0  0  0  0  0  0  0  0  0  0
   60.2990   30.6790   48.1410 N   0  0  0  0  0  0  0  0  0  0  0  0
   59.5100   29.7950   47.5930 C   0  0  0  0  0  0  0  0  0  0  0  0
   58.4950   30.1530   46.6880 C   0  0  0  0  0  0  0  0  0  0  0  0
   57.6610   29.1700   46.1410 C   0  0  0  0  0  0  0  0  0  0  0  0
   56.5730   29.6150   45.2540 C   0  0  0  0  0  0  0  0  0  0  0  0
   55.5320   28.9080   45.1430 O   0  0  0  0  0  0  0  0  0  0  0  0
   56.7200   30.8110   44.4830 N   0  0  0  0  0  0  0  0  0  0  0  0
   57.9390   31.1160   43.7450 C   0  0  0  0  0  0  0  0  0  0  0  0
   58.0800   32.6250   43.5400 C   0  0  0  0  0  0  0  0  0  0  0  0
   58.4380   33.3380   44.8180 C   0  0  0  0  0  0  0  0  0  0  0  0
   59.5260   34.2270   44.8480 C   0  0  0  0  0  0  0  0  0  0  0  0
   59.8810   34.8640   46.0390 C   0  0  0  0  0  0  0  0  0  0  0  0
   59.1550   34.6190   47.2080 C   0  0  0  0  0  0  0  0  0  0  0  0
   58.0650   33.7450   47.1840 C   0  0  0  0  0  0  0  0  0  0  0  0
   57.7000   33.1130   45.9930 C   0  0  0  0  0  0  0  0  0  0  0  0
   57.8730   27.8080   46.4720 C   0  0  0  0  0  0  0  0  0  0  0  0
   57.1050   26.6870   45.8670 C   0  0  0  0  0  0  0  0  0  0  0  0
   56.0920   26.2060   46.4500 O   0  0  0  0  0  0  0  0  0  0  0  0
   57.4860   26.1870   44.6140 O   0  0  0  0  0  0  0  0  0  0  0  0
   58.2130   26.9520   43.6510 C   0  0  0  0  0  0  0  0  0  0  0  0
   58.0550   26.3410   42.2600 C   0  0  0  0  0  0  0  0  0  0  0  0
   58.9010   27.5040   47.3810 C   0  0  0  0  0  0  0  0  0  0  0  0
   59.6770   28.4840   47.9140 N   0  0  0  0  0  0  0  0  0  0  0  0
   64.3496   32.5389   47.2818 H   0  0  0  0  0  0  0  0  0  0  0  0
   62.8439   33.6960   47.1263 H   0  0  0  0  0  0  0  0  0  0  0  0
   62.8731   30.6527   47.6344 H   0  0  0  0  0  0  0  0  0  0  0  0
   60.6916   32.7397   48.0326 H   0  0  0  0  0  0  0  0  0  0  0  0
   60.5941   31.8762   46.4481 H   0  0  0  0  0  0  0  0  0  0  0  0
   58.3558   31.2079   46.4090 H   0  0  0  0  0  0  0  0  0  0  0  0
   58.8065   30.7453   44.3106 H   0  0  0  0  0  0  0  0  0  0  0  0
   57.8898   30.6272   42.7608 H   0  0  0  0  0  0  0  0  0  0  0  0
   58.8698   32.8100   42.7970 H   0  0  0  0  0  0  0  0  0  0  0  0
   57.1101   33.0128   43.1952 H   0  0  0  0  0  0  0  0  0  0  0  0
   60.1000   34.4218   43.9301 H   0  0  0  0  0  0  0  0  0  0  0  0
   60.7331   35.5594   46.0572 H   0  0  0  0  0  0  0  0  0  0  0  0
   59.4418   35.1144   48.1473 H   0  0  0  0  0  0  0  0  0  0  0  0
   57.4935   33.5544   48.1044 H   0  0  0  0  0  0  0  0  0  0  0  0
   56.8323   32.4371   45.9745 H   0  0  0  0  0  0  0  0  0  0  0  0
   57.8281   27.9824   43.6406 H   0  0  0  0  0  0  0  0  0  0  0  0
   59.2787   26.9506   43.9235 H   0  0  0  0  0  0  0  0  0  0  0  0
   57.7806   25.2800   42.3546 H   0  0  0  0  0  0  0  0  0  0  0  0
   57.2658   26.8764   41.7118 H   0  0  0  0  0  0  0  0  0  0  0  0
   59.0048   26.4266   41.7118 H   0  0  0  0  0  0  0  0  0  0  0  0
   59.0802   26.4566   47.6654 H   0  0  0  0  0  0  0  0  0  0  0  0
   60.4310   28.2080   48.5840 H   0  0  0  0  0  0  0  0  0  0  0  0
  1  2  2  0
  2  3  1  0
  3  4  1  0
  4  5  2  3
  5  6  1  0
  6  7  2  0
  7  8  1  0
  8  9  2  0
  8 10  1  0
 10 11  1  0
 11 12  1  0
 12 13  1  0
 13 14  2  0
 14 15  1  0
 15 16  2  0
 16 17  1  0
 17 18  2  0
  7 19  1  0
 19 20  1  0
 20 21  2  0
 20 22  1  0
 22 23  1  0
 23 24  1  0
 19 25  2  0
 25 26  1  0
 26  5  1  0
 18 13  1  0
  1 27  1  0
  1 28  1  0
  2 29  1  0
  3 30  1  0
  3 31  1  0
  6 32  1  0
 11 33  1  0
 11 34  1  0
 12 35  1  0
 12 36  1  0
 14 37  1  0
 15 38  1  0
 16 39  1  0
 17 40  1  0
 18 41  1  0
 23 42  1  0
 23 43  1  0
 24 44  1  0
 24 45  1  0
 24 46  1  0
 25 47  1  0
 26 48  1  0
M  CHG  1  10  -1
M  END
>  <UniqueID>  (4) 
3

>  <SMILES>  (4) 
C=CCN=c1cc(C(=O)[N-]CCc2ccccc2)c(C(=O)OCC)c[nH]1

>  <Energy>  (4) 
46.612087866367425

>  <Genealogy>  (4) 
C=CCN=c1cc(C(=O)[N-]CCc2ccccc2)c(C(=O)OCC)c[nH]1 (protonated)
C=CCN=c1cc(C(=O)[N-]CCc2ccccc2)c(C(=O)OCC)c[nH]1 (3D coordinates assigned)
C=CCN=c1cc(C(=O)[N-]CCc2ccccc2)c(C(=O)OCC)c[nH]1 (optimized conformer: 46.612087866367425 kcal/mol)

>  <smiles>  (4) 
C=CCN=c1cc(C(=O)NCCc2ccccc2)c(C(=O)OCC)c[nH]1

>  <score_type>  (4) 
oracle

>  <origin>  (4) 
adg

>  <m_score__min__energy>  (4) 
-9.4299999999999997

>  <m_primary>  (4) 
energy

$$$$
4:0
     RDKit          3D

 45 48  0  0  0  0  0  0  0  0999 V2000
   55.2734   28.9540   44.2409 H   0  0  0  0  0  0  0  0  0  0  0  0
   56.2230   29.4850   44.4030 C   0  0  0  0  0  0  0  0  0  0  0  0
   56.3400   30.7900   44.7190 N   0  0  0  0  0  0  0  0  0  0  0  0
   57.6290   31.0820   44.8290 N   0  0  0  0  0  0  0  0  0  0  0  0
   58.0620   32.3250   45.3980 C   0  0  0  0  0  0  0  0  0  0  0  0
   58.4670   33.3880   44.5710 C   0  0  0  0  0  0  0  0  0  0  0  0
   58.4374   33.2746   43.4773 H   0  0  0  0  0  0  0  0  0  0  0  0
   58.9070   34.5880   45.1360 C   0  0  0  0  0  0  0  0  0  0  0  0
   59.2051   35.4240   44.4861 H   0  0  0  0  0  0  0  0  0  0  0  0
   58.9690   34.7280   46.5250 C   0  0  0  0  0  0  0  0  0  0  0  0
   59.3126   35.6745   46.9678 H   0  0  0  0  0  0  0  0  0  0  0  0
   58.5940   33.6640   47.3520 C   0  0  0  0  0  0  0  0  0  0  0  0
   58.6478   33.7727   48.4453 H   0  0  0  0  0  0  0  0  0  0  0  0
   58.1510   32.4630   46.7910 C   0  0  0  0  0  0  0  0  0  0  0  0
   57.8712   31.6232   47.4441 H   0  0  0  0  0  0  0  0  0  0  0  0
   58.3500   29.9580   44.5770 C   0  0  0  0  0  0  0  0  0  0  0  0
   59.6480   29.8360   44.5840 N   0  0  0  0  0  0  0  0  0  0  0  0
   60.4960   29.2900   45.6020 C   0  0  0  0  0  0  0  0  0  0  0  0
   61.1230   28.2170   45.3860 O   0  0  0  0  0  0  0  0  0  0  0  0
   60.5330   29.9180   46.9460 C   0  0  0  0  0  0  0  0  0  0  0  0
   61.4820   30.9230   47.2260 C   0  0  0  0  0  0  0  0  0  0  0  0
   62.2054   31.2207   46.4527 H   0  0  0  0  0  0  0  0  0  0  0  0
   61.5110   31.5440   48.4780 C   0  0  0  0  0  0  0  0  0  0  0  0
   62.2503   32.3326   48.6819 H   0  0  0  0  0  0  0  0  0  0  0  0
   60.6060   31.1670   49.4690 C   0  0  0  0  0  0  0  0  0  0  0  0
   60.6318   31.6571   50.4534 H   0  0  0  0  0  0  0  0  0  0  0  0
   59.6670   30.1670   49.2110 C   0  0  0  0  0  0  0  0  0  0  0  0
   58.9561   29.8687   49.9956 H   0  0  0  0  0  0  0  0  0  0  0  0
   59.6250   29.5420   47.9600 C   0  0  0  0  0  0  0  0  0  0  0  0
   58.7060   28.5650   47.7530 F   0  0  0  0  0  0  0  0  0  0  0  0
   57.4790   28.9170   44.3140 C   0  0  0  0  0  0  0  0  0  0  0  0
   57.7830   27.4980   44.0450 C   0  0  0  0  0  0  0  0  0  0  0  0
   57.9470   27.1210   42.8560 O   0  0  0  0  0  0  0  0  0  0  0  0
   57.8620   26.5290   45.0960 N   0  0  0  0  0  0  0  0  0  0  0  0
   56.9150   26.4540   46.2020 C   0  0  0  0  0  0  0  0  0  0  0  0
   57.4283   26.0676   47.0949 H   0  0  0  0  0  0  0  0  0  0  0  0
   56.5176   27.4595   46.4044 H   0  0  0  0  0  0  0  0  0  0  0  0
   55.7840   25.5430   45.8490 C   0  0  0  0  0  0  0  0  0  0  0  0
   54.5180   25.8600   45.9850 O   0  0  0  0  0  0  0  0  0  0  0  0
   53.7860   24.8410   45.6000 C   0  0  0  0  0  0  0  0  0  0  0  0
   52.6863   24.8153   45.5998 H   0  0  0  0  0  0  0  0  0  0  0  0
   54.6040   23.8080   45.1960 C   0  0  0  0  0  0  0  0  0  0  0  0
   54.2889   22.8234   44.8202 H   0  0  0  0  0  0  0  0  0  0  0  0
   55.8970   24.2580   45.3580 C   0  0  0  0  0  0  0  0  0  0  0  0
   56.8247   23.7080   45.1413 H   0  0  0  0  0  0  0  0  0  0  0  0
  1  2  1  0
  2  3  1  0
  3  4  1  0
  4  5  1  0
  5  6  2  0
  6  7  1  0
  6  8  1  0
  8  9  1  0
  8 10  2  0
 10 11  1  0
 10 12  1  0
 12 13  1  0
 12 14  2  0
 14 15  1  0
  4 16  1  0
 16 17  2  0
 17 18  1  0
 18 19  2  0
 18 20  1  0
 20 21  2  0
 21 22  1  0
 21 23  1  0
 23 24  1  0
 23 25  2  0
 25 26  1  0
 25 27  1  0
 27 28  1  0
 27 29  2  0
 29 30  1  0
 16 31  1  0
 31 32  1  0
 32 33  2  0
 32 34  1  0
 34 35  1  0
 35 36  1  0
 35 37  1  0
 35 38  1  0
 38 39  1  0
 39 40  1  0
 40 41  1  0
 40 42  2  0
 42 43  1  0
 42 44  1  0
 44 45  1  0
 31  2  2  0
 44 38  2  0
 14  5  1  0
 29 20  1  0
M  CHG  2   3  -1  34  -1
M  END
>  <UniqueID>  (5) 
4

>  <SMILES>  (5) 
O=C(/N=c1/c(C(=O)[N-]Cc2ccco2)c[n-]n1-c1ccccc1)c1ccccc1F

>  <Energy>  (5) 
126.30057374599883

>  <Genealogy>  (5) 
O=C(N=c1c(C(=O)[N-]Cc2ccco2)c[n-]n1-c1ccccc1)c1ccccc1F (protonated)
O=C(/N=c1/c(C(=O)[N-]Cc2ccco2)c[n-]n1-c1ccccc1)c1ccccc1F (cis-trans isomerization)
O=C(/N=c1/c(C(=O)[N-]Cc2ccco2)c[n-]n1-c1ccccc1)c1ccccc1F (3D coordinates assigned)
O=C(/N=c1/c(C(=O)[N-]Cc2ccco2)c[n-]n1-c1ccccc1)c1ccccc1F (optimized conformer: 126.30057374599883 kcal/mol)

>  <smiles>  (5) 
O=C(N=c1c(C(=O)NCc2ccco2)c[nH]n1-c1ccccc1)c1ccccc1F

>  <score_type>  (5) 
oracle

>  <origin>  (5) 
adg

>  <m_score__min__energy>  (5) 
-11.359999999999999

>  <m_primary>  (5) 
energy

$$$$
5:0
     RDKit          3D

 75 79  0  0  0  0  0  0  0  0999 V2000
   57.4190   33.1040   47.5480 O   0  0  0  0  0  0  0  0  0  0  0  0
   57.7190   33.2870   46.3380 C   0  0  0  0  0  0  0  0  0  0  0  0
   58.8030   34.2880   46.0240 C   0  0  0  0  0  0  0  0  0  0  0  0
   60.1060   34.0320   46.7400 C   0  0  0  0  0  0  0  0  0  0  0  0
   60.2280   34.3480   48.1030 C   0  0  0  0  0  0  0  0  0  0  0  0
   61.4530   34.2180   48.7560 C   0  0  0  0  0  0  0  0  0  0  0  0
   62.5950   33.8410   48.0450 C   0  0  0  0  0  0  0  0  0  0  0  0
   63.8540   33.8290   48.7350 N   0  0  0  0  0  0  0  0  0  0  0  0
   64.0800   33.5520   50.1250 C   0  0  0  0  0  0  0  0  0  0  0  0
   63.8920   34.4780   50.9580 O   0  0  0  0  0  0  0  0  0  0  0  0
   64.5600   32.2340   50.6060 C   0  0  0  0  0  0  0  0  0  0  0  0
   65.9340   32.0270   50.8530 C   0  0  0  0  0  0  0  0  0  0  0  0
   67.1470   33.2560   50.4990 Cl  0  0  0  0  0  0  0  0  0  0  0  0
   66.3600   30.8080   51.3880 C   0  0  0  0  0  0  0  0  0  0  0  0
   65.4650   29.8150   51.6260 N   0  0  0  0  0  0  0  0  0  0  0  0
   64.1450   29.9600   51.3450 C   0  0  0  0  0  0  0  0  0  0  0  0
   63.6640   31.1610   50.8150 C   0  0  0  0  0  0  0  0  0  0  0  0
   61.9730   31.2370   50.3290 Cl  0  0  0  0  0  0  0  0  0  0  0  0
   62.4830   33.5110   46.6830 C   0  0  0  0  0  0  0  0  0  0  0  0
   61.2440   33.6020   46.0350 C   0  0  0  0  0  0  0  0  0  0  0  0
   57.0020   32.5330   45.3470 N   0  0  0  0  0  0  0  0  0  0  0  0
   57.2870   31.2380   44.8010 C   0  0  0  0  0  0  0  0  0  0  0  0
   56.8220   30.8390   43.5380 C   0  0  0  0  0  0  0  0  0  0  0  0
   57.0330   29.5310   43.0910 C   0  0  0  0  0  0  0  0  0  0  0  0
   57.7410   28.6260   43.8870 C   0  0  0  0  0  0  0  0  0  0  0  0
   58.2850   29.0430   45.1040 C   0  0  0  0  0  0  0  0  0  0  0  0
   58.0880   30.3560   45.5470 C   0  0  0  0  0  0  0  0  0  0  0  0
   58.7930   30.8350   46.6970 N   0  0  0  0  0  0  0  0  0  0  0  0
   59.2160   29.9980   47.7830 C   0  0  0  0  0  0  0  0  0  0  0  0
   60.2870   29.1160   47.5880 C   0  0  0  0  0  0  0  0  0  0  0  0
   60.7800   28.3560   48.6490 C   0  0  0  0  0  0  0  0  0  0  0  0
   60.2250   28.4910   49.9220 C   0  0  0  0  0  0  0  0  0  0  0  0
   59.1540   29.3750   50.1410 C   0  0  0  0  0  0  0  0  0  0  0  0
   58.6300   29.5800   51.5060 C   0  0  0  0  0  0  0  0  0  0  0  0
   59.4120   29.5740   52.4960 O   0  0  0  0  0  0  0  0  0  0  0  0
   57.2220   29.7320   51.7060 N   0  0  0  0  0  0  0  0  0  0  0  0
   56.5580   31.0140   51.9280 C   0  0  1  0  0  0  0  0  0  0  0  0
   55.0370   30.8030   52.0320 C   0  0  0  0  0  0  0  0  0  0  0  0
   54.6880   29.4490   51.9190 O   0  0  0  0  0  0  0  0  0  0  0  0
   57.1490   31.7600   53.1510 C   0  0  0  0  0  0  0  0  0  0  0  0
   58.4760   32.4330   52.8950 C   0  0  0  0  0  0  0  0  0  0  0  0
   59.4960   32.3910   53.8610 C   0  0  0  0  0  0  0  0  0  0  0  0
   60.7160   33.0350   53.6300 C   0  0  0  0  0  0  0  0  0  0  0  0
   60.9210   33.7380   52.4410 C   0  0  0  0  0  0  0  0  0  0  0  0
   59.9090   33.7930   51.4790 C   0  0  0  0  0  0  0  0  0  0  0  0
   58.6900   33.1470   51.7050 C   0  0  0  0  0  0  0  0  0  0  0  0
   58.6410   30.1150   49.0610 C   0  0  0  0  0  0  0  0  0  0  0  0
   58.9934   34.2622   44.9409 H   0  0  0  0  0  0  0  0  0  0  0  0
   58.4393   35.2671   46.3690 H   0  0  0  0  0  0  0  0  0  0  0  0
   59.3484   34.7016   48.6609 H   0  0  0  0  0  0  0  0  0  0  0  0
   61.5206   34.4132   49.8364 H   0  0  0  0  0  0  0  0  0  0  0  0
   67.4246   30.6525   51.6171 H   0  0  0  0  0  0  0  0  0  0  0  0
   63.4503   29.1286   51.5352 H   0  0  0  0  0  0  0  0  0  0  0  0
   63.3709   33.1803   46.1242 H   0  0  0  0  0  0  0  0  0  0  0  0
   61.1613   33.3361   44.9708 H   0  0  0  0  0  0  0  0  0  0  0  0
   56.2898   31.5579   42.8977 H   0  0  0  0  0  0  0  0  0  0  0  0
   56.6418   29.2142   42.1129 H   0  0  0  0  0  0  0  0  0  0  0  0
   57.8698   27.5853   43.5549 H   0  0  0  0  0  0  0  0  0  0  0  0
   58.8688   28.3388   45.7149 H   0  0  0  0  0  0  0  0  0  0  0  0
   59.0150   31.8550   46.7340 H   0  0  0  0  0  0  0  0  0  0  0  0
   60.7424   29.0221   46.5911 H   0  0  0  0  0  0  0  0  0  0  0  0
   61.6067   27.6499   48.4819 H   0  0  0  0  0  0  0  0  0  0  0  0
   60.6279   27.9022   50.7593 H   0  0  0  0  0  0  0  0  0  0  0  0
   56.7448   31.6681   51.0636 H   0  0  0  0  0  0  0  0  0  0  0  0
   54.6915   31.1792   53.0062 H   0  0  0  0  0  0  0  0  0  0  0  0
   54.5597   31.3484   51.2045 H   0  0  0  0  0  0  0  0  0  0  0  0
   55.5040   28.9620   51.6370 H   0  0  0  0  0  0  0  0  0  0  0  0
   56.4285   32.5299   53.4644 H   0  0  0  0  0  0  0  0  0  0  0  0
   57.3295   30.9982   53.9237 H   0  0  0  0  0  0  0  0  0  0  0  0
   59.3340   31.8486   54.8041 H   0  0  0  0  0  0  0  0  0  0  0  0
   61.5143   32.9877   54.3853 H   0  0  0  0  0  0  0  0  0  0  0  0
   61.8788   34.2483   52.2617 H   0  0  0  0  0  0  0  0  0  0  0  0
   60.0719   34.3457   50.5420 H   0  0  0  0  0  0  0  0  0  0  0  0
   57.8946   33.1983   50.9469 H   0  0  0  0  0  0  0  0  0  0  0  0
   57.7856   30.7888   49.2166 H   0  0  0  0  0  0  0  0  0  0  0  0
  1  2  2  0
  2  3  1  0
  3  4  1  0
  4  5  2  0
  5  6  1  0
  6  7  2  0
  7  8  1  0
  8  9  1  0
  9 10  2  0
  9 11  1  0
 11 12  2  0
 12 13  1  0
 12 14  1  0
 14 15  2  0
 15 16  1  0
 16 17  2  0
 17 18  1  0
  7 19  1  0
 19 20  2  0
  2 21  1  0
 21 22  1  0
 22 23  2  0
 23 24  1  0
 24 25  2  0
 25 26  1  0
 26 27  2  0
 27 28  1  0
 28 29  1  0
 29 30  2  0
 30 31  1  0
 31 32  2  0
 32 33  1  0
 33 34  1  0
 34 35  2  0
 34 36  1  0
 36 37  1  0
 37 38  1  0
 38 39  1  0
 37 40  1  0
 40 41  1  0
 41 42  2  0
 42 43  1  0
 43 44  2  0
 44 45  1  0
 45 46  2  0
 33 47  2  0
 20  4  1  0
 27 22  1  0
 47 29  1  0
 17 11  1  0
 46 41  1  0
  3 48  1  0
  3 49  1  0
  5 50  1  0
  6 51  1  0
 14 52  1  0
 16 53  1  0
 19 54  1  0
 20 55  1  0
 23 56  1  0
 24 57  1  0
 25 58  1  0
 26 59  1  0
 28 60  1  0
 30 61  1  0
 31 62  1  0
 32 63  1  0
 37 64  1  6
 38 65  1  0
 38 66  1  0
 39 67  1  0
 40 68  1  0
 40 69  1  0
 42 70  1  0
 43 71  1  0
 44 72  1  0
 45 73  1  0
 46 74  1  0
 47 75  1  0
M  CHG  3   8  -1  21  -1  36  -1
M  END
>  <UniqueID>  (6) 
5

>  <SMILES>  (6) 
O=C(Cc1ccc([N-]C(=O)c2c(Cl)cncc2Cl)cc1)[N-]c1ccccc1Nc1cccc(C(=O)[N-][C@@H](CO)Cc2ccccc2)c1

>  <Energy>  (6) 
100.62685105399059

>  <Genealogy>  (6) 
O=C(Cc1ccc([N-]C(=O)c2c(Cl)cncc2Cl)cc1)[N-]c1ccccc1Nc1cccc(C(=O)[N-]C(CO)Cc2ccccc2)c1 (protonated)
O=C(Cc1ccc([N-]C(=O)c2c(Cl)cncc2Cl)cc1)[N-]c1ccccc1Nc1cccc(C(=O)[N-][C@@H](CO)Cc2ccccc2)c1 (chirality)
O=C(Cc1ccc([N-]C(=O)c2c(Cl)cncc2Cl)cc1)[N-]c1ccccc1Nc1cccc(C(=O)[N-][C@@H](CO)Cc2ccccc2)c1 (3D coordinates assigned)
O=C(Cc1ccc([N-]C(=O)c2c(Cl)cncc2Cl)cc1)[N-]c1ccccc1Nc1cccc(C(=O)[N-][C@@H](CO)Cc2ccccc2)c1 (optimized conformer: 100.62685105399059 kcal/mol)

>  <smiles>  (6) 
O=C(Cc1ccc(NC(=O)c2c(Cl)cncc2Cl)cc1)Nc1ccccc1Nc1cccc(C(=O)NC(CO)Cc2ccccc2)c1

>  <score_type>  (6) 
oracle

>  <origin>  (6) 
adg

>  <m_score__min__energy>  (6) 
-14.42

>  <m_primary>  (6) 
energy

$$$$
6:0
     RDKit          3D

 60 63  0  0  0  0  0  0  0  0999 V2000
   61.6860   32.8990   49.2500 C   0  0  0  0  0  0  0  0  0  0  0  0
   61.2450   31.6590   48.5280 C   0  0  0  0  0  0  0  0  0  0  0  0
   60.5260   30.6650   49.2160 C   0  0  0  0  0  0  0  0  0  0  0  0
   60.1240   29.4970   48.5530 C   0  0  0  0  0  0  0  0  0  0  0  0
   60.4290   29.3220   47.1880 C   0  0  0  0  0  0  0  0  0  0  0  0
   60.0050   27.8160   46.3640 S   0  0  0  0  0  0  0  0  0  0  0  0
   60.2050   27.9540   44.8710 O   0  0  0  0  0  0  0  0  0  0  0  0
   60.8890   26.7100   46.8770 O   0  0  0  0  0  0  0  0  0  0  0  0
   58.3320   27.4220   46.6840 N   0  0  0  0  0  0  0  0  0  0  0  0
   57.5160   27.5150   45.4550 C   0  0  1  0  0  0  0  0  0  0  0  0
   56.1270   26.8580   45.6460 C   0  0  0  0  0  0  0  0  0  0  0  0
   56.1850   25.4020   46.0650 C   0  0  0  0  0  0  0  0  0  0  0  0
   55.1440   24.8140   46.4600 O   0  0  0  0  0  0  0  0  0  0  0  0
   57.4240   24.6700   46.0870 N   0  0  0  0  0  0  0  0  0  0  0  0
   57.8910   23.7480   45.0500 C   0  0  0  0  0  0  0  0  0  0  0  0
   57.4300   22.3070   45.3680 C   0  0  0  0  0  0  0  0  0  0  0  0
   57.0750   21.5430   44.0840 C   0  0  0  0  0  0  0  0  0  0  0  0
   56.0110   22.1350   43.3490 O   0  0  0  0  0  0  0  0  0  0  0  0
   55.9980   23.5700   43.3820 C   0  0  0  0  0  0  0  0  0  0  0  0
   57.3640   24.2130   43.6800 C   0  0  0  0  0  0  0  0  0  0  0  0
   57.4090   28.9660   45.0780 C   0  0  0  0  0  0  0  0  0  0  0  0
   56.6430   29.5010   44.0580 C   0  0  0  0  0  0  0  0  0  0  0  0
   56.8380   30.8650   44.1210 C   0  0  0  0  0  0  0  0  0  0  0  0
   57.7030   31.0800   45.1820 C   0  0  0  0  0  0  0  0  0  0  0  0
   58.1900   32.3840   45.6800 C   0  0  0  0  0  0  0  0  0  0  0  0
   58.2610   32.6650   47.0560 C   0  0  0  0  0  0  0  0  0  0  0  0
   58.7370   33.9000   47.5050 C   0  0  0  0  0  0  0  0  0  0  0  0
   59.1420   34.8720   46.5870 C   0  0  0  0  0  0  0  0  0  0  0  0
   59.0750   34.6010   45.2210 C   0  0  0  0  0  0  0  0  0  0  0  0
   58.6040   33.3660   44.7660 C   0  0  0  0  0  0  0  0  0  0  0  0
   58.0250   29.9280   45.7280 O   0  0  0  0  0  0  0  0  0  0  0  0
   61.1190   30.3270   46.4900 C   0  0  0  0  0  0  0  0  0  0  0  0
   61.5100   31.4950   47.1550 C   0  0  0  0  0  0  0  0  0  0  0  0
   61.6266   32.7319   50.3356 H   0  0  0  0  0  0  0  0  0  0  0  0
   62.7235   33.1359   48.9717 H   0  0  0  0  0  0  0  0  0  0  0  0
   61.0311   33.7378   48.9717 H   0  0  0  0  0  0  0  0  0  0  0  0
   60.2781   30.8046   50.2786 H   0  0  0  0  0  0  0  0  0  0  0  0
   59.5709   28.7176   49.0977 H   0  0  0  0  0  0  0  0  0  0  0  0
   58.3080   26.4560   47.0960 H   0  0  0  0  0  0  0  0  0  0  0  0
   57.9993   26.9598   44.6376 H   0  0  0  0  0  0  0  0  0  0  0  0
   55.5826   27.4191   46.4199 H   0  0  0  0  0  0  0  0  0  0  0  0
   55.6241   26.8876   44.6681 H   0  0  0  0  0  0  0  0  0  0  0  0
   58.9906   23.7484   45.0222 H   0  0  0  0  0  0  0  0  0  0  0  0
   58.2413   21.7771   45.8885 H   0  0  0  0  0  0  0  0  0  0  0  0
   56.5327   22.3596   46.0021 H   0  0  0  0  0  0  0  0  0  0  0  0
   57.9666   21.5096   43.4406 H   0  0  0  0  0  0  0  0  0  0  0  0
   56.7414   20.5392   44.3858 H   0  0  0  0  0  0  0  0  0  0  0  0
   55.6534   23.9332   42.4025 H   0  0  0  0  0  0  0  0  0  0  0  0
   55.3295   23.8583   44.2066 H   0  0  0  0  0  0  0  0  0  0  0  0
   58.0803   23.9203   42.8982 H   0  0  0  0  0  0  0  0  0  0  0  0
   57.2467   25.3066   43.6963 H   0  0  0  0  0  0  0  0  0  0  0  0
   56.0099   28.9526   43.3449 H   0  0  0  0  0  0  0  0  0  0  0  0
   56.3964   31.6275   43.4625 H   0  0  0  0  0  0  0  0  0  0  0  0
   57.9393   31.9066   47.7850 H   0  0  0  0  0  0  0  0  0  0  0  0
   58.7929   34.1071   48.5839 H   0  0  0  0  0  0  0  0  0  0  0  0
   59.5118   35.8460   46.9400 H   0  0  0  0  0  0  0  0  0  0  0  0
   59.3950   35.3642   44.4964 H   0  0  0  0  0  0  0  0  0  0  0  0
   58.5575   33.1625   43.6860 H   0  0  0  0  0  0  0  0  0  0  0  0
   61.3516   30.1963   45.4228 H   0  0  0  0  0  0  0  0  0  0  0  0
   62.0284   32.2911   46.6005 H   0  0  0  0  0  0  0  0  0  0  0  0
  1  2  1  0
  2  3  2  0
  3  4  1  0
  4  5  2  0
  5  6  1  0
  6  7  2  0
  6  8  2  0
  6  9  1  0
  9 10  1  0
 10 11  1  0
 11 12  1  0
 12 13  2  0
 12 14  1  0
 14 15  1  0
 15 16  1  0
 16 17  1  0
 17 18  1  0
 18 19  1  0
 19 20  1  0
 10 21  1  0
 21 22  2  0
 22 23  1  0
 23 24  2  0
 24 25  1  0
 25 26  2  0
 26 27  1  0
 27 28  2  0
 28 29  1  0
 29 30  2  0
 24 31  1  0
  5 32  1  0
 32 33  2  0
 33  2  1  0
 20 15  1  0
 31 21  1  0
 30 25  1  0
  1 34  1  0
  1 35  1  0
  1 36  1  0
  3 37  1  0
  4 38  1  0
  9 39  1  0
 10 40  1  6
 11 41  1  0
 11 42  1  0
 15 43  1  0
 16 44  1  0
 16 45  1  0
 17 46  1  0
 17 47  1  0
 19 48  1  0
 19 49  1  0
 20 50  1  0
 20 51  1  0
 22 52  1  0
 23 53  1  0
 26 54  1  0
 27 55  1  0
 28 56  1  0
 29 57  1  0
 30 58  1  0
 32 59  1  0
 33 60  1  0
M  CHG  1  14  -1
M  END
>  <UniqueID>  (7) 
6

>  <SMILES>  (7) 
Cc1ccc(S(=O)(=O)N[C@@H](CC(=O)[N-]C2CCOCC2)c2ccc(-c3ccccc3)o2)cc1

>  <Energy>  (7) 
95.55657295497566

>  <Genealogy>  (7) 
Cc1ccc(S(=O)(=O)NC(CC(=O)[N-]C2CCOCC2)c2ccc(-c3ccccc3)o2)cc1 (protonated)
Cc1ccc(S(=O)(=O)N[C@@H](CC(=O)[N-]C2CCOCC2)c2ccc(-c3ccccc3)o2)cc1 (chirality)
Cc1ccc(S(=O)(=O)N[C@@H](CC(=O)[N-]C2CCOCC2)c2ccc(-c3ccccc3)o2)cc1 (3D coordinates assigned)
Cc1ccc(S(=O)(=O)N[C@@H](CC(=O)[N-]C2CCOCC2)c2ccc(-c3ccccc3)o2)cc1 (nonaromatic ring conformer: 95.55657295497566 kcal/mol)

>  <smiles>  (7) 
Cc1ccc(S(=O)(=O)NC(CC(=O)NC2CCOCC2)c2ccc(-c3ccccc3)o2)cc1

>  <score_type>  (7) 
oracle

>  <origin>  (7) 
adg

>  <m_score__min__energy>  (7) 
-13.16

>  <m_primary>  (7) 
energy

$$$$
7:0
     RDKit          3D

 65 68  0  0  0  0  0  0  0  0999 V2000
   62.5650   32.6760   48.2670 C   0  0  0  0  0  0  0  0  0  0  0  0
   61.1620   32.9750   47.8070 C   0  0  0  0  0  0  0  0  0  0  0  0
   60.6170   34.2390   48.0840 C   0  0  0  0  0  0  0  0  0  0  0  0
   59.3260   34.5620   47.6730 C   0  0  0  0  0  0  0  0  0  0  0  0
   58.5520   33.6210   46.9980 C   0  0  0  0  0  0  0  0  0  0  0  0
   59.0600   32.3460   46.7190 C   0  0  0  0  0  0  0  0  0  0  0  0
   58.2010   31.3970   46.0650 N   0  0  0  0  0  0  0  0  0  0  0  0
   57.8260   31.4960   44.6780 C   0  0  0  0  0  0  0  0  0  0  0  0
   58.3410   32.5430   43.8910 C   0  0  0  0  0  0  0  0  0  0  0  0
   58.0500   32.6190   42.5290 C   0  0  0  0  0  0  0  0  0  0  0  0
   57.2510   31.6480   41.9310 C   0  0  0  0  0  0  0  0  0  0  0  0
   56.7300   30.6020   42.6940 C   0  0  0  0  0  0  0  0  0  0  0  0
   56.9980   30.5120   44.0740 C   0  0  0  0  0  0  0  0  0  0  0  0
   56.3690   29.4170   44.8550 C   0  0  0  0  0  0  0  0  0  0  0  0
   55.1470   29.1420   44.7030 O   0  0  0  0  0  0  0  0  0  0  0  0
   57.1600   28.6400   45.7600 N   0  0  0  0  0  0  0  0  0  0  0  0
   58.2800   27.8180   45.3260 C   0  0  0  0  0  0  0  0  0  0  0  0
   58.5370   26.7520   46.3400 C   0  0  0  0  0  0  0  0  0  0  0  0
   57.8060   25.7240   46.3650 O   0  0  0  0  0  0  0  0  0  0  0  0
   59.5670   26.9430   47.3170 N   0  0  0  0  0  0  0  0  0  0  0  0
   59.6590   28.0240   48.2580 C   0  0  0  0  0  0  0  0  0  0  0  0
   60.7140   28.0250   49.1780 C   0  0  0  0  0  0  0  0  0  0  0  0
   60.8280   29.0480   50.1250 C   0  0  0  0  0  0  0  0  0  0  0  0
   59.8730   30.0720   50.1760 C   0  0  0  0  0  0  0  0  0  0  0  0
   60.0070   31.3550   51.3820 S   0  0  0  0  0  0  0  0  0  0  0  0
   61.2120   31.1010   52.2430 O   0  0  0  0  0  0  0  0  0  0  0  0
   60.2050   32.6720   50.6820 O   0  0  0  0  0  0  0  0  0  0  0  0
   58.5830   31.4440   52.3930 N   0  0  0  0  0  0  0  0  0  0  0  0
   57.4350   31.9580   51.6230 C   0  0  0  0  0  0  0  0  0  0  0  0
   56.1120   31.5840   52.3110 C   0  0  0  0  0  0  0  0  0  0  0  0
   55.9080   30.1820   52.4550 O   0  0  0  0  0  0  0  0  0  0  0  0
   57.1080   29.4220   52.4280 C   0  0  0  0  0  0  0  0  0  0  0  0
   58.3040   30.1540   53.0610 C   0  0  0  0  0  0  0  0  0  0  0  0
   58.8060   30.0640   49.2670 C   0  0  0  0  0  0  0  0  0  0  0  0
   58.6930   29.0430   48.3190 C   0  0  0  0  0  0  0  0  0  0  0  0
   60.4000   32.0300   47.0700 C   0  0  0  0  0  0  0  0  0  0  0  0
   61.0020   30.7010   46.6740 C   0  0  0  0  0  0  0  0  0  0  0  0
   62.5968   32.6692   49.3665 H   0  0  0  0  0  0  0  0  0  0  0  0
   62.8741   31.6918   47.8852 H   0  0  0  0  0  0  0  0  0  0  0  0
   63.2486   33.4486   47.8852 H   0  0  0  0  0  0  0  0  0  0  0  0
   61.2158   34.9819   48.6313 H   0  0  0  0  0  0  0  0  0  0  0  0
   58.9171   35.5616   47.8818 H   0  0  0  0  0  0  0  0  0  0  0  0
   57.5315   33.8819   46.6809 H   0  0  0  0  0  0  0  0  0  0  0  0
   58.0260   30.4880   46.5510 H   0  0  0  0  0  0  0  0  0  0  0  0
   58.9796   33.3092   44.3548 H   0  0  0  0  0  0  0  0  0  0  0  0
   58.4521   33.4469   41.9266 H   0  0  0  0  0  0  0  0  0  0  0  0
   57.0300   31.7055   40.8550 H   0  0  0  0  0  0  0  0  0  0  0  0
   56.1022   29.8383   42.2117 H   0  0  0  0  0  0  0  0  0  0  0  0
   58.0406   27.3534   44.3581 H   0  0  0  0  0  0  0  0  0  0  0  0
   59.1765   28.4464   45.2191 H   0  0  0  0  0  0  0  0  0  0  0  0
   61.4586   27.2156   49.1560 H   0  0  0  0  0  0  0  0  0  0  0  0
   61.6705   29.0486   50.8323 H   0  0  0  0  0  0  0  0  0  0  0  0
   57.5086   33.0532   51.5517 H   0  0  0  0  0  0  0  0  0  0  0  0
   57.4519   31.5097   50.6186 H   0  0  0  0  0  0  0  0  0  0  0  0
   56.1026   32.0392   53.3124 H   0  0  0  0  0  0  0  0  0  0  0  0
   55.3025   31.9580   51.6669 H   0  0  0  0  0  0  0  0  0  0  0  0
   56.9405   28.4847   52.9788 H   0  0  0  0  0  0  0  0  0  0  0  0
   57.3570   29.2420   51.3718 H   0  0  0  0  0  0  0  0  0  0  0  0
   58.0827   30.3442   54.1216 H   0  0  0  0  0  0  0  0  0  0  0  0
   59.1917   29.5144   52.9473 H   0  0  0  0  0  0  0  0  0  0  0  0
   58.0534   30.8656   49.2999 H   0  0  0  0  0  0  0  0  0  0  0  0
   57.8451   29.0371   47.6183 H   0  0  0  0  0  0  0  0  0  0  0  0
   61.2601   30.1312   47.5788 H   0  0  0  0  0  0  0  0  0  0  0  0
   60.2738   30.1318   46.0775 H   0  0  0  0  0  0  0  0  0  0  0  0
   61.9101   30.8730   46.0775 H   0  0  0  0  0  0  0  0  0  0  0  0
  1  2  1  0
  2  3  2  0
  3  4  1  0
  4  5  2  0
  5  6  1  0
  6  7  1  0
  7  8  1  0
  8  9  2  0
  9 10  1  0
 10 11  2  0
 11 12  1  0
 12 13  2  0
 13 14  1  0
 14 15  2  0
 14 16  1  0
 16 17  1  0
 17 18  1  0
 18 19  2  0
 18 20  1  0
 20 21  1  0
 21 22  2  0
 22 23  1  0
 23 24  2  0
 24 25  1  0
 25 26  2  0
 25 27  2  0
 25 28  1  0
 28 29  1  0
 29 30  1  0
 30 31  1  0
 31 32  1  0
 32 33  1  0
 24 34  1  0
 34 35  2  0
  6 36  2  0
 36 37  1  0
 36  2  1  0
 13  8  1  0
 35 21  1  0
 33 28  1  0
  1 38  1  0
  1 39  1  0
  1 40  1  0
  3 41  1  0
  4 42  1  0
  5 43  1  0
  7 44  1  0
  9 45  1  0
 10 46  1  0
 11 47  1  0
 12 48  1  0
 17 49  1  0
 17 50  1  0
 22 51  1  0
 23 52  1  0
 29 53  1  0
 29 54  1  0
 30 55  1  0
 30 56  1  0
 32 57  1  0
 32 58  1  0
 33 59  1  0
 33 60  1  0
 34 61  1  0
 35 62  1  0
 37 63  1  0
 37 64  1  0
 37 65  1  0
M  CHG  2  16  -1  20  -1
M  END
>  <UniqueID>  (8) 
7

>  <SMILES>  (8) 
Cc1cccc(Nc2ccccc2C(=O)[N-]CC(=O)[N-]c2ccc(S(=O)(=O)N3CCOCC3)cc2)c1C

>  <Energy>  (8) 
92.79479477670017

>  <Genealogy>  (8) 
Cc1cccc(Nc2ccccc2C(=O)[N-]CC(=O)[N-]c2ccc(S(=O)(=O)N3CCOCC3)cc2)c1C (protonated)
Cc1cccc(Nc2ccccc2C(=O)[N-]CC(=O)[N-]c2ccc(S(=O)(=O)N3CCOCC3)cc2)c1C (3D coordinates assigned)
Cc1cccc(Nc2ccccc2C(=O)[N-]CC(=O)[N-]c2ccc(S(=O)(=O)N3CCOCC3)cc2)c1C (nonaromatic ring conformer: 92.79479477670017 kcal/mol)

>  <smiles>  (8) 
Cc1cccc(Nc2ccccc2C(=O)NCC(=O)Nc2ccc(S(=O)(=O)N3CCOCC3)cc2)c1C

>  <score_type>  (8) 
oracle

>  <origin>  (8) 
adg

>  <m_score__min__energy>  (8) 
-12.81

>  <m_primary>  (8) 
energy

$$$$
8:0
     RDKit          3D

 52 54  0  0  0  0  0  0  0  0999 V2000
   58.2210   27.0740   43.0960 C   0  0  0  0  0  0  0  0  0  0  0  0
   58.3100   28.1660   44.1190 C   0  0  0  0  0  0  0  0  0  0  0  0
   59.5610   28.6840   44.4830 C   0  0  0  0  0  0  0  0  0  0  0  0
   59.6520   29.7290   45.4070 C   0  0  0  0  0  0  0  0  0  0  0  0
   58.4880   30.2810   45.9700 C   0  0  0  0  0  0  0  0  0  0  0  0
   58.5830   31.4150   46.9560 C   0  0  0  0  0  0  0  0  0  0  0  0
   59.9510   31.5420   47.4730 N   0  0  0  0  0  0  0  0  0  0  0  0
   60.5510   30.7720   48.4110 C   0  0  0  0  0  0  0  0  0  0  0  0
   59.7460   29.4240   49.2880 S   0  0  0  0  0  0  0  0  0  0  0  0
   60.5250   28.0950   48.3080 C   0  0  0  0  0  0  0  0  0  0  0  0
   59.5010   27.3550   47.5110 C   0  0  0  0  0  0  0  0  0  0  0  0
   58.2830   27.6580   47.6310 O   0  0  0  0  0  0  0  0  0  0  0  0
   59.9140   26.2340   46.7180 N   0  0  0  0  0  0  0  0  0  0  0  0
   59.0920   25.1910   46.1780 C   0  0  0  0  0  0  0  0  0  0  0  0
   59.6290   24.0030   45.6510 C   0  0  0  0  0  0  0  0  0  0  0  0
   58.7810   23.0150   45.1420 C   0  0  0  0  0  0  0  0  0  0  0  0
   57.3960   23.2000   45.1600 C   0  0  0  0  0  0  0  0  0  0  0  0
   56.8510   24.3710   45.7000 C   0  0  0  0  0  0  0  0  0  0  0  0
   55.1040   24.5830   45.7450 S   0  0  0  0  0  0  0  0  0  0  0  0
   54.7330   26.2580   45.9650 N   0  0  0  0  0  0  0  0  0  0  0  0
   54.5070   24.0970   44.4550 O   0  0  0  0  0  0  0  0  0  0  0  0
   54.5160   23.8050   46.8890 O   0  0  0  0  0  0  0  0  0  0  0  0
   57.7020   25.3560   46.2200 C   0  0  0  0  0  0  0  0  0  0  0  0
   61.8370   31.1150   48.6350 N   0  0  0  0  0  0  0  0  0  0  0  0
   62.0470   32.1570   47.8050 C   0  0  0  0  0  0  0  0  0  0  0  0
   63.3500   32.8810   47.7040 C   0  0  0  0  0  0  0  0  0  0  0  0
   60.8960   32.4240   47.0880 C   0  0  0  0  0  0  0  0  0  0  0  0
   60.7140   33.4870   46.0430 C   0  0  0  0  0  0  0  0  0  0  0  0
   57.2360   29.7660   45.6010 C   0  0  0  0  0  0  0  0  0  0  0  0
   57.1470   28.7210   44.6760 C   0  0  0  0  0  0  0  0  0  0  0  0
   58.1417   26.1014   43.6038 H   0  0  0  0  0  0  0  0  0  0  0  0
   57.3328   27.2326   42.4667 H   0  0  0  0  0  0  0  0  0  0  0  0
   59.1232   27.0866   42.4667 H   0  0  0  0  0  0  0  0  0  0  0  0
   60.4763   28.2656   44.0389 H   0  0  0  0  0  0  0  0  0  0  0  0
   60.6386   30.1211   45.6948 H   0  0  0  0  0  0  0  0  0  0  0  0
   58.2977   32.3525   46.4562 H   0  0  0  0  0  0  0  0  0  0  0  0
   57.9054   31.2086   47.7976 H   0  0  0  0  0  0  0  0  0  0  0  0
   61.2643   28.5371   47.6239 H   0  0  0  0  0  0  0  0  0  0  0  0
   61.0143   27.3897   48.9958 H   0  0  0  0  0  0  0  0  0  0  0  0
   60.7184   23.8508   45.6392 H   0  0  0  0  0  0  0  0  0  0  0  0
   59.2052   22.0892   44.7261 H   0  0  0  0  0  0  0  0  0  0  0  0
   56.7330   22.4243   44.7492 H   0  0  0  0  0  0  0  0  0  0  0  0
   53.6910   26.3430   45.9550 H   0  0  0  0  0  0  0  0  0  0  0  0
   57.2742   26.2665   46.6649 H   0  0  0  0  0  0  0  0  0  0  0  0
   63.7311   33.0927   48.7139 H   0  0  0  0  0  0  0  0  0  0  0  0
   64.0754   32.2566   47.1619 H   0  0  0  0  0  0  0  0  0  0  0  0
   63.2029   33.8267   47.1619 H   0  0  0  0  0  0  0  0  0  0  0  0
   60.5478   34.4579   46.5326 H   0  0  0  0  0  0  0  0  0  0  0  0
   61.6157   33.5425   45.4154 H   0  0  0  0  0  0  0  0  0  0  0  0
   59.8452   33.2393   45.4154 H   0  0  0  0  0  0  0  0  0  0  0  0
   56.3199   30.1864   46.0415 H   0  0  0  0  0  0  0  0  0  0  0  0
   56.1606   28.3319   44.3833 H   0  0  0  0  0  0  0  0  0  0  0  0
  1  2  1  0
  2  3  2  0
  3  4  1  0
  4  5  2  0
  5  6  1  0
  6  7  1  0
  7  8  1  0
  8  9  1  0
  9 10  1  0
 10 11  1  0
 11 12  2  0
 11 13  1  0
 13 14  1  0
 14 15  2  0
 15 16  1  0
 16 17  2  0
 17 18  1  0
 18 19  1  0
 19 20  1  0
 19 21  2  0
 19 22  2  0
 18 23  2  0
  8 24  2  0
 24 25  1  0
 25 26  1  0
 25 27  2  0
 27 28  1  0
  5 29  1  0
 29 30  2  0
 30  2  1  0
 27  7  1  0
 23 14  1  0
  1 31  1  0
  1 32  1  0
  1 33  1  0
  3 34  1  0
  4 35  1  0
  6 36  1  0
  6 37  1  0
 10 38  1  0
 10 39  1  0
 15 40  1  0
 16 41  1  0
 17 42  1  0
 20 43  1  0
 23 44  1  0
 26 45  1  0
 26 46  1  0
 26 47  1  0
 28 48  1  0
 28 49  1  0
 28 50  1  0
 29 51  1  0
 30 52  1  0
M  CHG  2  13  -1  20  -1
M  END
>  <UniqueID>  (9) 
8

>  <SMILES>  (9) 
Cc1ccc(Cn2c(SCC(=O)[N-]c3cccc(S([NH-])(=O)=O)c3)nc(C)c2C)cc1

>  <Energy>  (9) 
75.31280408477166

>  <Genealogy>  (9) 
Cc1ccc(Cn2c(SCC(=O)[N-]c3cccc(S([NH-])(=O)=O)c3)nc(C)c2C)cc1 (protonated)
Cc1ccc(Cn2c(SCC(=O)[N-]c3cccc(S([NH-])(=O)=O)c3)nc(C)c2C)cc1 (3D coordinates assigned)
Cc1ccc(Cn2c(SCC(=O)[N-]c3cccc(S([NH-])(=O)=O)c3)nc(C)c2C)cc1 (optimized conformer: 75.31280408477166 kcal/mol)

>  <smiles>  (9) 
Cc1ccc(Cn2c(SCC(=O)Nc3cccc(S(N)(=O)=O)c3)nc(C)c2C)cc1

>  <score_type>  (9) 
oracle

>  <origin>  (9) 
adg

>  <m_score__min__energy>  (9) 
-13.27

>  <m_primary>  (9) 
energy

$$$$
9:0
     RDKit          3D

 37 38  0  0  0  0  0  0  0  0999 V2000
   55.7350   29.0530   44.8630 N   0  0  0  0  0  0  0  0  0  0  0  0
   57.1590   28.9920   45.0580 C   0  0  0  0  0  0  0  0  0  0  0  0
   57.8150   27.7390   45.1180 C   0  0  0  0  0  0  0  0  0  0  0  0
   57.0600   26.5160   45.1320 N   0  0  0  0  0  0  0  0  0  0  0  0
   57.1950   25.5240   46.1630 C   0  0  0  0  0  0  0  0  0  0  0  0
   58.1110   25.6270   47.0250 O   0  0  0  0  0  0  0  0  0  0  0  0
   56.2690   24.3350   46.2160 C   0  0  1  0  0  0  0  0  0  0  0  0
   56.4060   23.6090   47.4810 N   0  0  0  0  0  0  0  0  0  0  0  0
   54.8460   24.7640   45.9930 C   0  0  0  0  0  0  0  0  0  0  0  0
   53.8930   23.9600   46.1760 O   0  0  0  0  0  0  0  0  0  0  0  0
   54.5720   26.0760   45.6310 O   0  0  0  0  0  0  0  0  0  0  0  0
   59.2140   27.6890   45.2190 C   0  0  0  0  0  0  0  0  0  0  0  0
   59.9640   28.8620   45.2540 C   0  0  0  0  0  0  0  0  0  0  0  0
   59.3280   30.1000   45.2080 C   0  0  0  0  0  0  0  0  0  0  0  0
   57.9300   30.1820   45.1150 C   0  0  0  0  0  0  0  0  0  0  0  0
   57.3000   31.5210   45.1220 C   0  0  0  0  0  0  0  0  0  0  0  0
   56.1080   31.6300   44.7220 O   0  0  0  0  0  0  0  0  0  0  0  0
   58.0170   32.7240   45.6190 C   0  0  0  0  0  0  0  0  0  0  0  0
   58.2180   32.9300   46.9990 C   0  0  0  0  0  0  0  0  0  0  0  0
   58.9030   34.0620   47.4530 C   0  0  0  0  0  0  0  0  0  0  0  0
   59.3980   34.9950   46.5410 C   0  0  0  0  0  0  0  0  0  0  0  0
   59.2150   34.7970   45.1710 C   0  0  0  0  0  0  0  0  0  0  0  0
   58.5320   33.6670   44.7100 C   0  0  0  0  0  0  0  0  0  0  0  0
   55.2560   29.9290   44.5630 H   0  0  0  0  0  0  0  0  0  0  0  0
   55.1370   28.1990   44.9090 H   0  0  0  0  0  0  0  0  0  0  0  0
   56.3960   26.3360   44.3460 H   0  0  0  0  0  0  0  0  0  0  0  0
   56.5538   23.6466   45.4066 H   0  0  0  0  0  0  0  0  0  0  0  0
   56.8950   24.2290   48.1670 H   0  0  0  0  0  0  0  0  0  0  0  0
   55.4600   23.4000   47.8770 H   0  0  0  0  0  0  0  0  0  0  0  0
   59.7225   26.7150   45.2710 H   0  0  0  0  0  0  0  0  0  0  0  0
   61.0609   28.8105   45.3181 H   0  0  0  0  0  0  0  0  0  0  0  0
   59.9268   31.0220   45.2449 H   0  0  0  0  0  0  0  0  0  0  0  0
   57.8339   32.1963   47.7230 H   0  0  0  0  0  0  0  0  0  0  0  0
   59.0519   34.2171   48.5318 H   0  0  0  0  0  0  0  0  0  0  0  0
   59.9323   35.8864   46.9014 H   0  0  0  0  0  0  0  0  0  0  0  0
   59.6088   35.5313   44.4529 H   0  0  0  0  0  0  0  0  0  0  0  0
   58.3963   33.5141   43.6292 H   0  0  0  0  0  0  0  0  0  0  0  0
  1  2  1  0
  2  3  2  0
  3  4  1  0
  4  5  1  0
  5  6  2  0
  5  7  1  0
  7  8  1  0
  7  9  1  0
  9 10  2  0
  9 11  1  0
  3 12  1  0
 12 13  2  0
 13 14  1  0
 14 15  2  0
 15 16  1  0
 16 17  2  0
 16 18  1  0
 18 19  2  0
 19 20  1  0
 20 21  2  0
 21 22  1  0
 22 23  2  0
 15  2  1  0
 23 18  1  0
  1 24  1  0
  1 25  1  0
  4 26  1  0
  7 27  1  6
  8 28  1  0
  8 29  1  0
 12 30  1  0
 13 31  1  0
 14 32  1  0
 19 33  1  0
 20 34  1  0
 21 35  1  0
 22 36  1  0
 23 37  1  0
M  CHG  1  11  -1
M  END
>  <UniqueID>  (10) 
9

>  <SMILES>  (10) 
Nc1c(NC(=O)[C@@H](N)C(=O)[O-])cccc1C(=O)c1ccccc1

>  <Energy>  (10) 
50.33899282890445

>  <Genealogy>  (10) 
Nc1c(NC(=O)C(N)C(=O)[O-])cccc1C(=O)c1ccccc1 (protonated)
Nc1c(NC(=O)[C@@H](N)C(=O)[O-])cccc1C(=O)c1ccccc1 (chirality)
Nc1c(NC(=O)[C@@H](N)C(=O)[O-])cccc1C(=O)c1ccccc1 (3D coordinates assigned)
Nc1c(NC(=O)[C@@H](N)C(=O)[O-])cccc1C(=O)c1ccccc1 (optimized conformer: 50.33899282890445 kcal/mol)

>  <smiles>  (10) 
Nc1c(NC(=O)C(N)C(=O)O)cccc1C(=O)c1ccccc1

>  <score_type>  (10) 
oracle

>  <origin>  (10) 
adg

>  <m_score__min__energy>  (10) 
-11.19

>  <m_primary>  (10) 
energy

$$$$
10:0
     RDKit          3D

 67 71  0  0  0  0  0  0  0  0999 V2000
   59.6550   22.2590   44.8160 C   0  0  0  0  0  0  0  0  0  0  0  0
   59.5460   23.4380   45.6080 O   0  0  0  0  0  0  0  0  0  0  0  0
   58.3810   24.2190   45.7230 C   0  0  0  0  0  0  0  0  0  0  0  0
   57.1060   23.7110   45.3820 C   0  0  0  0  0  0  0  0  0  0  0  0
   55.9680   24.5100   45.4980 C   0  0  0  0  0  0  0  0  0  0  0  0
   56.0800   25.8250   45.9520 C   0  0  0  0  0  0  0  0  0  0  0  0
   57.3350   26.3470   46.2780 C   0  0  0  0  0  0  0  0  0  0  0  0
   58.4930   25.5530   46.1720 C   0  0  0  0  0  0  0  0  0  0  0  0
   59.8470   26.1610   46.4760 C   0  0  0  0  0  0  0  0  0  0  0  0
   59.8970   26.6590   47.8490 N   0  0  0  0  0  0  0  0  0  0  0  0
   59.5400   28.0040   48.2030 C   0  0  0  0  0  0  0  0  0  0  0  0
   58.3440   28.4030   48.1070 O   0  0  0  0  0  0  0  0  0  0  0  0
   60.6210   28.9030   48.7370 C   0  0  0  0  0  0  0  0  0  0  0  0
   60.0930   30.1680   49.2870 N   0  0  0  0  0  0  0  0  0  0  0  0
   59.6610   30.2360   50.6700 C   0  0  0  0  0  0  0  0  0  0  0  0
   59.7560   29.2170   51.4140 O   0  0  0  0  0  0  0  0  0  0  0  0
   59.1230   31.4900   51.2670 C   0  0  0  0  0  0  0  0  0  0  0  0
   57.8730   31.5010   51.9470 C   0  0  0  0  0  0  0  0  0  0  0  0
   57.0150   30.2620   52.0340 C   0  0  0  0  0  0  0  0  0  0  0  0
   57.3990   32.7030   52.5020 C   0  0  0  0  0  0  0  0  0  0  0  0
   58.1380   33.8820   52.3830 C   0  0  0  0  0  0  0  0  0  0  0  0
   59.3570   33.8750   51.7130 C   0  0  0  0  0  0  0  0  0  0  0  0
   59.8500   32.6930   51.1460 C   0  0  0  0  0  0  0  0  0  0  0  0
   61.3820   32.7580   50.2100 S   0  0  0  0  0  0  0  0  0  0  0  0
   60.4580   32.5430   48.6920 C   0  0  0  0  0  0  0  0  0  0  0  0
   60.2460   33.6320   47.8420 C   0  0  0  0  0  0  0  0  0  0  0  0
   59.4120   33.5020   46.7330 C   0  0  0  0  0  0  0  0  0  0  0  0
   58.7930   32.2740   46.4590 C   0  0  0  0  0  0  0  0  0  0  0  0
   57.6570   32.1420   45.1150 S   0  0  0  0  0  0  0  0  0  0  0  0
   56.6330   33.2420   45.2410 O   0  0  0  0  0  0  0  0  0  0  0  0
   58.3890   32.3440   43.8150 O   0  0  0  0  0  0  0  0  0  0  0  0
   56.8310   30.5950   45.1030 N   0  0  0  0  0  0  0  0  0  0  0  0
   57.7340   29.4470   45.3390 C   0  0  0  0  0  0  0  0  0  0  0  0
   58.2580   28.8310   44.0350 C   0  0  0  0  0  0  0  0  0  0  0  0
   57.1870   28.5070   43.1760 O   0  0  0  0  0  0  0  0  0  0  0  0
   56.5510   29.6960   42.7670 C   0  0  0  0  0  0  0  0  0  0  0  0
   55.9070   30.4170   43.9620 C   0  0  0  0  0  0  0  0  0  0  0  0
   59.0690   31.1580   47.2650 C   0  0  0  0  0  0  0  0  0  0  0  0
   59.8770   31.2950   48.4050 C   0  0  0  0  0  0  0  0  0  0  0  0
   59.7361   21.3814   45.4742 H   0  0  0  0  0  0  0  0  0  0  0  0
   58.7622   22.1599   44.1811 H   0  0  0  0  0  0  0  0  0  0  0  0
   60.5508   22.3253   44.1811 H   0  0  0  0  0  0  0  0  0  0  0  0
   57.0105   22.6760   45.0219 H   0  0  0  0  0  0  0  0  0  0  0  0
   54.9815   24.1030   45.2313 H   0  0  0  0  0  0  0  0  0  0  0  0
   55.1808   26.4505   46.0532 H   0  0  0  0  0  0  0  0  0  0  0  0
   57.4189   27.3888   46.6209 H   0  0  0  0  0  0  0  0  0  0  0  0
   60.6245   25.3945   46.3421 H   0  0  0  0  0  0  0  0  0  0  0  0
   60.0168   27.0035   45.7895 H   0  0  0  0  0  0  0  0  0  0  0  0
   61.1590   28.3702   49.5349 H   0  0  0  0  0  0  0  0  0  0  0  0
   61.2846   29.1580   47.8976 H   0  0  0  0  0  0  0  0  0  0  0  0
   56.8406   30.0102   53.0905 H   0  0  0  0  0  0  0  0  0  0  0  0
   56.0512   30.4478   51.5374 H   0  0  0  0  0  0  0  0  0  0  0  0
   57.5280   29.4252   51.5374 H   0  0  0  0  0  0  0  0  0  0  0  0
   56.4368   32.7147   53.0350 H   0  0  0  0  0  0  0  0  0  0  0  0
   57.7559   34.8167   52.8193 H   0  0  0  0  0  0  0  0  0  0  0  0
   59.9383   34.8050   51.6278 H   0  0  0  0  0  0  0  0  0  0  0  0
   60.7384   34.5937   48.0487 H   0  0  0  0  0  0  0  0  0  0  0  0
   59.2391   34.3639   46.0717 H   0  0  0  0  0  0  0  0  0  0  0  0
   58.5917   29.7903   45.9361 H   0  0  0  0  0  0  0  0  0  0  0  0
   57.1574   28.6722   45.8655 H   0  0  0  0  0  0  0  0  0  0  0  0
   58.9186   29.5534   43.5333 H   0  0  0  0  0  0  0  0  0  0  0  0
   58.8130   27.9118   44.2738 H   0  0  0  0  0  0  0  0  0  0  0  0
   57.2952   30.3610   42.3045 H   0  0  0  0  0  0  0  0  0  0  0  0
   55.7609   29.4399   42.0457 H   0  0  0  0  0  0  0  0  0  0  0  0
   55.5669   31.4089   43.6297 H   0  0  0  0  0  0  0  0  0  0  0  0
   55.0737   29.7897   44.3114 H   0  0  0  0  0  0  0  0  0  0  0  0
   58.6515   30.1747   47.0029 H   0  0  0  0  0  0  0  0  0  0  0  0
  1  2  1  0
  2  3  1  0
  3  4  2  0
  4  5  1  0
  5  6  2  0
  6  7  1  0
  7  8  2  0
  8  9  1  0
  9 10  1  0
 10 11  1  0
 11 12  2  0
 11 13  1  0
 13 14  1  0
 14 15  1  0
 15 16  2  0
 15 17  1  0
 17 18  2  0
 18 19  1  0
 18 20  1  0
 20 21  2  0
 21 22  1  0
 22 23  2  0
 23 24  1  0
 24 25  1  0
 25 26  2  0
 26 27  1  0
 27 28  2  0
 28 29  1  0
 29 30  2  0
 29 31  2  0
 29 32  1  0
 32 33  1  0
 33 34  1  0
 34 35  1  0
 35 36  1  0
 36 37  1  0
 28 38  1  0
 38 39  2  0
  8  3  1  0
 39 14  1  0
 23 17  1  0
 39 25  1  0
 37 32  1  0
  1 40  1  0
  1 41  1  0
  1 42  1  0
  4 43  1  0
  5 44  1  0
  6 45  1  0
  7 46  1  0
  9 47  1  0
  9 48  1  0
 13 49  1  0
 13 50  1  0
 19 51  1  0
 19 52  1  0
 19 53  1  0
 20 54  1  0
 21 55  1  0
 22 56  1  0
 26 57  1  0
 27 58  1  0
 33 59  1  0
 33 60  1  0
 34 61  1  0
 34 62  1  0
 36 63  1  0
 36 64  1  0
 37 65  1  0
 37 66  1  0
 38 67  1  0
M  CHG  1  10  -1
M  END
>  <UniqueID>  (11) 
10

>  <SMILES>  (11) 
COc1ccccc1C[N-]C(=O)CN1C(=O)c2c(C)cccc2Sc2ccc(S(=O)(=O)N3CCOCC3)cc21

>  <Energy>  (11) 
89.0562330758132

>  <Genealogy>  (11) 
COc1ccccc1C[N-]C(=O)CN1C(=O)c2c(C)cccc2Sc2ccc(S(=O)(=O)N3CCOCC3)cc21 (protonated)
COc1ccccc1C[N-]C(=O)CN1C(=O)c2c(C)cccc2Sc2ccc(S(=O)(=O)N3CCOCC3)cc21 (3D coordinates assigned)
COc1ccccc1C[N-]C(=O)CN1C(=O)c2c(C)cccc2Sc2ccc(S(=O)(=O)N3CCOCC3)cc21 (nonaromatic ring conformer: 89.0562330758132 kcal/mol)

>  <smiles>  (11) 
COc1ccccc1CNC(=O)CN1C(=O)c2c(C)cccc2Sc2ccc(S(=O)(=O)N3CCOCC3)cc21

>  <score_type>  (11) 
oracle

>  <origin>  (11) 
adg

>  <m_score__min__energy>  (11) 
-10.92

>  <m_primary>  (11) 
energy

$$$$
11:0
     RDKit          3D

 46 48  0  0  0  0  0  0  0  0999 V2000
   57.7330   28.5900   46.0960 C   0  0  0  0  0  0  0  0  0  0  0  0
   57.8200   29.0590   44.6420 C   0  0  0  0  0  0  0  0  0  0  0  0
   58.0980   27.8770   43.7100 C   0  0  0  0  0  0  0  0  0  0  0  0
   56.3230   29.9110   44.1330 S   0  0  0  0  0  0  0  0  0  0  0  0
   55.1640   29.3090   44.8760 O   0  0  0  0  0  0  0  0  0  0  0  0
   56.0770   29.7230   42.6620 O   0  0  0  0  0  0  0  0  0  0  0  0
   56.3960   31.6010   44.5300 N   0  0  0  0  0  0  0  0  0  0  0  0
   57.4270   32.2840   45.2580 C   0  0  0  0  0  0  0  0  0  0  0  0
   57.8540   33.5300   44.7890 C   0  0  0  0  0  0  0  0  0  0  0  0
   58.8370   34.2470   45.4710 C   0  0  0  0  0  0  0  0  0  0  0  0
   59.4030   33.7390   46.6430 C   0  0  0  0  0  0  0  0  0  0  0  0
   60.3460   34.5260   47.3190 O   0  0  0  0  0  0  0  0  0  0  0  0
   61.6120   34.0790   47.7280 C   0  0  0  0  0  0  0  0  0  0  0  0
   62.0500   34.1930   49.0610 C   0  0  0  0  0  0  0  0  0  0  0  0
   63.3120   33.7180   49.4300 C   0  0  0  0  0  0  0  0  0  0  0  0
   64.1500   33.1410   48.4720 C   0  0  0  0  0  0  0  0  0  0  0  0
   63.7290   33.0440   47.1430 C   0  0  0  0  0  0  0  0  0  0  0  0
   62.4670   33.5170   46.7720 C   0  0  0  0  0  0  0  0  0  0  0  0
   59.0200   32.4560   47.1040 C   0  0  0  0  0  0  0  0  0  0  0  0
   59.6640   31.8260   48.2790 C   0  0  0  0  0  0  0  0  0  0  0  0
   59.3190   32.2230   49.5800 C   0  0  0  0  0  0  0  0  0  0  0  0
   59.9480   31.6400   50.6810 C   0  0  0  0  0  0  0  0  0  0  0  0
   60.9190   30.6490   50.4740 C   0  0  0  0  0  0  0  0  0  0  0  0
   61.5230   30.0920   51.4740 N   0  0  0  0  0  0  0  0  0  0  0  0
   61.2320   30.2680   49.2070 N   0  0  0  0  0  0  0  0  0  0  0  0
   60.6330   30.8230   48.1200 C   0  0  0  0  0  0  0  0  0  0  0  0
   58.0250   31.7450   46.4090 C   0  0  0  0  0  0  0  0  0  0  0  0
   57.8919   29.4465   46.7677 H   0  0  0  0  0  0  0  0  0  0  0  0
   56.7392   28.1570   46.2828 H   0  0  0  0  0  0  0  0  0  0  0  0
   58.5054   27.8294   46.2828 H   0  0  0  0  0  0  0  0  0  0  0  0
   58.6554   29.7714   44.5737 H   0  0  0  0  0  0  0  0  0  0  0  0
   58.3092   26.9792   44.3094 H   0  0  0  0  0  0  0  0  0  0  0  0
   57.2180   27.6956   43.0754 H   0  0  0  0  0  0  0  0  0  0  0  0
   58.9666   28.1068   43.0754 H   0  0  0  0  0  0  0  0  0  0  0  0
   57.4106   33.9488   43.8736 H   0  0  0  0  0  0  0  0  0  0  0  0
   59.1695   35.2210   45.0827 H   0  0  0  0  0  0  0  0  0  0  0  0
   61.3971   34.6574   49.8147 H   0  0  0  0  0  0  0  0  0  0  0  0
   63.6456   33.7985   50.4751 H   0  0  0  0  0  0  0  0  0  0  0  0
   65.1410   32.7632   48.7640 H   0  0  0  0  0  0  0  0  0  0  0  0
   64.3913   32.5950   46.3882 H   0  0  0  0  0  0  0  0  0  0  0  0
   62.1437   33.4473   45.7229 H   0  0  0  0  0  0  0  0  0  0  0  0
   58.5509   32.9956   49.7324 H   0  0  0  0  0  0  0  0  0  0  0  0
   59.6848   31.9547   51.7016 H   0  0  0  0  0  0  0  0  0  0  0  0
   62.4070   29.5450   51.3620 H   0  0  0  0  0  0  0  0  0  0  0  0
   60.9092   30.4842   47.1106 H   0  0  0  0  0  0  0  0  0  0  0  0
   57.7114   30.7548   46.7713 H   0  0  0  0  0  0  0  0  0  0  0  0
  1  2  1  0
  2  3  1  0
  2  4  1  0
  4  5  2  0
  4  6  2  0
  4  7  1  0
  7  8  1  0
  8  9  2  0
  9 10  1  0
 10 11  2  0
 11 12  1  0
 12 13  1  0
 13 14  2  0
 14 15  1  0
 15 16  2  0
 16 17  1  0
 17 18  2  0
 11 19  1  0
 19 20  1  0
 20 21  1  0
 21 22  2  0
 22 23  1  0
 23 24  2  3
 23 25  1  0
 25 26  1  0
 19 27  2  0
 27  8  1  0
 18 13  1  0
 26 20  2  0
  1 28  1  0
  1 29  1  0
  1 30  1  0
  2 31  1  0
  3 32  1  0
  3 33  1  0
  3 34  1  0
  9 35  1  0
 10 36  1  0
 14 37  1  0
 15 38  1  0
 16 39  1  0
 17 40  1  0
 18 41  1  0
 21 42  1  0
 22 43  1  0
 24 44  1  0
 26 45  1  0
 27 46  1  0
M  CHG  2   7  -1  25  -1
M  END
>  <UniqueID>  (12) 
11

>  <SMILES>  (12) 
CC(C)S(=O)(=O)[N-]c1ccc(Oc2ccccc2)c(-c2ccc(=N)[n-]c2)c1

>  <Energy>  (12) 
56.83171463064914

>  <Genealogy>  (12) 
CC(C)S(=O)(=O)[N-]c1ccc(Oc2ccccc2)c(-c2ccc(=N)[n-]c2)c1 (protonated)
CC(C)S(=O)(=O)[N-]c1ccc(Oc2ccccc2)c(-c2ccc(=N)[n-]c2)c1 (3D coordinates assigned)
CC(C)S(=O)(=O)[N-]c1ccc(Oc2ccccc2)c(-c2ccc(=N)[n-]c2)c1 (optimized conformer: 56.83171463064914 kcal/mol)

>  <smiles>  (12) 
CC(C)S(=O)(=O)Nc1ccc(Oc2ccccc2)c(-c2ccc(=N)[nH]c2)c1

>  <score_type>  (12) 
oracle

>  <origin>  (12) 
adg

>  <m_score__min__energy>  (12) 
-10.59

>  <m_primary>  (12) 
energy

$$$$
12:0
     RDKit          3D

 50 53  0  0  0  0  0  0  0  0999 V2000
   57.0460   27.5260   45.2430 C   0  0  0  0  0  0  0  0  0  0  0  0
   57.0090   29.0170   45.1570 C   0  0  0  0  0  0  0  0  0  0  0  0
   55.9920   29.6940   44.6780 O   0  0  0  0  0  0  0  0  0  0  0  0
   56.2080   30.9760   44.7370 N   0  0  0  0  0  0  0  0  0  0  0  0
   57.4310   31.1540   45.2760 C   0  0  0  0  0  0  0  0  0  0  0  0
   58.0410   32.4870   45.4520 C   0  0  0  0  0  0  0  0  0  0  0  0
   58.5840   33.1560   44.3430 C   0  0  0  0  0  0  0  0  0  0  0  0
   59.1900   34.4070   44.5000 C   0  0  0  0  0  0  0  0  0  0  0  0
   59.2730   34.9900   45.7680 C   0  0  0  0  0  0  0  0  0  0  0  0
   58.7550   34.3210   46.8800 C   0  0  0  0  0  0  0  0  0  0  0  0
   58.1480   33.0710   46.7260 C   0  0  0  0  0  0  0  0  0  0  0  0
   57.9850   29.9110   45.5670 C   0  0  0  0  0  0  0  0  0  0  0  0
   59.2450   29.6030   46.2710 C   0  0  0  0  0  0  0  0  0  0  0  0
   60.3410   29.6510   45.6510 O   0  0  0  0  0  0  0  0  0  0  0  0
   59.2130   29.2230   47.6530 N   0  0  0  0  0  0  0  0  0  0  0  0
   60.0120   29.7710   48.7120 C   0  0  0  0  0  0  0  0  0  0  0  0
   60.7470   28.9560   49.5910 C   0  0  0  0  0  0  0  0  0  0  0  0
   61.5290   29.5330   50.5960 C   0  0  0  0  0  0  0  0  0  0  0  0
   61.5960   30.9220   50.7230 C   0  0  0  0  0  0  0  0  0  0  0  0
   60.8900   31.7440   49.8330 C   0  0  0  0  0  0  0  0  0  0  0  0
   60.9590   33.4980   49.9830 S   0  0  0  0  0  0  0  0  0  0  0  0
   59.6120   34.0880   49.6710 O   0  0  0  0  0  0  0  0  0  0  0  0
   61.3070   33.8340   51.4070 O   0  0  0  0  0  0  0  0  0  0  0  0
   62.1890   34.1340   48.9100 N   0  0  0  0  0  0  0  0  0  0  0  0
   63.5530   33.7470   49.3170 C   0  0  0  0  0  0  0  0  0  0  0  0
   63.9270   32.3380   48.8300 C   0  0  0  0  0  0  0  0  0  0  0  0
   63.7510   32.2250   47.4340 O   0  0  0  0  0  0  0  0  0  0  0  0
   62.3880   32.4040   47.1160 C   0  0  0  0  0  0  0  0  0  0  0  0
   61.9170   33.8160   47.4960 C   0  0  0  0  0  0  0  0  0  0  0  0
   60.1040   31.1630   48.8290 C   0  0  0  0  0  0  0  0  0  0  0  0
   57.0536   27.2197   46.2995 H   0  0  0  0  0  0  0  0  0  0  0  0
   56.1580   27.1079   44.7464 H   0  0  0  0  0  0  0  0  0  0  0  0
   57.9537   27.1525   44.7464 H   0  0  0  0  0  0  0  0  0  0  0  0
   58.5325   32.6940   43.3460 H   0  0  0  0  0  0  0  0  0  0  0  0
   59.6014   34.9322   43.6254 H   0  0  0  0  0  0  0  0  0  0  0  0
   59.7461   35.9755   45.8903 H   0  0  0  0  0  0  0  0  0  0  0  0
   58.8249   34.7784   47.8779 H   0  0  0  0  0  0  0  0  0  0  0  0
   57.7524   32.5422   47.6057 H   0  0  0  0  0  0  0  0  0  0  0  0
   60.7066   27.8616   49.4876 H   0  0  0  0  0  0  0  0  0  0  0  0
   62.0931   28.8911   51.2886 H   0  0  0  0  0  0  0  0  0  0  0  0
   62.2034   31.3719   51.5222 H   0  0  0  0  0  0  0  0  0  0  0  0
   64.2670   34.4690   48.8941 H   0  0  0  0  0  0  0  0  0  0  0  0
   63.5893   33.7448   50.4164 H   0  0  0  0  0  0  0  0  0  0  0  0
   64.9801   32.1390   49.0776 H   0  0  0  0  0  0  0  0  0  0  0  0
   63.2711   31.6083   49.3274 H   0  0  0  0  0  0  0  0  0  0  0  0
   62.2481   32.2565   46.0350 H   0  0  0  0  0  0  0  0  0  0  0  0
   61.7956   31.6714   47.6837 H   0  0  0  0  0  0  0  0  0  0  0  0
   62.4408   34.5464   46.8619 H   0  0  0  0  0  0  0  0  0  0  0  0
   60.8285   33.8604   47.3440 H   0  0  0  0  0  0  0  0  0  0  0  0
   59.5543   31.8065   48.1264 H   0  0  0  0  0  0  0  0  0  0  0  0
  1  2  1  0
  2  3  1  0
  3  4  1  0
  4  5  2  0
  5  6  1  0
  6  7  2  0
  7  8  1  0
  8  9  2  0
  9 10  1  0
 10 11  2  0
  5 12  1  0
 12 13  1  0
 13 14  2  0
 13 15  1  0
 15 16  1  0
 16 17  2  0
 17 18  1  0
 18 19  2  0
 19 20  1  0
 20 21  1  0
 21 22  2  0
 21 23  2  0
 21 24  1  0
 24 25  1  0
 25 26  1  0
 26 27  1  0
 27 28  1  0
 28 29  1  0
 20 30  2  0
 12  2  2  0
 30 16  1  0
 11  6  1  0
 29 24  1  0
  1 31  1  0
  1 32  1  0
  1 33  1  0
  7 34  1  0
  8 35  1  0
  9 36  1  0
 10 37  1  0
 11 38  1  0
 17 39  1  0
 18 40  1  0
 19 41  1  0
 25 42  1  0
 25 43  1  0
 26 44  1  0
 26 45  1  0
 28 46  1  0
 28 47  1  0
 29 48  1  0
 29 49  1  0
 30 50  1  0
M  CHG  1  15  -1
M  END
>  <UniqueID>  (13) 
12

>  <SMILES>  (13) 
Cc1onc(-c2ccccc2)c1C(=O)[N-]c1cccc(S(=O)(=O)N2CCOCC2)c1

>  <Energy>  (13) 
97.42300346133689

>  <Genealogy>  (13) 
Cc1onc(-c2ccccc2)c1C(=O)[N-]c1cccc(S(=O)(=O)N2CCOCC2)c1 (protonated)
Cc1onc(-c2ccccc2)c1C(=O)[N-]c1cccc(S(=O)(=O)N2CCOCC2)c1 (3D coordinates assigned)
Cc1onc(-c2ccccc2)c1C(=O)[N-]c1cccc(S(=O)(=O)N2CCOCC2)c1 (nonaromatic ring conformer: 97.42300346133689 kcal/mol)

>  <smiles>  (13) 
Cc1onc(-c2ccccc2)c1C(=O)Nc1cccc(S(=O)(=O)N2CCOCC2)c1

>  <score_type>  (13) 
oracle

>  <origin>  (13) 
adg

>  <m_score__min__energy>  (13) 
-11.470000000000001

>  <m_primary>  (13) 
energy

$$$$
13:0
     RDKit          3D

 40 42  0  0  0  0  0  0  0  0999 V2000
   50.1390   31.3120   53.9130 O   0  0  0  0  0  0  0  0  0  0  0  0
   51.2780   31.2730   53.3720 C   0  0  0  0  0  0  0  0  0  0  0  0
   52.2670   30.5890   54.0770 C   0  0  0  0  0  0  0  0  0  0  0  0
   53.6010   30.3670   53.7560 C   0  0  0  0  0  0  0  0  0  0  0  0
   54.3220   30.7750   52.6360 C   0  0  0  0  0  0  0  0  0  0  0  0
   56.0250   30.2940   52.5800 S   0  0  0  0  0  0  0  0  0  0  0  0
   56.7400   30.6540   53.8530 O   0  0  0  0  0  0  0  0  0  0  0  0
   56.0990   28.8050   52.3910 O   0  0  0  0  0  0  0  0  0  0  0  0
   56.8250   31.0770   51.2520 N   0  0  0  0  0  0  0  0  0  0  0  0
   58.1250   30.7000   50.7560 C   0  0  0  0  0  0  0  0  0  0  0  0
   58.8750   29.6740   51.3660 C   0  0  0  0  0  0  0  0  0  0  0  0
   60.1320   29.3220   50.8700 C   0  0  0  0  0  0  0  0  0  0  0  0
   60.6580   29.9810   49.7610 C   0  0  0  0  0  0  0  0  0  0  0  0
   59.9310   30.9990   49.1440 C   0  0  0  0  0  0  0  0  0  0  0  0
   58.6690   31.3780   49.6430 C   0  0  0  0  0  0  0  0  0  0  0  0
   57.9150   32.3820   49.0150 O   0  0  0  0  0  0  0  0  0  0  0  0
   58.2990   33.0960   47.8690 C   0  0  0  0  0  0  0  0  0  0  0  0
   59.2990   34.0690   47.9870 C   0  0  0  0  0  0  0  0  0  0  0  0
   59.7180   34.7890   46.8650 C   0  0  0  0  0  0  0  0  0  0  0  0
   59.1480   34.5350   45.6160 C   0  0  0  0  0  0  0  0  0  0  0  0
   58.1630   33.5510   45.4840 C   0  0  0  0  0  0  0  0  0  0  0  0
   57.7420   32.8280   46.6040 C   0  0  0  0  0  0  0  0  0  0  0  0
   53.8370   31.5330   51.5710 C   0  0  0  0  0  0  0  0  0  0  0  0
   52.5580   32.0270   51.3540 C   0  0  0  0  0  0  0  0  0  0  0  0
   51.4120   31.9190   52.1380 C   0  0  0  0  0  0  0  0  0  0  0  0
   50.2710   32.5330   51.6240 O   0  0  0  0  0  0  0  0  0  0  0  0
   51.9414   30.1584   55.0354 H   0  0  0  0  0  0  0  0  0  0  0  0
   54.1708   29.7838   54.4944 H   0  0  0  0  0  0  0  0  0  0  0  0
   56.2980   31.8490   50.7870 H   0  0  0  0  0  0  0  0  0  0  0  0
   58.4665   29.1461   52.2403 H   0  0  0  0  0  0  0  0  0  0  0  0
   60.7088   28.5217   51.3566 H   0  0  0  0  0  0  0  0  0  0  0  0
   61.6472   29.6984   49.3717 H   0  0  0  0  0  0  0  0  0  0  0  0
   60.3456   31.5093   48.2621 H   0  0  0  0  0  0  0  0  0  0  0  0
   59.7568   34.2675   48.9673 H   0  0  0  0  0  0  0  0  0  0  0  0
   60.4985   35.5575   46.9660 H   0  0  0  0  0  0  0  0  0  0  0  0
   59.4737   35.1088   44.7358 H   0  0  0  0  0  0  0  0  0  0  0  0
   57.7194   33.3459   44.4986 H   0  0  0  0  0  0  0  0  0  0  0  0
   56.9738   32.0480   46.4967 H   0  0  0  0  0  0  0  0  0  0  0  0
   54.5737   31.7742   50.7906 H   0  0  0  0  0  0  0  0  0  0  0  0
   52.4298   32.5909   50.4183 H   0  0  0  0  0  0  0  0  0  0  0  0
  1  2  2  0
  2  3  1  0
  3  4  2  0
  4  5  1  0
  5  6  1  0
  6  7  2  0
  6  8  2  0
  6  9  1  0
  9 10  1  0
 10 11  2  0
 11 12  1  0
 12 13  2  0
 13 14  1  0
 14 15  2  0
 15 16  1  0
 16 17  1  0
 17 18  2  0
 18 19  1  0
 19 20  2  0
 20 21  1  0
 21 22  2  0
  5 23  2  0
 23 24  1  0
 24 25  2  0
 25 26  1  0
 25  2  1  0
 15 10  1  0
 22 17  1  0
  3 27  1  0
  4 28  1  0
  9 29  1  0
 11 30  1  0
 12 31  1  0
 13 32  1  0
 14 33  1  0
 18 34  1  0
 19 35  1  0
 20 36  1  0
 21 37  1  0
 22 38  1  0
 23 39  1  0
 24 40  1  0
M  CHG  1  26  -1
M  END
>  <UniqueID>  (14) 
13

>  <SMILES>  (14) 
O=c1ccc(S(=O)(=O)Nc2ccccc2Oc2ccccc2)ccc1[O-]

>  <Energy>  (14) 
72.45506790044756

>  <Genealogy>  (14) 
O=c1ccc(S(=O)(=O)Nc2ccccc2Oc2ccccc2)ccc1[O-] (protonated)
O=c1ccc(S(=O)(=O)Nc2ccccc2Oc2ccccc2)ccc1[O-] (3D coordinates assigned)
O=c1ccc(S(=O)(=O)Nc2ccccc2Oc2ccccc2)ccc1[O-] (optimized conformer: 72.45506790044756 kcal/mol)

>  <smiles>  (14) 
O=c1ccc(S(=O)(=O)Nc2ccccc2Oc2ccccc2)ccc1O

>  <score_type>  (14) 
oracle

>  <origin>  (14) 
adg

>  <m_score__min__energy>  (14) 
-11.630000000000001

>  <m_primary>  (14) 
energy

$$$$
14:0
     RDKit          3D

 74 77  0  0  0  0  0  0  0  0999 V2000
   56.5770   22.4670   43.1570 C   0  0  0  0  0  0  0  0  0  0  0  0
   55.8820   23.7290   43.6690 C   0  0  0  0  0  0  0  0  0  0  0  0
   55.0730   23.4770   44.9570 C   0  0  0  0  0  0  0  0  0  0  0  0
   55.8020   23.9180   46.2410 C   0  0  0  0  0  0  0  0  0  0  0  0
   56.9450   24.8140   45.9510 N   0  0  0  0  0  0  0  0  0  0  0  0
   56.8030   26.1850   45.9110 C   0  0  0  0  0  0  0  0  0  0  0  0
   55.5110   26.8050   45.9890 N   0  0  0  0  0  0  0  0  0  0  0  0
   57.9450   27.0050   45.8070 C   0  0  0  0  0  0  0  0  0  0  0  0
   57.8330   28.4410   45.7960 N   0  0  0  0  0  0  0  0  0  0  0  0
   58.6610   29.2540   46.6980 C   0  0  0  0  0  0  0  0  0  0  0  0
   58.7110   28.6500   48.1180 C   0  0  0  0  0  0  0  0  0  0  0  0
   60.0290   27.9000   48.3390 C   0  0  0  0  0  0  0  0  0  0  0  0
   58.5460   29.7380   49.1880 C   0  0  0  0  0  0  0  0  0  0  0  0
   56.9080   29.2020   44.5340 S   0  0  0  0  0  0  0  0  0  0  0  0
   57.0350   28.4110   43.2610 O   0  0  0  0  0  0  0  0  0  0  0  0
   55.4570   29.2420   44.9230 O   0  0  0  0  0  0  0  0  0  0  0  0
   57.5010   30.8340   44.2420 C   0  0  0  0  0  0  0  0  0  0  0  0
   57.6690   31.3010   42.9320 C   0  0  0  0  0  0  0  0  0  0  0  0
   58.1420   32.5940   42.7030 C   0  0  0  0  0  0  0  0  0  0  0  0
   58.4420   33.4330   43.7800 C   0  0  0  0  0  0  0  0  0  0  0  0
   58.2550   32.9880   45.1000 C   0  0  0  0  0  0  0  0  0  0  0  0
   58.5820   33.8840   46.2330 C   0  0  0  0  0  0  0  0  0  0  0  0
   57.9040   34.9370   46.3860 O   0  0  0  0  0  0  0  0  0  0  0  0
   59.6460   33.5870   47.1610 N   0  0  0  0  0  0  0  0  0  0  0  0
   59.3420   33.1390   48.5270 C   0  0  0  0  0  0  0  0  0  0  0  0
   60.2810   33.8060   49.5270 C   0  0  0  0  0  0  0  0  0  0  0  0
   61.7050   33.5360   49.1410 C   0  0  0  0  0  0  0  0  0  0  0  0
   62.6900   33.3790   50.1300 C   0  0  0  0  0  0  0  0  0  0  0  0
   64.0190   33.1500   49.7660 C   0  0  0  0  0  0  0  0  0  0  0  0
   64.3760   33.0880   48.4170 C   0  0  0  0  0  0  0  0  0  0  0  0
   63.4040   33.2580   47.4270 C   0  0  0  0  0  0  0  0  0  0  0  0
   62.0630   33.4780   47.7790 C   0  0  0  0  0  0  0  0  0  0  0  0
   61.0390   33.7160   46.6920 C   0  0  0  0  0  0  0  0  0  0  0  0
   57.7960   31.6780   45.3230 C   0  0  0  0  0  0  0  0  0  0  0  0
   59.1930   26.3950   45.6620 C   0  0  0  0  0  0  0  0  0  0  0  0
   60.2330   27.0920   45.5200 O   0  0  0  0  0  0  0  0  0  0  0  0
   59.2890   25.0440   45.6550 N   0  0  0  0  0  0  0  0  0  0  0  0
   58.1930   24.2560   45.8040 C   0  0  0  0  0  0  0  0  0  0  0  0
   58.3420   23.0020   45.8100 O   0  0  0  0  0  0  0  0  0  0  0  0
   56.9112   21.8602   44.0114 H   0  0  0  0  0  0  0  0  0  0  0  0
   55.8732   21.8832   42.5456 H   0  0  0  0  0  0  0  0  0  0  0  0
   57.4466   22.7497   42.5456 H   0  0  0  0  0  0  0  0  0  0  0  0
   56.6459   24.4929   43.8762 H   0  0  0  0  0  0  0  0  0  0  0  0
   55.1778   24.0611   42.8919 H   0  0  0  0  0  0  0  0  0  0  0  0
   54.1260   24.0323   44.8868 H   0  0  0  0  0  0  0  0  0  0  0  0
   54.9171   22.3907   45.0321 H   0  0  0  0  0  0  0  0  0  0  0  0
   55.0896   24.4497   46.8889 H   0  0  0  0  0  0  0  0  0  0  0  0
   56.1940   23.0169   46.7353 H   0  0  0  0  0  0  0  0  0  0  0  0
   54.9480   26.7600   46.8640 H   0  0  0  0  0  0  0  0  0  0  0  0
   55.1740   27.4680   45.2570 H   0  0  0  0  0  0  0  0  0  0  0  0
   59.6833   29.3058   46.2953 H   0  0  0  0  0  0  0  0  0  0  0  0
   58.2154   30.2575   46.7651 H   0  0  0  0  0  0  0  0  0  0  0  0
   57.8749   27.9410   48.2090 H   0  0  0  0  0  0  0  0  0  0  0  0
   60.2144   27.7945   49.4181 H   0  0  0  0  0  0  0  0  0  0  0  0
   59.9651   26.9030   47.8788 H   0  0  0  0  0  0  0  0  0  0  0  0
   60.8535   28.4642   47.8788 H   0  0  0  0  0  0  0  0  0  0  0  0
   58.6150   29.2831   50.1872 H   0  0  0  0  0  0  0  0  0  0  0  0
   59.3404   30.4900   49.0718 H   0  0  0  0  0  0  0  0  0  0  0  0
   57.5644   30.2207   49.0718 H   0  0  0  0  0  0  0  0  0  0  0  0
   57.4274   30.6468   42.0814 H   0  0  0  0  0  0  0  0  0  0  0  0
   58.2790   32.9537   41.6725 H   0  0  0  0  0  0  0  0  0  0  0  0
   58.8264   34.4466   43.5935 H   0  0  0  0  0  0  0  0  0  0  0  0
   58.3032   33.4044   48.7727 H   0  0  0  0  0  0  0  0  0  0  0  0
   59.4771   32.0488   48.5832 H   0  0  0  0  0  0  0  0  0  0  0  0
   60.1021   34.8914   49.5288 H   0  0  0  0  0  0  0  0  0  0  0  0
   60.0923   33.3989   50.5313 H   0  0  0  0  0  0  0  0  0  0  0  0
   62.4142   33.4365   51.1933 H   0  0  0  0  0  0  0  0  0  0  0  0
   64.7861   33.0182   50.5433 H   0  0  0  0  0  0  0  0  0  0  0  0
   65.4230   32.9052   48.1335 H   0  0  0  0  0  0  0  0  0  0  0  0
   63.6915   33.2192   46.3660 H   0  0  0  0  0  0  0  0  0  0  0  0
   61.1808   34.7323   46.2958 H   0  0  0  0  0  0  0  0  0  0  0  0
   61.1957   32.9446   45.9236 H   0  0  0  0  0  0  0  0  0  0  0  0
   57.6673   31.3122   46.3524 H   0  0  0  0  0  0  0  0  0  0  0  0
   60.2290   24.5990   45.5420 H   0  0  0  0  0  0  0  0  0  0  0  0
  1  2  1  0
  2  3  1  0
  3  4  1  0
  4  5  1  0
  5  6  1  0
  6  7  1  0
  6  8  2  0
  8  9  1  0
  9 10  1  0
 10 11  1  0
 11 12  1  0
 11 13  1  0
  9 14  1  0
 14 15  2  0
 14 16  2  0
 14 17  1  0
 17 18  2  0
 18 19  1  0
 19 20  2  0
 20 21  1  0
 21 22  1  0
 22 23  2  0
 22 24  1  0
 24 25  1  0
 25 26  1  0
 26 27  1  0
 27 28  2  0
 28 29  1  0
 29 30  2  0
 30 31  1  0
 31 32  2  0
 32 33  1  0
 21 34  2  0
  8 35  1  0
 35 36  2  0
 35 37  1  0
 37 38  1  0
 38 39  2  0
 38  5  1  0
 34 17  1  0
 33 24  1  0
 32 27  1  0
  1 40  1  0
  1 41  1  0
  1 42  1  0
  2 43  1  0
  2 44  1  0
  3 45  1  0
  3 46  1  0
  4 47  1  0
  4 48  1  0
  7 49  1  0
  7 50  1  0
 10 51  1  0
 10 52  1  0
 11 53  1  0
 12 54  1  0
 12 55  1  0
 12 56  1  0
 13 57  1  0
 13 58  1  0
 13 59  1  0
 18 60  1  0
 19 61  1  0
 20 62  1  0
 25 63  1  0
 25 64  1  0
 26 65  1  0
 26 66  1  0
 28 67  1  0
 29 68  1  0
 30 69  1  0
 31 70  1  0
 33 71  1  0
 33 72  1  0
 34 73  1  0
 37 74  1  0
M  END
>  <UniqueID>  (15) 
14

>  <SMILES>  (15) 
CCCCn1c(N)c(N(CC(C)C)S(=O)(=O)c2cccc(C(=O)N3CCc4ccccc4C3)c2)c(=O)[nH]c1=O

>  <Energy>  (15) 
87.04702860773271

>  <Genealogy>  (15) 
CCCCn1c(N)c(N(CC(C)C)S(=O)(=O)c2cccc(C(=O)N3CCc4ccccc4C3)c2)c(=O)[nH]c1=O (3D coordinates assigned)
CCCCn1c(N)c(N(CC(C)C)S(=O)(=O)c2cccc(C(=O)N3CCc4ccccc4C3)c2)c(=O)[nH]c1=O (nonaromatic ring conformer: 87.04702860773271 kcal/mol)

>  <smiles>  (15) 
CCCCn1c(N)c(N(CC(C)C)S(=O)(=O)c2cccc(C(=O)N3CCc4ccccc4C3)c2)c(=O)[nH]c1=O

>  <score_type>  (15) 
oracle

>  <origin>  (15) 
adg

>  <m_score__min__energy>  (15) 
-11.06

>  <m_primary>  (15) 
energy

$$$$
15:0
     RDKit          3D

 49 52  0  0  1  0  0  0  0  0999 V2000
   55.2180   29.6230   44.4610 O   0  0  0  0  0  0  0  0  0  0  0  0
   56.5540   29.7340   43.8240 S   0  0  0  0  0  0  0  0  0  0  0  0
   56.2390   30.1160   42.3700 O   0  0  0  0  0  0  0  0  0  0  0  0
   59.8890   34.3200   45.7740 N   0  0  0  0  0  0  0  0  0  0  0  0
   60.7210   34.1380   46.7370 C   0  0  0  0  0  0  0  0  0  0  0  0
   59.5790   28.2180   44.6230 C   0  0  0  0  0  0  0  0  0  0  0  0
   60.4440   27.8290   45.6200 C   0  0  0  0  0  0  0  0  0  0  0  0
   59.9060   27.0970   46.6280 N   0  0  0  0  0  0  0  0  0  0  0  0
   58.5920   26.7850   46.6220 C   0  0  0  0  0  0  0  0  0  0  0  0
   62.0220   34.0220   46.4260 N   0  0  0  0  0  0  0  0  0  0  0  0
   57.5240   31.0560   44.4170 C   0  0  0  0  0  0  0  0  0  0  0  0
   58.1300   31.0670   45.6510 C   0  0  0  0  0  0  0  0  0  0  0  0
   58.9060   32.1420   46.0940 C   0  0  0  0  0  0  0  0  0  0  0  0
   59.0920   33.2460   45.2890 C   0  0  0  0  0  0  0  0  0  0  0  0
   57.4180   28.2570   43.6910 N   0  0  0  0  0  0  0  0  0  0  0  0
   58.2390   27.9060   44.6080 C   0  0  0  0  0  0  0  0  0  0  0  0
   57.7570   27.1750   45.6350 N   0  0  0  0  0  0  0  0  0  0  0  0
   62.9320   33.8320   47.3930 C   0  0  0  0  0  0  0  0  0  0  0  0
   62.5030   33.7570   48.7210 C   0  0  0  0  0  0  0  0  0  0  0  0
   63.5340   33.5490   49.7400 C   0  0  0  0  0  0  0  0  0  0  0  0
   63.5620   34.5010   50.7150 F   0  0  0  0  0  0  0  0  0  0  0  0
   64.7840   33.3490   49.1430 F   0  0  0  0  0  0  0  0  0  0  0  0
   63.2830   32.3350   50.4060 F   0  0  0  0  0  0  0  0  0  0  0  0
   61.1690   33.8720   49.0640 C   0  0  0  0  0  0  0  0  0  0  0  0
   60.6150   33.8220   50.2610 O   0  0  0  0  0  0  0  0  0  0  0  0
   59.5860   33.3740   50.9610 C   0  0  0  0  0  0  0  0  0  0  0  0
   59.2780   33.9380   52.1990 C   0  0  0  0  0  0  0  0  0  0  0  0
   58.2330   33.5310   52.9750 C   0  0  0  0  0  0  0  0  0  0  0  0
   57.4200   32.5100   52.5390 C   0  0  0  0  0  0  0  0  0  0  0  0
   57.6740   31.9160   51.3250 C   0  0  0  0  0  0  0  0  0  0  0  0
   58.7270   32.3420   50.5670 C   0  0  0  0  0  0  0  0  0  0  0  0
   60.3190   34.0660   47.9950 N   0  0  0  0  0  0  0  0  0  0  0  0
   58.4920   33.2520   44.0480 C   0  0  0  0  0  0  0  0  0  0  0  0
   57.7420   32.1990   43.6330 C   0  0  0  0  0  0  0  0  0  0  0  0
   59.9820   28.8127   43.7900 H   0  0  0  0  0  0  0  0  0  0  0  0
   61.5109   28.0962   45.6009 H   0  0  0  0  0  0  0  0  0  0  0  0
   60.5110   26.7690   47.4180 H   0  0  0  0  0  0  0  0  0  0  0  0
   58.1862   26.1900   47.4535 H   0  0  0  0  0  0  0  0  0  0  0  0
   57.9995   30.1987   46.3135 H   0  0  0  0  0  0  0  0  0  0  0  0
   59.3709   32.1070   47.0903 H   0  0  0  0  0  0  0  0  0  0  0  0
   63.9993   33.7367   47.1446 H   0  0  0  0  0  0  0  0  0  0  0  0
   59.9130   34.7561   52.5698 H   0  0  0  0  0  0  0  0  0  0  0  0
   58.0412   34.0159   53.9435 H   0  0  0  0  0  0  0  0  0  0  0  0
   56.5744   32.1720   53.1561 H   0  0  0  0  0  0  0  0  0  0  0  0
   57.0305   31.0996   50.9653 H   0  0  0  0  0  0  0  0  0  0  0  0
   58.9087   31.8502   49.6000 H   0  0  0  0  0  0  0  0  0  0  0  0
   59.2770   34.1650   48.1670 H   0  0  0  0  0  0  0  0  0  0  0  0
   58.6224   34.1206   43.3857 H   0  0  0  0  0  0  0  0  0  0  0  0
   57.2833   32.2442   42.6342 H   0  0  0  0  0  0  0  0  0  0  0  0
  1  2  2  0
  2  3  2  0
  2  4  1  0
  4  5  2  0
  5  6  1  0
  6  7  2  0
  7  8  1  0
  8  9  1  0
  9 10  2  0
  2 11  1  0
 11 12  2  0
 12 13  1  0
 13 14  2  0
 14 15  1  0
 15 16  2  0
 16 17  1  0
 17 18  2  0
 18 19  1  0
 19 20  1  0
 20 21  1  0
 20 22  1  0
 20 23  1  0
 19 24  2  0
 24 25  1  0
 25 26  1  0
 26 27  2  0
 27 28  1  0
 28 29  2  0
 29 30  1  0
 30 31  2  0
 24 32  1  0
 14 33  1  0
 33 34  2  0
 10  5  1  0
 34 11  1  0
 32 16  1  0
 31 26  1  0
  6 35  1  0
  7 36  1  0
  8 37  1  0
  9 38  1  0
 12 39  1  0
 13 40  1  0
 18 41  1  0
 27 42  1  0
 28 43  1  0
 29 44  1  0
 30 45  1  0
 31 46  1  0
 32 47  1  0
 33 48  1  0
 34 49  1  0
M  END
>  <smiles>  (16) 
O=S(=O)(N=c1cc[nH]cn1)c1ccc(N=c2ncc(C(F)(F)F)c(Oc3ccccc3)[nH]2)cc1

>  <score_type>  (16) 
oracle

>  <origin>  (16) 
adg

>  <m_score__min__energy>  (16) 
-8.6999999999999993

>  <m_primary>  (16) 
energy

$$$$
16:0
     RDKit          3D

 68 72  0  0  0  0  0  0  0  0999 V2000
   59.8580   35.7090   46.3250 C   0  0  0  0  0  0  0  0  0  0  0  0
   58.9290   34.7040   46.7250 O   0  0  0  0  0  0  0  0  0  0  0  0
   58.4780   33.6680   45.8920 C   0  0  0  0  0  0  0  0  0  0  0  0
   58.2370   32.4100   46.4610 C   0  0  0  0  0  0  0  0  0  0  0  0
   57.7660   31.3520   45.6760 C   0  0  0  0  0  0  0  0  0  0  0  0
   57.5270   31.5380   44.3040 C   0  0  0  0  0  0  0  0  0  0  0  0
   57.0200   30.3970   43.4560 C   0  0  0  0  0  0  0  0  0  0  0  0
   56.5550   29.2300   44.3030 C   0  0  0  0  0  0  0  0  0  0  0  0
   55.4640   29.3000   44.8580 O   0  0  0  0  0  0  0  0  0  0  0  0
   57.4080   28.0770   44.5650 N   0  0  1  0  0  0  0  0  0  0  0  0
   58.8160   28.2910   44.1100 C   0  0  0  0  0  0  0  0  0  0  0  0
   59.8690   27.9020   45.1580 C   0  0  0  0  0  0  0  0  0  0  0  0
   59.5850   28.6220   46.4790 C   0  0  2  0  0  0  0  0  0  0  0  0
   60.6240   28.2590   47.4660 N   0  0  0  0  0  0  0  0  0  0  0  0
   60.5350   29.0370   48.7140 C   0  0  0  0  0  0  0  0  0  0  0  0
   60.7460   30.5170   48.4710 C   0  0  0  0  0  0  0  0  0  0  0  0
   61.5310   30.9210   47.3740 C   0  0  0  0  0  0  0  0  0  0  0  0
   61.7900   32.2740   47.1420 C   0  0  0  0  0  0  0  0  0  0  0  0
   61.2710   33.2410   48.0030 C   0  0  0  0  0  0  0  0  0  0  0  0
   60.4910   32.8600   49.0980 C   0  0  0  0  0  0  0  0  0  0  0  0
   60.0020   33.8170   49.9280 F   0  0  0  0  0  0  0  0  0  0  0  0
   60.2170   31.5020   49.3420 C   0  0  0  0  0  0  0  0  0  0  0  0
   59.4300   31.1300   50.5350 C   0  0  0  0  0  0  0  0  0  0  0  0
   60.0830   30.6380   51.6750 C   0  0  0  0  0  0  0  0  0  0  0  0
   59.3480   30.2330   52.7920 C   0  0  0  0  0  0  0  0  0  0  0  0
   57.9480   30.3160   52.7820 C   0  0  0  0  0  0  0  0  0  0  0  0
   57.2000   29.8940   53.8920 C   0  0  0  0  0  0  0  0  0  0  0  0
   55.8030   29.9680   53.8630 C   0  0  0  0  0  0  0  0  0  0  0  0
   55.1460   30.4720   52.7360 C   0  0  0  0  0  0  0  0  0  0  0  0
   55.8800   30.9010   51.6260 C   0  0  0  0  0  0  0  0  0  0  0  0
   57.2820   30.8230   51.6380 C   0  0  0  0  0  0  0  0  0  0  0  0
   58.0320   31.2360   50.5240 C   0  0  0  0  0  0  0  0  0  0  0  0
   58.1530   28.3140   46.9890 C   0  0  0  0  0  0  0  0  0  0  0  0
   57.2550   27.5920   45.9610 C   0  0  0  0  0  0  0  0  0  0  0  0
   57.7900   32.7920   43.7250 C   0  0  0  0  0  0  0  0  0  0  0  0
   58.2580   33.8510   44.5100 C   0  0  0  0  0  0  0  0  0  0  0  0
   60.2944   36.1811   47.2176 H   0  0  0  0  0  0  0  0  0  0  0  0
   60.6577   35.2510   45.7244 H   0  0  0  0  0  0  0  0  0  0  0  0
   59.3386   36.4703   45.7244 H   0  0  0  0  0  0  0  0  0  0  0  0
   58.4198   32.2531   47.5343 H   0  0  0  0  0  0  0  0  0  0  0  0
   57.5819   30.3696   46.1353 H   0  0  0  0  0  0  0  0  0  0  0  0
   56.1762   30.7535   42.8470 H   0  0  0  0  0  0  0  0  0  0  0  0
   57.8475   30.0496   42.8200 H   0  0  0  0  0  0  0  0  0  0  0  0
   57.0330   27.2940   43.9730 H   0  0  0  0  0  0  0  0  0  0  0  0
   58.9445   29.3562   43.8673 H   0  0  0  0  0  0  0  0  0  0  0  0
   58.9746   27.6399   43.2377 H   0  0  0  0  0  0  0  0  0  0  0  0
   60.8672   28.1878   44.7948 H   0  0  0  0  0  0  0  0  0  0  0  0
   59.8289   26.8153   45.3236 H   0  0  0  0  0  0  0  0  0  0  0  0
   59.6266   29.7097   46.3200 H   0  0  0  0  0  0  0  0  0  0  0  0
   60.5390   27.2430   47.7010 H   0  0  0  0  0  0  0  0  0  0  0  0
   59.5391   28.8874   49.1565 H   0  0  0  0  0  0  0  0  0  0  0  0
   61.3263   28.6859   49.3927 H   0  0  0  0  0  0  0  0  0  0  0  0
   61.9447   30.1631   46.6925 H   0  0  0  0  0  0  0  0  0  0  0  0
   62.4032   32.5768   46.2804 H   0  0  0  0  0  0  0  0  0  0  0  0
   61.4762   34.3060   47.8195 H   0  0  0  0  0  0  0  0  0  0  0  0
   61.1808   30.5707   51.6895 H   0  0  0  0  0  0  0  0  0  0  0  0
   59.8685   29.8481   53.6813 H   0  0  0  0  0  0  0  0  0  0  0  0
   57.7119   29.5051   54.7846 H   0  0  0  0  0  0  0  0  0  0  0  0
   55.2187   29.6281   54.7308 H   0  0  0  0  0  0  0  0  0  0  0  0
   54.0477   30.5311   52.7228 H   0  0  0  0  0  0  0  0  0  0  0  0
   55.3590   31.2997   50.7430 H   0  0  0  0  0  0  0  0  0  0  0  0
   57.5204   31.6441   49.6398 H   0  0  0  0  0  0  0  0  0  0  0  0
   57.6714   29.2653   47.2594 H   0  0  0  0  0  0  0  0  0  0  0  0
   58.2629   27.6325   47.8454 H   0  0  0  0  0  0  0  0  0  0  0  0
   56.2062   27.7331   46.2612 H   0  0  0  0  0  0  0  0  0  0  0  0
   57.5629   26.5360   45.9620 H   0  0  0  0  0  0  0  0  0  0  0  0
   57.6266   32.9413   42.6475 H   0  0  0  0  0  0  0  0  0  0  0  0
   58.4552   34.8298   44.0485 H   0  0  0  0  0  0  0  0  0  0  0  0
  1  2  1  0
  2  3  1  0
  3  4  2  0
  4  5  1  0
  5  6  2  0
  6  7  1  0
  7  8  1  0
  8  9  2  0
  8 10  1  0
 10 11  1  0
 11 12  1  0
 12 13  1  0
 13 14  1  0
 14 15  1  0
 15 16  1  0
 16 17  2  0
 17 18  1  0
 18 19  2  0
 19 20  1  0
 20 21  1  0
 20 22  2  0
 22 23  1  0
 23 24  2  0
 24 25  1  0
 25 26  2  0
 26 27  1  0
 27 28  2  0
 28 29  1  0
 29 30  2  0
 30 31  1  0
 31 32  2  0
 13 33  1  0
 33 34  1  0
  6 35  1  0
 35 36  2  0
 36  3  1  0
 34 10  1  0
 22 16  1  0
 32 23  1  0
 31 26  1  0
  1 37  1  0
  1 38  1  0
  1 39  1  0
  4 40  1  0
  5 41  1  0
  7 42  1  0
  7 43  1  0
 10 44  1  6
 11 45  1  0
 11 46  1  0
 12 47  1  0
 12 48  1  0
 13 49  1  6
 14 50  1  0
 15 51  1  0
 15 52  1  0
 17 53  1  0
 18 54  1  0
 19 55  1  0
 24 56  1  0
 25 57  1  0
 27 58  1  0
 28 59  1  0
 29 60  1  0
 30 61  1  0
 32 62  1  0
 33 63  1  0
 33 64  1  0
 34 65  1  0
 34 66  1  0
 35 67  1  0
 36 68  1  0
M  CHG  1  10   1
M  END
>  <UniqueID>  (17) 
15

>  <SMILES>  (17) 
COc1ccc(CC(=O)[NH+]2CCC(NCc3cccc(F)c3-c3ccc4ccccc4c3)CC2)cc1

>  <Energy>  (17) 
95.69914381900972

>  <Genealogy>  (17) 
COc1ccc(CC(=O)[NH+]2CCC(NCc3cccc(F)c3-c3ccc4ccccc4c3)CC2)cc1 (protonated)
COc1ccc(CC(=O)[NH+]2CCC(NCc3cccc(F)c3-c3ccc4ccccc4c3)CC2)cc1 (3D coordinates assigned)
COc1ccc(CC(=O)[NH+]2CCC(NCc3cccc(F)c3-c3ccc4ccccc4c3)CC2)cc1 (nonaromatic ring conformer: 95.69914381900972 kcal/mol)

>  <smiles>  (17) 
COc1ccc(CC(=O)N2CCC(NCc3cccc(F)c3-c3ccc4ccccc4c3)CC2)cc1

>  <score_type>  (17) 
oracle

>  <origin>  (17) 
adg

>  <m_score__min__energy>  (17) 
-9.4100000000000001

>  <m_primary>  (17) 
energy

$$$$
17:0
     RDKit          3D

 40 41  0  0  0  0  0  0  0  0999 V2000
   57.7500   23.9710   44.4210 C   0  0  0  0  0  0  0  0  0  0  0  0
   56.5860   24.8550   44.4520 N   0  0  0  0  0  0  0  0  0  0  0  0
   56.6300   25.8390   45.8860 S   0  0  0  0  0  0  0  0  0  0  0  0
   55.2250   26.1240   46.3440 O   0  0  0  0  0  0  0  0  0  0  0  0
   57.3600   25.0980   46.9710 O   0  0  0  0  0  0  0  0  0  0  0  0
   57.4720   27.3530   45.5680 C   0  0  0  0  0  0  0  0  0  0  0  0
   58.8610   27.4260   45.7150 C   0  0  0  0  0  0  0  0  0  0  0  0
   59.5310   28.6260   45.4660 C   0  0  0  0  0  0  0  0  0  0  0  0
   58.8180   29.7570   45.0590 C   0  0  0  0  0  0  0  0  0  0  0  0
   57.4240   29.6930   44.8850 C   0  0  0  0  0  0  0  0  0  0  0  0
   56.6630   30.8900   44.4640 C   0  0  0  0  0  0  0  0  0  0  0  0
   55.4010   30.8680   44.4970 O   0  0  0  0  0  0  0  0  0  0  0  0
   57.3320   32.0890   44.0340 N   0  0  0  0  0  0  0  0  0  0  0  0
   58.1420   32.0930   42.8140 C   0  0  0  0  0  0  0  0  0  0  0  0
   57.2940   33.2830   44.8820 C   0  0  0  0  0  0  0  0  0  0  0  0
   58.3790   33.2050   45.9200 C   0  0  0  0  0  0  0  0  0  0  0  0
   58.0980   32.6990   47.2010 C   0  0  0  0  0  0  0  0  0  0  0  0
   59.0870   32.6960   48.1900 C   0  0  0  0  0  0  0  0  0  0  0  0
   60.3590   33.2020   47.9120 C   0  0  0  0  0  0  0  0  0  0  0  0
   60.6430   33.7170   46.6440 C   0  0  0  0  0  0  0  0  0  0  0  0
   61.8740   34.2190   46.3770 F   0  0  0  0  0  0  0  0  0  0  0  0
   59.6570   33.7240   45.6510 C   0  0  0  0  0  0  0  0  0  0  0  0
   56.7570   28.4840   45.1510 C   0  0  0  0  0  0  0  0  0  0  0  0
   58.0594   23.7360   45.4501 H   0  0  0  0  0  0  0  0  0  0  0  0
   57.4900   23.0407   43.8948 H   0  0  0  0  0  0  0  0  0  0  0  0
   58.5764   24.4712   43.8948 H   0  0  0  0  0  0  0  0  0  0  0  0
   56.6540   25.5010   43.6310 H   0  0  0  0  0  0  0  0  0  0  0  0
   59.4271   26.5362   46.0275 H   0  0  0  0  0  0  0  0  0  0  0  0
   60.6225   28.6810   45.5906 H   0  0  0  0  0  0  0  0  0  0  0  0
   59.3498   30.7019   44.8738 H   0  0  0  0  0  0  0  0  0  0  0  0
   59.2088   32.0983   43.0822 H   0  0  0  0  0  0  0  0  0  0  0  0
   57.9172   31.1937   42.2217 H   0  0  0  0  0  0  0  0  0  0  0  0
   57.9084   32.9900   42.2217 H   0  0  0  0  0  0  0  0  0  0  0  0
   57.4469   34.1775   44.2603 H   0  0  0  0  0  0  0  0  0  0  0  0
   56.3162   33.3423   45.3823 H   0  0  0  0  0  0  0  0  0  0  0  0
   57.0965   32.3039   47.4265 H   0  0  0  0  0  0  0  0  0  0  0  0
   58.8626   32.2942   49.1891 H   0  0  0  0  0  0  0  0  0  0  0  0
   61.1364   33.1952   48.6902 H   0  0  0  0  0  0  0  0  0  0  0  0
   59.8830   34.1370   44.6568 H   0  0  0  0  0  0  0  0  0  0  0  0
   55.6652   28.4254   45.0308 H   0  0  0  0  0  0  0  0  0  0  0  0
  1  2  1  0
  2  3  1  0
  3  4  2  0
  3  5  2  0
  3  6  1  0
  6  7  2  0
  7  8  1  0
  8  9  2  0
  9 10  1  0
 10 11  1  0
 11 12  2  0
 11 13  1  0
 13 14  1  0
 13 15  1  0
 15 16  1  0
 16 17  2  0
 17 18  1  0
 18 19  2  0
 19 20  1  0
 20 21  1  0
 20 22  2  0
 10 23  2  0
 23  6  1  0
 22 16  1  0
  1 24  1  0
  1 25  1  0
  1 26  1  0
  2 27  1  0
  7 28  1  0
  8 29  1  0
  9 30  1  0
 14 31  1  0
 14 32  1  0
 14 33  1  0
 15 34  1  0
 15 35  1  0
 17 36  1  0
 18 37  1  0
 19 38  1  0
 22 39  1  0
 23 40  1  0
M  END
>  <UniqueID>  (18) 
16

>  <SMILES>  (18) 
CNS(=O)(=O)c1cccc(C(=O)N(C)Cc2cccc(F)c2)c1

>  <Energy>  (18) 
39.724630488731

>  <Genealogy>  (18) 
CNS(=O)(=O)c1cccc(C(=O)N(C)Cc2cccc(F)c2)c1 (3D coordinates assigned)
CNS(=O)(=O)c1cccc(C(=O)N(C)Cc2cccc(F)c2)c1 (optimized conformer: 39.724630488731 kcal/mol)

>  <smiles>  (18) 
CNS(=O)(=O)c1cccc(C(=O)N(C)Cc2cccc(F)c2)c1

>  <score_type>  (18) 
oracle

>  <origin>  (18) 
adg

>  <m_score__min__energy>  (18) 
-8.0700000000000003

>  <m_primary>  (18) 
energy

$$$$
18:0
     RDKit          3D

 43 45  0  0  1  0  0  0  0  0999 V2000
   56.8770   24.8410   45.5770 C   0  0  0  0  0  0  0  0  0  0  0  0
   56.7290   25.9490   46.5090 N   0  0  0  0  0  0  0  0  0  0  0  0
   56.9690   27.1540   46.1120 C   0  0  0  0  0  0  0  0  0  0  0  0
   56.0710   27.9030   45.4470 N   0  0  0  0  0  0  0  0  0  0  0  0
   56.3260   29.1630   45.0330 C   0  0  0  0  0  0  0  0  0  0  0  0
   57.5380   29.7790   45.2630 C   0  0  0  0  0  0  0  0  0  0  0  0
   57.8460   31.1370   44.8300 C   0  0  0  0  0  0  0  0  0  0  0  0
   57.8460   31.4880   43.4980 C   0  0  0  0  0  0  0  0  0  0  0  0
   58.1410   32.7890   43.0740 C   0  0  0  0  0  0  0  0  0  0  0  0
   58.4240   33.6740   44.0460 N   0  0  0  0  0  0  0  0  0  0  0  0
   58.4170   33.3050   45.3380 C   0  0  0  0  0  0  0  0  0  0  0  0
   58.7000   34.2200   46.2040 N   0  0  0  0  0  0  0  0  0  0  0  0
   59.5840   34.0030   47.2970 C   0  0  0  0  0  0  0  0  0  0  0  0
   59.2440   34.2560   48.6090 C   0  0  0  0  0  0  0  0  0  0  0  0
   60.2020   34.0010   49.5880 C   0  0  0  0  0  0  0  0  0  0  0  0
   61.4610   33.5070   49.2440 C   0  0  0  0  0  0  0  0  0  0  0  0
   61.7840   33.2600   47.9320 C   0  0  0  0  0  0  0  0  0  0  0  0
   63.3740   32.6360   47.4870 S   0  0  0  0  0  0  0  0  0  0  0  0
   64.5220   32.7890   48.8370 C   0  0  0  0  0  0  0  0  0  0  0  0
   63.2690   31.2180   47.0190 O   0  0  0  0  0  0  0  0  0  0  0  0
   63.8810   33.4280   46.2910 O   0  0  0  0  0  0  0  0  0  0  0  0
   60.8500   33.5080   46.9630 C   0  0  0  0  0  0  0  0  0  0  0  0
   58.1360   32.0620   45.7620 N   0  0  0  0  0  0  0  0  0  0  0  0
   58.4850   29.0320   45.9470 C   0  0  0  0  0  0  0  0  0  0  0  0
   58.1980   27.7440   46.3590 C   0  0  0  0  0  0  0  0  0  0  0  0
   59.1920   26.9880   47.0640 C   0  0  0  0  0  0  0  0  0  0  0  0
   59.9990   26.3720   47.6560 N   0  0  0  0  0  0  0  0  0  0  0  0
   57.0022   23.9036   46.1388 H   0  0  0  0  0  0  0  0  0  0  0  0
   55.9801   24.7721   44.9439 H   0  0  0  0  0  0  0  0  0  0  0  0
   57.7606   25.0099   44.9439 H   0  0  0  0  0  0  0  0  0  0  0  0
   55.1450   27.4580   45.2610 H   0  0  0  0  0  0  0  0  0  0  0  0
   55.5416   29.7156   44.4950 H   0  0  0  0  0  0  0  0  0  0  0  0
   57.6070   30.7228   42.7448 H   0  0  0  0  0  0  0  0  0  0  0  0
   58.1413   33.0702   42.0106 H   0  0  0  0  0  0  0  0  0  0  0  0
   58.6480   34.6560   43.7380 H   0  0  0  0  0  0  0  0  0  0  0  0
   58.2501   34.6459   48.8738 H   0  0  0  0  0  0  0  0  0  0  0  0
   59.9631   34.1913   50.6447 H   0  0  0  0  0  0  0  0  0  0  0  0
   62.2031   33.3132   50.0325 H   0  0  0  0  0  0  0  0  0  0  0  0
   63.9784   32.7166   49.7906 H   0  0  0  0  0  0  0  0  0  0  0  0
   65.2674   31.9823   48.7777 H   0  0  0  0  0  0  0  0  0  0  0  0
   65.0301   33.7628   48.7777 H   0  0  0  0  0  0  0  0  0  0  0  0
   61.0972   33.3159   45.9085 H   0  0  0  0  0  0  0  0  0  0  0  0
   59.4717   29.4674   46.1633 H   0  0  0  0  0  0  0  0  0  0  0  0
  1  2  1  0
  2  3  2  0
  3  4  1  0
  4  5  1  0
  5  6  2  0
  6  7  1  0
  7  8  1  0
  8  9  2  0
  9 10  1  0
 10 11  1  0
 11 12  2  0
 12 13  1  0
 13 14  2  0
 14 15  1  0
 15 16  2  0
 16 17  1  0
 17 18  1  0
 18 19  1  0
 18 20  2  0
 18 21  2  0
 17 22  2  0
 11 23  1  0
  6 24  1  0
 24 25  2  0
 25 26  1  0
 26 27  3  0
 25  3  1  0
 23  7  2  0
 22 13  1  0
  1 28  1  0
  1 29  1  0
  1 30  1  0
  4 31  1  0
  5 32  1  0
  8 33  1  0
  9 34  1  0
 10 35  1  0
 14 36  1  0
 15 37  1  0
 16 38  1  0
 19 39  1  0
 19 40  1  0
 19 41  1  0
 22 42  1  0
 24 43  1  0
M  END
>  <smiles>  (19) 
CN=c1[nH]cc(-c2cc[nH]c(=Nc3cccc(S(C)(=O)=O)c3)n2)cc1C#N

>  <score_type>  (19) 
oracle

>  <origin>  (19) 
adg

>  <m_score__min__energy>  (19) 
-8.8499999999999996

>  <m_primary>  (19) 
energy

$$$$
19:0
     RDKit          3D

 72 76  0  0  0  0  0  0  0  0999 V2000
   55.5550   24.7050   46.6240 O   0  0  0  0  0  0  0  0  0  0  0  0
   56.8000   24.6650   46.7080 N   0  0  0  0  0  0  0  0  0  0  0  0
   57.3950   23.5250   47.2010 O   0  0  0  0  0  0  0  0  0  0  0  0
   57.5980   25.7970   46.3210 C   0  0  0  0  0  0  0  0  0  0  0  0
   57.0420   27.0850   46.2520 C   0  0  0  0  0  0  0  0  0  0  0  0
   57.8330   28.1730   45.8790 C   0  0  0  0  0  0  0  0  0  0  0  0
   59.1800   27.9670   45.5770 C   0  0  0  0  0  0  0  0  0  0  0  0
   60.1980   29.3180   45.1230 S   0  0  0  0  0  0  0  0  0  0  0  0
   61.6270   28.8380   44.3820 O   0  0  0  0  0  0  0  0  0  0  0  0
   60.4580   30.4490   46.4380 C   0  0  0  0  0  0  0  0  0  0  0  0
   59.9660   31.7530   46.3430 C   0  0  0  0  0  0  0  0  0  0  0  0
   60.1590   32.6550   47.3930 C   0  0  0  0  0  0  0  0  0  0  0  0
   60.8440   32.2620   48.5600 C   0  0  0  0  0  0  0  0  0  0  0  0
   61.0670   33.2700   49.6850 C   0  0  0  0  0  0  0  0  0  0  0  0
   59.8060   33.3470   50.5970 C   0  0  1  0  0  0  0  0  0  0  0  0
   58.8230   32.1670   50.3510 C   0  0  0  0  0  0  0  0  0  0  0  0
   58.9490   31.0690   51.4200 C   0  0  0  0  0  0  0  0  0  0  0  0
   58.7200   31.5680   52.8110 N   0  0  2  0  0  0  0  0  0  0  0  0
   57.3920   31.1430   53.3550 C   0  0  0  0  0  0  0  0  0  0  0  0
   57.2180   29.6040   53.4740 C   0  0  0  0  0  0  0  0  0  0  0  0
   55.7340   29.2490   53.5880 C   0  0  0  0  0  0  0  0  0  0  0  0
   54.9960   29.5970   52.3540 N   0  0  0  0  0  0  0  0  0  0  0  0
   53.2800   29.6830   52.6770 S   0  0  0  0  0  0  0  0  0  0  0  0
   52.7050   28.2990   52.7870 O   0  0  0  0  0  0  0  0  0  0  0  0
   53.0550   30.4130   53.9740 O   0  0  0  0  0  0  0  0  0  0  0  0
   52.4330   30.5730   51.3820 C   0  0  0  0  0  0  0  0  0  0  0  0
   52.8820   31.8790   51.3500 F   0  0  0  0  0  0  0  0  0  0  0  0
   51.0710   30.5680   51.6170 F   0  0  0  0  0  0  0  0  0  0  0  0
   52.6910   29.9730   50.1650 F   0  0  0  0  0  0  0  0  0  0  0  0
   55.4760   30.8250   51.6710 C   0  0  0  0  0  0  0  0  0  0  0  0
   56.1950   31.8050   52.6130 C   0  0  0  0  0  0  0  0  0  0  0  0
   59.0110   33.0200   52.9850 C   0  0  0  0  0  0  0  0  0  0  0  0
   60.1770   33.4700   52.0970 C   0  0  0  0  0  0  0  0  0  0  0  0
   61.3300   34.5540   49.1500 O   0  0  0  0  0  0  0  0  0  0  0  0
   62.6650   34.8370   49.4340 C   0  0  0  0  0  0  0  0  0  0  0  0
   63.2450   33.6060   50.0600 C   0  0  0  0  0  0  0  0  0  0  0  0
   62.1630   32.8310   50.4630 O   0  0  0  0  0  0  0  0  0  0  0  0
   61.3500   30.9480   48.6360 C   0  0  0  0  0  0  0  0  0  0  0  0
   61.1500   30.0480   47.5860 C   0  0  0  0  0  0  0  0  0  0  0  0
   59.7090   26.7170   45.6480 N   0  0  0  0  0  0  0  0  0  0  0  0
   58.9600   25.6410   46.0060 C   0  0  0  0  0  0  0  0  0  0  0  0
   55.9795   27.2369   46.4927 H   0  0  0  0  0  0  0  0  0  0  0  0
   57.3992   29.1823   45.8237 H   0  0  0  0  0  0  0  0  0  0  0  0
   61.4720   27.8970   44.1170 H   0  0  0  0  0  0  0  0  0  0  0  0
   59.4252   32.0707   45.4393 H   0  0  0  0  0  0  0  0  0  0  0  0
   59.7725   33.6813   47.3076 H   0  0  0  0  0  0  0  0  0  0  0  0
   59.2785   34.2696   50.3131 H   0  0  0  0  0  0  0  0  0  0  0  0
   59.0376   31.7275   49.3657 H   0  0  0  0  0  0  0  0  0  0  0  0
   57.7993   32.5667   50.3987 H   0  0  0  0  0  0  0  0  0  0  0  0
   59.9614   30.6423   51.3645 H   0  0  0  0  0  0  0  0  0  0  0  0
   58.1711   30.3199   51.2106 H   0  0  0  0  0  0  0  0  0  0  0  0
   59.4310   31.0690   53.3980 H   0  0  0  0  0  0  0  0  0  0  0  0
   57.3838   31.5233   54.3871 H   0  0  0  0  0  0  0  0  0  0  0  0
   57.6401   29.1202   52.5808 H   0  0  0  0  0  0  0  0  0  0  0  0
   57.7424   29.2513   54.3744 H   0  0  0  0  0  0  0  0  0  0  0  0
   55.6381   28.1682   53.7689 H   0  0  0  0  0  0  0  0  0  0  0  0
   55.3046   29.8255   54.4206 H   0  0  0  0  0  0  0  0  0  0  0  0
   56.1750   30.5305   50.8743 H   0  0  0  0  0  0  0  0  0  0  0  0
   54.5906   31.3444   51.2756 H   0  0  0  0  0  0  0  0  0  0  0  0
   56.5711   32.6525   52.0212 H   0  0  0  0  0  0  0  0  0  0  0  0
   55.4700   32.1342   53.3720 H   0  0  0  0  0  0  0  0  0  0  0  0
   59.2695   33.2091   54.0373 H   0  0  0  0  0  0  0  0  0  0  0  0
   58.1157   33.5887   52.6933 H   0  0  0  0  0  0  0  0  0  0  0  0
   61.0532   32.8382   52.3047 H   0  0  0  0  0  0  0  0  0  0  0  0
   60.4031   34.5234   52.3190 H   0  0  0  0  0  0  0  0  0  0  0  0
   63.2056   35.0814   48.5077 H   0  0  0  0  0  0  0  0  0  0  0  0
   62.7501   35.7008   50.1097 H   0  0  0  0  0  0  0  0  0  0  0  0
   63.8559   33.0573   49.3281 H   0  0  0  0  0  0  0  0  0  0  0  0
   63.8977   33.8568   50.9092 H   0  0  0  0  0  0  0  0  0  0  0  0
   61.9068   30.6288   49.5293 H   0  0  0  0  0  0  0  0  0  0  0  0
   61.5377   29.0214   47.6622 H   0  0  0  0  0  0  0  0  0  0  0  0
   59.4211   24.6433   46.0496 H   0  0  0  0  0  0  0  0  0  0  0  0
  1  2  2  0
  2  3  1  0
  2  4  1  0
  4  5  2  0
  5  6  1  0
  6  7  2  0
  7  8  1  0
  8  9  1  1
  8 10  1  0
 10 11  2  0
 11 12  1  0
 12 13  2  0
 13 14  1  0
 14 15  1  0
 15 16  1  0
 16 17  1  0
 17 18  1  0
 18 19  1  0
 19 20  1  0
 20 21  1  0
 21 22  1  0
 22 23  1  0
 23 24  2  0
 23 25  2  0
 23 26  1  0
 26 27  1  0
 26 28  1  0
 26 29  1  0
 22 30  1  0
 30 31  1  0
 18 32  1  0
 32 33  1  0
 14 34  1  0
 34 35  1  0
 35 36  1  0
 36 37  1  0
 13 38  1  0
 38 39  2  0
  7 40  1  0
 40 41  2  0
 41  4  1  0
 39 10  1  0
 37 14  1  0
 33 15  1  0
 31 19  1  0
  5 42  1  0
  6 43  1  0
  9 44  1  0
 11 45  1  0
 12 46  1  0
 15 47  1  6
 16 48  1  0
 16 49  1  0
 17 50  1  0
 17 51  1  0
 18 52  1  1
 19 53  1  0
 20 54  1  0
 20 55  1  0
 21 56  1  0
 21 57  1  0
 30 58  1  0
 30 59  1  0
 31 60  1  0
 31 61  1  0
 32 62  1  0
 32 63  1  0
 33 64  1  0
 33 65  1  0
 35 66  1  0
 35 67  1  0
 36 68  1  0
 36 69  1  0
 38 70  1  0
 39 71  1  0
 41 72  1  0
M  CHG  4   2   1   3  -1   8   1  18   1
M  END
>  <UniqueID>  (20) 
17

>  <SMILES>  (20) 
O=[N+]([O-])c1ccc([S@+](O)c2ccc(C3(C4CC[NH+](C5CCN(S(=O)(=O)C(F)(F)F)CC5)CC4)OCCO3)cc2)nc1

>  <Energy>  (20) 
90.43483815740116

>  <Genealogy>  (20) 
O=[N+]([O-])c1ccc([S+](O)c2ccc(C3(C4CC[NH+](C5CCN(S(=O)(=O)C(F)(F)F)CC5)CC4)OCCO3)cc2)nc1 (protonated)
O=[N+]([O-])c1ccc([S@+](O)c2ccc(C3(C4CC[NH+](C5CCN(S(=O)(=O)C(F)(F)F)CC5)CC4)OCCO3)cc2)nc1 (chirality)
O=[N+]([O-])c1ccc([S@+](O)c2ccc(C3(C4CC[NH+](C5CCN(S(=O)(=O)C(F)(F)F)CC5)CC4)OCCO3)cc2)nc1 (3D coordinates assigned)
O=[N+]([O-])c1ccc([S@+](O)c2ccc(C3(C4CC[NH+](C5CCN(S(=O)(=O)C(F)(F)F)CC5)CC4)OCCO3)cc2)nc1 (nonaromatic ring conformer: 90.43483815740116 kcal/mol)

>  <smiles>  (20) 
O=[N+]([O-])c1ccc([S+]([O-])c2ccc(C3(C4CCN(C5CCN(S(=O)(=O)C(F)(F)F)CC5)CC4)OCCO3)cc2)nc1

>  <score_type>  (20) 
oracle

>  <origin>  (20) 
adg

>  <m_score__min__energy>  (20) 
-7.0800000000000001

>  <m_primary>  (20) 
energy

$$$$
20:0
     RDKit          3D

 52 54  0  0  0  0  0  0  0  0999 V2000
   57.8570   24.2290   46.6950 O   0  0  0  0  0  0  0  0  0  0  0  0
   57.0950   25.1980   46.4310 C   0  0  0  0  0  0  0  0  0  0  0  0
   55.8030   24.9430   45.7250 C   0  0  0  0  0  0  0  0  0  0  0  0
   54.9160   26.0000   45.9630 O   0  0  0  0  0  0  0  0  0  0  0  0
   57.3640   26.5140   46.9400 N   0  0  0  0  0  0  0  0  0  0  0  0
   57.7100   27.5930   46.2890 C   0  0  0  0  0  0  0  0  0  0  0  0
   58.7950   28.4070   46.6820 C   0  0  0  0  0  0  0  0  0  0  0  0
   59.1150   29.5490   45.9350 C   0  0  0  0  0  0  0  0  0  0  0  0
   60.2450   30.4440   46.3680 C   0  0  0  0  0  0  0  0  0  0  0  0
   60.8750   29.9630   48.0150 S   0  0  0  0  0  0  0  0  0  0  0  0
   61.9710   31.3790   48.1910 C   0  0  0  0  0  0  0  0  0  0  0  0
   62.8760   31.6710   47.1620 C   0  0  0  0  0  0  0  0  0  0  0  0
   63.7470   32.7570   47.2780 C   0  0  0  0  0  0  0  0  0  0  0  0
   63.7180   33.5540   48.4230 C   0  0  0  0  0  0  0  0  0  0  0  0
   62.8110   33.2770   49.4480 C   0  0  0  0  0  0  0  0  0  0  0  0
   61.9110   32.2040   49.3290 C   0  0  0  0  0  0  0  0  0  0  0  0
   60.9980   31.8860   50.3880 N   0  0  0  0  0  0  0  0  0  0  0  0
   59.9400   32.7160   50.8910 C   0  0  0  0  0  0  0  0  0  0  0  0
   60.1480   33.3890   51.9360 O   0  0  0  0  0  0  0  0  0  0  0  0
   58.5540   32.6960   50.2970 C   0  0  0  0  0  0  0  0  0  0  0  0
   58.5030   31.9950   48.9290 C   0  0  0  0  0  0  0  0  0  0  0  0
   58.6520   32.9610   47.7820 C   0  0  0  0  0  0  0  0  0  0  0  0
   59.6040   33.9930   47.8470 C   0  0  0  0  0  0  0  0  0  0  0  0
   59.7490   34.8860   46.7810 C   0  0  0  0  0  0  0  0  0  0  0  0
   58.9470   34.7550   45.6440 C   0  0  0  0  0  0  0  0  0  0  0  0
   58.0010   33.7310   45.5700 C   0  0  0  0  0  0  0  0  0  0  0  0
   57.8520   32.8350   46.6340 C   0  0  0  0  0  0  0  0  0  0  0  0
   58.3550   29.8630   44.8030 C   0  0  0  0  0  0  0  0  0  0  0  0
   57.3030   29.0300   44.4300 C   0  0  0  0  0  0  0  0  0  0  0  0
   57.0100   27.9220   45.1650 N   0  0  0  0  0  0  0  0  0  0  0  0
   55.9881   24.8579   44.6440 H   0  0  0  0  0  0  0  0  0  0  0  0
   55.3624   24.0075   46.1003 H   0  0  0  0  0  0  0  0  0  0  0  0
   55.1400   26.3490   46.8660 H   0  0  0  0  0  0  0  0  0  0  0  0
   59.3871   28.1457   47.5715 H   0  0  0  0  0  0  0  0  0  0  0  0
   61.0623   30.3699   45.6355 H   0  0  0  0  0  0  0  0  0  0  0  0
   59.8691   31.4761   46.4266 H   0  0  0  0  0  0  0  0  0  0  0  0
   62.9007   31.0427   46.2594 H   0  0  0  0  0  0  0  0  0  0  0  0
   64.4552   32.9837   46.4674 H   0  0  0  0  0  0  0  0  0  0  0  0
   64.4113   34.4026   48.5184 H   0  0  0  0  0  0  0  0  0  0  0  0
   62.8008   33.9018   50.3533 H   0  0  0  0  0  0  0  0  0  0  0  0
   57.8826   32.1663   50.9888 H   0  0  0  0  0  0  0  0  0  0  0  0
   58.2427   33.7402   50.1463 H   0  0  0  0  0  0  0  0  0  0  0  0
   59.3187   31.2587   48.8788 H   0  0  0  0  0  0  0  0  0  0  0  0
   57.5185   31.5133   48.8357 H   0  0  0  0  0  0  0  0  0  0  0  0
   60.2375   34.0985   48.7401 H   0  0  0  0  0  0  0  0  0  0  0  0
   60.4950   35.6924   46.8373 H   0  0  0  0  0  0  0  0  0  0  0  0
   59.0612   35.4593   44.8068 H   0  0  0  0  0  0  0  0  0  0  0  0
   57.3717   33.6285   44.6736 H   0  0  0  0  0  0  0  0  0  0  0  0
   57.1059   32.0291   46.5716 H   0  0  0  0  0  0  0  0  0  0  0  0
   58.5867   30.7613   44.2119 H   0  0  0  0  0  0  0  0  0  0  0  0
   56.7060   29.2684   43.5374 H   0  0  0  0  0  0  0  0  0  0  0  0
   56.2130   27.3210   44.8560 H   0  0  0  0  0  0  0  0  0  0  0  0
  1  2  2  0
  2  3  1  0
  3  4  1  0
  2  5  1  0
  5  6  2  3
  6  7  1  0
  7  8  2  0
  8  9  1  0
  9 10  1  0
 10 11  1  0
 11 12  2  0
 12 13  1  0
 13 14  2  0
 14 15  1  0
 15 16  2  0
 16 17  1  0
 17 18  1  0
 18 19  2  0
 18 20  1  0
 20 21  1  0
 21 22  1  0
 22 23  2  0
 23 24  1  0
 24 25  2  0
 25 26  1  0
 26 27  2  0
  8 28  1  0
 28 29  2  0
 29 30  1  0
 30  6  1  0
 16 11  1  0
 27 22  1  0
  3 31  1  0
  3 32  1  0
  4 33  1  0
  7 34  1  0
  9 35  1  0
  9 36  1  0
 12 37  1  0
 13 38  1  0
 14 39  1  0
 15 40  1  0
 20 41  1  0
 20 42  1  0
 21 43  1  0
 21 44  1  0
 23 45  1  0
 24 46  1  0
 25 47  1  0
 26 48  1  0
 27 49  1  0
 28 50  1  0
 29 51  1  0
 30 52  1  0
M  CHG  1  17  -1
M  END
>  <UniqueID>  (21) 
18

>  <SMILES>  (21) 
O=C(CO)N=c1cc(CSc2ccccc2[N-]C(=O)CCc2ccccc2)cc[nH]1

>  <Energy>  (21) 
58.537586422181136

>  <Genealogy>  (21) 
O=C(CO)N=c1cc(CSc2ccccc2[N-]C(=O)CCc2ccccc2)cc[nH]1 (protonated)
O=C(CO)N=c1cc(CSc2ccccc2[N-]C(=O)CCc2ccccc2)cc[nH]1 (3D coordinates assigned)
O=C(CO)N=c1cc(CSc2ccccc2[N-]C(=O)CCc2ccccc2)cc[nH]1 (optimized conformer: 58.537586422181136 kcal/mol)

>  <smiles>  (21) 
O=C(CO)N=c1cc(CSc2ccccc2NC(=O)CCc2ccccc2)cc[nH]1

>  <score_type>  (21) 
oracle

>  <origin>  (21) 
adg

>  <m_score__min__energy>  (21) 
-9.8800000000000008

>  <m_primary>  (21) 
energy

$$$$
21:0
     RDKit          3D

 60 63  0  0  1  0  0  0  0  0999 V2000
   57.3540   21.1490   43.0150 C   0  0  0  0  0  0  0  0  0  0  0  0
   56.0490   21.7850   43.3130 N   0  0  0  0  0  0  0  0  0  0  0  0
   55.9070   21.6650   44.7850 C   0  0  0  0  0  0  0  0  0  0  0  0
   56.1840   23.1920   43.0350 C   0  0  0  0  0  0  0  0  0  0  0  0
   56.1230   23.9890   44.2890 C   0  0  0  0  0  0  0  0  0  0  0  0
   57.1520   24.5610   44.8640 C   0  0  0  0  0  0  0  0  0  0  0  0
   57.2200   25.5920   45.8170 C   0  0  0  0  0  0  0  0  0  0  0  0
   56.2720   25.6120   46.7180 O   0  0  0  0  0  0  0  0  0  0  0  0
   58.1410   26.6630   46.0190 N   0  0  0  0  0  0  0  0  0  0  0  0
   57.7640   27.4860   47.1900 C   0  0  0  0  0  0  0  0  0  0  0  0
   58.6370   28.6220   47.4900 C   0  0  0  0  0  0  0  0  0  0  0  0
   59.3950   29.2060   46.3390 C   0  0  0  0  0  0  0  0  0  0  0  0
   58.6270   30.1050   45.5050 N   0  0  0  0  0  0  0  0  0  0  0  0
   57.8020   29.8000   44.3540 C   0  0  0  0  0  0  0  0  0  0  0  0
   56.7330   30.8190   44.4770 C   0  0  0  0  0  0  0  0  0  0  0  0
   55.5150   30.7520   44.1770 O   0  0  0  0  0  0  0  0  0  0  0  0
   57.3820   31.9960   45.0460 C   0  0  0  0  0  0  0  0  0  0  0  0
   57.1040   33.3530   45.0860 C   0  0  0  0  0  0  0  0  0  0  0  0
   57.9390   34.2100   45.7180 N   0  0  0  0  0  0  0  0  0  0  0  0
   59.0610   33.7490   46.3210 C   0  0  0  0  0  0  0  0  0  0  0  0
   59.8130   34.6160   46.9060 N   0  0  0  0  0  0  0  0  0  0  0  0
   61.0750   34.1690   47.3880 C   0  0  0  0  0  0  0  0  0  0  0  0
   62.0740   33.8300   46.4860 C   0  0  0  0  0  0  0  0  0  0  0  0
   63.3200   33.3890   46.9310 C   0  0  0  0  0  0  0  0  0  0  0  0
   63.5670   33.2870   48.2830 C   0  0  0  0  0  0  0  0  0  0  0  0
   64.7780   32.8560   48.8030 O   0  0  0  0  0  0  0  0  0  0  0  0
   62.5840   33.6200   49.2110 C   0  0  0  0  0  0  0  0  0  0  0  0
   61.3540   34.0550   48.7460 C   0  0  0  0  0  0  0  0  0  0  0  0
   59.3360   32.4300   46.2850 N   0  0  0  0  0  0  0  0  0  0  0  0
   58.5240   31.5360   45.6610 C   0  0  0  0  0  0  0  0  0  0  0  0
   60.1060   28.1360   45.5970 C   0  0  0  0  0  0  0  0  0  0  0  0
   59.2840   26.9350   45.2180 C   0  0  0  0  0  0  0  0  0  0  0  0
   57.8643   20.9003   43.9572 H   0  0  0  0  0  0  0  0  0  0  0  0
   57.1897   20.2300   42.4333 H   0  0  0  0  0  0  0  0  0  0  0  0
   57.9766   21.8447   42.4333 H   0  0  0  0  0  0  0  0  0  0  0  0
   56.6578   22.2995   45.2787 H   0  0  0  0  0  0  0  0  0  0  0  0
   54.8993   21.9893   45.0838 H   0  0  0  0  0  0  0  0  0  0  0  0
   56.0587   20.6173   45.0838 H   0  0  0  0  0  0  0  0  0  0  0  0
   57.1508   23.3705   42.5415 H   0  0  0  0  0  0  0  0  0  0  0  0
   55.3557   23.5020   42.3809 H   0  0  0  0  0  0  0  0  0  0  0  0
   55.1407   24.1071   44.7697 H   0  0  0  0  0  0  0  0  0  0  0  0
   58.1290   24.1674   44.5470 H   0  0  0  0  0  0  0  0  0  0  0  0
   56.7518   27.8784   47.0124 H   0  0  0  0  0  0  0  0  0  0  0  0
   57.8442   26.8159   48.0586 H   0  0  0  0  0  0  0  0  0  0  0  0
   58.0118   29.4198   47.9173 H   0  0  0  0  0  0  0  0  0  0  0  0
   59.4040   28.2266   48.1721 H   0  0  0  0  0  0  0  0  0  0  0  0
   60.1586   29.8767   46.7599 H   0  0  0  0  0  0  0  0  0  0  0  0
   58.3630   29.9178   43.4152 H   0  0  0  0  0  0  0  0  0  0  0  0
   57.4328   28.7641   44.3292 H   0  0  0  0  0  0  0  0  0  0  0  0
   56.1955   33.7373   44.5992 H   0  0  0  0  0  0  0  0  0  0  0  0
   61.8804   33.9102   45.4061 H   0  0  0  0  0  0  0  0  0  0  0  0
   64.1029   33.1235   46.2054 H   0  0  0  0  0  0  0  0  0  0  0  0
   65.6040   32.7890   48.2460 H   0  0  0  0  0  0  0  0  0  0  0  0
   62.7800   33.5393   50.2904 H   0  0  0  0  0  0  0  0  0  0  0  0
   60.5727   34.3188   49.4740 H   0  0  0  0  0  0  0  0  0  0  0  0
   60.1870   32.0970   46.7460 H   0  0  0  0  0  0  0  0  0  0  0  0
   60.5039   28.5766   44.6710 H   0  0  0  0  0  0  0  0  0  0  0  0
   60.8769   27.7608   46.2862 H   0  0  0  0  0  0  0  0  0  0  0  0
   58.9388   27.0806   44.1838 H   0  0  0  0  0  0  0  0  0  0  0  0
   59.9502   26.0719   45.3637 H   0  0  0  0  0  0  0  0  0  0  0  0
  1  2  1  0
  2  3  1  0
  2  4  1  0
  4  5  1  0
  5  6  2  0
  6  7  1  0
  7  8  2  0
  7  9  1  0
  9 10  1  0
 10 11  1  0
 11 12  1  0
 12 13  1  0
 13 14  1  0
 14 15  1  0
 15 16  2  0
 15 17  1  0
 17 18  1  0
 18 19  2  0
 19 20  1  0
 20 21  2  0
 21 22  1  0
 22 23  2  0
 23 24  1  0
 24 25  2  0
 25 26  1  0
 25 27  1  0
 27 28  2  0
 20 29  1  0
 29 30  1  0
 12 31  1  0
 31 32  1  0
 32  9  1  0
 30 13  1  0
 30 17  2  0
 28 22  1  0
  1 33  1  0
  1 34  1  0
  1 35  1  0
  3 36  1  0
  3 37  1  0
  3 38  1  0
  4 39  1  0
  4 40  1  0
  5 41  1  0
  6 42  1  0
 10 43  1  0
 10 44  1  0
 11 45  1  0
 11 46  1  0
 12 47  1  0
 14 48  1  0
 14 49  1  0
 18 50  1  0
 23 51  1  0
 24 52  1  0
 26 53  1  0
 27 54  1  0
 28 55  1  0
 29 56  1  0
 31 57  1  0
 31 58  1  0
 32 59  1  0
 32 60  1  0
M  END
>  <smiles>  (22) 
CN(C)CC=CC(=O)N1CCC(N2CC(=O)c3cnc(=Nc4ccc(O)cc4)[nH]c32)CC1

>  <score_type>  (22) 
oracle

>  <origin>  (22) 
adg

>  <m_score__min__energy>  (22) 
-9.8699999999999992

>  <m_primary>  (22) 
energy

$$$$
22:0
     RDKit          3D

 38 40  0  0  0  0  0  0  0  0999 V2000
   61.9860   31.4150   47.7620 C   0  0  0  0  0  0  0  0  0  0  0  0
   60.7870   32.0750   47.2650 N   0  0  0  0  0  0  0  0  0  0  0  0
   60.4940   33.2650   47.7870 C   0  0  0  0  0  0  0  0  0  0  0  0
   59.4030   33.8880   47.3460 N   0  0  0  0  0  0  0  0  0  0  0  0
   58.5970   33.3370   46.3850 C   0  0  0  0  0  0  0  0  0  0  0  0
   57.6160   34.0570   46.0390 N   0  0  0  0  0  0  0  0  0  0  0  0
   58.8920   32.0910   45.8290 C   0  0  0  0  0  0  0  0  0  0  0  0
   57.9540   31.4440   44.8810 C   0  0  0  0  0  0  0  0  0  0  0  0
   57.9690   31.7950   43.5400 C   0  0  0  0  0  0  0  0  0  0  0  0
   56.6480   30.8160   42.7570 S   0  0  0  0  0  0  0  0  0  0  0  0
   56.2190   30.0270   44.3930 C   0  0  0  0  0  0  0  0  0  0  0  0
   55.2810   29.1650   44.4930 N   0  0  0  0  0  0  0  0  0  0  0  0
   57.0640   30.5630   45.2460 N   0  0  0  0  0  0  0  0  0  0  0  0
   60.0190   31.4710   46.2990 C   0  0  0  0  0  0  0  0  0  0  0  0
   60.6060   29.8700   45.7980 S   0  0  0  0  0  0  0  0  0  0  0  0
   59.2890   28.6320   45.8320 C   0  0  0  0  0  0  0  0  0  0  0  0
   59.1000   27.9320   44.6480 C   0  0  0  0  0  0  0  0  0  0  0  0
   58.1040   26.9770   44.5700 C   0  0  0  0  0  0  0  0  0  0  0  0
   57.3350   26.7760   45.7150 C   0  0  0  0  0  0  0  0  0  0  0  0
   56.2710   25.7530   45.6310 C   0  0  0  0  0  0  0  0  0  0  0  0
   55.0230   26.3530   45.8300 O   0  0  0  0  0  0  0  0  0  0  0  0
   57.5220   27.4660   46.8790 C   0  0  0  0  0  0  0  0  0  0  0  0
   58.5210   28.4230   46.9570 C   0  0  0  0  0  0  0  0  0  0  0  0
   61.9778   31.4195   48.8620 H   0  0  0  0  0  0  0  0  0  0  0  0
   62.0099   30.3766   47.3997 H   0  0  0  0  0  0  0  0  0  0  0  0
   62.8761   31.9503   47.3997 H   0  0  0  0  0  0  0  0  0  0  0  0
   61.1335   33.7189   48.5584 H   0  0  0  0  0  0  0  0  0  0  0  0
   56.7940   34.1880   46.6540 H   0  0  0  0  0  0  0  0  0  0  0  0
   58.6401   32.5159   43.0501 H   0  0  0  0  0  0  0  0  0  0  0  0
   55.1610   28.4560   45.2140 H   0  0  0  0  0  0  0  0  0  0  0  0
   56.9890   30.2050   46.2730 H   0  0  0  0  0  0  0  0  0  0  0  0
   59.7395   28.1364   43.7767 H   0  0  0  0  0  0  0  0  0  0  0  0
   57.9267   26.4031   43.6485 H   0  0  0  0  0  0  0  0  0  0  0  0
   56.2954   25.2808   44.6378 H   0  0  0  0  0  0  0  0  0  0  0  0
   56.4365   24.9908   46.4067 H   0  0  0  0  0  0  0  0  0  0  0  0
   54.8100   27.0610   45.1960 H   0  0  0  0  0  0  0  0  0  0  0  0
   56.8824   27.2628   47.7505 H   0  0  0  0  0  0  0  0  0  0  0  0
   58.6944   28.9938   47.8812 H   0  0  0  0  0  0  0  0  0  0  0  0
  1  2  1  0
  2  3  1  0
  3  4  2  0
  4  5  1  0
  5  6  2  3
  5  7  1  0
  7  8  1  0
  8  9  2  0
  9 10  1  0
 10 11  1  0
 11 12  2  3
 11 13  1  0
  7 14  2  0
 14 15  1  0
 15 16  1  0
 16 17  2  0
 17 18  1  0
 18 19  2  0
 19 20  1  0
 20 21  1  0
 19 22  1  0
 22 23  2  0
 14  2  1  0
 23 16  1  0
 13  8  1  0
  1 24  1  0
  1 25  1  0
  1 26  1  0
  3 27  1  0
  6 28  1  0
  9 29  1  0
 12 30  1  0
 13 31  1  0
 17 32  1  0
 18 33  1  0
 20 34  1  0
 20 35  1  0
 21 36  1  0
 22 37  1  0
 23 38  1  0
M  END
>  <smiles>  (23) 
Cn1cnc(=N)c(-c2csc(=N)[nH]2)c1Sc1ccc(CO)cc1

>  <score_type>  (23) 
oracle

>  <origin>  (23) 
adg

>  <m_score__min__energy>  (23) 
-8.1799999999999997

>  <m_primary>  (23) 
energy

$$$$
23:0
     RDKit          3D

 39 40  0  0  0  0  0  0  0  0999 V2000
   59.6460   33.8370   50.7110 C   0  0  0  0  0  0  0  0  0  0  0  0
   60.8860   33.0420   50.2410 C   0  0  0  0  0  0  0  0  0  0  0  0
   62.1500   33.8450   50.6170 C   0  0  0  0  0  0  0  0  0  0  0  0
   60.8830   31.7040   51.0220 C   0  0  0  0  0  0  0  0  0  0  0  0
   60.8010   32.7620   48.6910 C   0  0  2  0  0  0  0  0  0  0  0  0
   61.6220   31.5140   48.2230 C   0  0  1  0  0  0  0  0  0  0  0  0
   60.4590   30.2020   47.3710 Br  0  0  0  0  0  0  0  0  0  0  0  0
   62.6900   32.0150   47.2320 C   0  0  2  0  0  0  0  0  0  0  0  0
   63.9970   31.7890   47.7000 O   0  0  0  0  0  0  0  0  0  0  0  0
   62.3990   33.4580   47.1120 C   0  0  0  0  0  0  0  0  0  0  0  0
   63.0390   34.2230   46.3420 O   0  0  0  0  0  0  0  0  0  0  0  0
   61.2910   33.8930   47.8890 N   0  0  0  0  0  0  0  0  0  0  0  0
   60.3790   34.9200   47.3620 C   0  0  0  0  0  0  0  0  0  0  0  0
   59.3180   34.3330   46.4610 C   0  0  0  0  0  0  0  0  0  0  0  0
   59.5570   34.2210   45.0800 C   0  0  0  0  0  0  0  0  0  0  0  0
   58.5960   33.6500   44.2400 C   0  0  0  0  0  0  0  0  0  0  0  0
   57.3950   33.1740   44.7710 C   0  0  0  0  0  0  0  0  0  0  0  0
   57.1530   33.2670   46.1440 C   0  0  0  0  0  0  0  0  0  0  0  0
   58.1100   33.8370   46.9870 C   0  0  0  0  0  0  0  0  0  0  0  0
   59.6173   33.8554   51.8105 H   0  0  0  0  0  0  0  0  0  0  0  0
   59.7040   34.8667   50.3285 H   0  0  0  0  0  0  0  0  0  0  0  0
   58.7345   33.3545   50.3285 H   0  0  0  0  0  0  0  0  0  0  0  0
   62.2370   33.9003   51.7122 H   0  0  0  0  0  0  0  0  0  0  0  0
   63.0384   33.3453   50.2034 H   0  0  0  0  0  0  0  0  0  0  0  0
   62.0752   34.8615   50.2034 H   0  0  0  0  0  0  0  0  0  0  0  0
   60.8835   31.9101   52.1025 H   0  0  0  0  0  0  0  0  0  0  0  0
   59.9836   31.1279   50.7590 H   0  0  0  0  0  0  0  0  0  0  0  0
   61.7798   31.1239   50.7590 H   0  0  0  0  0  0  0  0  0  0  0  0
   59.7274   32.5861   48.5281 H   0  0  0  0  0  0  0  0  0  0  0  0
   62.0937   31.0186   49.0844 H   0  0  0  0  0  0  0  0  0  0  0  0
   62.6480   31.4860   46.2684 H   0  0  0  0  0  0  0  0  0  0  0  0
   64.5900   32.4830   47.3090 H   0  0  0  0  0  0  0  0  0  0  0  0
   59.8870   35.4241   48.2069 H   0  0  0  0  0  0  0  0  0  0  0  0
   60.9748   35.6269   46.7659 H   0  0  0  0  0  0  0  0  0  0  0  0
   60.5055   34.5847   44.6579 H   0  0  0  0  0  0  0  0  0  0  0  0
   58.7862   33.5755   43.1591 H   0  0  0  0  0  0  0  0  0  0  0  0
   56.6398   32.7260   44.1084 H   0  0  0  0  0  0  0  0  0  0  0  0
   56.2075   32.8908   46.5617 H   0  0  0  0  0  0  0  0  0  0  0  0
   57.9185   33.8987   48.0685 H   0  0  0  0  0  0  0  0  0  0  0  0
  1  2  1  0
  2  3  1  0
  2  4  1  0
  2  5  1  0
  5  6  1  0
  6  7  1  0
  6  8  1  0
  8  9  1  0
  8 10  1  0
 10 11  2  0
 10 12  1  0
 12 13  1  0
 13 14  1  0
 14 15  2  0
 15 16  1  0
 16 17  2  0
 17 18  1  0
 18 19  2  0
 12  5  1  0
 19 14  1  0
  1 20  1  0
  1 21  1  0
  1 22  1  0
  3 23  1  0
  3 24  1  0
  3 25  1  0
  4 26  1  0
  4 27  1  0
  4 28  1  0
  5 29  1  6
  6 30  1  1
  8 31  1  6
  9 32  1  0
 13 33  1  0
 13 34  1  0
 15 35  1  0
 16 36  1  0
 17 37  1  0
 18 38  1  0
 19 39  1  0
M  END
>  <UniqueID>  (24) 
19

>  <SMILES>  (24) 
CC(C)(C)[C@@H]1[C@@H](Br)C(O)C(=O)N1Cc1ccccc1

>  <Energy>  (24) 
47.35044181071517

>  <Genealogy>  (24) 
CC(C)(C)[C@@H]1[C@@H](Br)C(O)C(=O)N1Cc1ccccc1 (chirality)
CC(C)(C)[C@@H]1[C@@H](Br)C(O)C(=O)N1Cc1ccccc1 (3D coordinates assigned)
CC(C)(C)[C@@H]1[C@@H](Br)C(O)C(=O)N1Cc1ccccc1 (nonaromatic ring conformer: 47.35044181071517 kcal/mol)

>  <smiles>  (24) 
CC(C)(C)C1C(Br)C(O)C(=O)N1Cc1ccccc1

>  <score_type>  (24) 
oracle

>  <origin>  (24) 
adg

>  <m_score__min__energy>  (24) 
-7.3700000000000001

>  <m_primary>  (24) 
energy

$$$$
24:0
     RDKit          3D

 52 55  0  0  0  0  0  0  0  0999 V2000
   57.9590   32.3490   41.5310 C   0  0  0  0  0  0  0  0  0  0  0  0
   57.0080   31.4740   42.1300 O   0  0  0  0  0  0  0  0  0  0  0  0
   57.2470   30.7250   43.2920 C   0  0  0  0  0  0  0  0  0  0  0  0
   56.4990   29.5580   43.6120 C   0  0  0  0  0  0  0  0  0  0  0  0
   56.7680   28.8290   44.7840 C   0  0  0  0  0  0  0  0  0  0  0  0
   57.7780   29.2920   45.6350 C   0  0  0  0  0  0  0  0  0  0  0  0
   58.5010   30.4180   45.3200 C   0  0  0  0  0  0  0  0  0  0  0  0
   58.2690   31.1540   44.1600 C   0  0  0  0  0  0  0  0  0  0  0  0
   59.4370   30.5770   46.3130 C   0  0  0  0  0  0  0  0  0  0  0  0
   59.2620   29.5240   47.1830 C   0  0  0  0  0  0  0  0  0  0  0  0
   58.2250   28.7310   46.7860 N   0  0  0  0  0  0  0  0  0  0  0  0
   57.7130   27.4980   47.4030 C   0  0  0  0  0  0  0  0  0  0  0  0
   57.9030   26.2800   46.4890 C   0  0  0  0  0  0  0  0  0  0  0  0
   56.3550   25.5580   45.9630 S   0  0  0  0  0  0  0  0  0  0  0  0
   56.5170   25.0220   44.5700 O   0  0  0  0  0  0  0  0  0  0  0  0
   55.9680   24.4320   46.8810 O   0  0  0  0  0  0  0  0  0  0  0  0
   55.1480   26.7270   45.9620 O   0  0  0  0  0  0  0  0  0  0  0  0
   60.1820   29.3670   48.3200 C   0  0  0  0  0  0  0  0  0  0  0  0
   60.0400   28.4540   49.1750 O   0  0  0  0  0  0  0  0  0  0  0  0
   61.3670   30.3040   48.4100 C   0  0  0  0  0  0  0  0  0  0  0  0
   61.1100   31.6340   47.7920 N   0  0  2  0  0  0  0  0  0  0  0  0
   60.2570   32.4570   48.6350 C   0  0  0  0  0  0  0  0  0  0  0  0
   59.6820   31.9690   49.5980 O   0  0  0  0  0  0  0  0  0  0  0  0
   60.0420   33.9180   48.3340 C   0  0  0  0  0  0  0  0  0  0  0  0
   59.1240   34.0680   47.1520 C   0  0  0  0  0  0  0  0  0  0  0  0
   57.8570   33.4650   47.1490 C   0  0  0  0  0  0  0  0  0  0  0  0
   57.0340   33.5770   46.0270 C   0  0  0  0  0  0  0  0  0  0  0  0
   57.4890   34.2860   44.9120 C   0  0  0  0  0  0  0  0  0  0  0  0
   58.7230   34.8540   44.9240 N   0  0  0  0  0  0  0  0  0  0  0  0
   59.5440   34.7600   46.0050 C   0  0  0  0  0  0  0  0  0  0  0  0
   60.5740   31.5510   46.4090 C   0  0  0  0  0  0  0  0  0  0  0  0
   58.5248   32.8695   42.3177 H   0  0  0  0  0  0  0  0  0  0  0  0
   58.6515   31.7656   40.9063 H   0  0  0  0  0  0  0  0  0  0  0  0
   57.4352   33.0875   40.9063 H   0  0  0  0  0  0  0  0  0  0  0  0
   55.7004   29.2218   42.9343 H   0  0  0  0  0  0  0  0  0  0  0  0
   56.1995   27.9188   45.0256 H   0  0  0  0  0  0  0  0  0  0  0  0
   58.8685   32.0467   43.9285 H   0  0  0  0  0  0  0  0  0  0  0  0
   58.2509   27.3223   48.3463 H   0  0  0  0  0  0  0  0  0  0  0  0
   56.6350   27.6271   47.5798 H   0  0  0  0  0  0  0  0  0  0  0  0
   58.4647   26.5945   45.5971 H   0  0  0  0  0  0  0  0  0  0  0  0
   58.4451   25.5158   47.0653 H   0  0  0  0  0  0  0  0  0  0  0  0
   61.6150   30.4534   49.4712 H   0  0  0  0  0  0  0  0  0  0  0  0
   62.1948   29.8393   47.8543 H   0  0  0  0  0  0  0  0  0  0  0  0
   62.0420   32.1050   47.7150 H   0  0  0  0  0  0  0  0  0  0  0  0
   59.5919   34.4083   49.2098 H   0  0  0  0  0  0  0  0  0  0  0  0
   61.0101   34.3860   48.1021 H   0  0  0  0  0  0  0  0  0  0  0  0
   57.5124   32.9043   48.0304 H   0  0  0  0  0  0  0  0  0  0  0  0
   56.0372   33.1118   46.0206 H   0  0  0  0  0  0  0  0  0  0  0  0
   56.8474   34.3842   44.0239 H   0  0  0  0  0  0  0  0  0  0  0  0
   60.5394   35.2274   45.9801 H   0  0  0  0  0  0  0  0  0  0  0  0
   60.2178   32.5461   46.1042 H   0  0  0  0  0  0  0  0  0  0  0  0
   61.3814   31.2023   45.7483 H   0  0  0  0  0  0  0  0  0  0  0  0
  1  2  1  0
  2  3  1  0
  3  4  2  0
  4  5  1  0
  5  6  2  0
  6  7  1  0
  7  8  2  0
  7  9  1  0
  9 10  2  0
 10 11  1  0
 11 12  1  0
 12 13  1  0
 13 14  1  0
 14 15  2  0
 14 16  2  0
 14 17  1  0
 10 18  1  0
 18 19  2  0
 18 20  1  0
 20 21  1  0
 21 22  1  0
 22 23  2  0
 22 24  1  0
 24 25  1  0
 25 26  2  0
 26 27  1  0
 27 28  2  0
 28 29  1  0
 29 30  2  0
 21 31  1  0
  8  3  1  0
 31  9  1  0
 11  6  1  0
 30 25  1  0
  1 32  1  0
  1 33  1  0
  1 34  1  0
  4 35  1  0
  5 36  1  0
  8 37  1  0
 12 38  1  0
 12 39  1  0
 13 40  1  0
 13 41  1  0
 20 42  1  0
 20 43  1  0
 21 44  1  6
 24 45  1  0
 24 46  1  0
 26 47  1  0
 27 48  1  0
 28 49  1  0
 30 50  1  0
 31 51  1  0
 31 52  1  0
M  CHG  2  17  -1  21   1
M  END
>  <UniqueID>  (25) 
20

>  <SMILES>  (25) 
COc1ccc2c(c1)c1c(n2CCS(=O)(=O)[O-])C(=O)C[N@H+](C(=O)Cc2cccnc2)C1

>  <Energy>  (25) 
92.46740299624676

>  <Genealogy>  (25) 
COc1ccc2c(c1)c1c(n2CCS(=O)(=O)[O-])C(=O)C[NH+](C(=O)Cc2cccnc2)C1 (protonated)
COc1ccc2c(c1)c1c(n2CCS(=O)(=O)[O-])C(=O)C[N@H+](C(=O)Cc2cccnc2)C1 (chirality)
COc1ccc2c(c1)c1c(n2CCS(=O)(=O)[O-])C(=O)C[N@H+](C(=O)Cc2cccnc2)C1 (3D coordinates assigned)
COc1ccc2c(c1)c1c(n2CCS(=O)(=O)[O-])C(=O)C[N@H+](C(=O)Cc2cccnc2)C1 (nonaromatic ring conformer: 92.46740299624676 kcal/mol)

>  <smiles>  (25) 
COc1ccc2c(c1)c1c(n2CCS(=O)(=O)O)C(=O)CN(C(=O)Cc2cccnc2)C1

>  <score_type>  (25) 
oracle

>  <origin>  (25) 
adg

>  <m_score__min__energy>  (25) 
-11.199999999999999

>  <m_primary>  (25) 
energy

$$$$
25:0
     RDKit          3D

 54 56  0  0  0  0  0  0  0  0999 V2000
   61.5910   32.1560   50.5610 C   0  0  0  0  0  0  0  0  0  0  0  0
   60.7020   32.4240   49.4310 N   0  0  0  0  0  0  0  0  0  0  0  0
   59.8950   33.6480   49.3710 C   0  0  0  0  0  0  0  0  0  0  0  0
   59.2590   33.7900   48.0160 C   0  0  0  0  0  0  0  0  0  0  0  0
   59.8040   34.6750   47.0710 C   0  0  0  0  0  0  0  0  0  0  0  0
   59.1820   34.8520   45.8320 C   0  0  0  0  0  0  0  0  0  0  0  0
   58.0100   34.1530   45.5290 C   0  0  0  0  0  0  0  0  0  0  0  0
   57.4070   34.3290   44.3270 F   0  0  0  0  0  0  0  0  0  0  0  0
   57.4580   33.2750   46.4670 C   0  0  0  0  0  0  0  0  0  0  0  0
   58.0780   33.0950   47.7070 C   0  0  0  0  0  0  0  0  0  0  0  0
   60.5390   31.4110   48.4260 C   0  0  0  0  0  0  0  0  0  0  0  0
   59.5460   30.4380   48.6030 C   0  0  0  0  0  0  0  0  0  0  0  0
   59.3840   29.4010   47.6750 C   0  0  0  0  0  0  0  0  0  0  0  0
   58.3220   28.3590   47.8950 C   0  0  0  0  0  0  0  0  0  0  0  0
   58.5670   27.1960   47.0390 N   0  0  0  0  0  0  0  0  0  0  0  0
   59.7200   26.4970   46.9910 C   0  0  0  0  0  0  0  0  0  0  0  0
   59.6320   25.5080   46.0330 C   0  0  0  0  0  0  0  0  0  0  0  0
   58.3760   25.6140   45.4660 C   0  0  0  0  0  0  0  0  0  0  0  0
   57.7500   26.6750   46.0940 C   0  0  0  0  0  0  0  0  0  0  0  0
   56.3750   27.1310   45.8200 C   0  0  0  0  0  0  0  0  0  0  0  0
   55.4140   26.3560   46.0650 O   0  0  0  0  0  0  0  0  0  0  0  0
   56.0890   28.4200   45.2630 N   0  0  0  0  0  0  0  0  0  0  0  0
   56.9700   29.1900   43.9820 S   0  0  0  0  0  0  0  0  0  0  0  0
   57.9480   30.5420   44.6010 C   0  0  0  0  0  0  0  0  0  0  0  0
   57.8490   28.1930   43.2810 O   0  0  0  0  0  0  0  0  0  0  0  0
   55.9840   29.7460   42.9930 O   0  0  0  0  0  0  0  0  0  0  0  0
   60.2340   29.3360   46.5640 C   0  0  0  0  0  0  0  0  0  0  0  0
   61.2320   30.2950   46.3820 C   0  0  0  0  0  0  0  0  0  0  0  0
   61.4040   31.3400   47.3080 C   0  0  0  0  0  0  0  0  0  0  0  0
   62.4790   32.3390   47.0910 C   0  0  0  0  0  0  0  0  0  0  0  0
   63.8280   32.0580   47.4680 N   0  0  0  0  0  0  0  0  0  0  0  0
   62.2100   33.4520   46.5660 O   0  0  0  0  0  0  0  0  0  0  0  0
   61.0467   32.3201   51.5027 H   0  0  0  0  0  0  0  0  0  0  0  0
   61.9382   31.1133   50.5151 H   0  0  0  0  0  0  0  0  0  0  0  0
   62.4567   32.8331   50.5151 H   0  0  0  0  0  0  0  0  0  0  0  0
   59.1078   33.6012   50.1379 H   0  0  0  0  0  0  0  0  0  0  0  0
   60.5474   34.5150   49.5518 H   0  0  0  0  0  0  0  0  0  0  0  0
   60.7235   35.2306   47.3070 H   0  0  0  0  0  0  0  0  0  0  0  0
   59.6156   35.5427   45.0938 H   0  0  0  0  0  0  0  0  0  0  0  0
   56.5352   32.7256   46.2290 H   0  0  0  0  0  0  0  0  0  0  0  0
   57.6392   32.4062   48.4439 H   0  0  0  0  0  0  0  0  0  0  0  0
   58.8857   30.4891   49.4813 H   0  0  0  0  0  0  0  0  0  0  0  0
   58.3357   28.0435   48.9487 H   0  0  0  0  0  0  0  0  0  0  0  0
   57.3411   28.7886   47.6434 H   0  0  0  0  0  0  0  0  0  0  0  0
   60.6003   26.6875   47.6225 H   0  0  0  0  0  0  0  0  0  0  0  0
   60.4108   24.7766   45.7711 H   0  0  0  0  0  0  0  0  0  0  0  0
   57.9568   24.9792   44.6714 H   0  0  0  0  0  0  0  0  0  0  0  0
   57.9381   30.5283   45.7009 H   0  0  0  0  0  0  0  0  0  0  0  0
   58.9829   30.4403   44.2424 H   0  0  0  0  0  0  0  0  0  0  0  0
   57.5275   31.4931   44.2424 H   0  0  0  0  0  0  0  0  0  0  0  0
   60.1146   28.5248   45.8307 H   0  0  0  0  0  0  0  0  0  0  0  0
   61.8918   30.2328   45.5040 H   0  0  0  0  0  0  0  0  0  0  0  0
   64.0740   31.2010   48.0100 H   0  0  0  0  0  0  0  0  0  0  0  0
   64.5820   32.7530   47.2680 H   0  0  0  0  0  0  0  0  0  0  0  0
  1  2  1  0
  2  3  1  0
  3  4  1  0
  4  5  2  0
  5  6  1  0
  6  7  2  0
  7  8  1  0
  7  9  1  0
  9 10  2  0
  2 11  1  0
 11 12  2  0
 12 13  1  0
 13 14  1  0
 14 15  1  0
 15 16  1  0
 16 17  2  0
 17 18  1  0
 18 19  2  0
 19 20  1  0
 20 21  2  0
 20 22  1  0
 22 23  1  0
 23 24  1  0
 23 25  2  0
 23 26  2  0
 13 27  2  0
 27 28  1  0
 28 29  2  0
 29 30  1  0
 30 31  1  0
 30 32  2  0
 10  4  1  0
 29 11  1  0
 19 15  1  0
  1 33  1  0
  1 34  1  0
  1 35  1  0
  3 36  1  0
  3 37  1  0
  5 38  1  0
  6 39  1  0
  9 40  1  0
 10 41  1  0
 12 42  1  0
 14 43  1  0
 14 44  1  0
 16 45  1  0
 17 46  1  0
 18 47  1  0
 24 48  1  0
 24 49  1  0
 24 50  1  0
 27 51  1  0
 28 52  1  0
 31 53  1  0
 31 54  1  0
M  CHG  1  22  -1
M  END
>  <UniqueID>  (26) 
21

>  <SMILES>  (26) 
CN(Cc1ccc(F)cc1)c1cc(Cn2cccc2C(=O)[N-]S(C)(=O)=O)ccc1C(N)=O

>  <Energy>  (26) 
84.53936505676533

>  <Genealogy>  (26) 
CN(Cc1ccc(F)cc1)c1cc(Cn2cccc2C(=O)[N-]S(C)(=O)=O)ccc1C(N)=O (protonated)
CN(Cc1ccc(F)cc1)c1cc(Cn2cccc2C(=O)[N-]S(C)(=O)=O)ccc1C(N)=O (3D coordinates assigned)
CN(Cc1ccc(F)cc1)c1cc(Cn2cccc2C(=O)[N-]S(C)(=O)=O)ccc1C(N)=O (optimized conformer: 84.53936505676533 kcal/mol)

>  <smiles>  (26) 
CN(Cc1ccc(F)cc1)c1cc(Cn2cccc2C(=O)NS(C)(=O)=O)ccc1C(N)=O

>  <score_type>  (26) 
oracle

>  <origin>  (26) 
adg

>  <m_score__min__energy>  (26) 
-11.41

>  <m_primary>  (26) 
energy

$$$$
26:0
     RDKit          3D

 38 40  0  0  0  0  0  0  0  0999 V2000
   57.8880   23.5171   44.2230 H   0  0  0  0  0  0  0  0  0  0  0  0
   57.3590   24.4010   44.6090 C   0  0  0  0  0  0  0  0  0  0  0  0
   56.0260   24.2880   44.8090 C   0  0  0  0  0  0  0  0  0  0  0  0
   55.2780   23.1800   44.1580 C   0  0  0  0  0  0  0  0  0  0  0  0
   55.8500   22.3970   43.3530 O   0  0  0  0  0  0  0  0  0  0  0  0
   53.8950   22.9750   44.4540 N   0  0  0  0  0  0  0  0  0  0  0  0
   53.1940   23.8370   45.3470 C   0  0  0  0  0  0  0  0  0  0  0  0
   51.9870   23.6120   45.6200 O   0  0  0  0  0  0  0  0  0  0  0  0
   53.8560   24.9640   45.9190 N   0  0  0  0  0  0  0  0  0  0  0  0
   55.2290   25.2410   45.6340 C   0  0  0  0  0  0  0  0  0  0  0  0
   55.7210   26.3250   46.0460 O   0  0  0  0  0  0  0  0  0  0  0  0
   58.1630   25.6130   44.8660 C   0  0  0  0  0  0  0  0  0  0  0  0
   58.0180   26.7570   44.0640 C   0  0  0  0  0  0  0  0  0  0  0  0
   57.3293   26.7416   43.2064 H   0  0  0  0  0  0  0  0  0  0  0  0
   58.7460   27.9150   44.3520 C   0  0  0  0  0  0  0  0  0  0  0  0
   58.6260   28.8074   43.7202 H   0  0  0  0  0  0  0  0  0  0  0  0
   59.6280   27.9460   45.4410 C   0  0  0  0  0  0  0  0  0  0  0  0
   60.3550   29.1960   45.7490 C   0  0  0  0  0  0  0  0  0  0  0  0
   61.3525   29.3247   45.3036 H   0  0  0  0  0  0  0  0  0  0  0  0
   59.8940   30.1860   46.5290 C   0  0  0  0  0  0  0  0  0  0  0  0
   60.3487   30.3005   47.5241 H   0  0  0  0  0  0  0  0  0  0  0  0
   58.8220   31.1360   46.1560 C   0  0  0  0  0  0  0  0  0  0  0  0
   57.6410   30.7230   45.9940 O   0  0  0  0  0  0  0  0  0  0  0  0
   59.0910   32.5900   46.0910 C   0  0  0  0  0  0  0  0  0  0  0  0
   59.5820   33.2390   47.2370 C   0  0  0  0  0  0  0  0  0  0  0  0
   59.7473   32.6642   48.1602 H   0  0  0  0  0  0  0  0  0  0  0  0
   59.8620   34.6080   47.2140 C   0  0  0  0  0  0  0  0  0  0  0  0
   60.2526   35.1039   48.1148 H   0  0  0  0  0  0  0  0  0  0  0  0
   59.6470   35.3460   46.0510 C   0  0  0  0  0  0  0  0  0  0  0  0
   59.8759   36.4218   46.0324 H   0  0  0  0  0  0  0  0  0  0  0  0
   59.1410   34.7200   44.9090 C   0  0  0  0  0  0  0  0  0  0  0  0
   58.9652   35.3083   43.9963 H   0  0  0  0  0  0  0  0  0  0  0  0
   58.8560   33.3490   44.9180 C   0  0  0  0  0  0  0  0  0  0  0  0
   58.1300   32.6510   43.4740 Cl  0  0  0  0  0  0  0  0  0  0  0  0
   59.7240   26.8200   46.2780 C   0  0  0  0  0  0  0  0  0  0  0  0
   60.3763   26.8507   47.1632 H   0  0  0  0  0  0  0  0  0  0  0  0
   58.9960   25.6630   45.9920 C   0  0  0  0  0  0  0  0  0  0  0  0
   59.0767   24.7875   46.6531 H   0  0  0  0  0  0  0  0  0  0  0  0
  1  2  1  0
  2  3  2  3
  3  4  1  0
  4  5  2  0
  4  6  1  0
  6  7  1  0
  7  8  2  0
  7  9  1  0
  9 10  1  0
 10 11  2  0
  2 12  1  0
 12 13  2  0
 13 14  1  0
 13 15  1  0
 15 16  1  0
 15 17  2  0
 17 18  1  0
 18 19  1  0
 18 20  2  0
 20 21  1  0
 20 22  1  0
 22 23  2  0
 22 24  1  0
 24 25  2  0
 25 26  1  0
 25 27  1  0
 27 28  1  0
 27 29  2  0
 29 30  1  0
 29 31  1  0
 31 32  1  0
 31 33  2  0
 33 34  1  0
 17 35  1  0
 35 36  1  0
 35 37  2  0
 37 38  1  0
 10  3  1  0
 37 12  1  0
 33 24  1  0
M  CHG  2   6  -1   9  -1
M  END
>  <UniqueID>  (27) 
22

>  <SMILES>  (27) 
O=C1[N-]C(=O)C(=Cc2ccc(/C=C\C(=O)c3ccccc3Cl)cc2)C(=O)[N-]1

>  <Energy>  (27) 
62.590747093054716

>  <Genealogy>  (27) 
O=C1[N-]C(=O)C(=Cc2ccc(C=CC(=O)c3ccccc3Cl)cc2)C(=O)[N-]1 (protonated)
O=C1[N-]C(=O)C(=Cc2ccc(/C=C\C(=O)c3ccccc3Cl)cc2)C(=O)[N-]1 (cis-trans isomerization)
O=C1[N-]C(=O)C(=Cc2ccc(/C=C\C(=O)c3ccccc3Cl)cc2)C(=O)[N-]1 (3D coordinates assigned)
O=C1[N-]C(=O)C(=Cc2ccc(/C=C\C(=O)c3ccccc3Cl)cc2)C(=O)[N-]1 (nonaromatic ring conformer: 62.590747093054716 kcal/mol)

>  <smiles>  (27) 
O=C1NC(=O)C(=Cc2ccc(C=CC(=O)c3ccccc3Cl)cc2)C(=O)N1

>  <score_type>  (27) 
oracle

>  <origin>  (27) 
adg

>  <m_score__min__energy>  (27) 
-13.359999999999999

>  <m_primary>  (27) 
energy

$$$$
27:0
     RDKit          3D

 28 29  0  0  0  0  0  0  0  0999 V2000
   57.9220   32.4760   43.1890 O   0  0  0  0  0  0  0  0  0  0  0  0
   57.5880   32.4450   44.4040 C   0  0  0  0  0  0  0  0  0  0  0  0
   56.5280   31.5830   44.8270 N   0  0  0  0  0  0  0  0  0  0  0  0
   56.4080   29.9330   44.3190 S   0  0  0  0  0  0  0  0  0  0  0  0
   56.3920   29.8620   42.8180 O   0  0  0  0  0  0  0  0  0  0  0  0
   55.1420   29.3410   44.8730 O   0  0  0  0  0  0  0  0  0  0  0  0
   57.7940   29.0330   44.9260 C   0  0  0  0  0  0  0  0  0  0  0  0
   57.6090   27.9860   45.8410 C   0  0  0  0  0  0  0  0  0  0  0  0
   58.7100   27.2770   46.3290 C   0  0  0  0  0  0  0  0  0  0  0  0
   60.0010   27.6120   45.9100 C   0  0  0  0  0  0  0  0  0  0  0  0
   60.1910   28.6600   45.0040 C   0  0  0  0  0  0  0  0  0  0  0  0
   59.0910   29.3710   44.5130 C   0  0  0  0  0  0  0  0  0  0  0  0
   58.2910   33.2990   45.3900 C   0  0  0  0  0  0  0  0  0  0  0  0
   58.2620   32.9810   46.7620 C   0  0  0  0  0  0  0  0  0  0  0  0
   58.9250   33.7880   47.6910 C   0  0  0  0  0  0  0  0  0  0  0  0
   59.6230   34.9200   47.2640 C   0  0  0  0  0  0  0  0  0  0  0  0
   59.6600   35.2470   45.9080 C   0  0  0  0  0  0  0  0  0  0  0  0
   58.9980   34.4440   44.9730 C   0  0  0  0  0  0  0  0  0  0  0  0
   56.5947   27.7224   46.1753 H   0  0  0  0  0  0  0  0  0  0  0  0
   58.5606   26.4543   47.0437 H   0  0  0  0  0  0  0  0  0  0  0  0
   60.8667   27.0516   46.2928 H   0  0  0  0  0  0  0  0  0  0  0  0
   61.2071   28.9257   44.6769 H   0  0  0  0  0  0  0  0  0  0  0  0
   59.2434   30.1964   43.8020 H   0  0  0  0  0  0  0  0  0  0  0  0
   57.7136   32.0912   47.1048 H   0  0  0  0  0  0  0  0  0  0  0  0
   58.8970   33.5311   48.7602 H   0  0  0  0  0  0  0  0  0  0  0  0
   60.1437   35.5539   47.9969 H   0  0  0  0  0  0  0  0  0  0  0  0
   60.2110   36.1383   45.5734 H   0  0  0  0  0  0  0  0  0  0  0  0
   59.0297   34.7083   43.9057 H   0  0  0  0  0  0  0  0  0  0  0  0
  1  2  2  0
  2  3  1  0
  3  4  1  0
  4  5  2  0
  4  6  2  0
  4  7  1  0
  7  8  2  0
  8  9  1  0
  9 10  2  0
 10 11  1  0
 11 12  2  0
  2 13  1  0
 13 14  2  0
 14 15  1  0
 15 16  2  0
 16 17  1  0
 17 18  2  0
 12  7  1  0
 18 13  1  0
  8 19  1  0
  9 20  1  0
 10 21  1  0
 11 22  1  0
 12 23  1  0
 14 24  1  0
 15 25  1  0
 16 26  1  0
 17 27  1  0
 18 28  1  0
M  CHG  1   3  -1
M  END
>  <UniqueID>  (28) 
23

>  <SMILES>  (28) 
O=C([N-]S(=O)(=O)c1ccccc1)c1ccccc1

>  <Energy>  (28) 
32.02087029882383

>  <Genealogy>  (28) 
O=C([N-]S(=O)(=O)c1ccccc1)c1ccccc1 (protonated)
O=C([N-]S(=O)(=O)c1ccccc1)c1ccccc1 (3D coordinates assigned)
O=C([N-]S(=O)(=O)c1ccccc1)c1ccccc1 (optimized conformer: 32.02087029882383 kcal/mol)

>  <smiles>  (28) 
O=C(NS(=O)(=O)c1ccccc1)c1ccccc1

>  <score_type>  (28) 
oracle

>  <origin>  (28) 
adg

>  <m_score__min__energy>  (28) 
-9.25

>  <m_primary>  (28) 
energy

$$$$
28:0
     RDKit          3D

 50 52  0  0  0  0  0  0  0  0999 V2000
   56.4910   30.0210   43.9230 C   0  0  0  0  0  0  0  0  0  0  0  0
   56.9230   30.0910   45.3170 N   0  0  0  0  0  0  0  0  0  0  0  0
   57.7150   31.6090   45.6110 S   0  0  0  0  0  0  0  0  0  0  0  0
   56.7150   32.7230   45.4710 O   0  0  0  0  0  0  0  0  0  0  0  0
   58.8040   31.8190   44.5960 O   0  0  0  0  0  0  0  0  0  0  0  0
   58.3880   31.6480   47.2390 C   0  0  0  0  0  0  0  0  0  0  0  0
   59.1560   30.5760   47.7180 C   0  0  0  0  0  0  0  0  0  0  0  0
   59.6670   30.6040   49.0190 C   0  0  0  0  0  0  0  0  0  0  0  0
   59.4190   31.7030   49.8540 C   0  0  0  0  0  0  0  0  0  0  0  0
   59.9460   31.7100   51.2670 C   0  0  0  0  0  0  0  0  0  0  0  0
   58.9570   31.1340   52.2040 N   0  0  0  0  0  0  0  0  0  0  0  0
   58.3640   29.8830   51.6630 C   0  0  0  0  0  0  0  0  0  0  0  0
   57.0250   29.5400   52.3210 C   0  0  0  0  0  0  0  0  0  0  0  0
   56.0740   30.6440   52.1360 N   0  0  0  0  0  0  0  0  0  0  0  0
   54.6510   30.3970   52.1320 C   0  0  0  0  0  0  0  0  0  0  0  0
   54.1400   29.1520   52.5390 C   0  0  0  0  0  0  0  0  0  0  0  0
   52.7650   28.9160   52.5350 C   0  0  0  0  0  0  0  0  0  0  0  0
   51.8800   29.9140   52.1280 C   0  0  0  0  0  0  0  0  0  0  0  0
   52.3630   31.1680   51.7150 C   0  0  0  0  0  0  0  0  0  0  0  0
   51.4260   32.2300   51.2780 C   0  0  0  0  0  0  0  0  0  0  0  0
   50.9980   32.3060   49.9190 N   0  0  0  0  0  0  0  0  0  0  0  0
   50.9960   33.0800   52.1050 O   0  0  0  0  0  0  0  0  0  0  0  0
   53.7510   31.3990   51.7210 C   0  0  0  0  0  0  0  0  0  0  0  0
   56.6000   31.9990   51.9320 C   0  0  0  0  0  0  0  0  0  0  0  0
   57.9580   32.1490   52.6320 C   0  0  0  0  0  0  0  0  0  0  0  0
   58.6420   32.7700   49.3760 C   0  0  0  0  0  0  0  0  0  0  0  0
   58.1310   32.7410   48.0750 C   0  0  0  0  0  0  0  0  0  0  0  0
   55.4059   29.8452   43.8838 H   0  0  0  0  0  0  0  0  0  0  0  0
   56.7273   30.9691   43.4178 H   0  0  0  0  0  0  0  0  0  0  0  0
   57.0146   29.1960   43.4178 H   0  0  0  0  0  0  0  0  0  0  0  0
   57.6340   29.3380   45.4690 H   0  0  0  0  0  0  0  0  0  0  0  0
   59.3566   29.7113   47.0683 H   0  0  0  0  0  0  0  0  0  0  0  0
   60.2667   29.7596   49.3896 H   0  0  0  0  0  0  0  0  0  0  0  0
   60.8704   31.1153   51.3092 H   0  0  0  0  0  0  0  0  0  0  0  0
   60.1439   32.7510   51.5623 H   0  0  0  0  0  0  0  0  0  0  0  0
   58.2049   30.0063   50.5816 H   0  0  0  0  0  0  0  0  0  0  0  0
   59.0630   29.0608   51.8763 H   0  0  0  0  0  0  0  0  0  0  0  0
   56.6170   28.6276   51.8616 H   0  0  0  0  0  0  0  0  0  0  0  0
   57.1839   29.3783   53.3974 H   0  0  0  0  0  0  0  0  0  0  0  0
   54.8293   28.3583   52.8629 H   0  0  0  0  0  0  0  0  0  0  0  0
   52.3769   27.9376   52.8545 H   0  0  0  0  0  0  0  0  0  0  0  0
   50.7975   29.7188   52.1301 H   0  0  0  0  0  0  0  0  0  0  0  0
   49.9830   32.3380   49.6760 H   0  0  0  0  0  0  0  0  0  0  0  0
   54.1388   32.3770   51.3998 H   0  0  0  0  0  0  0  0  0  0  0  0
   56.7239   32.1827   50.8546 H   0  0  0  0  0  0  0  0  0  0  0  0
   55.8936   32.7271   52.3572 H   0  0  0  0  0  0  0  0  0  0  0  0
   58.3580   33.1487   52.4070 H   0  0  0  0  0  0  0  0  0  0  0  0
   57.7868   32.0030   53.7087 H   0  0  0  0  0  0  0  0  0  0  0  0
   58.4345   33.6318   50.0273 H   0  0  0  0  0  0  0  0  0  0  0  0
   57.5241   33.5811   47.7065 H   0  0  0  0  0  0  0  0  0  0  0  0
  1  2  1  0
  2  3  1  0
  3  4  2  0
  3  5  2  0
  3  6  1  0
  6  7  2  0
  7  8  1  0
  8  9  2  0
  9 10  1  0
 10 11  1  0
 11 12  1  0
 12 13  1  0
 13 14  1  0
 14 15  1  0
 15 16  2  0
 16 17  1  0
 17 18  2  0
 18 19  1  0
 19 20  1  0
 20 21  1  0
 20 22  2  0
 19 23  2  0
 14 24  1  0
 24 25  1  0
  9 26  1  0
 26 27  2  0
 27  6  1  0
 25 11  1  0
 23 15  1  0
  1 28  1  0
  1 29  1  0
  1 30  1  0
  2 31  1  0
  7 32  1  0
  8 33  1  0
 10 34  1  0
 10 35  1  0
 12 36  1  0
 12 37  1  0
 13 38  1  0
 13 39  1  0
 16 40  1  0
 17 41  1  0
 18 42  1  0
 21 43  1  0
 23 44  1  0
 24 45  1  0
 24 46  1  0
 25 47  1  0
 25 48  1  0
 26 49  1  0
 27 50  1  0
M  CHG  1  21  -1
M  END
>  <UniqueID>  (29) 
24

>  <SMILES>  (29) 
CNS(=O)(=O)c1ccc(CN2CCN(c3cccc(C([NH-])=O)c3)CC2)cc1

>  <Energy>  (29) 
58.97568596755342

>  <Genealogy>  (29) 
CNS(=O)(=O)c1ccc(CN2CCN(c3cccc(C([NH-])=O)c3)CC2)cc1 (protonated)
CNS(=O)(=O)c1ccc(CN2CCN(c3cccc(C([NH-])=O)c3)CC2)cc1 (3D coordinates assigned)
CNS(=O)(=O)c1ccc(CN2CCN(c3cccc(C([NH-])=O)c3)CC2)cc1 (nonaromatic ring conformer: 58.97568596755342 kcal/mol)

>  <smiles>  (29) 
CNS(=O)(=O)c1ccc(CN2CCN(c3cccc(C(N)=O)c3)CC2)cc1

>  <score_type>  (29) 
oracle

>  <origin>  (29) 
adg

>  <m_score__min__energy>  (29) 
-12.23

>  <m_primary>  (29) 
energy

$$$$
29:0
     RDKit          3D

 32 33  0  0  0  0  0  0  0  0999 V2000
   59.6100   34.5370   48.5030 N   0  0  0  0  0  0  0  0  0  0  0  0
   60.0770   34.2380   46.8660 S   0  0  0  0  0  0  0  0  0  0  0  0
   59.4730   35.2840   45.9720 O   0  0  0  0  0  0  0  0  0  0  0  0
   61.5740   34.3090   46.7490 O   0  0  0  0  0  0  0  0  0  0  0  0
   59.5140   32.6420   46.3810 C   0  0  0  0  0  0  0  0  0  0  0  0
   58.3750   32.5100   45.5760 C   0  0  0  0  0  0  0  0  0  0  0  0
   57.9330   31.2430   45.1830 C   0  0  0  0  0  0  0  0  0  0  0  0
   58.6390   30.0920   45.5780 C   0  0  0  0  0  0  0  0  0  0  0  0
   58.2060   28.7720   45.2200 N   0  0  0  0  0  0  0  0  0  0  0  0
   57.0140   28.1160   45.6700 C   0  0  0  0  0  0  0  0  0  0  0  0
   55.8840   28.4520   45.2250 O   0  0  0  0  0  0  0  0  0  0  0  0
   57.1140   27.0130   46.6750 C   0  0  0  0  0  0  0  0  0  0  0  0
   56.7420   25.7010   46.0350 C   0  0  0  0  0  0  0  0  0  0  0  0
   57.7490   24.7750   45.7140 C   0  0  0  0  0  0  0  0  0  0  0  0
   57.4260   23.5670   45.0880 C   0  0  0  0  0  0  0  0  0  0  0  0
   58.6910   22.4170   44.6970 Cl  0  0  0  0  0  0  0  0  0  0  0  0
   56.0970   23.2800   44.7660 C   0  0  0  0  0  0  0  0  0  0  0  0
   55.0870   24.1980   45.0680 C   0  0  0  0  0  0  0  0  0  0  0  0
   53.4240   23.8200   44.6450 Cl  0  0  0  0  0  0  0  0  0  0  0  0
   55.4050   25.4110   45.6970 C   0  0  0  0  0  0  0  0  0  0  0  0
   54.3940   26.3260   45.9800 O   0  0  0  0  0  0  0  0  0  0  0  0
   59.7670   30.2300   46.3980 C   0  0  0  0  0  0  0  0  0  0  0  0
   60.2090   31.4960   46.7890 C   0  0  0  0  0  0  0  0  0  0  0  0
   58.9990   33.7430   48.7960 H   0  0  0  0  0  0  0  0  0  0  0  0
   57.8263   33.4066   45.2519 H   0  0  0  0  0  0  0  0  0  0  0  0
   57.0298   31.1458   44.5626 H   0  0  0  0  0  0  0  0  0  0  0  0
   58.1458   26.9554   47.0519 H   0  0  0  0  0  0  0  0  0  0  0  0
   56.4250   27.2181   47.5076 H   0  0  0  0  0  0  0  0  0  0  0  0
   58.7977   25.0017   45.9566 H   0  0  0  0  0  0  0  0  0  0  0  0
   55.8449   22.3292   44.2736 H   0  0  0  0  0  0  0  0  0  0  0  0
   60.3086   29.3343   46.7364 H   0  0  0  0  0  0  0  0  0  0  0  0
   61.1054   31.5935   47.4191 H   0  0  0  0  0  0  0  0  0  0  0  0
  1  2  1  0
  2  3  2  0
  2  4  2  0
  2  5  1  0
  5  6  2  0
  6  7  1  0
  7  8  2  0
  8  9  1  0
  9 10  1  0
 10 11  2  0
 10 12  1  0
 12 13  1  0
 13 14  2  0
 14 15  1  0
 15 16  1  0
 15 17  2  0
 17 18  1  0
 18 19  1  0
 18 20  2  0
 20 21  1  0
  8 22  1  0
 22 23  2  0
 23  5  1  0
 20 13  1  0
  1 24  1  0
  6 25  1  0
  7 26  1  0
 12 27  1  0
 12 28  1  0
 14 29  1  0
 17 30  1  0
 22 31  1  0
 23 32  1  0
M  CHG  3   1  -1   9  -1  21  -1
M  END
>  <UniqueID>  (30) 
25

>  <SMILES>  (30) 
[NH-]S(=O)(=O)c1ccc([N-]C(=O)Cc2cc(Cl)cc(Cl)c2[O-])cc1

>  <Energy>  (30) 
34.885172577790804

>  <Genealogy>  (30) 
[NH-]S(=O)(=O)c1ccc([N-]C(=O)Cc2cc(Cl)cc(Cl)c2[O-])cc1 (protonated)
[NH-]S(=O)(=O)c1ccc([N-]C(=O)Cc2cc(Cl)cc(Cl)c2[O-])cc1 (3D coordinates assigned)
[NH-]S(=O)(=O)c1ccc([N-]C(=O)Cc2cc(Cl)cc(Cl)c2[O-])cc1 (optimized conformer: 34.885172577790804 kcal/mol)

>  <smiles>  (30) 
NS(=O)(=O)c1ccc(NC(=O)Cc2cc(Cl)cc(Cl)c2O)cc1

>  <score_type>  (30) 
oracle

>  <origin>  (30) 
adg

>  <m_score__min__energy>  (30) 
-13.16

>  <m_primary>  (30) 
energy

$$$$
30:0
     RDKit          3D

 53 55  0  0  0  0  0  0  0  0999 V2000
   61.4320   29.4780   50.2950 C   0  0  0  0  0  0  0  0  0  0  0  0
   61.7710   30.6490   49.5590 O   0  0  0  0  0  0  0  0  0  0  0  0
   62.9710   31.3670   49.7010 C   0  0  0  0  0  0  0  0  0  0  0  0
   63.9040   31.0470   50.7090 C   0  0  0  0  0  0  0  0  0  0  0  0
   65.1150   31.7380   50.8000 C   0  0  0  0  0  0  0  0  0  0  0  0
   65.4130   32.7510   49.8900 C   0  0  0  0  0  0  0  0  0  0  0  0
   64.4940   33.0880   48.8950 C   0  0  0  0  0  0  0  0  0  0  0  0
   63.2620   32.4150   48.7980 C   0  0  0  0  0  0  0  0  0  0  0  0
   62.3070   32.8150   47.7380 C   0  0  0  0  0  0  0  0  0  0  0  0
   62.6410   33.7110   46.9120 O   0  0  0  0  0  0  0  0  0  0  0  0
   60.9980   32.2330   47.6660 N   0  0  0  0  0  0  0  0  0  0  0  0
   60.1270   32.4600   46.5130 C   0  0  0  0  0  0  0  0  0  0  0  0
   58.6620   32.2540   46.8920 C   0  0  0  0  0  0  0  0  0  0  0  0
   58.1810   30.5020   46.6990 S   0  0  0  0  0  0  0  0  0  0  0  0
   57.6740   30.6570   44.9780 C   0  0  0  0  0  0  0  0  0  0  0  0
   57.7180   31.9220   44.3780 C   0  0  0  0  0  0  0  0  0  0  0  0
   57.3840   32.0760   43.0300 C   0  0  0  0  0  0  0  0  0  0  0  0
   57.0130   30.9650   42.2700 C   0  0  0  0  0  0  0  0  0  0  0  0
   56.9540   29.7010   42.8620 C   0  0  0  0  0  0  0  0  0  0  0  0
   57.2510   29.5380   44.2230 C   0  0  0  0  0  0  0  0  0  0  0  0
   57.1110   28.2370   44.8130 N   0  0  0  0  0  0  0  0  0  0  0  0
   58.2080   27.5040   45.4030 C   0  0  0  0  0  0  0  0  0  0  0  0
   59.5040   28.0620   45.4250 C   0  0  0  0  0  0  0  0  0  0  0  0
   60.5660   27.3770   46.0160 C   0  0  0  0  0  0  0  0  0  0  0  0
   60.3540   26.1340   46.6070 C   0  0  0  0  0  0  0  0  0  0  0  0
   59.0790   25.5710   46.6100 C   0  0  0  0  0  0  0  0  0  0  0  0
   57.9970   26.2410   46.0150 C   0  0  0  0  0  0  0  0  0  0  0  0
   56.4000   25.4810   46.0640 S   0  0  0  0  0  0  0  0  0  0  0  0
   55.1810   26.7080   46.0560 N   0  0  0  0  0  0  0  0  0  0  0  0
   56.2240   24.5810   44.8750 O   0  0  0  0  0  0  0  0  0  0  0  0
   56.2520   24.6570   47.3130 O   0  0  0  0  0  0  0  0  0  0  0  0
   61.4938   29.6914   51.3723 H   0  0  0  0  0  0  0  0  0  0  0  0
   60.4075   29.1688   50.0406 H   0  0  0  0  0  0  0  0  0  0  0  0
   62.1329   28.6693   50.0406 H   0  0  0  0  0  0  0  0  0  0  0  0
   63.6766   30.2472   51.4292 H   0  0  0  0  0  0  0  0  0  0  0  0
   65.8348   31.4821   51.5915 H   0  0  0  0  0  0  0  0  0  0  0  0
   66.3725   33.2848   49.9561 H   0  0  0  0  0  0  0  0  0  0  0  0
   64.7353   33.8878   48.1794 H   0  0  0  0  0  0  0  0  0  0  0  0
   60.6500   31.6640   48.4700 H   0  0  0  0  0  0  0  0  0  0  0  0
   60.2652   33.4905   46.1538 H   0  0  0  0  0  0  0  0  0  0  0  0
   60.3918   31.7410   45.7238 H   0  0  0  0  0  0  0  0  0  0  0  0
   58.5150   32.5549   47.9398 H   0  0  0  0  0  0  0  0  0  0  0  0
   58.0364   32.8664   46.2260 H   0  0  0  0  0  0  0  0  0  0  0  0
   58.0171   32.7988   44.9712 H   0  0  0  0  0  0  0  0  0  0  0  0
   57.4134   33.0734   42.5671 H   0  0  0  0  0  0  0  0  0  0  0  0
   56.7671   31.0851   41.2046 H   0  0  0  0  0  0  0  0  0  0  0  0
   56.6725   28.8271   42.2562 H   0  0  0  0  0  0  0  0  0  0  0  0
   56.1360   27.9240   45.0110 H   0  0  0  0  0  0  0  0  0  0  0  0
   59.6789   29.0485   44.9709 H   0  0  0  0  0  0  0  0  0  0  0  0
   61.5730   27.8197   46.0151 H   0  0  0  0  0  0  0  0  0  0  0  0
   61.1934   25.5961   47.0718 H   0  0  0  0  0  0  0  0  0  0  0  0
   58.9182   24.5912   47.0835 H   0  0  0  0  0  0  0  0  0  0  0  0
   55.1440   27.0960   45.0870 H   0  0  0  0  0  0  0  0  0  0  0  0
  1  2  1  0
  2  3  1  0
  3  4  2  0
  4  5  1  0
  5  6  2  0
  6  7  1  0
  7  8  2  0
  8  9  1  0
  9 10  2  0
  9 11  1  0
 11 12  1  0
 12 13  1  0
 13 14  1  0
 14 15  1  0
 15 16  2  0
 16 17  1  0
 17 18  2  0
 18 19  1  0
 19 20  2  0
 20 21  1  0
 21 22  1  0
 22 23  2  0
 23 24  1  0
 24 25  2  0
 25 26  1  0
 26 27  2  0
 27 28  1  0
 28 29  1  0
 28 30  2  0
 28 31  2  0
  8  3  1  0
 20 15  1  0
 27 22  1  0
  1 32  1  0
  1 33  1  0
  1 34  1  0
  4 35  1  0
  5 36  1  0
  6 37  1  0
  7 38  1  0
 11 39  1  0
 12 40  1  0
 12 41  1  0
 13 42  1  0
 13 43  1  0
 16 44  1  0
 17 45  1  0
 18 46  1  0
 19 47  1  0
 21 48  1  0
 23 49  1  0
 24 50  1  0
 25 51  1  0
 26 52  1  0
 29 53  1  0
M  CHG  1  29  -1
M  END
>  <UniqueID>  (31) 
26

>  <SMILES>  (31) 
COc1ccccc1C(=O)NCCSc1ccccc1Nc1ccccc1S([NH-])(=O)=O

>  <Energy>  (31) 
59.76912954193054

>  <Genealogy>  (31) 
COc1ccccc1C(=O)NCCSc1ccccc1Nc1ccccc1S([NH-])(=O)=O (protonated)
COc1ccccc1C(=O)NCCSc1ccccc1Nc1ccccc1S([NH-])(=O)=O (3D coordinates assigned)
COc1ccccc1C(=O)NCCSc1ccccc1Nc1ccccc1S([NH-])(=O)=O (optimized conformer: 59.76912954193054 kcal/mol)

>  <smiles>  (31) 
COc1ccccc1C(=O)NCCSc1ccccc1Nc1ccccc1S(N)(=O)=O

>  <score_type>  (31) 
oracle

>  <origin>  (31) 
adg

>  <m_score__min__energy>  (31) 
-11.619999999999999

>  <m_primary>  (31) 
energy

$$$$
31:0
     RDKit          3D

 41 44  0  0  0  0  0  0  0  0999 V2000
   55.6500   24.7735   44.0372 H   0  0  0  0  0  0  0  0  0  0  0  0
   56.3000   23.8910   44.1300 C   0  0  0  0  0  0  0  0  0  0  0  0
   55.8830   22.6910   43.6460 N   0  0  0  0  0  0  0  0  0  0  0  0
   56.6550   21.5710   43.7350 C   0  0  0  0  0  0  0  0  0  0  0  0
   56.2040   20.3490   43.2270 O   0  0  0  0  0  0  0  0  0  0  0  0
   55.8430   19.2540   44.0600 C   0  0  0  0  0  0  0  0  0  0  0  0
   55.9401   19.5485   45.1154 H   0  0  0  0  0  0  0  0  0  0  0  0
   54.8019   18.9645   43.8544 H   0  0  0  0  0  0  0  0  0  0  0  0
   56.5078   18.4021   43.8544 H   0  0  0  0  0  0  0  0  0  0  0  0
   57.9100   21.6430   44.3390 C   0  0  0  0  0  0  0  0  0  0  0  0
   58.5402   20.7446   44.4154 H   0  0  0  0  0  0  0  0  0  0  0  0
   58.3610   22.8630   44.8460 C   0  0  0  0  0  0  0  0  0  0  0  0
   59.3498   22.9261   45.3238 H   0  0  0  0  0  0  0  0  0  0  0  0
   57.5560   24.0110   44.7480 C   0  0  0  0  0  0  0  0  0  0  0  0
   58.0220   25.3160   45.2820 C   0  0  0  0  0  0  0  0  0  0  0  0
   59.2520   25.4120   45.9550 C   0  0  0  0  0  0  0  0  0  0  0  0
   59.8731   24.5136   46.0859 H   0  0  0  0  0  0  0  0  0  0  0  0
   59.6930   26.6370   46.4590 C   0  0  0  0  0  0  0  0  0  0  0  0
   60.6595   26.6965   46.9808 H   0  0  0  0  0  0  0  0  0  0  0  0
   58.9130   27.7920   46.3050 C   0  0  0  0  0  0  0  0  0  0  0  0
   57.6770   27.7100   45.6270 C   0  0  0  0  0  0  0  0  0  0  0  0
   57.2380   26.4740   45.1200 C   0  0  0  0  0  0  0  0  0  0  0  0
   56.2746   26.4115   44.5928 H   0  0  0  0  0  0  0  0  0  0  0  0
   56.9310   28.8880   45.4750 C   0  0  0  0  0  0  0  0  0  0  0  0
   55.8260   28.8840   44.8690 O   0  0  0  0  0  0  0  0  0  0  0  0
   57.4020   30.0530   45.9860 N   0  0  0  0  0  0  0  0  0  0  0  0
   58.5830   30.1200   46.6550 C   0  0  0  0  0  0  0  0  0  0  0  0
   58.9720   31.2770   47.1120 N   0  0  0  0  0  0  0  0  0  0  0  0
   58.9200   32.5430   46.4360 C   0  0  0  0  0  0  0  0  0  0  0  0
   57.8650   32.8540   45.5590 C   0  0  0  0  0  0  0  0  0  0  0  0
   57.0405   32.1396   45.4181 H   0  0  0  0  0  0  0  0  0  0  0  0
   57.8610   34.0680   44.8660 C   0  0  0  0  0  0  0  0  0  0  0  0
   57.0246   34.3154   44.1957 H   0  0  0  0  0  0  0  0  0  0  0  0
   58.9190   34.9680   45.0240 C   0  0  0  0  0  0  0  0  0  0  0  0
   58.9114   35.9268   44.4850 H   0  0  0  0  0  0  0  0  0  0  0  0
   59.9870   34.6480   45.8680 C   0  0  0  0  0  0  0  0  0  0  0  0
   60.8235   35.3525   45.9857 H   0  0  0  0  0  0  0  0  0  0  0  0
   59.9940   33.4340   46.5630 C   0  0  0  0  0  0  0  0  0  0  0  0
   61.0420   33.1300   47.3700 F   0  0  0  0  0  0  0  0  0  0  0  0
   59.3430   28.9890   46.7950 N   0  0  0  0  0  0  0  0  0  0  0  0
   60.2820   29.0320   47.2480 H   0  0  0  0  0  0  0  0  0  0  0  0
  1  2  1  0
  2  3  2  0
  3  4  1  0
  4  5  1  0
  5  6  1  0
  6  7  1  0
  6  8  1  0
  6  9  1  0
  4 10  2  0
 10 11  1  0
 10 12  1  0
 12 13  1  0
 12 14  2  0
 14 15  1  0
 15 16  2  0
 16 17  1  0
 16 18  1  0
 18 19  1  0
 18 20  2  0
 20 21  1  0
 21 22  2  0
 22 23  1  0
 21 24  1  0
 24 25  2  0
 24 26  1  0
 26 27  1  0
 27 28  2  0
 28 29  1  0
 29 30  2  0
 30 31  1  0
 30 32  1  0
 32 33  1  0
 32 34  2  0
 34 35  1  0
 34 36  1  0
 36 37  1  0
 36 38  2  0
 38 39  1  0
 27 40  1  0
 40 41  1  0
 14  2  1  0
 22 15  1  0
 38 29  1  0
 40 20  1  0
M  CHG  1  26  -1
M  END
>  <UniqueID>  (32) 
27

>  <SMILES>  (32) 
COc1ccc(-c2ccc3[nH]/c(=N\c4ccccc4F)[n-]c(=O)c3c2)cn1

>  <Energy>  (32) 
63.82125059860465

>  <Genealogy>  (32) 
COc1ccc(-c2ccc3[nH]c(=Nc4ccccc4F)[n-]c(=O)c3c2)cn1 (protonated)
COc1ccc(-c2ccc3[nH]/c(=N\c4ccccc4F)[n-]c(=O)c3c2)cn1 (cis-trans isomerization)
COc1ccc(-c2ccc3[nH]/c(=N\c4ccccc4F)[n-]c(=O)c3c2)cn1 (3D coordinates assigned)
COc1ccc(-c2ccc3[nH]/c(=N\c4ccccc4F)[n-]c(=O)c3c2)cn1 (optimized conformer: 63.82125059860465 kcal/mol)

>  <smiles>  (32) 
COc1ccc(-c2ccc3[nH]c(=Nc4ccccc4F)[nH]c(=O)c3c2)cn1

>  <score_type>  (32) 
oracle

>  <origin>  (32) 
adg

>  <m_score__min__energy>  (32) 
-9.5700000000000003

>  <m_primary>  (32) 
energy

$$$$
32:0
     RDKit          3D

 37 38  0  0  0  0  0  0  0  0999 V2000
   64.4490   33.1480   48.7810 C   0  0  0  0  0  0  0  0  0  0  0  0
   63.1800   33.1650   47.5320 S   0  0  0  0  0  0  0  0  0  0  0  0
   62.8130   31.7640   47.1340 O   0  0  0  0  0  0  0  0  0  0  0  0
   63.7090   33.8860   46.3240 O   0  0  0  0  0  0  0  0  0  0  0  0
   61.7770   34.0070   48.1150 N   0  0  0  0  0  0  0  0  0  0  0  0
   60.4190   33.5900   47.8870 C   0  0  0  0  0  0  0  0  0  0  0  0
   59.6170   33.0570   48.9130 C   0  0  0  0  0  0  0  0  0  0  0  0
   58.3010   32.6680   48.6510 C   0  0  0  0  0  0  0  0  0  0  0  0
   57.7730   32.7920   47.3650 C   0  0  0  0  0  0  0  0  0  0  0  0
   58.5610   33.3000   46.3210 C   0  0  0  0  0  0  0  0  0  0  0  0
   57.9960   33.4230   44.9560 C   0  0  0  0  0  0  0  0  0  0  0  0
   57.6890   34.5610   44.5150 O   0  0  0  0  0  0  0  0  0  0  0  0
   57.8320   32.2860   44.0950 N   0  0  0  0  0  0  0  0  0  0  0  0
   57.5610   30.9400   44.5110 C   0  0  0  0  0  0  0  0  0  0  0  0
   56.2640   30.3980   44.4600 C   0  0  0  0  0  0  0  0  0  0  0  0
   56.0360   29.0810   44.8710 C   0  0  0  0  0  0  0  0  0  0  0  0
   57.1000   28.2860   45.3150 C   0  0  0  0  0  0  0  0  0  0  0  0
   56.8090   26.6340   45.8510 S   0  0  0  0  0  0  0  0  0  0  0  0
   55.1080   26.3610   45.9760 N   0  0  0  0  0  0  0  0  0  0  0  0
   57.3990   25.6680   44.8620 O   0  0  0  0  0  0  0  0  0  0  0  0
   57.4550   26.4100   47.1890 O   0  0  0  0  0  0  0  0  0  0  0  0
   58.3950   28.8190   45.3470 C   0  0  0  0  0  0  0  0  0  0  0  0
   58.6240   30.1360   44.9380 C   0  0  0  0  0  0  0  0  0  0  0  0
   59.8780   33.7110   46.5960 C   0  0  0  0  0  0  0  0  0  0  0  0
   63.9829   33.1542   49.7774 H   0  0  0  0  0  0  0  0  0  0  0  0
   65.0620   32.2416   48.6686 H   0  0  0  0  0  0  0  0  0  0  0  0
   65.0860   34.0377   48.6686 H   0  0  0  0  0  0  0  0  0  0  0  0
   61.9520   34.8480   48.7100 H   0  0  0  0  0  0  0  0  0  0  0  0
   60.0285   32.9460   49.9271 H   0  0  0  0  0  0  0  0  0  0  0  0
   57.6782   32.2622   49.4618 H   0  0  0  0  0  0  0  0  0  0  0  0
   56.7336   32.4899   47.1688 H   0  0  0  0  0  0  0  0  0  0  0  0
   55.4269   31.0117   44.0959 H   0  0  0  0  0  0  0  0  0  0  0  0
   55.0169   28.6678   44.8455 H   0  0  0  0  0  0  0  0  0  0  0  0
   54.7340   27.0710   46.6440 H   0  0  0  0  0  0  0  0  0  0  0  0
   59.2345   28.1992   45.6951 H   0  0  0  0  0  0  0  0  0  0  0  0
   59.6459   30.5429   44.9519 H   0  0  0  0  0  0  0  0  0  0  0  0
   60.4935   34.1335   45.7881 H   0  0  0  0  0  0  0  0  0  0  0  0
  1  2  1  0
  2  3  2  0
  2  4  2  0
  2  5  1  0
  5  6  1  0
  6  7  2  0
  7  8  1  0
  8  9  2  0
  9 10  1  0
 10 11  1  0
 11 12  2  0
 11 13  1  0
 13 14  1  0
 14 15  2  0
 15 16  1  0
 16 17  2  0
 17 18  1  0
 18 19  1  0
 18 20  2  0
 18 21  2  0
 17 22  1  0
 22 23  2  0
 10 24  2  0
 24  6  1  0
 23 14  1  0
  1 25  1  0
  1 26  1  0
  1 27  1  0
  5 28  1  0
  7 29  1  0
  8 30  1  0
  9 31  1  0
 15 32  1  0
 16 33  1  0
 19 34  1  0
 22 35  1  0
 23 36  1  0
 24 37  1  0
M  CHG  2  13  -1  19  -1
M  END
>  <UniqueID>  (33) 
28

>  <SMILES>  (33) 
CS(=O)(=O)Nc1cccc(C(=O)[N-]c2ccc(S([NH-])(=O)=O)cc2)c1

>  <Energy>  (33) 
42.59606046664477

>  <Genealogy>  (33) 
CS(=O)(=O)Nc1cccc(C(=O)[N-]c2ccc(S([NH-])(=O)=O)cc2)c1 (protonated)
CS(=O)(=O)Nc1cccc(C(=O)[N-]c2ccc(S([NH-])(=O)=O)cc2)c1 (3D coordinates assigned)
CS(=O)(=O)Nc1cccc(C(=O)[N-]c2ccc(S([NH-])(=O)=O)cc2)c1 (optimized conformer: 42.59606046664477 kcal/mol)

>  <smiles>  (33) 
CS(=O)(=O)Nc1cccc(C(=O)Nc2ccc(S(N)(=O)=O)cc2)c1

>  <score_type>  (33) 
oracle

>  <origin>  (33) 
adg

>  <m_score__min__energy>  (33) 
-12.07

>  <m_primary>  (33) 
energy

$$$$
33:0
     RDKit          3D

 54 57  0  0  0  0  0  0  0  0999 V2000
   55.1470   26.4710   46.0640 N   0  0  0  0  0  0  0  0  0  0  0  0
   56.5360   26.6860   45.8210 C   0  0  0  0  0  0  0  0  0  0  0  0
   57.2990   25.6890   45.6970 O   0  0  0  0  0  0  0  0  0  0  0  0
   57.0800   28.0600   45.7200 C   0  0  0  0  0  0  0  0  0  0  0  0
   56.4160   29.0400   44.9600 C   0  0  0  0  0  0  0  0  0  0  0  0
   56.9250   30.3390   44.8760 C   0  0  0  0  0  0  0  0  0  0  0  0
   58.1000   30.6830   45.5580 C   0  0  0  0  0  0  0  0  0  0  0  0
   58.6280   32.0590   45.4740 C   0  0  0  0  0  0  0  0  0  0  0  0
   58.4190   32.7970   44.2970 C   0  0  0  0  0  0  0  0  0  0  0  0
   58.8940   34.1060   44.1910 C   0  0  0  0  0  0  0  0  0  0  0  0
   59.5780   34.6900   45.2570 C   0  0  0  0  0  0  0  0  0  0  0  0
   59.7800   33.9740   46.4390 C   0  0  0  0  0  0  0  0  0  0  0  0
   59.2960   32.6600   46.5660 C   0  0  0  0  0  0  0  0  0  0  0  0
   59.4910   31.9330   47.7910 N   0  0  0  0  0  0  0  0  0  0  0  0
   58.5310   31.9180   48.8610 C   0  0  0  0  0  0  0  0  0  0  0  0
   57.5590   32.7180   48.8600 O   0  0  0  0  0  0  0  0  0  0  0  0
   58.6840   31.0160   49.9630 N   0  0  0  0  0  0  0  0  0  0  0  0
   59.9290   30.4680   50.4220 C   0  0  0  0  0  0  0  0  0  0  0  0
   60.3280   29.1700   50.0530 C   0  0  0  0  0  0  0  0  0  0  0  0
   61.5260   28.6360   50.5370 C   0  0  0  0  0  0  0  0  0  0  0  0
   62.3310   29.3870   51.3950 C   0  0  0  0  0  0  0  0  0  0  0  0
   61.9330   30.6680   51.7830 C   0  0  0  0  0  0  0  0  0  0  0  0
   60.7260   31.2040   51.3180 C   0  0  0  0  0  0  0  0  0  0  0  0
   60.2310   32.8480   51.8600 S   0  0  0  0  0  0  0  0  0  0  0  0
   60.5730   33.6600   50.2580 C   0  0  0  0  0  0  0  0  0  0  0  0
   61.9960   33.4340   49.8300 C   0  0  0  0  0  0  0  0  0  0  0  0
   63.0580   33.7010   50.7110 C   0  0  0  0  0  0  0  0  0  0  0  0
   64.3770   33.4540   50.3210 C   0  0  0  0  0  0  0  0  0  0  0  0
   64.6470   32.9400   49.0490 C   0  0  0  0  0  0  0  0  0  0  0  0
   63.5970   32.6700   48.1660 C   0  0  0  0  0  0  0  0  0  0  0  0
   62.2750   32.9150   48.5550 C   0  0  0  0  0  0  0  0  0  0  0  0
   58.7740   29.7090   46.3050 C   0  0  0  0  0  0  0  0  0  0  0  0
   58.2660   28.4090   46.3910 C   0  0  0  0  0  0  0  0  0  0  0  0
   54.6170   27.0810   46.7240 H   0  0  0  0  0  0  0  0  0  0  0  0
   55.4887   28.7819   44.4275 H   0  0  0  0  0  0  0  0  0  0  0  0
   56.4011   31.0945   44.2720 H   0  0  0  0  0  0  0  0  0  0  0  0
   57.8783   32.3414   43.4544 H   0  0  0  0  0  0  0  0  0  0  0  0
   58.7285   34.6772   43.2656 H   0  0  0  0  0  0  0  0  0  0  0  0
   59.9596   35.7177   45.1665 H   0  0  0  0  0  0  0  0  0  0  0  0
   60.3209   34.4408   47.2754 H   0  0  0  0  0  0  0  0  0  0  0  0
   60.3320   31.3230   47.8770 H   0  0  0  0  0  0  0  0  0  0  0  0
   59.6945   28.5728   49.3807 H   0  0  0  0  0  0  0  0  0  0  0  0
   61.8346   27.6225   50.2412 H   0  0  0  0  0  0  0  0  0  0  0  0
   63.2789   28.9698   51.7655 H   0  0  0  0  0  0  0  0  0  0  0  0
   62.5707   31.2587   52.4571 H   0  0  0  0  0  0  0  0  0  0  0  0
   59.8981   33.2464   49.4942 H   0  0  0  0  0  0  0  0  0  0  0  0
   60.4102   34.7418   50.3727 H   0  0  0  0  0  0  0  0  0  0  0  0
   62.8500   34.1063   51.7122 H   0  0  0  0  0  0  0  0  0  0  0  0
   65.2038   33.6642   51.0155 H   0  0  0  0  0  0  0  0  0  0  0  0
   65.6859   32.7480   48.7428 H   0  0  0  0  0  0  0  0  0  0  0  0
   63.8099   32.2651   47.1657 H   0  0  0  0  0  0  0  0  0  0  0  0
   61.4507   32.7001   47.8590 H   0  0  0  0  0  0  0  0  0  0  0  0
   59.7073   29.9677   46.8265 H   0  0  0  0  0  0  0  0  0  0  0  0
   58.7979   27.6535   46.9879 H   0  0  0  0  0  0  0  0  0  0  0  0
  1  2  1  0
  2  3  2  0
  2  4  1  0
  4  5  2  0
  5  6  1  0
  6  7  2  0
  7  8  1  0
  8  9  2  0
  9 10  1  0
 10 11  2  0
 11 12  1  0
 12 13  2  0
 13 14  1  0
 14 15  1  0
 15 16  2  0
 15 17  1  0
 17 18  1  0
 18 19  2  0
 19 20  1  0
 20 21  2  0
 21 22  1  0
 22 23  2  0
 23 24  1  0
 24 25  1  0
 25 26  1  0
 26 27  2  0
 27 28  1  0
 28 29  2  0
 29 30  1  0
 30 31  2  0
  7 32  1  0
 32 33  2  0
 33  4  1  0
 13  8  1  0
 23 18  1  0
 31 26  1  0
  1 34  1  0
  5 35  1  0
  6 36  1  0
  9 37  1  0
 10 38  1  0
 11 39  1  0
 12 40  1  0
 14 41  1  0
 19 42  1  0
 20 43  1  0
 21 44  1  0
 22 45  1  0
 25 46  1  0
 25 47  1  0
 27 48  1  0
 28 49  1  0
 29 50  1  0
 30 51  1  0
 31 52  1  0
 32 53  1  0
 33 54  1  0
M  CHG  2   1  -1  17  -1
M  END
>  <UniqueID>  (34) 
29

>  <SMILES>  (34) 
[NH-]C(=O)c1ccc(-c2ccccc2NC(=O)[N-]c2ccccc2SCc2ccccc2)cc1

>  <Energy>  (34) 
67.83263918222983

>  <Genealogy>  (34) 
[NH-]C(=O)c1ccc(-c2ccccc2NC(=O)[N-]c2ccccc2SCc2ccccc2)cc1 (protonated)
[NH-]C(=O)c1ccc(-c2ccccc2NC(=O)[N-]c2ccccc2SCc2ccccc2)cc1 (3D coordinates assigned)
[NH-]C(=O)c1ccc(-c2ccccc2NC(=O)[N-]c2ccccc2SCc2ccccc2)cc1 (optimized conformer: 67.83263918222983 kcal/mol)

>  <smiles>  (34) 
NC(=O)c1ccc(-c2ccccc2NC(=O)Nc2ccccc2SCc2ccccc2)cc1

>  <score_type>  (34) 
oracle

>  <origin>  (34) 
adg

>  <m_score__min__energy>  (34) 
-13.31

>  <m_primary>  (34) 
energy

$$$$
34:0
     RDKit          3D

 44 46  0  0  0  0  0  0  0  0999 V2000
   57.7510   20.8450   44.8110 N   0  0  0  0  0  0  0  0  0  0  0  0
   56.6470   21.8080   43.8910 S   0  0  0  0  0  0  0  0  0  0  0  0
   55.4030   22.0710   44.6920 O   0  0  0  0  0  0  0  0  0  0  0  0
   56.2730   21.0600   42.6420 O   0  0  0  0  0  0  0  0  0  0  0  0
   57.3820   23.2880   43.4430 O   0  0  0  0  0  0  0  0  0  0  0  0
   57.4240   24.4460   44.2330 C   0  0  0  0  0  0  0  0  0  0  0  0
   57.1860   24.4350   45.6200 C   0  0  0  0  0  0  0  0  0  0  0  0
   57.2560   25.6200   46.3580 C   0  0  0  0  0  0  0  0  0  0  0  0
   57.5630   26.8340   45.7250 C   0  0  0  0  0  0  0  0  0  0  0  0
   57.6360   28.1120   46.5190 C   0  0  0  0  0  0  0  0  0  0  0  0
   57.4800   29.3160   45.6310 C   0  0  0  0  0  0  0  0  0  0  0  0
   56.3480   29.6650   44.9260 C   0  0  0  0  0  0  0  0  0  0  0  0
   55.1470   28.9670   44.9250 O   0  0  0  0  0  0  0  0  0  0  0  0
   56.5550   30.7920   44.2180 N   0  0  0  0  0  0  0  0  0  0  0  0
   57.8340   31.1050   44.5130 C   0  0  0  0  0  0  0  0  0  0  0  0
   58.4150   32.1150   44.0320 O   0  0  0  0  0  0  0  0  0  0  0  0
   58.4280   30.2400   45.3650 N   0  0  0  0  0  0  0  0  0  0  0  0
   59.8150   30.2880   45.8360 C   0  0  0  0  0  0  0  0  0  0  0  0
   59.8990   31.0340   47.1720 C   0  0  0  0  0  0  0  0  0  0  0  0
   61.1630   31.8460   47.2520 C   0  0  0  0  0  0  0  0  0  0  0  0
   61.1970   33.1630   46.7640 C   0  0  0  0  0  0  0  0  0  0  0  0
   62.3770   33.9080   46.8270 C   0  0  0  0  0  0  0  0  0  0  0  0
   63.5370   33.3410   47.3620 C   0  0  0  0  0  0  0  0  0  0  0  0
   63.5180   32.0250   47.8330 C   0  0  0  0  0  0  0  0  0  0  0  0
   62.3360   31.2770   47.7750 C   0  0  0  0  0  0  0  0  0  0  0  0
   57.7730   26.8490   44.3370 C   0  0  0  0  0  0  0  0  0  0  0  0
   57.7080   25.6620   43.6020 C   0  0  0  0  0  0  0  0  0  0  0  0
   57.5900   19.8460   44.5560 H   0  0  0  0  0  0  0  0  0  0  0  0
   58.7120   21.0850   44.4830 H   0  0  0  0  0  0  0  0  0  0  0  0
   56.9436   23.4889   46.1260 H   0  0  0  0  0  0  0  0  0  0  0  0
   57.0692   25.6007   47.4419 H   0  0  0  0  0  0  0  0  0  0  0  0
   56.8322   28.1139   47.2699 H   0  0  0  0  0  0  0  0  0  0  0  0
   58.6217   28.1637   47.0045 H   0  0  0  0  0  0  0  0  0  0  0  0
   60.1883   29.2619   45.9695 H   0  0  0  0  0  0  0  0  0  0  0  0
   60.4269   30.8185   45.0916 H   0  0  0  0  0  0  0  0  0  0  0  0
   59.0326   31.7053   47.2653 H   0  0  0  0  0  0  0  0  0  0  0  0
   59.9015   30.2964   47.9881 H   0  0  0  0  0  0  0  0  0  0  0  0
   60.2901   33.6096   46.3303 H   0  0  0  0  0  0  0  0  0  0  0  0
   62.3932   34.9430   46.4548 H   0  0  0  0  0  0  0  0  0  0  0  0
   64.4646   33.9301   47.4124 H   0  0  0  0  0  0  0  0  0  0  0  0
   64.4322   31.5769   48.2494 H   0  0  0  0  0  0  0  0  0  0  0  0
   62.3258   30.2395   48.1405 H   0  0  0  0  0  0  0  0  0  0  0  0
   57.9895   27.7987   43.8259 H   0  0  0  0  0  0  0  0  0  0  0  0
   57.8820   25.6841   42.5161 H   0  0  0  0  0  0  0  0  0  0  0  0
  1  2  1  0
  2  3  2  0
  2  4  2  0
  2  5  1  0
  5  6  1  0
  6  7  2  0
  7  8  1  0
  8  9  2  0
  9 10  1  0
 10 11  1  0
 11 12  2  0
 12 13  1  0
 12 14  1  0
 14 15  1  0
 15 16  2  0
 15 17  1  0
 17 18  1  0
 18 19  1  0
 19 20  1  0
 20 21  2  0
 21 22  1  0
 22 23  2  0
 23 24  1  0
 24 25  2  0
  9 26  1  0
 26 27  2  0
 27  6  1  0
 17 11  1  0
 25 20  1  0
  1 28  1  0
  1 29  1  0
  7 30  1  0
  8 31  1  0
 10 32  1  0
 10 33  1  0
 18 34  1  0
 18 35  1  0
 19 36  1  0
 19 37  1  0
 21 38  1  0
 22 39  1  0
 23 40  1  0
 24 41  1  0
 25 42  1  0
 26 43  1  0
 27 44  1  0
M  CHG  2  13  -1  14  -1
M  END
>  <UniqueID>  (35) 
30

>  <SMILES>  (35) 
NS(=O)(=O)Oc1ccc(Cc2c([O-])[n-]c(=O)n2CCc2ccccc2)cc1

>  <Energy>  (35) 
68.39940086760105

>  <Genealogy>  (35) 
NS(=O)(=O)Oc1ccc(Cc2c([O-])[n-]c(=O)n2CCc2ccccc2)cc1 (protonated)
NS(=O)(=O)Oc1ccc(Cc2c([O-])[n-]c(=O)n2CCc2ccccc2)cc1 (3D coordinates assigned)
NS(=O)(=O)Oc1ccc(Cc2c([O-])[n-]c(=O)n2CCc2ccccc2)cc1 (optimized conformer: 68.39940086760105 kcal/mol)

>  <smiles>  (35) 
NS(=O)(=O)Oc1ccc(Cc2c(O)[nH]c(=O)n2CCc2ccccc2)cc1

>  <score_type>  (35) 
oracle

>  <origin>  (35) 
adg

>  <m_score__min__energy>  (35) 
-13.779999999999999

>  <m_primary>  (35) 
energy

$$$$
35:0
     RDKit          3D

 44 46  0  0  0  0  0  0  0  0999 V2000
   56.3060   30.1610   44.8890 O   0  0  0  0  0  0  0  0  0  0  0  0
   57.3290   30.3710   44.1830 C   0  0  0  0  0  0  0  0  0  0  0  0
   57.3710   31.5740   43.2950 C   0  0  0  0  0  0  0  0  0  0  0  0
   57.1000   32.7450   44.0630 O   0  0  0  0  0  0  0  0  0  0  0  0
   57.8840   33.1830   45.1400 C   0  0  0  0  0  0  0  0  0  0  0  0
   58.7120   34.2960   44.9500 C   0  0  0  0  0  0  0  0  0  0  0  0
   59.5110   34.7730   45.9920 C   0  0  0  0  0  0  0  0  0  0  0  0
   59.4820   34.1500   47.2520 C   0  0  0  0  0  0  0  0  0  0  0  0
   60.3170   34.6060   48.3310 N   0  0  0  0  0  0  0  0  0  0  0  0
   61.6490   34.1290   48.5850 C   0  0  0  0  0  0  0  0  0  0  0  0
   62.3830   33.5420   47.5420 C   0  0  0  0  0  0  0  0  0  0  0  0
   63.6700   33.0470   47.7730 C   0  0  0  0  0  0  0  0  0  0  0  0
   64.2280   33.1190   49.0520 C   0  0  0  0  0  0  0  0  0  0  0  0
   63.4980   33.6800   50.1030 C   0  0  0  0  0  0  0  0  0  0  0  0
   62.2110   34.1770   49.8750 C   0  0  0  0  0  0  0  0  0  0  0  0
   58.6710   33.0220   47.4360 C   0  0  0  0  0  0  0  0  0  0  0  0
   57.8720   32.5440   46.3950 C   0  0  0  0  0  0  0  0  0  0  0  0
   58.4810   29.5190   44.2960 N   0  0  0  0  0  0  0  0  0  0  0  0
   58.4730   28.2370   44.9480 C   0  0  0  0  0  0  0  0  0  0  0  0
   59.6690   27.5840   45.2930 C   0  0  0  0  0  0  0  0  0  0  0  0
   59.6330   26.3500   45.9460 C   0  0  0  0  0  0  0  0  0  0  0  0
   58.4100   25.7620   46.2730 C   0  0  0  0  0  0  0  0  0  0  0  0
   57.2040   26.4080   45.9570 C   0  0  0  0  0  0  0  0  0  0  0  0
   55.9080   25.7870   46.3150 C   0  0  0  0  0  0  0  0  0  0  0  0
   55.8700   24.7550   47.0350 O   0  0  0  0  0  0  0  0  0  0  0  0
   54.7150   26.3370   45.8600 O   0  0  0  0  0  0  0  0  0  0  0  0
   57.2470   27.6510   45.3000 C   0  0  0  0  0  0  0  0  0  0  0  0
   58.3685   31.6579   42.8391 H   0  0  0  0  0  0  0  0  0  0  0  0
   56.6126   31.4716   42.5049 H   0  0  0  0  0  0  0  0  0  0  0  0
   58.7336   34.7991   43.9720 H   0  0  0  0  0  0  0  0  0  0  0  0
   60.1663   35.6407   45.8257 H   0  0  0  0  0  0  0  0  0  0  0  0
   59.9290   35.3340   48.9730 H   0  0  0  0  0  0  0  0  0  0  0  0
   61.9426   33.4711   46.5365 H   0  0  0  0  0  0  0  0  0  0  0  0
   64.2436   32.6006   46.9474 H   0  0  0  0  0  0  0  0  0  0  0  0
   65.2426   32.7338   49.2316 H   0  0  0  0  0  0  0  0  0  0  0  0
   63.9361   33.7307   51.1107 H   0  0  0  0  0  0  0  0  0  0  0  0
   61.6350   34.6075   50.7074 H   0  0  0  0  0  0  0  0  0  0  0  0
   58.6637   32.5086   48.4088 H   0  0  0  0  0  0  0  0  0  0  0  0
   57.2307   31.6649   46.5560 H   0  0  0  0  0  0  0  0  0  0  0  0
   59.3960   29.8900   43.9540 H   0  0  0  0  0  0  0  0  0  0  0  0
   60.6365   28.0465   45.0478 H   0  0  0  0  0  0  0  0  0  0  0  0
   60.5725   25.8392   46.2037 H   0  0  0  0  0  0  0  0  0  0  0  0
   58.3909   24.7867   46.7813 H   0  0  0  0  0  0  0  0  0  0  0  0
   56.3078   28.1705   45.0590 H   0  0  0  0  0  0  0  0  0  0  0  0
  1  2  2  0
  2  3  1  0
  3  4  1  0
  4  5  1  0
  5  6  2  0
  6  7  1  0
  7  8  2  0
  8  9  1  0
  9 10  1  0
 10 11  2  0
 11 12  1  0
 12 13  2  0
 13 14  1  0
 14 15  2  0
  8 16  1  0
 16 17  2  0
  2 18  1  0
 18 19  1  0
 19 20  2  0
 20 21  1  0
 21 22  2  0
 22 23  1  0
 23 24  1  0
 24 25  2  0
 24 26  1  0
 23 27  2  0
 17  5  1  0
 27 19  1  0
 15 10  1  0
  3 28  1  0
  3 29  1  0
  6 30  1  0
  7 31  1  0
  9 32  1  0
 11 33  1  0
 12 34  1  0
 13 35  1  0
 14 36  1  0
 15 37  1  0
 16 38  1  0
 17 39  1  0
 18 40  1  0
 20 41  1  0
 21 42  1  0
 22 43  1  0
 27 44  1  0
M  CHG  1  26  -1
M  END
>  <UniqueID>  (36) 
31

>  <SMILES>  (36) 
O=C(COc1ccc(Nc2ccccc2)cc1)Nc1cccc(C(=O)[O-])c1

>  <Energy>  (36) 
54.82750064149712

>  <Genealogy>  (36) 
O=C(COc1ccc(Nc2ccccc2)cc1)Nc1cccc(C(=O)[O-])c1 (protonated)
O=C(COc1ccc(Nc2ccccc2)cc1)Nc1cccc(C(=O)[O-])c1 (3D coordinates assigned)
O=C(COc1ccc(Nc2ccccc2)cc1)Nc1cccc(C(=O)[O-])c1 (optimized conformer: 54.82750064149712 kcal/mol)

>  <smiles>  (36) 
O=C(COc1ccc(Nc2ccccc2)cc1)Nc1cccc(C(=O)O)c1

>  <score_type>  (36) 
oracle

>  <origin>  (36) 
adg

>  <m_score__min__energy>  (36) 
-12.52

>  <m_primary>  (36) 
energy

$$$$
36:0
     RDKit          3D

 30 31  0  0  0  0  0  0  0  0999 V2000
   57.7810   27.4580   43.2350 N   0  0  0  0  0  0  0  0  0  0  0  0
   58.2980   28.1510   44.3780 C   0  0  0  0  0  0  0  0  0  0  0  0
   59.5390   28.7140   44.3170 N   0  0  0  0  0  0  0  0  0  0  0  0
   60.0720   29.3920   45.3690 C   0  0  0  0  0  0  0  0  0  0  0  0
   59.3440   29.5380   46.5480 C   0  0  0  0  0  0  0  0  0  0  0  0
   58.0740   28.9710   46.6450 C   0  0  0  0  0  0  0  0  0  0  0  0
   57.5420   28.2480   45.5630 C   0  0  0  0  0  0  0  0  0  0  0  0
   56.2340   27.6570   45.6210 N   0  0  0  0  0  0  0  0  0  0  0  0
   55.8890   26.3640   46.1340 C   0  0  0  0  0  0  0  0  0  0  0  0
   54.7360   25.8850   45.9700 O   0  0  0  0  0  0  0  0  0  0  0  0
   56.8850   25.6190   46.9630 C   0  0  0  0  0  0  0  0  0  0  0  0
   58.4400   25.3670   46.0380 S   0  0  0  0  0  0  0  0  0  0  0  0
   57.7490   24.1810   44.8830 C   0  0  0  0  0  0  0  0  0  0  0  0
   58.0510   22.8210   45.0010 C   0  0  0  0  0  0  0  0  0  0  0  0
   57.4990   21.9160   44.0920 C   0  0  0  0  0  0  0  0  0  0  0  0
   56.6530   22.3780   43.0820 C   0  0  0  0  0  0  0  0  0  0  0  0
   56.3690   23.7430   42.9990 C   0  0  0  0  0  0  0  0  0  0  0  0
   56.9160   24.6080   43.8950 N   0  0  0  0  0  0  0  0  0  0  0  0
   58.1220   27.6610   42.2700 H   0  0  0  0  0  0  0  0  0  0  0  0
   57.0560   26.7160   43.3510 H   0  0  0  0  0  0  0  0  0  0  0  0
   60.1030   28.6310   43.4400 H   0  0  0  0  0  0  0  0  0  0  0  0
   61.0797   29.8258   45.2887 H   0  0  0  0  0  0  0  0  0  0  0  0
   59.7680   30.0963   47.3957 H   0  0  0  0  0  0  0  0  0  0  0  0
   57.4881   29.0894   47.5684 H   0  0  0  0  0  0  0  0  0  0  0  0
   57.0976   26.1952   47.8756 H   0  0  0  0  0  0  0  0  0  0  0  0
   56.4645   24.6356   47.2202 H   0  0  0  0  0  0  0  0  0  0  0  0
   58.7169   22.4674   45.8020 H   0  0  0  0  0  0  0  0  0  0  0  0
   57.7298   20.8434   44.1714 H   0  0  0  0  0  0  0  0  0  0  0  0
   56.2147   21.6742   42.3591 H   0  0  0  0  0  0  0  0  0  0  0  0
   55.7026   24.1187   42.2086 H   0  0  0  0  0  0  0  0  0  0  0  0
  1  2  1  0
  2  3  2  0
  3  4  1  0
  4  5  2  0
  5  6  1  0
  6  7  2  0
  7  8  1  0
  8  9  1  0
  9 10  2  0
  9 11  1  0
 11 12  1  0
 12 13  1  0
 13 14  2  0
 14 15  1  0
 15 16  2  0
 16 17  1  0
 17 18  2  0
  7  2  1  0
 18 13  1  0
  1 19  1  0
  1 20  1  0
  3 21  1  0
  4 22  1  0
  5 23  1  0
  6 24  1  0
 11 25  1  0
 11 26  1  0
 14 27  1  0
 15 28  1  0
 16 29  1  0
 17 30  1  0
M  CHG  2   3   1   8  -1
M  END
>  <UniqueID>  (37) 
32

>  <SMILES>  (37) 
Nc1[nH+]cccc1[N-]C(=O)CSc1ccccn1

>  <Energy>  (37) 
28.013298577445802

>  <Genealogy>  (37) 
Nc1[nH+]cccc1[N-]C(=O)CSc1ccccn1 (protonated)
Nc1[nH+]cccc1[N-]C(=O)CSc1ccccn1 (3D coordinates assigned)
Nc1[nH+]cccc1[N-]C(=O)CSc1ccccn1 (optimized conformer: 28.013298577445802 kcal/mol)

>  <smiles>  (37) 
Nc1ncccc1NC(=O)CSc1ccccn1

>  <score_type>  (37) 
oracle

>  <origin>  (37) 
adg

>  <m_score__min__energy>  (37) 
-6.8300000000000001

>  <m_primary>  (37) 
energy

$$$$
37:0
     RDKit          3D

 36 38  0  0  0  0  0  0  0  0999 V2000
   56.6840   31.0820   44.8870 O   0  0  0  0  0  0  0  0  0  0  0  0
   57.7820   31.3120   45.4630 C   0  0  0  0  0  0  0  0  0  0  0  0
   58.5200   30.2330   46.0600 N   0  0  0  0  0  0  0  0  0  0  0  0
   58.2650   28.8470   45.7650 C   0  0  0  0  0  0  0  0  0  0  0  0
   57.0030   28.2840   46.0240 C   0  0  0  0  0  0  0  0  0  0  0  0
   56.7440   26.9400   45.7310 C   0  0  0  0  0  0  0  0  0  0  0  0
   55.4390   26.4100   46.0070 N   0  0  0  0  0  0  0  0  0  0  0  0
   54.9330   25.1380   45.5790 C   0  0  0  0  0  0  0  0  0  0  0  0
   53.6940   24.9250   45.6570 O   0  0  0  0  0  0  0  0  0  0  0  0
   55.8230   24.0620   45.0860 C   0  0  0  0  0  0  0  0  0  0  0  0
   55.8130   23.7220   43.7220 C   0  0  0  0  0  0  0  0  0  0  0  0
   56.6530   22.7160   43.2370 C   0  0  0  0  0  0  0  0  0  0  0  0
   57.5030   22.0330   44.1090 C   0  0  0  0  0  0  0  0  0  0  0  0
   57.5080   22.3480   45.4700 C   0  0  0  0  0  0  0  0  0  0  0  0
   56.6690   23.3540   45.9630 C   0  0  0  0  0  0  0  0  0  0  0  0
   56.6600   23.6040   47.2970 F   0  0  0  0  0  0  0  0  0  0  0  0
   57.7440   26.1610   45.1280 C   0  0  0  0  0  0  0  0  0  0  0  0
   58.9950   26.7140   44.8530 C   0  0  0  0  0  0  0  0  0  0  0  0
   59.2620   28.0510   45.1660 C   0  0  0  0  0  0  0  0  0  0  0  0
   60.8640   28.6910   44.8220 Cl  0  0  0  0  0  0  0  0  0  0  0  0
   58.2680   32.7000   45.5460 C   0  0  0  0  0  0  0  0  0  0  0  0
   58.4640   33.5830   44.4870 C   0  0  0  0  0  0  0  0  0  0  0  0
   58.9190   34.8440   44.8940 C   0  0  0  0  0  0  0  0  0  0  0  0
   59.0810   34.9640   46.2690 C   0  0  0  0  0  0  0  0  0  0  0  0
   58.6550   33.5010   46.9760 S   0  0  0  0  0  0  0  0  0  0  0  0
   59.2190   30.4590   46.8010 H   0  0  0  0  0  0  0  0  0  0  0  0
   56.2096   28.9073   46.4622 H   0  0  0  0  0  0  0  0  0  0  0  0
   55.1395   24.2513   43.0319 H   0  0  0  0  0  0  0  0  0  0  0  0
   56.6445   22.4619   42.1668 H   0  0  0  0  0  0  0  0  0  0  0  0
   58.1690   21.2466   43.7242 H   0  0  0  0  0  0  0  0  0  0  0  0
   58.1734   21.8037   46.1563 H   0  0  0  0  0  0  0  0  0  0  0  0
   57.5406   25.1109   44.8714 H   0  0  0  0  0  0  0  0  0  0  0  0
   59.7760   26.0950   44.3873 H   0  0  0  0  0  0  0  0  0  0  0  0
   58.2799   33.3168   43.4357 H   0  0  0  0  0  0  0  0  0  0  0  0
   59.1286   35.6632   44.1904 H   0  0  0  0  0  0  0  0  0  0  0  0
   59.4280   35.8615   46.8020 H   0  0  0  0  0  0  0  0  0  0  0  0
  1  2  2  0
  2  3  1  0
  3  4  1  0
  4  5  2  0
  5  6  1  0
  6  7  1  0
  7  8  1  0
  8  9  2  0
  8 10  1  0
 10 11  2  0
 11 12  1  0
 12 13  2  0
 13 14  1  0
 14 15  2  0
 15 16  1  0
  6 17  2  0
 17 18  1  0
 18 19  2  0
 19 20  1  0
  2 21  1  0
 21 22  2  0
 22 23  1  0
 23 24  2  0
 24 25  1  0
 19  4  1  0
 25 21  1  0
 15 10  1  0
  3 26  1  0
  5 27  1  0
 11 28  1  0
 12 29  1  0
 13 30  1  0
 14 31  1  0
 17 32  1  0
 18 33  1  0
 22 34  1  0
 23 35  1  0
 24 36  1  0
M  CHG  1   7  -1
M  END
>  <UniqueID>  (38) 
33

>  <SMILES>  (38) 
O=C(Nc1cc([N-]C(=O)c2ccccc2F)ccc1Cl)c1cccs1

>  <Energy>  (38) 
77.1826303873516

>  <Genealogy>  (38) 
O=C(Nc1cc([N-]C(=O)c2ccccc2F)ccc1Cl)c1cccs1 (protonated)
O=C(Nc1cc([N-]C(=O)c2ccccc2F)ccc1Cl)c1cccs1 (3D coordinates assigned)
O=C(Nc1cc([N-]C(=O)c2ccccc2F)ccc1Cl)c1cccs1 (optimized conformer: 77.1826303873516 kcal/mol)

>  <smiles>  (38) 
O=C(Nc1cc(NC(=O)c2ccccc2F)ccc1Cl)c1cccs1

>  <score_type>  (38) 
oracle

>  <origin>  (38) 
adg

>  <m_score__min__energy>  (38) 
-10.49

>  <m_primary>  (38) 
energy

$$$$
38:0
     RDKit          3D

 44 47  0  0  0  0  0  0  0  0999 V2000
   56.4640   28.2370   44.1200 H   0  0  0  0  0  0  0  0  0  0  0  0
   56.1990   29.1280   44.5150 O   0  0  0  0  0  0  0  0  0  0  0  0
   57.1210   30.1170   44.8640 C   0  0  0  0  0  0  0  0  0  0  0  0
   56.6960   31.4060   44.8970 N   0  0  0  0  0  0  0  0  0  0  0  0
   57.5340   32.4080   45.2530 C   0  0  0  0  0  0  0  0  0  0  0  0
   58.8150   32.1590   45.5940 N   0  0  0  0  0  0  0  0  0  0  0  0
   59.2890   30.8730   45.6280 C   0  0  0  0  0  0  0  0  0  0  0  0
   60.4560   30.6260   46.0390 O   0  0  0  0  0  0  0  0  0  0  0  0
   58.4550   29.8120   45.2170 C   0  0  0  0  0  0  0  0  0  0  0  0
   58.9760   28.4280   45.1720 C   0  0  0  0  0  0  0  0  0  0  0  0
   58.6090   27.6610   44.2400 O   0  0  0  0  0  0  0  0  0  0  0  0
   59.8200   27.9190   46.2760 C   0  0  0  0  0  0  0  0  0  0  0  0
   60.7825   27.4611   46.0042 H   0  0  0  0  0  0  0  0  0  0  0  0
   59.5100   27.9690   47.5810 C   0  0  0  0  0  0  0  0  0  0  0  0
   59.0391   27.0782   48.0222 H   0  0  0  0  0  0  0  0  0  0  0  0
   59.7490   29.1220   48.4740 C   0  0  0  0  0  0  0  0  0  0  0  0
   58.6980   30.0130   48.7410 C   0  0  0  0  0  0  0  0  0  0  0  0
   57.7009   29.8271   48.3152 H   0  0  0  0  0  0  0  0  0  0  0  0
   58.9130   31.1360   49.5460 C   0  0  0  0  0  0  0  0  0  0  0  0
   58.0812   31.8215   49.7657 H   0  0  0  0  0  0  0  0  0  0  0  0
   60.1830   31.3890   50.0720 C   0  0  0  0  0  0  0  0  0  0  0  0
   60.3484   32.2685   50.7116 H   0  0  0  0  0  0  0  0  0  0  0  0
   61.2430   30.5240   49.7850 C   0  0  0  0  0  0  0  0  0  0  0  0
   62.2444   30.7284   50.1918 H   0  0  0  0  0  0  0  0  0  0  0  0
   61.0320   29.4000   48.9820 C   0  0  0  0  0  0  0  0  0  0  0  0
   61.8718   28.7299   48.7460 H   0  0  0  0  0  0  0  0  0  0  0  0
   59.4910   33.3610   45.9950 C   0  0  0  0  0  0  0  0  0  0  0  0
   60.8340   33.4940   45.9910 C   0  0  0  0  0  0  0  0  0  0  0  0
   61.3395   33.5852   45.0183 H   0  0  0  0  0  0  0  0  0  0  0  0
   61.6700   33.5250   47.2120 C   0  0  0  0  0  0  0  0  0  0  0  0
   61.2290   34.1600   48.3870 C   0  0  0  0  0  0  0  0  0  0  0  0
   60.2533   34.6676   48.4028 H   0  0  0  0  0  0  0  0  0  0  0  0
   62.0270   34.1480   49.5350 C   0  0  0  0  0  0  0  0  0  0  0  0
   61.6846   34.6589   50.4470 H   0  0  0  0  0  0  0  0  0  0  0  0
   63.2590   33.4880   49.5260 C   0  0  0  0  0  0  0  0  0  0  0  0
   63.8882   33.4852   50.4283 H   0  0  0  0  0  0  0  0  0  0  0  0
   63.6910   32.8320   48.3710 C   0  0  0  0  0  0  0  0  0  0  0  0
   64.6581   32.3079   48.3658 H   0  0  0  0  0  0  0  0  0  0  0  0
   62.8950   32.8410   47.2210 C   0  0  0  0  0  0  0  0  0  0  0  0
   63.2312   32.3090   46.3188 H   0  0  0  0  0  0  0  0  0  0  0  0
   58.5560   34.5190   46.2080 C   0  0  0  0  0  0  0  0  0  0  0  0
   58.3856   34.6735   47.2837 H   0  0  0  0  0  0  0  0  0  0  0  0
   58.9808   35.4462   45.7959 H   0  0  0  0  0  0  0  0  0  0  0  0
   56.9830   34.0990   45.3780 S   0  0  0  0  0  0  0  0  0  0  0  0
  1  2  1  0
  2  3  1  0
  3  4  1  0
  4  5  2  0
  5  6  1  0
  6  7  1  0
  7  8  2  0
  7  9  1  0
  9 10  1  0
 10 11  2  0
 10 12  1  0
 12 13  1  0
 12 14  2  0
 14 15  1  0
 14 16  1  0
 16 17  2  0
 17 18  1  0
 17 19  1  0
 19 20  1  0
 19 21  2  0
 21 22  1  0
 21 23  1  0
 23 24  1  0
 23 25  2  0
 25 26  1  0
  6 27  1  0
 27 28  2  0
 28 29  1  0
 28 30  1  0
 30 31  2  0
 31 32  1  0
 31 33  1  0
 33 34  1  0
 33 35  2  0
 35 36  1  0
 35 37  1  0
 37 38  1  0
 37 39  2  0
 39 40  1  0
 27 41  1  0
 41 42  1  0
 41 43  1  0
 41 44  1  0
  9  3  2  0
 25 16  1  0
 39 30  1  0
 44  5  1  0
M  END
>  <UniqueID>  (39) 
34

>  <SMILES>  (39) 
O=C(/C=C\c1ccccc1)c1c(O)nc2n(c1=O)/C(=C/c1ccccc1)CS2

>  <Energy>  (39) 
86.21806413645801

>  <Genealogy>  (39) 
O=C(/C=C\c1ccccc1)c1c(O)nc2n(c1=O)/C(=C/c1ccccc1)CS2 (cis-trans isomerization)
O=C(/C=C\c1ccccc1)c1c(O)nc2n(c1=O)/C(=C/c1ccccc1)CS2 (3D coordinates assigned)
O=C(/C=C\c1ccccc1)c1c(O)nc2n(c1=O)/C(=C/c1ccccc1)CS2 (nonaromatic ring conformer: 86.21806413645801 kcal/mol)

>  <smiles>  (39) 
O=C(C=Cc1ccccc1)c1c(O)nc2n(c1=O)C(=Cc1ccccc1)CS2

>  <score_type>  (39) 
oracle

>  <origin>  (39) 
adg

>  <m_score__min__energy>  (39) 
-10.09

>  <m_primary>  (39) 
energy

$$$$
39:0
     RDKit          3D

 53 56  0  0  0  0  0  0  0  0999 V2000
   62.3110   29.4140   51.4100 C   0  0  0  0  0  0  0  0  0  0  0  0
   63.4920   29.9760   51.9740 O   0  0  0  0  0  0  0  0  0  0  0  0
   64.3190   30.9050   51.3250 C   0  0  0  0  0  0  0  0  0  0  0  0
   65.5690   31.2960   51.8430 C   0  0  0  0  0  0  0  0  0  0  0  0
   66.3690   32.1970   51.1390 C   0  0  0  0  0  0  0  0  0  0  0  0
   65.9270   32.7270   49.9260 C   0  0  0  0  0  0  0  0  0  0  0  0
   64.6690   32.3670   49.4040 C   0  0  0  0  0  0  0  0  0  0  0  0
   64.1690   32.9140   48.1700 N   0  0  0  0  0  0  0  0  0  0  0  0
   62.5250   33.4170   47.9220 S   0  0  0  0  0  0  0  0  0  0  0  0
   62.1290   34.3530   49.0300 O   0  0  0  0  0  0  0  0  0  0  0  0
   62.4260   34.1400   46.6080 O   0  0  0  0  0  0  0  0  0  0  0  0
   61.4530   32.0220   47.8820 C   0  0  0  0  0  0  0  0  0  0  0  0
   60.5810   31.7720   48.9750 C   0  0  0  0  0  0  0  0  0  0  0  0
   59.7350   30.6470   48.9660 C   0  0  0  0  0  0  0  0  0  0  0  0
   59.7910   29.8000   47.8620 C   0  0  0  0  0  0  0  0  0  0  0  0
   59.0960   28.6730   47.6560 N   0  0  0  0  0  0  0  0  0  0  0  0
   59.5580   28.2670   46.4450 C   0  0  0  0  0  0  0  0  0  0  0  0
   59.0130   26.7500   45.6690 S   0  0  0  0  0  0  0  0  0  0  0  0
   57.4940   26.6040   46.6730 C   0  0  0  0  0  0  0  0  0  0  0  0
   56.2610   27.0500   45.9280 C   0  0  0  0  0  0  0  0  0  0  0  0
   55.2300   26.3250   45.9220 O   0  0  0  0  0  0  0  0  0  0  0  0
   56.2050   28.3300   45.2920 N   0  0  0  0  0  0  0  0  0  0  0  0
   57.0140   28.7110   44.1420 C   0  0  0  0  0  0  0  0  0  0  0  0
   57.3880   30.1620   44.2530 C   0  0  0  0  0  0  0  0  0  0  0  0
   57.6670   30.7310   45.5060 C   0  0  0  0  0  0  0  0  0  0  0  0
   57.9830   32.0870   45.6090 C   0  0  0  0  0  0  0  0  0  0  0  0
   58.0150   32.8870   44.4650 C   0  0  0  0  0  0  0  0  0  0  0  0
   58.3020   34.2090   44.5710 F   0  0  0  0  0  0  0  0  0  0  0  0
   57.7360   32.3290   43.2160 C   0  0  0  0  0  0  0  0  0  0  0  0
   57.4180   30.9720   43.1090 C   0  0  0  0  0  0  0  0  0  0  0  0
   60.4980   29.0730   45.8930 N   0  0  0  0  0  0  0  0  0  0  0  0
   60.6190   30.0410   46.8100 C   0  0  0  0  0  0  0  0  0  0  0  0
   61.4650   31.1470   46.7740 C   0  0  0  0  0  0  0  0  0  0  0  0
   63.8770   31.4540   50.1170 C   0  0  0  0  0  0  0  0  0  0  0  0
   61.6362   29.0929   52.2171 H   0  0  0  0  0  0  0  0  0  0  0  0
   61.8065   30.1686   50.7886 H   0  0  0  0  0  0  0  0  0  0  0  0
   62.5783   28.5466   50.7886 H   0  0  0  0  0  0  0  0  0  0  0  0
   65.9155   30.8902   52.8049 H   0  0  0  0  0  0  0  0  0  0  0  0
   67.3501   32.4901   51.5410 H   0  0  0  0  0  0  0  0  0  0  0  0
   66.5659   33.4314   49.3731 H   0  0  0  0  0  0  0  0  0  0  0  0
   64.8100   32.9780   47.3470 H   0  0  0  0  0  0  0  0  0  0  0  0
   60.5667   32.4608   49.8325 H   0  0  0  0  0  0  0  0  0  0  0  0
   59.0518   30.4435   49.8038 H   0  0  0  0  0  0  0  0  0  0  0  0
   57.3663   25.5519   46.9676 H   0  0  0  0  0  0  0  0  0  0  0  0
   57.6093   27.2596   47.5487 H   0  0  0  0  0  0  0  0  0  0  0  0
   57.9268   28.0978   44.1162 H   0  0  0  0  0  0  0  0  0  0  0  0
   56.4385   28.5497   43.2185 H   0  0  0  0  0  0  0  0  0  0  0  0
   57.6365   30.1056   46.4104 H   0  0  0  0  0  0  0  0  0  0  0  0
   58.2070   32.5257   46.5925 H   0  0  0  0  0  0  0  0  0  0  0  0
   57.7665   32.9584   42.3144 H   0  0  0  0  0  0  0  0  0  0  0  0
   57.1906   30.5382   42.1241 H   0  0  0  0  0  0  0  0  0  0  0  0
   62.1209   31.3326   45.9107 H   0  0  0  0  0  0  0  0  0  0  0  0
   62.8928   31.1655   49.7194 H   0  0  0  0  0  0  0  0  0  0  0  0
  1  2  1  0
  2  3  1  0
  3  4  2  0
  4  5  1  0
  5  6  2  0
  6  7  1  0
  7  8  1  0
  8  9  1  0
  9 10  2  0
  9 11  2  0
  9 12  1  0
 12 13  2  0
 13 14  1  0
 14 15  2  0
 15 16  1  0
 16 17  1  0
 17 18  1  0
 18 19  1  0
 19 20  1  0
 20 21  2  0
 20 22  1  0
 22 23  1  0
 23 24  1  0
 24 25  2  0
 25 26  1  0
 26 27  2  0
 27 28  1  0
 27 29  1  0
 29 30  2  0
 17 31  2  0
 31 32  1  0
 32 33  2  0
  7 34  2  0
 34  3  1  0
 33 12  1  0
 32 15  1  0
 30 24  1  0
  1 35  1  0
  1 36  1  0
  1 37  1  0
  4 38  1  0
  5 39  1  0
  6 40  1  0
  8 41  1  0
 13 42  1  0
 14 43  1  0
 19 44  1  0
 19 45  1  0
 23 46  1  0
 23 47  1  0
 25 48  1  0
 26 49  1  0
 29 50  1  0
 30 51  1  0
 33 52  1  0
 34 53  1  0
M  CHG  2  16  -1  22  -1
M  END
>  <UniqueID>  (40) 
35

>  <SMILES>  (40) 
COc1cccc(NS(=O)(=O)c2ccc3[n-]c(SCC(=O)[N-]Cc4ccc(F)cc4)nc3c2)c1

>  <Energy>  (40) 
88.62346009039946

>  <Genealogy>  (40) 
COc1cccc(NS(=O)(=O)c2ccc3[n-]c(SCC(=O)[N-]Cc4ccc(F)cc4)nc3c2)c1 (protonated)
COc1cccc(NS(=O)(=O)c2ccc3[n-]c(SCC(=O)[N-]Cc4ccc(F)cc4)nc3c2)c1 (3D coordinates assigned)
COc1cccc(NS(=O)(=O)c2ccc3[n-]c(SCC(=O)[N-]Cc4ccc(F)cc4)nc3c2)c1 (optimized conformer: 88.62346009039946 kcal/mol)

>  <smiles>  (40) 
COc1cccc(NS(=O)(=O)c2ccc3[nH]c(SCC(=O)NCc4ccc(F)cc4)nc3c2)c1

>  <score_type>  (40) 
oracle

>  <origin>  (40) 
adg

>  <m_score__min__energy>  (40) 
-12.26

>  <m_primary>  (40) 
energy

$$$$
40:0
     RDKit          3D

 50 52  0  0  0  0  0  0  0  0999 V2000
   61.1090   28.9670   45.3780 C   0  0  0  0  0  0  0  0  0  0  0  0
   60.1010   30.0190   45.4880 N   0  0  0  0  0  0  0  0  0  0  0  0
   59.2190   30.2640   44.5310 N   0  0  0  0  0  0  0  0  0  0  0  0
   58.4430   31.2840   44.9420 C   0  0  0  0  0  0  0  0  0  0  0  0
   57.3470   31.8830   44.1100 C   0  0  0  0  0  0  0  0  0  0  0  0
   57.3370   31.2940   42.6970 C   0  0  0  0  0  0  0  0  0  0  0  0
   57.0310   29.9250   42.7290 O   0  0  0  0  0  0  0  0  0  0  0  0
   58.8560   31.7120   46.1900 C   0  0  0  0  0  0  0  0  0  0  0  0
   58.1520   33.0200   47.1320 Cl  0  0  0  0  0  0  0  0  0  0  0  0
   59.9150   30.8800   46.5190 C   0  0  0  0  0  0  0  0  0  0  0  0
   60.7070   30.9150   47.7700 C   0  0  0  0  0  0  0  0  0  0  0  0
   61.8020   31.5390   47.8120 O   0  0  0  0  0  0  0  0  0  0  0  0
   60.2320   30.2410   48.9390 N   0  0  0  0  0  0  0  0  0  0  0  0
   60.5830   28.8670   49.2800 C   0  0  0  0  0  0  0  0  0  0  0  0
   59.9420   27.9110   48.3140 C   0  0  0  0  0  0  0  0  0  0  0  0
   60.7020   26.9110   47.6860 C   0  0  0  0  0  0  0  0  0  0  0  0
   60.1030   26.0390   46.7730 C   0  0  0  0  0  0  0  0  0  0  0  0
   58.7350   26.1510   46.4820 C   0  0  0  0  0  0  0  0  0  0  0  0
   58.1060   25.2260   45.5170 C   0  0  0  0  0  0  0  0  0  0  0  0
   57.8950   23.8940   45.9100 C   0  0  0  0  0  0  0  0  0  0  0  0
   57.3270   22.9750   45.0260 C   0  0  0  0  0  0  0  0  0  0  0  0
   56.9600   23.3760   43.7420 C   0  0  0  0  0  0  0  0  0  0  0  0
   57.1500   24.7000   43.3410 C   0  0  0  0  0  0  0  0  0  0  0  0
   57.7120   25.6410   44.2200 C   0  0  0  0  0  0  0  0  0  0  0  0
   57.8690   27.3200   43.6770 S   0  0  0  0  0  0  0  0  0  0  0  0
   56.8970   28.3630   44.6580 N   0  0  0  0  0  0  0  0  0  0  0  0
   59.3080   27.7450   43.7630 O   0  0  0  0  0  0  0  0  0  0  0  0
   57.4070   27.4440   42.2530 O   0  0  0  0  0  0  0  0  0  0  0  0
   57.9800   27.1650   47.0900 C   0  0  0  0  0  0  0  0  0  0  0  0
   58.5790   28.0380   48.0020 C   0  0  0  0  0  0  0  0  0  0  0  0
   61.4160   28.6466   46.3845 H   0  0  0  0  0  0  0  0  0  0  0  0
   60.6864   28.1098   44.8333 H   0  0  0  0  0  0  0  0  0  0  0  0
   61.9835   29.3526   44.8333 H   0  0  0  0  0  0  0  0  0  0  0  0
   56.3791   31.6778   44.5907 H   0  0  0  0  0  0  0  0  0  0  0  0
   57.5213   32.9664   44.0336 H   0  0  0  0  0  0  0  0  0  0  0  0
   56.5815   31.8182   42.0933 H   0  0  0  0  0  0  0  0  0  0  0  0
   58.3364   31.4212   42.2554 H   0  0  0  0  0  0  0  0  0  0  0  0
   57.8600   29.4540   43.0050 H   0  0  0  0  0  0  0  0  0  0  0  0
   61.6758   28.7498   49.2356 H   0  0  0  0  0  0  0  0  0  0  0  0
   60.2218   28.6464   50.2953 H   0  0  0  0  0  0  0  0  0  0  0  0
   61.7737   26.8136   47.9138 H   0  0  0  0  0  0  0  0  0  0  0  0
   60.7062   25.2620   46.2807 H   0  0  0  0  0  0  0  0  0  0  0  0
   58.1797   23.5725   46.9227 H   0  0  0  0  0  0  0  0  0  0  0  0
   57.1688   21.9335   45.3427 H   0  0  0  0  0  0  0  0  0  0  0  0
   56.5202   22.6484   43.0440 H   0  0  0  0  0  0  0  0  0  0  0  0
   56.8568   25.0093   42.3269 H   0  0  0  0  0  0  0  0  0  0  0  0
   56.0300   28.5730   44.1140 H   0  0  0  0  0  0  0  0  0  0  0  0
   57.4180   29.2620   44.7600 H   0  0  0  0  0  0  0  0  0  0  0  0
   56.9124   27.2733   46.8479 H   0  0  0  0  0  0  0  0  0  0  0  0
   57.9799   28.8284   48.4777 H   0  0  0  0  0  0  0  0  0  0  0  0
  1  2  1  0
  2  3  1  0
  3  4  2  0
  4  5  1  0
  5  6  1  0
  6  7  1  0
  4  8  1  0
  8  9  1  0
  8 10  2  0
 10 11  1  0
 11 12  2  0
 11 13  1  0
 13 14  1  0
 14 15  1  0
 15 16  2  0
 16 17  1  0
 17 18  2  0
 18 19  1  0
 19 20  2  0
 20 21  1  0
 21 22  2  0
 22 23  1  0
 23 24  2  0
 24 25  1  0
 25 26  1  0
 25 27  2  0
 25 28  2  0
 18 29  1  0
 29 30  2  0
 10  2  1  0
 30 15  1  0
 24 19  1  0
  1 31  1  0
  1 32  1  0
  1 33  1  0
  5 34  1  0
  5 35  1  0
  6 36  1  0
  6 37  1  0
  7 38  1  0
 14 39  1  0
 14 40  1  0
 16 41  1  0
 17 42  1  0
 20 43  1  0
 21 44  1  0
 22 45  1  0
 23 46  1  0
 26 47  1  0
 26 48  1  0
 29 49  1  0
 30 50  1  0
M  CHG  1  13  -1
M  END
>  <UniqueID>  (41) 
36

>  <SMILES>  (41) 
Cn1nc(CCO)c(Cl)c1C(=O)[N-]Cc1ccc(-c2ccccc2S(N)(=O)=O)cc1

>  <Energy>  (41) 
84.69153591020147

>  <Genealogy>  (41) 
Cn1nc(CCO)c(Cl)c1C(=O)[N-]Cc1ccc(-c2ccccc2S(N)(=O)=O)cc1 (protonated)
Cn1nc(CCO)c(Cl)c1C(=O)[N-]Cc1ccc(-c2ccccc2S(N)(=O)=O)cc1 (3D coordinates assigned)
Cn1nc(CCO)c(Cl)c1C(=O)[N-]Cc1ccc(-c2ccccc2S(N)(=O)=O)cc1 (optimized conformer: 84.69153591020147 kcal/mol)

>  <smiles>  (41) 
Cn1nc(CCO)c(Cl)c1C(=O)NCc1ccc(-c2ccccc2S(N)(=O)=O)cc1

>  <score_type>  (41) 
oracle

>  <origin>  (41) 
adg

>  <m_score__min__energy>  (41) 
-10.279999999999999

>  <m_primary>  (41) 
energy

$$$$
41:0
     RDKit          3D

 49 52  0  0  1  0  0  0  0  0999 V2000
   59.2570   34.3020   44.8000 N   0  0  0  0  0  0  0  0  0  0  0  0
   59.7630   35.1460   45.8280 C   0  0  0  0  0  0  0  0  0  0  0  0
   59.9160   36.3900   45.6880 O   0  0  0  0  0  0  0  0  0  0  0  0
   60.1260   34.5570   47.1130 C   0  0  0  0  0  0  0  0  0  0  0  0
   59.2410   34.5960   48.1710 C   0  0  0  0  0  0  0  0  0  0  0  0
   59.6190   34.0280   49.3720 C   0  0  0  0  0  0  0  0  0  0  0  0
   60.8430   33.4200   49.5650 C   0  0  0  0  0  0  0  0  0  0  0  0
   61.7240   33.3800   48.5110 C   0  0  0  0  0  0  0  0  0  0  0  0
   62.9650   32.7840   48.6470 C   0  0  0  0  0  0  0  0  0  0  0  0
   63.3520   32.2500   49.7330 N   0  0  0  0  0  0  0  0  0  0  0  0
   63.1750   30.8920   50.1310 C   0  0  0  0  0  0  0  0  0  0  0  0
   61.7360   30.4670   50.0690 C   0  0  0  0  0  0  0  0  0  0  0  0
   60.9610   30.3350   51.2040 C   0  0  0  0  0  0  0  0  0  0  0  0
   59.6260   29.9390   51.1440 C   0  0  0  0  0  0  0  0  0  0  0  0
   59.0400   29.6660   49.9320 C   0  0  0  0  0  0  0  0  0  0  0  0
   59.7900   29.7900   48.7800 C   0  0  0  0  0  0  0  0  0  0  0  0
   59.1510   29.4990   47.5390 N   0  0  0  0  0  0  0  0  0  0  0  0
   58.6280   30.6040   46.8150 C   0  0  0  0  0  0  0  0  0  0  0  0
   58.7650   31.7380   47.3130 O   0  0  0  0  0  0  0  0  0  0  0  0
   57.9480   30.4740   45.5330 C   0  0  0  0  0  0  0  0  0  0  0  0
   58.0520   31.5340   44.6560 C   0  0  0  0  0  0  0  0  0  0  0  0
   57.4480   31.5290   43.4050 C   0  0  0  0  0  0  0  0  0  0  0  0
   56.7180   30.4170   43.0310 C   0  0  0  0  0  0  0  0  0  0  0  0
   56.6320   29.3830   43.9190 C   0  0  0  0  0  0  0  0  0  0  0  0
   57.2250   29.3730   45.1620 C   0  0  0  0  0  0  0  0  0  0  0  0
   61.1100   30.1830   48.8660 C   0  0  0  0  0  0  0  0  0  0  0  0
   63.7810   32.7730   47.5970 N   0  0  0  0  0  0  0  0  0  0  0  0
   63.4270   33.3220   46.4210 C   0  0  0  0  0  0  0  0  0  0  0  0
   62.2140   33.9170   46.2510 N   0  0  0  0  0  0  0  0  0  0  0  0
   61.3510   33.9480   47.3060 C   0  0  0  0  0  0  0  0  0  0  0  0
   58.2320   34.0410   44.7560 H   0  0  0  0  0  0  0  0  0  0  0  0
   59.9480   33.9510   44.0910 H   0  0  0  0  0  0  0  0  0  0  0  0
   58.2545   35.0698   48.0602 H   0  0  0  0  0  0  0  0  0  0  0  0
   58.9117   34.0618   50.2138 H   0  0  0  0  0  0  0  0  0  0  0  0
   61.1066   32.9788   50.5375 H   0  0  0  0  0  0  0  0  0  0  0  0
   63.7642   30.2470   49.4626 H   0  0  0  0  0  0  0  0  0  0  0  0
   63.5106   30.7988   51.1744 H   0  0  0  0  0  0  0  0  0  0  0  0
   61.4106   30.5487   52.1849 H   0  0  0  0  0  0  0  0  0  0  0  0
   59.0399   29.8448   52.0701 H   0  0  0  0  0  0  0  0  0  0  0  0
   57.9868   29.3527   49.8802 H   0  0  0  0  0  0  0  0  0  0  0  0
   59.0540   28.5370   47.1510 H   0  0  0  0  0  0  0  0  0  0  0  0
   58.6351   32.4162   44.9587 H   0  0  0  0  0  0  0  0  0  0  0  0
   57.5485   32.3901   42.7280 H   0  0  0  0  0  0  0  0  0  0  0  0
   56.2224   30.3663   42.0503 H   0  0  0  0  0  0  0  0  0  0  0  0
   56.0498   28.4984   43.6214 H   0  0  0  0  0  0  0  0  0  0  0  0
   57.1209   28.5086   45.8343 H   0  0  0  0  0  0  0  0  0  0  0  0
   61.6918   30.2750   47.9370 H   0  0  0  0  0  0  0  0  0  0  0  0
   64.7020   32.3410   47.6660 H   0  0  0  0  0  0  0  0  0  0  0  0
   64.1330   33.2896   45.5781 H   0  0  0  0  0  0  0  0  0  0  0  0
  1  2  1  0
  2  3  2  0
  2  4  1  0
  4  5  2  0
  5  6  1  0
  6  7  2  0
  7  8  1  0
  8  9  1  0
  9 10  2  0
 10 11  1  0
 11 12  1  0
 12 13  2  0
 13 14  1  0
 14 15  2  0
 15 16  1  0
 16 17  1  0
 17 18  1  0
 18 19  2  0
 18 20  1  0
 20 21  2  0
 21 22  1  0
 22 23  2  0
 23 24  1  0
 24 25  2  0
 16 26  2  0
  9 27  1  0
 27 28  1  0
 28 29  2  0
 29 30  1  0
 30  4  1  0
 30  8  2  0
 26 12  1  0
 25 20  1  0
  1 31  1  0
  1 32  1  0
  5 33  1  0
  6 34  1  0
  7 35  1  0
 11 36  1  0
 11 37  1  0
 13 38  1  0
 14 39  1  0
 15 40  1  0
 17 41  1  0
 21 42  1  0
 22 43  1  0
 23 44  1  0
 24 45  1  0
 25 46  1  0
 26 47  1  0
 27 48  1  0
 28 49  1  0
M  END
>  <smiles>  (42) 
NC(=O)c1cccc2c(=NCc3cccc(NC(=O)c4ccccc4)c3)[nH]cnc12

>  <score_type>  (42) 
oracle

>  <origin>  (42) 
adg

>  <m_score__min__energy>  (42) 
-9.5199999999999996

>  <m_primary>  (42) 
energy

$$$$
42:0
     RDKit          3D

 56 59  0  0  1  0  0  0  0  0999 V2000
   61.1430   29.3250   47.5920 O   0  0  0  0  0  0  0  0  0  0  0  0
   60.6240   30.4380   47.9170 C   0  0  0  0  0  0  0  0  0  0  0  0
   59.2470   30.4560   48.0120 O   0  0  0  0  0  0  0  0  0  0  0  0
   61.5010   31.5610   48.1530 C   0  0  0  0  0  0  0  0  0  0  0  0
   62.7350   31.6150   47.5070 C   0  0  0  0  0  0  0  0  0  0  0  0
   63.6260   32.6470   47.6960 C   0  0  0  0  0  0  0  0  0  0  0  0
   63.3320   33.6890   48.5480 C   0  0  0  0  0  0  0  0  0  0  0  0
   62.1210   33.6510   49.1930 C   0  0  0  0  0  0  0  0  0  0  0  0
   61.2190   32.6070   49.0000 C   0  0  0  0  0  0  0  0  0  0  0  0
   59.7020   32.6750   49.8580 S   0  0  0  0  0  0  0  0  0  0  0  0
   59.4630   31.4850   50.7400 O   0  0  0  0  0  0  0  0  0  0  0  0
   59.7250   33.8830   50.7450 O   0  0  0  0  0  0  0  0  0  0  0  0
   58.3810   32.9270   48.7730 N   0  0  0  0  0  0  0  0  0  0  0  0
   58.5930   33.3350   47.5870 C   0  0  0  0  0  0  0  0  0  0  0  0
   59.0390   34.6100   47.4130 N   0  0  0  0  0  0  0  0  0  0  0  0
   59.2780   35.0890   46.1660 C   0  0  0  0  0  0  0  0  0  0  0  0
   59.7370   36.3880   45.9520 O   0  0  0  0  0  0  0  0  0  0  0  0
   59.0690   34.2820   45.0470 C   0  0  0  0  0  0  0  0  0  0  0  0
   58.6150   32.9890   45.2460 C   0  0  0  0  0  0  0  0  0  0  0  0
   58.4050   32.1960   44.2370 N   0  0  0  0  0  0  0  0  0  0  0  0
   57.9840   30.8620   44.5420 C   0  0  0  0  0  0  0  0  0  0  0  0
   56.6630   30.4690   44.4720 C   0  0  0  0  0  0  0  0  0  0  0  0
   56.3170   29.1510   44.7840 C   0  0  0  0  0  0  0  0  0  0  0  0
   57.2850   28.2520   45.1580 C   0  0  0  0  0  0  0  0  0  0  0  0
   56.9810   26.5910   45.5700 S   0  0  0  0  0  0  0  0  0  0  0  0
   55.5320   26.4990   46.0440 O   0  0  0  0  0  0  0  0  0  0  0  0
   57.8890   26.1550   46.6970 O   0  0  0  0  0  0  0  0  0  0  0  0
   57.1400   25.5920   44.2060 N   0  0  0  0  0  0  0  0  0  0  0  0
   57.4120   24.2210   44.1720 C   0  0  0  0  0  0  0  0  0  0  0  0
   58.3400   23.5500   44.9150 C   0  0  0  0  0  0  0  0  0  0  0  0
   58.5240   22.1800   44.8190 C   0  0  0  0  0  0  0  0  0  0  0  0
   57.7560   21.4500   43.9510 C   0  0  0  0  0  0  0  0  0  0  0  0
   56.7970   22.0950   43.1740 C   0  0  0  0  0  0  0  0  0  0  0  0
   56.6480   23.4470   43.3000 C   0  0  0  0  0  0  0  0  0  0  0  0
   58.6010   28.6910   45.2160 C   0  0  0  0  0  0  0  0  0  0  0  0
   58.9740   29.9800   44.9160 C   0  0  0  0  0  0  0  0  0  0  0  0
   58.3980   32.5750   46.4950 N   0  0  0  0  0  0  0  0  0  0  0  0
   58.7760   30.8060   48.8180 H   0  0  0  0  0  0  0  0  0  0  0  0
   63.0075   30.8009   46.8192 H   0  0  0  0  0  0  0  0  0  0  0  0
   64.5862   32.6397   47.1593 H   0  0  0  0  0  0  0  0  0  0  0  0
   64.0386   34.5173   48.7049 H   0  0  0  0  0  0  0  0  0  0  0  0
   61.8555   34.4671   49.8811 H   0  0  0  0  0  0  0  0  0  0  0  0
   59.2120   35.2550   48.2010 H   0  0  0  0  0  0  0  0  0  0  0  0
   59.6450   37.0470   46.7320 H   0  0  0  0  0  0  0  0  0  0  0  0
   59.2600   34.6631   44.0330 H   0  0  0  0  0  0  0  0  0  0  0  0
   55.8868   31.1886   44.1725 H   0  0  0  0  0  0  0  0  0  0  0  0
   55.2654   28.8330   44.7297 H   0  0  0  0  0  0  0  0  0  0  0  0
   57.0200   26.0610   43.2550 H   0  0  0  0  0  0  0  0  0  0  0  0
   58.9664   24.1193   45.6176 H   0  0  0  0  0  0  0  0  0  0  0  0
   59.2841   21.6805   45.4376 H   0  0  0  0  0  0  0  0  0  0  0  0
   57.8957   20.3621   43.8682 H   0  0  0  0  0  0  0  0  0  0  0  0
   56.1706   21.5259   42.4713 H   0  0  0  0  0  0  0  0  0  0  0  0
   55.8882   23.9494   42.6834 H   0  0  0  0  0  0  0  0  0  0  0  0
   59.3806   27.9751   45.5155 H   0  0  0  0  0  0  0  0  0  0  0  0
   60.0261   30.2959   44.9727 H   0  0  0  0  0  0  0  0  0  0  0  0
   58.0570   31.5970   46.6200 H   0  0  0  0  0  0  0  0  0  0  0  0
  1  2  2  0
  2  3  1  0
  2  4  1  0
  4  5  2  0
  5  6  1  0
  6  7  2  0
  7  8  1  0
  8  9  2  0
  9 10  1  0
 10 11  2  0
 10 12  2  0
 10 13  1  0
 13 14  2  0
 14 15  1  0
 15 16  1  0
 16 17  1  0
 16 18  2  0
 18 19  1  0
 19 20  2  0
 20 21  1  0
 21 22  2  0
 22 23  1  0
 23 24  2  0
 24 25  1  0
 25 26  2  0
 25 27  2  0
 25 28  1  0
 28 29  1  0
 29 30  2  0
 30 31  1  0
 31 32  2  0
 32 33  1  0
 33 34  2  0
 24 35  1  0
 35 36  2  0
 19 37  1  0
  9  4  1  0
 37 14  1  0
 36 21  1  0
 34 29  1  0
  3 38  1  0
  5 39  1  0
  6 40  1  0
  7 41  1  0
  8 42  1  0
 15 43  1  0
 17 44  1  0
 18 45  1  0
 22 46  1  0
 23 47  1  0
 28 48  1  0
 30 49  1  0
 31 50  1  0
 32 51  1  0
 33 52  1  0
 34 53  1  0
 35 54  1  0
 36 55  1  0
 37 56  1  0
M  END
>  <smiles>  (43) 
O=C(O)c1ccccc1S(=O)(=O)N=c1[nH]c(O)cc(=Nc2ccc(S(=O)(=O)Nc3ccccc3)cc2)[nH]1

>  <score_type>  (43) 
oracle

>  <origin>  (43) 
adg

>  <m_score__min__energy>  (43) 
-11.67

>  <m_primary>  (43) 
energy

$$$$
43:0
     RDKit          3D

 55 57  0  0  0  0  0  0  0  0999 V2000
   51.4180   33.1960   50.7410 H   0  0  0  0  0  0  0  0  0  0  0  0
   51.0180   32.3860   51.2610 N   0  0  0  0  0  0  0  0  0  0  0  0
   51.7430   31.1620   51.3690 C   0  0  0  0  0  0  0  0  0  0  0  0
   51.7960   30.3730   50.3890 O   0  0  0  0  0  0  0  0  0  0  0  0
   52.4980   30.8530   52.6190 C   0  0  0  0  0  0  0  0  0  0  0  0
   51.8003   30.5082   53.3964 H   0  0  0  0  0  0  0  0  0  0  0  0
   53.0152   31.7560   52.9756 H   0  0  0  0  0  0  0  0  0  0  0  0
   53.4490   29.8290   52.3410 O   0  0  0  0  0  0  0  0  0  0  0  0
   54.8370   30.0170   52.3050 C   0  0  0  0  0  0  0  0  0  0  0  0
   55.3280   31.1890   51.7200 C   0  0  0  0  0  0  0  0  0  0  0  0
   54.6244   31.9491   51.3495 H   0  0  0  0  0  0  0  0  0  0  0  0
   56.7020   31.4030   51.6020 C   0  0  0  0  0  0  0  0  0  0  0  0
   57.0743   32.3304   51.1422 H   0  0  0  0  0  0  0  0  0  0  0  0
   57.6100   30.4410   52.0670 C   0  0  0  0  0  0  0  0  0  0  0  0
   59.0900   30.6440   51.8770 C   0  0  0  0  0  0  0  0  0  0  0  0
   59.4602   31.3182   52.6634 H   0  0  0  0  0  0  0  0  0  0  0  0
   59.2492   31.0749   50.8775 H   0  0  0  0  0  0  0  0  0  0  0  0
   59.8640   29.3210   51.9530 C   0  0  0  0  0  0  0  0  0  0  0  0
   59.1780   28.5256   52.2797 H   0  0  0  0  0  0  0  0  0  0  0  0
   60.6903   29.4492   52.6677 H   0  0  0  0  0  0  0  0  0  0  0  0
   60.4370   28.9500   50.6570 N   0  0  0  0  0  0  0  0  0  0  0  0
   60.5700   29.7500   49.6390 C   0  0  0  0  0  0  0  0  0  0  0  0
   59.6450   29.7560   48.6400 N   0  0  0  0  0  0  0  0  0  0  0  0
   59.7190   30.6020   47.5780 C   0  0  0  0  0  0  0  0  0  0  0  0
   58.6760   30.5410   46.5280 C   0  0  0  0  0  0  0  0  0  0  0  0
   58.5040   31.6210   45.6490 C   0  0  0  0  0  0  0  0  0  0  0  0
   59.1439   32.5107   45.7441 H   0  0  0  0  0  0  0  0  0  0  0  0
   57.5250   31.5730   44.6540 C   0  0  0  0  0  0  0  0  0  0  0  0
   57.4021   32.4205   43.9636 H   0  0  0  0  0  0  0  0  0  0  0  0
   56.7030   30.4530   44.5340 C   0  0  0  0  0  0  0  0  0  0  0  0
   55.9268   30.4260   43.7551 H   0  0  0  0  0  0  0  0  0  0  0  0
   56.8590   29.3630   45.3980 C   0  0  0  0  0  0  0  0  0  0  0  0
   55.9910   28.2330   45.2360 N   0  0  0  0  0  0  0  0  0  0  0  0
   56.3170   26.6210   45.7910 S   0  0  0  0  0  0  0  0  0  0  0  0
   55.0240   25.8730   45.9560 O   0  0  0  0  0  0  0  0  0  0  0  0
   57.0050   26.7000   47.1240 O   0  0  0  0  0  0  0  0  0  0  0  0
   57.3860   25.7600   44.6500 C   0  0  0  0  0  0  0  0  0  0  0  0
   58.1219   25.1673   45.2131 H   0  0  0  0  0  0  0  0  0  0  0  0
   56.7841   25.0916   44.0168 H   0  0  0  0  0  0  0  0  0  0  0  0
   57.9108   26.4905   44.0168 H   0  0  0  0  0  0  0  0  0  0  0  0
   57.8580   29.4070   46.3880 C   0  0  0  0  0  0  0  0  0  0  0  0
   57.9999   28.5463   47.0581 H   0  0  0  0  0  0  0  0  0  0  0  0
   60.7830   31.5090   47.4960 C   0  0  0  0  0  0  0  0  0  0  0  0
   60.8471   32.2082   46.6492 H   0  0  0  0  0  0  0  0  0  0  0  0
   61.7660   31.5240   48.4950 C   0  0  0  0  0  0  0  0  0  0  0  0
   62.9050   32.5020   48.4070 C   0  0  0  0  0  0  0  0  0  0  0  0
   63.2287   32.7800   49.4209 H   0  0  0  0  0  0  0  0  0  0  0  0
   63.7448   32.0393   47.8679 H   0  0  0  0  0  0  0  0  0  0  0  0
   62.5746   33.4021   47.8679 H   0  0  0  0  0  0  0  0  0  0  0  0
   61.6570   30.6370   49.5840 C   0  0  0  0  0  0  0  0  0  0  0  0
   62.8580   30.6420   50.8800 Cl  0  0  0  0  0  0  0  0  0  0  0  0
   57.1240   29.2730   52.6820 C   0  0  0  0  0  0  0  0  0  0  0  0
   57.8290   28.5223   53.0686 H   0  0  0  0  0  0  0  0  0  0  0  0
   55.7460   29.0640   52.8030 C   0  0  0  0  0  0  0  0  0  0  0  0
   55.3711   28.1513   53.2892 H   0  0  0  0  0  0  0  0  0  0  0  0
  1  2  1  0
  2  3  1  0
  3  4  2  0
  3  5  1  0
  5  6  1  0
  5  7  1  0
  5  8  1  0
  8  9  1  0
  9 10  2  0
 10 11  1  0
 10 12  1  0
 12 13  1  0
 12 14  2  0
 14 15  1  0
 15 16  1  0
 15 17  1  0
 15 18  1  0
 18 19  1  0
 18 20  1  0
 18 21  1  0
 21 22  2  0
 22 23  1  0
 23 24  1  0
 24 25  1  0
 25 26  2  0
 26 27  1  0
 26 28  1  0
 28 29  1  0
 28 30  2  0
 30 31  1  0
 30 32  1  0
 32 33  1  0
 33 34  1  0
 34 35  2  0
 34 36  2  0
 34 37  1  0
 37 38  1  0
 37 39  1  0
 37 40  1  0
 32 41  2  0
 41 42  1  0
 24 43  2  0
 43 44  1  0
 43 45  1  0
 45 46  1  0
 46 47  1  0
 46 48  1  0
 46 49  1  0
 45 50  2  0
 50 51  1  0
 14 52  1  0
 52 53  1  0
 52 54  2  0
 54 55  1  0
 54  9  1  0
 50 22  1  0
 41 25  1  0
M  CHG  3   2  -1  23  -1  33  -1
M  END
>  <UniqueID>  (44) 
37

>  <SMILES>  (44) 
Cc1cc(-c2cccc([N-]S(C)(=O)=O)c2)[n-]/c(=N\CCc2ccc(OCC([NH-])=O)cc2)c1Cl

>  <Energy>  (44) 
57.07986911262707

>  <Genealogy>  (44) 
Cc1cc(-c2cccc([N-]S(C)(=O)=O)c2)[n-]c(=NCCc2ccc(OCC([NH-])=O)cc2)c1Cl (protonated)
Cc1cc(-c2cccc([N-]S(C)(=O)=O)c2)[n-]/c(=N\CCc2ccc(OCC([NH-])=O)cc2)c1Cl (cis-trans isomerization)
Cc1cc(-c2cccc([N-]S(C)(=O)=O)c2)[n-]/c(=N\CCc2ccc(OCC([NH-])=O)cc2)c1Cl (3D coordinates assigned)
Cc1cc(-c2cccc([N-]S(C)(=O)=O)c2)[n-]/c(=N\CCc2ccc(OCC([NH-])=O)cc2)c1Cl (optimized conformer: 57.07986911262707 kcal/mol)

>  <smiles>  (44) 
Cc1cc(-c2cccc(NS(C)(=O)=O)c2)[nH]c(=NCCc2ccc(OCC(N)=O)cc2)c1Cl

>  <score_type>  (44) 
oracle

>  <origin>  (44) 
adg

>  <m_score__min__energy>  (44) 
-16.149999999999999

>  <m_primary>  (44) 
energy

$$$$
44:0
     RDKit          3D

 46 48  0  0  0  0  0  0  0  0999 V2000
   55.2070   29.3370   44.8630 N   0  0  0  0  0  0  0  0  0  0  0  0
   56.8810   29.5570   44.5110 S   0  0  0  0  0  0  0  0  0  0  0  0
   57.0740   29.7220   43.0300 O   0  0  0  0  0  0  0  0  0  0  0  0
   57.3480   30.8130   45.1960 O   0  0  0  0  0  0  0  0  0  0  0  0
   57.8220   28.1660   45.0800 C   0  0  0  0  0  0  0  0  0  0  0  0
   57.1610   26.9350   45.2340 C   0  0  0  0  0  0  0  0  0  0  0  0
   57.8310   25.8210   45.7370 C   0  0  0  0  0  0  0  0  0  0  0  0
   59.1700   25.9200   46.1050 C   0  0  0  0  0  0  0  0  0  0  0  0
   59.8470   27.1300   45.9600 C   0  0  0  0  0  0  0  0  0  0  0  0
   59.1970   28.2640   45.4350 C   0  0  0  0  0  0  0  0  0  0  0  0
   60.0170   29.5200   45.2300 C   0  0  0  0  0  0  0  0  0  0  0  0
   60.0710   30.3440   46.4860 C   0  0  0  0  0  0  0  0  0  0  0  0
   61.0630   31.0920   46.6950 O   0  0  0  0  0  0  0  0  0  0  0  0
   58.9730   30.3320   47.4100 N   0  0  0  0  0  0  0  0  0  0  0  0
   59.0220   31.0130   48.6700 C   0  0  0  0  0  0  0  0  0  0  0  0
   59.1780   30.2540   49.8400 C   0  0  0  0  0  0  0  0  0  0  0  0
   59.2040   30.8750   51.0900 C   0  0  0  0  0  0  0  0  0  0  0  0
   59.0880   32.2620   51.1830 C   0  0  0  0  0  0  0  0  0  0  0  0
   58.9600   33.0340   50.0260 C   0  0  0  0  0  0  0  0  0  0  0  0
   58.9320   32.4250   48.7600 C   0  0  0  0  0  0  0  0  0  0  0  0
   58.8910   33.2550   47.5850 N   0  0  0  0  0  0  0  0  0  0  0  0
   57.7360   33.1340   46.6790 C   0  0  0  0  0  0  0  0  0  0  0  0
   57.6880   34.2500   45.6290 C   0  0  0  0  0  0  0  0  0  0  0  0
   58.9820   34.6020   45.1920 O   0  0  0  0  0  0  0  0  0  0  0  0
   59.6680   35.2160   46.2590 C   0  0  0  0  0  0  0  0  0  0  0  0
   59.9980   34.1940   47.3470 C   0  0  0  0  0  0  0  0  0  0  0  0
   55.1460   28.6320   45.6320 H   0  0  0  0  0  0  0  0  0  0  0  0
   56.1007   26.8497   44.9538 H   0  0  0  0  0  0  0  0  0  0  0  0
   57.3013   24.8628   45.8433 H   0  0  0  0  0  0  0  0  0  0  0  0
   59.6945   25.0423   46.5107 H   0  0  0  0  0  0  0  0  0  0  0  0
   60.9031   27.2001   46.2596 H   0  0  0  0  0  0  0  0  0  0  0  0
   61.0403   29.2375   44.9417 H   0  0  0  0  0  0  0  0  0  0  0  0
   59.5434   30.1204   44.4392 H   0  0  0  0  0  0  0  0  0  0  0  0
   58.0440   29.9990   47.0720 H   0  0  0  0  0  0  0  0  0  0  0  0
   59.2806   29.1609   49.7716 H   0  0  0  0  0  0  0  0  0  0  0  0
   59.3160   30.2703   52.0020 H   0  0  0  0  0  0  0  0  0  0  0  0
   59.0974   32.7487   52.1694 H   0  0  0  0  0  0  0  0  0  0  0  0
   58.8804   34.1282   50.1066 H   0  0  0  0  0  0  0  0  0  0  0  0
   57.7953   32.1656   46.1607 H   0  0  0  0  0  0  0  0  0  0  0  0
   56.8248   33.2134   47.2900 H   0  0  0  0  0  0  0  0  0  0  0  0
   57.1006   33.9040   44.7657 H   0  0  0  0  0  0  0  0  0  0  0  0
   57.2244   35.1362   46.0870 H   0  0  0  0  0  0  0  0  0  0  0  0
   60.6026   35.6567   45.8818 H   0  0  0  0  0  0  0  0  0  0  0  0
   59.0252   35.9975   46.6904 H   0  0  0  0  0  0  0  0  0  0  0  0
   60.8861   33.6230   47.0383 H   0  0  0  0  0  0  0  0  0  0  0  0
   60.1793   34.7444   48.2820 H   0  0  0  0  0  0  0  0  0  0  0  0
  1  2  1  0
  2  3  2  0
  2  4  2  0
  2  5  1  0
  5  6  2  0
  6  7  1  0
  7  8  2  0
  8  9  1  0
  9 10  2  0
 10 11  1  0
 11 12  1  0
 12 13  2  0
 12 14  1  0
 14 15  1  0
 15 16  2  0
 16 17  1  0
 17 18  2  0
 18 19  1  0
 19 20  2  0
 20 21  1  0
 21 22  1  0
 22 23  1  0
 23 24  1  0
 24 25  1  0
 25 26  1  0
 10  5  1  0
 20 15  1  0
 26 21  1  0
  1 27  1  0
  6 28  1  0
  7 29  1  0
  8 30  1  0
  9 31  1  0
 11 32  1  0
 11 33  1  0
 14 34  1  0
 16 35  1  0
 17 36  1  0
 18 37  1  0
 19 38  1  0
 22 39  1  0
 22 40  1  0
 23 41  1  0
 23 42  1  0
 25 43  1  0
 25 44  1  0
 26 45  1  0
 26 46  1  0
M  CHG  1   1  -1
M  END
>  <UniqueID>  (45) 
38

>  <SMILES>  (45) 
[NH-]S(=O)(=O)c1ccccc1CC(=O)Nc1ccccc1N1CCOCC1

>  <Energy>  (45) 
58.083098673060896

>  <Genealogy>  (45) 
[NH-]S(=O)(=O)c1ccccc1CC(=O)Nc1ccccc1N1CCOCC1 (protonated)
[NH-]S(=O)(=O)c1ccccc1CC(=O)Nc1ccccc1N1CCOCC1 (3D coordinates assigned)
[NH-]S(=O)(=O)c1ccccc1CC(=O)Nc1ccccc1N1CCOCC1 (nonaromatic ring conformer: 58.083098673060896 kcal/mol)

>  <smiles>  (45) 
NS(=O)(=O)c1ccccc1CC(=O)Nc1ccccc1N1CCOCC1

>  <score_type>  (45) 
oracle

>  <origin>  (45) 
adg

>  <m_score__min__energy>  (45) 
-11.26

>  <m_primary>  (45) 
energy

$$$$
45:0
     RDKit          3D

 54 56  0  0  0  0  0  0  0  0999 V2000
   55.1660   26.6130   45.9520 N   0  0  0  0  0  0  0  0  0  0  0  0
   56.4940   25.5840   46.3600 S   0  0  0  0  0  0  0  0  0  0  0  0
   56.9940   24.8970   45.1200 O   0  0  0  0  0  0  0  0  0  0  0  0
   56.0370   24.5390   47.3390 O   0  0  0  0  0  0  0  0  0  0  0  0
   57.7810   26.5450   47.0770 C   0  0  0  0  0  0  0  0  0  0  0  0
   58.8410   25.9210   47.7390 C   0  0  0  0  0  0  0  0  0  0  0  0
   59.8490   26.6870   48.3230 C   0  0  0  0  0  0  0  0  0  0  0  0
   59.8200   28.0920   48.2530 C   0  0  0  0  0  0  0  0  0  0  0  0
   60.8210   28.8670   48.9410 N   0  0  0  0  0  0  0  0  0  0  0  0
   61.4320   28.4390   50.2030 C   0  0  0  0  0  0  0  0  0  0  0  0
   61.3930   29.5580   51.2560 C   0  0  0  0  0  0  0  0  0  0  0  0
   60.6390   30.7830   50.7990 C   0  0  0  0  0  0  0  0  0  0  0  0
   61.1950   31.5480   49.9640 O   0  0  0  0  0  0  0  0  0  0  0  0
   59.2750   31.1150   51.2820 C   0  0  0  0  0  0  0  0  0  0  0  0
   58.8830   32.4460   51.5230 C   0  0  0  0  0  0  0  0  0  0  0  0
   57.6040   32.7290   52.0110 C   0  0  0  0  0  0  0  0  0  0  0  0
   56.7010   31.6920   52.2600 C   0  0  0  0  0  0  0  0  0  0  0  0
   57.0730   30.3690   52.0110 C   0  0  0  0  0  0  0  0  0  0  0  0
   56.1750   29.3380   52.2580 O   0  0  0  0  0  0  0  0  0  0  0  0
   58.3500   30.0800   51.5200 C   0  0  0  0  0  0  0  0  0  0  0  0
   58.7890   28.7220   47.5140 C   0  0  0  0  0  0  0  0  0  0  0  0
   58.7450   30.4800   47.2930 S   0  0  0  0  0  0  0  0  0  0  0  0
   58.4450   31.1370   48.6110 O   0  0  0  0  0  0  0  0  0  0  0  0
   60.0740   30.9760   46.7940 O   0  0  0  0  0  0  0  0  0  0  0  0
   57.5120   30.9470   46.1660 N   0  0  0  0  0  0  0  0  0  0  0  0
   57.7290   31.5650   44.8880 C   0  0  0  0  0  0  0  0  0  0  0  0
   58.4070   32.7940   44.7700 C   0  0  0  0  0  0  0  0  0  0  0  0
   58.6240   33.3650   43.5150 C   0  0  0  0  0  0  0  0  0  0  0  0
   58.1680   32.7210   42.3640 C   0  0  0  0  0  0  0  0  0  0  0  0
   57.5000   31.4990   42.4650 C   0  0  0  0  0  0  0  0  0  0  0  0
   57.2790   30.9130   43.7220 C   0  0  0  0  0  0  0  0  0  0  0  0
   56.4500   29.3570   43.8290 S   0  0  0  0  0  0  0  0  0  0  0  0
   55.1400   29.4850   44.9480 N   0  0  0  0  0  0  0  0  0  0  0  0
   55.9250   28.9750   42.4740 O   0  0  0  0  0  0  0  0  0  0  0  0
   57.3950   28.2890   44.3030 O   0  0  0  0  0  0  0  0  0  0  0  0
   57.7650   27.9380   46.9570 C   0  0  0  0  0  0  0  0  0  0  0  0
   55.5340   27.3390   45.2980 H   0  0  0  0  0  0  0  0  0  0  0  0
   58.8805   24.8234   47.7997 H   0  0  0  0  0  0  0  0  0  0  0  0
   60.6777   26.1865   48.8453 H   0  0  0  0  0  0  0  0  0  0  0  0
   60.9920   29.8570   48.6570 H   0  0  0  0  0  0  0  0  0  0  0  0
   60.8834   27.5667   50.5879 H   0  0  0  0  0  0  0  0  0  0  0  0
   62.4844   28.1851   50.0082 H   0  0  0  0  0  0  0  0  0  0  0  0
   60.9075   29.1674   52.1625 H   0  0  0  0  0  0  0  0  0  0  0  0
   62.4324   29.8662   51.4419 H   0  0  0  0  0  0  0  0  0  0  0  0
   59.5873   33.2677   51.3261 H   0  0  0  0  0  0  0  0  0  0  0  0
   57.3074   33.7713   52.1996 H   0  0  0  0  0  0  0  0  0  0  0  0
   55.6982   31.9175   52.6517 H   0  0  0  0  0  0  0  0  0  0  0  0
   58.6342   29.0367   51.3182 H   0  0  0  0  0  0  0  0  0  0  0  0
   58.7680   33.3074   45.6734 H   0  0  0  0  0  0  0  0  0  0  0  0
   59.1555   34.3246   43.4330 H   0  0  0  0  0  0  0  0  0  0  0  0
   58.3349   33.1763   41.3766 H   0  0  0  0  0  0  0  0  0  0  0  0
   57.1450   30.9927   41.5553 H   0  0  0  0  0  0  0  0  0  0  0  0
   55.2220   28.6800   45.6080 H   0  0  0  0  0  0  0  0  0  0  0  0
   56.9393   28.4267   46.4191 H   0  0  0  0  0  0  0  0  0  0  0  0
  1  2  1  0
  2  3  2  0
  2  4  2  0
  2  5  1  0
  5  6  2  0
  6  7  1  0
  7  8  2  0
  8  9  1  0
  9 10  1  0
 10 11  1  0
 11 12  1  0
 12 13  2  0
 12 14  1  0
 14 15  2  0
 15 16  1  0
 16 17  2  0
 17 18  1  0
 18 19  1  0
 18 20  2  0
  8 21  1  0
 21 22  1  0
 22 23  2  0
 22 24  2  0
 22 25  1  0
 25 26  1  0
 26 27  2  0
 27 28  1  0
 28 29  2  0
 29 30  1  0
 30 31  2  0
 31 32  1  0
 32 33  1  0
 32 34  2  0
 32 35  2  0
 21 36  2  0
 36  5  1  0
 20 14  1  0
 31 26  1  0
  1 37  1  0
  6 38  1  0
  7 39  1  0
  9 40  1  0
 10 41  1  0
 10 42  1  0
 11 43  1  0
 11 44  1  0
 15 45  1  0
 16 46  1  0
 17 47  1  0
 20 48  1  0
 27 49  1  0
 28 50  1  0
 29 51  1  0
 30 52  1  0
 33 53  1  0
 36 54  1  0
M  CHG  4   1  -1  19  -1  25  -1  33  -1
M  END
>  <UniqueID>  (46) 
39

>  <SMILES>  (46) 
[NH-]S(=O)(=O)c1ccc(NCCC(=O)c2cccc([O-])c2)c(S(=O)(=O)[N-]c2ccccc2S([NH-])(=O)=O)c1

>  <Energy>  (46) 
59.9494986759463

>  <Genealogy>  (46) 
[NH-]S(=O)(=O)c1ccc(NCCC(=O)c2cccc([O-])c2)c(S(=O)(=O)[N-]c2ccccc2S([NH-])(=O)=O)c1 (protonated)
[NH-]S(=O)(=O)c1ccc(NCCC(=O)c2cccc([O-])c2)c(S(=O)(=O)[N-]c2ccccc2S([NH-])(=O)=O)c1 (3D coordinates assigned)
[NH-]S(=O)(=O)c1ccc(NCCC(=O)c2cccc([O-])c2)c(S(=O)(=O)[N-]c2ccccc2S([NH-])(=O)=O)c1 (optimized conformer: 59.9494986759463 kcal/mol)

>  <smiles>  (46) 
NS(=O)(=O)c1ccc(NCCC(=O)c2cccc(O)c2)c(S(=O)(=O)Nc2ccccc2S(N)(=O)=O)c1

>  <score_type>  (46) 
oracle

>  <origin>  (46) 
adg

>  <m_score__min__energy>  (46) 
-19.73

>  <m_primary>  (46) 
energy

$$$$
46:0
     RDKit          3D

 36 37  0  0  1  0  0  0  0  0999 V2000
   59.8550   27.0150   47.8490 C   0  0  0  0  0  0  0  0  0  0  0  0
   58.7540   27.3230   46.9220 C   0  0  0  0  0  0  0  0  0  0  0  0
   58.9240   28.3810   46.0250 C   0  0  0  0  0  0  0  0  0  0  0  0
   57.9010   28.6820   45.1510 C   0  0  0  0  0  0  0  0  0  0  0  0
   58.0850   29.6610   44.3380 N   0  0  0  0  0  0  0  0  0  0  0  0
   57.1190   30.6630   44.0650 C   0  0  0  0  0  0  0  0  0  0  0  0
   55.9520   30.4550   44.4890 O   0  0  0  0  0  0  0  0  0  0  0  0
   57.5260   31.8710   43.3120 C   0  0  0  0  0  0  0  0  0  0  0  0
   58.4890   32.6240   44.0630 O   0  0  0  0  0  0  0  0  0  0  0  0
   58.0430   33.1550   45.2700 C   0  0  0  0  0  0  0  0  0  0  0  0
   56.8470   33.5980   45.2580 O   0  0  0  0  0  0  0  0  0  0  0  0
   58.8740   33.2060   46.4690 C   0  0  0  0  0  0  0  0  0  0  0  0
   58.8820   32.0130   47.2980 C   0  0  0  0  0  0  0  0  0  0  0  0
   58.8690   31.0570   47.9680 N   0  0  0  0  0  0  0  0  0  0  0  0
   59.5910   34.2650   46.8090 C   0  0  0  0  0  0  0  0  0  0  0  0
   60.9870   34.0000   47.1950 C   0  0  0  0  0  0  0  0  0  0  0  0
   62.0770   33.8040   46.3930 C   0  0  0  0  0  0  0  0  0  0  0  0
   63.2660   33.5750   46.9430 C   0  0  0  0  0  0  0  0  0  0  0  0
   63.2850   33.5590   48.3500 C   0  0  0  0  0  0  0  0  0  0  0  0
   61.5530   33.8790   48.8560 S   0  0  0  0  0  0  0  0  0  0  0  0
   56.7380   28.0080   45.1130 N   0  0  0  0  0  0  0  0  0  0  0  0
   56.6020   26.9910   45.9910 C   0  0  0  0  0  0  0  0  0  0  0  0
   55.5280   26.3200   46.0010 O   0  0  0  0  0  0  0  0  0  0  0  0
   57.5870   26.6620   46.8690 N   0  0  0  0  0  0  0  0  0  0  0  0
   59.5003   27.1142   48.8855 H   0  0  0  0  0  0  0  0  0  0  0  0
   60.2018   25.9853   47.6772 H   0  0  0  0  0  0  0  0  0  0  0  0
   60.6858   27.7152   47.6772 H   0  0  0  0  0  0  0  0  0  0  0  0
   59.8572   28.9632   46.0164 H   0  0  0  0  0  0  0  0  0  0  0  0
   57.9704   31.5681   42.3524 H   0  0  0  0  0  0  0  0  0  0  0  0
   56.6399   32.4983   43.1351 H   0  0  0  0  0  0  0  0  0  0  0  0
   59.1698   35.2812   46.8036 H   0  0  0  0  0  0  0  0  0  0  0  0
   61.9710   33.8356   45.2986 H   0  0  0  0  0  0  0  0  0  0  0  0
   64.1712   33.4097   46.3403 H   0  0  0  0  0  0  0  0  0  0  0  0
   64.1526   33.3907   49.0050 H   0  0  0  0  0  0  0  0  0  0  0  0
   56.0000   28.2810   44.4300 H   0  0  0  0  0  0  0  0  0  0  0  0
   57.4590   25.8720   47.5380 H   0  0  0  0  0  0  0  0  0  0  0  0
  1  2  1  0
  2  3  2  0
  3  4  1  0
  4  5  2  0
  5  6  1  0
  6  7  2  0
  6  8  1  0
  8  9  1  0
  9 10  1  0
 10 11  2  0
 10 12  1  0
 12 13  1  0
 13 14  3  0
 12 15  2  0
 15 16  1  0
 16 17  2  0
 17 18  1  0
 18 19  2  0
 19 20  1  0
  4 21  1  0
 21 22  1  0
 22 23  2  0
 22 24  1  0
 24  2  1  0
 20 16  1  0
  1 25  1  0
  1 26  1  0
  1 27  1  0
  3 28  1  0
  8 29  1  0
  8 30  1  0
 15 31  1  0
 17 32  1  0
 18 33  1  0
 19 34  1  0
 21 35  1  0
 24 36  1  0
M  END
>  <smiles>  (47) 
Cc1cc(=NC(=O)COC(=O)C(C#N)=Cc2cccs2)[nH]c(=O)[nH]1

>  <score_type>  (47) 
oracle

>  <origin>  (47) 
adg

>  <m_score__min__energy>  (47) 
-7.7599999999999998

>  <m_primary>  (47) 
energy

$$$$
47:0
     RDKit          3D

 43 44  0  0  0  0  0  0  0  0999 V2000
   58.7660   21.7830   44.0510 C   0  0  0  0  0  0  0  0  0  0  0  0
   58.9420   22.9320   44.9990 C   0  0  0  0  0  0  0  0  0  0  0  0
   60.0430   23.0450   45.6030 O   0  0  0  0  0  0  0  0  0  0  0  0
   57.8630   23.9280   45.2350 C   0  0  0  0  0  0  0  0  0  0  0  0
   56.5770   23.4960   45.6020 C   0  0  0  0  0  0  0  0  0  0  0  0
   55.5590   24.4190   45.8480 C   0  0  0  0  0  0  0  0  0  0  0  0
   55.8070   25.7890   45.7400 C   0  0  0  0  0  0  0  0  0  0  0  0
   54.7740   26.6830   46.0000 O   0  0  0  0  0  0  0  0  0  0  0  0
   57.0880   26.2470   45.3780 C   0  0  0  0  0  0  0  0  0  0  0  0
   57.3850   27.7230   45.2520 C   0  0  0  0  0  0  0  0  0  0  0  0
   57.8180   28.1940   43.5350 S   0  0  0  0  0  0  0  0  0  0  0  0
   56.7000   29.6350   43.3970 C   0  0  0  0  0  0  0  0  0  0  0  0
   57.1270   30.7120   44.3420 C   0  0  0  0  0  0  0  0  0  0  0  0
   57.0370   30.5270   45.5850 O   0  0  0  0  0  0  0  0  0  0  0  0
   57.6350   31.9480   43.8280 N   0  0  0  0  0  0  0  0  0  0  0  0
   57.3810   33.2450   44.4460 C   0  0  0  0  0  0  0  0  0  0  0  0
   58.3380   33.4800   45.5820 C   0  0  0  0  0  0  0  0  0  0  0  0
   59.5330   34.1880   45.3760 C   0  0  0  0  0  0  0  0  0  0  0  0
   60.4070   34.4210   46.4420 C   0  0  0  0  0  0  0  0  0  0  0  0
   60.1040   33.9420   47.7240 C   0  0  0  0  0  0  0  0  0  0  0  0
   61.0230   34.2270   48.8750 C   0  0  0  0  0  0  0  0  0  0  0  0
   58.9000   33.2540   47.9360 C   0  0  0  0  0  0  0  0  0  0  0  0
   58.0240   33.0210   46.8700 C   0  0  0  0  0  0  0  0  0  0  0  0
   58.1020   25.3110   45.1110 C   0  0  0  0  0  0  0  0  0  0  0  0
   58.6237   20.8542   44.6230 H   0  0  0  0  0  0  0  0  0  0  0  0
   57.8848   21.9621   43.4174 H   0  0  0  0  0  0  0  0  0  0  0  0
   59.6604   21.6901   43.4174 H   0  0  0  0  0  0  0  0  0  0  0  0
   56.3705   22.4197   45.6964 H   0  0  0  0  0  0  0  0  0  0  0  0
   54.5559   24.0652   46.1285 H   0  0  0  0  0  0  0  0  0  0  0  0
   56.4960   28.2916   45.5624 H   0  0  0  0  0  0  0  0  0  0  0  0
   58.2485   27.9511   45.8941 H   0  0  0  0  0  0  0  0  0  0  0  0
   56.7308   30.0216   42.3676 H   0  0  0  0  0  0  0  0  0  0  0  0
   55.6765   29.3208   43.6496 H   0  0  0  0  0  0  0  0  0  0  0  0
   57.5102   34.0368   43.6934 H   0  0  0  0  0  0  0  0  0  0  0  0
   56.3527   33.2593   44.8365 H   0  0  0  0  0  0  0  0  0  0  0  0
   59.7825   34.5609   44.3717 H   0  0  0  0  0  0  0  0  0  0  0  0
   61.3374   34.9832   46.2738 H   0  0  0  0  0  0  0  0  0  0  0  0
   60.4876   34.0610   49.8215 H   0  0  0  0  0  0  0  0  0  0  0  0
   61.8936   33.5567   48.8237 H   0  0  0  0  0  0  0  0  0  0  0  0
   61.3616   35.2723   48.8237 H   0  0  0  0  0  0  0  0  0  0  0  0
   58.6436   32.8963   48.9441 H   0  0  0  0  0  0  0  0  0  0  0  0
   57.0846   32.4753   47.0427 H   0  0  0  0  0  0  0  0  0  0  0  0
   59.0968   25.6634   44.8007 H   0  0  0  0  0  0  0  0  0  0  0  0
  1  2  1  0
  2  3  2  0
  2  4  1  0
  4  5  2  0
  5  6  1  0
  6  7  2  0
  7  8  1  0
  7  9  1  0
  9 10  1  0
 10 11  1  0
 11 12  1  0
 12 13  1  0
 13 14  2  0
 13 15  1  0
 15 16  1  0
 16 17  1  0
 17 18  2  0
 18 19  1  0
 19 20  2  0
 20 21  1  0
 20 22  1  0
 22 23  2  0
  9 24  2  0
 24  4  1  0
 23 17  1  0
  1 25  1  0
  1 26  1  0
  1 27  1  0
  5 28  1  0
  6 29  1  0
 10 30  1  0
 10 31  1  0
 12 32  1  0
 12 33  1  0
 16 34  1  0
 16 35  1  0
 18 36  1  0
 19 37  1  0
 21 38  1  0
 21 39  1  0
 21 40  1  0
 22 41  1  0
 23 42  1  0
 24 43  1  0
M  CHG  2   8  -1  15  -1
M  END
>  <UniqueID>  (48) 
40

>  <SMILES>  (48) 
CC(=O)c1ccc([O-])c(CSCC(=O)[N-]Cc2ccc(C)cc2)c1

>  <Energy>  (48) 
34.61563097905939

>  <Genealogy>  (48) 
CC(=O)c1ccc([O-])c(CSCC(=O)[N-]Cc2ccc(C)cc2)c1 (protonated)
CC(=O)c1ccc([O-])c(CSCC(=O)[N-]Cc2ccc(C)cc2)c1 (3D coordinates assigned)
CC(=O)c1ccc([O-])c(CSCC(=O)[N-]Cc2ccc(C)cc2)c1 (optimized conformer: 34.61563097905939 kcal/mol)

>  <smiles>  (48) 
CC(=O)c1ccc(O)c(CSCC(=O)NCc2ccc(C)cc2)c1

>  <score_type>  (48) 
oracle

>  <origin>  (48) 
adg

>  <m_score__min__energy>  (48) 
-14.619999999999999

>  <m_primary>  (48) 
energy

$$$$
48:0
     RDKit          3D

 24 25  0  0  0  0  0  0  0  0999 V2000
   50.8040   32.7150   51.7670 O   0  0  0  0  0  0  0  0  0  0  0  0
   51.3960   32.2520   50.7580 C   0  0  0  0  0  0  0  0  0  0  0  0
   51.0430   32.7110   49.4940 O   0  0  0  0  0  0  0  0  0  0  0  0
   52.4740   31.2540   50.8960 C   0  0  0  0  0  0  0  0  0  0  0  0
   52.4090   30.1940   50.2220 O   0  0  0  0  0  0  0  0  0  0  0  0
   53.6110   31.4560   51.7500 N   0  0  0  0  0  0  0  0  0  0  0  0
   54.3860   30.4210   52.3720 C   0  0  0  0  0  0  0  0  0  0  0  0
   53.7070   29.3520   52.9540 C   0  0  0  0  0  0  0  0  0  0  0  0
   54.4040   28.3000   53.5390 C   0  0  0  0  0  0  0  0  0  0  0  0
   55.8000   28.2940   53.5730 C   0  0  0  0  0  0  0  0  0  0  0  0
   56.4160   27.1870   54.1640 O   0  0  0  0  0  0  0  0  0  0  0  0
   56.5210   29.3880   53.0240 C   0  0  0  0  0  0  0  0  0  0  0  0
   57.9310   29.4490   53.0570 C   0  0  0  0  0  0  0  0  0  0  0  0
   58.6100   30.5520   52.5370 C   0  0  0  0  0  0  0  0  0  0  0  0
   57.9040   31.6160   51.9870 C   0  0  0  0  0  0  0  0  0  0  0  0
   56.5120   31.5840   51.9390 C   0  0  0  0  0  0  0  0  0  0  0  0
   55.8010   30.4710   52.4320 C   0  0  0  0  0  0  0  0  0  0  0  0
   52.6071   29.3401   52.9507 H   0  0  0  0  0  0  0  0  0  0  0  0
   53.8475   27.4606   53.9813 H   0  0  0  0  0  0  0  0  0  0  0  0
   56.2460   26.2270   53.9060 H   0  0  0  0  0  0  0  0  0  0  0  0
   58.5010   28.6178   53.4976 H   0  0  0  0  0  0  0  0  0  0  0  0
   59.7094   30.5796   52.5625 H   0  0  0  0  0  0  0  0  0  0  0  0
   58.4463   32.4860   51.5884 H   0  0  0  0  0  0  0  0  0  0  0  0
   55.9622   32.4358   51.5121 H   0  0  0  0  0  0  0  0  0  0  0  0
  1  2  2  0
  2  3  1  0
  2  4  1  0
  4  5  2  0
  4  6  1  0
  6  7  1  0
  7  8  2  0
  8  9  1  0
  9 10  2  0
 10 11  1  0
 10 12  1  0
 12 13  2  0
 13 14  1  0
 14 15  2  0
 15 16  1  0
 16 17  2  0
 17  7  1  0
 17 12  1  0
  8 18  1  0
  9 19  1  0
 11 20  1  0
 13 21  1  0
 14 22  1  0
 15 23  1  0
 16 24  1  0
M  CHG  2   3  -1   6  -1
M  END
>  <UniqueID>  (49) 
41

>  <SMILES>  (49) 
O=C([O-])C(=O)[N-]c1ccc(O)c2ccccc12

>  <Energy>  (49) 
39.85141598027054

>  <Genealogy>  (49) 
O=C([O-])C(=O)[N-]c1ccc(O)c2ccccc12 (protonated)
O=C([O-])C(=O)[N-]c1ccc(O)c2ccccc12 (3D coordinates assigned)
O=C([O-])C(=O)[N-]c1ccc(O)c2ccccc12 (optimized conformer: 39.85141598027054 kcal/mol)

>  <smiles>  (49) 
O=C(O)C(=O)Nc1ccc(O)c2ccccc12

>  <score_type>  (49) 
oracle

>  <origin>  (49) 
adg

>  <m_score__min__energy>  (49) 
-10.050000000000001

>  <m_primary>  (49) 
energy

$$$$
49:0
     RDKit          3D

 46 48  0  0  0  0  0  0  0  0999 V2000
   56.9240   29.8210   52.0990 C   0  0  0  0  0  0  0  0  0  0  0  0
   57.4770   30.6510   51.0180 N   0  0  0  0  0  0  0  0  0  0  0  0
   58.5530   29.9360   50.3110 C   0  0  0  0  0  0  0  0  0  0  0  0
   58.8810   30.6900   49.0200 C   0  0  0  0  0  0  0  0  0  0  0  0
   58.8420   32.1420   49.2370 N   0  0  0  0  0  0  0  0  0  0  0  0
   58.8490   33.0260   48.1010 C   0  0  0  0  0  0  0  0  0  0  0  0
   58.2450   32.7550   46.9220 N   0  0  0  0  0  0  0  0  0  0  0  0
   58.4830   33.7160   45.9830 C   0  0  0  0  0  0  0  0  0  0  0  0
   57.9210   33.6730   44.5850 C   0  0  0  0  0  0  0  0  0  0  0  0
   57.6340   32.2550   44.0580 C   0  0  0  0  0  0  0  0  0  0  0  0
   56.6530   31.5280   44.8720 N   0  0  0  0  0  0  0  0  0  0  0  0
   56.4760   29.8680   44.3740 S   0  0  0  0  0  0  0  0  0  0  0  0
   55.1650   29.3400   44.8850 O   0  0  0  0  0  0  0  0  0  0  0  0
   56.4900   29.7530   42.8740 O   0  0  0  0  0  0  0  0  0  0  0  0
   57.7800   28.9220   45.0800 C   0  0  0  0  0  0  0  0  0  0  0  0
   59.1110   29.2730   44.8100 C   0  0  0  0  0  0  0  0  0  0  0  0
   60.1590   28.5190   45.3450 C   0  0  0  0  0  0  0  0  0  0  0  0
   59.8840   27.4120   46.1520 C   0  0  0  0  0  0  0  0  0  0  0  0
   58.5590   27.0560   46.4220 C   0  0  0  0  0  0  0  0  0  0  0  0
   57.5080   27.8080   45.8890 C   0  0  0  0  0  0  0  0  0  0  0  0
   59.2590   34.7830   46.4310 C   0  0  0  0  0  0  0  0  0  0  0  0
   59.6920   34.4810   48.0280 S   0  0  0  0  0  0  0  0  0  0  0  0
   58.9480   32.6600   50.6090 C   0  0  0  0  0  0  0  0  0  0  0  0
   57.9480   31.9520   51.5500 C   0  0  0  0  0  0  0  0  0  0  0  0
   57.2088   30.2484   53.0717 H   0  0  0  0  0  0  0  0  0  0  0  0
   55.8274   29.7949   52.0169 H   0  0  0  0  0  0  0  0  0  0  0  0
   57.3223   28.7989   52.0169 H   0  0  0  0  0  0  0  0  0  0  0  0
   59.4476   29.8895   50.9494 H   0  0  0  0  0  0  0  0  0  0  0  0
   58.2282   28.9122   50.0736 H   0  0  0  0  0  0  0  0  0  0  0  0
   59.8875   30.4033   48.6813 H   0  0  0  0  0  0  0  0  0  0  0  0
   58.1307   30.4279   48.2595 H   0  0  0  0  0  0  0  0  0  0  0  0
   57.6970   31.8870   46.7350 H   0  0  0  0  0  0  0  0  0  0  0  0
   56.9789   34.2408   44.5753 H   0  0  0  0  0  0  0  0  0  0  0  0
   58.6882   34.1038   43.9249 H   0  0  0  0  0  0  0  0  0  0  0  0
   57.2475   32.3343   43.0312 H   0  0  0  0  0  0  0  0  0  0  0  0
   58.5778   31.6915   44.0993 H   0  0  0  0  0  0  0  0  0  0  0  0
   59.3305   30.1442   44.1753 H   0  0  0  0  0  0  0  0  0  0  0  0
   61.2014   28.7973   45.1306 H   0  0  0  0  0  0  0  0  0  0  0  0
   60.7096   26.8207   46.5748 H   0  0  0  0  0  0  0  0  0  0  0  0
   58.3433   26.1826   47.0550 H   0  0  0  0  0  0  0  0  0  0  0  0
   56.4666   27.5262   46.1039 H   0  0  0  0  0  0  0  0  0  0  0  0
   59.5397   35.6689   45.8425 H   0  0  0  0  0  0  0  0  0  0  0  0
   59.9702   32.4913   50.9787 H   0  0  0  0  0  0  0  0  0  0  0  0
   58.7140   33.7347   50.5956 H   0  0  0  0  0  0  0  0  0  0  0  0
   58.4402   31.7778   52.5182 H   0  0  0  0  0  0  0  0  0  0  0  0
   57.0689   32.6057   51.6494 H   0  0  0  0  0  0  0  0  0  0  0  0
  1  2  1  0
  2  3  1  0
  3  4  1  0
  4  5  1  0
  5  6  1  0
  6  7  2  0
  7  8  1  0
  8  9  1  0
  9 10  1  0
 10 11  1  0
 11 12  1  0
 12 13  2  0
 12 14  2  0
 12 15  1  0
 15 16  2  0
 16 17  1  0
 17 18  2  0
 18 19  1  0
 19 20  2  0
  8 21  2  0
 21 22  1  0
  5 23  1  0
 23 24  1  0
 24  2  1  0
 22  6  1  0
 20 15  1  0
  1 25  1  0
  1 26  1  0
  1 27  1  0
  3 28  1  0
  3 29  1  0
  4 30  1  0
  4 31  1  0
  7 32  1  0
  9 33  1  0
  9 34  1  0
 10 35  1  0
 10 36  1  0
 16 37  1  0
 17 38  1  0
 18 39  1  0
 19 40  1  0
 20 41  1  0
 21 42  1  0
 23 43  1  0
 23 44  1  0
 24 45  1  0
 24 46  1  0
M  CHG  2   7   1  11  -1
M  END
>  <UniqueID>  (50) 
42

>  <SMILES>  (50) 
CN1CCN(c2[nH+]c(CC[N-]S(=O)(=O)c3ccccc3)cs2)CC1

>  <Energy>  (50) 
78.715716161299

>  <Genealogy>  (50) 
CN1CCN(c2[nH+]c(CC[N-]S(=O)(=O)c3ccccc3)cs2)CC1 (protonated)
CN1CCN(c2[nH+]c(CC[N-]S(=O)(=O)c3ccccc3)cs2)CC1 (3D coordinates assigned)
CN1CCN(c2[nH+]c(CC[N-]S(=O)(=O)c3ccccc3)cs2)CC1 (nonaromatic ring conformer: 78.715716161299 kcal/mol)

>  <smiles>  (50) 
CN1CCN(c2nc(CCNS(=O)(=O)c3ccccc3)cs2)CC1

>  <score_type>  (50) 
oracle

>  <origin>  (50) 
adg

>  <m_score__min__energy>  (50) 
-8.3300000000000001

>  <m_primary>  (50) 
energy

$$$$
50:0
     RDKit          3D

 56 59  0  0  0  0  0  0  0  0999 V2000
   58.4600   28.9400   52.7940 O   0  0  0  0  0  0  0  0  0  0  0  0
   57.7630   29.8720   52.3170 C   0  0  0  0  0  0  0  0  0  0  0  0
   57.0160   30.7770   53.2510 C   0  0  0  0  0  0  0  0  0  0  0  0
   57.8100   31.9220   53.5440 O   0  0  0  0  0  0  0  0  0  0  0  0
   58.7780   32.4590   52.6840 C   0  0  0  0  0  0  0  0  0  0  0  0
   60.1190   32.1370   52.9130 C   0  0  0  0  0  0  0  0  0  0  0  0
   61.1270   32.6590   52.0970 C   0  0  0  0  0  0  0  0  0  0  0  0
   60.8000   33.5140   51.0270 C   0  0  0  0  0  0  0  0  0  0  0  0
   61.7710   34.0650   50.1790 O   0  0  0  0  0  0  0  0  0  0  0  0
   62.5630   33.3110   49.2660 C   0  0  0  0  0  0  0  0  0  0  0  0
   61.6890   32.7990   48.1670 C   0  0  0  0  0  0  0  0  0  0  0  0
   62.0360   31.7710   47.5240 O   0  0  0  0  0  0  0  0  0  0  0  0
   60.4450   33.4580   47.8810 N   0  0  0  0  0  0  0  0  0  0  0  0
   59.6480   33.2100   46.7110 C   0  0  0  0  0  0  0  0  0  0  0  0
   59.6540   34.1490   45.6650 C   0  0  0  0  0  0  0  0  0  0  0  0
   58.9200   33.9160   44.4970 C   0  0  0  0  0  0  0  0  0  0  0  0
   58.1880   32.7360   44.3590 C   0  0  0  0  0  0  0  0  0  0  0  0
   58.1680   31.7970   45.3980 C   0  0  0  0  0  0  0  0  0  0  0  0
   58.9100   32.0200   46.5620 C   0  0  0  0  0  0  0  0  0  0  0  0
   57.4010   30.6360   45.2500 O   0  0  0  0  0  0  0  0  0  0  0  0
   56.4350   30.5180   44.2020 C   0  0  0  0  0  0  0  0  0  0  0  0
   56.9680   31.1590   42.9140 C   0  0  0  0  0  0  0  0  0  0  0  0
   57.4760   32.4680   43.1850 O   0  0  0  0  0  0  0  0  0  0  0  0
   59.4570   33.8310   50.7950 C   0  0  0  0  0  0  0  0  0  0  0  0
   58.4490   33.3100   51.6130 C   0  0  0  0  0  0  0  0  0  0  0  0
   57.7160   30.0400   50.8920 N   0  0  0  0  0  0  0  0  0  0  0  0
   58.8270   30.4560   50.0370 C   0  0  0  0  0  0  0  0  0  0  0  0
   59.2380   29.3490   49.1040 C   0  0  0  0  0  0  0  0  0  0  0  0
   60.2660   28.4630   49.4680 C   0  0  0  0  0  0  0  0  0  0  0  0
   60.6530   27.4380   48.6000 C   0  0  0  0  0  0  0  0  0  0  0  0
   60.0150   27.2850   47.3660 C   0  0  0  0  0  0  0  0  0  0  0  0
   58.9850   28.1570   47.0000 C   0  0  0  0  0  0  0  0  0  0  0  0
   58.5920   29.1810   47.8660 C   0  0  0  0  0  0  0  0  0  0  0  0
   56.0752   31.0952   52.7780 H   0  0  0  0  0  0  0  0  0  0  0  0
   56.7952   30.2373   54.1837 H   0  0  0  0  0  0  0  0  0  0  0  0
   60.3837   31.4662   53.7436 H   0  0  0  0  0  0  0  0  0  0  0  0
   62.1785   32.4011   52.2913 H   0  0  0  0  0  0  0  0  0  0  0  0
   63.3489   33.9536   48.8424 H   0  0  0  0  0  0  0  0  0  0  0  0
   63.0305   32.4655   49.7919 H   0  0  0  0  0  0  0  0  0  0  0  0
   60.0680   34.1160   48.6020 H   0  0  0  0  0  0  0  0  0  0  0  0
   60.2404   35.0742   45.7656 H   0  0  0  0  0  0  0  0  0  0  0  0
   58.9199   34.6619   43.6886 H   0  0  0  0  0  0  0  0  0  0  0  0
   58.9172   31.2651   47.3621 H   0  0  0  0  0  0  0  0  0  0  0  0
   56.2264   29.4537   44.0186 H   0  0  0  0  0  0  0  0  0  0  0  0
   55.5126   31.0353   44.5048 H   0  0  0  0  0  0  0  0  0  0  0  0
   57.7753   30.5339   42.5046 H   0  0  0  0  0  0  0  0  0  0  0  0
   56.1466   31.2373   42.1866 H   0  0  0  0  0  0  0  0  0  0  0  0
   59.1912   34.4968   49.9607 H   0  0  0  0  0  0  0  0  0  0  0  0
   57.3971   33.5661   51.4185 H   0  0  0  0  0  0  0  0  0  0  0  0
   58.5163   31.3287   49.4438 H   0  0  0  0  0  0  0  0  0  0  0  0
   59.6847   30.7088   50.6777 H   0  0  0  0  0  0  0  0  0  0  0  0
   60.7683   28.5765   50.4400 H   0  0  0  0  0  0  0  0  0  0  0  0
   61.4615   26.7503   48.8888 H   0  0  0  0  0  0  0  0  0  0  0  0
   60.3228   26.4793   46.6833 H   0  0  0  0  0  0  0  0  0  0  0  0
   58.4831   28.0367   46.0286 H   0  0  0  0  0  0  0  0  0  0  0  0
   57.7743   29.8582   47.5783 H   0  0  0  0  0  0  0  0  0  0  0  0
  1  2  2  0
  2  3  1  0
  3  4  1  0
  4  5  1  0
  5  6  2  0
  6  7  1  0
  7  8  2  0
  8  9  1  0
  9 10  1  0
 10 11  1  0
 11 12  2  0
 11 13  1  0
 13 14  1  0
 14 15  2  0
 15 16  1  0
 16 17  2  0
 17 18  1  0
 18 19  2  0
 18 20  1  0
 20 21  1  0
 21 22  1  0
 22 23  1  0
  8 24  1  0
 24 25  2  0
  2 26  1  0
 26 27  1  0
 27 28  1  0
 28 29  2  0
 29 30  1  0
 30 31  2  0
 31 32  1  0
 32 33  2  0
 25  5  1  0
 33 28  1  0
 19 14  1  0
 23 17  1  0
  3 34  1  0
  3 35  1  0
  6 36  1  0
  7 37  1  0
 10 38  1  0
 10 39  1  0
 13 40  1  0
 15 41  1  0
 16 42  1  0
 19 43  1  0
 21 44  1  0
 21 45  1  0
 22 46  1  0
 22 47  1  0
 24 48  1  0
 25 49  1  0
 27 50  1  0
 27 51  1  0
 29 52  1  0
 30 53  1  0
 31 54  1  0
 32 55  1  0
 33 56  1  0
M  CHG  1  26  -1
M  END
>  <UniqueID>  (51) 
43

>  <SMILES>  (51) 
O=C(COc1ccc(OCC(=O)Nc2ccc3c(c2)OCCO3)cc1)[N-]Cc1ccccc1

>  <Energy>  (51) 
58.05785955366275

>  <Genealogy>  (51) 
O=C(COc1ccc(OCC(=O)Nc2ccc3c(c2)OCCO3)cc1)[N-]Cc1ccccc1 (protonated)
O=C(COc1ccc(OCC(=O)Nc2ccc3c(c2)OCCO3)cc1)[N-]Cc1ccccc1 (3D coordinates assigned)
O=C(COc1ccc(OCC(=O)Nc2ccc3c(c2)OCCO3)cc1)[N-]Cc1ccccc1 (nonaromatic ring conformer: 58.05785955366275 kcal/mol)

>  <smiles>  (51) 
O=C(COc1ccc(OCC(=O)Nc2ccc3c(c2)OCCO3)cc1)NCc1ccccc1

>  <score_type>  (51) 
oracle

>  <origin>  (51) 
adg

>  <m_score__min__energy>  (51) 
-10.09

>  <m_primary>  (51) 
energy

$$$$
51:0
     RDKit          3D

 42 44  0  0  0  0  0  0  0  0999 V2000
   60.5770   28.2580   49.5130 N   0  0  0  0  0  0  0  0  0  0  0  0
   59.7580   29.3050   50.0350 C   0  0  0  0  0  0  0  0  0  0  0  0
   60.0350   29.8190   51.1520 O   0  0  0  0  0  0  0  0  0  0  0  0
   58.5930   29.8150   49.2440 C   0  0  0  0  0  0  0  0  0  0  0  0
   58.2760   28.9070   48.1920 O   0  0  0  0  0  0  0  0  0  0  0  0
   59.0050   28.8220   46.9980 C   0  0  0  0  0  0  0  0  0  0  0  0
   60.2860   29.2870   46.9370 N   0  0  0  0  0  0  0  0  0  0  0  0
   61.0270   29.2170   45.8020 C   0  0  0  0  0  0  0  0  0  0  0  0
   60.4860   28.6480   44.6500 C   0  0  0  0  0  0  0  0  0  0  0  0
   59.1780   28.1620   44.6790 C   0  0  0  0  0  0  0  0  0  0  0  0
   58.4130   28.2570   45.8520 C   0  0  0  0  0  0  0  0  0  0  0  0
   57.0000   27.7260   45.8810 C   0  0  0  0  0  0  0  0  0  0  0  0
   56.1350   28.4840   44.9780 N   0  0  0  0  0  0  0  0  0  0  0  0
   56.5360   29.6600   44.2560 C   0  0  0  0  0  0  0  0  0  0  0  0
   56.3530   29.7890   42.8690 C   0  0  0  0  0  0  0  0  0  0  0  0
   56.7720   30.9190   42.2420 N   0  0  0  0  0  0  0  0  0  0  0  0
   57.3530   31.9360   42.9280 C   0  0  0  0  0  0  0  0  0  0  0  0
   57.5180   31.8310   44.3180 C   0  0  0  0  0  0  0  0  0  0  0  0
   58.1450   32.9120   45.1230 C   0  0  0  0  0  0  0  0  0  0  0  0
   58.7400   34.0340   44.5100 C   0  0  0  0  0  0  0  0  0  0  0  0
   59.3200   35.0420   45.2850 C   0  0  0  0  0  0  0  0  0  0  0  0
   59.3130   34.9460   46.6780 C   0  0  0  0  0  0  0  0  0  0  0  0
   58.7210   33.8450   47.2990 C   0  0  0  0  0  0  0  0  0  0  0  0
   58.1320   32.8370   46.5280 C   0  0  0  0  0  0  0  0  0  0  0  0
   57.1090   30.6890   44.9370 N   0  0  0  0  0  0  0  0  0  0  0  0
   61.3950   27.9060   50.0580 H   0  0  0  0  0  0  0  0  0  0  0  0
   60.3840   27.8510   48.5710 H   0  0  0  0  0  0  0  0  0  0  0  0
   57.7219   29.9207   49.9074 H   0  0  0  0  0  0  0  0  0  0  0  0
   58.8547   30.7908   48.8088 H   0  0  0  0  0  0  0  0  0  0  0  0
   62.0546   29.6093   45.7911 H   0  0  0  0  0  0  0  0  0  0  0  0
   61.0833   28.5828   43.7286 H   0  0  0  0  0  0  0  0  0  0  0  0
   58.7446   27.7024   43.7785 H   0  0  0  0  0  0  0  0  0  0  0  0
   57.0062   26.6706   45.5711 H   0  0  0  0  0  0  0  0  0  0  0  0
   56.6099   27.8256   46.9047 H   0  0  0  0  0  0  0  0  0  0  0  0
   55.1380   28.1800   44.8940 H   0  0  0  0  0  0  0  0  0  0  0  0
   55.8744   28.9816   42.2954 H   0  0  0  0  0  0  0  0  0  0  0  0
   57.6928   32.8377   42.3974 H   0  0  0  0  0  0  0  0  0  0  0  0
   58.7477   34.1164   43.4131 H   0  0  0  0  0  0  0  0  0  0  0  0
   59.7828   35.9124   44.7969 H   0  0  0  0  0  0  0  0  0  0  0  0
   59.7741   35.7382   47.2861 H   0  0  0  0  0  0  0  0  0  0  0  0
   58.7175   33.7697   48.3964 H   0  0  0  0  0  0  0  0  0  0  0  0
   57.6549   31.9790   47.0242 H   0  0  0  0  0  0  0  0  0  0  0  0
  1  2  1  0
  2  3  2  0
  2  4  1  0
  4  5  1  0
  5  6  1  0
  6  7  2  0
  7  8  1  0
  8  9  2  0
  9 10  1  0
 10 11  2  0
 11 12  1  0
 12 13  1  0
 13 14  1  0
 14 15  2  0
 15 16  1  0
 16 17  2  0
 17 18  1  0
 18 19  1  0
 19 20  2  0
 20 21  1  0
 21 22  2  0
 22 23  1  0
 23 24  2  0
 18 25  2  0
 11  6  1  0
 25 14  1  0
 24 19  1  0
  1 26  1  0
  1 27  1  0
  4 28  1  0
  4 29  1  0
  8 30  1  0
  9 31  1  0
 10 32  1  0
 12 33  1  0
 12 34  1  0
 13 35  1  0
 15 36  1  0
 17 37  1  0
 20 38  1  0
 21 39  1  0
 22 40  1  0
 23 41  1  0
 24 42  1  0
M  END
>  <UniqueID>  (52) 
44

>  <SMILES>  (52) 
NC(=O)COc1ncccc1CNc1cncc(-c2ccccc2)n1

>  <Energy>  (52) 
46.26732930256789

>  <Genealogy>  (52) 
NC(=O)COc1ncccc1CNc1cncc(-c2ccccc2)n1 (3D coordinates assigned)
NC(=O)COc1ncccc1CNc1cncc(-c2ccccc2)n1 (optimized conformer: 46.26732930256789 kcal/mol)

>  <smiles>  (52) 
NC(=O)COc1ncccc1CNc1cncc(-c2ccccc2)n1

>  <score_type>  (52) 
oracle

>  <origin>  (52) 
adg

>  <m_score__min__energy>  (52) 
-8.0999999999999996

>  <m_primary>  (52) 
energy

$$$$
52:0
     RDKit          3D

 49 51  0  0  1  0  0  0  0  0999 V2000
   63.3620   33.1080   48.0290 C   0  0  0  0  0  0  0  0  0  0  0  0
   62.0600   33.3650   48.5480 O   0  0  0  0  0  0  0  0  0  0  0  0
   60.9450   33.3650   47.7200 C   0  0  0  0  0  0  0  0  0  0  0  0
   60.7870   34.3460   46.7610 C   0  0  0  0  0  0  0  0  0  0  0  0
   59.6530   34.3000   45.9570 C   0  0  0  0  0  0  0  0  0  0  0  0
   58.7120   33.2820   46.1290 C   0  0  0  0  0  0  0  0  0  0  0  0
   56.7560   28.7920   44.9930 N   0  0  0  0  0  0  0  0  0  0  0  0
   56.9630   29.9010   44.3660 C   0  0  0  0  0  0  0  0  0  0  0  0
   57.4040   32.2920   43.2040 N   0  0  0  0  0  0  0  0  0  0  0  0
   57.2240   31.2160   42.4040 C   0  0  0  0  0  0  0  0  0  0  0  0
   56.9960   29.9840   42.9890 C   0  0  0  0  0  0  0  0  0  0  0  0
   57.3720   32.2200   44.5420 C   0  0  0  0  0  0  0  0  0  0  0  0
   57.5460   33.2540   45.2860 N   0  0  0  0  0  0  0  0  0  0  0  0
   57.8550   28.0030   45.4450 C   0  0  0  0  0  0  0  0  0  0  0  0
   59.1720   28.4310   45.3070 C   0  0  0  0  0  0  0  0  0  0  0  0
   60.2030   27.6310   45.7610 C   0  0  0  0  0  0  0  0  0  0  0  0
   59.9850   26.3980   46.3580 C   0  0  0  0  0  0  0  0  0  0  0  0
   58.6630   25.9850   46.4880 C   0  0  0  0  0  0  0  0  0  0  0  0
   58.4060   24.7820   47.0670 F   0  0  0  0  0  0  0  0  0  0  0  0
   57.6110   26.7640   46.0430 C   0  0  0  0  0  0  0  0  0  0  0  0
   56.2030   26.3350   46.1750 C   0  0  0  0  0  0  0  0  0  0  0  0
   57.1490   31.0090   45.1260 N   0  0  0  0  0  0  0  0  0  0  0  0
   58.9150   32.3160   47.1070 C   0  0  0  0  0  0  0  0  0  0  0  0
   60.0280   32.3450   47.9110 C   0  0  0  0  0  0  0  0  0  0  0  0
   60.2400   31.3580   48.9130 N   0  0  0  0  0  0  0  0  0  0  0  0
   59.1590   29.9880   48.9740 S   0  0  0  0  0  0  0  0  0  0  0  0
   60.0750   28.4870   49.1990 C   0  0  0  0  0  0  0  0  0  0  0  0
   58.1510   30.1930   50.0710 O   0  0  0  0  0  0  0  0  0  0  0  0
   58.3810   29.8760   47.6990 O   0  0  0  0  0  0  0  0  0  0  0  0
   64.0676   32.9687   48.8613 H   0  0  0  0  0  0  0  0  0  0  0  0
   63.3378   32.1973   47.4125 H   0  0  0  0  0  0  0  0  0  0  0  0
   63.6857   33.9596   47.4125 H   0  0  0  0  0  0  0  0  0  0  0  0
   61.5367   35.1412   46.6365 H   0  0  0  0  0  0  0  0  0  0  0  0
   59.4968   35.0669   45.1840 H   0  0  0  0  0  0  0  0  0  0  0  0
   57.5740   33.2100   42.7230 H   0  0  0  0  0  0  0  0  0  0  0  0
   57.2583   31.3192   41.3094 H   0  0  0  0  0  0  0  0  0  0  0  0
   56.8440   29.0881   42.3691 H   0  0  0  0  0  0  0  0  0  0  0  0
   59.3912   29.4018   44.8386 H   0  0  0  0  0  0  0  0  0  0  0  0
   61.2376   27.9859   45.6444 H   0  0  0  0  0  0  0  0  0  0  0  0
   60.8195   25.7752   46.7125 H   0  0  0  0  0  0  0  0  0  0  0  0
   55.9423   26.2556   47.2407 H   0  0  0  0  0  0  0  0  0  0  0  0
   55.5476   27.0742   45.6913 H   0  0  0  0  0  0  0  0  0  0  0  0
   56.0711   25.3559   45.6913 H   0  0  0  0  0  0  0  0  0  0  0  0
   57.1200   30.9260   46.1670 H   0  0  0  0  0  0  0  0  0  0  0  0
   58.1724   31.5153   47.2393 H   0  0  0  0  0  0  0  0  0  0  0  0
   61.0280   31.4700   49.5860 H   0  0  0  0  0  0  0  0  0  0  0  0
   60.1959   28.2889   50.2742 H   0  0  0  0  0  0  0  0  0  0  0  0
   59.5321   27.6525   48.7312 H   0  0  0  0  0  0  0  0  0  0  0  0
   61.0654   28.5882   48.7312 H   0  0  0  0  0  0  0  0  0  0  0  0
  1  2  1  0
  2  3  1  0
  3  4  2  0
  4  5  1  0
  5  6  2  0
  6  7  1  0
  7  8  2  0
  8  9  1  0
  9 10  1  0
 10 11  2  0
 11 12  1  0
 12 13  2  0
 13 14  1  0
 14 15  2  0
 15 16  1  0
 16 17  2  0
 17 18  1  0
 18 19  1  0
 18 20  2  0
 20 21  1  0
 12 22  1  0
  6 23  1  0
 23 24  2  0
 24 25  1  0
 25 26  1  0
 26 27  1  0
 26 28  2  0
 26 29  2  0
 24  3  1  0
 22  8  1  0
 20 14  1  0
  1 30  1  0
  1 31  1  0
  1 32  1  0
  4 33  1  0
  5 34  1  0
  9 35  1  0
 10 36  1  0
 11 37  1  0
 15 38  1  0
 16 39  1  0
 17 40  1  0
 21 41  1  0
 21 42  1  0
 21 43  1  0
 22 44  1  0
 23 45  1  0
 25 46  1  0
 27 47  1  0
 27 48  1  0
 27 49  1  0
M  END
>  <smiles>  (53) 
COc1ccc(N=c2[nH]ccc(=Nc3cccc(F)c3C)[nH]2)cc1NS(C)(=O)=O

>  <score_type>  (53) 
oracle

>  <origin>  (53) 
adg

>  <m_score__min__energy>  (53) 
-9.1099999999999994

>  <m_primary>  (53) 
energy

$$$$
53:0
     RDKit          3D

 41 42  0  0  0  0  0  0  0  0999 V2000
   58.5960   21.8130   44.1300 C   0  0  0  0  0  0  0  0  0  0  0  0
   57.5480   21.1360   43.2510 C   0  0  0  0  0  0  0  0  0  0  0  0
   56.2350   21.5480   43.6280 O   0  0  0  0  0  0  0  0  0  0  0  0
   55.7060   22.8130   43.3370 C   0  0  0  0  0  0  0  0  0  0  0  0
   55.0170   22.9880   42.2940 O   0  0  0  0  0  0  0  0  0  0  0  0
   55.9660   23.9460   44.2530 C   0  0  0  0  0  0  0  0  0  0  0  0
   54.9950   24.3670   45.1750 C   0  0  0  0  0  0  0  0  0  0  0  0
   55.2410   25.4220   45.9970 N   0  0  0  0  0  0  0  0  0  0  0  0
   56.4210   26.0940   45.9730 C   0  0  0  0  0  0  0  0  0  0  0  0
   56.5950   27.0710   46.7520 O   0  0  0  0  0  0  0  0  0  0  0  0
   57.4380   25.7000   45.0900 C   0  0  0  0  0  0  0  0  0  0  0  0
   58.6700   26.4380   45.0570 N   0  0  0  0  0  0  0  0  0  0  0  0
   58.8780   27.7070   44.4270 C   0  0  0  0  0  0  0  0  0  0  0  0
   59.9390   28.3610   44.6250 O   0  0  0  0  0  0  0  0  0  0  0  0
   57.8230   28.2660   43.5270 C   0  0  0  0  0  0  0  0  0  0  0  0
   57.6170   29.6830   43.8190 N   0  0  0  0  0  0  0  0  0  0  0  0
   56.4260   30.1750   44.4440 C   0  0  0  0  0  0  0  0  0  0  0  0
   55.5530   29.3690   44.8640 O   0  0  0  0  0  0  0  0  0  0  0  0
   56.2660   31.5860   44.6340 N   0  0  0  0  0  0  0  0  0  0  0  0
   57.2750   32.5090   45.0750 C   0  0  0  0  0  0  0  0  0  0  0  0
   58.1000   33.1110   44.1130 C   0  0  0  0  0  0  0  0  0  0  0  0
   59.0890   34.0210   44.4990 C   0  0  0  0  0  0  0  0  0  0  0  0
   59.2520   34.3480   45.8480 C   0  0  0  0  0  0  0  0  0  0  0  0
   58.4150   33.7760   46.8100 C   0  0  0  0  0  0  0  0  0  0  0  0
   57.4240   32.8670   46.4280 C   0  0  0  0  0  0  0  0  0  0  0  0
   57.1910   24.6300   44.2130 C   0  0  0  0  0  0  0  0  0  0  0  0
   58.3461   21.6515   45.1890 H   0  0  0  0  0  0  0  0  0  0  0  0
   59.5860   21.3833   43.9173 H   0  0  0  0  0  0  0  0  0  0  0  0
   58.6113   22.8921   43.9173 H   0  0  0  0  0  0  0  0  0  0  0  0
   57.7254   21.4101   42.2006 H   0  0  0  0  0  0  0  0  0  0  0  0
   57.6283   20.0464   43.3784 H   0  0  0  0  0  0  0  0  0  0  0  0
   54.0306   23.8411   45.2329 H   0  0  0  0  0  0  0  0  0  0  0  0
   58.1397   28.1521   42.4797 H   0  0  0  0  0  0  0  0  0  0  0  0
   56.8813   27.7223   43.6930 H   0  0  0  0  0  0  0  0  0  0  0  0
   58.3630   30.3650   43.5500 H   0  0  0  0  0  0  0  0  0  0  0  0
   57.9680   32.8657   43.0489 H   0  0  0  0  0  0  0  0  0  0  0  0
   59.7395   34.4801   43.7400 H   0  0  0  0  0  0  0  0  0  0  0  0
   60.0381   35.0547   46.1522 H   0  0  0  0  0  0  0  0  0  0  0  0
   58.5363   34.0417   47.8705 H   0  0  0  0  0  0  0  0  0  0  0  0
   56.7586   32.4302   47.1872 H   0  0  0  0  0  0  0  0  0  0  0  0
   57.9628   24.3265   43.4904 H   0  0  0  0  0  0  0  0  0  0  0  0
  1  2  1  0
  2  3  1  0
  3  4  1  0
  4  5  2  0
  4  6  1  0
  6  7  2  0
  7  8  1  0
  8  9  1  0
  9 10  2  0
  9 11  1  0
 11 12  1  0
 12 13  1  0
 13 14  2  0
 13 15  1  0
 15 16  1  0
 16 17  1  0
 17 18  2  0
 17 19  1  0
 19 20  1  0
 20 21  2  0
 21 22  1  0
 22 23  2  0
 23 24  1  0
 24 25  2  0
 11 26  2  0
 26  6  1  0
 25 20  1  0
  1 27  1  0
  1 28  1  0
  1 29  1  0
  2 30  1  0
  2 31  1  0
  7 32  1  0
 15 33  1  0
 15 34  1  0
 16 35  1  0
 21 36  1  0
 22 37  1  0
 23 38  1  0
 24 39  1  0
 25 40  1  0
 26 41  1  0
M  CHG  3   8  -1  12  -1  19  -1
M  END
>  <UniqueID>  (54) 
45

>  <SMILES>  (54) 
CCOC(=O)c1c[n-]c(=O)c([N-]C(=O)CNC(=O)[N-]c2ccccc2)c1

>  <Energy>  (54) 
41.95149769858387

>  <Genealogy>  (54) 
CCOC(=O)c1c[n-]c(=O)c([N-]C(=O)CNC(=O)[N-]c2ccccc2)c1 (protonated)
CCOC(=O)c1c[n-]c(=O)c([N-]C(=O)CNC(=O)[N-]c2ccccc2)c1 (3D coordinates assigned)
CCOC(=O)c1c[n-]c(=O)c([N-]C(=O)CNC(=O)[N-]c2ccccc2)c1 (optimized conformer: 41.95149769858387 kcal/mol)

>  <smiles>  (54) 
CCOC(=O)c1c[nH]c(=O)c(NC(=O)CNC(=O)Nc2ccccc2)c1

>  <score_type>  (54) 
oracle

>  <origin>  (54) 
adg

>  <m_score__min__energy>  (54) 
-12.859999999999999

>  <m_primary>  (54) 
energy

$$$$
54:0
     RDKit          3D

 47 49  0  0  0  0  0  0  0  0999 V2000
   54.3560   24.1180   44.9470 C   0  0  0  0  0  0  0  0  0  0  0  0
   55.7550   24.5830   45.2320 C   0  0  0  0  0  0  0  0  0  0  0  0
   56.8420   23.7200   45.0190 C   0  0  0  0  0  0  0  0  0  0  0  0
   58.1410   24.1400   45.3070 C   0  0  0  0  0  0  0  0  0  0  0  0
   58.3690   25.4230   45.8050 C   0  0  0  0  0  0  0  0  0  0  0  0
   57.3000   26.3050   46.0150 C   0  0  0  0  0  0  0  0  0  0  0  0
   57.5880   27.6580   46.5480 C   0  0  0  0  0  0  0  0  0  0  0  0
   57.8980   27.7540   47.7670 O   0  0  0  0  0  0  0  0  0  0  0  0
   57.5870   28.8580   45.7270 N   0  0  1  0  0  0  0  0  0  0  0  0
   58.8760   29.1010   45.0410 C   0  0  0  0  0  0  0  0  0  0  0  0
   58.9050   30.4950   44.3770 C   0  0  0  0  0  0  0  0  0  0  0  0
   57.5170   30.9690   43.8960 C   0  0  2  0  0  0  0  0  0  0  0  0
   56.9110   31.7380   44.9230 O   0  0  0  0  0  0  0  0  0  0  0  0
   57.2240   33.1090   44.7820 C   0  0  0  0  0  0  0  0  0  0  0  0
   58.1150   33.5160   45.9190 C   0  0  0  0  0  0  0  0  0  0  0  0
   58.1520   32.7460   47.0930 C   0  0  0  0  0  0  0  0  0  0  0  0
   59.0110   33.0990   48.1390 C   0  0  0  0  0  0  0  0  0  0  0  0
   59.8460   34.2120   48.0150 C   0  0  0  0  0  0  0  0  0  0  0  0
   59.8260   34.9730   46.8420 C   0  0  0  0  0  0  0  0  0  0  0  0
   58.9700   34.6250   45.7940 C   0  0  0  0  0  0  0  0  0  0  0  0
   56.6300   29.7590   43.5620 C   0  0  0  0  0  0  0  0  0  0  0  0
   56.4370   28.8350   44.7860 C   0  0  0  0  0  0  0  0  0  0  0  0
   55.9850   25.8730   45.7470 C   0  0  0  0  0  0  0  0  0  0  0  0
   54.9050   26.7120   46.0040 O   0  0  0  0  0  0  0  0  0  0  0  0
   53.8276   23.9424   45.8956 H   0  0  0  0  0  0  0  0  0  0  0  0
   53.8245   24.8878   44.3683 H   0  0  0  0  0  0  0  0  0  0  0  0
   54.3911   23.1832   44.3683 H   0  0  0  0  0  0  0  0  0  0  0  0
   56.6687   22.7084   44.6233 H   0  0  0  0  0  0  0  0  0  0  0  0
   58.9876   23.4576   45.1409 H   0  0  0  0  0  0  0  0  0  0  0  0
   59.3955   25.7450   46.0346 H   0  0  0  0  0  0  0  0  0  0  0  0
   57.4430   29.6560   46.3930 H   0  0  0  0  0  0  0  0  0  0  0  0
   59.0204   28.3326   44.2672 H   0  0  0  0  0  0  0  0  0  0  0  0
   59.6810   29.0564   45.7893 H   0  0  0  0  0  0  0  0  0  0  0  0
   59.5806   30.4551   43.5098 H   0  0  0  0  0  0  0  0  0  0  0  0
   59.2496   31.2117   45.1370 H   0  0  0  0  0  0  0  0  0  0  0  0
   57.6333   31.5811   42.9894 H   0  0  0  0  0  0  0  0  0  0  0  0
   57.7435   33.2742   43.8266 H   0  0  0  0  0  0  0  0  0  0  0  0
   56.3016   33.7083   44.7942 H   0  0  0  0  0  0  0  0  0  0  0  0
   57.5036   31.8628   47.1902 H   0  0  0  0  0  0  0  0  0  0  0  0
   59.0290   32.4991   49.0608 H   0  0  0  0  0  0  0  0  0  0  0  0
   60.5189   34.4897   48.8397 H   0  0  0  0  0  0  0  0  0  0  0  0
   60.4858   35.8477   46.7441 H   0  0  0  0  0  0  0  0  0  0  0  0
   58.9650   35.2201   44.8689 H   0  0  0  0  0  0  0  0  0  0  0  0
   57.1025   29.1836   42.7522 H   0  0  0  0  0  0  0  0  0  0  0  0
   55.6418   30.1329   43.2560 H   0  0  0  0  0  0  0  0  0  0  0  0
   56.3000   27.8042   44.4272 H   0  0  0  0  0  0  0  0  0  0  0  0
   55.5583   29.2025   45.3363 H   0  0  0  0  0  0  0  0  0  0  0  0
  1  2  1  0
  2  3  2  0
  3  4  1  0
  4  5  2  0
  5  6  1  0
  6  7  1  0
  7  8  2  0
  7  9  1  0
  9 10  1  0
 10 11  1  0
 11 12  1  0
 12 13  1  0
 13 14  1  0
 14 15  1  0
 15 16  2  0
 16 17  1  0
 17 18  2  0
 18 19  1  0
 19 20  2  0
 12 21  1  0
 21 22  1  0
  6 23  2  0
 23 24  1  0
 23  2  1  0
 22  9  1  0
 20 15  1  0
  1 25  1  0
  1 26  1  0
  1 27  1  0
  3 28  1  0
  4 29  1  0
  5 30  1  0
  9 31  1  1
 10 32  1  0
 10 33  1  0
 11 34  1  0
 11 35  1  0
 12 36  1  6
 14 37  1  0
 14 38  1  0
 16 39  1  0
 17 40  1  0
 18 41  1  0
 19 42  1  0
 20 43  1  0
 21 44  1  0
 21 45  1  0
 22 46  1  0
 22 47  1  0
M  CHG  2   9   1  24  -1
M  END
>  <UniqueID>  (55) 
46

>  <SMILES>  (55) 
Cc1cccc(C(=O)[NH+]2CCC(OCc3ccccc3)CC2)c1[O-]

>  <Energy>  (55) 
67.75275244819879

>  <Genealogy>  (55) 
Cc1cccc(C(=O)[NH+]2CCC(OCc3ccccc3)CC2)c1[O-] (protonated)
Cc1cccc(C(=O)[NH+]2CCC(OCc3ccccc3)CC2)c1[O-] (3D coordinates assigned)
Cc1cccc(C(=O)[NH+]2CCC(OCc3ccccc3)CC2)c1[O-] (nonaromatic ring conformer: 67.75275244819879 kcal/mol)

>  <smiles>  (55) 
Cc1cccc(C(=O)N2CCC(OCc3ccccc3)CC2)c1O

>  <score_type>  (55) 
oracle

>  <origin>  (55) 
adg

>  <m_score__min__energy>  (55) 
-10.59

>  <m_primary>  (55) 
energy

$$$$
55:0
     RDKit          3D

 39 40  0  0  0  0  0  0  0  0999 V2000
   53.7511   23.0679   45.9570 H   0  0  0  0  0  0  0  0  0  0  0  0
   54.6520   23.6290   45.6680 C   0  0  0  0  0  0  0  0  0  0  0  0
   54.7650   24.9440   45.9910 N   0  0  0  0  0  0  0  0  0  0  0  0
   55.8610   25.6840   45.6680 C   0  0  0  0  0  0  0  0  0  0  0  0
   55.8720   26.9460   46.0040 N   0  0  0  0  0  0  0  0  0  0  0  0
   56.4910   28.0460   45.3220 C   0  0  0  0  0  0  0  0  0  0  0  0
   57.7350   28.0640   45.1130 O   0  0  0  0  0  0  0  0  0  0  0  0
   55.6860   29.1650   44.9430 N   0  0  0  0  0  0  0  0  0  0  0  0
   55.7220   29.7690   43.6150 C   0  0  0  0  0  0  0  0  0  0  0  0
   54.7328   30.1933   43.3881 H   0  0  0  0  0  0  0  0  0  0  0  0
   55.9888   28.9884   42.8873 H   0  0  0  0  0  0  0  0  0  0  0  0
   56.7740   30.8840   43.5340 C   0  0  0  0  0  0  0  0  0  0  0  0
   56.3543   31.7356   42.9784 H   0  0  0  0  0  0  0  0  0  0  0  0
   57.6638   30.4912   43.0202 H   0  0  0  0  0  0  0  0  0  0  0  0
   57.1700   31.3360   44.8880 N   0  0  0  0  0  0  0  0  0  0  0  0
   58.5250   30.8810   45.2400 C   0  0  0  0  0  0  0  0  0  0  0  0
   58.6274   30.8466   46.3347 H   0  0  0  0  0  0  0  0  0  0  0  0
   58.6942   29.8768   44.8242 H   0  0  0  0  0  0  0  0  0  0  0  0
   59.2660   31.5796   44.8242 H   0  0  0  0  0  0  0  0  0  0  0  0
   56.9770   32.7870   45.1290 C   0  0  0  0  0  0  0  0  0  0  0  0
   56.9451   33.2962   44.1545 H   0  0  0  0  0  0  0  0  0  0  0  0
   56.0406   32.8887   45.6972 H   0  0  0  0  0  0  0  0  0  0  0  0
   58.0640   33.4340   45.9670 C   0  0  0  0  0  0  0  0  0  0  0  0
   58.1570   33.1720   47.3460 C   0  0  0  0  0  0  0  0  0  0  0  0
   57.4411   32.4856   47.8218 H   0  0  0  0  0  0  0  0  0  0  0  0
   59.1540   33.7790   48.1150 C   0  0  0  0  0  0  0  0  0  0  0  0
   59.2275   33.5590   49.1903 H   0  0  0  0  0  0  0  0  0  0  0  0
   60.0570   34.6640   47.5220 C   0  0  0  0  0  0  0  0  0  0  0  0
   60.8446   35.1354   48.1282 H   0  0  0  0  0  0  0  0  0  0  0  0
   59.9590   34.9500   46.1580 C   0  0  0  0  0  0  0  0  0  0  0  0
   60.6653   35.6525   45.6915 H   0  0  0  0  0  0  0  0  0  0  0  0
   58.9640   34.3440   45.3860 C   0  0  0  0  0  0  0  0  0  0  0  0
   58.8845   34.5812   44.3148 H   0  0  0  0  0  0  0  0  0  0  0  0
   56.9100   25.0690   44.9480 C   0  0  0  0  0  0  0  0  0  0  0  0
   57.7989   25.6488   44.6586 H   0  0  0  0  0  0  0  0  0  0  0  0
   56.8080   23.7180   44.6070 C   0  0  0  0  0  0  0  0  0  0  0  0
   57.6212   23.2284   44.0511 H   0  0  0  0  0  0  0  0  0  0  0  0
   55.6760   22.9900   44.9710 C   0  0  0  0  0  0  0  0  0  0  0  0
   55.5921   21.9244   44.7113 H   0  0  0  0  0  0  0  0  0  0  0  0
  1  2  1  0
  2  3  1  0
  3  4  1  0
  4  5  2  0
  5  6  1  0
  6  7  2  0
  6  8  1  0
  8  9  1  0
  9 10  1  0
  9 11  1  0
  9 12  1  0
 12 13  1  0
 12 14  1  0
 12 15  1  0
 15 16  1  0
 16 17  1  0
 16 18  1  0
 16 19  1  0
 15 20  1  0
 20 21  1  0
 20 22  1  0
 20 23  1  0
 23 24  2  0
 24 25  1  0
 24 26  1  0
 26 27  1  0
 26 28  2  0
 28 29  1  0
 28 30  1  0
 30 31  1  0
 30 32  2  0
 32 33  1  0
  4 34  1  0
 34 35  1  0
 34 36  2  0
 36 37  1  0
 36 38  1  0
 38 39  1  0
 38  2  2  0
 32 23  1  0
M  CHG  2   3  -1   8  -1
M  END
>  <UniqueID>  (56) 
47

>  <SMILES>  (56) 
CN(CC[N-]C(=O)/N=c1\cccc[n-]1)Cc1ccccc1

>  <Energy>  (56) 
47.90395912511227

>  <Genealogy>  (56) 
CN(CC[N-]C(=O)N=c1cccc[n-]1)Cc1ccccc1 (protonated)
CN(CC[N-]C(=O)/N=c1\cccc[n-]1)Cc1ccccc1 (cis-trans isomerization)
CN(CC[N-]C(=O)/N=c1\cccc[n-]1)Cc1ccccc1 (3D coordinates assigned)
CN(CC[N-]C(=O)/N=c1\cccc[n-]1)Cc1ccccc1 (optimized conformer: 47.90395912511227 kcal/mol)

>  <smiles>  (56) 
CN(CCNC(=O)N=c1cccc[nH]1)Cc1ccccc1

>  <score_type>  (56) 
oracle

>  <origin>  (56) 
adg

>  <m_score__min__energy>  (56) 
-10.09

>  <m_primary>  (56) 
energy

$$$$
56:0
     RDKit          3D

 39 40  0  0  0  0  0  0  0  0999 V2000
   62.0180   33.7820   46.7590 N   0  0  0  0  0  0  0  0  0  0  0  0
   62.6060   32.3590   47.5440 S   0  0  0  0  0  0  0  0  0  0  0  0
   63.0650   32.7080   48.9300 O   0  0  0  0  0  0  0  0  0  0  0  0
   63.7740   31.8060   46.7740 O   0  0  0  0  0  0  0  0  0  0  0  0
   61.3270   31.1510   47.6160 C   0  0  0  0  0  0  0  0  0  0  0  0
   61.1530   30.2360   46.5680 C   0  0  0  0  0  0  0  0  0  0  0  0
   60.1310   29.2830   46.6280 C   0  0  0  0  0  0  0  0  0  0  0  0
   59.2710   29.2360   47.7300 C   0  0  0  0  0  0  0  0  0  0  0  0
   58.2520   28.2280   47.7760 N   0  0  0  0  0  0  0  0  0  0  0  0
   57.9360   27.2930   46.7360 C   0  0  0  0  0  0  0  0  0  0  0  0
   58.5950   26.2230   46.6630 O   0  0  0  0  0  0  0  0  0  0  0  0
   56.9580   27.6180   45.6460 C   0  0  0  0  0  0  0  0  0  0  0  0
   57.6220   28.4600   44.6480 N   0  0  0  0  0  0  0  0  0  0  0  0
   56.6160   29.8080   44.2090 S   0  0  0  0  0  0  0  0  0  0  0  0
   56.4150   29.8180   42.7210 O   0  0  0  0  0  0  0  0  0  0  0  0
   55.2730   29.6700   44.8750 O   0  0  0  0  0  0  0  0  0  0  0  0
   57.4060   31.3080   44.6970 C   0  0  0  0  0  0  0  0  0  0  0  0
   57.7850   31.5230   46.0290 C   0  0  0  0  0  0  0  0  0  0  0  0
   58.4240   32.7120   46.3950 C   0  0  0  0  0  0  0  0  0  0  0  0
   58.6940   33.7030   45.4310 C   0  0  0  0  0  0  0  0  0  0  0  0
   59.3590   34.9680   45.8150 C   0  0  0  0  0  0  0  0  0  0  0  0
   59.5060   35.8950   44.9760 O   0  0  0  0  0  0  0  0  0  0  0  0
   59.8330   35.1470   47.1070 O   0  0  0  0  0  0  0  0  0  0  0  0
   58.3270   33.4720   44.0950 C   0  0  0  0  0  0  0  0  0  0  0  0
   57.6870   32.2840   43.7310 C   0  0  0  0  0  0  0  0  0  0  0  0
   59.4810   30.1170   48.8060 C   0  0  0  0  0  0  0  0  0  0  0  0
   60.4950   31.0770   48.7410 C   0  0  0  0  0  0  0  0  0  0  0  0
   61.8590   34.4990   47.5030 H   0  0  0  0  0  0  0  0  0  0  0  0
   61.0840   33.5420   46.3560 H   0  0  0  0  0  0  0  0  0  0  0  0
   61.8224   30.2677   45.6957 H   0  0  0  0  0  0  0  0  0  0  0  0
   60.0028   28.5662   45.8035 H   0  0  0  0  0  0  0  0  0  0  0  0
   56.6107   26.6880   45.1722 H   0  0  0  0  0  0  0  0  0  0  0  0
   56.0936   28.1516   46.0679 H   0  0  0  0  0  0  0  0  0  0  0  0
   57.5793   30.7545   46.7887 H   0  0  0  0  0  0  0  0  0  0  0  0
   58.7177   32.8744   47.4426 H   0  0  0  0  0  0  0  0  0  0  0  0
   58.5449   34.2315   43.3297 H   0  0  0  0  0  0  0  0  0  0  0  0
   57.4026   32.1142   42.6820 H   0  0  0  0  0  0  0  0  0  0  0  0
   58.8454   30.0504   49.7013 H   0  0  0  0  0  0  0  0  0  0  0  0
   60.6404   31.7774   49.5767 H   0  0  0  0  0  0  0  0  0  0  0  0
  1  2  1  0
  2  3  2  0
  2  4  2  0
  2  5  1  0
  5  6  2  0
  6  7  1  0
  7  8  2  0
  8  9  1  0
  9 10  1  0
 10 11  2  0
 10 12  1  0
 12 13  1  0
 13 14  1  0
 14 15  2  0
 14 16  2  0
 14 17  1  0
 17 18  2  0
 18 19  1  0
 19 20  2  0
 20 21  1  0
 21 22  2  0
 21 23  1  0
 20 24  1  0
 24 25  2  0
  8 26  1  0
 26 27  2  0
 27  5  1  0
 25 17  1  0
  1 28  1  0
  1 29  1  0
  6 30  1  0
  7 31  1  0
 12 32  1  0
 12 33  1  0
 18 34  1  0
 19 35  1  0
 24 36  1  0
 25 37  1  0
 26 38  1  0
 27 39  1  0
M  CHG  3   9  -1  13  -1  23  -1
M  END
>  <UniqueID>  (57) 
48

>  <SMILES>  (57) 
NS(=O)(=O)c1ccc([N-]C(=O)C[N-]S(=O)(=O)c2ccc(C(=O)[O-])cc2)cc1

>  <Energy>  (57) 
37.940579239311745

>  <Genealogy>  (57) 
NS(=O)(=O)c1ccc([N-]C(=O)C[N-]S(=O)(=O)c2ccc(C(=O)[O-])cc2)cc1 (protonated)
NS(=O)(=O)c1ccc([N-]C(=O)C[N-]S(=O)(=O)c2ccc(C(=O)[O-])cc2)cc1 (3D coordinates assigned)
NS(=O)(=O)c1ccc([N-]C(=O)C[N-]S(=O)(=O)c2ccc(C(=O)[O-])cc2)cc1 (optimized conformer: 37.940579239311745 kcal/mol)

>  <smiles>  (57) 
NS(=O)(=O)c1ccc(NC(=O)CNS(=O)(=O)c2ccc(C(=O)O)cc2)cc1

>  <score_type>  (57) 
oracle

>  <origin>  (57) 
adg

>  <m_score__min__energy>  (57) 
-13.17

>  <m_primary>  (57) 
energy

$$$$
57:0
     RDKit          3D

 51 54  0  0  1  0  0  0  0  0999 V2000
   64.7810   32.1000   50.2520 C   0  0  0  0  0  0  0  0  0  0  0  0
   63.6590   32.5690   49.4580 N   0  0  0  0  0  0  0  0  0  0  0  0
   63.1700   33.8100   50.0220 C   0  0  0  0  0  0  0  0  0  0  0  0
   61.8510   34.1690   49.3470 C   0  0  0  0  0  0  0  0  0  0  0  0
   61.9580   33.8330   47.9120 N   0  0  0  0  0  0  0  0  0  0  0  0
   60.8300   33.5600   47.1160 C   0  0  0  0  0  0  0  0  0  0  0  0
   60.4050   32.3020   46.7560 C   0  0  0  0  0  0  0  0  0  0  0  0
   57.4270   26.7040   46.6180 C   0  0  0  0  0  0  0  0  0  0  0  0
   57.6380   27.7940   45.8260 C   0  0  0  0  0  0  0  0  0  0  0  0
   57.4070   32.8930   44.6950 N   0  0  0  0  0  0  0  0  0  0  0  0
   57.1430   31.7530   44.1760 C   0  0  0  0  0  0  0  0  0  0  0  0
   57.0330   31.5750   42.8180 C   0  0  0  0  0  0  0  0  0  0  0  0
   56.7450   30.3130   42.3400 C   0  0  0  0  0  0  0  0  0  0  0  0
   56.5660   29.2450   43.1470 N   0  0  0  0  0  0  0  0  0  0  0  0
   56.6790   29.4540   44.4670 C   0  0  0  0  0  0  0  0  0  0  0  0
   56.5250   28.4990   45.3220 N   0  0  0  0  0  0  0  0  0  0  0  0
   58.5560   33.1240   45.5080 C   0  0  0  0  0  0  0  0  0  0  0  0
   59.3000   32.0590   45.9730 C   0  0  0  0  0  0  0  0  0  0  0  0
   58.5460   26.0230   47.1030 C   0  0  0  0  0  0  0  0  0  0  0  0
   59.8200   26.4400   46.7920 C   0  0  0  0  0  0  0  0  0  0  0  0
   59.9830   27.5500   45.9850 C   0  0  0  0  0  0  0  0  0  0  0  0
   58.9640   34.3950   45.8580 C   0  0  0  0  0  0  0  0  0  0  0  0
   56.9590   30.6730   44.9600 N   0  0  0  0  0  0  0  0  0  0  0  0
   58.9030   28.2570   45.4800 C   0  0  0  0  0  0  0  0  0  0  0  0
   60.0860   34.6250   46.6520 C   0  0  0  0  0  0  0  0  0  0  0  0
   63.3320   33.8170   47.4170 C   0  0  0  0  0  0  0  0  0  0  0  0
   64.0790   32.7230   48.1050 C   0  0  0  0  0  0  0  0  0  0  0  0
   64.5411   32.2003   51.3208 H   0  0  0  0  0  0  0  0  0  0  0  0
   64.9794   31.0436   50.0183 H   0  0  0  0  0  0  0  0  0  0  0  0
   65.6722   32.7009   50.0183 H   0  0  0  0  0  0  0  0  0  0  0  0
   63.0107   33.6874   51.1035 H   0  0  0  0  0  0  0  0  0  0  0  0
   63.9052   34.6114   49.8569 H   0  0  0  0  0  0  0  0  0  0  0  0
   61.0312   33.5949   49.8034 H   0  0  0  0  0  0  0  0  0  0  0  0
   61.6415   35.2418   49.4706 H   0  0  0  0  0  0  0  0  0  0  0  0
   60.9835   31.4384   47.1158 H   0  0  0  0  0  0  0  0  0  0  0  0
   56.4083   26.3718   46.8669 H   0  0  0  0  0  0  0  0  0  0  0  0
   57.1715   32.4198   42.1272 H   0  0  0  0  0  0  0  0  0  0  0  0
   56.6573   30.1705   41.2528 H   0  0  0  0  0  0  0  0  0  0  0  0
   56.3480   28.2930   42.7940 H   0  0  0  0  0  0  0  0  0  0  0  0
   59.0130   31.0275   45.7206 H   0  0  0  0  0  0  0  0  0  0  0  0
   58.4067   25.1396   47.7435 H   0  0  0  0  0  0  0  0  0  0  0  0
   60.6952   25.8981   47.1798 H   0  0  0  0  0  0  0  0  0  0  0  0
   61.0014   27.8827   45.7357 H   0  0  0  0  0  0  0  0  0  0  0  0
   58.3832   35.2569   45.4976 H   0  0  0  0  0  0  0  0  0  0  0  0
   57.0430   30.8160   45.9950 H   0  0  0  0  0  0  0  0  0  0  0  0
   59.0395   29.1397   44.8380 H   0  0  0  0  0  0  0  0  0  0  0  0
   60.3779   35.6541   46.9083 H   0  0  0  0  0  0  0  0  0  0  0  0
   63.3318   33.6385   46.3316 H   0  0  0  0  0  0  0  0  0  0  0  0
   63.8140   34.7844   47.6215 H   0  0  0  0  0  0  0  0  0  0  0  0
   63.9043   31.7792   47.5677 H   0  0  0  0  0  0  0  0  0  0  0  0
   65.1475   32.9842   48.1049 H   0  0  0  0  0  0  0  0  0  0  0  0
  1  2  1  0
  2  3  1  0
  3  4  1  0
  4  5  1  0
  5  6  1  0
  6  7  2  0
  7  8  1  0
  8  9  2  0
  9 10  1  0
 10 11  2  0
 11 12  1  0
 12 13  2  0
 13 14  1  0
 14 15  1  0
 15 16  2  0
 16 17  1  0
 17 18  2  0
 18 19  1  0
 19 20  2  0
 20 21  1  0
 21 22  2  0
 15 23  1  0
  9 24  1  0
 24 25  2  0
  5 26  1  0
 26 27  1  0
 27  2  1  0
 25  6  1  0
 23 11  1  0
 22 17  1  0
  1 28  1  0
  1 29  1  0
  1 30  1  0
  3 31  1  0
  3 32  1  0
  4 33  1  0
  4 34  1  0
  7 35  1  0
  8 36  1  0
 12 37  1  0
 13 38  1  0
 14 39  1  0
 18 40  1  0
 19 41  1  0
 20 42  1  0
 21 43  1  0
 22 44  1  0
 23 45  1  0
 24 46  1  0
 25 47  1  0
 26 48  1  0
 26 49  1  0
 27 50  1  0
 27 51  1  0
M  END
>  <smiles>  (58) 
CN1CCN(c2ccc(N=c3cc[nH]c(=Nc4ccccc4)[nH]3)cc2)CC1

>  <score_type>  (58) 
oracle

>  <origin>  (58) 
adg

>  <m_score__min__energy>  (58) 
-8.3900000000000006

>  <m_primary>  (58) 
energy

$$$$
58:0
     RDKit          3D

 23 24  0  0  0  0  0  0  0  0999 V2000
   55.5180   24.5340   46.9000 O   0  0  0  0  0  0  0  0  0  0  0  0
   56.1870   25.5230   46.5010 C   0  0  0  0  0  0  0  0  0  0  0  0
   57.6120   25.4850   46.5520 N   0  0  0  0  0  0  0  0  0  0  0  0
   58.4010   26.5880   46.0980 C   0  0  0  0  0  0  0  0  0  0  0  0
   59.6450   26.5570   46.2910 O   0  0  0  0  0  0  0  0  0  0  0  0
   57.7390   27.7670   45.4680 C   0  0  0  0  0  0  0  0  0  0  0  0
   58.4150   28.7910   44.8960 C   0  0  0  0  0  0  0  0  0  0  0  0
   58.7480   30.0700   45.5570 C   0  0  0  0  0  0  0  0  0  0  0  0
   59.9970   30.2350   46.1780 C   0  0  0  0  0  0  0  0  0  0  0  0
   60.3380   31.4570   46.7590 C   0  0  0  0  0  0  0  0  0  0  0  0
   59.4470   32.5320   46.7090 C   0  0  0  0  0  0  0  0  0  0  0  0
   59.8040   33.7410   47.2950 O   0  0  0  0  0  0  0  0  0  0  0  0
   58.2070   32.3900   46.0700 C   0  0  0  0  0  0  0  0  0  0  0  0
   57.1120   33.7690   46.0130 Cl  0  0  0  0  0  0  0  0  0  0  0  0
   57.8570   31.1560   45.4810 C   0  0  0  0  0  0  0  0  0  0  0  0
   56.6340   30.9860   44.8260 O   0  0  0  0  0  0  0  0  0  0  0  0
   56.2540   27.8050   45.5130 C   0  0  0  0  0  0  0  0  0  0  0  0
   55.6180   28.8120   45.1010 O   0  0  0  0  0  0  0  0  0  0  0  0
   55.5200   26.6840   46.0110 N   0  0  0  0  0  0  0  0  0  0  0  0
   58.7431   28.6603   43.8543 H   0  0  0  0  0  0  0  0  0  0  0  0
   60.7094   29.3973   46.2065 H   0  0  0  0  0  0  0  0  0  0  0  0
   61.3113   31.5743   47.2579 H   0  0  0  0  0  0  0  0  0  0  0  0
   55.8520   30.4940   45.2380 H   0  0  0  0  0  0  0  0  0  0  0  0
  1  2  2  0
  2  3  1  0
  3  4  1  0
  4  5  2  0
  4  6  1  0
  6  7  2  3
  7  8  1  0
  8  9  2  0
  9 10  1  0
 10 11  2  0
 11 12  1  0
 11 13  1  0
 13 14  1  0
 13 15  2  0
 15 16  1  0
  6 17  1  0
 17 18  2  0
 17 19  1  0
 19  2  1  0
 15  8  1  0
  7 20  1  0
  9 21  1  0
 10 22  1  0
 16 23  1  0
M  CHG  3   3  -1  12  -1  19  -1
M  END
>  <UniqueID>  (59) 
49

>  <SMILES>  (59) 
O=C1[N-]C(=O)C(=Cc2ccc([O-])c(Cl)c2O)C(=O)[N-]1

>  <Energy>  (59) 
34.12727749106227

>  <Genealogy>  (59) 
O=C1[N-]C(=O)C(=Cc2ccc([O-])c(Cl)c2O)C(=O)[N-]1 (protonated)
O=C1[N-]C(=O)C(=Cc2ccc([O-])c(Cl)c2O)C(=O)[N-]1 (3D coordinates assigned)
O=C1[N-]C(=O)C(=Cc2ccc([O-])c(Cl)c2O)C(=O)[N-]1 (nonaromatic ring conformer: 34.12727749106227 kcal/mol)

>  <smiles>  (59) 
O=C1NC(=O)C(=Cc2ccc(O)c(Cl)c2O)C(=O)N1

>  <score_type>  (59) 
oracle

>  <origin>  (59) 
adg

>  <m_score__min__energy>  (59) 
-11.93

>  <m_primary>  (59) 
energy

$$$$
59:0
     RDKit          3D

 23 24  0  0  0  0  0  0  0  0999 V2000
   55.0650   31.6260   52.5030 O   0  0  0  0  0  0  0  0  0  0  0  0
   55.2320   30.5000   51.9660 C   0  0  0  0  0  0  0  0  0  0  0  0
   56.5510   30.1080   51.5710 N   0  0  0  0  0  0  0  0  0  0  0  0
   57.4490   29.3440   52.3770 C   0  0  0  0  0  0  0  0  0  0  0  0
   56.9560   28.6320   53.4790 C   0  0  0  0  0  0  0  0  0  0  0  0
   57.8290   27.9050   54.2930 C   0  0  0  0  0  0  0  0  0  0  0  0
   59.2030   27.9050   54.0240 C   0  0  0  0  0  0  0  0  0  0  0  0
   60.3970   26.9160   55.1390 Br  0  0  0  0  0  0  0  0  0  0  0  0
   59.7020   28.6440   52.9450 C   0  0  0  0  0  0  0  0  0  0  0  0
   58.8270   29.3700   52.1310 C   0  0  0  0  0  0  0  0  0  0  0  0
   53.8390   29.3630   51.8790 S   0  0  0  0  0  0  0  0  0  0  0  0
   52.6660   30.6200   51.4570 N   0  0  0  0  0  0  0  0  0  0  0  0
   52.2710   31.6420   52.2310 C   0  0  0  0  0  0  0  0  0  0  0  0
   51.2840   32.3120   51.5450 C   0  0  0  0  0  0  0  0  0  0  0  0
   50.6180   33.4420   52.0010 O   0  0  0  0  0  0  0  0  0  0  0  0
   51.0280   31.7190   50.3620 N   0  0  0  0  0  0  0  0  0  0  0  0
   51.8900   30.6810   50.3570 C   0  0  0  0  0  0  0  0  0  0  0  0
   51.9330   29.8310   49.4280 O   0  0  0  0  0  0  0  0  0  0  0  0
   55.8793   28.6454   53.7038 H   0  0  0  0  0  0  0  0  0  0  0  0
   57.4362   27.3322   55.1460 H   0  0  0  0  0  0  0  0  0  0  0  0
   60.7822   28.6536   52.7375 H   0  0  0  0  0  0  0  0  0  0  0  0
   59.2229   29.9639   51.2940 H   0  0  0  0  0  0  0  0  0  0  0  0
   52.6625   31.8966   53.2269 H   0  0  0  0  0  0  0  0  0  0  0  0
  1  2  2  0
  2  3  1  0
  3  4  1  0
  4  5  2  0
  5  6  1  0
  6  7  2  0
  7  8  1  0
  7  9  1  0
  9 10  2  0
  2 11  1  0
 11 12  1  0
 12 13  1  0
 13 14  2  0
 14 15  1  0
 14 16  1  0
 16 17  1  0
 17 18  2  0
 10  4  1  0
 17 12  1  0
  5 19  1  0
  6 20  1  0
  9 21  1  0
 10 22  1  0
 13 23  1  0
M  CHG  3   3  -1  15  -1  16  -1
M  END
>  <UniqueID>  (60) 
50

>  <SMILES>  (60) 
O=C([N-]c1ccc(Br)cc1)Sn1cc([O-])[n-]c1=O

>  <Energy>  (60) 
59.657696303789585

>  <Genealogy>  (60) 
O=C([N-]c1ccc(Br)cc1)Sn1cc([O-])[n-]c1=O (protonated)
O=C([N-]c1ccc(Br)cc1)Sn1cc([O-])[n-]c1=O (3D coordinates assigned)
O=C([N-]c1ccc(Br)cc1)Sn1cc([O-])[n-]c1=O (optimized conformer: 59.657696303789585 kcal/mol)

>  <smiles>  (60) 
O=C(Nc1ccc(Br)cc1)Sn1cc(O)[nH]c1=O

>  <score_type>  (60) 
oracle

>  <origin>  (60) 
adg

>  <m_score__min__energy>  (60) 
-13.99

>  <m_primary>  (60) 
energy

$$$$
60:0
     RDKit          3D

 37 38  0  0  0  0  0  0  0  0999 V2000
   55.1440   28.9840   44.5120 N   0  0  0  0  0  0  0  0  0  0  0  0
   56.3870   30.1330   44.1630 S   0  0  0  0  0  0  0  0  0  0  0  0
   56.5220   30.2910   42.6750 O   0  0  0  0  0  0  0  0  0  0  0  0
   56.0080   31.4560   44.7680 O   0  0  0  0  0  0  0  0  0  0  0  0
   57.9160   29.5690   44.8320 C   0  0  0  0  0  0  0  0  0  0  0  0
   58.4900   28.3900   44.3460 C   0  0  0  0  0  0  0  0  0  0  0  0
   59.7130   27.9460   44.8510 C   0  0  0  0  0  0  0  0  0  0  0  0
   60.3690   28.6780   45.8430 C   0  0  0  0  0  0  0  0  0  0  0  0
   59.8060   29.8630   46.3500 C   0  0  0  0  0  0  0  0  0  0  0  0
   60.5260   30.6440   47.3870 C   0  0  0  0  0  0  0  0  0  0  0  0
   60.2290   30.4790   48.6020 O   0  0  0  0  0  0  0  0  0  0  0  0
   61.5530   31.5850   47.0310 N   0  0  0  0  0  0  0  0  0  0  0  0
   62.3470   32.2940   48.0340 C   0  0  0  0  0  0  0  0  0  0  0  0
   61.9960   33.7870   48.0530 C   0  0  0  0  0  0  0  0  0  0  0  0
   60.3600   34.1120   48.8080 S   0  0  0  0  0  0  0  0  0  0  0  0
   59.4170   34.0500   47.2820 C   0  0  0  0  0  0  0  0  0  0  0  0
   58.1140   33.5390   47.2790 C   0  0  0  0  0  0  0  0  0  0  0  0
   57.3630   33.5420   46.0980 C   0  0  0  0  0  0  0  0  0  0  0  0
   57.9080   34.0710   44.9240 C   0  0  0  0  0  0  0  0  0  0  0  0
   59.2060   34.5890   44.9270 C   0  0  0  0  0  0  0  0  0  0  0  0
   59.9600   34.5790   46.1040 C   0  0  0  0  0  0  0  0  0  0  0  0
   58.5720   30.3020   45.8310 C   0  0  0  0  0  0  0  0  0  0  0  0
   54.5660   29.3850   45.2850 H   0  0  0  0  0  0  0  0  0  0  0  0
   57.9765   27.8113   43.5640 H   0  0  0  0  0  0  0  0  0  0  0  0
   60.1610   27.0177   44.4669 H   0  0  0  0  0  0  0  0  0  0  0  0
   61.3354   28.3244   46.2316 H   0  0  0  0  0  0  0  0  0  0  0  0
   61.5800   31.9500   46.0530 H   0  0  0  0  0  0  0  0  0  0  0  0
   62.1431   31.8632   49.0254 H   0  0  0  0  0  0  0  0  0  0  0  0
   63.4119   32.1860   47.7805 H   0  0  0  0  0  0  0  0  0  0  0  0
   62.7639   34.3227   48.6304 H   0  0  0  0  0  0  0  0  0  0  0  0
   61.9584   34.1352   47.0102 H   0  0  0  0  0  0  0  0  0  0  0  0
   57.6799   33.1348   48.2054 H   0  0  0  0  0  0  0  0  0  0  0  0
   56.3438   33.1281   46.0934 H   0  0  0  0  0  0  0  0  0  0  0  0
   57.3148   34.0794   43.9977 H   0  0  0  0  0  0  0  0  0  0  0  0
   59.6344   35.0046   44.0030 H   0  0  0  0  0  0  0  0  0  0  0  0
   60.9815   34.9872   46.1052 H   0  0  0  0  0  0  0  0  0  0  0  0
   58.1189   31.2286   46.2132 H   0  0  0  0  0  0  0  0  0  0  0  0
  1  2  1  0
  2  3  2  0
  2  4  2  0
  2  5  1  0
  5  6  2  0
  6  7  1  0
  7  8  2  0
  8  9  1  0
  9 10  1  0
 10 11  2  0
 10 12  1  0
 12 13  1  0
 13 14  1  0
 14 15  1  0
 15 16  1  0
 16 17  2  0
 17 18  1  0
 18 19  2  0
 19 20  1  0
 20 21  2  0
  9 22  2  0
 22  5  1  0
 21 16  1  0
  1 23  1  0
  6 24  1  0
  7 25  1  0
  8 26  1  0
 12 27  1  0
 13 28  1  0
 13 29  1  0
 14 30  1  0
 14 31  1  0
 17 32  1  0
 18 33  1  0
 19 34  1  0
 20 35  1  0
 21 36  1  0
 22 37  1  0
M  CHG  1   1  -1
M  END
>  <UniqueID>  (61) 
51

>  <SMILES>  (61) 
[NH-]S(=O)(=O)c1cccc(C(=O)NCCSc2ccccc2)c1

>  <Energy>  (61) 
30.441094290851627

>  <Genealogy>  (61) 
[NH-]S(=O)(=O)c1cccc(C(=O)NCCSc2ccccc2)c1 (protonated)
[NH-]S(=O)(=O)c1cccc(C(=O)NCCSc2ccccc2)c1 (3D coordinates assigned)
[NH-]S(=O)(=O)c1cccc(C(=O)NCCSc2ccccc2)c1 (optimized conformer: 30.441094290851627 kcal/mol)

>  <smiles>  (61) 
NS(=O)(=O)c1cccc(C(=O)NCCSc2ccccc2)c1

>  <score_type>  (61) 
oracle

>  <origin>  (61) 
adg

>  <m_score__min__energy>  (61) 
-11.789999999999999

>  <m_primary>  (61) 
energy

$$$$
61:0
     RDKit          3D

 51 54  0  0  0  0  0  0  0  0999 V2000
   58.1610   33.8720   47.2100 C   0  0  0  0  0  0  0  0  0  0  0  0
   58.0340   32.9640   46.0280 C   0  0  0  0  0  0  0  0  0  0  0  0
   57.9030   31.6240   46.2200 N   0  0  0  0  0  0  0  0  0  0  0  0
   57.8300   30.7430   45.1840 C   0  0  0  0  0  0  0  0  0  0  0  0
   57.7680   29.2880   45.4630 C   0  0  0  0  0  0  0  0  0  0  0  0
   58.8850   28.5840   45.9730 C   0  0  0  0  0  0  0  0  0  0  0  0
   60.1570   29.2180   46.1860 N   0  0  0  0  0  0  0  0  0  0  0  0
   60.4090   30.1930   47.2120 C   0  0  0  0  0  0  0  0  0  0  0  0
   59.6470   30.2220   48.3910 C   0  0  0  0  0  0  0  0  0  0  0  0
   59.9460   31.1410   49.3970 C   0  0  0  0  0  0  0  0  0  0  0  0
   61.0060   32.0370   49.2400 C   0  0  0  0  0  0  0  0  0  0  0  0
   61.7750   32.0300   48.0630 C   0  0  0  0  0  0  0  0  0  0  0  0
   62.9110   32.9660   47.8820 C   0  0  0  0  0  0  0  0  0  0  0  0
   64.1400   32.5440   47.2860 N   0  0  0  0  0  0  0  0  0  0  0  0
   62.7910   34.1690   48.2420 O   0  0  0  0  0  0  0  0  0  0  0  0
   61.4510   31.1160   47.0430 C   0  0  0  0  0  0  0  0  0  0  0  0
   58.7560   27.2710   46.2950 N   0  0  0  0  0  0  0  0  0  0  0  0
   57.5900   26.5950   46.1120 C   0  0  0  0  0  0  0  0  0  0  0  0
   57.4980   25.1950   46.4520 N   0  0  0  0  0  0  0  0  0  0  0  0
   57.0250   24.7950   47.7850 C   0  0  0  0  0  0  0  0  0  0  0  0
   56.4600   23.3720   47.7470 C   0  0  0  0  0  0  0  0  0  0  0  0
   57.3810   22.4830   47.1480 O   0  0  0  0  0  0  0  0  0  0  0  0
   57.5460   22.8220   45.7860 C   0  0  0  0  0  0  0  0  0  0  0  0
   58.2090   24.1960   45.6420 C   0  0  0  0  0  0  0  0  0  0  0  0
   56.5150   27.2520   45.6040 N   0  0  0  0  0  0  0  0  0  0  0  0
   56.5720   28.5690   45.2830 C   0  0  0  0  0  0  0  0  0  0  0  0
   55.5350   29.1370   44.8470 O   0  0  0  0  0  0  0  0  0  0  0  0
   57.8890   31.2240   43.8670 C   0  0  0  0  0  0  0  0  0  0  0  0
   58.0240   32.5950   43.6420 C   0  0  0  0  0  0  0  0  0  0  0  0
   58.1010   33.4740   44.7230 C   0  0  0  0  0  0  0  0  0  0  0  0
   58.2550   34.8040   44.5030 F   0  0  0  0  0  0  0  0  0  0  0  0
   58.0786   33.2830   48.1354 H   0  0  0  0  0  0  0  0  0  0  0  0
   59.1384   34.3759   47.1819 H   0  0  0  0  0  0  0  0  0  0  0  0
   57.3594   34.6248   47.1819 H   0  0  0  0  0  0  0  0  0  0  0  0
   60.9270   28.9960   45.5160 H   0  0  0  0  0  0  0  0  0  0  0  0
   58.8119   29.5181   48.5217 H   0  0  0  0  0  0  0  0  0  0  0  0
   59.3445   31.1601   50.3178 H   0  0  0  0  0  0  0  0  0  0  0  0
   61.2405   32.7524   50.0420 H   0  0  0  0  0  0  0  0  0  0  0  0
   64.9420   33.2090   47.2210 H   0  0  0  0  0  0  0  0  0  0  0  0
   64.2390   31.6090   46.8330 H   0  0  0  0  0  0  0  0  0  0  0  0
   62.0216   31.1258   46.1026 H   0  0  0  0  0  0  0  0  0  0  0  0
   57.8653   24.8324   48.4939 H   0  0  0  0  0  0  0  0  0  0  0  0
   56.2303   25.4857   48.1034 H   0  0  0  0  0  0  0  0  0  0  0  0
   56.2528   23.0385   48.7746 H   0  0  0  0  0  0  0  0  0  0  0  0
   55.5348   23.3754   47.1521 H   0  0  0  0  0  0  0  0  0  0  0  0
   58.1781   22.0642   45.3001 H   0  0  0  0  0  0  0  0  0  0  0  0
   56.5551   22.8578   45.3097 H   0  0  0  0  0  0  0  0  0  0  0  0
   59.2536   24.1317   45.9806 H   0  0  0  0  0  0  0  0  0  0  0  0
   58.1722   24.5011   44.5858 H   0  0  0  0  0  0  0  0  0  0  0  0
   57.8293   30.5262   43.0187 H   0  0  0  0  0  0  0  0  0  0  0  0
   58.0696   32.9821   42.6134 H   0  0  0  0  0  0  0  0  0  0  0  0
  1  2  1  0
  2  3  2  0
  3  4  1  0
  4  5  1  0
  5  6  2  0
  6  7  1  0
  7  8  1  0
  8  9  2  0
  9 10  1  0
 10 11  2  0
 11 12  1  0
 12 13  1  0
 13 14  1  0
 13 15  2  0
 12 16  2  0
  6 17  1  0
 17 18  1  0
 18 19  1  0
 19 20  1  0
 20 21  1  0
 21 22  1  0
 22 23  1  0
 23 24  1  0
 18 25  2  0
 25 26  1  0
 26 27  2  0
  4 28  2  0
 28 29  1  0
 29 30  2  0
 30 31  1  0
 30  2  1  0
 26  5  1  0
 16  8  1  0
 24 19  1  0
  1 32  1  0
  1 33  1  0
  1 34  1  0
  7 35  1  0
  9 36  1  0
 10 37  1  0
 11 38  1  0
 14 39  1  0
 14 40  1  0
 16 41  1  0
 20 42  1  0
 20 43  1  0
 21 44  1  0
 21 45  1  0
 23 46  1  0
 23 47  1  0
 24 48  1  0
 24 49  1  0
 28 50  1  0
 29 51  1  0
M  CHG  1  17  -1
M  END
>  <UniqueID>  (62) 
52

>  <SMILES>  (62) 
Cc1nc(-c2c(Nc3cccc(C(N)=O)c3)[n-]c(N3CCOCC3)nc2=O)ccc1F

>  <Energy>  (62) 
69.18092523902347

>  <Genealogy>  (62) 
Cc1nc(-c2c(Nc3cccc(C(N)=O)c3)[n-]c(N3CCOCC3)nc2=O)ccc1F (protonated)
Cc1nc(-c2c(Nc3cccc(C(N)=O)c3)[n-]c(N3CCOCC3)nc2=O)ccc1F (3D coordinates assigned)
Cc1nc(-c2c(Nc3cccc(C(N)=O)c3)[n-]c(N3CCOCC3)nc2=O)ccc1F (nonaromatic ring conformer: 69.18092523902347 kcal/mol)

>  <smiles>  (62) 
Cc1nc(-c2c(Nc3cccc(C(N)=O)c3)[nH]c(N3CCOCC3)nc2=O)ccc1F

>  <score_type>  (62) 
oracle

>  <origin>  (62) 
adg

>  <m_score__min__energy>  (62) 
-10.44

>  <m_primary>  (62) 
energy

$$$$
62:0
     RDKit          3D

 86 90  0  0  1  0  0  0  0  0999 V2000
   59.6480   34.0160   49.5880 C   0  0  0  0  0  0  0  0  0  0  0  0
   60.3580   33.0270   48.9160 O   0  0  0  0  0  0  0  0  0  0  0  0
   61.7100   32.8300   48.8810 C   0  0  0  0  0  0  0  0  0  0  0  0
   62.4410   32.2390   49.9060 C   0  0  0  0  0  0  0  0  0  0  0  0
   63.8070   32.0560   49.8360 C   0  0  0  0  0  0  0  0  0  0  0  0
   64.5220   31.4620   50.9080 N   0  0  0  0  0  0  0  0  0  0  0  0
   63.9250   30.6600   51.9480 C   0  0  0  0  0  0  0  0  0  0  0  0
   64.5440   29.2730   51.9890 C   0  0  0  0  0  0  0  0  0  0  0  0
   65.8250   29.2750   51.2940 N   0  0  0  0  0  0  0  0  0  0  0  0
   66.5680   28.1100   51.6500 C   0  0  0  0  0  0  0  0  0  0  0  0
   67.1980   27.4350   50.4450 C   0  0  0  0  0  0  0  0  0  0  0  0
   67.8980   28.4010   49.7380 O   0  0  0  0  0  0  0  0  0  0  0  0
   66.5280   30.4520   51.7650 C   0  0  0  0  0  0  0  0  0  0  0  0
   65.9800   31.6390   50.9980 C   0  0  0  0  0  0  0  0  0  0  0  0
   64.4430   32.4860   48.6920 C   0  0  0  0  0  0  0  0  0  0  0  0
   63.7470   33.0860   47.6360 C   0  0  0  0  0  0  0  0  0  0  0  0
   62.3840   33.2540   47.7390 C   0  0  0  0  0  0  0  0  0  0  0  0
   61.7270   33.8750   46.6450 N   0  0  0  0  0  0  0  0  0  0  0  0
   60.5040   33.6840   46.3370 C   0  0  0  0  0  0  0  0  0  0  0  0
   59.8480   34.6880   45.7270 N   0  0  0  0  0  0  0  0  0  0  0  0
   58.5530   34.5680   45.3700 C   0  0  0  0  0  0  0  0  0  0  0  0
   57.9500   33.3600   45.6680 C   0  0  0  0  0  0  0  0  0  0  0  0
   56.6480   33.1860   45.3290 F   0  0  0  0  0  0  0  0  0  0  0  0
   58.6560   32.3320   46.3010 C   0  0  0  0  0  0  0  0  0  0  0  0
   58.0100   31.2590   46.5310 N   0  0  0  0  0  0  0  0  0  0  0  0
   58.0030   30.2060   45.5770 C   0  0  0  0  0  0  0  0  0  0  0  0
   57.0590   30.0910   44.5780 C   0  0  0  0  0  0  0  0  0  0  0  0
   57.1090   29.0240   43.6740 C   0  0  0  0  0  0  0  0  0  0  0  0
   58.0950   28.0640   43.7550 C   0  0  0  0  0  0  0  0  0  0  0  0
   59.0410   28.1760   44.7530 C   0  0  0  0  0  0  0  0  0  0  0  0
   58.9860   29.2230   45.6340 C   0  0  0  0  0  0  0  0  0  0  0  0
   60.1880   29.3600   46.8870 S   0  0  0  0  0  0  0  0  0  0  0  0
   61.3630   30.1620   46.3940 O   0  0  0  0  0  0  0  0  0  0  0  0
   60.7090   28.0130   47.3040 O   0  0  0  0  0  0  0  0  0  0  0  0
   59.5600   30.1410   48.2830 N   0  0  0  0  0  0  0  0  0  0  0  0
   60.3120   29.7780   49.4440 C   0  0  0  0  0  0  0  0  0  0  0  0
   59.4850   29.8490   50.7170 C   0  0  0  0  0  0  0  0  0  0  0  0
   59.8140   31.0330   51.5770 C   0  0  0  0  0  0  0  0  0  0  0  0
   58.6320   31.5500   52.1910 N   0  0  0  0  0  0  0  0  0  0  0  0
   57.5520   31.8500   51.3070 C   0  0  0  0  0  0  0  0  0  0  0  0
   56.2770   31.1110   51.6650 C   0  0  0  0  0  0  0  0  0  0  0  0
   56.6340   29.8090   51.9860 O   0  0  0  0  0  0  0  0  0  0  0  0
   57.2700   29.8070   53.2090 C   0  0  0  0  0  0  0  0  0  0  0  0
   58.2790   30.8900   53.4080 C   0  0  0  0  0  0  0  0  0  0  0  0
   59.9410   32.5010   46.6360 N   0  0  0  0  0  0  0  0  0  0  0  0
   59.7531   33.8697   50.6731 H   0  0  0  0  0  0  0  0  0  0  0  0
   60.0443   35.0041   49.3112 H   0  0  0  0  0  0  0  0  0  0  0  0
   58.5851   33.9565   49.3112 H   0  0  0  0  0  0  0  0  0  0  0  0
   61.9090   31.9040   50.8086 H   0  0  0  0  0  0  0  0  0  0  0  0
   64.0833   31.1534   52.9183 H   0  0  0  0  0  0  0  0  0  0  0  0
   62.8500   30.5580   51.7384 H   0  0  0  0  0  0  0  0  0  0  0  0
   64.6989   28.9746   53.0364 H   0  0  0  0  0  0  0  0  0  0  0  0
   63.8668   28.5619   51.4932 H   0  0  0  0  0  0  0  0  0  0  0  0
   67.3657   28.3999   52.3498 H   0  0  0  0  0  0  0  0  0  0  0  0
   65.8700   27.3942   52.1087 H   0  0  0  0  0  0  0  0  0  0  0  0
   67.8848   26.6422   50.7763 H   0  0  0  0  0  0  0  0  0  0  0  0
   66.4237   26.9791   49.8105 H   0  0  0  0  0  0  0  0  0  0  0  0
   67.5020   29.3010   49.9260 H   0  0  0  0  0  0  0  0  0  0  0  0
   66.3555   30.5877   52.8429 H   0  0  0  0  0  0  0  0  0  0  0  0
   67.6114   30.3499   51.6041 H   0  0  0  0  0  0  0  0  0  0  0  0
   66.2143   32.5727   51.5303 H   0  0  0  0  0  0  0  0  0  0  0  0
   66.4293   31.6979   49.9957 H   0  0  0  0  0  0  0  0  0  0  0  0
   65.5316   32.3537   48.6057 H   0  0  0  0  0  0  0  0  0  0  0  0
   64.2824   33.4193   46.7347 H   0  0  0  0  0  0  0  0  0  0  0  0
   60.3070   35.6050   45.5030 H   0  0  0  0  0  0  0  0  0  0  0  0
   58.0085   35.3832   44.8711 H   0  0  0  0  0  0  0  0  0  0  0  0
   56.2612   30.8433   44.4913 H   0  0  0  0  0  0  0  0  0  0  0  0
   56.3472   28.9499   42.8839 H   0  0  0  0  0  0  0  0  0  0  0  0
   58.1268   27.2282   43.0406 H   0  0  0  0  0  0  0  0  0  0  0  0
   59.8393   27.4244   44.8410 H   0  0  0  0  0  0  0  0  0  0  0  0
   59.4700   31.1580   48.1720 H   0  0  0  0  0  0  0  0  0  0  0  0
   60.6798   28.7489   49.3189 H   0  0  0  0  0  0  0  0  0  0  0  0
   61.1413   30.4938   49.5431 H   0  0  0  0  0  0  0  0  0  0  0  0
   58.4221   29.9045   50.4394 H   0  0  0  0  0  0  0  0  0  0  0  0
   59.7154   28.9478   51.3041 H   0  0  0  0  0  0  0  0  0  0  0  0
   60.5236   30.7260   52.3594 H   0  0  0  0  0  0  0  0  0  0  0  0
   60.2595   31.8171   50.9471 H   0  0  0  0  0  0  0  0  0  0  0  0
   57.3546   32.9314   51.3475 H   0  0  0  0  0  0  0  0  0  0  0  0
   57.8499   31.5271   50.2985 H   0  0  0  0  0  0  0  0  0  0  0  0
   55.7918   31.5922   52.5270 H   0  0  0  0  0  0  0  0  0  0  0  0
   55.5679   31.1256   50.8242 H   0  0  0  0  0  0  0  0  0  0  0  0
   56.5029   29.9100   53.9906 H   0  0  0  0  0  0  0  0  0  0  0  0
   57.8277   28.8602   53.2591 H   0  0  0  0  0  0  0  0  0  0  0  0
   57.8631   31.6341   54.1032 H   0  0  0  0  0  0  0  0  0  0  0  0
   59.1912   30.4226   53.8073 H   0  0  0  0  0  0  0  0  0  0  0  0
   60.4720   31.7270   47.1140 H   0  0  0  0  0  0  0  0  0  0  0  0
  1  2  1  0
  2  3  1  0
  3  4  2  0
  4  5  1  0
  5  6  1  0
  6  7  1  0
  7  8  1  0
  8  9  1  0
  9 10  1  0
 10 11  1  0
 11 12  1  0
  9 13  1  0
 13 14  1  0
  5 15  2  0
 15 16  1  0
 16 17  2  0
 17 18  1  0
 18 19  2  0
 19 20  1  0
 20 21  1  0
 21 22  2  0
 22 23  1  0
 22 24  1  0
 24 25  2  0
 25 26  1  0
 26 27  2  0
 27 28  1  0
 28 29  2  0
 29 30  1  0
 30 31  2  0
 31 32  1  0
 32 33  2  0
 32 34  2  0
 32 35  1  0
 35 36  1  0
 36 37  1  0
 37 38  1  0
 38 39  1  0
 39 40  1  0
 40 41  1  0
 41 42  1  0
 42 43  1  0
 43 44  1  0
 24 45  1  0
 17  3  1  0
 45 19  1  0
 14  6  1  0
 31 26  1  0
 44 39  1  0
  1 46  1  0
  1 47  1  0
  1 48  1  0
  4 49  1  0
  7 50  1  0
  7 51  1  0
  8 52  1  0
  8 53  1  0
 10 54  1  0
 10 55  1  0
 11 56  1  0
 11 57  1  0
 12 58  1  0
 13 59  1  0
 13 60  1  0
 14 61  1  0
 14 62  1  0
 15 63  1  0
 16 64  1  0
 20 65  1  0
 21 66  1  0
 27 67  1  0
 28 68  1  0
 29 69  1  0
 30 70  1  0
 35 71  1  0
 36 72  1  0
 36 73  1  0
 37 74  1  0
 37 75  1  0
 38 76  1  0
 38 77  1  0
 40 78  1  0
 40 79  1  0
 41 80  1  0
 41 81  1  0
 43 82  1  0
 43 83  1  0
 44 84  1  0
 44 85  1  0
 45 86  1  0
M  END
>  <smiles>  (63) 
COc1cc(N2CCN(CCO)CC2)ccc1N=c1[nH]cc(F)c(=Nc2ccccc2S(=O)(=O)NCCCN2CCOCC2)[nH]1

>  <score_type>  (63) 
oracle

>  <origin>  (63) 
adg

>  <m_score__min__energy>  (63) 
-10.220000000000001

>  <m_primary>  (63) 
energy

$$$$
63:0
     RDKit          3D

 40 42  0  0  0  0  0  0  0  0999 V2000
   55.1510   28.9650   44.5040 N   0  0  0  0  0  0  0  0  0  0  0  0
   56.4310   30.0460   44.0760 S   0  0  0  0  0  0  0  0  0  0  0  0
   56.6170   30.0050   42.5850 O   0  0  0  0  0  0  0  0  0  0  0  0
   56.0560   31.4390   44.4960 O   0  0  0  0  0  0  0  0  0  0  0  0
   57.9380   29.5830   44.8730 C   0  0  0  0  0  0  0  0  0  0  0  0
   58.5910   28.3980   44.4990 C   0  0  0  0  0  0  0  0  0  0  0  0
   59.7850   28.0270   45.1190 C   0  0  0  0  0  0  0  0  0  0  0  0
   60.3340   28.8310   46.1180 C   0  0  0  0  0  0  0  0  0  0  0  0
   59.6890   30.0080   46.5030 C   0  0  0  0  0  0  0  0  0  0  0  0
   58.4830   30.3960   45.8860 C   0  0  0  0  0  0  0  0  0  0  0  0
   57.8020   31.5700   46.2480 O   0  0  0  0  0  0  0  0  0  0  0  0
   58.4510   33.1510   46.1580 S   0  0  0  0  0  0  0  0  0  0  0  0
   57.3810   34.1430   46.5180 O   0  0  0  0  0  0  0  0  0  0  0  0
   58.9170   33.4130   44.7540 O   0  0  0  0  0  0  0  0  0  0  0  0
   59.8190   33.3020   47.2560 C   0  0  0  0  0  0  0  0  0  0  0  0
   61.0940   33.5780   46.7510 C   0  0  0  0  0  0  0  0  0  0  0  0
   62.1860   33.6850   47.6170 C   0  0  0  0  0  0  0  0  0  0  0  0
   62.0160   33.5310   49.0040 C   0  0  0  0  0  0  0  0  0  0  0  0
   63.1500   33.6310   49.8890 N   0  0  0  0  0  0  0  0  0  0  0  0
   63.2630   34.5580   51.0150 C   0  0  0  0  0  0  0  0  0  0  0  0
   64.7080   34.4030   51.5520 C   0  0  0  0  0  0  0  0  0  0  0  0
   65.3150   33.3460   50.7560 N   0  0  0  0  0  0  0  0  0  0  0  0
   64.3730   32.9220   49.8020 C   0  0  0  0  0  0  0  0  0  0  0  0
   64.5840   31.9710   49.0030 O   0  0  0  0  0  0  0  0  0  0  0  0
   60.7320   33.2470   49.5030 C   0  0  0  0  0  0  0  0  0  0  0  0
   59.6410   33.1380   48.6350 C   0  0  0  0  0  0  0  0  0  0  0  0
   54.6770   29.3670   45.3430 H   0  0  0  0  0  0  0  0  0  0  0  0
   58.1599   27.7593   43.7141 H   0  0  0  0  0  0  0  0  0  0  0  0
   60.2940   27.0990   44.8194 H   0  0  0  0  0  0  0  0  0  0  0  0
   61.2765   28.5373   46.6032 H   0  0  0  0  0  0  0  0  0  0  0  0
   60.1252   30.6366   47.2933 H   0  0  0  0  0  0  0  0  0  0  0  0
   61.2378   33.7113   45.6686 H   0  0  0  0  0  0  0  0  0  0  0  0
   63.1868   33.8914   47.2098 H   0  0  0  0  0  0  0  0  0  0  0  0
   63.0889   35.5908   50.6788 H   0  0  0  0  0  0  0  0  0  0  0  0
   62.5179   34.3387   51.7939 H   0  0  0  0  0  0  0  0  0  0  0  0
   65.2654   35.3433   51.4291 H   0  0  0  0  0  0  0  0  0  0  0  0
   64.7176   34.1588   52.6245 H   0  0  0  0  0  0  0  0  0  0  0  0
   66.2820   32.9700   50.8730 H   0  0  0  0  0  0  0  0  0  0  0  0
   60.5849   33.1096   50.5844 H   0  0  0  0  0  0  0  0  0  0  0  0
   58.6399   32.9228   49.0369 H   0  0  0  0  0  0  0  0  0  0  0  0
  1  2  1  0
  2  3  2  0
  2  4  2  0
  2  5  1  0
  5  6  2  0
  6  7  1  0
  7  8  2  0
  8  9  1  0
  9 10  2  0
 10 11  1  0
 11 12  1  0
 12 13  2  0
 12 14  2  0
 12 15  1  0
 15 16  2  0
 16 17  1  0
 17 18  2  0
 18 19  1  0
 19 20  1  0
 20 21  1  0
 21 22  1  0
 22 23  1  0
 23 24  2  0
 18 25  1  0
 25 26  2  0
 10  5  1  0
 26 15  1  0
 23 19  1  0
  1 27  1  0
  6 28  1  0
  7 29  1  0
  8 30  1  0
  9 31  1  0
 16 32  1  0
 17 33  1  0
 20 34  1  0
 20 35  1  0
 21 36  1  0
 21 37  1  0
 22 38  1  0
 25 39  1  0
 26 40  1  0
M  CHG  1   1  -1
M  END
>  <UniqueID>  (64) 
53

>  <SMILES>  (64) 
[NH-]S(=O)(=O)c1ccccc1OS(=O)(=O)c1ccc(N2CCNC2=O)cc1

>  <Energy>  (64) 
58.43283920737946

>  <Genealogy>  (64) 
[NH-]S(=O)(=O)c1ccccc1OS(=O)(=O)c1ccc(N2CCNC2=O)cc1 (protonated)
[NH-]S(=O)(=O)c1ccccc1OS(=O)(=O)c1ccc(N2CCNC2=O)cc1 (3D coordinates assigned)
[NH-]S(=O)(=O)c1ccccc1OS(=O)(=O)c1ccc(N2CCNC2=O)cc1 (nonaromatic ring conformer: 58.43283920737946 kcal/mol)

>  <smiles>  (64) 
NS(=O)(=O)c1ccccc1OS(=O)(=O)c1ccc(N2CCNC2=O)cc1

>  <score_type>  (64) 
oracle

>  <origin>  (64) 
adg

>  <m_score__min__energy>  (64) 
-11.1

>  <m_primary>  (64) 
energy

$$$$
64:0
     RDKit          3D

 43 45  0  0  0  0  0  0  0  0999 V2000
   55.4860   25.6680   45.9640 C   0  0  0  0  0  0  0  0  0  0  0  0
   55.9560   27.0110   45.9760 O   0  0  0  0  0  0  0  0  0  0  0  0
   57.2940   27.3970   45.7860 C   0  0  0  0  0  0  0  0  0  0  0  0
   58.3550   26.5210   46.0980 C   0  0  0  0  0  0  0  0  0  0  0  0
   59.6790   26.9050   45.8850 C   0  0  0  0  0  0  0  0  0  0  0  0
   59.9660   28.1620   45.3590 C   0  0  0  0  0  0  0  0  0  0  0  0
   58.9310   29.0430   45.0480 C   0  0  0  0  0  0  0  0  0  0  0  0
   57.5850   28.6820   45.2610 C   0  0  0  0  0  0  0  0  0  0  0  0
   56.5130   29.6580   44.9220 C   0  0  0  0  0  0  0  0  0  0  0  0
   55.3040   29.3160   45.0260 O   0  0  0  0  0  0  0  0  0  0  0  0
   56.8440   30.9560   44.4110 N   0  0  0  0  0  0  0  0  0  0  0  0
   57.4430   32.0370   45.1410 C   0  0  0  0  0  0  0  0  0  0  0  0
   57.0180   33.3430   44.8740 C   0  0  0  0  0  0  0  0  0  0  0  0
   57.5970   34.4260   45.5390 C   0  0  0  0  0  0  0  0  0  0  0  0
   58.6130   34.2120   46.4730 C   0  0  0  0  0  0  0  0  0  0  0  0
   59.0550   32.9080   46.7540 C   0  0  0  0  0  0  0  0  0  0  0  0
   60.1330   32.6650   47.6750 N   0  0  0  0  0  0  0  0  0  0  0  0
   61.4980   33.0540   47.4310 C   0  0  0  0  0  0  0  0  0  0  0  0
   61.7870   33.7230   46.4010 O   0  0  0  0  0  0  0  0  0  0  0  0
   62.5820   32.6910   48.3760 C   0  0  0  0  0  0  0  0  0  0  0  0
   63.8080   33.3840   48.3860 C   0  0  0  0  0  0  0  0  0  0  0  0
   64.8180   33.0210   49.2830 C   0  0  0  0  0  0  0  0  0  0  0  0
   64.6200   31.9630   50.1730 C   0  0  0  0  0  0  0  0  0  0  0  0
   63.4130   31.2590   50.1640 C   0  0  0  0  0  0  0  0  0  0  0  0
   63.1670   29.9260   51.2770 Cl  0  0  0  0  0  0  0  0  0  0  0  0
   62.3990   31.6180   49.2680 C   0  0  0  0  0  0  0  0  0  0  0  0
   58.4850   31.8270   46.0630 C   0  0  0  0  0  0  0  0  0  0  0  0
   55.3620   25.3137   46.9980 H   0  0  0  0  0  0  0  0  0  0  0  0
   54.5186   25.6227   45.4424 H   0  0  0  0  0  0  0  0  0  0  0  0
   56.2141   25.0294   45.4424 H   0  0  0  0  0  0  0  0  0  0  0  0
   58.1362   25.5261   46.5130 H   0  0  0  0  0  0  0  0  0  0  0  0
   60.4978   26.2136   46.1330 H   0  0  0  0  0  0  0  0  0  0  0  0
   61.0109   28.4604   45.1886 H   0  0  0  0  0  0  0  0  0  0  0  0
   59.1679   30.0329   44.6309 H   0  0  0  0  0  0  0  0  0  0  0  0
   56.2222   33.5180   44.1351 H   0  0  0  0  0  0  0  0  0  0  0  0
   57.2524   35.4489   45.3269 H   0  0  0  0  0  0  0  0  0  0  0  0
   59.0694   35.0683   46.9912 H   0  0  0  0  0  0  0  0  0  0  0  0
   59.8830   32.2250   48.5870 H   0  0  0  0  0  0  0  0  0  0  0  0
   63.9722   34.2153   47.6846 H   0  0  0  0  0  0  0  0  0  0  0  0
   65.7710   33.5704   49.2875 H   0  0  0  0  0  0  0  0  0  0  0  0
   65.4142   31.6839   50.8810 H   0  0  0  0  0  0  0  0  0  0  0  0
   61.4526   31.0574   49.2612 H   0  0  0  0  0  0  0  0  0  0  0  0
   58.8560   30.8074   46.2438 H   0  0  0  0  0  0  0  0  0  0  0  0
  1  2  1  0
  2  3  1  0
  3  4  2  0
  4  5  1  0
  5  6  2  0
  6  7  1  0
  7  8  2  0
  8  9  1  0
  9 10  2  0
  9 11  1  0
 11 12  1  0
 12 13  2  0
 13 14  1  0
 14 15  2  0
 15 16  1  0
 16 17  1  0
 17 18  1  0
 18 19  2  0
 18 20  1  0
 20 21  2  0
 21 22  1  0
 22 23  2  0
 23 24  1  0
 24 25  1  0
 24 26  2  0
 16 27  2  0
  8  3  1  0
 27 12  1  0
 26 20  1  0
  1 28  1  0
  1 29  1  0
  1 30  1  0
  4 31  1  0
  5 32  1  0
  6 33  1  0
  7 34  1  0
 13 35  1  0
 14 36  1  0
 15 37  1  0
 17 38  1  0
 21 39  1  0
 22 40  1  0
 23 41  1  0
 26 42  1  0
 27 43  1  0
M  CHG  1  11  -1
M  END
>  <UniqueID>  (65) 
54

>  <SMILES>  (65) 
COc1ccccc1C(=O)[N-]c1cccc(NC(=O)c2cccc(Cl)c2)c1

>  <Energy>  (65) 
58.673567040999366

>  <Genealogy>  (65) 
COc1ccccc1C(=O)[N-]c1cccc(NC(=O)c2cccc(Cl)c2)c1 (protonated)
COc1ccccc1C(=O)[N-]c1cccc(NC(=O)c2cccc(Cl)c2)c1 (3D coordinates assigned)
COc1ccccc1C(=O)[N-]c1cccc(NC(=O)c2cccc(Cl)c2)c1 (optimized conformer: 58.673567040999366 kcal/mol)

>  <smiles>  (65) 
COc1ccccc1C(=O)Nc1cccc(NC(=O)c2cccc(Cl)c2)c1

>  <score_type>  (65) 
oracle

>  <origin>  (65) 
adg

>  <m_score__min__energy>  (65) 
-10.970000000000001

>  <m_primary>  (65) 
energy

$$$$
65:0
     RDKit          3D

 41 43  0  0  0  0  0  0  0  0999 V2000
   56.6480   30.7850   42.3950 C   0  0  0  0  0  0  0  0  0  0  0  0
   56.2470   30.1720   43.7320 C   0  0  0  0  0  0  0  0  0  0  0  0
   57.2840   30.4540   44.7800 C   0  0  0  0  0  0  0  0  0  0  0  0
   57.3990   31.6050   45.3920 O   0  0  0  0  0  0  0  0  0  0  0  0
   58.3770   31.4970   46.2610 C   0  0  0  0  0  0  0  0  0  0  0  0
   58.8330   32.5880   47.1600 C   0  0  0  0  0  0  0  0  0  0  0  0
   59.0220   32.3040   48.5270 C   0  0  0  0  0  0  0  0  0  0  0  0
   59.4540   33.2950   49.4120 C   0  0  0  0  0  0  0  0  0  0  0  0
   59.7030   34.5850   48.9490 C   0  0  0  0  0  0  0  0  0  0  0  0
   59.5190   34.8890   47.6000 C   0  0  0  0  0  0  0  0  0  0  0  0
   59.0860   33.9070   46.6990 C   0  0  0  0  0  0  0  0  0  0  0  0
   58.8540   34.4610   44.8750 Br  0  0  0  0  0  0  0  0  0  0  0  0
   58.9350   30.2650   46.2490 N   0  0  0  0  0  0  0  0  0  0  0  0
   58.2380   29.5990   45.3080 C   0  0  0  0  0  0  0  0  0  0  0  0
   58.4920   28.1860   44.9600 C   0  0  0  0  0  0  0  0  0  0  0  0
   58.1960   27.7550   43.8140 O   0  0  0  0  0  0  0  0  0  0  0  0
   59.0730   27.3000   45.9290 N   0  0  0  0  0  0  0  0  0  0  0  0
   59.2410   25.8710   45.6770 C   0  0  0  0  0  0  0  0  0  0  0  0
   57.9010   25.2210   45.4590 C   0  0  0  0  0  0  0  0  0  0  0  0
   56.7930   25.6290   46.2160 C   0  0  0  0  0  0  0  0  0  0  0  0
   55.5400   25.0520   45.9970 C   0  0  0  0  0  0  0  0  0  0  0  0
   55.3770   24.0670   45.0180 C   0  0  0  0  0  0  0  0  0  0  0  0
   53.7840   23.3680   44.7690 Cl  0  0  0  0  0  0  0  0  0  0  0  0
   56.4810   23.6570   44.2500 C   0  0  0  0  0  0  0  0  0  0  0  0
   56.3190   22.4290   43.0030 Cl  0  0  0  0  0  0  0  0  0  0  0  0
   57.7370   24.2360   44.4720 C   0  0  0  0  0  0  0  0  0  0  0  0
   57.2423   31.6936   42.5717 H   0  0  0  0  0  0  0  0  0  0  0  0
   57.2471   30.0602   41.8243 H   0  0  0  0  0  0  0  0  0  0  0  0
   55.7439   31.0435   41.8243 H   0  0  0  0  0  0  0  0  0  0  0  0
   55.2856   30.6006   44.0514 H   0  0  0  0  0  0  0  0  0  0  0  0
   56.1582   29.0826   43.6080 H   0  0  0  0  0  0  0  0  0  0  0  0
   58.8269   31.2886   48.9024 H   0  0  0  0  0  0  0  0  0  0  0  0
   59.5977   33.0562   50.4761 H   0  0  0  0  0  0  0  0  0  0  0  0
   60.0446   35.3637   49.6469 H   0  0  0  0  0  0  0  0  0  0  0  0
   59.7158   35.9096   47.2400 H   0  0  0  0  0  0  0  0  0  0  0  0
   59.3790   27.6770   46.8540 H   0  0  0  0  0  0  0  0  0  0  0  0
   59.8631   25.7307   44.7807 H   0  0  0  0  0  0  0  0  0  0  0  0
   59.7275   25.4075   46.5479 H   0  0  0  0  0  0  0  0  0  0  0  0
   56.9113   26.4064   46.9852 H   0  0  0  0  0  0  0  0  0  0  0  0
   54.6768   25.3742   46.5979 H   0  0  0  0  0  0  0  0  0  0  0  0
   58.6002   23.9170   43.8693 H   0  0  0  0  0  0  0  0  0  0  0  0
  1  2  1  0
  2  3  1  0
  3  4  1  0
  4  5  1  0
  5  6  1  0
  6  7  2  0
  7  8  1  0
  8  9  2  0
  9 10  1  0
 10 11  2  0
 11 12  1  0
  5 13  2  0
 13 14  1  0
 14 15  1  0
 15 16  2  0
 15 17  1  0
 17 18  1  0
 18 19  1  0
 19 20  2  0
 20 21  1  0
 21 22  2  0
 22 23  1  0
 22 24  1  0
 24 25  1  0
 24 26  2  0
 14  3  2  0
 26 19  1  0
 11  6  1  0
  1 27  1  0
  1 28  1  0
  1 29  1  0
  2 30  1  0
  2 31  1  0
  7 32  1  0
  8 33  1  0
  9 34  1  0
 10 35  1  0
 17 36  1  0
 18 37  1  0
 18 38  1  0
 20 39  1  0
 21 40  1  0
 26 41  1  0
M  END
>  <UniqueID>  (66) 
55

>  <SMILES>  (66) 
CCc1oc(-c2ccccc2Br)nc1C(=O)NCc1ccc(Cl)c(Cl)c1

>  <Energy>  (66) 
71.21438795505979

>  <Genealogy>  (66) 
CCc1oc(-c2ccccc2Br)nc1C(=O)NCc1ccc(Cl)c(Cl)c1 (3D coordinates assigned)
CCc1oc(-c2ccccc2Br)nc1C(=O)NCc1ccc(Cl)c(Cl)c1 (optimized conformer: 71.21438795505979 kcal/mol)

>  <smiles>  (66) 
CCc1oc(-c2ccccc2Br)nc1C(=O)NCc1ccc(Cl)c(Cl)c1

>  <score_type>  (66) 
oracle

>  <origin>  (66) 
adg

>  <m_score__min__energy>  (66) 
-8.3100000000000005

>  <m_primary>  (66) 
energy

$$$$
66:0
     RDKit          3D

 63 66  0  0  0  0  0  0  0  0999 V2000
   55.8762   22.7327   43.3779 H   0  0  0  0  0  0  0  0  0  0  0  0
   55.9090   23.6960   43.9080 C   0  0  0  0  0  0  0  0  0  0  0  0
   56.6428   24.4609   43.6139 H   0  0  0  0  0  0  0  0  0  0  0  0
   55.0610   23.9360   44.9050 C   0  0  0  0  0  0  0  0  0  0  0  0
   54.3379   23.1533   45.1779 H   0  0  0  0  0  0  0  0  0  0  0  0
   55.0450   25.2030   45.6620 C   0  0  0  0  0  0  0  0  0  0  0  0
   54.0060   25.9120   45.6250 O   0  0  0  0  0  0  0  0  0  0  0  0
   56.1480   25.6290   46.4750 N   0  0  0  0  0  0  0  0  0  0  0  0
   57.3100   26.3400   46.0190 C   0  0  0  0  0  0  0  0  0  0  0  0
   58.5760   25.8490   46.3540 C   0  0  0  0  0  0  0  0  0  0  0  0
   58.6655   24.9318   46.9546 H   0  0  0  0  0  0  0  0  0  0  0  0
   59.7280   26.5170   45.9300 C   0  0  0  0  0  0  0  0  0  0  0  0
   60.7199   26.1149   46.1837 H   0  0  0  0  0  0  0  0  0  0  0  0
   59.6230   27.6970   45.1830 C   0  0  0  0  0  0  0  0  0  0  0  0
   60.5334   28.2116   44.8419 H   0  0  0  0  0  0  0  0  0  0  0  0
   58.3600   28.2270   44.8670 C   0  0  0  0  0  0  0  0  0  0  0  0
   58.2500   29.4550   44.1170 N   0  0  0  0  0  0  0  0  0  0  0  0
   57.3010   29.5500   43.6820 H   0  0  0  0  0  0  0  0  0  0  0  0
   58.9470   29.4220   43.3360 H   0  0  0  0  0  0  0  0  0  0  0  0
   58.4760   30.6120   44.9580 C   0  0  0  0  0  0  0  0  0  0  0  0
   58.8030   30.4470   46.3090 C   0  0  0  0  0  0  0  0  0  0  0  0
   58.8169   29.4367   46.7439 H   0  0  0  0  0  0  0  0  0  0  0  0
   59.1120   31.5470   47.1130 C   0  0  0  0  0  0  0  0  0  0  0  0
   59.3993   31.3853   48.1624 H   0  0  0  0  0  0  0  0  0  0  0  0
   59.0620   32.8640   46.6020 C   0  0  0  0  0  0  0  0  0  0  0  0
   59.3460   34.0470   47.3650 C   0  0  0  0  0  0  0  0  0  0  0  0
   59.4340   34.1060   48.6690 N   0  0  0  0  0  0  0  0  0  0  0  0
   59.4910   33.0510   49.6330 C   0  0  0  0  0  0  0  0  0  0  0  0
   60.6870   32.8090   50.3180 C   0  0  0  0  0  0  0  0  0  0  0  0
   61.5686   33.4376   50.1238 H   0  0  0  0  0  0  0  0  0  0  0  0
   60.7620   31.7700   51.2480 C   0  0  0  0  0  0  0  0  0  0  0  0
   61.7083   31.5734   51.7733 H   0  0  0  0  0  0  0  0  0  0  0  0
   59.6380   30.9760   51.5160 C   0  0  0  0  0  0  0  0  0  0  0  0
   59.7570   29.8890   52.4980 C   0  0  0  0  0  0  0  0  0  0  0  0
   59.6318   30.1566   53.5576 H   0  0  0  0  0  0  0  0  0  0  0  0
   60.0050   28.5970   52.2190 C   0  0  0  0  0  0  0  0  0  0  0  0
   59.6745   27.8698   52.9753 H   0  0  0  0  0  0  0  0  0  0  0  0
   60.6730   28.0250   51.0110 C   0  0  0  0  0  0  0  0  0  0  0  0
   61.5700   27.0460   51.1940 C   0  0  0  0  0  0  0  0  0  0  0  0
   62.0821   26.6004   50.3284 H   0  0  0  0  0  0  0  0  0  0  0  0
   61.7940   26.6881   52.2097 H   0  0  0  0  0  0  0  0  0  0  0  0
   60.4300   28.5220   49.6100 C   0  0  0  0  0  0  0  0  0  0  0  0
   59.9472   29.5096   49.6499 H   0  0  0  0  0  0  0  0  0  0  0  0
   61.3896   28.6042   49.0785 H   0  0  0  0  0  0  0  0  0  0  0  0
   59.7758   27.8152   49.0785 H   0  0  0  0  0  0  0  0  0  0  0  0
   58.4050   31.2630   50.8950 C   0  0  0  0  0  0  0  0  0  0  0  0
   57.2780   30.5000   51.2390 O   0  0  0  0  0  0  0  0  0  0  0  0
   56.2710   30.9070   52.1600 C   0  0  0  0  0  0  0  0  0  0  0  0
   56.6336   30.7605   53.1881 H   0  0  0  0  0  0  0  0  0  0  0  0
   56.0373   31.9702   52.0016 H   0  0  0  0  0  0  0  0  0  0  0  0
   55.3642   30.3048   52.0016 H   0  0  0  0  0  0  0  0  0  0  0  0
   58.3420   32.3030   49.9440 C   0  0  0  0  0  0  0  0  0  0  0  0
   57.3892   32.5298   49.4433 H   0  0  0  0  0  0  0  0  0  0  0  0
   59.5190   35.2580   46.6800 C   0  0  0  0  0  0  0  0  0  0  0  0
   59.8407   36.1540   47.2311 H   0  0  0  0  0  0  0  0  0  0  0  0
   59.2880   35.3380   45.3110 C   0  0  0  0  0  0  0  0  0  0  0  0
   59.3955   36.3015   44.7913 H   0  0  0  0  0  0  0  0  0  0  0  0
   58.9310   34.2320   44.6170 N   0  0  0  0  0  0  0  0  0  0  0  0
   58.8220   33.0150   45.2080 C   0  0  0  0  0  0  0  0  0  0  0  0
   58.5270   31.9040   44.4090 C   0  0  0  0  0  0  0  0  0  0  0  0
   58.3323   32.0448   43.3356 H   0  0  0  0  0  0  0  0  0  0  0  0
   57.2050   27.5380   45.2860 C   0  0  0  0  0  0  0  0  0  0  0  0
   56.2113   27.9396   45.0383 H   0  0  0  0  0  0  0  0  0  0  0  0
  1  2  1  0
  2  3  1  0
  2  4  2  0
  4  5  1  0
  4  6  1  0
  6  7  2  0
  6  8  1  0
  8  9  1  0
  9 10  2  0
 10 11  1  0
 10 12  1  0
 12 13  1  0
 12 14  2  0
 14 15  1  0
 14 16  1  0
 16 17  1  0
 17 18  1  0
 17 19  1  0
 17 20  1  0
 20 21  2  0
 21 22  1  0
 21 23  1  0
 23 24  1  0
 23 25  2  0
 25 26  1  0
 26 27  2  3
 27 28  1  0
 28 29  2  0
 29 30  1  0
 29 31  1  0
 31 32  1  0
 31 33  2  0
 33 34  1  0
 34 35  1  0
 34 36  2  0
 36 37  1  0
 36 38  1  0
 38 39  2  0
 39 40  1  0
 39 41  1  0
 38 42  1  0
 42 43  1  0
 42 44  1  0
 42 45  1  0
 33 46  1  0
 46 47  1  0
 47 48  1  0
 48 49  1  0
 48 50  1  0
 48 51  1  0
 46 52  2  0
 52 53  1  0
 26 54  1  0
 54 55  1  0
 54 56  2  0
 56 57  1  0
 56 58  1  0
 58 59  1  0
 59 60  2  0
 60 61  1  0
 16 62  2  0
 62 63  1  0
 62  9  1  0
 60 20  1  0
 59 25  1  0
 52 28  1  0
M  CHG  3   8  -1  17   1  58  -1
M  END
>  <UniqueID>  (67) 
56

>  <SMILES>  (67) 
C=CC(=O)[N-]c1cccc([NH2+]c2ccc3c(=Nc4ccc(/C=C\C(=C)C)c(OC)c4)cc[n-]c3c2)c1

>  <Energy>  (67) 
107.21431214406851

>  <Genealogy>  (67) 
C=CC(=O)[N-]c1cccc([NH2+]c2ccc3c(=Nc4ccc(C=CC(=C)C)c(OC)c4)cc[n-]c3c2)c1 (protonated)
C=CC(=O)[N-]c1cccc([NH2+]c2ccc3c(=Nc4ccc(/C=C\C(=C)C)c(OC)c4)cc[n-]c3c2)c1 (cis-trans isomerization)
C=CC(=O)[N-]c1cccc([NH2+]c2ccc3c(=Nc4ccc(/C=C\C(=C)C)c(OC)c4)cc[n-]c3c2)c1 (3D coordinates assigned)
C=CC(=O)[N-]c1cccc([NH2+]c2ccc3c(=Nc4ccc(/C=C\C(=C)C)c(OC)c4)cc[n-]c3c2)c1 (optimized conformer: 107.21431214406851 kcal/mol)

>  <smiles>  (67) 
C=CC(=O)Nc1cccc(Nc2ccc3c(=Nc4ccc(C=CC(=C)C)c(OC)c4)cc[nH]c3c2)c1

>  <score_type>  (67) 
oracle

>  <origin>  (67) 
adg

>  <m_score__min__energy>  (67) 
-11.289999999999999

>  <m_primary>  (67) 
energy

$$$$
67:0
     RDKit          3D

 55 57  0  0  0  0  0  0  0  0999 V2000
   65.9530   32.7940   50.1510 C   0  0  0  0  0  0  0  0  0  0  0  0
   64.5910   32.2780   49.6690 C   0  0  0  0  0  0  0  0  0  0  0  0
   63.9030   31.3860   50.7140 C   0  0  0  0  0  0  0  0  0  0  0  0
   63.7350   33.3660   49.1580 N   0  0  0  0  0  0  0  0  0  0  0  0
   63.3470   33.3090   47.4520 S   0  0  0  0  0  0  0  0  0  0  0  0
   63.8040   34.5940   46.8170 O   0  0  0  0  0  0  0  0  0  0  0  0
   64.0950   32.1800   46.7970 O   0  0  0  0  0  0  0  0  0  0  0  0
   61.6170   33.1520   47.1600 C   0  0  0  0  0  0  0  0  0  0  0  0
   60.8810   34.2650   46.7340 C   0  0  0  0  0  0  0  0  0  0  0  0
   59.5040   34.1580   46.5210 C   0  0  0  0  0  0  0  0  0  0  0  0
   58.8460   32.9330   46.7250 C   0  0  0  0  0  0  0  0  0  0  0  0
   57.3560   32.8190   46.5340 C   0  0  0  0  0  0  0  0  0  0  0  0
   57.0010   32.9030   45.0740 C   0  0  0  0  0  0  0  0  0  0  0  0
   57.0520   34.0210   44.4960 O   0  0  0  0  0  0  0  0  0  0  0  0
   56.6580   31.7400   44.3070 N   0  0  0  0  0  0  0  0  0  0  0  0
   57.0640   30.4040   44.6250 C   0  0  0  0  0  0  0  0  0  0  0  0
   58.4130   30.0520   44.5200 C   0  0  0  0  0  0  0  0  0  0  0  0
   58.8230   28.7530   44.8270 C   0  0  0  0  0  0  0  0  0  0  0  0
   57.8840   27.7880   45.2040 C   0  0  0  0  0  0  0  0  0  0  0  0
   56.5210   28.1120   45.2630 C   0  0  0  0  0  0  0  0  0  0  0  0
   55.5850   27.0920   45.6470 N   0  0  0  0  0  0  0  0  0  0  0  0
   55.8900   25.8520   46.2990 C   0  0  0  0  0  0  0  0  0  0  0  0
   56.6600   25.8240   47.2950 O   0  0  0  0  0  0  0  0  0  0  0  0
   55.2380   24.6570   45.8640 N   0  0  0  0  0  0  0  0  0  0  0  0
   55.8370   23.6300   45.0620 C   0  0  0  0  0  0  0  0  0  0  0  0
   55.6000   23.6290   43.6810 C   0  0  0  0  0  0  0  0  0  0  0  0
   56.1770   22.6540   42.8620 C   0  0  0  0  0  0  0  0  0  0  0  0
   57.0170   21.6850   43.4170 C   0  0  0  0  0  0  0  0  0  0  0  0
   57.2850   21.6940   44.7870 C   0  0  0  0  0  0  0  0  0  0  0  0
   56.7010   22.6610   45.6140 C   0  0  0  0  0  0  0  0  0  0  0  0
   57.0180   22.6750   46.9330 F   0  0  0  0  0  0  0  0  0  0  0  0
   56.1170   29.4320   44.9870 C   0  0  0  0  0  0  0  0  0  0  0  0
   59.5890   31.8160   47.1450 C   0  0  0  0  0  0  0  0  0  0  0  0
   60.9660   31.9240   47.3600 C   0  0  0  0  0  0  0  0  0  0  0  0
   65.9738   32.8019   51.2508 H   0  0  0  0  0  0  0  0  0  0  0  0
   66.7491   32.1352   49.7739 H   0  0  0  0  0  0  0  0  0  0  0  0
   66.1127   33.8149   49.7739 H   0  0  0  0  0  0  0  0  0  0  0  0
   64.7774   31.6215   48.8063 H   0  0  0  0  0  0  0  0  0  0  0  0
   64.1696   31.7316   51.7237 H   0  0  0  0  0  0  0  0  0  0  0  0
   62.8123   31.4424   50.5832 H   0  0  0  0  0  0  0  0  0  0  0  0
   64.2346   30.3454   50.5832 H   0  0  0  0  0  0  0  0  0  0  0  0
   61.3885   35.2264   46.5666 H   0  0  0  0  0  0  0  0  0  0  0  0
   58.9317   35.0378   46.1917 H   0  0  0  0  0  0  0  0  0  0  0  0
   57.0131   31.8536   46.9344 H   0  0  0  0  0  0  0  0  0  0  0  0
   56.8659   33.6475   47.0663 H   0  0  0  0  0  0  0  0  0  0  0  0
   59.1521   30.7991   44.1952 H   0  0  0  0  0  0  0  0  0  0  0  0
   59.8891   28.4877   44.7720 H   0  0  0  0  0  0  0  0  0  0  0  0
   58.2161   26.7699   45.4555 H   0  0  0  0  0  0  0  0  0  0  0  0
   54.9547   24.4017   43.2377 H   0  0  0  0  0  0  0  0  0  0  0  0
   55.9700   22.6496   41.7817 H   0  0  0  0  0  0  0  0  0  0  0  0
   57.4674   20.9146   42.7739 H   0  0  0  0  0  0  0  0  0  0  0  0
   57.9578   20.9382   45.2185 H   0  0  0  0  0  0  0  0  0  0  0  0
   55.0533   29.7038   45.0553 H   0  0  0  0  0  0  0  0  0  0  0  0
   59.0842   30.8519   47.3053 H   0  0  0  0  0  0  0  0  0  0  0  0
   61.5410   31.0450   47.6866 H   0  0  0  0  0  0  0  0  0  0  0  0
  1  2  1  0
  2  3  1  0
  2  4  1  0
  4  5  1  0
  5  6  2  0
  5  7  2  0
  5  8  1  0
  8  9  2  0
  9 10  1  0
 10 11  2  0
 11 12  1  0
 12 13  1  0
 13 14  2  0
 13 15  1  0
 15 16  1  0
 16 17  2  0
 17 18  1  0
 18 19  2  0
 19 20  1  0
 20 21  1  0
 21 22  1  0
 22 23  2  0
 22 24  1  0
 24 25  1  0
 25 26  2  0
 26 27  1  0
 27 28  2  0
 28 29  1  0
 29 30  2  0
 30 31  1  0
 20 32  2  0
 11 33  1  0
 33 34  2  0
 34  8  1  0
 32 16  1  0
 30 25  1  0
  1 35  1  0
  1 36  1  0
  1 37  1  0
  2 38  1  0
  3 39  1  0
  3 40  1  0
  3 41  1  0
  9 42  1  0
 10 43  1  0
 12 44  1  0
 12 45  1  0
 17 46  1  0
 18 47  1  0
 19 48  1  0
 26 49  1  0
 27 50  1  0
 28 51  1  0
 29 52  1  0
 32 53  1  0
 33 54  1  0
 34 55  1  0
M  CHG  4   4  -1  15  -1  21  -1  24  -1
M  END
>  <UniqueID>  (68) 
57

>  <SMILES>  (68) 
CC(C)[N-]S(=O)(=O)c1ccc(CC(=O)[N-]c2cccc([N-]C(=O)[N-]c3ccccc3F)c2)cc1

>  <Energy>  (68) 
68.09999544327798

>  <Genealogy>  (68) 
CC(C)[N-]S(=O)(=O)c1ccc(CC(=O)[N-]c2cccc([N-]C(=O)[N-]c3ccccc3F)c2)cc1 (protonated)
CC(C)[N-]S(=O)(=O)c1ccc(CC(=O)[N-]c2cccc([N-]C(=O)[N-]c3ccccc3F)c2)cc1 (3D coordinates assigned)
CC(C)[N-]S(=O)(=O)c1ccc(CC(=O)[N-]c2cccc([N-]C(=O)[N-]c3ccccc3F)c2)cc1 (optimized conformer: 68.09999544327798 kcal/mol)

>  <smiles>  (68) 
CC(C)NS(=O)(=O)c1ccc(CC(=O)Nc2cccc(NC(=O)Nc3ccccc3F)c2)cc1

>  <score_type>  (68) 
oracle

>  <origin>  (68) 
adg

>  <m_score__min__energy>  (68) 
-15.27

>  <m_primary>  (68) 
energy

$$$$
68:0
     RDKit          3D

 53 56  0  0  0  0  0  0  0  0999 V2000
   59.9310   27.6430   49.1470 O   0  0  0  0  0  0  0  0  0  0  0  0
   59.6720   28.7490   48.5990 C   0  0  0  0  0  0  0  0  0  0  0  0
   59.5030   29.9210   49.4140 N   0  0  0  0  0  0  0  0  0  0  0  0
   59.7960   29.9310   50.8440 C   0  0  0  0  0  0  0  0  0  0  0  0
   59.2020   31.1520   51.4920 C   0  0  0  0  0  0  0  0  0  0  0  0
   57.8440   31.1850   51.8510 C   0  0  0  0  0  0  0  0  0  0  0  0
   57.3060   32.3220   52.4660 C   0  0  0  0  0  0  0  0  0  0  0  0
   58.1180   33.4330   52.7220 C   0  0  0  0  0  0  0  0  0  0  0  0
   59.4700   33.4090   52.3630 C   0  0  0  0  0  0  0  0  0  0  0  0
   60.0110   32.2740   51.7510 C   0  0  0  0  0  0  0  0  0  0  0  0
   59.5570   28.8170   47.1200 C   0  0  0  0  0  0  0  0  0  0  0  0
   60.6330   28.4420   46.2900 C   0  0  0  0  0  0  0  0  0  0  0  0
   60.4990   28.4840   44.8980 C   0  0  0  0  0  0  0  0  0  0  0  0
   59.2910   28.8790   44.3180 C   0  0  0  0  0  0  0  0  0  0  0  0
   58.2080   29.2480   45.1240 C   0  0  0  0  0  0  0  0  0  0  0  0
   56.6630   29.6540   44.3710 S   0  0  0  0  0  0  0  0  0  0  0  0
   55.5610   28.9260   45.0880 O   0  0  0  0  0  0  0  0  0  0  0  0
   56.6330   29.2320   42.9280 O   0  0  0  0  0  0  0  0  0  0  0  0
   56.3850   31.3610   44.5220 N   0  0  0  0  0  0  0  0  0  0  0  0
   57.3290   32.3230   45.0120 C   0  0  0  0  0  0  0  0  0  0  0  0
   57.8380   33.2760   44.1210 C   0  0  0  0  0  0  0  0  0  0  0  0
   58.7570   34.2360   44.5570 C   0  0  0  0  0  0  0  0  0  0  0  0
   59.1730   34.2500   45.8900 C   0  0  0  0  0  0  0  0  0  0  0  0
   58.6770   33.2990   46.7890 C   0  0  0  0  0  0  0  0  0  0  0  0
   59.2200   33.2790   48.4640 S   0  0  0  0  0  0  0  0  0  0  0  0
   59.5190   34.6960   48.8890 O   0  0  0  0  0  0  0  0  0  0  0  0
   58.1560   32.6930   49.3550 O   0  0  0  0  0  0  0  0  0  0  0  0
   60.6500   32.3070   48.5760 N   0  0  0  0  0  0  0  0  0  0  0  0
   61.8190   32.7130   48.1900 C   0  0  0  0  0  0  0  0  0  0  0  0
   62.1160   33.0720   46.9200 N   0  0  0  0  0  0  0  0  0  0  0  0
   63.4180   33.4480   46.8020 C   0  0  0  0  0  0  0  0  0  0  0  0
   64.1630   33.3830   47.9780 C   0  0  0  0  0  0  0  0  0  0  0  0
   63.1500   32.8390   49.2110 S   0  0  0  0  0  0  0  0  0  0  0  0
   57.7600   32.3350   46.3490 C   0  0  0  0  0  0  0  0  0  0  0  0
   58.3440   29.2200   46.5230 C   0  0  0  0  0  0  0  0  0  0  0  0
   59.1380   30.8060   48.9860 H   0  0  0  0  0  0  0  0  0  0  0  0
   59.3684   29.0300   51.3080 H   0  0  0  0  0  0  0  0  0  0  0  0
   60.8868   29.9470   50.9849 H   0  0  0  0  0  0  0  0  0  0  0  0
   57.2018   30.3152   51.6484 H   0  0  0  0  0  0  0  0  0  0  0  0
   56.2431   32.3422   52.7485 H   0  0  0  0  0  0  0  0  0  0  0  0
   57.6931   34.3250   53.2055 H   0  0  0  0  0  0  0  0  0  0  0  0
   60.1075   34.2830   52.5622 H   0  0  0  0  0  0  0  0  0  0  0  0
   61.0745   32.2581   51.4706 H   0  0  0  0  0  0  0  0  0  0  0  0
   61.5824   28.1148   46.7389 H   0  0  0  0  0  0  0  0  0  0  0  0
   61.3485   28.2048   44.2574 H   0  0  0  0  0  0  0  0  0  0  0  0
   59.1906   28.9001   43.2228 H   0  0  0  0  0  0  0  0  0  0  0  0
   57.5126   33.2695   43.0703 H   0  0  0  0  0  0  0  0  0  0  0  0
   59.1521   34.9801   43.8498 H   0  0  0  0  0  0  0  0  0  0  0  0
   59.8911   35.0091   46.2337 H   0  0  0  0  0  0  0  0  0  0  0  0
   63.8516   33.7795   45.8470 H   0  0  0  0  0  0  0  0  0  0  0  0
   65.2270   33.6416   48.0834 H   0  0  0  0  0  0  0  0  0  0  0  0
   57.3756   31.5836   47.0544 H   0  0  0  0  0  0  0  0  0  0  0  0
   57.4961   29.5153   47.1585 H   0  0  0  0  0  0  0  0  0  0  0  0
  1  2  2  0
  2  3  1  0
  3  4  1  0
  4  5  1  0
  5  6  2  0
  6  7  1  0
  7  8  2  0
  8  9  1  0
  9 10  2  0
  2 11  1  0
 11 12  2  0
 12 13  1  0
 13 14  2  0
 14 15  1  0
 15 16  1  0
 16 17  2  0
 16 18  2  0
 16 19  1  0
 19 20  1  0
 20 21  2  0
 21 22  1  0
 22 23  2  0
 23 24  1  0
 24 25  1  0
 25 26  2  0
 25 27  2  0
 25 28  1  0
 28 29  2  3
 29 30  1  0
 30 31  1  0
 31 32  2  0
 32 33  1  0
 24 34  2  0
 15 35  2  0
 10  5  1  0
 35 11  1  0
 34 20  1  0
 33 29  1  0
  3 36  1  0
  4 37  1  0
  4 38  1  0
  6 39  1  0
  7 40  1  0
  8 41  1  0
  9 42  1  0
 10 43  1  0
 12 44  1  0
 13 45  1  0
 14 46  1  0
 21 47  1  0
 22 48  1  0
 23 49  1  0
 31 50  1  0
 32 51  1  0
 34 52  1  0
 35 53  1  0
M  CHG  2  19  -1  30  -1
M  END
>  <UniqueID>  (69) 
58

>  <SMILES>  (69) 
O=C(NCc1ccccc1)c1cccc(S(=O)(=O)[N-]c2cccc(S(=O)(=O)N=c3[n-]ccs3)c2)c1

>  <Energy>  (69) 
92.89848421085581

>  <Genealogy>  (69) 
O=C(NCc1ccccc1)c1cccc(S(=O)(=O)[N-]c2cccc(S(=O)(=O)N=c3[n-]ccs3)c2)c1 (protonated)
O=C(NCc1ccccc1)c1cccc(S(=O)(=O)[N-]c2cccc(S(=O)(=O)N=c3[n-]ccs3)c2)c1 (3D coordinates assigned)
O=C(NCc1ccccc1)c1cccc(S(=O)(=O)[N-]c2cccc(S(=O)(=O)N=c3[n-]ccs3)c2)c1 (optimized conformer: 92.89848421085581 kcal/mol)

>  <smiles>  (69) 
O=C(NCc1ccccc1)c1cccc(S(=O)(=O)Nc2cccc(S(=O)(=O)N=c3[nH]ccs3)c2)c1

>  <score_type>  (69) 
oracle

>  <origin>  (69) 
adg

>  <m_score__min__energy>  (69) 
-14.140000000000001

>  <m_primary>  (69) 
energy

$$$$
69:0
     RDKit          3D

 48 50  0  0  0  0  0  0  0  0999 V2000
   54.8640   26.3270   46.0230 N   0  0  0  0  0  0  0  0  0  0  0  0
   56.5390   25.9280   46.1850 S   0  0  0  0  0  0  0  0  0  0  0  0
   56.9310   25.0260   45.0430 O   0  0  0  0  0  0  0  0  0  0  0  0
   56.7580   25.2130   47.4890 O   0  0  0  0  0  0  0  0  0  0  0  0
   57.5270   27.3870   46.1370 C   0  0  0  0  0  0  0  0  0  0  0  0
   57.5340   28.1760   44.9810 C   0  0  0  0  0  0  0  0  0  0  0  0
   58.2900   29.3490   44.9370 C   0  0  0  0  0  0  0  0  0  0  0  0
   59.0330   29.7460   46.0490 C   0  0  0  0  0  0  0  0  0  0  0  0
   59.0400   28.9670   47.2170 C   0  0  0  0  0  0  0  0  0  0  0  0
   59.8580   29.3850   48.3260 N   0  0  0  0  0  0  0  0  0  0  0  0
   59.3920   29.5410   49.6760 C   0  0  0  0  0  0  0  0  0  0  0  0
   58.1710   29.7510   49.9040 O   0  0  0  0  0  0  0  0  0  0  0  0
   60.3630   29.5900   50.8180 C   0  0  0  0  0  0  0  0  0  0  0  0
   60.3910   31.2240   51.6480 S   0  0  0  0  0  0  0  0  0  0  0  0
   60.2420   32.1820   50.1370 C   0  0  0  0  0  0  0  0  0  0  0  0
   61.2960   32.6980   49.4750 N   0  0  0  0  0  0  0  0  0  0  0  0
   60.8080   33.3930   48.4590 N   0  0  0  0  0  0  0  0  0  0  0  0
   59.4610   33.3000   48.5040 C   0  0  0  0  0  0  0  0  0  0  0  0
   58.5710   34.0150   47.5050 C   0  0  0  0  0  0  0  0  0  0  0  0
   59.3370   34.9030   46.4780 C   0  0  0  0  0  0  0  0  0  0  0  0
   59.2540   34.4880   44.9970 C   0  0  0  0  0  0  0  0  0  0  0  0
   57.8970   33.9010   44.6210 C   0  0  0  0  0  0  0  0  0  0  0  0
   57.5800   32.6980   45.4940 C   0  0  0  0  0  0  0  0  0  0  0  0
   57.4330   33.1140   46.9570 C   0  0  0  0  0  0  0  0  0  0  0  0
   59.0810   32.5490   49.5630 N   0  0  0  0  0  0  0  0  0  0  0  0
   57.7940   32.3350   50.0760 N   0  0  0  0  0  0  0  0  0  0  0  0
   58.3030   27.7630   47.2400 C   0  0  0  0  0  0  0  0  0  0  0  0
   54.6690   27.0800   46.7180 H   0  0  0  0  0  0  0  0  0  0  0  0
   56.9425   27.8712   44.1051 H   0  0  0  0  0  0  0  0  0  0  0  0
   58.2998   29.9616   44.0234 H   0  0  0  0  0  0  0  0  0  0  0  0
   59.6180   30.6767   46.0104 H   0  0  0  0  0  0  0  0  0  0  0  0
   60.8600   29.6100   48.1310 H   0  0  0  0  0  0  0  0  0  0  0  0
   60.0788   28.8249   51.5554 H   0  0  0  0  0  0  0  0  0  0  0  0
   61.3677   29.4058   50.4098 H   0  0  0  0  0  0  0  0  0  0  0  0
   58.0218   34.7838   48.0684 H   0  0  0  0  0  0  0  0  0  0  0  0
   58.9374   35.9246   46.5594 H   0  0  0  0  0  0  0  0  0  0  0  0
   60.3989   34.7982   46.7453 H   0  0  0  0  0  0  0  0  0  0  0  0
   59.4380   35.3750   44.3729 H   0  0  0  0  0  0  0  0  0  0  0  0
   60.0099   33.7065   44.8299 H   0  0  0  0  0  0  0  0  0  0  0  0
   57.1194   34.6662   44.7620 H   0  0  0  0  0  0  0  0  0  0  0  0
   57.9258   33.5809   43.5690 H   0  0  0  0  0  0  0  0  0  0  0  0
   56.6391   32.2421   45.1522 H   0  0  0  0  0  0  0  0  0  0  0  0
   58.4061   31.9761   45.4136 H   0  0  0  0  0  0  0  0  0  0  0  0
   56.4849   33.6619   47.0614 H   0  0  0  0  0  0  0  0  0  0  0  0
   57.4701   32.1844   47.5439 H   0  0  0  0  0  0  0  0  0  0  0  0
   56.9600   32.7370   49.5960 H   0  0  0  0  0  0  0  0  0  0  0  0
   57.6240   31.6420   50.8240 H   0  0  0  0  0  0  0  0  0  0  0  0
   58.3387   27.1168   48.1295 H   0  0  0  0  0  0  0  0  0  0  0  0
  1  2  1  0
  2  3  2  0
  2  4  2  0
  2  5  1  0
  5  6  2  0
  6  7  1  0
  7  8  2  0
  8  9  1  0
  9 10  1  0
 10 11  1  0
 11 12  2  0
 11 13  1  0
 13 14  1  0
 14 15  1  0
 15 16  2  0
 16 17  1  0
 17 18  2  0
 18 19  1  0
 19 20  1  0
 20 21  1  0
 21 22  1  0
 22 23  1  0
 23 24  1  0
 18 25  1  0
 25 26  1  0
  9 27  2  0
 27  5  1  0
 25 15  1  0
 24 19  1  0
  1 28  1  0
  6 29  1  0
  7 30  1  0
  8 31  1  0
 10 32  1  0
 13 33  1  0
 13 34  1  0
 19 35  1  0
 20 36  1  0
 20 37  1  0
 21 38  1  0
 21 39  1  0
 22 40  1  0
 22 41  1  0
 23 42  1  0
 23 43  1  0
 24 44  1  0
 24 45  1  0
 26 46  1  0
 26 47  1  0
 27 48  1  0
M  CHG  1   1  -1
M  END
>  <UniqueID>  (70) 
59

>  <SMILES>  (70) 
[NH-]S(=O)(=O)c1cccc(NC(=O)CSc2nnc(C3CCCCC3)n2N)c1

>  <Energy>  (70) 
88.84597600168779

>  <Genealogy>  (70) 
[NH-]S(=O)(=O)c1cccc(NC(=O)CSc2nnc(C3CCCCC3)n2N)c1 (protonated)
[NH-]S(=O)(=O)c1cccc(NC(=O)CSc2nnc(C3CCCCC3)n2N)c1 (3D coordinates assigned)
[NH-]S(=O)(=O)c1cccc(NC(=O)CSc2nnc(C3CCCCC3)n2N)c1 (nonaromatic ring conformer: 88.84597600168779 kcal/mol)

>  <smiles>  (70) 
Nn1c(SCC(=O)Nc2cccc(S(N)(=O)=O)c2)nnc1C1CCCCC1

>  <score_type>  (70) 
oracle

>  <origin>  (70) 
adg

>  <m_score__min__energy>  (70) 
-13.02

>  <m_primary>  (70) 
energy

$$$$
70:0
     RDKit          3D

 49 51  0  0  0  0  0  0  0  0999 V2000
   56.0530   21.8390   48.0270 C   0  0  0  0  0  0  0  0  0  0  0  0
   57.0340   22.2230   47.0710 O   0  0  0  0  0  0  0  0  0  0  0  0
   56.8030   22.3100   45.6880 C   0  0  0  0  0  0  0  0  0  0  0  0
   57.2810   21.3310   44.7940 C   0  0  0  0  0  0  0  0  0  0  0  0
   57.0470   21.4520   43.4230 C   0  0  0  0  0  0  0  0  0  0  0  0
   56.3290   22.5400   42.9270 C   0  0  0  0  0  0  0  0  0  0  0  0
   55.8480   23.5160   43.8020 C   0  0  0  0  0  0  0  0  0  0  0  0
   56.0910   23.4160   45.1810 C   0  0  0  0  0  0  0  0  0  0  0  0
   55.5980   24.4730   46.0870 C   0  0  0  0  0  0  0  0  0  0  0  0
   54.4140   24.8840   45.9620 O   0  0  0  0  0  0  0  0  0  0  0  0
   56.4240   25.0400   47.1120 N   0  0  0  0  0  0  0  0  0  0  0  0
   58.0850   25.4990   46.9000 S   0  0  0  0  0  0  0  0  0  0  0  0
   58.8120   24.4010   46.1750 O   0  0  0  0  0  0  0  0  0  0  0  0
   58.7250   25.6990   48.2450 O   0  0  0  0  0  0  0  0  0  0  0  0
   58.1870   26.9680   45.9340 C   0  0  0  0  0  0  0  0  0  0  0  0
   57.9700   26.9060   44.5530 C   0  0  0  0  0  0  0  0  0  0  0  0
   57.9630   28.0740   43.7850 C   0  0  0  0  0  0  0  0  0  0  0  0
   58.1500   29.3270   44.3980 C   0  0  0  0  0  0  0  0  0  0  0  0
   58.1050   30.5580   43.6540 N   0  0  0  0  0  0  0  0  0  0  0  0
   57.3380   31.7070   44.0470 C   0  0  0  0  0  0  0  0  0  0  0  0
   56.2450   31.5820   44.6630 O   0  0  0  0  0  0  0  0  0  0  0  0
   57.8760   33.0810   43.7910 C   0  0  0  0  0  0  0  0  0  0  0  0
   58.3840   33.6660   45.0810 C   0  0  0  0  0  0  0  0  0  0  0  0
   59.2120   34.8010   45.0680 C   0  0  0  0  0  0  0  0  0  0  0  0
   59.7310   35.3070   46.2630 C   0  0  0  0  0  0  0  0  0  0  0  0
   59.4360   34.6820   47.4770 C   0  0  0  0  0  0  0  0  0  0  0  0
   58.6250   33.5430   47.4970 C   0  0  0  0  0  0  0  0  0  0  0  0
   58.1050   33.0320   46.3040 C   0  0  0  0  0  0  0  0  0  0  0  0
   58.4050   29.3770   45.7780 C   0  0  0  0  0  0  0  0  0  0  0  0
   58.4230   28.2080   46.5410 C   0  0  0  0  0  0  0  0  0  0  0  0
   56.4491   21.9941   49.0414 H   0  0  0  0  0  0  0  0  0  0  0  0
   55.1483   22.4494   47.8894 H   0  0  0  0  0  0  0  0  0  0  0  0
   55.8030   20.7767   47.8894 H   0  0  0  0  0  0  0  0  0  0  0  0
   57.8418   20.4664   45.1787 H   0  0  0  0  0  0  0  0  0  0  0  0
   57.4301   20.6869   42.7318 H   0  0  0  0  0  0  0  0  0  0  0  0
   56.1417   22.6292   41.8467 H   0  0  0  0  0  0  0  0  0  0  0  0
   55.2751   24.3685   43.4083 H   0  0  0  0  0  0  0  0  0  0  0  0
   57.8039   25.9323   44.0688 H   0  0  0  0  0  0  0  0  0  0  0  0
   57.8107   28.0135   42.6973 H   0  0  0  0  0  0  0  0  0  0  0  0
   58.8770   30.7240   42.9690 H   0  0  0  0  0  0  0  0  0  0  0  0
   58.6999   33.0233   43.0644 H   0  0  0  0  0  0  0  0  0  0  0  0
   57.0767   33.7197   43.3870 H   0  0  0  0  0  0  0  0  0  0  0  0
   59.4526   35.2931   44.1141 H   0  0  0  0  0  0  0  0  0  0  0  0
   60.3735   36.1997   46.2475 H   0  0  0  0  0  0  0  0  0  0  0  0
   59.8414   35.0856   48.4166 H   0  0  0  0  0  0  0  0  0  0  0  0
   58.3959   33.0485   48.4525 H   0  0  0  0  0  0  0  0  0  0  0  0
   57.4751   32.1304   46.3226 H   0  0  0  0  0  0  0  0  0  0  0  0
   58.5924   30.3466   46.2625 H   0  0  0  0  0  0  0  0  0  0  0  0
   58.6230   28.2609   47.6214 H   0  0  0  0  0  0  0  0  0  0  0  0
  1  2  1  0
  2  3  1  0
  3  4  2  0
  4  5  1  0
  5  6  2  0
  6  7  1  0
  7  8  2  0
  8  9  1  0
  9 10  2  0
  9 11  1  0
 11 12  1  0
 12 13  2  0
 12 14  2  0
 12 15  1  0
 15 16  2  0
 16 17  1  0
 17 18  2  0
 18 19  1  0
 19 20  1  0
 20 21  2  0
 20 22  1  0
 22 23  1  0
 23 24  2  0
 24 25  1  0
 25 26  2  0
 26 27  1  0
 27 28  2  0
 18 29  1  0
 29 30  2  0
  8  3  1  0
 30 15  1  0
 28 23  1  0
  1 31  1  0
  1 32  1  0
  1 33  1  0
  4 34  1  0
  5 35  1  0
  6 36  1  0
  7 37  1  0
 16 38  1  0
 17 39  1  0
 19 40  1  0
 22 41  1  0
 22 42  1  0
 24 43  1  0
 25 44  1  0
 26 45  1  0
 27 46  1  0
 28 47  1  0
 29 48  1  0
 30 49  1  0
M  CHG  1  11  -1
M  END
>  <UniqueID>  (71) 
60

>  <SMILES>  (71) 
COc1ccccc1C(=O)[N-]S(=O)(=O)c1ccc(NC(=O)Cc2ccccc2)cc1

>  <Energy>  (71) 
55.263641106882105

>  <Genealogy>  (71) 
COc1ccccc1C(=O)[N-]S(=O)(=O)c1ccc(NC(=O)Cc2ccccc2)cc1 (protonated)
COc1ccccc1C(=O)[N-]S(=O)(=O)c1ccc(NC(=O)Cc2ccccc2)cc1 (3D coordinates assigned)
COc1ccccc1C(=O)[N-]S(=O)(=O)c1ccc(NC(=O)Cc2ccccc2)cc1 (optimized conformer: 55.263641106882105 kcal/mol)

>  <smiles>  (71) 
COc1ccccc1C(=O)NS(=O)(=O)c1ccc(NC(=O)Cc2ccccc2)cc1

>  <score_type>  (71) 
oracle

>  <origin>  (71) 
adg

>  <m_score__min__energy>  (71) 
-11.609999999999999

>  <m_primary>  (71) 
energy

$$$$
71:0
     RDKit          3D

 45 47  0  0  1  0  0  0  0  0999 V2000
   64.9160   33.0950   49.6610 C   0  0  0  0  0  0  0  0  0  0  0  0
   63.6220   32.9100   48.9400 C   0  0  0  0  0  0  0  0  0  0  0  0
   63.2810   31.6840   48.3580 C   0  0  0  0  0  0  0  0  0  0  0  0
   61.5830   33.7750   48.1850 C   0  0  0  0  0  0  0  0  0  0  0  0
   60.8190   34.8150   48.1410 N   0  0  0  0  0  0  0  0  0  0  0  0
   60.5170   30.1530   46.5940 C   0  0  0  0  0  0  0  0  0  0  0  0
   60.5200   29.6790   45.2850 C   0  0  0  0  0  0  0  0  0  0  0  0
   59.3350   29.4200   44.6550 C   0  0  0  0  0  0  0  0  0  0  0  0
   58.1250   29.6230   45.3040 C   0  0  0  0  0  0  0  0  0  0  0  0
   56.6170   29.2950   44.5070 S   0  0  0  0  0  0  0  0  0  0  0  0
   57.0000   28.8050   42.8880 N   0  0  0  0  0  0  0  0  0  0  0  0
   55.9580   28.1510   45.2620 O   0  0  0  0  0  0  0  0  0  0  0  0
   55.7430   30.4930   44.5580 O   0  0  0  0  0  0  0  0  0  0  0  0
   58.1550   30.0950   46.6070 C   0  0  0  0  0  0  0  0  0  0  0  0
   59.3350   30.3680   47.2750 C   0  0  0  0  0  0  0  0  0  0  0  0
   61.2570   32.5930   47.6260 N   0  0  0  0  0  0  0  0  0  0  0  0
   62.0790   31.5300   47.6930 C   0  0  0  0  0  0  0  0  0  0  0  0
   61.7980   30.3960   47.1720 N   0  0  0  0  0  0  0  0  0  0  0  0
   59.3950   34.5950   48.3360 C   0  0  0  0  0  0  0  0  0  0  0  0
   58.8760   34.2410   46.9660 C   0  0  0  0  0  0  0  0  0  0  0  0
   59.5610   34.6400   45.8380 C   0  0  0  0  0  0  0  0  0  0  0  0
   59.0440   34.2900   44.6030 C   0  0  0  0  0  0  0  0  0  0  0  0
   57.8740   33.5620   44.5350 C   0  0  0  0  0  0  0  0  0  0  0  0
   57.1970   33.1690   45.6670 C   0  0  0  0  0  0  0  0  0  0  0  0
   57.7020   33.5120   46.9100 C   0  0  0  0  0  0  0  0  0  0  0  0
   62.7620   33.9430   48.8440 N   0  0  0  0  0  0  0  0  0  0  0  0
   64.7380   33.0695   50.7462 H   0  0  0  0  0  0  0  0  0  0  0  0
   65.6089   32.2868   49.3840 H   0  0  0  0  0  0  0  0  0  0  0  0
   65.3546   34.0650   49.3840 H   0  0  0  0  0  0  0  0  0  0  0  0
   63.9762   30.8346   48.4304 H   0  0  0  0  0  0  0  0  0  0  0  0
   61.4723   29.5136   44.7598 H   0  0  0  0  0  0  0  0  0  0  0  0
   59.3403   29.0460   43.6206 H   0  0  0  0  0  0  0  0  0  0  0  0
   56.9450   27.7600   42.8740 H   0  0  0  0  0  0  0  0  0  0  0  0
   57.9810   29.0960   42.6880 H   0  0  0  0  0  0  0  0  0  0  0  0
   57.2018   30.2591   47.1309 H   0  0  0  0  0  0  0  0  0  0  0  0
   59.3320   30.7422   48.3094 H   0  0  0  0  0  0  0  0  0  0  0  0
   60.3430   32.5150   47.1330 H   0  0  0  0  0  0  0  0  0  0  0  0
   59.2224   33.7696   49.0423 H   0  0  0  0  0  0  0  0  0  0  0  0
   58.8901   35.4758   48.7595 H   0  0  0  0  0  0  0  0  0  0  0  0
   60.4922   35.2202   45.9175 H   0  0  0  0  0  0  0  0  0  0  0  0
   59.5629   34.5905   43.6808 H   0  0  0  0  0  0  0  0  0  0  0  0
   57.4711   33.2881   43.5488 H   0  0  0  0  0  0  0  0  0  0  0  0
   56.2657   32.5893   45.5854 H   0  0  0  0  0  0  0  0  0  0  0  0
   57.1815   33.2116   47.8314 H   0  0  0  0  0  0  0  0  0  0  0  0
   63.0130   34.8770   49.2830 H   0  0  0  0  0  0  0  0  0  0  0  0
  1  2  1  0
  2  3  2  0
  3  4  1  0
  4  5  2  0
  5  6  1  0
  6  7  2  0
  7  8  1  0
  8  9  2  0
  9 10  1  0
 10 11  1  0
 10 12  2  0
 10 13  2  0
  9 14  1  0
 14 15  2  0
  4 16  1  0
 16 17  1  0
 17 18  2  0
 18 19  1  0
 19 20  1  0
 20 21  2  0
 21 22  1  0
 22 23  2  0
 23 24  1  0
 24 25  2  0
 17 26  1  0
 26  2  1  0
 15  6  1  0
 25 20  1  0
  1 27  1  0
  1 28  1  0
  1 29  1  0
  3 30  1  0
  7 31  1  0
  8 32  1  0
 11 33  1  0
 11 34  1  0
 14 35  1  0
 15 36  1  0
 16 37  1  0
 19 38  1  0
 19 39  1  0
 21 40  1  0
 22 41  1  0
 23 42  1  0
 24 43  1  0
 25 44  1  0
 26 45  1  0
M  END
>  <smiles>  (72) 
Cc1cc(=Nc2ccc(S(N)(=O)=O)cc2)[nH]c(=NCc2ccccc2)[nH]1

>  <score_type>  (72) 
oracle

>  <origin>  (72) 
adg

>  <m_score__min__energy>  (72) 
-9.6899999999999995

>  <m_primary>  (72) 
energy

$$$$
72:0
     RDKit          3D

 36 38  0  0  0  0  0  0  0  0999 V2000
   54.3870   27.1190   46.3740 H   0  0  0  0  0  0  0  0  0  0  0  0
   55.2100   26.6850   45.9740 O   0  0  0  0  0  0  0  0  0  0  0  0
   56.3750   27.4050   45.7060 C   0  0  0  0  0  0  0  0  0  0  0  0
   56.3060   28.7530   45.2620 C   0  0  0  0  0  0  0  0  0  0  0  0
   55.0640   29.3690   45.1500 O   0  0  0  0  0  0  0  0  0  0  0  0
   57.4950   29.4730   44.9720 C   0  0  0  0  0  0  0  0  0  0  0  0
   57.5000   30.8390   44.5270 N   0  0  0  0  0  0  0  0  0  0  0  0
   58.2310   31.7860   45.0310 C   0  0  0  0  0  0  0  0  0  0  0  0
   59.0423   32.2296   44.4352 H   0  0  0  0  0  0  0  0  0  0  0  0
   57.9710   32.2760   46.4240 C   0  0  0  0  0  0  0  0  0  0  0  0
   56.9057   32.5323   46.5206 H   0  0  0  0  0  0  0  0  0  0  0  0
   58.2449   31.4777   47.1295 H   0  0  0  0  0  0  0  0  0  0  0  0
   58.7850   33.4730   46.7340 N   0  0  0  0  0  0  0  0  0  0  0  0
   58.9420   33.6600   48.2000 C   0  0  0  0  0  0  0  0  0  0  0  0
   58.0147   34.0954   48.6005 H   0  0  0  0  0  0  0  0  0  0  0  0
   59.1516   32.6739   48.6402 H   0  0  0  0  0  0  0  0  0  0  0  0
   60.1100   34.5830   48.5560 C   0  0  0  0  0  0  0  0  0  0  0  0
   60.0307   35.5051   47.9615 H   0  0  0  0  0  0  0  0  0  0  0  0
   60.0585   34.8048   49.6322 H   0  0  0  0  0  0  0  0  0  0  0  0
   61.7240   33.7890   48.2100 S   0  0  0  0  0  0  0  0  0  0  0  0
   61.2050   32.7870   46.7680 C   0  0  0  0  0  0  0  0  0  0  0  0
   62.0670   32.6538   46.0978 H   0  0  0  0  0  0  0  0  0  0  0  0
   60.8394   31.8178   47.1381 H   0  0  0  0  0  0  0  0  0  0  0  0
   60.0700   33.4590   45.9890 C   0  0  0  0  0  0  0  0  0  0  0  0
   60.3607   34.4974   45.7715 H   0  0  0  0  0  0  0  0  0  0  0  0
   59.9114   32.8764   45.0695 H   0  0  0  0  0  0  0  0  0  0  0  0
   58.7090   28.8240   45.1980 C   0  0  0  0  0  0  0  0  0  0  0  0
   60.0060   29.2700   45.0380 C   0  0  0  0  0  0  0  0  0  0  0  0
   60.3330   30.2644   44.7002 H   0  0  0  0  0  0  0  0  0  0  0  0
   60.8100   28.1940   45.3950 C   0  0  0  0  0  0  0  0  0  0  0  0
   61.9099   28.2047   45.3845 H   0  0  0  0  0  0  0  0  0  0  0  0
   60.0550   27.1320   45.7570 N   0  0  0  0  0  0  0  0  0  0  0  0
   60.4050   26.1990   46.0660 H   0  0  0  0  0  0  0  0  0  0  0  0
   58.7760   27.5270   45.6330 C   0  0  0  0  0  0  0  0  0  0  0  0
   57.6250   26.7800   45.8890 C   0  0  0  0  0  0  0  0  0  0  0  0
   57.7310   25.1140   46.4420 Cl  0  0  0  0  0  0  0  0  0  0  0  0
  1  2  1  0
  2  3  1  0
  3  4  2  0
  4  5  1  0
  4  6  1  0
  6  7  1  0
  7  8  2  0
  8  9  1  0
  8 10  1  0
 10 11  1  0
 10 12  1  0
 10 13  1  0
 13 14  1  0
 14 15  1  0
 14 16  1  0
 14 17  1  0
 17 18  1  0
 17 19  1  0
 17 20  1  0
 20 21  1  0
 21 22  1  0
 21 23  1  0
 21 24  1  0
 24 25  1  0
 24 26  1  0
  6 27  2  0
 27 28  1  0
 28 29  1  0
 28 30  2  0
 30 31  1  0
 30 32  1  0
 32 33  1  0
 32 34  1  0
 34 35  2  0
 35 36  1  0
 35  3  1  0
 24 13  1  0
 34 27  1  0
M  CHG  1   5  -1
M  END
>  <UniqueID>  (73) 
61

>  <SMILES>  (73) 
[O-]c1c(O)c(Cl)c2[nH]ccc2c1/N=C/CN1CCSCC1

>  <Energy>  (73) 
81.1350993335113

>  <Genealogy>  (73) 
[O-]c1c(O)c(Cl)c2[nH]ccc2c1N=CCN1CCSCC1 (protonated)
[O-]c1c(O)c(Cl)c2[nH]ccc2c1/N=C/CN1CCSCC1 (cis-trans isomerization)
[O-]c1c(O)c(Cl)c2[nH]ccc2c1/N=C/CN1CCSCC1 (3D coordinates assigned)
[O-]c1c(O)c(Cl)c2[nH]ccc2c1/N=C/CN1CCSCC1 (nonaromatic ring conformer: 81.1350993335113 kcal/mol)

>  <smiles>  (73) 
Oc1c(O)c(Cl)c2[nH]ccc2c1N=CCN1CCSCC1

>  <score_type>  (73) 
oracle

>  <origin>  (73) 
adg

>  <m_score__min__energy>  (73) 
-12.08

>  <m_primary>  (73) 
energy

$$$$
73:0
     RDKit          3D

 36 37  0  0  0  0  0  0  0  0999 V2000
   60.7850   34.2530   48.6920 C   0  0  0  0  0  0  0  0  0  0  0  0
   59.9330   33.2990   47.9080 C   0  0  0  0  0  0  0  0  0  0  0  0
   59.7100   32.0570   48.4100 N   0  0  0  0  0  0  0  0  0  0  0  0
   58.9620   31.1480   47.7780 N   0  0  0  0  0  0  0  0  0  0  0  0
   58.8070   29.8280   48.3990 C   0  0  0  0  0  0  0  0  0  0  0  0
   60.1120   29.0780   48.3580 C   0  0  0  0  0  0  0  0  0  0  0  0
   61.1840   29.7180   48.5110 O   0  0  0  0  0  0  0  0  0  0  0  0
   60.1770   27.6590   48.1680 N   0  0  0  0  0  0  0  0  0  0  0  0
   60.0500   26.9780   46.8860 C   0  0  0  0  0  0  0  0  0  0  0  0
   58.5950   26.7910   46.5670 C   0  0  0  0  0  0  0  0  0  0  0  0
   57.9290   27.7080   45.7380 C   0  0  0  0  0  0  0  0  0  0  0  0
   56.5660   27.5510   45.4690 C   0  0  0  0  0  0  0  0  0  0  0  0
   55.8550   26.4880   46.0320 C   0  0  0  0  0  0  0  0  0  0  0  0
   54.5010   26.3400   45.7580 O   0  0  0  0  0  0  0  0  0  0  0  0
   56.5060   25.5760   46.8740 C   0  0  0  0  0  0  0  0  0  0  0  0
   55.7910   24.5230   47.4380 O   0  0  0  0  0  0  0  0  0  0  0  0
   57.8740   25.7330   47.1440 C   0  0  0  0  0  0  0  0  0  0  0  0
   58.3920   31.4360   46.5670 C   0  0  0  0  0  0  0  0  0  0  0  0
   57.6990   30.5670   45.9660 O   0  0  0  0  0  0  0  0  0  0  0  0
   58.5790   32.7010   45.9900 C   0  0  0  0  0  0  0  0  0  0  0  0
   58.0270   32.9610   44.8400 N   0  0  0  0  0  0  0  0  0  0  0  0
   59.3640   33.6530   46.6730 C   0  0  0  0  0  0  0  0  0  0  0  0
   59.5890   34.9740   46.1220 C   0  0  0  0  0  0  0  0  0  0  0  0
   59.7700   36.0290   45.6810 N   0  0  0  0  0  0  0  0  0  0  0  0
   60.6322   34.0819   49.7678 H   0  0  0  0  0  0  0  0  0  0  0  0
   61.8436   34.0900   48.4415 H   0  0  0  0  0  0  0  0  0  0  0  0
   60.5039   35.2865   48.4415 H   0  0  0  0  0  0  0  0  0  0  0  0
   58.4926   29.9534   49.4456 H   0  0  0  0  0  0  0  0  0  0  0  0
   58.0473   29.2574   47.8447 H   0  0  0  0  0  0  0  0  0  0  0  0
   60.5240   27.5835   46.0995 H   0  0  0  0  0  0  0  0  0  0  0  0
   60.5453   25.9972   46.9384 H   0  0  0  0  0  0  0  0  0  0  0  0
   58.4811   28.5521   45.2991 H   0  0  0  0  0  0  0  0  0  0  0  0
   56.0513   28.2671   44.8115 H   0  0  0  0  0  0  0  0  0  0  0  0
   54.7810   24.4700   47.3680 H   0  0  0  0  0  0  0  0  0  0  0  0
   58.3846   25.0232   47.8115 H   0  0  0  0  0  0  0  0  0  0  0  0
   57.4350   32.2850   44.3090 H   0  0  0  0  0  0  0  0  0  0  0  0
  1  2  1  0
  2  3  1  0
  3  4  1  0
  4  5  1  0
  5  6  1  0
  6  7  2  0
  6  8  1  0
  8  9  1  0
  9 10  1  0
 10 11  2  0
 11 12  1  0
 12 13  2  0
 13 14  1  0
 13 15  1  0
 15 16  1  0
 15 17  2  0
  4 18  1  0
 18 19  2  0
 18 20  1  0
 20 21  2  3
 20 22  1  0
 22 23  1  0
 23 24  3  0
 22  2  2  0
 17 10  1  0
  1 25  1  0
  1 26  1  0
  1 27  1  0
  5 28  1  0
  5 29  1  0
  9 30  1  0
  9 31  1  0
 11 32  1  0
 12 33  1  0
 16 34  1  0
 17 35  1  0
 21 36  1  0
M  CHG  3   3  -1   8  -1  14  -1
M  END
>  <UniqueID>  (74) 
62

>  <SMILES>  (74) 
Cc1[n-]n(CC(=O)[N-]Cc2ccc([O-])c(O)c2)c(=O)c(=N)c1C#N

>  <Energy>  (74) 
37.84989224276986

>  <Genealogy>  (74) 
Cc1[n-]n(CC(=O)[N-]Cc2ccc([O-])c(O)c2)c(=O)c(=N)c1C#N (protonated)
Cc1[n-]n(CC(=O)[N-]Cc2ccc([O-])c(O)c2)c(=O)c(=N)c1C#N (3D coordinates assigned)
Cc1[n-]n(CC(=O)[N-]Cc2ccc([O-])c(O)c2)c(=O)c(=N)c1C#N (optimized conformer: 37.84989224276986 kcal/mol)

>  <smiles>  (74) 
Cc1[nH]n(CC(=O)NCc2ccc(O)c(O)c2)c(=O)c(=N)c1C#N

>  <score_type>  (74) 
oracle

>  <origin>  (74) 
adg

>  <m_score__min__energy>  (74) 
-12.49

>  <m_primary>  (74) 
energy

$$$$
74:0
     RDKit          3D

 45 48  0  0  0  0  0  0  0  0999 V2000
   55.8840   22.4910   42.8500 N   0  0  0  0  0  0  0  0  0  0  0  0
   56.2090   23.5500   43.5350 C   0  0  0  0  0  0  0  0  0  0  0  0
   55.7480   23.7270   44.7970 N   0  0  0  0  0  0  0  0  0  0  0  0
   56.0640   24.8010   45.5140 C   0  0  0  0  0  0  0  0  0  0  0  0
   55.6320   24.9800   46.7170 N   0  0  0  0  0  0  0  0  0  0  0  0
   56.8950   25.7710   44.9450 C   0  0  0  0  0  0  0  0  0  0  0  0
   57.2500   26.8750   45.6040 N   0  0  0  0  0  0  0  0  0  0  0  0
   58.0630   27.8400   45.0610 C   0  0  0  0  0  0  0  0  0  0  0  0
   58.3540   28.9970   45.8990 C   0  0  0  0  0  0  0  0  0  0  0  0
   57.4820   30.1120   45.8240 N   0  0  0  0  0  0  0  0  0  0  0  0
   57.8000   31.4480   45.5350 C   0  0  0  0  0  0  0  0  0  0  0  0
   57.4240   32.1250   44.3960 C   0  0  0  0  0  0  0  0  0  0  0  0
   57.7600   33.4290   44.1250 C   0  0  0  0  0  0  0  0  0  0  0  0
   58.5240   34.1090   45.0510 C   0  0  0  0  0  0  0  0  0  0  0  0
   58.9430   33.4880   46.2310 C   0  0  0  0  0  0  0  0  0  0  0  0
   59.7540   34.2760   47.1250 C   0  0  0  0  0  0  0  0  0  0  0  0
   59.1890   35.3190   47.6170 O   0  0  0  0  0  0  0  0  0  0  0  0
   61.1090   34.0150   47.5130 C   0  0  0  0  0  0  0  0  0  0  0  0
   61.5890   34.0390   48.7880 C   0  0  0  0  0  0  0  0  0  0  0  0
   62.9050   33.7670   49.1300 C   0  0  0  0  0  0  0  0  0  0  0  0
   63.7940   33.4530   48.1300 C   0  0  0  0  0  0  0  0  0  0  0  0
   63.3430   33.4230   46.8520 C   0  0  0  0  0  0  0  0  0  0  0  0
   62.0320   33.6930   46.5110 C   0  0  0  0  0  0  0  0  0  0  0  0
   58.5730   32.1850   46.4390 C   0  0  0  0  0  0  0  0  0  0  0  0
   58.4910   27.5970   43.7870 C   0  0  0  0  0  0  0  0  0  0  0  0
   58.1410   26.4750   43.0910 N   0  0  0  0  0  0  0  0  0  0  0  0
   57.3500   25.5570   43.6470 C   0  0  0  0  0  0  0  0  0  0  0  0
   57.0130   24.4640   42.9510 N   0  0  0  0  0  0  0  0  0  0  0  0
   56.1230   22.4160   41.8320 H   0  0  0  0  0  0  0  0  0  0  0  0
   55.1240   22.9710   45.1920 H   0  0  0  0  0  0  0  0  0  0  0  0
   55.5280   25.9300   47.1280 H   0  0  0  0  0  0  0  0  0  0  0  0
   58.3540   28.6520   46.9435 H   0  0  0  0  0  0  0  0  0  0  0  0
   59.3148   29.3750   45.5195 H   0  0  0  0  0  0  0  0  0  0  0  0
   56.4430   29.9150   46.0120 H   0  0  0  0  0  0  0  0  0  0  0  0
   56.8150   31.5863   43.6551 H   0  0  0  0  0  0  0  0  0  0  0  0
   57.4294   33.9171   43.1963 H   0  0  0  0  0  0  0  0  0  0  0  0
   58.8073   35.1542   44.8580 H   0  0  0  0  0  0  0  0  0  0  0  0
   60.8879   34.2901   49.5976 H   0  0  0  0  0  0  0  0  0  0  0  0
   63.2307   33.8018   50.1801 H   0  0  0  0  0  0  0  0  0  0  0  0
   64.8463   33.2313   48.3612 H   0  0  0  0  0  0  0  0  0  0  0  0
   64.0532   33.1723   46.0503 H   0  0  0  0  0  0  0  0  0  0  0  0
   61.7151   33.6552   45.4583 H   0  0  0  0  0  0  0  0  0  0  0  0
   58.9012   31.6922   47.3661 H   0  0  0  0  0  0  0  0  0  0  0  0
   59.1451   28.3359   43.3010 H   0  0  0  0  0  0  0  0  0  0  0  0
   57.3780   24.3290   41.9570 H   0  0  0  0  0  0  0  0  0  0  0  0
  1  2  2  3
  2  3  1  0
  3  4  1  0
  4  5  2  3
  4  6  1  0
  6  7  2  0
  7  8  1  0
  8  9  1  0
  9 10  1  0
 10 11  1  0
 11 12  2  0
 12 13  1  0
 13 14  2  0
 14 15  1  0
 15 16  1  0
 16 17  2  0
 16 18  1  0
 18 19  2  0
 19 20  1  0
 20 21  2  0
 21 22  1  0
 22 23  2  0
 15 24  2  0
  8 25  2  0
 25 26  1  0
 26 27  2  0
 27 28  1  0
 28  2  1  0
 27  6  1  0
 24 11  1  0
 23 18  1  0
  1 29  1  0
  3 30  1  0
  5 31  1  0
  9 32  1  0
  9 33  1  0
 10 34  1  0
 12 35  1  0
 13 36  1  0
 14 37  1  0
 19 38  1  0
 20 39  1  0
 21 40  1  0
 22 41  1  0
 23 42  1  0
 24 43  1  0
 25 44  1  0
 28 45  1  0
M  END
>  <smiles>  (75) 
N=c1[nH]c(=N)c2nc(CNc3cccc(C(=O)c4ccccc4)c3)cnc2[nH]1

>  <score_type>  (75) 
oracle

>  <origin>  (75) 
adg

>  <m_score__min__energy>  (75) 
-9.5899999999999999

>  <m_primary>  (75) 
energy

$$$$
75:0
     RDKit          3D

 31 33  0  0  0  0  0  0  0  0999 V2000
   56.6700   32.7660   45.2650 N   0  0  0  0  0  0  0  0  0  0  0  0
   58.0800   33.0070   45.2680 C   0  0  0  0  0  0  0  0  0  0  0  0
   58.6330   34.5270   45.0140 S   0  0  0  0  0  0  0  0  0  0  0  0
   59.0050   31.9750   45.6440 N   0  0  0  0  0  0  0  0  0  0  0  0
   58.7670   30.5720   45.4480 C   0  0  0  0  0  0  0  0  0  0  0  0
   59.4910   29.6380   46.2020 C   0  0  0  0  0  0  0  0  0  0  0  0
   59.2960   28.2680   46.0100 C   0  0  0  0  0  0  0  0  0  0  0  0
   58.3860   27.8020   45.0450 C   0  0  0  0  0  0  0  0  0  0  0  0
   58.1700   26.3480   44.8360 C   0  0  0  0  0  0  0  0  0  0  0  0
   57.3930   25.8200   43.8510 N   0  0  0  0  0  0  0  0  0  0  0  0
   57.3740   24.4620   43.8900 C   0  0  0  0  0  0  0  0  0  0  0  0
   56.6590   23.6490   43.0060 C   0  0  0  0  0  0  0  0  0  0  0  0
   56.7270   22.2540   43.1690 C   0  0  0  0  0  0  0  0  0  0  0  0
   57.5010   21.6910   44.2030 C   0  0  0  0  0  0  0  0  0  0  0  0
   58.2140   22.5190   45.0850 C   0  0  0  0  0  0  0  0  0  0  0  0
   58.1300   23.8960   44.9030 C   0  0  0  0  0  0  0  0  0  0  0  0
   58.8550   25.1210   45.7910 S   0  0  0  0  0  0  0  0  0  0  0  0
   57.6740   28.7420   44.2780 C   0  0  0  0  0  0  0  0  0  0  0  0
   57.8700   30.1120   44.4710 C   0  0  0  0  0  0  0  0  0  0  0  0
   56.2800   31.8570   45.6000 H   0  0  0  0  0  0  0  0  0  0  0  0
   56.0030   33.5190   44.9860 H   0  0  0  0  0  0  0  0  0  0  0  0
   59.9030   32.2630   46.0970 H   0  0  0  0  0  0  0  0  0  0  0  0
   60.2180   29.9864   46.9504 H   0  0  0  0  0  0  0  0  0  0  0  0
   59.8600   27.5469   46.6198 H   0  0  0  0  0  0  0  0  0  0  0  0
   56.8500   26.3780   43.1550 H   0  0  0  0  0  0  0  0  0  0  0  0
   56.0556   24.0913   42.1996 H   0  0  0  0  0  0  0  0  0  0  0  0
   56.1714   21.5969   42.4837 H   0  0  0  0  0  0  0  0  0  0  0  0
   57.5469   20.5982   44.3198 H   0  0  0  0  0  0  0  0  0  0  0  0
   58.8214   22.0914   45.8963 H   0  0  0  0  0  0  0  0  0  0  0  0
   56.9566   28.3955   43.5196 H   0  0  0  0  0  0  0  0  0  0  0  0
   57.3175   30.8351   43.8530 H   0  0  0  0  0  0  0  0  0  0  0  0
  1  2  1  0
  2  3  2  0
  2  4  1  0
  4  5  1  0
  5  6  2  0
  6  7  1  0
  7  8  2  0
  8  9  1  0
  9 10  2  0
 10 11  1  0
 11 12  2  0
 12 13  1  0
 13 14  2  0
 14 15  1  0
 15 16  2  0
 16 17  1  0
  8 18  1  0
 18 19  2  0
 19  5  1  0
 17  9  1  0
 16 11  1  0
  1 20  1  0
  1 21  1  0
  4 22  1  0
  6 23  1  0
  7 24  1  0
 10 25  1  0
 12 26  1  0
 13 27  1  0
 14 28  1  0
 15 29  1  0
 18 30  1  0
 19 31  1  0
M  CHG  1  10   1
M  END
>  <UniqueID>  (76) 
63

>  <SMILES>  (76) 
NC(=S)Nc1ccc(-c2[nH+]c3ccccc3s2)cc1

>  <Energy>  (76) 
72.86468571019621

>  <Genealogy>  (76) 
NC(=S)Nc1ccc(-c2[nH+]c3ccccc3s2)cc1 (protonated)
NC(=S)Nc1ccc(-c2[nH+]c3ccccc3s2)cc1 (3D coordinates assigned)
NC(=S)Nc1ccc(-c2[nH+]c3ccccc3s2)cc1 (optimized conformer: 72.86468571019621 kcal/mol)

>  <smiles>  (76) 
NC(=S)Nc1ccc(-c2nc3ccccc3s2)cc1

>  <score_type>  (76) 
oracle

>  <origin>  (76) 
adg

>  <m_score__min__energy>  (76) 
-5.5599999999999996

>  <m_primary>  (76) 
energy

$$$$
76:0
     RDKit          3D

 51 54  0  0  0  0  0  0  0  0999 V2000
   56.6610   33.7560   46.2530 O   0  0  0  0  0  0  0  0  0  0  0  0
   57.9520   33.6820   45.4870 S   0  0  0  0  0  0  0  0  0  0  0  0
   58.0140   34.8360   44.5290 O   0  0  0  0  0  0  0  0  0  0  0  0
   57.9910   32.1970   44.5930 N   0  0  0  0  0  0  0  0  0  0  0  0
   57.9470   30.8820   45.1650 C   0  0  0  0  0  0  0  0  0  0  0  0
   57.0190   29.9660   44.6630 C   0  0  0  0  0  0  0  0  0  0  0  0
   56.9350   28.6770   45.1980 C   0  0  0  0  0  0  0  0  0  0  0  0
   57.7670   28.2890   46.2510 C   0  0  0  0  0  0  0  0  0  0  0  0
   57.6470   26.9850   46.7590 O   0  0  0  0  0  0  0  0  0  0  0  0
   57.3630   25.8390   46.0010 C   0  0  0  0  0  0  0  0  0  0  0  0
   56.0500   25.5100   45.6130 C   0  0  0  0  0  0  0  0  0  0  0  0
   55.8060   24.3510   44.8720 C   0  0  0  0  0  0  0  0  0  0  0  0
   56.8670   23.5180   44.4950 C   0  0  0  0  0  0  0  0  0  0  0  0
   56.5300   22.0090   43.6520 S   0  0  0  0  0  0  0  0  0  0  0  0
   57.8050   21.2780   43.3330 O   0  0  0  0  0  0  0  0  0  0  0  0
   55.8030   22.3170   42.3750 O   0  0  0  0  0  0  0  0  0  0  0  0
   55.5290   21.0060   44.6570 N   0  0  0  0  0  0  0  0  0  0  0  0
   55.1490   21.3310   46.0030 C   0  0  0  0  0  0  0  0  0  0  0  0
   53.8900   21.8940   46.2940 C   0  0  0  0  0  0  0  0  0  0  0  0
   53.5230   22.1450   47.6180 C   0  0  0  0  0  0  0  0  0  0  0  0
   54.4060   21.8480   48.6630 C   0  0  0  0  0  0  0  0  0  0  0  0
   55.6690   21.3180   48.3820 C   0  0  0  0  0  0  0  0  0  0  0  0
   56.0450   21.0660   47.0570 C   0  0  0  0  0  0  0  0  0  0  0  0
   57.6320   20.3780   46.7380 Cl  0  0  0  0  0  0  0  0  0  0  0  0
   58.1760   23.8660   44.8460 C   0  0  0  0  0  0  0  0  0  0  0  0
   58.4240   25.0250   45.5870 C   0  0  0  0  0  0  0  0  0  0  0  0
   58.7160   29.2010   46.7470 C   0  0  0  0  0  0  0  0  0  0  0  0
   58.7960   30.4930   46.2180 C   0  0  0  0  0  0  0  0  0  0  0  0
   59.3330   33.7740   46.5750 C   0  0  0  0  0  0  0  0  0  0  0  0
   59.1260   33.8840   47.9570 C   0  0  0  0  0  0  0  0  0  0  0  0
   60.2190   33.9750   48.8250 C   0  0  0  0  0  0  0  0  0  0  0  0
   61.5200   33.9600   48.3150 C   0  0  0  0  0  0  0  0  0  0  0  0
   61.7320   33.8470   46.9380 C   0  0  0  0  0  0  0  0  0  0  0  0
   60.6430   33.7470   46.0680 C   0  0  0  0  0  0  0  0  0  0  0  0
   56.3499   30.2610   43.8412 H   0  0  0  0  0  0  0  0  0  0  0  0
   56.2074   27.9621   44.7862 H   0  0  0  0  0  0  0  0  0  0  0  0
   55.2140   26.1674   45.8941 H   0  0  0  0  0  0  0  0  0  0  0  0
   54.7767   24.0917   44.5836 H   0  0  0  0  0  0  0  0  0  0  0  0
   53.1950   22.1362   45.4765 H   0  0  0  0  0  0  0  0  0  0  0  0
   52.5364   22.5777   47.8405 H   0  0  0  0  0  0  0  0  0  0  0  0
   54.1061   22.0316   49.7053 H   0  0  0  0  0  0  0  0  0  0  0  0
   56.3679   21.0988   49.2027 H   0  0  0  0  0  0  0  0  0  0  0  0
   59.0143   23.2242   44.5372 H   0  0  0  0  0  0  0  0  0  0  0  0
   59.4575   25.2987   45.8460 H   0  0  0  0  0  0  0  0  0  0  0  0
   59.3982   28.8966   47.5545 H   0  0  0  0  0  0  0  0  0  0  0  0
   59.5253   31.2081   46.6264 H   0  0  0  0  0  0  0  0  0  0  0  0
   58.1024   33.8988   48.3595 H   0  0  0  0  0  0  0  0  0  0  0  0
   60.0545   34.0584   49.9094 H   0  0  0  0  0  0  0  0  0  0  0  0
   62.3786   34.0372   48.9983 H   0  0  0  0  0  0  0  0  0  0  0  0
   62.7570   33.8368   46.5388 H   0  0  0  0  0  0  0  0  0  0  0  0
   60.8115   33.6471   44.9856 H   0  0  0  0  0  0  0  0  0  0  0  0
  1  2  2  0
  2  3  2  0
  2  4  1  0
  4  5  1  0
  5  6  2  0
  6  7  1  0
  7  8  2  0
  8  9  1  0
  9 10  1  0
 10 11  2  0
 11 12  1  0
 12 13  2  0
 13 14  1  0
 14 15  2  0
 14 16  2  0
 14 17  1  0
 17 18  1  0
 18 19  2  0
 19 20  1  0
 20 21  2  0
 21 22  1  0
 22 23  2  0
 23 24  1  0
 13 25  1  0
 25 26  2  0
  8 27  1  0
 27 28  2  0
  2 29  1  0
 29 30  2  0
 30 31  1  0
 31 32  2  0
 32 33  1  0
 33 34  2  0
 28  5  1  0
 34 29  1  0
 26 10  1  0
 23 18  1  0
  6 35  1  0
  7 36  1  0
 11 37  1  0
 12 38  1  0
 19 39  1  0
 20 40  1  0
 21 41  1  0
 22 42  1  0
 25 43  1  0
 26 44  1  0
 27 45  1  0
 28 46  1  0
 30 47  1  0
 31 48  1  0
 32 49  1  0
 33 50  1  0
 34 51  1  0
M  CHG  2   4  -1  17  -1
M  END
>  <UniqueID>  (77) 
64

>  <SMILES>  (77) 
O=S(=O)([N-]c1ccc(Oc2ccc(S(=O)(=O)[N-]c3ccccc3Cl)cc2)cc1)c1ccccc1

>  <Energy>  (77) 
69.48491134295998

>  <Genealogy>  (77) 
O=S(=O)([N-]c1ccc(Oc2ccc(S(=O)(=O)[N-]c3ccccc3Cl)cc2)cc1)c1ccccc1 (protonated)
O=S(=O)([N-]c1ccc(Oc2ccc(S(=O)(=O)[N-]c3ccccc3Cl)cc2)cc1)c1ccccc1 (3D coordinates assigned)
O=S(=O)([N-]c1ccc(Oc2ccc(S(=O)(=O)[N-]c3ccccc3Cl)cc2)cc1)c1ccccc1 (optimized conformer: 69.48491134295998 kcal/mol)

>  <smiles>  (77) 
O=S(=O)(Nc1ccc(Oc2ccc(S(=O)(=O)Nc3ccccc3Cl)cc2)cc1)c1ccccc1

>  <score_type>  (77) 
oracle

>  <origin>  (77) 
adg

>  <m_score__min__energy>  (77) 
-11.91

>  <m_primary>  (77) 
energy

$$$$
77:0
     RDKit          3D

 79 84  0  0  0  0  0  0  0  0999 V2000
   61.2410   27.0303   46.5027 H   0  0  0  0  0  0  0  0  0  0  0  0
   60.2460   27.1760   46.0570 C   0  0  0  0  0  0  0  0  0  0  0  0
   59.5080   26.1010   45.6780 N   0  0  0  0  0  0  0  0  0  0  0  0
   58.2820   26.2510   45.1010 C   0  0  0  0  0  0  0  0  0  0  0  0
   57.5610   25.2210   44.7640 N   0  0  0  0  0  0  0  0  0  0  0  0
   56.8680   24.3240   45.6480 C   0  0  0  0  0  0  0  0  0  0  0  0
   55.5680   24.5890   46.1110 C   0  0  0  0  0  0  0  0  0  0  0  0
   55.0437   25.4982   45.7817 H   0  0  0  0  0  0  0  0  0  0  0  0
   54.9390   23.7020   46.9880 C   0  0  0  0  0  0  0  0  0  0  0  0
   53.9141   23.9070   47.3308 H   0  0  0  0  0  0  0  0  0  0  0  0
   55.6060   22.5520   47.4340 C   0  0  0  0  0  0  0  0  0  0  0  0
   54.9410   21.6450   48.3270 N   0  0  0  0  0  0  0  0  0  0  0  0
   53.8100   20.8440   47.8380 C   0  0  0  0  0  0  0  0  0  0  0  0
   53.0383   21.5171   47.4361 H   0  0  0  0  0  0  0  0  0  0  0  0
   54.1723   20.1648   47.0522 H   0  0  0  0  0  0  0  0  0  0  0  0
   53.2070   20.0080   48.9700 C   0  0  0  0  0  0  0  0  0  0  0  0
   52.2061   19.6570   48.6784 H   0  0  0  0  0  0  0  0  0  0  0  0
   53.8459   19.1360   49.1736 H   0  0  0  0  0  0  0  0  0  0  0  0
   53.1060   20.8490   50.1750 N   0  0  0  0  0  0  0  0  0  0  0  0
   52.1760   20.3310   51.2010 C   0  0  0  0  0  0  0  0  0  0  0  0
   51.6302   19.4793   50.7688 H   0  0  0  0  0  0  0  0  0  0  0  0
   52.7948   20.0566   52.0681 H   0  0  0  0  0  0  0  0  0  0  0  0
   51.1570   21.3370   51.7060 C   0  0  0  0  0  0  0  0  0  0  0  0
   49.9350   21.1800   51.4360 O   0  0  0  0  0  0  0  0  0  0  0  0
   51.5570   22.4570   52.5250 N   0  0  0  0  0  0  0  0  0  0  0  0
   50.6380   23.5950   52.6660 C   0  0  0  0  0  0  0  0  0  0  0  0
   50.3369   23.9395   51.6657 H   0  0  0  0  0  0  0  0  0  0  0  0
   49.7607   23.2659   53.2423 H   0  0  0  0  0  0  0  0  0  0  0  0
   51.3040   24.7530   53.4140 C   0  0  0  0  0  0  0  0  0  0  0  0
   50.7559   25.6856   53.2143 H   0  0  0  0  0  0  0  0  0  0  0  0
   51.2926   24.5539   54.4958 H   0  0  0  0  0  0  0  0  0  0  0  0
   52.6920   24.8860   52.9460 N   0  0  0  0  0  0  0  0  0  0  0  0
   53.2810   26.1460   53.4230 C   0  0  0  0  0  0  0  0  0  0  0  0
   53.2854   26.1554   54.5230 H   0  0  0  0  0  0  0  0  0  0  0  0
   54.3127   26.2323   53.0514 H   0  0  0  0  0  0  0  0  0  0  0  0
   52.6855   26.9929   53.0514 H   0  0  0  0  0  0  0  0  0  0  0  0
   53.5240   23.7310   53.3620 C   0  0  0  0  0  0  0  0  0  0  0  0
   54.3609   23.6307   52.6553 H   0  0  0  0  0  0  0  0  0  0  0  0
   53.8696   23.9302   54.3871 H   0  0  0  0  0  0  0  0  0  0  0  0
   52.7450   22.3980   53.3920 C   0  0  0  0  0  0  0  0  0  0  0  0
   53.4040   21.5892   53.0433 H   0  0  0  0  0  0  0  0  0  0  0  0
   52.4143   22.2106   54.4242 H   0  0  0  0  0  0  0  0  0  0  0  0
   54.4100   21.2960   50.7200 C   0  0  0  0  0  0  0  0  0  0  0  0
   54.2820   22.2957   51.1606 H   0  0  0  0  0  0  0  0  0  0  0  0
   54.7256   20.5552   51.4695 H   0  0  0  0  0  0  0  0  0  0  0  0
   55.5160   21.3690   49.6480 C   0  0  0  0  0  0  0  0  0  0  0  0
   56.2203   22.1722   49.9101 H   0  0  0  0  0  0  0  0  0  0  0  0
   56.0371   20.4010   49.6114 H   0  0  0  0  0  0  0  0  0  0  0  0
   56.9140   22.2840   46.9920 C   0  0  0  0  0  0  0  0  0  0  0  0
   57.5470   21.1100   47.4300 O   0  0  0  0  0  0  0  0  0  0  0  0
   57.6140   19.8990   46.6830 C   0  0  0  0  0  0  0  0  0  0  0  0
   57.6613   19.0442   47.3738 H   0  0  0  0  0  0  0  0  0  0  0  0
   56.7194   19.8092   46.0492 H   0  0  0  0  0  0  0  0  0  0  0  0
   58.5130   19.9084   46.0492 H   0  0  0  0  0  0  0  0  0  0  0  0
   57.5440   23.1890   46.1140 C   0  0  0  0  0  0  0  0  0  0  0  0
   58.5787   23.0018   45.7909 H   0  0  0  0  0  0  0  0  0  0  0  0
   57.7760   27.4980   44.9150 N   0  0  0  0  0  0  0  0  0  0  0  0
   58.4780   28.6020   45.2800 C   0  0  0  0  0  0  0  0  0  0  0  0
   59.7420   28.4670   45.8810 C   0  0  0  0  0  0  0  0  0  0  0  0
   60.5890   29.6910   46.1970 C   0  0  0  0  0  0  0  0  0  0  0  0
   61.2411   29.4517   47.0499 H   0  0  0  0  0  0  0  0  0  0  0  0
   61.1598   29.9313   45.2879 H   0  0  0  0  0  0  0  0  0  0  0  0
   59.7560   30.9470   46.5550 C   0  0  0  0  0  0  0  0  0  0  0  0
   59.4535   30.8879   47.6109 H   0  0  0  0  0  0  0  0  0  0  0  0
   60.3762   31.8382   46.3784 H   0  0  0  0  0  0  0  0  0  0  0  0
   58.5250   31.0460   45.6970 C   0  0  0  0  0  0  0  0  0  0  0  0
   57.7000   32.1150   45.3720 C   0  0  0  0  0  0  0  0  0  0  0  0
   57.8380   33.5330   45.7560 C   0  0  0  0  0  0  0  0  0  0  0  0
   57.4220   33.9050   46.8850 O   0  0  0  0  0  0  0  0  0  0  0  0
   58.4590   34.4910   44.8950 N   0  0  0  0  0  0  0  0  0  0  0  0
   58.5260   35.4890   45.1900 H   0  0  0  0  0  0  0  0  0  0  0  0
   58.9850   34.2000   44.0440 H   0  0  0  0  0  0  0  0  0  0  0  0
   56.6820   31.6630   44.6040 N   0  0  0  0  0  0  0  0  0  0  0  0
   56.8250   30.3520   44.4610 N   0  0  0  0  0  0  0  0  0  0  0  0
   55.8960   29.5200   43.7060 C   0  0  0  0  0  0  0  0  0  0  0  0
   55.2622   28.9524   44.4033 H   0  0  0  0  0  0  0  0  0  0  0  0
   55.2632   30.1590   43.0725 H   0  0  0  0  0  0  0  0  0  0  0  0
   56.4616   28.8208   43.0725 H   0  0  0  0  0  0  0  0  0  0  0  0
   57.9280   29.9560   45.1250 C   0  0  0  0  0  0  0  0  0  0  0  0
  1  2  1  0
  2  3  1  0
  3  4  1  0
  4  5  2  0
  5  6  1  0
  6  7  2  0
  7  8  1  0
  7  9  1  0
  9 10  1  0
  9 11  2  0
 11 12  1  0
 12 13  1  0
 13 14  1  0
 13 15  1  0
 13 16  1  0
 16 17  1  0
 16 18  1  0
 16 19  1  0
 19 20  1  0
 20 21  1  0
 20 22  1  0
 20 23  1  0
 23 24  2  0
 23 25  1  0
 25 26  1  0
 26 27  1  0
 26 28  1  0
 26 29  1  0
 29 30  1  0
 29 31  1  0
 29 32  1  0
 32 33  1  0
 33 34  1  0
 33 35  1  0
 33 36  1  0
 32 37  1  0
 37 38  1  0
 37 39  1  0
 37 40  1  0
 40 41  1  0
 40 42  1  0
 19 43  1  0
 43 44  1  0
 43 45  1  0
 43 46  1  0
 46 47  1  0
 46 48  1  0
 11 49  1  0
 49 50  1  0
 50 51  1  0
 51 52  1  0
 51 53  1  0
 51 54  1  0
 49 55  2  0
 55 56  1  0
  4 57  1  0
 57 58  2  0
 58 59  1  0
 59 60  1  0
 60 61  1  0
 60 62  1  0
 60 63  1  0
 63 64  1  0
 63 65  1  0
 63 66  1  0
 66 67  1  0
 67 68  1  0
 68 69  2  0
 68 70  1  0
 70 71  1  0
 70 72  1  0
 67 73  2  0
 73 74  1  0
 74 75  1  0
 75 76  1  0
 75 77  1  0
 75 78  1  0
 74 79  1  0
 59  2  2  0
 79 66  2  0
 55  6  1  0
 79 58  1  0
 46 12  1  0
 40 25  1  0
M  CHG  1   3  -1
M  END
>  <UniqueID>  (78) 
65

>  <SMILES>  (78) 
COc1cc(/N=c2/nc3c(c[n-]2)CCc2c(C(N)=O)nn(C)c2-3)ccc1N1CCN(CC(=O)N2CCN(C)CC2)CC1

>  <Energy>  (78) 
149.3461112487768

>  <Genealogy>  (78) 
COc1cc(N=c2nc3c(c[n-]2)CCc2c(C(N)=O)nn(C)c2-3)ccc1N1CCN(CC(=O)N2CCN(C)CC2)CC1 (protonated)
COc1cc(/N=c2/nc3c(c[n-]2)CCc2c(C(N)=O)nn(C)c2-3)ccc1N1CCN(CC(=O)N2CCN(C)CC2)CC1 (cis-trans isomerization)
COc1cc(/N=c2/nc3c(c[n-]2)CCc2c(C(N)=O)nn(C)c2-3)ccc1N1CCN(CC(=O)N2CCN(C)CC2)CC1 (3D coordinates assigned)
COc1cc(/N=c2/nc3c(c[n-]2)CCc2c(C(N)=O)nn(C)c2-3)ccc1N1CCN(CC(=O)N2CCN(C)CC2)CC1 (nonaromatic ring conformer: 149.3461112487768 kcal/mol)

>  <smiles>  (78) 
COc1cc(N=c2nc3c(c[nH]2)CCc2c(C(N)=O)nn(C)c2-3)ccc1N1CCN(CC(=O)N2CCN(C)CC2)CC1

>  <score_type>  (78) 
oracle

>  <origin>  (78) 
adg

>  <m_score__min__energy>  (78) 
-10.390000000000001

>  <m_primary>  (78) 
energy

$$$$
78:0
     RDKit          3D

 46 48  0  0  0  0  0  0  0  0999 V2000
   60.6438   30.9925   46.9904 H   0  0  0  0  0  0  0  0  0  0  0  0
   59.9140   30.5570   46.2920 C   0  0  0  0  0  0  0  0  0  0  0  0
   59.8714   29.4671   46.1498 H   0  0  0  0  0  0  0  0  0  0  0  0
   59.0750   31.3560   45.6130 C   0  0  0  0  0  0  0  0  0  0  0  0
   58.0900   30.9630   44.6890 C   0  0  0  0  0  0  0  0  0  0  0  0
   57.7920   29.7580   44.1630 C   0  0  0  0  0  0  0  0  0  0  0  0
   57.7485   29.6868   43.0662 H   0  0  0  0  0  0  0  0  0  0  0  0
   57.5190   28.5260   44.9280 C   0  0  0  0  0  0  0  0  0  0  0  0
   56.2030   28.1720   45.2540 C   0  0  0  0  0  0  0  0  0  0  0  0
   55.1440   29.0030   44.9010 O   0  0  0  0  0  0  0  0  0  0  0  0
   55.9550   27.0150   45.9250 N   0  0  0  0  0  0  0  0  0  0  0  0
   54.9680   26.7700   46.1690 H   0  0  0  0  0  0  0  0  0  0  0  0
   56.9720   26.1800   46.2750 C   0  0  0  0  0  0  0  0  0  0  0  0
   56.6630   24.7920   47.0830 S   0  0  0  0  0  0  0  0  0  0  0  0
   58.2520   26.4910   45.9450 N   0  0  0  0  0  0  0  0  0  0  0  0
   58.5480   27.6350   45.2750 C   0  0  0  0  0  0  0  0  0  0  0  0
   59.7450   27.8810   44.9710 O   0  0  0  0  0  0  0  0  0  0  0  0
   57.4050   32.1130   44.3410 C   0  0  0  0  0  0  0  0  0  0  0  0
   56.5455   32.1811   43.6579 H   0  0  0  0  0  0  0  0  0  0  0  0
   58.0030   33.1570   45.0120 C   0  0  0  0  0  0  0  0  0  0  0  0
   57.5990   34.5930   44.8630 C   0  0  0  0  0  0  0  0  0  0  0  0
   57.4723   35.0434   45.8585 H   0  0  0  0  0  0  0  0  0  0  0  0
   58.3787   35.1378   44.3106 H   0  0  0  0  0  0  0  0  0  0  0  0
   56.6496   34.6514   44.3106 H   0  0  0  0  0  0  0  0  0  0  0  0
   59.0170   32.7040   45.7880 N   0  0  0  0  0  0  0  0  0  0  0  0
   59.8280   33.5230   46.7080 C   0  0  0  0  0  0  0  0  0  0  0  0
   60.8014   33.0329   46.8575 H   0  0  0  0  0  0  0  0  0  0  0  0
   59.9530   34.5198   46.2599 H   0  0  0  0  0  0  0  0  0  0  0  0
   59.1420   33.6940   48.0720 C   0  0  0  0  0  0  0  0  0  0  0  0
   59.5661   34.5754   48.5753 H   0  0  0  0  0  0  0  0  0  0  0  0
   58.0630   33.8176   47.8976 H   0  0  0  0  0  0  0  0  0  0  0  0
   59.3370   32.4890   48.9540 C   0  0  0  0  0  0  0  0  0  0  0  0
   60.6140   31.9310   49.1180 C   0  0  0  0  0  0  0  0  0  0  0  0
   61.4704   32.3513   48.5704 H   0  0  0  0  0  0  0  0  0  0  0  0
   60.8010   30.8440   49.9740 C   0  0  0  0  0  0  0  0  0  0  0  0
   61.8032   30.4066   50.0936 H   0  0  0  0  0  0  0  0  0  0  0  0
   59.7200   30.3100   50.6790 C   0  0  0  0  0  0  0  0  0  0  0  0
   59.8740   29.4538   51.3522 H   0  0  0  0  0  0  0  0  0  0  0  0
   58.4330   30.8640   50.5310 C   0  0  0  0  0  0  0  0  0  0  0  0
   57.3170   30.3720   51.2230 O   0  0  0  0  0  0  0  0  0  0  0  0
   56.4440   31.1730   52.0130 C   0  0  0  0  0  0  0  0  0  0  0  0
   56.6432   30.9903   53.0793 H   0  0  0  0  0  0  0  0  0  0  0  0
   56.6145   32.2355   51.7850 H   0  0  0  0  0  0  0  0  0  0  0  0
   55.4000   30.9119   51.7850 H   0  0  0  0  0  0  0  0  0  0  0  0
   58.2520   31.9490   49.6660 C   0  0  0  0  0  0  0  0  0  0  0  0
   57.2494   32.3842   49.5418 H   0  0  0  0  0  0  0  0  0  0  0  0
  1  2  1  0
  2  3  1  0
  2  4  2  0
  4  5  1  0
  5  6  2  0
  6  7  1  0
  6  8  1  0
  8  9  2  0
  9 10  1  0
  9 11  1  0
 11 12  1  0
 11 13  1  0
 13 14  2  0
 13 15  1  0
 15 16  1  0
 16 17  2  0
  5 18  1  0
 18 19  1  0
 18 20  2  0
 20 21  1  0
 21 22  1  0
 21 23  1  0
 21 24  1  0
 20 25  1  0
 25 26  1  0
 26 27  1  0
 26 28  1  0
 26 29  1  0
 29 30  1  0
 29 31  1  0
 29 32  1  0
 32 33  2  0
 33 34  1  0
 33 35  1  0
 35 36  1  0
 35 37  2  0
 37 38  1  0
 37 39  1  0
 39 40  1  0
 40 41  1  0
 41 42  1  0
 41 43  1  0
 41 44  1  0
 39 45  2  0
 45 46  1  0
 25  4  1  0
 45 32  1  0
 16  8  1  0
M  CHG  2  10  -1  15  -1
M  END
>  <UniqueID>  (79) 
66

>  <SMILES>  (79) 
C=c1/c(=C\c2c([O-])[nH]c(=S)[n-]c2=O)cc(C)n1CCc1cccc(OC)c1

>  <Energy>  (79) 
85.38805611652263

>  <Genealogy>  (79) 
C=c1c(=Cc2c([O-])[nH]c(=S)[n-]c2=O)cc(C)n1CCc1cccc(OC)c1 (protonated)
C=c1/c(=C\c2c([O-])[nH]c(=S)[n-]c2=O)cc(C)n1CCc1cccc(OC)c1 (cis-trans isomerization)
C=c1/c(=C\c2c([O-])[nH]c(=S)[n-]c2=O)cc(C)n1CCc1cccc(OC)c1 (3D coordinates assigned)
C=c1/c(=C\c2c([O-])[nH]c(=S)[n-]c2=O)cc(C)n1CCc1cccc(OC)c1 (optimized conformer: 85.38805611652263 kcal/mol)

>  <smiles>  (79) 
C=c1c(=Cc2c(O)[nH]c(=S)[nH]c2=O)cc(C)n1CCc1cccc(OC)c1

>  <score_type>  (79) 
oracle

>  <origin>  (79) 
adg

>  <m_score__min__energy>  (79) 
-13.720000000000001

>  <m_primary>  (79) 
energy

$$$$
79:0
     RDKit          3D

 43 46  0  0  0  0  0  0  0  0999 V2000
   58.0889   26.2289   44.4879 H   0  0  0  0  0  0  0  0  0  0  0  0
   58.5610   26.8220   45.2850 C   0  0  0  0  0  0  0  0  0  0  0  0
   59.7590   27.9830   45.0770 S   0  0  0  0  0  0  0  0  0  0  0  0
   59.8400   28.3470   46.7230 C   0  0  0  0  0  0  0  0  0  0  0  0
   60.6450   29.1980   47.2880 N   0  0  0  0  0  0  0  0  0  0  0  0
   60.6520   30.6200   47.1020 C   0  0  0  0  0  0  0  0  0  0  0  0
   61.7580   31.2210   47.0640 O   0  0  0  0  0  0  0  0  0  0  0  0
   59.4270   31.3690   47.0710 N   0  0  0  0  0  0  0  0  0  0  0  0
   58.6040   30.9580   47.5630 H   0  0  0  0  0  0  0  0  0  0  0  0
   59.3120   32.6820   46.4900 C   0  0  0  0  0  0  0  0  0  0  0  0
   60.1040   33.7440   46.9660 C   0  0  0  0  0  0  0  0  0  0  0  0
   60.8033   33.5722   47.7976 H   0  0  0  0  0  0  0  0  0  0  0  0
   60.0100   35.0140   46.3920 C   0  0  0  0  0  0  0  0  0  0  0  0
   60.6286   35.8379   46.7773 H   0  0  0  0  0  0  0  0  0  0  0  0
   59.1330   35.2390   45.3310 C   0  0  0  0  0  0  0  0  0  0  0  0
   59.0561   36.2413   44.8843 H   0  0  0  0  0  0  0  0  0  0  0  0
   58.3530   34.1930   44.8360 C   0  0  0  0  0  0  0  0  0  0  0  0
   57.6632   34.3745   43.9986 H   0  0  0  0  0  0  0  0  0  0  0  0
   58.4430   32.9130   45.3990 C   0  0  0  0  0  0  0  0  0  0  0  0
   57.4030   31.6060   44.7280 S   0  0  0  0  0  0  0  0  0  0  0  0
   57.7760   32.0300   42.9980 C   0  0  0  0  0  0  0  0  0  0  0  0
   58.5023   32.8557   42.9713 H   0  0  0  0  0  0  0  0  0  0  0  0
   58.1999   31.1521   42.4885 H   0  0  0  0  0  0  0  0  0  0  0  0
   56.8512   32.3385   42.4885 H   0  0  0  0  0  0  0  0  0  0  0  0
   58.9810   27.5920   47.4390 N   0  0  0  0  0  0  0  0  0  0  0  0
   58.2720   26.7440   46.6460 C   0  0  0  0  0  0  0  0  0  0  0  0
   57.2110   25.8480   47.2040 C   0  0  0  0  0  0  0  0  0  0  0  0
   57.6691   25.1304   47.9005 H   0  0  0  0  0  0  0  0  0  0  0  0
   56.4650   26.4576   47.7349 H   0  0  0  0  0  0  0  0  0  0  0  0
   56.5370   25.1010   46.0930 C   0  0  0  0  0  0  0  0  0  0  0  0
   55.2640   25.3200   45.5830 C   0  0  0  0  0  0  0  0  0  0  0  0
   54.4150   26.3410   45.9880 O   0  0  0  0  0  0  0  0  0  0  0  0
   54.9250   24.4110   44.6380 N   0  0  0  0  0  0  0  0  0  0  0  0
   55.9990   23.6020   44.5630 C   0  0  0  0  0  0  0  0  0  0  0  0
   56.1420   22.4860   43.7400 C   0  0  0  0  0  0  0  0  0  0  0  0
   55.3434   22.1896   43.0440 H   0  0  0  0  0  0  0  0  0  0  0  0
   57.3380   21.7500   43.8260 C   0  0  0  0  0  0  0  0  0  0  0  0
   57.4818   20.8653   43.1884 H   0  0  0  0  0  0  0  0  0  0  0  0
   58.3550   22.1390   44.7250 C   0  0  0  0  0  0  0  0  0  0  0  0
   59.2849   21.5544   44.7847 H   0  0  0  0  0  0  0  0  0  0  0  0
   58.1860   23.2700   45.5450 C   0  0  0  0  0  0  0  0  0  0  0  0
   58.9698   23.5829   46.2505 H   0  0  0  0  0  0  0  0  0  0  0  0
   56.9910   23.9810   45.4330 C   0  0  0  0  0  0  0  0  0  0  0  0
  1  2  1  0
  2  3  1  0
  3  4  1  0
  4  5  2  0
  5  6  1  0
  6  7  2  0
  6  8  1  0
  8  9  1  0
  8 10  1  0
 10 11  2  0
 11 12  1  0
 11 13  1  0
 13 14  1  0
 13 15  2  0
 15 16  1  0
 15 17  1  0
 17 18  1  0
 17 19  2  0
 19 20  1  0
 20 21  1  0
 21 22  1  0
 21 23  1  0
 21 24  1  0
  4 25  1  0
 25 26  1  0
 26 27  1  0
 27 28  1  0
 27 29  1  0
 27 30  1  0
 30 31  2  0
 31 32  1  0
 31 33  1  0
 33 34  1  0
 34 35  2  0
 35 36  1  0
 35 37  1  0
 37 38  1  0
 37 39  2  0
 39 40  1  0
 39 41  1  0
 41 42  1  0
 41 43  2  0
 26  2  2  0
 43 30  1  0
 19 10  1  0
 43 34  1  0
M  CHG  3  25  -1  32  -1  33  -1
M  END
>  <UniqueID>  (80) 
67

>  <SMILES>  (80) 
CSc1ccccc1NC(=O)/N=c1/[n-]c(Cc2c([O-])[n-]c3ccccc23)cs1

>  <Energy>  (80) 
112.61424403505163

>  <Genealogy>  (80) 
CSc1ccccc1NC(=O)N=c1[n-]c(Cc2c([O-])[n-]c3ccccc23)cs1 (protonated)
CSc1ccccc1NC(=O)/N=c1/[n-]c(Cc2c([O-])[n-]c3ccccc23)cs1 (cis-trans isomerization)
CSc1ccccc1NC(=O)/N=c1/[n-]c(Cc2c([O-])[n-]c3ccccc23)cs1 (3D coordinates assigned)
CSc1ccccc1NC(=O)/N=c1/[n-]c(Cc2c([O-])[n-]c3ccccc23)cs1 (optimized conformer: 112.61424403505163 kcal/mol)

>  <smiles>  (80) 
CSc1ccccc1NC(=O)N=c1[nH]c(Cc2c(O)[nH]c3ccccc23)cs1

>  <score_type>  (80) 
oracle

>  <origin>  (80) 
adg

>  <m_score__min__energy>  (80) 
-16.449999999999999

>  <m_primary>  (80) 
energy

$$$$
80:0
     RDKit          3D

 54 56  0  0  0  0  0  0  0  0999 V2000
   62.5020   33.3350   47.0040 C   0  0  0  0  0  0  0  0  0  0  0  0
   61.4050   34.2090   46.7610 O   0  0  0  0  0  0  0  0  0  0  0  0
   60.0720   33.7930   46.6180 C   0  0  0  0  0  0  0  0  0  0  0  0
   59.4660   33.6460   45.3550 C   0  0  0  0  0  0  0  0  0  0  0  0
   58.1350   33.2170   45.2470 C   0  0  0  0  0  0  0  0  0  0  0  0
   57.4900   33.0730   43.8940 C   0  0  0  0  0  0  0  0  0  0  0  0
   57.7650   31.7550   43.3160 N   0  0  0  0  0  0  0  0  0  0  0  0
   56.9770   30.4850   44.2100 S   0  0  0  0  0  0  0  0  0  0  0  0
   56.9810   28.9600   43.2890 C   0  0  0  0  0  0  0  0  0  0  0  0
   55.5510   30.8880   44.4580 O   0  0  0  0  0  0  0  0  0  0  0  0
   57.6590   30.2770   45.5340 O   0  0  0  0  0  0  0  0  0  0  0  0
   57.4000   32.9600   46.4120 C   0  0  0  0  0  0  0  0  0  0  0  0
   57.9940   33.1020   47.6680 C   0  0  0  0  0  0  0  0  0  0  0  0
   59.3330   33.5200   47.7790 C   0  0  0  0  0  0  0  0  0  0  0  0
   59.9680   33.6800   49.0230 O   0  0  0  0  0  0  0  0  0  0  0  0
   60.3860   32.6180   49.8810 C   0  0  0  0  0  0  0  0  0  0  0  0
   59.9910   31.2810   49.3100 C   0  0  0  0  0  0  0  0  0  0  0  0
   58.9070   30.5760   49.8530 C   0  0  0  0  0  0  0  0  0  0  0  0
   58.5370   29.3340   49.3280 C   0  0  0  0  0  0  0  0  0  0  0  0
   59.2560   28.7660   48.2610 C   0  0  0  0  0  0  0  0  0  0  0  0
   58.8760   27.4560   47.6800 C   0  0  0  0  0  0  0  0  0  0  0  0
   59.4400   26.4110   48.1070 O   0  0  0  0  0  0  0  0  0  0  0  0
   57.8850   27.3570   46.6410 N   0  0  0  0  0  0  0  0  0  0  0  0
   57.4790   26.1040   46.0690 C   0  0  0  0  0  0  0  0  0  0  0  0
   58.4560   25.1530   45.7410 C   0  0  0  0  0  0  0  0  0  0  0  0
   58.0900   23.9280   45.1780 C   0  0  0  0  0  0  0  0  0  0  0  0
   56.7450   23.6500   44.9210 C   0  0  0  0  0  0  0  0  0  0  0  0
   55.7660   24.6020   45.2150 C   0  0  0  0  0  0  0  0  0  0  0  0
   56.1270   25.8330   45.7760 C   0  0  0  0  0  0  0  0  0  0  0  0
   55.1430   26.7860   46.0130 O   0  0  0  0  0  0  0  0  0  0  0  0
   60.3450   29.4760   47.7230 C   0  0  0  0  0  0  0  0  0  0  0  0
   60.7140   30.7180   48.2480 C   0  0  0  0  0  0  0  0  0  0  0  0
   62.6461   33.2202   48.0885 H   0  0  0  0  0  0  0  0  0  0  0  0
   62.2941   32.3523   46.5557 H   0  0  0  0  0  0  0  0  0  0  0  0
   63.4135   33.7572   46.5557 H   0  0  0  0  0  0  0  0  0  0  0  0
   60.0419   33.8697   44.4449 H   0  0  0  0  0  0  0  0  0  0  0  0
   56.4024   33.1993   43.9993 H   0  0  0  0  0  0  0  0  0  0  0  0
   57.9056   33.8413   43.2254 H   0  0  0  0  0  0  0  0  0  0  0  0
   56.9832   28.1100   43.9872 H   0  0  0  0  0  0  0  0  0  0  0  0
   56.0830   28.9118   42.6556 H   0  0  0  0  0  0  0  0  0  0  0  0
   57.8793   28.9166   42.6556 H   0  0  0  0  0  0  0  0  0  0  0  0
   56.3489   32.6445   46.3368 H   0  0  0  0  0  0  0  0  0  0  0  0
   57.4117   32.8858   48.5758 H   0  0  0  0  0  0  0  0  0  0  0  0
   61.4798   32.6536   49.9921 H   0  0  0  0  0  0  0  0  0  0  0  0
   59.8972   32.7418   50.8586 H   0  0  0  0  0  0  0  0  0  0  0  0
   58.3447   31.0026   50.6967 H   0  0  0  0  0  0  0  0  0  0  0  0
   57.6764   28.7967   49.7530 H   0  0  0  0  0  0  0  0  0  0  0  0
   57.5020   28.2230   46.2030 H   0  0  0  0  0  0  0  0  0  0  0  0
   59.5174   25.3730   45.9282 H   0  0  0  0  0  0  0  0  0  0  0  0
   58.8613   23.1817   44.9368 H   0  0  0  0  0  0  0  0  0  0  0  0
   56.4570   22.6811   44.4870 H   0  0  0  0  0  0  0  0  0  0  0  0
   54.7084   24.3840   45.0052 H   0  0  0  0  0  0  0  0  0  0  0  0
   60.9112   29.0500   46.8816 H   0  0  0  0  0  0  0  0  0  0  0  0
   61.5755   31.2564   47.8262 H   0  0  0  0  0  0  0  0  0  0  0  0
  1  2  1  0
  2  3  1  0
  3  4  2  0
  4  5  1  0
  5  6  1  0
  6  7  1  0
  7  8  1  0
  8  9  1  0
  8 10  2  0
  8 11  2  0
  5 12  2  0
 12 13  1  0
 13 14  2  0
 14 15  1  0
 15 16  1  0
 16 17  1  0
 17 18  2  0
 18 19  1  0
 19 20  2  0
 20 21  1  0
 21 22  2  0
 21 23  1  0
 23 24  1  0
 24 25  2  0
 25 26  1  0
 26 27  2  0
 27 28  1  0
 28 29  2  0
 29 30  1  0
 20 31  1  0
 31 32  2  0
 14  3  1  0
 32 17  1  0
 29 24  1  0
  1 33  1  0
  1 34  1  0
  1 35  1  0
  4 36  1  0
  6 37  1  0
  6 38  1  0
  9 39  1  0
  9 40  1  0
  9 41  1  0
 12 42  1  0
 13 43  1  0
 16 44  1  0
 16 45  1  0
 18 46  1  0
 19 47  1  0
 23 48  1  0
 25 49  1  0
 26 50  1  0
 27 51  1  0
 28 52  1  0
 31 53  1  0
 32 54  1  0
M  CHG  2   7  -1  30  -1
M  END
>  <UniqueID>  (81) 
68

>  <SMILES>  (81) 
COc1cc(C[N-]S(C)(=O)=O)ccc1OCc1ccc(C(=O)Nc2ccccc2[O-])cc1

>  <Energy>  (81) 
58.42438891701244

>  <Genealogy>  (81) 
COc1cc(C[N-]S(C)(=O)=O)ccc1OCc1ccc(C(=O)Nc2ccccc2[O-])cc1 (protonated)
COc1cc(C[N-]S(C)(=O)=O)ccc1OCc1ccc(C(=O)Nc2ccccc2[O-])cc1 (3D coordinates assigned)
COc1cc(C[N-]S(C)(=O)=O)ccc1OCc1ccc(C(=O)Nc2ccccc2[O-])cc1 (optimized conformer: 58.42438891701244 kcal/mol)

>  <smiles>  (81) 
COc1cc(CNS(C)(=O)=O)ccc1OCc1ccc(C(=O)Nc2ccccc2O)cc1

>  <score_type>  (81) 
oracle

>  <origin>  (81) 
adg

>  <m_score__min__energy>  (81) 
-13.49

>  <m_primary>  (81) 
energy

$$$$
81:0
     RDKit          3D

 37 39  0  0  0  0  0  0  0  0999 V2000
   58.2530   33.4640   44.8040 C   0  0  0  0  0  0  0  0  0  0  0  0
   58.0820   32.3240   43.9680 O   0  0  0  0  0  0  0  0  0  0  0  0
   57.4990   31.1170   44.3820 C   0  0  0  0  0  0  0  0  0  0  0  0
   56.2430   30.6900   43.9160 C   0  0  0  0  0  0  0  0  0  0  0  0
   55.7130   29.4700   44.3400 C   0  0  0  0  0  0  0  0  0  0  0  0
   56.4180   28.6690   45.2410 C   0  0  0  0  0  0  0  0  0  0  0  0
   55.9010   27.4690   45.6160 N   0  0  0  0  0  0  0  0  0  0  0  0
   56.5520   26.6430   46.4730 C   0  0  0  0  0  0  0  0  0  0  0  0
   56.0380   25.5380   46.7860 O   0  0  0  0  0  0  0  0  0  0  0  0
   57.7840   27.0200   47.0100 C   0  0  0  0  0  0  0  0  0  0  0  0
   58.3480   28.2610   46.6730 C   0  0  0  0  0  0  0  0  0  0  0  0
   59.6200   28.6490   47.3220 C   0  0  0  0  0  0  0  0  0  0  0  0
   60.5650   27.8150   47.3750 O   0  0  0  0  0  0  0  0  0  0  0  0
   59.7430   29.9230   47.9730 N   0  0  0  0  0  0  0  0  0  0  0  0
   61.0030   30.4920   48.3730 C   0  0  0  0  0  0  0  0  0  0  0  0
   61.7900   31.2010   47.4490 C   0  0  0  0  0  0  0  0  0  0  0  0
   62.9980   31.7800   47.8420 C   0  0  0  0  0  0  0  0  0  0  0  0
   63.4420   31.6740   49.1700 C   0  0  0  0  0  0  0  0  0  0  0  0
   64.6890   32.2730   49.5700 N   0  0  0  0  0  0  0  0  0  0  0  0
   64.8870   33.4960   49.4150 O   0  0  0  0  0  0  0  0  0  0  0  0
   65.6830   31.5060   50.1340 O   0  0  0  0  0  0  0  0  0  0  0  0
   62.6470   30.9790   50.0980 C   0  0  0  0  0  0  0  0  0  0  0  0
   61.4350   30.3970   49.7090 C   0  0  0  0  0  0  0  0  0  0  0  0
   60.4970   29.5230   50.9140 Cl  0  0  0  0  0  0  0  0  0  0  0  0
   57.6690   29.0970   45.7510 C   0  0  0  0  0  0  0  0  0  0  0  0
   58.2060   30.3180   45.2890 C   0  0  0  0  0  0  0  0  0  0  0  0
   58.2067   33.1554   45.8588 H   0  0  0  0  0  0  0  0  0  0  0  0
   59.2304   33.9254   44.5995 H   0  0  0  0  0  0  0  0  0  0  0  0
   57.4540   34.1918   44.5995 H   0  0  0  0  0  0  0  0  0  0  0  0
   55.6758   31.3196   43.2147 H   0  0  0  0  0  0  0  0  0  0  0  0
   54.7347   29.1378   43.9623 H   0  0  0  0  0  0  0  0  0  0  0  0
   58.3135   26.3443   47.6978 H   0  0  0  0  0  0  0  0  0  0  0  0
   58.8640   30.4400   48.1980 H   0  0  0  0  0  0  0  0  0  0  0  0
   61.4511   31.3005   46.4072 H   0  0  0  0  0  0  0  0  0  0  0  0
   63.6072   32.3239   47.1051 H   0  0  0  0  0  0  0  0  0  0  0  0
   62.9814   30.8915   51.1423 H   0  0  0  0  0  0  0  0  0  0  0  0
   59.1932   30.6463   45.6463 H   0  0  0  0  0  0  0  0  0  0  0  0
  1  2  1  0
  2  3  1  0
  3  4  2  0
  4  5  1  0
  5  6  2  0
  6  7  1  0
  7  8  1  0
  8  9  2  0
  8 10  1  0
 10 11  2  0
 11 12  1  0
 12 13  2  0
 12 14  1  0
 14 15  1  0
 15 16  2  0
 16 17  1  0
 17 18  2  0
 18 19  1  0
 19 20  2  0
 19 21  1  0
 18 22  1  0
 22 23  2  0
 23 24  1  0
 11 25  1  0
 25 26  2  0
 26  3  1  0
 25  6  1  0
 23 15  1  0
  1 27  1  0
  1 28  1  0
  1 29  1  0
  4 30  1  0
  5 31  1  0
 10 32  1  0
 14 33  1  0
 16 34  1  0
 17 35  1  0
 22 36  1  0
 26 37  1  0
M  CHG  3   7  -1  19   1  21  -1
M  END
>  <UniqueID>  (82) 
69

>  <SMILES>  (82) 
COc1ccc2[n-]c(=O)cc(C(=O)Nc3ccc([N+](=O)[O-])cc3Cl)c2c1

>  <Energy>  (82) 
55.08396373677982

>  <Genealogy>  (82) 
COc1ccc2[n-]c(=O)cc(C(=O)Nc3ccc([N+](=O)[O-])cc3Cl)c2c1 (protonated)
COc1ccc2[n-]c(=O)cc(C(=O)Nc3ccc([N+](=O)[O-])cc3Cl)c2c1 (3D coordinates assigned)
COc1ccc2[n-]c(=O)cc(C(=O)Nc3ccc([N+](=O)[O-])cc3Cl)c2c1 (optimized conformer: 55.08396373677982 kcal/mol)

>  <smiles>  (82) 
COc1ccc2[nH]c(=O)cc(C(=O)Nc3ccc([N+](=O)[O-])cc3Cl)c2c1

>  <score_type>  (82) 
oracle

>  <origin>  (82) 
adg

>  <m_score__min__energy>  (82) 
-9.0500000000000007

>  <m_primary>  (82) 
energy

$$$$
82:0
     RDKit          3D

 43 45  0  0  0  0  0  0  0  0999 V2000
   57.3520   21.7120   48.7290 N   0  0  0  0  0  0  0  0  0  0  0  0
   56.7760   22.9520   47.6690 S   0  0  0  0  0  0  0  0  0  0  0  0
   55.3860   23.3550   48.0730 O   0  0  0  0  0  0  0  0  0  0  0  0
   57.6860   24.1410   47.7960 O   0  0  0  0  0  0  0  0  0  0  0  0
   56.7660   22.3750   45.9920 C   0  0  0  0  0  0  0  0  0  0  0  0
   56.8060   20.9910   45.7540 C   0  0  0  0  0  0  0  0  0  0  0  0
   56.7510   20.4920   44.4520 C   0  0  0  0  0  0  0  0  0  0  0  0
   56.6540   21.3670   43.3710 C   0  0  0  0  0  0  0  0  0  0  0  0
   56.6220   22.7450   43.5870 C   0  0  0  0  0  0  0  0  0  0  0  0
   56.6900   23.2630   44.8920 C   0  0  0  0  0  0  0  0  0  0  0  0
   56.6800   24.7290   45.0630 C   0  0  0  0  0  0  0  0  0  0  0  0
   57.7660   25.5010   44.6370 C   0  0  0  0  0  0  0  0  0  0  0  0
   57.7470   26.8870   44.7980 C   0  0  0  0  0  0  0  0  0  0  0  0
   56.6300   27.5010   45.4010 C   0  0  0  0  0  0  0  0  0  0  0  0
   56.5430   28.7910   45.5670 N   0  0  0  0  0  0  0  0  0  0  0  0
   55.7050   29.7270   44.8160 C   0  0  0  0  0  0  0  0  0  0  0  0
   56.5460   30.7690   44.1230 C   0  0  0  0  0  0  0  0  0  0  0  0
   56.7580   30.7060   42.7390 C   0  0  0  0  0  0  0  0  0  0  0  0
   57.5310   31.6770   42.1000 C   0  0  0  0  0  0  0  0  0  0  0  0
   58.1120   32.7100   42.8390 C   0  0  0  0  0  0  0  0  0  0  0  0
   57.9360   32.7780   44.2320 C   0  0  0  0  0  0  0  0  0  0  0  0
   58.5590   33.8820   45.0030 C   0  0  0  0  0  0  0  0  0  0  0  0
   58.0100   34.3290   46.2450 N   0  0  0  0  0  0  0  0  0  0  0  0
   59.6060   34.4330   44.5670 O   0  0  0  0  0  0  0  0  0  0  0  0
   57.1450   31.8010   44.8670 C   0  0  0  0  0  0  0  0  0  0  0  0
   55.6000   26.7220   45.8280 N   0  0  0  0  0  0  0  0  0  0  0  0
   55.5990   25.3710   45.6800 C   0  0  0  0  0  0  0  0  0  0  0  0
   58.0050   22.1680   49.4040 H   0  0  0  0  0  0  0  0  0  0  0  0
   56.8814   20.2942   46.6019 H   0  0  0  0  0  0  0  0  0  0  0  0
   56.7842   19.4063   44.2783 H   0  0  0  0  0  0  0  0  0  0  0  0
   56.6026   20.9704   42.3463 H   0  0  0  0  0  0  0  0  0  0  0  0
   56.5430   23.4306   42.7304 H   0  0  0  0  0  0  0  0  0  0  0  0
   58.6371   25.0143   44.1740 H   0  0  0  0  0  0  0  0  0  0  0  0
   58.5971   27.4961   44.4570 H   0  0  0  0  0  0  0  0  0  0  0  0
   55.1297   29.1696   44.0622 H   0  0  0  0  0  0  0  0  0  0  0  0
   55.0285   30.2340   45.5198 H   0  0  0  0  0  0  0  0  0  0  0  0
   56.3133   29.8877   42.1537 H   0  0  0  0  0  0  0  0  0  0  0  0
   57.6829   31.6285   41.0116 H   0  0  0  0  0  0  0  0  0  0  0  0
   58.7121   33.4765   42.3268 H   0  0  0  0  0  0  0  0  0  0  0  0
   57.2470   33.8070   46.7300 H   0  0  0  0  0  0  0  0  0  0  0  0
   58.4340   35.1470   46.7370 H   0  0  0  0  0  0  0  0  0  0  0  0
   56.9943   31.8456   45.9557 H   0  0  0  0  0  0  0  0  0  0  0  0
   54.7465   24.7800   46.0460 H   0  0  0  0  0  0  0  0  0  0  0  0
  1  2  1  0
  2  3  2  0
  2  4  2  0
  2  5  1  0
  5  6  2  0
  6  7  1  0
  7  8  2  0
  8  9  1  0
  9 10  2  0
 10 11  1  0
 11 12  1  0
 12 13  2  0
 13 14  1  0
 14 15  2  3
 15 16  1  0
 16 17  1  0
 17 18  2  0
 18 19  1  0
 19 20  2  0
 20 21  1  0
 21 22  1  0
 22 23  1  0
 22 24  2  0
 21 25  2  0
 14 26  1  0
 26 27  1  0
 10  5  1  0
 27 11  2  0
 25 17  1  0
  1 28  1  0
  6 29  1  0
  7 30  1  0
  8 31  1  0
  9 32  1  0
 12 33  1  0
 13 34  1  0
 16 35  1  0
 16 36  1  0
 18 37  1  0
 19 38  1  0
 20 39  1  0
 23 40  1  0
 23 41  1  0
 25 42  1  0
 27 43  1  0
M  CHG  2   1  -1  26  -1
M  END
>  <UniqueID>  (83) 
70

>  <SMILES>  (83) 
[NH-]S(=O)(=O)c1ccccc1-c1ccc(=NCc2cccc(C(N)=O)c2)[n-]c1

>  <Energy>  (83) 
57.273590014010125

>  <Genealogy>  (83) 
[NH-]S(=O)(=O)c1ccccc1-c1ccc(=NCc2cccc(C(N)=O)c2)[n-]c1 (protonated)
[NH-]S(=O)(=O)c1ccccc1-c1ccc(=NCc2cccc(C(N)=O)c2)[n-]c1 (3D coordinates assigned)
[NH-]S(=O)(=O)c1ccccc1-c1ccc(=NCc2cccc(C(N)=O)c2)[n-]c1 (optimized conformer: 57.273590014010125 kcal/mol)

>  <smiles>  (83) 
NC(=O)c1cccc(CN=c2ccc(-c3ccccc3S(N)(=O)=O)c[nH]2)c1

>  <score_type>  (83) 
oracle

>  <origin>  (83) 
adg

>  <m_score__min__energy>  (83) 
-12.1

>  <m_primary>  (83) 
energy

$$$$
83:0
     RDKit          3D

 37 39  0  0  0  0  0  0  0  0999 V2000
   55.9370   20.3940   44.1960 N   0  0  0  0  0  0  0  0  0  0  0  0
   56.6570   21.7960   43.4890 S   0  0  0  0  0  0  0  0  0  0  0  0
   55.9090   22.1670   42.2390 O   0  0  0  0  0  0  0  0  0  0  0  0
   58.0850   21.4990   43.1260 O   0  0  0  0  0  0  0  0  0  0  0  0
   56.5980   23.1300   44.6380 C   0  0  0  0  0  0  0  0  0  0  0  0
   55.9770   22.9590   45.8820 C   0  0  0  0  0  0  0  0  0  0  0  0
   55.9020   24.0260   46.7800 C   0  0  0  0  0  0  0  0  0  0  0  0
   56.4510   25.2660   46.4440 C   0  0  0  0  0  0  0  0  0  0  0  0
   57.0900   25.4480   45.2100 C   0  0  0  0  0  0  0  0  0  0  0  0
   57.6250   26.7400   44.8770 N   0  0  0  0  0  0  0  0  0  0  0  0
   58.7190   27.3610   45.5730 C   0  0  0  0  0  0  0  0  0  0  0  0
   59.1930   26.8380   46.6190 O   0  0  0  0  0  0  0  0  0  0  0  0
   59.2850   28.6610   45.0860 C   0  0  0  0  0  0  0  0  0  0  0  0
   58.2590   29.7010   45.1030 N   0  0  0  0  0  0  0  0  0  0  0  0
   58.4290   31.0810   45.4350 C   0  0  0  0  0  0  0  0  0  0  0  0
   59.5660   31.6360   46.0350 C   0  0  0  0  0  0  0  0  0  0  0  0
   59.5890   33.0120   46.3000 C   0  0  0  0  0  0  0  0  0  0  0  0
   58.4860   33.8190   45.9700 C   0  0  0  0  0  0  0  0  0  0  0  0
   57.3490   33.2550   45.3730 C   0  0  0  0  0  0  0  0  0  0  0  0
   57.3320   31.8850   45.1110 C   0  0  0  0  0  0  0  0  0  0  0  0
   56.2300   31.2080   44.5030 N   0  0  0  0  0  0  0  0  0  0  0  0
   56.7010   29.5550   44.3920 S   0  0  0  0  0  0  0  0  0  0  0  0
   56.7860   29.1070   42.9610 O   0  0  0  0  0  0  0  0  0  0  0  0
   55.8050   28.6710   45.2110 O   0  0  0  0  0  0  0  0  0  0  0  0
   57.1400   24.3770   44.2980 C   0  0  0  0  0  0  0  0  0  0  0  0
   56.6350   19.6210   44.1170 H   0  0  0  0  0  0  0  0  0  0  0  0
   55.5478   21.9828   46.1520 H   0  0  0  0  0  0  0  0  0  0  0  0
   55.4095   23.8898   47.7541 H   0  0  0  0  0  0  0  0  0  0  0  0
   56.3813   26.1047   47.1524 H   0  0  0  0  0  0  0  0  0  0  0  0
   57.1220   27.3020   44.1530 H   0  0  0  0  0  0  0  0  0  0  0  0
   60.1169   28.9618   45.7398 H   0  0  0  0  0  0  0  0  0  0  0  0
   59.6435   28.5301   44.0543 H   0  0  0  0  0  0  0  0  0  0  0  0
   60.4270   31.0024   46.2941 H   0  0  0  0  0  0  0  0  0  0  0  0
   60.4756   33.4635   46.7691 H   0  0  0  0  0  0  0  0  0  0  0  0
   58.5149   34.8982   46.1811 H   0  0  0  0  0  0  0  0  0  0  0  0
   56.4838   33.8835   45.1153 H   0  0  0  0  0  0  0  0  0  0  0  0
   57.6073   24.5196   43.3125 H   0  0  0  0  0  0  0  0  0  0  0  0
  1  2  1  0
  2  3  2  0
  2  4  2  0
  2  5  1  0
  5  6  2  0
  6  7  1  0
  7  8  2  0
  8  9  1  0
  9 10  1  0
 10 11  1  0
 11 12  2  0
 11 13  1  0
 13 14  1  0
 14 15  1  0
 15 16  2  0
 16 17  1  0
 17 18  2  0
 18 19  1  0
 19 20  2  0
 20 21  1  0
 21 22  1  0
 22 23  2  0
 22 24  2  0
  9 25  2  0
 25  5  1  0
 22 14  1  0
 20 15  1  0
  1 26  1  0
  6 27  1  0
  7 28  1  0
  8 29  1  0
 10 30  1  0
 13 31  1  0
 13 32  1  0
 16 33  1  0
 17 34  1  0
 18 35  1  0
 19 36  1  0
 25 37  1  0
M  CHG  2   1  -1  21  -1
M  END
>  <UniqueID>  (84) 
71

>  <SMILES>  (84) 
[NH-]S(=O)(=O)c1cccc(NC(=O)CN2c3ccccc3[N-]S2(=O)=O)c1

>  <Energy>  (84) 
63.92591685764494

>  <Genealogy>  (84) 
[NH-]S(=O)(=O)c1cccc(NC(=O)CN2c3ccccc3[N-]S2(=O)=O)c1 (protonated)
[NH-]S(=O)(=O)c1cccc(NC(=O)CN2c3ccccc3[N-]S2(=O)=O)c1 (3D coordinates assigned)
[NH-]S(=O)(=O)c1cccc(NC(=O)CN2c3ccccc3[N-]S2(=O)=O)c1 (nonaromatic ring conformer: 63.92591685764494 kcal/mol)

>  <smiles>  (84) 
NS(=O)(=O)c1cccc(NC(=O)CN2c3ccccc3NS2(=O)=O)c1

>  <score_type>  (84) 
oracle

>  <origin>  (84) 
adg

>  <m_score__min__energy>  (84) 
-11.92

>  <m_primary>  (84) 
energy

$$$$
84:0
     RDKit          3D

 34 36  0  0  0  0  0  0  0  0999 V2000
   53.3160   23.5690   44.8870 O   0  0  0  0  0  0  0  0  0  0  0  0
   54.2920   24.3120   45.1650 C   0  0  0  0  0  0  0  0  0  0  0  0
   55.5970   23.8830   44.9250 C   0  0  0  0  0  0  0  0  0  0  0  0
   56.6580   24.7290   45.2430 C   0  0  0  0  0  0  0  0  0  0  0  0
   56.3910   25.9900   45.7960 C   0  0  0  0  0  0  0  0  0  0  0  0
   57.4610   26.8970   46.1380 N   0  0  0  0  0  0  0  0  0  0  0  0
   58.5490   26.4210   46.8210 C   0  0  0  0  0  0  0  0  0  0  0  0
   59.6110   27.2640   47.1550 C   0  0  0  0  0  0  0  0  0  0  0  0
   59.5670   28.6150   46.7830 C   0  0  0  0  0  0  0  0  0  0  0  0
   60.5980   29.5160   47.0860 O   0  0  0  0  0  0  0  0  0  0  0  0
   60.4670   30.6230   47.9730 C   0  0  0  0  0  0  0  0  0  0  0  0
   61.3280   31.7560   47.4840 C   0  0  0  0  0  0  0  0  0  0  0  0
   62.7260   31.6700   47.6070 C   0  0  0  0  0  0  0  0  0  0  0  0
   63.5430   32.7030   47.1380 C   0  0  0  0  0  0  0  0  0  0  0  0
   62.9750   33.8260   46.5340 C   0  0  0  0  0  0  0  0  0  0  0  0
   63.7700   34.8250   46.0790 F   0  0  0  0  0  0  0  0  0  0  0  0
   61.5880   33.9170   46.3920 C   0  0  0  0  0  0  0  0  0  0  0  0
   60.7610   32.8880   46.8590 C   0  0  0  0  0  0  0  0  0  0  0  0
   59.0210   33.0460   46.6360 Cl  0  0  0  0  0  0  0  0  0  0  0  0
   58.4550   29.0860   46.0850 C   0  0  0  0  0  0  0  0  0  0  0  0
   57.4060   28.2180   45.7680 C   0  0  0  0  0  0  0  0  0  0  0  0
   56.4040   28.6740   45.1520 O   0  0  0  0  0  0  0  0  0  0  0  0
   55.0950   26.3500   46.0110 N   0  0  0  0  0  0  0  0  0  0  0  0
   54.0800   25.5390   45.7050 N   0  0  0  0  0  0  0  0  0  0  0  0
   55.7865   22.8903   44.4906 H   0  0  0  0  0  0  0  0  0  0  0  0
   57.6952   24.4107   45.0619 H   0  0  0  0  0  0  0  0  0  0  0  0
   58.5866   25.3604   47.1102 H   0  0  0  0  0  0  0  0  0  0  0  0
   60.4772   26.8702   47.7069 H   0  0  0  0  0  0  0  0  0  0  0  0
   59.4162   30.9468   48.0040 H   0  0  0  0  0  0  0  0  0  0  0  0
   60.7867   30.3262   48.9828 H   0  0  0  0  0  0  0  0  0  0  0  0
   63.1799   30.7842   48.0753 H   0  0  0  0  0  0  0  0  0  0  0  0
   64.6354   32.6307   47.2451 H   0  0  0  0  0  0  0  0  0  0  0  0
   61.1437   34.8010   45.9112 H   0  0  0  0  0  0  0  0  0  0  0  0
   58.4034   30.1426   45.7834 H   0  0  0  0  0  0  0  0  0  0  0  0
  1  2  2  0
  2  3  1  0
  3  4  2  0
  4  5  1  0
  5  6  1  0
  6  7  1  0
  7  8  2  0
  8  9  1  0
  9 10  1  0
 10 11  1  0
 11 12  1  0
 12 13  2  0
 13 14  1  0
 14 15  2  0
 15 16  1  0
 15 17  1  0
 17 18  2  0
 18 19  1  0
  9 20  2  0
 20 21  1  0
 21 22  2  0
  5 23  2  0
 23 24  1  0
 24  2  1  0
 21  6  1  0
 18 12  1  0
  3 25  1  0
  4 26  1  0
  7 27  1  0
  8 28  1  0
 11 29  1  0
 11 30  1  0
 13 31  1  0
 14 32  1  0
 17 33  1  0
 20 34  1  0
M  CHG  1  24  -1
M  END
>  <UniqueID>  (85) 
72

>  <SMILES>  (85) 
O=c1ccc(-n2ccc(OCc3ccc(F)cc3Cl)cc2=O)n[n-]1

>  <Energy>  (85) 
46.79217325927906

>  <Genealogy>  (85) 
O=c1ccc(-n2ccc(OCc3ccc(F)cc3Cl)cc2=O)n[n-]1 (protonated)
O=c1ccc(-n2ccc(OCc3ccc(F)cc3Cl)cc2=O)n[n-]1 (3D coordinates assigned)
O=c1ccc(-n2ccc(OCc3ccc(F)cc3Cl)cc2=O)n[n-]1 (optimized conformer: 46.79217325927906 kcal/mol)

>  <smiles>  (85) 
O=c1ccc(-n2ccc(OCc3ccc(F)cc3Cl)cc2=O)n[nH]1

>  <score_type>  (85) 
oracle

>  <origin>  (85) 
adg

>  <m_score__min__energy>  (85) 
-10.220000000000001

>  <m_primary>  (85) 
energy

$$$$
85:0
     RDKit          3D

 47 49  0  0  0  0  0  0  0  0999 V2000
   54.7080   26.1610   45.9780 N   0  0  0  0  0  0  0  0  0  0  0  0
   56.3230   25.6170   45.6820 S   0  0  0  0  0  0  0  0  0  0  0  0
   56.3100   24.6810   44.5040 O   0  0  0  0  0  0  0  0  0  0  0  0
   56.8420   24.8900   46.8920 O   0  0  0  0  0  0  0  0  0  0  0  0
   57.3570   27.0010   45.3460 C   0  0  0  0  0  0  0  0  0  0  0  0
   58.5310   26.8270   44.6010 C   0  0  0  0  0  0  0  0  0  0  0  0
   59.3720   27.9130   44.3550 C   0  0  0  0  0  0  0  0  0  0  0  0
   59.0370   29.1820   44.8370 C   0  0  0  0  0  0  0  0  0  0  0  0
   57.8490   29.3770   45.5480 C   0  0  0  0  0  0  0  0  0  0  0  0
   57.5490   30.6840   46.0520 N   0  0  0  0  0  0  0  0  0  0  0  0
   57.6090   31.9150   45.3200 C   0  0  0  0  0  0  0  0  0  0  0  0
   56.5420   32.4050   44.8680 O   0  0  0  0  0  0  0  0  0  0  0  0
   58.8790   32.7070   45.1930 C   0  0  0  0  0  0  0  0  0  0  0  0
   58.7020   34.3200   46.0290 S   0  0  0  0  0  0  0  0  0  0  0  0
   60.2050   34.1490   46.9930 C   0  0  0  0  0  0  0  0  0  0  0  0
   60.1560   34.2400   48.3470 N   0  0  0  0  0  0  0  0  0  0  0  0
   61.2780   34.0980   49.0980 C   0  0  0  0  0  0  0  0  0  0  0  0
   61.1950   34.1800   50.3540 O   0  0  0  0  0  0  0  0  0  0  0  0
   62.5160   33.8660   48.4770 C   0  0  0  0  0  0  0  0  0  0  0  0
   63.7010   33.6970   49.2720 N   0  0  0  0  0  0  0  0  0  0  0  0
   64.4420   32.4670   49.2870 C   0  0  0  0  0  0  0  0  0  0  0  0
   64.1550   31.5580   48.4620 O   0  0  0  0  0  0  0  0  0  0  0  0
   65.5520   32.2580   50.2410 C   0  0  0  0  0  0  0  0  0  0  0  0
   66.6880   33.0880   50.2200 C   0  0  0  0  0  0  0  0  0  0  0  0
   67.7160   32.8990   51.1520 C   0  0  0  0  0  0  0  0  0  0  0  0
   67.6220   31.8860   52.1070 C   0  0  0  0  0  0  0  0  0  0  0  0
   66.4990   31.0580   52.1360 C   0  0  0  0  0  0  0  0  0  0  0  0
   65.4650   31.2450   51.2150 C   0  0  0  0  0  0  0  0  0  0  0  0
   62.5400   33.7590   47.0720 C   0  0  0  0  0  0  0  0  0  0  0  0
   63.7410   33.4290   46.3660 N   0  0  0  0  0  0  0  0  0  0  0  0
   61.3850   33.9030   46.3700 N   0  0  0  0  0  0  0  0  0  0  0  0
   57.0230   28.2750   45.8260 C   0  0  0  0  0  0  0  0  0  0  0  0
   54.7790   27.0910   46.4520 H   0  0  0  0  0  0  0  0  0  0  0  0
   58.7902   25.8323   44.2093 H   0  0  0  0  0  0  0  0  0  0  0  0
   60.2996   27.7706   43.7812 H   0  0  0  0  0  0  0  0  0  0  0  0
   59.7118   30.0316   44.6558 H   0  0  0  0  0  0  0  0  0  0  0  0
   59.7046   32.1465   45.6558 H   0  0  0  0  0  0  0  0  0  0  0  0
   59.0913   32.8765   44.1271 H   0  0  0  0  0  0  0  0  0  0  0  0
   64.1540   34.5540   49.6640 H   0  0  0  0  0  0  0  0  0  0  0  0
   66.7689   33.8878   49.4692 H   0  0  0  0  0  0  0  0  0  0  0  0
   68.6012   33.5517   51.1311 H   0  0  0  0  0  0  0  0  0  0  0  0
   68.4324   31.7402   52.8364 H   0  0  0  0  0  0  0  0  0  0  0  0
   66.4277   30.2562   52.8857 H   0  0  0  0  0  0  0  0  0  0  0  0
   64.5772   30.5965   51.2511 H   0  0  0  0  0  0  0  0  0  0  0  0
   64.4310   32.7750   46.7960 H   0  0  0  0  0  0  0  0  0  0  0  0
   63.9860   33.8730   45.4530 H   0  0  0  0  0  0  0  0  0  0  0  0
   56.1096   28.4126   46.4233 H   0  0  0  0  0  0  0  0  0  0  0  0
  1  2  1  0
  2  3  2  0
  2  4  2  0
  2  5  1  0
  5  6  2  0
  6  7  1  0
  7  8  2  0
  8  9  1  0
  9 10  1  0
 10 11  1  0
 11 12  2  0
 11 13  1  0
 13 14  1  0
 14 15  1  0
 15 16  2  0
 16 17  1  0
 17 18  2  0
 17 19  1  0
 19 20  1  0
 20 21  1  0
 21 22  2  0
 21 23  1  0
 23 24  2  0
 24 25  1  0
 25 26  2  0
 26 27  1  0
 27 28  2  0
 19 29  2  0
 29 30  1  0
 29 31  1  0
  9 32  2  0
 32  5  1  0
 31 15  1  0
 28 23  1  0
  1 33  1  0
  6 34  1  0
  7 35  1  0
  8 36  1  0
 13 37  1  0
 13 38  1  0
 20 39  1  0
 24 40  1  0
 25 41  1  0
 26 42  1  0
 27 43  1  0
 28 44  1  0
 30 45  1  0
 30 46  1  0
 32 47  1  0
M  CHG  3   1  -1  10  -1  31  -1
M  END
>  <UniqueID>  (86) 
73

>  <SMILES>  (86) 
[NH-]S(=O)(=O)c1cccc([N-]C(=O)CSc2nc(=O)c(NC(=O)c3ccccc3)c(N)[n-]2)c1

>  <Energy>  (86) 
56.62356761891953

>  <Genealogy>  (86) 
[NH-]S(=O)(=O)c1cccc([N-]C(=O)CSc2nc(=O)c(NC(=O)c3ccccc3)c(N)[n-]2)c1 (protonated)
[NH-]S(=O)(=O)c1cccc([N-]C(=O)CSc2nc(=O)c(NC(=O)c3ccccc3)c(N)[n-]2)c1 (3D coordinates assigned)
[NH-]S(=O)(=O)c1cccc([N-]C(=O)CSc2nc(=O)c(NC(=O)c3ccccc3)c(N)[n-]2)c1 (optimized conformer: 56.62356761891953 kcal/mol)

>  <smiles>  (86) 
Nc1[nH]c(SCC(=O)Nc2cccc(S(N)(=O)=O)c2)nc(=O)c1NC(=O)c1ccccc1

>  <score_type>  (86) 
oracle

>  <origin>  (86) 
adg

>  <m_score__min__energy>  (86) 
-14.039999999999999

>  <m_primary>  (86) 
energy

$$$$
86:0
     RDKit          3D

 37 39  0  0  0  0  0  0  0  0999 V2000
   62.9600   33.5528   47.8830 H   0  0  0  0  0  0  0  0  0  0  0  0
   61.9220   33.8220   47.6380 C   0  0  0  0  0  0  0  0  0  0  0  0
   61.4450   33.8010   46.3640 N   0  0  0  0  0  0  0  0  0  0  0  0
   60.1450   34.1600   46.3130 C   0  0  0  0  0  0  0  0  0  0  0  0
   59.4940   34.2400   45.1900 N   0  0  0  0  0  0  0  0  0  0  0  0
   58.1540   33.7800   44.9660 C   0  0  0  0  0  0  0  0  0  0  0  0
   57.2330   34.6340   44.8680 O   0  0  0  0  0  0  0  0  0  0  0  0
   57.8390   32.3440   44.7780 C   0  0  0  0  0  0  0  0  0  0  0  0
   57.3940   31.8730   43.5130 C   0  0  0  0  0  0  0  0  0  0  0  0
   57.2812   32.5809   42.6786 H   0  0  0  0  0  0  0  0  0  0  0  0
   57.0960   30.5120   43.3150 C   0  0  0  0  0  0  0  0  0  0  0  0
   56.7414   30.1420   42.3417 H   0  0  0  0  0  0  0  0  0  0  0  0
   57.2660   29.6520   44.3940 C   0  0  0  0  0  0  0  0  0  0  0  0
   57.7010   30.0880   45.6090 C   0  0  0  0  0  0  0  0  0  0  0  0
   57.7650   29.0660   46.4810 N   0  0  0  0  0  0  0  0  0  0  0  0
   57.3620   28.0090   45.7300 C   0  0  0  0  0  0  0  0  0  0  0  0
   57.2560   26.8140   46.2340 N   0  0  0  0  0  0  0  0  0  0  0  0
   56.4170   25.7610   45.7440 C   0  0  0  0  0  0  0  0  0  0  0  0
   55.2960   25.5760   46.2900 O   0  0  0  0  0  0  0  0  0  0  0  0
   56.8840   24.8620   44.7240 N   0  0  0  0  0  0  0  0  0  0  0  0
   57.9030   24.8660   44.4930 H   0  0  0  0  0  0  0  0  0  0  0  0
   56.0360   23.9350   44.0270 C   0  0  0  0  0  0  0  0  0  0  0  0
   54.7970   23.8990   44.2570 O   0  0  0  0  0  0  0  0  0  0  0  0
   56.6280   22.9800   43.0360 C   0  0  0  0  0  0  0  0  0  0  0  0
   57.3250   23.5241   42.3816 H   0  0  0  0  0  0  0  0  0  0  0  0
   55.8153   22.5367   42.4419 H   0  0  0  0  0  0  0  0  0  0  0  0
   57.3800   21.8630   43.7500 C   0  0  0  0  0  0  0  0  0  0  0  0
   57.2896   21.9973   44.8380 H   0  0  0  0  0  0  0  0  0  0  0  0
   56.9515   20.8912   43.4636 H   0  0  0  0  0  0  0  0  0  0  0  0
   58.4416   21.8944   43.4636 H   0  0  0  0  0  0  0  0  0  0  0  0
   57.0400   28.3330   44.4490 N   0  0  0  0  0  0  0  0  0  0  0  0
   56.6560   27.7320   43.6870 H   0  0  0  0  0  0  0  0  0  0  0  0
   58.0040   31.4260   45.8440 C   0  0  0  0  0  0  0  0  0  0  0  0
   58.3613   31.7608   46.8290 H   0  0  0  0  0  0  0  0  0  0  0  0
   59.5420   34.5370   47.8440 S   0  0  0  0  0  0  0  0  0  0  0  0
   61.0040   34.2080   48.6080 C   0  0  0  0  0  0  0  0  0  0  0  0
   61.1997   34.2849   49.6877 H   0  0  0  0  0  0  0  0  0  0  0  0
  1  2  1  0
  2  3  1  0
  3  4  1  0
  4  5  2  0
  5  6  1  0
  6  7  2  0
  6  8  1  0
  8  9  2  0
  9 10  1  0
  9 11  1  0
 11 12  1  0
 11 13  2  0
 13 14  1  0
 14 15  1  0
 15 16  1  0
 16 17  2  0
 17 18  1  0
 18 19  2  0
 18 20  1  0
 20 21  1  0
 20 22  1  0
 22 23  2  0
 22 24  1  0
 24 25  1  0
 24 26  1  0
 24 27  1  0
 27 28  1  0
 27 29  1  0
 27 30  1  0
 16 31  1  0
 31 32  1  0
 14 33  2  0
 33 34  1  0
  4 35  1  0
 35 36  1  0
 36 37  1  0
 36  2  2  0
 33  8  1  0
 31 13  1  0
M  CHG  2   3  -1  15  -1
M  END
>  <UniqueID>  (87) 
74

>  <SMILES>  (87) 
CCC(=O)NC(=O)/N=c1/[n-]c2cc(C(=O)/N=c3/[n-]ccs3)ccc2[nH]1

>  <Energy>  (87) 
115.85151800329048

>  <Genealogy>  (87) 
CCC(=O)NC(=O)N=c1[n-]c2cc(C(=O)N=c3[n-]ccs3)ccc2[nH]1 (protonated)
CCC(=O)NC(=O)/N=c1/[n-]c2cc(C(=O)/N=c3/[n-]ccs3)ccc2[nH]1 (cis-trans isomerization)
CCC(=O)NC(=O)/N=c1/[n-]c2cc(C(=O)/N=c3/[n-]ccs3)ccc2[nH]1 (3D coordinates assigned)
CCC(=O)NC(=O)/N=c1/[n-]c2cc(C(=O)/N=c3/[n-]ccs3)ccc2[nH]1 (optimized conformer: 115.85151800329048 kcal/mol)

>  <smiles>  (87) 
CCC(=O)NC(=O)N=c1[nH]c2ccc(C(=O)N=c3[nH]ccs3)cc2[nH]1

>  <score_type>  (87) 
oracle

>  <origin>  (87) 
adg

>  <m_score__min__energy>  (87) 
-10.9

>  <m_primary>  (87) 
energy

$$$$
87:0
     RDKit          3D

 54 56  0  0  0  0  0  0  0  0999 V2000
   60.0910   34.2640   49.2510 C   0  0  0  0  0  0  0  0  0  0  0  0
   59.3830   34.9180   48.2020 O   0  0  0  0  0  0  0  0  0  0  0  0
   58.9590   34.2880   47.0210 C   0  0  0  0  0  0  0  0  0  0  0  0
   57.8990   33.3770   47.0940 C   0  0  0  0  0  0  0  0  0  0  0  0
   57.4290   32.7370   45.9440 C   0  0  0  0  0  0  0  0  0  0  0  0
   58.0210   32.9960   44.6980 C   0  0  0  0  0  0  0  0  0  0  0  0
   57.4740   32.3510   43.4490 C   0  0  0  0  0  0  0  0  0  0  0  0
   57.7090   30.8360   43.4370 C   0  0  0  0  0  0  0  0  0  0  0  0
   56.5760   30.0940   44.0780 C   0  0  0  0  0  0  0  0  0  0  0  0
   55.4930   29.9470   43.4490 O   0  0  0  0  0  0  0  0  0  0  0  0
   56.7080   29.6510   45.4340 N   0  0  0  0  0  0  0  0  0  0  0  0
   57.4450   28.5110   45.9050 C   0  0  0  0  0  0  0  0  0  0  0  0
   56.9040   27.2150   45.8380 C   0  0  0  0  0  0  0  0  0  0  0  0
   57.6390   26.1090   46.2880 C   0  0  0  0  0  0  0  0  0  0  0  0
   56.9440   24.4870   46.2000 S   0  0  0  0  0  0  0  0  0  0  0  0
   57.4930   23.6510   47.3230 O   0  0  0  0  0  0  0  0  0  0  0  0
   55.4540   24.5790   46.3750 O   0  0  0  0  0  0  0  0  0  0  0  0
   57.3020   23.7100   44.6740 N   0  0  0  0  0  0  0  0  0  0  0  0
   57.7250   22.3030   44.8610 C   0  0  0  0  0  0  0  0  0  0  0  0
   56.6310   21.3070   44.4330 C   0  0  0  0  0  0  0  0  0  0  0  0
   56.2460   21.4570   43.0720 O   0  0  0  0  0  0  0  0  0  0  0  0
   56.2550   22.8080   42.6200 C   0  0  0  0  0  0  0  0  0  0  0  0
   56.1640   23.8520   43.7450 C   0  0  0  0  0  0  0  0  0  0  0  0
   58.9210   26.3020   46.8120 C   0  0  0  0  0  0  0  0  0  0  0  0
   59.4770   27.5810   46.8630 C   0  0  0  0  0  0  0  0  0  0  0  0
   58.7590   28.6900   46.3880 C   0  0  0  0  0  0  0  0  0  0  0  0
   59.3690   30.0600   46.4960 C   0  0  0  0  0  0  0  0  0  0  0  0
   59.0820   33.9100   44.6190 C   0  0  0  0  0  0  0  0  0  0  0  0
   59.5550   34.5470   45.7700 C   0  0  0  0  0  0  0  0  0  0  0  0
   59.7123   34.6139   50.2227 H   0  0  0  0  0  0  0  0  0  0  0  0
   59.9443   33.1768   49.1702 H   0  0  0  0  0  0  0  0  0  0  0  0
   61.1631   34.4963   49.1702 H   0  0  0  0  0  0  0  0  0  0  0  0
   57.4312   33.1626   48.0662 H   0  0  0  0  0  0  0  0  0  0  0  0
   56.5916   32.0273   46.0156 H   0  0  0  0  0  0  0  0  0  0  0  0
   56.3923   32.5434   43.3941 H   0  0  0  0  0  0  0  0  0  0  0  0
   57.9986   32.7838   42.5845 H   0  0  0  0  0  0  0  0  0  0  0  0
   57.8111   30.4994   42.3948 H   0  0  0  0  0  0  0  0  0  0  0  0
   58.6240   30.6265   44.0105 H   0  0  0  0  0  0  0  0  0  0  0  0
   55.8939   27.0672   45.4284 H   0  0  0  0  0  0  0  0  0  0  0  0
   58.6264   22.1205   44.2576 H   0  0  0  0  0  0  0  0  0  0  0  0
   57.9233   22.1485   45.9319 H   0  0  0  0  0  0  0  0  0  0  0  0
   57.0104   20.2849   44.5796 H   0  0  0  0  0  0  0  0  0  0  0  0
   55.7431   21.5073   45.0506 H   0  0  0  0  0  0  0  0  0  0  0  0
   57.1894   22.9796   42.0655 H   0  0  0  0  0  0  0  0  0  0  0  0
   55.3581   22.9376   41.9965 H   0  0  0  0  0  0  0  0  0  0  0  0
   56.1789   24.8603   43.3055 H   0  0  0  0  0  0  0  0  0  0  0  0
   55.2282   23.6952   44.3015 H   0  0  0  0  0  0  0  0  0  0  0  0
   59.4944   25.4410   47.1861 H   0  0  0  0  0  0  0  0  0  0  0  0
   60.4857   27.7213   47.2786 H   0  0  0  0  0  0  0  0  0  0  0  0
   59.4875   30.3260   47.5567 H   0  0  0  0  0  0  0  0  0  0  0  0
   60.3534   30.0628   46.0051 H   0  0  0  0  0  0  0  0  0  0  0  0
   58.7124   30.7935   46.0051 H   0  0  0  0  0  0  0  0  0  0  0  0
   59.5449   34.1270   43.6450 H   0  0  0  0  0  0  0  0  0  0  0  0
   60.3955   35.2531   45.6992 H   0  0  0  0  0  0  0  0  0  0  0  0
  1  2  1  0
  2  3  1  0
  3  4  2  0
  4  5  1  0
  5  6  2  0
  6  7  1  0
  7  8  1  0
  8  9  1  0
  9 10  2  0
  9 11  1  0
 11 12  1  0
 12 13  2  0
 13 14  1  0
 14 15  1  0
 15 16  2  0
 15 17  2  0
 15 18  1  0
 18 19  1  0
 19 20  1  0
 20 21  1  0
 21 22  1  0
 22 23  1  0
 14 24  2  0
 24 25  1  0
 25 26  2  0
 26 27  1  0
  6 28  1  0
 28 29  2  0
 29  3  1  0
 26 12  1  0
 23 18  1  0
  1 30  1  0
  1 31  1  0
  1 32  1  0
  4 33  1  0
  5 34  1  0
  7 35  1  0
  7 36  1  0
  8 37  1  0
  8 38  1  0
 13 39  1  0
 19 40  1  0
 19 41  1  0
 20 42  1  0
 20 43  1  0
 22 44  1  0
 22 45  1  0
 23 46  1  0
 23 47  1  0
 24 48  1  0
 25 49  1  0
 27 50  1  0
 27 51  1  0
 27 52  1  0
 28 53  1  0
 29 54  1  0
M  CHG  1  11  -1
M  END
>  <UniqueID>  (88) 
75

>  <SMILES>  (88) 
COc1ccc(CCC(=O)[N-]c2cc(S(=O)(=O)N3CCOCC3)ccc2C)cc1

>  <Energy>  (88) 
63.301089958553796

>  <Genealogy>  (88) 
COc1ccc(CCC(=O)[N-]c2cc(S(=O)(=O)N3CCOCC3)ccc2C)cc1 (protonated)
COc1ccc(CCC(=O)[N-]c2cc(S(=O)(=O)N3CCOCC3)ccc2C)cc1 (3D coordinates assigned)
COc1ccc(CCC(=O)[N-]c2cc(S(=O)(=O)N3CCOCC3)ccc2C)cc1 (nonaromatic ring conformer: 63.301089958553796 kcal/mol)

>  <smiles>  (88) 
COc1ccc(CCC(=O)Nc2cc(S(=O)(=O)N3CCOCC3)ccc2C)cc1

>  <score_type>  (88) 
oracle

>  <origin>  (88) 
adg

>  <m_score__min__energy>  (88) 
-11.49

>  <m_primary>  (88) 
energy

$$$$
88:0
     RDKit          3D

 48 50  0  0  0  0  0  0  0  0999 V2000
   57.1880   24.8690   45.9960 C   0  0  0  0  0  0  0  0  0  0  0  0
   56.8890   26.3590   46.0720 C   0  0  0  0  0  0  0  0  0  0  0  0
   57.9950   27.1410   45.4920 N   0  0  0  0  0  0  0  0  0  0  0  0
   57.7620   27.8890   44.2410 C   0  0  0  0  0  0  0  0  0  0  0  0
   57.2200   29.2590   44.5270 C   0  0  0  0  0  0  0  0  0  0  0  0
   56.1780   29.3830   45.2290 O   0  0  0  0  0  0  0  0  0  0  0  0
   57.8620   30.4130   43.9760 N   0  0  0  0  0  0  0  0  0  0  0  0
   57.9330   31.6960   44.6320 C   0  0  0  0  0  0  0  0  0  0  0  0
   57.7600   31.8080   46.0250 C   0  0  0  0  0  0  0  0  0  0  0  0
   57.9160   33.0390   46.6610 C   0  0  0  0  0  0  0  0  0  0  0  0
   58.2430   34.1730   45.9230 C   0  0  0  0  0  0  0  0  0  0  0  0
   58.4260   34.0790   44.5420 C   0  0  0  0  0  0  0  0  0  0  0  0
   58.2880   32.8400   43.8860 C   0  0  0  0  0  0  0  0  0  0  0  0
   58.5110   32.7070   42.5030 O   0  0  0  0  0  0  0  0  0  0  0  0
   57.5200   32.3140   41.5610 C   0  0  0  0  0  0  0  0  0  0  0  0
   59.2360   27.2690   46.2270 C   0  0  0  0  0  0  0  0  0  0  0  0
   59.9100   26.2360   46.5040 O   0  0  0  0  0  0  0  0  0  0  0  0
   59.7440   28.5800   46.6870 C   0  0  0  0  0  0  0  0  0  0  0  0
   59.2940   29.1070   47.9030 C   0  0  0  0  0  0  0  0  0  0  0  0
   59.7110   30.3770   48.3030 C   0  0  0  0  0  0  0  0  0  0  0  0
   59.2300   30.9680   49.4800 C   0  0  0  0  0  0  0  0  0  0  0  0
   59.6540   32.2500   49.8370 C   0  0  0  0  0  0  0  0  0  0  0  0
   60.5590   32.9430   49.0260 C   0  0  0  0  0  0  0  0  0  0  0  0
   61.0440   32.3580   47.8510 C   0  0  0  0  0  0  0  0  0  0  0  0
   60.6180   31.0780   47.4820 C   0  0  0  0  0  0  0  0  0  0  0  0
   61.0690   30.5250   46.3600 O   0  0  0  0  0  0  0  0  0  0  0  0
   60.6820   29.3220   45.9440 C   0  0  0  0  0  0  0  0  0  0  0  0
   61.1750   28.8520   44.8860 O   0  0  0  0  0  0  0  0  0  0  0  0
   57.2702   24.4592   47.0135 H   0  0  0  0  0  0  0  0  0  0  0  0
   56.3744   24.3586   45.4598 H   0  0  0  0  0  0  0  0  0  0  0  0
   58.1355   24.7120   45.4598 H   0  0  0  0  0  0  0  0  0  0  0  0
   55.9650   26.5711   45.5140 H   0  0  0  0  0  0  0  0  0  0  0  0
   56.7700   26.6430   47.1280 H   0  0  0  0  0  0  0  0  0  0  0  0
   58.7130   27.9847   43.6966 H   0  0  0  0  0  0  0  0  0  0  0  0
   57.0255   27.3398   43.6361 H   0  0  0  0  0  0  0  0  0  0  0  0
   58.3480   30.2910   43.0570 H   0  0  0  0  0  0  0  0  0  0  0  0
   57.4998   30.9175   46.6160 H   0  0  0  0  0  0  0  0  0  0  0  0
   57.7802   33.1143   47.7500 H   0  0  0  0  0  0  0  0  0  0  0  0
   58.3573   35.1435   46.4280 H   0  0  0  0  0  0  0  0  0  0  0  0
   58.6797   34.9787   43.9622 H   0  0  0  0  0  0  0  0  0  0  0  0
   56.6262   31.9596   42.0954 H   0  0  0  0  0  0  0  0  0  0  0  0
   57.2527   33.1742   40.9296 H   0  0  0  0  0  0  0  0  0  0  0  0
   57.9148   31.5044   40.9296 H   0  0  0  0  0  0  0  0  0  0  0  0
   58.6145   28.5225   48.5406 H   0  0  0  0  0  0  0  0  0  0  0  0
   58.5206   30.4234   50.1205 H   0  0  0  0  0  0  0  0  0  0  0  0
   59.2752   32.7161   50.7586 H   0  0  0  0  0  0  0  0  0  0  0  0
   60.8907   33.9518   49.3131 H   0  0  0  0  0  0  0  0  0  0  0  0
   61.7593   32.9041   47.2184 H   0  0  0  0  0  0  0  0  0  0  0  0
  1  2  1  0
  2  3  1  0
  3  4  1  0
  4  5  1  0
  5  6  2  0
  5  7  1  0
  7  8  1  0
  8  9  2  0
  9 10  1  0
 10 11  2  0
 11 12  1  0
 12 13  2  0
 13 14  1  0
 14 15  1  0
  3 16  1  0
 16 17  2  0
 16 18  1  0
 18 19  2  0
 19 20  1  0
 20 21  2  0
 21 22  1  0
 22 23  2  0
 23 24  1  0
 24 25  2  0
 25 26  1  0
 26 27  1  0
 27 28  2  0
 13  8  1  0
 27 18  1  0
 25 20  1  0
  1 29  1  0
  1 30  1  0
  1 31  1  0
  2 32  1  0
  2 33  1  0
  4 34  1  0
  4 35  1  0
  7 36  1  0
  9 37  1  0
 10 38  1  0
 11 39  1  0
 12 40  1  0
 15 41  1  0
 15 42  1  0
 15 43  1  0
 19 44  1  0
 21 45  1  0
 22 46  1  0
 23 47  1  0
 24 48  1  0
M  END
>  <UniqueID>  (89) 
76

>  <SMILES>  (89) 
CCN(CC(=O)Nc1ccccc1OC)C(=O)c1cc2ccccc2oc1=O

>  <Energy>  (89) 
54.60713607927441

>  <Genealogy>  (89) 
CCN(CC(=O)Nc1ccccc1OC)C(=O)c1cc2ccccc2oc1=O (3D coordinates assigned)
CCN(CC(=O)Nc1ccccc1OC)C(=O)c1cc2ccccc2oc1=O (optimized conformer: 54.60713607927441 kcal/mol)

>  <smiles>  (89) 
CCN(CC(=O)Nc1ccccc1OC)C(=O)c1cc2ccccc2oc1=O

>  <score_type>  (89) 
oracle

>  <origin>  (89) 
adg

>  <m_score__min__energy>  (89) 
-9.0999999999999996

>  <m_primary>  (89) 
energy

$$$$
89:0
     RDKit          3D

 40 42  0  0  0  0  0  0  0  0999 V2000
   55.3880   29.4960   44.8790 N   0  0  0  0  0  0  0  0  0  0  0  0
   56.7380   29.9930   43.9220 S   0  0  0  0  0  0  0  0  0  0  0  0
   56.2460   30.8580   42.7940 O   0  0  0  0  0  0  0  0  0  0  0  0
   57.4090   28.7840   43.3320 O   0  0  0  0  0  0  0  0  0  0  0  0
   57.8830   30.9020   44.9220 C   0  0  0  0  0  0  0  0  0  0  0  0
   57.9500   32.2960   44.7710 C   0  0  0  0  0  0  0  0  0  0  0  0
   58.8690   33.0470   45.5060 C   0  0  0  0  0  0  0  0  0  0  0  0
   59.7330   32.4160   46.4000 C   0  0  0  0  0  0  0  0  0  0  0  0
   59.6720   31.0330   46.5720 C   0  0  0  0  0  0  0  0  0  0  0  0
   58.7440   30.2640   45.8490 C   0  0  0  0  0  0  0  0  0  0  0  0
   58.7010   28.8090   46.0910 C   0  0  0  0  0  0  0  0  0  0  0  0
   59.6180   27.9620   45.4500 C   0  0  0  0  0  0  0  0  0  0  0  0
   59.5850   26.5840   45.6820 C   0  0  0  0  0  0  0  0  0  0  0  0
   58.6390   26.0350   46.5680 C   0  0  0  0  0  0  0  0  0  0  0  0
   58.5740   24.6300   46.8420 N   0  0  0  0  0  0  0  0  0  0  0  0
   57.1360   23.6630   46.7720 S   0  0  0  0  0  0  0  0  0  0  0  0
   55.9600   24.5150   47.1640 O   0  0  0  0  0  0  0  0  0  0  0  0
   57.2650   22.5270   47.7470 O   0  0  0  0  0  0  0  0  0  0  0  0
   56.9120   23.0020   45.1520 C   0  0  0  0  0  0  0  0  0  0  0  0
   57.7440   21.9660   44.6980 C   0  0  0  0  0  0  0  0  0  0  0  0
   57.5770   21.4410   43.4140 C   0  0  0  0  0  0  0  0  0  0  0  0
   56.5750   21.9390   42.5780 C   0  0  0  0  0  0  0  0  0  0  0  0
   55.7360   22.9630   43.0270 C   0  0  0  0  0  0  0  0  0  0  0  0
   55.8990   23.4930   44.3110 C   0  0  0  0  0  0  0  0  0  0  0  0
   55.0660   24.4780   44.7320 F   0  0  0  0  0  0  0  0  0  0  0  0
   57.7360   26.8870   47.2150 C   0  0  0  0  0  0  0  0  0  0  0  0
   57.7680   28.2640   46.9840 C   0  0  0  0  0  0  0  0  0  0  0  0
   55.1570   28.5170   44.5950 H   0  0  0  0  0  0  0  0  0  0  0  0
   57.2722   32.8012   44.0671 H   0  0  0  0  0  0  0  0  0  0  0  0
   58.9116   34.1389   45.3796 H   0  0  0  0  0  0  0  0  0  0  0  0
   60.4632   33.0091   46.9701 H   0  0  0  0  0  0  0  0  0  0  0  0
   60.3556   30.5404   47.2791 H   0  0  0  0  0  0  0  0  0  0  0  0
   60.3656   28.3841   44.7623 H   0  0  0  0  0  0  0  0  0  0  0  0
   60.3018   25.9254   45.1697 H   0  0  0  0  0  0  0  0  0  0  0  0
   58.5300   21.5663   45.3556 H   0  0  0  0  0  0  0  0  0  0  0  0
   58.2358   20.6340   43.0609 H   0  0  0  0  0  0  0  0  0  0  0  0
   56.4462   21.5256   41.5668 H   0  0  0  0  0  0  0  0  0  0  0  0
   54.9456   23.3529   42.3688 H   0  0  0  0  0  0  0  0  0  0  0  0
   56.9947   26.4682   47.9115 H   0  0  0  0  0  0  0  0  0  0  0  0
   57.0583   28.9235   47.5049 H   0  0  0  0  0  0  0  0  0  0  0  0
  1  2  1  0
  2  3  2  0
  2  4  2  0
  2  5  1  0
  5  6  2  0
  6  7  1  0
  7  8  2  0
  8  9  1  0
  9 10  2  0
 10 11  1  0
 11 12  2  0
 12 13  1  0
 13 14  2  0
 14 15  1  0
 15 16  1  0
 16 17  2  0
 16 18  2  0
 16 19  1  0
 19 20  2  0
 20 21  1  0
 21 22  2  0
 22 23  1  0
 23 24  2  0
 24 25  1  0
 14 26  1  0
 26 27  2  0
 10  5  1  0
 27 11  1  0
 24 19  1  0
  1 28  1  0
  6 29  1  0
  7 30  1  0
  8 31  1  0
  9 32  1  0
 12 33  1  0
 13 34  1  0
 20 35  1  0
 21 36  1  0
 22 37  1  0
 23 38  1  0
 26 39  1  0
 27 40  1  0
M  CHG  2   1  -1  15  -1
M  END
>  <UniqueID>  (90) 
77

>  <SMILES>  (90) 
[NH-]S(=O)(=O)c1ccccc1-c1ccc([N-]S(=O)(=O)c2ccccc2F)cc1

>  <Energy>  (90) 
54.724566442776336

>  <Genealogy>  (90) 
[NH-]S(=O)(=O)c1ccccc1-c1ccc([N-]S(=O)(=O)c2ccccc2F)cc1 (protonated)
[NH-]S(=O)(=O)c1ccccc1-c1ccc([N-]S(=O)(=O)c2ccccc2F)cc1 (3D coordinates assigned)
[NH-]S(=O)(=O)c1ccccc1-c1ccc([N-]S(=O)(=O)c2ccccc2F)cc1 (optimized conformer: 54.724566442776336 kcal/mol)

>  <smiles>  (90) 
NS(=O)(=O)c1ccccc1-c1ccc(NS(=O)(=O)c2ccccc2F)cc1

>  <score_type>  (90) 
oracle

>  <origin>  (90) 
adg

>  <m_score__min__energy>  (90) 
-12.949999999999999

>  <m_primary>  (90) 
energy

$$$$
90:0
     RDKit          3D

 21 21  0  0  0  0  0  0  0  0999 V2000
   57.5170   32.5680   45.5160 C   0  0  0  0  0  0  0  0  0  0  0  0
   57.1940   31.2970   44.8710 N   0  0  0  0  0  0  0  0  0  0  0  0
   58.3780   30.0990   45.2990 S   0  0  0  0  0  0  0  0  0  0  0  0
   59.3230   29.9090   44.1450 O   0  0  0  0  0  0  0  0  0  0  0  0
   59.1860   30.5930   46.4660 O   0  0  0  0  0  0  0  0  0  0  0  0
   57.5910   28.5520   45.7040 C   0  0  0  0  0  0  0  0  0  0  0  0
   58.2740   27.5120   46.3810 C   0  0  0  0  0  0  0  0  0  0  0  0
   59.6970   27.6390   46.8370 C   0  0  0  0  0  0  0  0  0  0  0  0
   57.6180   26.3550   46.6650 N   0  0  0  0  0  0  0  0  0  0  0  0
   56.3280   26.1600   46.2980 C   0  0  0  0  0  0  0  0  0  0  0  0
   55.7520   25.0770   46.5750 O   0  0  0  0  0  0  0  0  0  0  0  0
   55.6600   27.1310   45.6300 N   0  0  0  0  0  0  0  0  0  0  0  0
   56.2550   28.3110   45.3230 C   0  0  0  0  0  0  0  0  0  0  0  0
   55.5970   29.1790   44.6900 O   0  0  0  0  0  0  0  0  0  0  0  0
   57.4853   32.4433   46.6084 H   0  0  0  0  0  0  0  0  0  0  0  0
   58.5249   32.8875   45.2125 H   0  0  0  0  0  0  0  0  0  0  0  0
   56.7839   33.3299   45.2125 H   0  0  0  0  0  0  0  0  0  0  0  0
   56.2720   30.9770   45.2440 H   0  0  0  0  0  0  0  0  0  0  0  0
   59.7308   27.6420   47.9365 H   0  0  0  0  0  0  0  0  0  0  0  0
   60.2818   26.7895   46.4545 H   0  0  0  0  0  0  0  0  0  0  0  0
   60.1221   28.5787   46.4545 H   0  0  0  0  0  0  0  0  0  0  0  0
  1  2  1  0
  2  3  1  0
  3  4  2  0
  3  5  2  0
  3  6  1  0
  6  7  2  0
  7  8  1  0
  7  9  1  0
  9 10  1  0
 10 11  2  0
 10 12  1  0
 12 13  1  0
 13 14  2  0
 13  6  1  0
  1 15  1  0
  1 16  1  0
  1 17  1  0
  2 18  1  0
  8 19  1  0
  8 20  1  0
  8 21  1  0
M  CHG  2   9  -1  12  -1
M  END
>  <UniqueID>  (91) 
78

>  <SMILES>  (91) 
CNS(=O)(=O)c1c(C)[n-]c(=O)[n-]c1=O

>  <Energy>  (91) 
20.443705324309445

>  <Genealogy>  (91) 
CNS(=O)(=O)c1c(C)[n-]c(=O)[n-]c1=O (protonated)
CNS(=O)(=O)c1c(C)[n-]c(=O)[n-]c1=O (3D coordinates assigned)
CNS(=O)(=O)c1c(C)[n-]c(=O)[n-]c1=O (optimized conformer: 20.443705324309445 kcal/mol)

>  <smiles>  (91) 
CNS(=O)(=O)c1c(C)[nH]c(=O)[nH]c1=O

>  <score_type>  (91) 
oracle

>  <origin>  (91) 
adg

>  <m_score__min__energy>  (91) 
-9.4100000000000001

>  <m_primary>  (91) 
energy

$$$$
91:0
     RDKit          3D

 48 50  0  0  0  0  0  0  0  0999 V2000
   59.8743   22.2883   45.4596 H   0  0  0  0  0  0  0  0  0  0  0  0
   58.9140   22.4940   44.9640 C   0  0  0  0  0  0  0  0  0  0  0  0
   58.2250   23.6510   45.1610 N   0  0  0  0  0  0  0  0  0  0  0  0
   57.0790   23.6740   44.4500 C   0  0  0  0  0  0  0  0  0  0  0  0
   56.2630   24.6820   44.4840 N   0  0  0  0  0  0  0  0  0  0  0  0
   56.2120   25.8470   45.7680 S   0  0  0  0  0  0  0  0  0  0  0  0
   56.7390   25.2140   47.0280 O   0  0  0  0  0  0  0  0  0  0  0  0
   54.7990   26.3120   45.9830 O   0  0  0  0  0  0  0  0  0  0  0  0
   57.2100   27.2360   45.3510 C   0  0  0  0  0  0  0  0  0  0  0  0
   58.5470   27.0650   44.9680 C   0  0  0  0  0  0  0  0  0  0  0  0
   58.9926   26.0593   44.9624 H   0  0  0  0  0  0  0  0  0  0  0  0
   59.3150   28.1710   44.5930 C   0  0  0  0  0  0  0  0  0  0  0  0
   60.3710   28.0367   44.3159 H   0  0  0  0  0  0  0  0  0  0  0  0
   58.7450   29.4480   44.5690 C   0  0  0  0  0  0  0  0  0  0  0  0
   59.3557   30.3148   44.2761 H   0  0  0  0  0  0  0  0  0  0  0  0
   57.4010   29.6280   44.9160 C   0  0  0  0  0  0  0  0  0  0  0  0
   56.8270   30.9420   44.8400 N   0  0  0  0  0  0  0  0  0  0  0  0
   57.5600   32.1610   44.6410 C   0  0  0  0  0  0  0  0  0  0  0  0
   57.4540   32.7670   43.5410 O   0  0  0  0  0  0  0  0  0  0  0  0
   58.4240   32.7240   45.6990 C   0  0  0  0  0  0  0  0  0  0  0  0
   58.3500   32.2240   47.0070 C   0  0  0  0  0  0  0  0  0  0  0  0
   57.7480   31.3279   47.2184 H   0  0  0  0  0  0  0  0  0  0  0  0
   59.0390   32.8610   48.0430 C   0  0  0  0  0  0  0  0  0  0  0  0
   58.9621   32.4744   49.0700 H   0  0  0  0  0  0  0  0  0  0  0  0
   59.8310   33.9950   47.7790 C   0  0  0  0  0  0  0  0  0  0  0  0
   60.4910   34.7090   48.7900 O   0  0  0  0  0  0  0  0  0  0  0  0
   61.7830   34.3910   49.3060 C   0  0  0  0  0  0  0  0  0  0  0  0
   61.7052   34.2005   50.3866 H   0  0  0  0  0  0  0  0  0  0  0  0
   62.4604   35.2375   49.1199 H   0  0  0  0  0  0  0  0  0  0  0  0
   62.3420   33.1440   48.6120 C   0  0  0  0  0  0  0  0  0  0  0  0
   61.5929   32.7627   47.9025 H   0  0  0  0  0  0  0  0  0  0  0  0
   62.5685   32.3909   49.3811 H   0  0  0  0  0  0  0  0  0  0  0  0
   63.6340   33.4620   47.8510 C   0  0  0  0  0  0  0  0  0  0  0  0
   64.2840   32.5746   47.8595 H   0  0  0  0  0  0  0  0  0  0  0  0
   64.1317   34.3095   48.3450 H   0  0  0  0  0  0  0  0  0  0  0  0
   63.3370   33.8490   46.4050 C   0  0  0  0  0  0  0  0  0  0  0  0
   62.6674   34.7215   46.3891 H   0  0  0  0  0  0  0  0  0  0  0  0
   64.2773   34.0990   45.8918 H   0  0  0  0  0  0  0  0  0  0  0  0
   62.8523   33.0054   45.8918 H   0  0  0  0  0  0  0  0  0  0  0  0
   59.9610   34.4430   46.4600 C   0  0  0  0  0  0  0  0  0  0  0  0
   60.6240   35.2913   46.2345 H   0  0  0  0  0  0  0  0  0  0  0  0
   59.2550   33.8210   45.4270 C   0  0  0  0  0  0  0  0  0  0  0  0
   59.3512   34.1930   44.3963 H   0  0  0  0  0  0  0  0  0  0  0  0
   56.6490   28.5190   45.3460 C   0  0  0  0  0  0  0  0  0  0  0  0
   55.6110   28.6613   45.6812 H   0  0  0  0  0  0  0  0  0  0  0  0
   56.8740   22.2630   43.5470 S   0  0  0  0  0  0  0  0  0  0  0  0
   58.3170   21.5900   44.0910 C   0  0  0  0  0  0  0  0  0  0  0  0
   58.7185   20.6064   43.8060 H   0  0  0  0  0  0  0  0  0  0  0  0
  1  2  1  0
  2  3  1  0
  3  4  1  0
  4  5  2  0
  5  6  1  0
  6  7  2  0
  6  8  2  0
  6  9  1  0
  9 10  2  0
 10 11  1  0
 10 12  1  0
 12 13  1  0
 12 14  2  0
 14 15  1  0
 14 16  1  0
 16 17  1  0
 17 18  1  0
 18 19  2  0
 18 20  1  0
 20 21  2  0
 21 22  1  0
 21 23  1  0
 23 24  1  0
 23 25  2  0
 25 26  1  0
 26 27  1  0
 27 28  1  0
 27 29  1  0
 27 30  1  0
 30 31  1  0
 30 32  1  0
 30 33  1  0
 33 34  1  0
 33 35  1  0
 33 36  1  0
 36 37  1  0
 36 38  1  0
 36 39  1  0
 25 40  1  0
 40 41  1  0
 40 42  2  0
 42 43  1  0
 16 44  2  0
 44 45  1  0
  4 46  1  0
 46 47  1  0
 47 48  1  0
 47  2  2  0
 44  9  1  0
 42 20  1  0
M  CHG  2   3  -1  17  -1
M  END
>  <UniqueID>  (92) 
79

>  <SMILES>  (92) 
CCCCOc1ccc(C(=O)[N-]c2cccc(S(=O)(=O)/N=c3/[n-]ccs3)c2)cc1

>  <Energy>  (92) 
83.92973202248122

>  <Genealogy>  (92) 
CCCCOc1ccc(C(=O)[N-]c2cccc(S(=O)(=O)N=c3[n-]ccs3)c2)cc1 (protonated)
CCCCOc1ccc(C(=O)[N-]c2cccc(S(=O)(=O)/N=c3/[n-]ccs3)c2)cc1 (cis-trans isomerization)
CCCCOc1ccc(C(=O)[N-]c2cccc(S(=O)(=O)/N=c3/[n-]ccs3)c2)cc1 (3D coordinates assigned)
CCCCOc1ccc(C(=O)[N-]c2cccc(S(=O)(=O)/N=c3/[n-]ccs3)c2)cc1 (optimized conformer: 83.92973202248122 kcal/mol)

>  <smiles>  (92) 
CCCCOc1ccc(C(=O)Nc2cccc(S(=O)(=O)N=c3[nH]ccs3)c2)cc1

>  <score_type>  (92) 
oracle

>  <origin>  (92) 
adg

>  <m_score__min__energy>  (92) 
-11.76

>  <m_primary>  (92) 
energy

$$$$
92:0
     RDKit          3D

 48 51  0  0  0  0  0  0  0  0999 V2000
   57.4690   31.6600   42.3340 C   0  0  0  0  0  0  0  0  0  0  0  0
   57.0520   31.6090   43.7390 N   0  0  0  0  0  0  0  0  0  0  0  0
   55.8940   30.7900   44.1230 C   0  0  0  0  0  0  0  0  0  0  0  0
   56.2320   29.3390   44.0130 C   0  0  0  0  0  0  0  0  0  0  0  0
   56.6800   28.8840   42.9260 O   0  0  0  0  0  0  0  0  0  0  0  0
   56.1290   28.5050   45.1740 N   0  0  0  0  0  0  0  0  0  0  0  0
   57.2040   28.0370   46.0030 C   0  0  0  0  0  0  0  0  0  0  0  0
   58.3870   28.7810   46.1760 C   0  0  0  0  0  0  0  0  0  0  0  0
   59.4330   28.2720   46.9480 C   0  0  0  0  0  0  0  0  0  0  0  0
   59.3220   27.0140   47.5390 C   0  0  0  0  0  0  0  0  0  0  0  0
   58.1610   26.2600   47.3610 C   0  0  0  0  0  0  0  0  0  0  0  0
   57.0910   26.7690   46.5990 C   0  0  0  0  0  0  0  0  0  0  0  0
   55.9270   26.0170   46.3700 O   0  0  0  0  0  0  0  0  0  0  0  0
   55.7750   25.0200   45.3950 C   0  0  0  0  0  0  0  0  0  0  0  0
   56.8540   24.7410   44.5440 C   0  0  0  0  0  0  0  0  0  0  0  0
   56.7400   23.7590   43.5550 C   0  0  0  0  0  0  0  0  0  0  0  0
   55.5420   23.0570   43.4000 C   0  0  0  0  0  0  0  0  0  0  0  0
   54.4520   23.3450   44.2280 C   0  0  0  0  0  0  0  0  0  0  0  0
   54.5620   24.3290   45.2180 C   0  0  0  0  0  0  0  0  0  0  0  0
   57.7290   32.4290   44.7140 C   0  0  0  0  0  0  0  0  0  0  0  0
   58.2270   33.6460   44.3590 N   0  0  0  0  0  0  0  0  0  0  0  0
   58.8740   34.4400   45.2520 C   0  0  0  0  0  0  0  0  0  0  0  0
   59.3170   35.5580   44.8780 O   0  0  0  0  0  0  0  0  0  0  0  0
   59.0400   34.0050   46.5770 C   0  0  0  0  0  0  0  0  0  0  0  0
   59.7040   34.7750   47.5500 C   0  0  0  0  0  0  0  0  0  0  0  0
   59.8410   34.2880   48.8550 C   0  0  0  0  0  0  0  0  0  0  0  0
   59.3150   33.0390   49.1970 C   0  0  0  0  0  0  0  0  0  0  0  0
   58.6520   32.2680   48.2370 C   0  0  0  0  0  0  0  0  0  0  0  0
   58.5150   32.7440   46.9280 C   0  0  0  0  0  0  0  0  0  0  0  0
   57.8760   31.9940   45.9950 N   0  0  0  0  0  0  0  0  0  0  0  0
   58.5595   31.7934   42.2798 H   0  0  0  0  0  0  0  0  0  0  0  0
   57.1892   30.7209   41.8341 H   0  0  0  0  0  0  0  0  0  0  0  0
   56.9711   32.5039   41.8341 H   0  0  0  0  0  0  0  0  0  0  0  0
   55.6137   31.0205   45.1614 H   0  0  0  0  0  0  0  0  0  0  0  0
   55.0541   31.0160   43.4495 H   0  0  0  0  0  0  0  0  0  0  0  0
   58.4874   29.7679   45.7006 H   0  0  0  0  0  0  0  0  0  0  0  0
   60.3481   28.8656   47.0905 H   0  0  0  0  0  0  0  0  0  0  0  0
   60.1491   26.6160   48.1453 H   0  0  0  0  0  0  0  0  0  0  0  0
   58.0810   25.2627   47.8183 H   0  0  0  0  0  0  0  0  0  0  0  0
   57.7960   25.2981   44.6551 H   0  0  0  0  0  0  0  0  0  0  0  0
   57.5946   23.5390   42.8983 H   0  0  0  0  0  0  0  0  0  0  0  0
   55.4560   22.2786   42.6276 H   0  0  0  0  0  0  0  0  0  0  0  0
   53.5065   22.7973   44.1011 H   0  0  0  0  0  0  0  0  0  0  0  0
   53.6987   24.5623   45.8585 H   0  0  0  0  0  0  0  0  0  0  0  0
   60.1155   35.7600   47.2848 H   0  0  0  0  0  0  0  0  0  0  0  0
   60.3638   34.8895   49.6132 H   0  0  0  0  0  0  0  0  0  0  0  0
   59.4229   32.6613   50.2245 H   0  0  0  0  0  0  0  0  0  0  0  0
   58.2378   31.2865   48.5109 H   0  0  0  0  0  0  0  0  0  0  0  0
  1  2  1  0
  2  3  1  0
  3  4  1  0
  4  5  2  0
  4  6  1  0
  6  7  1  0
  7  8  2  0
  8  9  1  0
  9 10  2  0
 10 11  1  0
 11 12  2  0
 12 13  1  0
 13 14  1  0
 14 15  2  0
 15 16  1  0
 16 17  2  0
 17 18  1  0
 18 19  2  0
  2 20  1  0
 20 21  2  0
 21 22  1  0
 22 23  2  0
 22 24  1  0
 24 25  2  0
 25 26  1  0
 26 27  2  0
 27 28  1  0
 28 29  2  0
 29 30  1  0
 12  7  1  0
 19 14  1  0
 30 20  1  0
 29 24  1  0
  1 31  1  0
  1 32  1  0
  1 33  1  0
  3 34  1  0
  3 35  1  0
  8 36  1  0
  9 37  1  0
 10 38  1  0
 11 39  1  0
 15 40  1  0
 16 41  1  0
 17 42  1  0
 18 43  1  0
 19 44  1  0
 25 45  1  0
 26 46  1  0
 27 47  1  0
 28 48  1  0
M  CHG  2   6  -1  30  -1
M  END
>  <UniqueID>  (93) 
80

>  <SMILES>  (93) 
CN(CC(=O)[N-]c1ccccc1Oc1ccccc1)c1nc(=O)c2ccccc2[n-]1

>  <Energy>  (93) 
64.23989676828928

>  <Genealogy>  (93) 
CN(CC(=O)[N-]c1ccccc1Oc1ccccc1)c1nc(=O)c2ccccc2[n-]1 (protonated)
CN(CC(=O)[N-]c1ccccc1Oc1ccccc1)c1nc(=O)c2ccccc2[n-]1 (3D coordinates assigned)
CN(CC(=O)[N-]c1ccccc1Oc1ccccc1)c1nc(=O)c2ccccc2[n-]1 (optimized conformer: 64.23989676828928 kcal/mol)

>  <smiles>  (93) 
CN(CC(=O)Nc1ccccc1Oc1ccccc1)c1nc(=O)c2ccccc2[nH]1

>  <score_type>  (93) 
oracle

>  <origin>  (93) 
adg

>  <m_score__min__energy>  (93) 
-12.27

>  <m_primary>  (93) 
energy

$$$$
93:0
     RDKit          3D

 54 57  0  0  0  0  0  0  0  0999 V2000
   60.7240   30.3750   45.9840 O   0  0  0  0  0  0  0  0  0  0  0  0
   59.7280   29.9270   46.6160 C   0  0  0  0  0  0  0  0  0  0  0  0
   59.8620   28.5910   47.2990 C   0  0  0  0  0  0  0  0  0  0  0  0
   58.6800   27.7300   47.0570 N   0  0  0  0  0  0  0  0  0  0  0  0
   58.1930   27.8140   45.6520 C   0  0  0  0  0  0  0  0  0  0  0  0
   58.5410   26.5760   44.8140 C   0  0  0  0  0  0  0  0  0  0  0  0
   58.0310   25.3650   45.4690 N   0  0  0  0  0  0  0  0  0  0  0  0
   57.6730   24.2000   44.6940 C   0  0  0  0  0  0  0  0  0  0  0  0
   58.3640   22.9840   44.8670 C   0  0  0  0  0  0  0  0  0  0  0  0
   58.0190   21.8580   44.1130 C   0  0  0  0  0  0  0  0  0  0  0  0
   56.9820   21.9300   43.1800 C   0  0  0  0  0  0  0  0  0  0  0  0
   56.2900   23.1290   42.9980 C   0  0  0  0  0  0  0  0  0  0  0  0
   56.6310   24.2580   43.7490 C   0  0  0  0  0  0  0  0  0  0  0  0
   57.9240   25.3480   46.9340 C   0  0  0  0  0  0  0  0  0  0  0  0
   58.9120   26.3490   47.5430 C   0  0  0  0  0  0  0  0  0  0  0  0
   58.4860   30.6550   46.6040 N   0  0  0  0  0  0  0  0  0  0  0  0
   58.3570   31.9660   46.0310 C   0  0  0  0  0  0  0  0  0  0  0  0
   57.8720   32.1230   44.7210 C   0  0  0  0  0  0  0  0  0  0  0  0
   57.7670   33.3950   44.1530 C   0  0  0  0  0  0  0  0  0  0  0  0
   58.1510   34.5220   44.8820 C   0  0  0  0  0  0  0  0  0  0  0  0
   58.6440   34.3780   46.1820 C   0  0  0  0  0  0  0  0  0  0  0  0
   58.7510   33.1070   46.7620 C   0  0  0  0  0  0  0  0  0  0  0  0
   59.3620   32.9760   48.4490 S   0  0  0  0  0  0  0  0  0  0  0  0
   61.0770   32.9250   47.9270 C   0  0  0  0  0  0  0  0  0  0  0  0
   61.5520   33.8430   46.9810 C   0  0  0  0  0  0  0  0  0  0  0  0
   62.8930   33.8140   46.5880 C   0  0  0  0  0  0  0  0  0  0  0  0
   63.7610   32.8620   47.1310 C   0  0  0  0  0  0  0  0  0  0  0  0
   63.2860   31.9360   48.0660 C   0  0  0  0  0  0  0  0  0  0  0  0
   61.9460   31.9660   48.4630 C   0  0  0  0  0  0  0  0  0  0  0  0
   60.7582   28.0823   46.9142 H   0  0  0  0  0  0  0  0  0  0  0  0
   59.9423   28.7663   48.3820 H   0  0  0  0  0  0  0  0  0  0  0  0
   57.0991   27.9287   45.6679 H   0  0  0  0  0  0  0  0  0  0  0  0
   58.6932   28.6750   45.1846 H   0  0  0  0  0  0  0  0  0  0  0  0
   58.0845   26.6707   43.8177 H   0  0  0  0  0  0  0  0  0  0  0  0
   59.6343   26.5010   44.7185 H   0  0  0  0  0  0  0  0  0  0  0  0
   59.1810   22.9201   45.6008 H   0  0  0  0  0  0  0  0  0  0  0  0
   58.5653   20.9138   44.2549 H   0  0  0  0  0  0  0  0  0  0  0  0
   56.7107   21.0428   42.5891 H   0  0  0  0  0  0  0  0  0  0  0  0
   55.4745   23.1855   42.2619 H   0  0  0  0  0  0  0  0  0  0  0  0
   56.0809   25.1989   43.6003 H   0  0  0  0  0  0  0  0  0  0  0  0
   56.9000   25.6221   47.2277 H   0  0  0  0  0  0  0  0  0  0  0  0
   58.1598   24.3385   47.3017 H   0  0  0  0  0  0  0  0  0  0  0  0
   58.8012   26.3351   48.6373 H   0  0  0  0  0  0  0  0  0  0  0  0
   59.9262   26.0499   47.2398 H   0  0  0  0  0  0  0  0  0  0  0  0
   57.6170   30.1860   46.9370 H   0  0  0  0  0  0  0  0  0  0  0  0
   57.5732   31.2385   44.1393 H   0  0  0  0  0  0  0  0  0  0  0  0
   57.3810   33.5088   43.1293 H   0  0  0  0  0  0  0  0  0  0  0  0
   58.0656   35.5228   44.4336 H   0  0  0  0  0  0  0  0  0  0  0  0
   58.9496   35.2673   46.7528 H   0  0  0  0  0  0  0  0  0  0  0  0
   60.8685   34.5876   46.5470 H   0  0  0  0  0  0  0  0  0  0  0  0
   63.2657   34.5406   45.8510 H   0  0  0  0  0  0  0  0  0  0  0  0
   64.8169   32.8410   46.8233 H   0  0  0  0  0  0  0  0  0  0  0  0
   63.9677   31.1835   48.4892 H   0  0  0  0  0  0  0  0  0  0  0  0
   61.5737   31.2360   49.1968 H   0  0  0  0  0  0  0  0  0  0  0  0
  1  2  2  0
  2  3  1  0
  3  4  1  0
  4  5  1  0
  5  6  1  0
  6  7  1  0
  7  8  1  0
  8  9  2  0
  9 10  1  0
 10 11  2  0
 11 12  1  0
 12 13  2  0
  7 14  1  0
 14 15  1  0
  2 16  1  0
 16 17  1  0
 17 18  2  0
 18 19  1  0
 19 20  2  0
 20 21  1  0
 21 22  2  0
 22 23  1  0
 23 24  1  0
 24 25  2  0
 25 26  1  0
 26 27  2  0
 27 28  1  0
 28 29  2  0
 15  4  1  0
 22 17  1  0
 29 24  1  0
 13  8  1  0
  3 30  1  0
  3 31  1  0
  5 32  1  0
  5 33  1  0
  6 34  1  0
  6 35  1  0
  9 36  1  0
 10 37  1  0
 11 38  1  0
 12 39  1  0
 13 40  1  0
 14 41  1  0
 14 42  1  0
 15 43  1  0
 15 44  1  0
 16 45  1  0
 18 46  1  0
 19 47  1  0
 20 48  1  0
 21 49  1  0
 25 50  1  0
 26 51  1  0
 27 52  1  0
 28 53  1  0
 29 54  1  0
M  END
>  <UniqueID>  (94) 
81

>  <SMILES>  (94) 
O=C(CN1CCN(c2ccccc2)CC1)Nc1ccccc1Sc1ccccc1

>  <Energy>  (94) 
68.76384095900379

>  <Genealogy>  (94) 
O=C(CN1CCN(c2ccccc2)CC1)Nc1ccccc1Sc1ccccc1 (3D coordinates assigned)
O=C(CN1CCN(c2ccccc2)CC1)Nc1ccccc1Sc1ccccc1 (nonaromatic ring conformer: 68.76384095900379 kcal/mol)

>  <smiles>  (94) 
O=C(CN1CCN(c2ccccc2)CC1)Nc1ccccc1Sc1ccccc1

>  <score_type>  (94) 
oracle

>  <origin>  (94) 
adg

>  <m_score__min__energy>  (94) 
-8.7100000000000009

>  <m_primary>  (94) 
energy

$$$$
94:0
     RDKit          3D

 55 57  0  0  0  0  0  0  0  0999 V2000
   57.1070   20.3210   45.5570 C   0  0  0  0  0  0  0  0  0  0  0  0
   56.1240   20.0430   44.4210 C   0  0  0  0  0  0  0  0  0  0  0  0
   56.6470   20.5200   43.0580 C   0  0  0  0  0  0  0  0  0  0  0  0
   57.3260   21.8960   43.1350 C   0  0  0  0  0  0  0  0  0  0  0  0
   56.4480   22.8730   43.8690 C   0  0  0  0  0  0  0  0  0  0  0  0
   55.1060   22.8680   43.7260 N   0  0  0  0  0  0  0  0  0  0  0  0
   54.6790   23.8150   44.5800 C   0  0  0  0  0  0  0  0  0  0  0  0
   52.9420   24.1920   44.8250 S   0  0  0  0  0  0  0  0  0  0  0  0
   52.7480   22.9690   46.1570 C   0  0  0  0  0  0  0  0  0  0  0  0
   55.7560   24.3760   45.2440 C   0  0  0  0  0  0  0  0  0  0  0  0
   55.6760   25.4220   46.2890 C   0  0  0  0  0  0  0  0  0  0  0  0
   56.1630   25.2100   47.4310 O   0  0  0  0  0  0  0  0  0  0  0  0
   55.1040   26.6590   46.0250 O   0  0  0  0  0  0  0  0  0  0  0  0
   56.8800   23.7750   44.7870 N   0  0  0  0  0  0  0  0  0  0  0  0
   58.2790   24.0600   45.1430 C   0  0  0  0  0  0  0  0  0  0  0  0
   58.4970   25.5430   45.3030 C   0  0  0  0  0  0  0  0  0  0  0  0
   58.8410   26.0790   46.5550 C   0  0  0  0  0  0  0  0  0  0  0  0
   58.9950   27.4580   46.7140 C   0  0  0  0  0  0  0  0  0  0  0  0
   58.8290   28.3180   45.6200 C   0  0  0  0  0  0  0  0  0  0  0  0
   58.9650   29.7780   45.7910 C   0  0  0  0  0  0  0  0  0  0  0  0
   60.0860   30.2660   46.4810 C   0  0  0  0  0  0  0  0  0  0  0  0
   60.2750   31.6390   46.6460 C   0  0  0  0  0  0  0  0  0  0  0  0
   59.3460   32.5390   46.1240 C   0  0  0  0  0  0  0  0  0  0  0  0
   58.2200   32.0690   45.4450 C   0  0  0  0  0  0  0  0  0  0  0  0
   58.0090   30.6890   45.2780 C   0  0  0  0  0  0  0  0  0  0  0  0
   56.5350   30.1450   44.4580 S   0  0  0  0  0  0  0  0  0  0  0  0
   55.8970   28.7430   45.2440 N   0  0  0  0  0  0  0  0  0  0  0  0
   56.8470   29.8230   43.0240 O   0  0  0  0  0  0  0  0  0  0  0  0
   55.4950   31.2290   44.5000 O   0  0  0  0  0  0  0  0  0  0  0  0
   58.4930   27.7860   44.3670 C   0  0  0  0  0  0  0  0  0  0  0  0
   58.3380   26.4060   44.2070 C   0  0  0  0  0  0  0  0  0  0  0  0
   56.6009   20.1779   46.5231 H   0  0  0  0  0  0  0  0  0  0  0  0
   57.9584   19.6284   45.4829 H   0  0  0  0  0  0  0  0  0  0  0  0
   57.4695   21.3569   45.4829 H   0  0  0  0  0  0  0  0  0  0  0  0
   55.9427   18.9593   44.3692 H   0  0  0  0  0  0  0  0  0  0  0  0
   55.1996   20.5990   44.6365 H   0  0  0  0  0  0  0  0  0  0  0  0
   57.3773   19.7870   42.6846 H   0  0  0  0  0  0  0  0  0  0  0  0
   55.7833   20.6117   42.3830 H   0  0  0  0  0  0  0  0  0  0  0  0
   58.2837   21.7984   43.6672 H   0  0  0  0  0  0  0  0  0  0  0  0
   57.4975   22.2673   42.1138 H   0  0  0  0  0  0  0  0  0  0  0  0
   52.8279   23.4726   47.1317 H   0  0  0  0  0  0  0  0  0  0  0  0
   51.7623   22.4880   46.0725 H   0  0  0  0  0  0  0  0  0  0  0  0
   53.5364   22.2066   46.0725 H   0  0  0  0  0  0  0  0  0  0  0  0
   58.5205   23.5553   46.0901 H   0  0  0  0  0  0  0  0  0  0  0  0
   58.9309   23.6918   44.3371 H   0  0  0  0  0  0  0  0  0  0  0  0
   58.9899   25.4091   47.4147 H   0  0  0  0  0  0  0  0  0  0  0  0
   59.2476   27.8707   47.7019 H   0  0  0  0  0  0  0  0  0  0  0  0
   60.8214   29.5605   46.8950 H   0  0  0  0  0  0  0  0  0  0  0  0
   61.1569   32.0114   47.1879 H   0  0  0  0  0  0  0  0  0  0  0  0
   59.5007   33.6211   46.2475 H   0  0  0  0  0  0  0  0  0  0  0  0
   57.4914   32.7850   45.0370 H   0  0  0  0  0  0  0  0  0  0  0  0
   54.8680   28.8910   45.3470 H   0  0  0  0  0  0  0  0  0  0  0  0
   56.0230   27.9390   44.5880 H   0  0  0  0  0  0  0  0  0  0  0  0
   58.3509   28.4569   43.5069 H   0  0  0  0  0  0  0  0  0  0  0  0
   58.0902   25.9942   43.2176 H   0  0  0  0  0  0  0  0  0  0  0  0
  1  2  1  0
  2  3  1  0
  3  4  1  0
  4  5  1  0
  5  6  2  0
  6  7  1  0
  7  8  1  0
  8  9  1  0
  7 10  2  0
 10 11  1  0
 11 12  2  0
 11 13  1  0
 10 14  1  0
 14 15  1  0
 15 16  1  0
 16 17  2  0
 17 18  1  0
 18 19  2  0
 19 20  1  0
 20 21  2  0
 21 22  1  0
 22 23  2  0
 23 24  1  0
 24 25  2  0
 25 26  1  0
 26 27  1  0
 26 28  2  0
 26 29  2  0
 19 30  1  0
 30 31  2  0
 14  5  1  0
 31 16  1  0
 25 20  1  0
  1 32  1  0
  1 33  1  0
  1 34  1  0
  2 35  1  0
  2 36  1  0
  3 37  1  0
  3 38  1  0
  4 39  1  0
  4 40  1  0
  9 41  1  0
  9 42  1  0
  9 43  1  0
 15 44  1  0
 15 45  1  0
 17 46  1  0
 18 47  1  0
 21 48  1  0
 22 49  1  0
 23 50  1  0
 24 51  1  0
 27 52  1  0
 27 53  1  0
 30 54  1  0
 31 55  1  0
M  CHG  1  13  -1
M  END
>  <UniqueID>  (95) 
82

>  <SMILES>  (95) 
CCCCc1nc(SC)c(C(=O)[O-])n1Cc1ccc(-c2ccccc2S(N)(=O)=O)cc1

>  <Energy>  (95) 
83.42460569811989

>  <Genealogy>  (95) 
CCCCc1nc(SC)c(C(=O)[O-])n1Cc1ccc(-c2ccccc2S(N)(=O)=O)cc1 (protonated)
CCCCc1nc(SC)c(C(=O)[O-])n1Cc1ccc(-c2ccccc2S(N)(=O)=O)cc1 (3D coordinates assigned)
CCCCc1nc(SC)c(C(=O)[O-])n1Cc1ccc(-c2ccccc2S(N)(=O)=O)cc1 (optimized conformer: 83.42460569811989 kcal/mol)

>  <smiles>  (95) 
CCCCc1nc(SC)c(C(=O)O)n1Cc1ccc(-c2ccccc2S(N)(=O)=O)cc1

>  <score_type>  (95) 
oracle

>  <origin>  (95) 
adg

>  <m_score__min__energy>  (95) 
-11.609999999999999

>  <m_primary>  (95) 
energy

$$$$
