0:0
     RDKit          3D

 38 40  0  0  0  0  0  0  0  0999 V2000
   58.6871   34.9761   46.9627 H   0  0  0  0  0  0  0  0  0  0  0  0
   58.4710   34.0400   46.4270 C   0  0  0  0  0  0  0  0  0  0  0  0
   57.0220   33.6540   45.6620 S   0  0  0  0  0  0  0  0  0  0  0  0
   57.5620   32.1470   45.1630 C   0  0  0  0  0  0  0  0  0  0  0  0
   56.8340   31.3170   44.4740 N   0  0  0  0  0  0  0  0  0  0  0  0
   56.5730   29.9430   44.8020 C   0  0  0  0  0  0  0  0  0  0  0  0
   55.3760   29.5560   44.8570 O   0  0  0  0  0  0  0  0  0  0  0  0
   57.6620   28.9940   45.1450 C   0  0  0  0  0  0  0  0  0  0  0  0
   58.9640   29.2120   44.6640 C   0  0  0  0  0  0  0  0  0  0  0  0
   59.1705   30.0849   44.0273 H   0  0  0  0  0  0  0  0  0  0  0  0
   60.0030   28.3270   44.9880 C   0  0  0  0  0  0  0  0  0  0  0  0
   61.3980   28.5920   44.5040 C   0  0  0  0  0  0  0  0  0  0  0  0
   62.0677   28.7192   45.3673 H   0  0  0  0  0  0  0  0  0  0  0  0
   61.7422   27.7432   43.8949 H   0  0  0  0  0  0  0  0  0  0  0  0
   61.4070   29.5079   43.8949 H   0  0  0  0  0  0  0  0  0  0  0  0
   59.7440   27.2330   45.8250 C   0  0  0  0  0  0  0  0  0  0  0  0
   60.5611   26.5495   46.0992 H   0  0  0  0  0  0  0  0  0  0  0  0
   58.4510   27.0040   46.3150 C   0  0  0  0  0  0  0  0  0  0  0  0
   58.1670   25.8070   47.1730 C   0  0  0  0  0  0  0  0  0  0  0  0
   58.2345   26.0916   48.2334 H   0  0  0  0  0  0  0  0  0  0  0  0
   57.1552   25.4331   46.9574 H   0  0  0  0  0  0  0  0  0  0  0  0
   58.9030   25.0184   46.9574 H   0  0  0  0  0  0  0  0  0  0  0  0
   57.4090   27.8690   45.9500 C   0  0  0  0  0  0  0  0  0  0  0  0
   56.3850   27.6657   46.2964 H   0  0  0  0  0  0  0  0  0  0  0  0
   58.8420   31.9260   45.5470 N   0  0  0  0  0  0  0  0  0  0  0  0
   59.4000   31.0860   45.2820 H   0  0  0  0  0  0  0  0  0  0  0  0
   59.3530   32.9670   46.2650 C   0  0  0  0  0  0  0  0  0  0  0  0
   60.7240   32.9430   46.8290 C   0  0  0  0  0  0  0  0  0  0  0  0
   61.0810   32.0070   47.8180 C   0  0  0  0  0  0  0  0  0  0  0  0
   60.3354   31.2839   48.1801 H   0  0  0  0  0  0  0  0  0  0  0  0
   62.3760   31.9900   48.3430 C   0  0  0  0  0  0  0  0  0  0  0  0
   62.6450   31.2554   49.1163 H   0  0  0  0  0  0  0  0  0  0  0  0
   63.3300   32.9040   47.8880 C   0  0  0  0  0  0  0  0  0  0  0  0
   64.5860   32.8860   48.3990 F   0  0  0  0  0  0  0  0  0  0  0  0
   62.9890   33.8360   46.9060 C   0  0  0  0  0  0  0  0  0  0  0  0
   63.7404   34.5549   46.5475 H   0  0  0  0  0  0  0  0  0  0  0  0
   61.6950   33.8580   46.3770 C   0  0  0  0  0  0  0  0  0  0  0  0
   61.4335   34.5945   45.6029 H   0  0  0  0  0  0  0  0  0  0  0  0
  1  2  1  0
  2  3  1  0
  3  4  1  0
  4  5  2  0
  5  6  1  0
  6  7  2  0
  6  8  1  0
  8  9  2  0
  9 10  1  0
  9 11  1  0
 11 12  1  0
 12 13  1  0
 12 14  1  0
 12 15  1  0
 11 16  2  0
 16 17  1  0
 16 18  1  0
 18 19  1  0
 19 20  1  0
 19 21  1  0
 19 22  1  0
 18 23  2  0
 23 24  1  0
  4 25  1  0
 25 26  1  0
 25 27  1  0
 27 28  1  0
 28 29  2  0
 29 30  1  0
 29 31  1  0
 31 32  1  0
 31 33  2  0
 33 34  1  0
 33 35  1  0
 35 36  1  0
 35 37  2  0
 37 38  1  0
 27  2  2  0
 37 28  1  0
 23  8  1  0
M  END
>  <UniqueID>  (1) 
1

>  <SMILES>  (1) 
Cc1cc(C)cc(C(=O)/N=c2\[nH]c(-c3ccc(F)cc3)cs2)c1

>  <Energy>  (1) 
79.4920604019634

>  <Genealogy>  (1) 
Cc1cc(C)cc(C(=O)/N=c2\[nH]c(-c3ccc(F)cc3)cs2)c1 (cis-trans isomerization)
Cc1cc(C)cc(C(=O)/N=c2\[nH]c(-c3ccc(F)cc3)cs2)c1 (3D coordinates assigned)
Cc1cc(C)cc(C(=O)/N=c2\[nH]c(-c3ccc(F)cc3)cs2)c1 (optimized conformer: 79.4920604019634 kcal/mol)

>  <smiles>  (1) 
Cc1cc(C)cc(C(=O)N=c2[nH]c(-c3ccc(F)cc3)cs2)c1

>  <score_type>  (1) 
oracle

>  <origin>  (1) 
adg

>  <m_score__min__energy>  (1) 
-8.3100000000000005

>  <m_primary>  (1) 
energy

$$$$
1:0
     RDKit          3D

 44 46  0  0  0  0  0  0  0  0999 V2000
   57.4500   32.2850   41.0670 C   0  0  0  0  0  0  0  0  0  0  0  0
   57.4200   32.0190   42.5430 C   0  0  0  0  0  0  0  0  0  0  0  0
   57.9190   32.9640   43.4510 C   0  0  0  0  0  0  0  0  0  0  0  0
   57.9110   32.6920   44.8210 C   0  0  0  0  0  0  0  0  0  0  0  0
   57.4070   31.4790   45.2940 C   0  0  0  0  0  0  0  0  0  0  0  0
   56.9060   30.5210   44.3950 C   0  0  0  0  0  0  0  0  0  0  0  0
   56.3740   29.2650   44.8390 N   0  0  0  0  0  0  0  0  0  0  0  0
   57.3200   27.9430   45.4430 S   0  0  0  0  0  0  0  0  0  0  0  0
   57.7960   27.0960   44.2950 O   0  0  0  0  0  0  0  0  0  0  0  0
   56.4710   27.0960   46.3470 O   0  0  0  0  0  0  0  0  0  0  0  0
   58.6750   28.5820   46.3670 C   0  0  0  0  0  0  0  0  0  0  0  0
   59.7430   29.2220   45.7240 C   0  0  0  0  0  0  0  0  0  0  0  0
   60.7590   29.8190   46.4750 C   0  0  0  0  0  0  0  0  0  0  0  0
   60.7210   29.7780   47.8790 C   0  0  0  0  0  0  0  0  0  0  0  0
   61.7110   30.4530   48.6690 N   0  0  0  0  0  0  0  0  0  0  0  0
   62.4990   31.8950   48.1130 S   0  0  0  0  0  0  0  0  0  0  0  0
   63.3370   32.4670   49.2220 O   0  0  0  0  0  0  0  0  0  0  0  0
   63.3890   31.5530   46.9510 O   0  0  0  0  0  0  0  0  0  0  0  0
   61.2870   33.0860   47.6430 C   0  0  0  0  0  0  0  0  0  0  0  0
   61.3130   33.6700   46.3680 C   0  0  0  0  0  0  0  0  0  0  0  0
   60.3290   34.5950   46.0000 C   0  0  0  0  0  0  0  0  0  0  0  0
   59.3180   34.9390   46.9020 C   0  0  0  0  0  0  0  0  0  0  0  0
   59.2880   34.3580   48.1730 C   0  0  0  0  0  0  0  0  0  0  0  0
   60.2720   33.4380   48.5460 C   0  0  0  0  0  0  0  0  0  0  0  0
   59.6760   29.0950   48.5170 C   0  0  0  0  0  0  0  0  0  0  0  0
   58.6520   28.5100   47.7650 C   0  0  0  0  0  0  0  0  0  0  0  0
   56.9280   30.7930   43.0220 C   0  0  0  0  0  0  0  0  0  0  0  0
   57.5717   33.3640   40.8913 H   0  0  0  0  0  0  0  0  0  0  0  0
   58.2926   31.7423   40.6137 H   0  0  0  0  0  0  0  0  0  0  0  0
   56.5077   31.9437   40.6137 H   0  0  0  0  0  0  0  0  0  0  0  0
   58.3175   33.9212   43.0837 H   0  0  0  0  0  0  0  0  0  0  0  0
   58.3032   33.4362   45.5298 H   0  0  0  0  0  0  0  0  0  0  0  0
   57.4018   31.2719   46.3743 H   0  0  0  0  0  0  0  0  0  0  0  0
   59.7817   29.2545   44.6252 H   0  0  0  0  0  0  0  0  0  0  0  0
   61.5926   30.3235   45.9646 H   0  0  0  0  0  0  0  0  0  0  0  0
   61.7890   30.2270   49.6860 H   0  0  0  0  0  0  0  0  0  0  0  0
   62.1075   33.4008   45.6565 H   0  0  0  0  0  0  0  0  0  0  0  0
   60.3513   35.0519   44.9996 H   0  0  0  0  0  0  0  0  0  0  0  0
   58.5461   35.6669   46.6116 H   0  0  0  0  0  0  0  0  0  0  0  0
   58.4891   34.6251   48.8804 H   0  0  0  0  0  0  0  0  0  0  0  0
   60.2508   32.9888   49.5499 H   0  0  0  0  0  0  0  0  0  0  0  0
   59.6613   29.0188   49.6143 H   0  0  0  0  0  0  0  0  0  0  0  0
   57.8258   27.9916   48.2737 H   0  0  0  0  0  0  0  0  0  0  0  0
   56.5567   30.0399   42.3114 H   0  0  0  0  0  0  0  0  0  0  0  0
  1  2  1  0
  2  3  2  0
  3  4  1  0
  4  5  2  0
  5  6  1  0
  6  7  1  0
  7  8  1  0
  8  9  2  0
  8 10  2  0
  8 11  1  0
 11 12  2  0
 12 13  1  0
 13 14  2  0
 14 15  1  0
 15 16  1  0
 16 17  2  0
 16 18  2  0
 16 19  1  0
 19 20  2  0
 20 21  1  0
 21 22  2  0
 22 23  1  0
 23 24  2  0
 14 25  1  0
 25 26  2  0
  6 27  2  0
 27  2  1  0
 26 11  1  0
 24 19  1  0
  1 28  1  0
  1 29  1  0
  1 30  1  0
  3 31  1  0
  4 32  1  0
  5 33  1  0
 12 34  1  0
 13 35  1  0
 15 36  1  0
 20 37  1  0
 21 38  1  0
 22 39  1  0
 23 40  1  0
 24 41  1  0
 25 42  1  0
 26 43  1  0
 27 44  1  0
M  CHG  1   7  -1
M  END
>  <UniqueID>  (2) 
2

>  <SMILES>  (2) 
Cc1cccc([N-]S(=O)(=O)c2ccc(NS(=O)(=O)c3ccccc3)cc2)c1

>  <Energy>  (2) 
50.23073311303076

>  <Genealogy>  (2) 
Cc1cccc([N-]S(=O)(=O)c2ccc(NS(=O)(=O)c3ccccc3)cc2)c1 (protonated)
Cc1cccc([N-]S(=O)(=O)c2ccc(NS(=O)(=O)c3ccccc3)cc2)c1 (3D coordinates assigned)
Cc1cccc([N-]S(=O)(=O)c2ccc(NS(=O)(=O)c3ccccc3)cc2)c1 (optimized conformer: 50.23073311303076 kcal/mol)

>  <smiles>  (2) 
Cc1cccc(NS(=O)(=O)c2ccc(NS(=O)(=O)c3ccccc3)cc2)c1

>  <score_type>  (2) 
oracle

>  <origin>  (2) 
adg

>  <m_score__min__energy>  (2) 
-10.68

>  <m_primary>  (2) 
energy

$$$$
2:0
     RDKit          3D

 42 44  0  0  0  0  0  0  0  0999 V2000
   55.0793   28.2177   53.3853 H   0  0  0  0  0  0  0  0  0  0  0  0
   54.9560   29.2150   52.9380 C   0  0  0  0  0  0  0  0  0  0  0  0
   55.8150   30.3190   53.4160 C   0  0  0  0  0  0  0  0  0  0  0  0
   55.7720   30.6140   54.6400 O   0  0  0  0  0  0  0  0  0  0  0  0
   56.7010   31.1020   52.5210 C   0  0  0  0  0  0  0  0  0  0  0  0
   57.3180   30.4800   51.4220 C   0  0  0  0  0  0  0  0  0  0  0  0
   57.1253   29.4164   51.2178 H   0  0  0  0  0  0  0  0  0  0  0  0
   58.1740   31.2020   50.5870 C   0  0  0  0  0  0  0  0  0  0  0  0
   58.6418   30.7066   49.7234 H   0  0  0  0  0  0  0  0  0  0  0  0
   58.4410   32.5580   50.8440 C   0  0  0  0  0  0  0  0  0  0  0  0
   59.3200   33.3340   50.0180 N   0  0  0  0  0  0  0  0  0  0  0  0
   59.4170   33.2300   48.2910 S   0  0  0  0  0  0  0  0  0  0  0  0
   58.6130   32.0510   47.8180 O   0  0  0  0  0  0  0  0  0  0  0  0
   58.8440   34.4800   47.6880 O   0  0  0  0  0  0  0  0  0  0  0  0
   61.1010   33.0810   47.8010 C   0  0  0  0  0  0  0  0  0  0  0  0
   61.9440   32.1360   48.4040 C   0  0  0  0  0  0  0  0  0  0  0  0
   61.5482   31.4626   49.1785 H   0  0  0  0  0  0  0  0  0  0  0  0
   63.2860   32.0480   48.0230 C   0  0  0  0  0  0  0  0  0  0  0  0
   63.9450   31.3077   48.5001 H   0  0  0  0  0  0  0  0  0  0  0  0
   63.7920   32.9000   47.0360 C   0  0  0  0  0  0  0  0  0  0  0  0
   64.8486   32.8310   46.7379 H   0  0  0  0  0  0  0  0  0  0  0  0
   62.9540   33.8390   46.4290 C   0  0  0  0  0  0  0  0  0  0  0  0
   63.3508   34.5068   45.6502 H   0  0  0  0  0  0  0  0  0  0  0  0
   61.6120   33.9310   46.8100 C   0  0  0  0  0  0  0  0  0  0  0  0
   60.9553   34.6722   46.3310 H   0  0  0  0  0  0  0  0  0  0  0  0
   57.8400   33.1750   51.9470 C   0  0  0  0  0  0  0  0  0  0  0  0
   58.0441   34.2351   52.1578 H   0  0  0  0  0  0  0  0  0  0  0  0
   56.9820   32.4540   52.7830 C   0  0  0  0  0  0  0  0  0  0  0  0
   56.5236   32.9485   53.6521 H   0  0  0  0  0  0  0  0  0  0  0  0
   54.0320   29.3820   51.9800 C   0  0  0  0  0  0  0  0  0  0  0  0
   54.0635   28.7124   51.1078 H   0  0  0  0  0  0  0  0  0  0  0  0
   52.9690   30.4180   52.0280 C   0  0  0  0  0  0  0  0  0  0  0  0
   52.4240   30.7600   53.2770 C   0  0  0  0  0  0  0  0  0  0  0  0
   52.7901   30.2622   54.1870 H   0  0  0  0  0  0  0  0  0  0  0  0
   51.4200   31.7280   53.3720 C   0  0  0  0  0  0  0  0  0  0  0  0
   50.9926   31.9800   54.3537 H   0  0  0  0  0  0  0  0  0  0  0  0
   50.9580   32.3760   52.2250 C   0  0  0  0  0  0  0  0  0  0  0  0
   49.9560   33.3320   52.3260 O   0  0  0  0  0  0  0  0  0  0  0  0
   51.5070   32.0610   50.9770 C   0  0  0  0  0  0  0  0  0  0  0  0
   51.0590   32.7130   49.8330 O   0  0  0  0  0  0  0  0  0  0  0  0
   52.5100   31.0910   50.8770 C   0  0  0  0  0  0  0  0  0  0  0  0
   52.9432   30.8518   49.8946 H   0  0  0  0  0  0  0  0  0  0  0  0
  1  2  1  0
  2  3  1  0
  3  4  2  0
  3  5  1  0
  5  6  2  0
  6  7  1  0
  6  8  1  0
  8  9  1  0
  8 10  2  0
 10 11  1  0
 11 12  1  0
 12 13  2  0
 12 14  2  0
 12 15  1  0
 15 16  2  0
 16 17  1  0
 16 18  1  0
 18 19  1  0
 18 20  2  0
 20 21  1  0
 20 22  1  0
 22 23  1  0
 22 24  2  0
 24 25  1  0
 10 26  1  0
 26 27  1  0
 26 28  2  0
 28 29  1  0
  2 30  2  0
 30 31  1  0
 30 32  1  0
 32 33  2  0
 33 34  1  0
 33 35  1  0
 35 36  1  0
 35 37  2  0
 37 38  1  0
 37 39  1  0
 39 40  1  0
 39 41  2  0
 41 42  1  0
 28  5  1  0
 41 32  1  0
 24 15  1  0
M  CHG  3  11  -1  38  -1  40  -1
M  END
>  <UniqueID>  (3) 
3

>  <SMILES>  (3) 
O=C(/C=C/c1ccc([O-])c([O-])c1)c1ccc([N-]S(=O)(=O)c2ccccc2)cc1

>  <Energy>  (3) 
55.714660800498386

>  <Genealogy>  (3) 
O=C(C=Cc1ccc([O-])c([O-])c1)c1ccc([N-]S(=O)(=O)c2ccccc2)cc1 (protonated)
O=C(/C=C/c1ccc([O-])c([O-])c1)c1ccc([N-]S(=O)(=O)c2ccccc2)cc1 (cis-trans isomerization)
O=C(/C=C/c1ccc([O-])c([O-])c1)c1ccc([N-]S(=O)(=O)c2ccccc2)cc1 (3D coordinates assigned)
O=C(/C=C/c1ccc([O-])c([O-])c1)c1ccc([N-]S(=O)(=O)c2ccccc2)cc1 (optimized conformer: 55.714660800498386 kcal/mol)

>  <smiles>  (3) 
O=C(C=Cc1ccc(O)c(O)c1)c1ccc(NS(=O)(=O)c2ccccc2)cc1

>  <score_type>  (3) 
oracle

>  <origin>  (3) 
adg

>  <m_score__min__energy>  (3) 
-18.539999999999999

>  <m_primary>  (3) 
energy

$$$$
3:0
     RDKit          3D

 45 48  0  0  0  0  0  0  0  0999 V2000
   65.5410   32.3370   50.1300 C   0  0  0  0  0  0  0  0  0  0  0  0
   64.4180   33.0920   49.5030 C   0  0  0  0  0  0  0  0  0  0  0  0
   64.0180   33.0090   48.1860 C   0  0  0  0  0  0  0  0  0  0  0  0
   62.9790   33.9190   48.1250 C   0  0  0  0  0  0  0  0  0  0  0  0
   62.2640   34.2160   47.0820 N   0  0  0  0  0  0  0  0  0  0  0  0
   60.5280   34.2220   47.0560 S   0  0  0  0  0  0  0  0  0  0  0  0
   60.0200   34.6490   48.4050 O   0  0  0  0  0  0  0  0  0  0  0  0
   60.0560   35.2050   46.0220 O   0  0  0  0  0  0  0  0  0  0  0  0
   59.9220   32.6220   46.6420 C   0  0  0  0  0  0  0  0  0  0  0  0
   58.9170   32.4700   45.6790 C   0  0  0  0  0  0  0  0  0  0  0  0
   58.4320   31.1980   45.3620 C   0  0  0  0  0  0  0  0  0  0  0  0
   58.9590   30.0580   45.9950 C   0  0  0  0  0  0  0  0  0  0  0  0
   58.4610   28.7400   45.7060 N   0  0  0  0  0  0  0  0  0  0  0  0
   57.0700   28.4340   45.5120 C   0  0  0  0  0  0  0  0  0  0  0  0
   56.2470   29.3560   45.2610 O   0  0  0  0  0  0  0  0  0  0  0  0
   56.5890   27.0430   45.5570 C   0  0  0  0  0  0  0  0  0  0  0  0
   57.2350   25.9280   45.0610 C   0  0  0  0  0  0  0  0  0  0  0  0
   56.3810   24.8820   45.3650 C   0  0  0  0  0  0  0  0  0  0  0  0
   56.5830   23.4430   45.0580 C   0  0  0  0  0  0  0  0  0  0  0  0
   56.6820   22.5100   46.1070 C   0  0  0  0  0  0  0  0  0  0  0  0
   56.8700   21.1520   45.8340 C   0  0  0  0  0  0  0  0  0  0  0  0
   56.9620   20.7090   44.5130 C   0  0  0  0  0  0  0  0  0  0  0  0
   56.8670   21.6250   43.4620 C   0  0  0  0  0  0  0  0  0  0  0  0
   56.6780   22.9850   43.7300 C   0  0  0  0  0  0  0  0  0  0  0  0
   55.2980   25.3630   46.0060 N   0  0  0  0  0  0  0  0  0  0  0  0
   55.4250   26.6760   46.1250 N   0  0  0  0  0  0  0  0  0  0  0  0
   59.9550   30.2180   46.9710 C   0  0  0  0  0  0  0  0  0  0  0  0
   60.4390   31.4900   47.2860 C   0  0  0  0  0  0  0  0  0  0  0  0
   62.7890   34.4960   49.3260 N   0  0  0  0  0  0  0  0  0  0  0  0
   63.6730   33.9770   50.1270 O   0  0  0  0  0  0  0  0  0  0  0  0
   65.4553   32.3946   51.2251 H   0  0  0  0  0  0  0  0  0  0  0  0
   65.4969   31.2844   49.8137 H   0  0  0  0  0  0  0  0  0  0  0  0
   66.4991   32.7751   49.8137 H   0  0  0  0  0  0  0  0  0  0  0  0
   64.4245   32.3761   47.3834 H   0  0  0  0  0  0  0  0  0  0  0  0
   58.5076   33.3550   45.1700 H   0  0  0  0  0  0  0  0  0  0  0  0
   57.6337   31.0880   44.6133 H   0  0  0  0  0  0  0  0  0  0  0  0
   59.1610   27.9840   45.5320 H   0  0  0  0  0  0  0  0  0  0  0  0
   58.2046   25.8817   44.5436 H   0  0  0  0  0  0  0  0  0  0  0  0
   56.6109   22.8521   47.1500 H   0  0  0  0  0  0  0  0  0  0  0  0
   56.9456   20.4310   46.6613 H   0  0  0  0  0  0  0  0  0  0  0  0
   57.1091   19.6399   44.2999 H   0  0  0  0  0  0  0  0  0  0  0  0
   56.9410   21.2759   42.4215 H   0  0  0  0  0  0  0  0  0  0  0  0
   56.6032   23.7009   42.8982 H   0  0  0  0  0  0  0  0  0  0  0  0
   60.3570   29.3361   47.4912 H   0  0  0  0  0  0  0  0  0  0  0  0
   61.2292   31.6034   48.0427 H   0  0  0  0  0  0  0  0  0  0  0  0
  1  2  1  0
  2  3  2  0
  3  4  1  0
  4  5  2  3
  5  6  1  0
  6  7  2  0
  6  8  2  0
  6  9  1  0
  9 10  2  0
 10 11  1  0
 11 12  2  0
 12 13  1  0
 13 14  1  0
 14 15  2  0
 14 16  1  0
 16 17  1  0
 17 18  2  0
 18 19  1  0
 19 20  2  0
 20 21  1  0
 21 22  2  0
 22 23  1  0
 23 24  2  0
 18 25  1  0
 25 26  1  0
 12 27  1  0
 27 28  2  0
  4 29  1  0
 29 30  1  0
 30  2  1  0
 28  9  1  0
 26 16  2  0
 24 19  1  0
  1 31  1  0
  1 32  1  0
  1 33  1  0
  3 34  1  0
 10 35  1  0
 11 36  1  0
 13 37  1  0
 17 38  1  0
 20 39  1  0
 21 40  1  0
 22 41  1  0
 23 42  1  0
 24 43  1  0
 27 44  1  0
 28 45  1  0
M  CHG  2  25  -1  29  -1
M  END
>  <UniqueID>  (4) 
4

>  <SMILES>  (4) 
Cc1cc(=NS(=O)(=O)c2ccc(NC(=O)c3cc(-c4ccccc4)[n-]n3)cc2)[n-]o1

>  <Energy>  (4) 
116.4075693380157

>  <Genealogy>  (4) 
Cc1cc(=NS(=O)(=O)c2ccc(NC(=O)c3cc(-c4ccccc4)[n-]n3)cc2)[n-]o1 (protonated)
Cc1cc(=NS(=O)(=O)c2ccc(NC(=O)c3cc(-c4ccccc4)[n-]n3)cc2)[n-]o1 (3D coordinates assigned)
Cc1cc(=NS(=O)(=O)c2ccc(NC(=O)c3cc(-c4ccccc4)[n-]n3)cc2)[n-]o1 (optimized conformer: 116.4075693380157 kcal/mol)

>  <smiles>  (4) 
Cc1cc(=NS(=O)(=O)c2ccc(NC(=O)c3cc(-c4ccccc4)[nH]n3)cc2)[nH]o1

>  <score_type>  (4) 
oracle

>  <origin>  (4) 
adg

>  <m_score__min__energy>  (4) 
-11.74

>  <m_primary>  (4) 
energy

$$$$
4:0
     RDKit          3D

 60 64  0  0  0  0  0  0  0  0999 V2000
   61.7110   32.4560   53.3700 C   0  0  0  0  0  0  0  0  0  0  0  0
   60.4760   32.7100   52.6180 N   0  0  0  0  0  0  0  0  0  0  0  0
   59.5690   33.7480   53.0470 C   0  0  0  0  0  0  0  0  0  0  0  0
   59.8680   34.5060   54.0090 O   0  0  0  0  0  0  0  0  0  0  0  0
   58.2920   33.9940   52.2950 C   0  0  0  0  0  0  0  0  0  0  0  0
   57.7720   32.6950   51.6750 C   0  0  0  0  0  0  0  0  0  0  0  0
   58.8560   31.9960   50.8960 C   0  0  0  0  0  0  0  0  0  0  0  0
   58.5480   31.3010   49.7150 C   0  0  0  0  0  0  0  0  0  0  0  0
   59.5520   30.6220   49.0160 C   0  0  0  0  0  0  0  0  0  0  0  0
   59.2410   29.9330   47.7910 C   0  0  0  0  0  0  0  0  0  0  0  0
   58.9800   29.3470   46.7690 C   0  0  0  0  0  0  0  0  0  0  0  0
   58.6710   28.6290   45.5300 C   0  0  0  0  0  0  0  0  0  0  0  0
   57.2280   28.6070   45.3140 N   0  0  0  0  0  0  0  0  0  0  0  0
   56.4360   29.7020   44.8340 C   0  0  0  0  0  0  0  0  0  0  0  0
   55.1840   29.6330   44.9360 O   0  0  0  0  0  0  0  0  0  0  0  0
   57.0380   30.8850   44.1800 C   0  0  0  0  0  0  0  0  0  0  0  0
   57.3840   30.8500   42.8290 C   0  0  0  0  0  0  0  0  0  0  0  0
   57.9490   31.9340   42.2430 N   0  0  0  0  0  0  0  0  0  0  0  0
   58.2000   33.0640   42.9530 C   0  0  0  0  0  0  0  0  0  0  0  0
   57.9000   33.1300   44.2850 N   0  0  0  0  0  0  0  0  0  0  0  0
   58.1670   34.3770   45.0200 C   0  0  0  0  0  0  0  0  0  0  0  0
   59.2600   34.1640   46.0330 C   0  0  0  0  0  0  0  0  0  0  0  0
   59.0040   34.3210   47.4030 C   0  0  0  0  0  0  0  0  0  0  0  0
   60.0280   34.1540   48.3380 C   0  0  0  0  0  0  0  0  0  0  0  0
   61.3350   33.8330   47.9220 C   0  0  0  0  0  0  0  0  0  0  0  0
   62.4330   33.6580   48.9090 C   0  0  0  0  0  0  0  0  0  0  0  0
   62.5580   34.2830   50.1520 C   0  0  0  0  0  0  0  0  0  0  0  0
   63.6720   33.9470   50.8560 N   0  0  0  0  0  0  0  0  0  0  0  0
   64.4490   33.0560   50.2030 C   0  0  0  0  0  0  0  0  0  0  0  0
   63.7800   32.6580   48.7150 S   0  0  0  0  0  0  0  0  0  0  0  0
   61.5840   33.6750   46.5460 C   0  0  0  0  0  0  0  0  0  0  0  0
   60.5580   33.8420   45.6120 C   0  0  0  0  0  0  0  0  0  0  0  0
   57.3200   32.0530   44.9090 C   0  0  0  0  0  0  0  0  0  0  0  0
   57.0250   32.1100   46.1350 O   0  0  0  0  0  0  0  0  0  0  0  0
   60.8630   30.6210   49.5040 C   0  0  0  0  0  0  0  0  0  0  0  0
   61.1740   31.2950   50.6860 C   0  0  0  0  0  0  0  0  0  0  0  0
   60.1750   31.9830   51.4020 C   0  0  0  0  0  0  0  0  0  0  0  0
   61.4991   32.4996   54.4485 H   0  0  0  0  0  0  0  0  0  0  0  0
   62.0987   31.4593   53.1125 H   0  0  0  0  0  0  0  0  0  0  0  0
   62.4606   33.2188   53.1125 H   0  0  0  0  0  0  0  0  0  0  0  0
   57.5357   34.3919   52.9876 H   0  0  0  0  0  0  0  0  0  0  0  0
   58.4889   34.7169   51.4896 H   0  0  0  0  0  0  0  0  0  0  0  0
   57.4194   32.0297   52.4769 H   0  0  0  0  0  0  0  0  0  0  0  0
   56.9491   32.9400   50.9874 H   0  0  0  0  0  0  0  0  0  0  0  0
   57.5145   31.2905   49.3385 H   0  0  0  0  0  0  0  0  0  0  0  0
   59.1585   29.1354   44.6839 H   0  0  0  0  0  0  0  0  0  0  0  0
   59.0406   27.5960   45.6089 H   0  0  0  0  0  0  0  0  0  0  0  0
   57.1980   29.9410   42.2381 H   0  0  0  0  0  0  0  0  0  0  0  0
   58.1970   31.8990   41.2290 H   0  0  0  0  0  0  0  0  0  0  0  0
   58.6488   33.9342   42.4517 H   0  0  0  0  0  0  0  0  0  0  0  0
   58.4779   35.1572   44.3096 H   0  0  0  0  0  0  0  0  0  0  0  0
   57.2503   34.6866   45.5432 H   0  0  0  0  0  0  0  0  0  0  0  0
   57.9899   34.5774   47.7434 H   0  0  0  0  0  0  0  0  0  0  0  0
   59.8117   34.2743   49.4098 H   0  0  0  0  0  0  0  0  0  0  0  0
   61.8106   34.9944   50.5332 H   0  0  0  0  0  0  0  0  0  0  0  0
   65.3924   32.6464   50.5931 H   0  0  0  0  0  0  0  0  0  0  0  0
   62.5966   33.4174   46.2021 H   0  0  0  0  0  0  0  0  0  0  0  0
   60.7701   33.7200   44.5396 H   0  0  0  0  0  0  0  0  0  0  0  0
   61.6519   30.0869   48.9540 H   0  0  0  0  0  0  0  0  0  0  0  0
   62.2079   31.2888   51.0615 H   0  0  0  0  0  0  0  0  0  0  0  0
  1  2  1  0
  2  3  1  0
  3  4  2  0
  3  5  1  0
  5  6  1  0
  6  7  1  0
  7  8  2  0
  8  9  1  0
  9 10  1  0
 10 11  3  0
 11 12  1  0
 12 13  1  0
 13 14  1  0
 14 15  2  0
 14 16  1  0
 16 17  2  0
 17 18  1  0
 18 19  2  0
 19 20  1  0
 20 21  1  0
 21 22  1  0
 22 23  2  0
 23 24  1  0
 24 25  2  0
 25 26  1  0
 26 27  2  0
 27 28  1  0
 28 29  2  0
 29 30  1  0
 25 31  1  0
 31 32  2  0
 20 33  1  0
 33 34  2  0
  9 35  2  0
 35 36  1  0
 36 37  2  0
 37  2  1  0
 37  7  1  0
 33 16  1  0
 32 22  1  0
 30 26  1  0
  1 38  1  0
  1 39  1  0
  1 40  1  0
  5 41  1  0
  5 42  1  0
  6 43  1  0
  6 44  1  0
  8 45  1  0
 12 46  1  0
 12 47  1  0
 17 48  1  0
 18 49  1  0
 19 50  1  0
 21 51  1  0
 21 52  1  0
 23 53  1  0
 24 54  1  0
 27 55  1  0
 29 56  1  0
 31 57  1  0
 32 58  1  0
 35 59  1  0
 36 60  1  0
M  CHG  2  13  -1  18   1
M  END
>  <UniqueID>  (5) 
5

>  <SMILES>  (5) 
CN1C(=O)CCc2cc(C#CC[N-]C(=O)c3c[nH+]cn(Cc4ccc(-c5cncs5)cc4)c3=O)ccc21

>  <Energy>  (5) 
103.01069210199829

>  <Genealogy>  (5) 
CN1C(=O)CCc2cc(C#CC[N-]C(=O)c3c[nH+]cn(Cc4ccc(-c5cncs5)cc4)c3=O)ccc21 (protonated)
CN1C(=O)CCc2cc(C#CC[N-]C(=O)c3c[nH+]cn(Cc4ccc(-c5cncs5)cc4)c3=O)ccc21 (3D coordinates assigned)
CN1C(=O)CCc2cc(C#CC[N-]C(=O)c3c[nH+]cn(Cc4ccc(-c5cncs5)cc4)c3=O)ccc21 (nonaromatic ring conformer: 103.01069210199829 kcal/mol)

>  <smiles>  (5) 
CN1C(=O)CCc2cc(C#CCNC(=O)c3cncn(Cc4ccc(-c5cncs5)cc4)c3=O)ccc21

>  <score_type>  (5) 
oracle

>  <origin>  (5) 
adg

>  <m_score__min__energy>  (5) 
-8.7200000000000006

>  <m_primary>  (5) 
energy

$$$$
5:0
     RDKit          3D

 59 62  0  0  0  0  0  0  0  0999 V2000
   63.1190   34.4950   50.8660 C   0  0  0  0  0  0  0  0  0  0  0  0
   62.9980   33.8060   49.5290 C   0  0  0  0  0  0  0  0  0  0  0  0
   64.1710   33.4860   48.8250 C   0  0  0  0  0  0  0  0  0  0  0  0
   64.1060   32.8130   47.6060 C   0  0  0  0  0  0  0  0  0  0  0  0
   62.8730   32.4350   47.0810 C   0  0  0  0  0  0  0  0  0  0  0  0
   61.6820   32.7520   47.7530 C   0  0  0  0  0  0  0  0  0  0  0  0
   60.4340   32.3370   47.1880 N   0  0  0  0  0  0  0  0  0  0  0  0
   59.5880   30.9590   47.8090 S   0  0  0  0  0  0  0  0  0  0  0  0
   60.6040   29.9600   48.2930 O   0  0  0  0  0  0  0  0  0  0  0  0
   58.7430   31.3800   48.9770 O   0  0  0  0  0  0  0  0  0  0  0  0
   58.5600   30.2120   46.5770 C   0  0  0  0  0  0  0  0  0  0  0  0
   58.4160   28.8160   46.5880 C   0  0  0  0  0  0  0  0  0  0  0  0
   57.6410   28.1600   45.6290 C   0  0  0  0  0  0  0  0  0  0  0  0
   57.4810   26.7370   45.7330 N   0  0  0  0  0  0  0  0  0  0  0  0
   56.2720   26.0270   46.0380 C   0  0  0  0  0  0  0  0  0  0  0  0
   55.1620   26.6190   45.9700 O   0  0  0  0  0  0  0  0  0  0  0  0
   56.3130   24.5720   46.3140 C   0  0  0  0  0  0  0  0  0  0  0  0
   56.2400   24.1360   47.6520 C   0  0  0  0  0  0  0  0  0  0  0  0
   56.2630   22.7740   47.9610 C   0  0  0  0  0  0  0  0  0  0  0  0
   56.3650   21.8280   46.9430 C   0  0  0  0  0  0  0  0  0  0  0  0
   56.4510   22.2400   45.6120 C   0  0  0  0  0  0  0  0  0  0  0  0
   56.4310   23.6020   45.2850 C   0  0  0  0  0  0  0  0  0  0  0  0
   56.6620   24.0530   43.4310 Br  0  0  0  0  0  0  0  0  0  0  0  0
   56.9850   28.9130   44.6420 C   0  0  0  0  0  0  0  0  0  0  0  0
   57.1110   30.3030   44.6240 C   0  0  0  0  0  0  0  0  0  0  0  0
   57.8840   30.9690   45.5890 C   0  0  0  0  0  0  0  0  0  0  0  0
   57.9390   32.4040   45.5610 N   0  0  0  0  0  0  0  0  0  0  0  0
   57.3600   33.1910   46.6510 C   0  0  0  0  0  0  0  0  0  0  0  0
   58.3730   34.2530   47.1250 C   0  0  0  0  0  0  0  0  0  0  0  0
   59.0710   34.9690   46.1070 O   0  0  0  0  0  0  0  0  0  0  0  0
   58.7240   34.5960   44.7860 C   0  0  0  0  0  0  0  0  0  0  0  0
   58.7900   33.0800   44.5810 C   0  0  0  0  0  0  0  0  0  0  0  0
   61.7320   33.4620   48.9800 C   0  0  0  0  0  0  0  0  0  0  0  0
   60.4720   33.7660   49.7600 C   0  0  0  0  0  0  0  0  0  0  0  0
   62.9895   33.7574   51.6717 H   0  0  0  0  0  0  0  0  0  0  0  0
   64.1125   34.9596   50.9505 H   0  0  0  0  0  0  0  0  0  0  0  0
   62.3433   35.2703   50.9505 H   0  0  0  0  0  0  0  0  0  0  0  0
   65.1497   33.7692   49.2396 H   0  0  0  0  0  0  0  0  0  0  0  0
   65.0307   32.5801   47.0577 H   0  0  0  0  0  0  0  0  0  0  0  0
   62.8318   31.8827   46.1306 H   0  0  0  0  0  0  0  0  0  0  0  0
   59.9620   32.9270   46.4700 H   0  0  0  0  0  0  0  0  0  0  0  0
   58.9231   28.2274   47.3667 H   0  0  0  0  0  0  0  0  0  0  0  0
   56.1641   24.8764   48.4620 H   0  0  0  0  0  0  0  0  0  0  0  0
   56.2005   22.4477   49.0096 H   0  0  0  0  0  0  0  0  0  0  0  0
   56.3778   20.7558   47.1884 H   0  0  0  0  0  0  0  0  0  0  0  0
   56.5352   21.4886   44.8130 H   0  0  0  0  0  0  0  0  0  0  0  0
   56.3712   28.4070   43.8822 H   0  0  0  0  0  0  0  0  0  0  0  0
   56.5981   30.8844   43.8437 H   0  0  0  0  0  0  0  0  0  0  0  0
   56.4468   33.6906   46.2954 H   0  0  0  0  0  0  0  0  0  0  0  0
   57.1149   32.5233   47.4901 H   0  0  0  0  0  0  0  0  0  0  0  0
   57.8260   34.9875   47.7344 H   0  0  0  0  0  0  0  0  0  0  0  0
   59.1478   33.6927   47.6688 H   0  0  0  0  0  0  0  0  0  0  0  0
   57.6994   34.9380   44.5781 H   0  0  0  0  0  0  0  0  0  0  0  0
   59.4466   35.0629   44.1006 H   0  0  0  0  0  0  0  0  0  0  0  0
   58.4430   32.8343   43.5665 H   0  0  0  0  0  0  0  0  0  0  0  0
   59.8289   32.7432   44.7122 H   0  0  0  0  0  0  0  0  0  0  0  0
   60.6864   33.7143   50.8377 H   0  0  0  0  0  0  0  0  0  0  0  0
   60.1173   34.7755   49.5048 H   0  0  0  0  0  0  0  0  0  0  0  0
   59.6960   33.0293   49.5048 H   0  0  0  0  0  0  0  0  0  0  0  0
  1  2  1  0
  2  3  2  0
  3  4  1  0
  4  5  2  0
  5  6  1  0
  6  7  1  0
  7  8  1  0
  8  9  2  0
  8 10  2  0
  8 11  1  0
 11 12  2  0
 12 13  1  0
 13 14  1  0
 14 15  1  0
 15 16  2  0
 15 17  1  0
 17 18  2  0
 18 19  1  0
 19 20  2  0
 20 21  1  0
 21 22  2  0
 22 23  1  0
 13 24  2  0
 24 25  1  0
 25 26  2  0
 26 27  1  0
 27 28  1  0
 28 29  1  0
 29 30  1  0
 30 31  1  0
 31 32  1  0
  6 33  2  0
 33 34  1  0
 33  2  1  0
 26 11  1  0
 32 27  1  0
 22 17  1  0
  1 35  1  0
  1 36  1  0
  1 37  1  0
  3 38  1  0
  4 39  1  0
  5 40  1  0
  7 41  1  0
 12 42  1  0
 18 43  1  0
 19 44  1  0
 20 45  1  0
 21 46  1  0
 24 47  1  0
 25 48  1  0
 28 49  1  0
 28 50  1  0
 29 51  1  0
 29 52  1  0
 31 53  1  0
 31 54  1  0
 32 55  1  0
 32 56  1  0
 34 57  1  0
 34 58  1  0
 34 59  1  0
M  CHG  1  14  -1
M  END
>  <UniqueID>  (6) 
6

>  <SMILES>  (6) 
Cc1cccc(NS(=O)(=O)c2cc([N-]C(=O)c3ccccc3Br)ccc2N2CCOCC2)c1C

>  <Energy>  (6) 
93.6140823044043

>  <Genealogy>  (6) 
Cc1cccc(NS(=O)(=O)c2cc([N-]C(=O)c3ccccc3Br)ccc2N2CCOCC2)c1C (protonated)
Cc1cccc(NS(=O)(=O)c2cc([N-]C(=O)c3ccccc3Br)ccc2N2CCOCC2)c1C (3D coordinates assigned)
Cc1cccc(NS(=O)(=O)c2cc([N-]C(=O)c3ccccc3Br)ccc2N2CCOCC2)c1C (nonaromatic ring conformer: 93.6140823044043 kcal/mol)

>  <smiles>  (6) 
Cc1cccc(NS(=O)(=O)c2cc(NC(=O)c3ccccc3Br)ccc2N2CCOCC2)c1C

>  <score_type>  (6) 
oracle

>  <origin>  (6) 
adg

>  <m_score__min__energy>  (6) 
-11.369999999999999

>  <m_primary>  (6) 
energy

$$$$
6:0
     RDKit          3D

 28 29  0  0  0  0  0  0  0  0999 V2000
   55.8450   27.4570   45.6210 O   0  0  0  0  0  0  0  0  0  0  0  0
   56.4720   26.5600   46.2470 C   0  0  0  0  0  0  0  0  0  0  0  0
   57.7470   26.8980   46.9490 C   0  0  0  0  0  0  0  0  0  0  0  0
   59.1270   27.0420   45.7590 S   0  0  0  0  0  0  0  0  0  0  0  0
   58.2820   28.1910   44.6650 C   0  0  0  0  0  0  0  0  0  0  0  0
   57.6870   27.7330   43.4850 C   0  0  0  0  0  0  0  0  0  0  0  0
   57.0210   28.5990   42.6740 N   0  0  0  0  0  0  0  0  0  0  0  0
   56.9250   29.9230   42.9750 C   0  0  0  0  0  0  0  0  0  0  0  0
   57.5210   30.4230   44.1380 C   0  0  0  0  0  0  0  0  0  0  0  0
   57.4010   32.1280   44.5320 Cl  0  0  0  0  0  0  0  0  0  0  0  0
   58.2060   29.5500   44.9840 C   0  0  0  0  0  0  0  0  0  0  0  0
   55.9810   25.2140   46.2930 N   0  0  0  0  0  0  0  0  0  0  0  0
   56.3150   24.1430   45.3960 C   0  0  0  0  0  0  0  0  0  0  0  0
   57.6460   23.7580   45.1560 C   0  0  0  0  0  0  0  0  0  0  0  0
   57.9240   22.7370   44.2460 C   0  0  0  0  0  0  0  0  0  0  0  0
   56.8730   22.1160   43.5720 C   0  0  0  0  0  0  0  0  0  0  0  0
   55.5930   22.5140   43.7950 N   0  0  0  0  0  0  0  0  0  0  0  0
   55.2930   23.5060   44.6740 C   0  0  0  0  0  0  0  0  0  0  0  0
   53.6120   23.9700   44.8900 Cl  0  0  0  0  0  0  0  0  0  0  0  0
   57.6249   27.8554   47.4768 H   0  0  0  0  0  0  0  0  0  0  0  0
   57.9799   26.0936   47.6623 H   0  0  0  0  0  0  0  0  0  0  0  0
   57.7577   26.6698   43.2119 H   0  0  0  0  0  0  0  0  0  0  0  0
   56.5710   28.2400   41.8020 H   0  0  0  0  0  0  0  0  0  0  0  0
   56.3781   30.6008   42.3030 H   0  0  0  0  0  0  0  0  0  0  0  0
   58.6845   29.9298   45.8987 H   0  0  0  0  0  0  0  0  0  0  0  0
   58.4682   24.2616   45.6855 H   0  0  0  0  0  0  0  0  0  0  0  0
   58.9627   22.4250   44.0621 H   0  0  0  0  0  0  0  0  0  0  0  0
   57.0801   21.3038   42.8597 H   0  0  0  0  0  0  0  0  0  0  0  0
  1  2  2  0
  2  3  1  0
  3  4  1  0
  4  5  1  0
  5  6  2  0
  6  7  1  0
  7  8  2  0
  8  9  1  0
  9 10  1  0
  9 11  2  0
  2 12  1  0
 12 13  1  0
 13 14  2  0
 14 15  1  0
 15 16  2  0
 16 17  1  0
 17 18  2  0
 18 19  1  0
 11  5  1  0
 18 13  1  0
  3 20  1  0
  3 21  1  0
  6 22  1  0
  7 23  1  0
  8 24  1  0
 11 25  1  0
 14 26  1  0
 15 27  1  0
 16 28  1  0
M  CHG  2   7   1  12  -1
M  END
>  <UniqueID>  (7) 
7

>  <SMILES>  (7) 
O=C(CSc1c[nH+]cc(Cl)c1)[N-]c1cccnc1Cl

>  <Energy>  (7) 
26.463463854521137

>  <Genealogy>  (7) 
O=C(CSc1c[nH+]cc(Cl)c1)[N-]c1cccnc1Cl (protonated)
O=C(CSc1c[nH+]cc(Cl)c1)[N-]c1cccnc1Cl (3D coordinates assigned)
O=C(CSc1c[nH+]cc(Cl)c1)[N-]c1cccnc1Cl (optimized conformer: 26.463463854521137 kcal/mol)

>  <smiles>  (7) 
O=C(CSc1cncc(Cl)c1)Nc1cccnc1Cl

>  <score_type>  (7) 
oracle

>  <origin>  (7) 
adg

>  <m_score__min__energy>  (7) 
-7.1699999999999999

>  <m_primary>  (7) 
energy

$$$$
7:0
     RDKit          3D

 49 51  0  0  0  0  0  0  0  0999 V2000
   57.7780   32.3120   41.9780 C   0  0  0  0  0  0  0  0  0  0  0  0
   57.5110   31.2370   42.9900 C   0  0  0  0  0  0  0  0  0  0  0  0
   56.4310   30.3600   42.8200 C   0  0  0  0  0  0  0  0  0  0  0  0
   56.1600   29.3840   43.7810 C   0  0  0  0  0  0  0  0  0  0  0  0
   56.9550   29.2860   44.9250 C   0  0  0  0  0  0  0  0  0  0  0  0
   58.0300   30.1710   45.1260 C   0  0  0  0  0  0  0  0  0  0  0  0
   58.8520   30.0730   46.3110 N   0  0  0  0  0  0  0  0  0  0  0  0
   60.1150   30.8170   46.3900 C   0  0  0  0  0  0  0  0  0  0  0  0
   61.0010   30.2530   47.5090 C   0  0  0  0  0  0  0  0  0  0  0  0
   60.3040   30.2460   48.8220 N   0  0  0  0  0  0  0  0  0  0  0  0
   60.3510   31.5950   49.4520 C   0  0  0  0  0  0  0  0  0  0  0  0
   59.0430   32.3970   49.2850 C   0  0  0  0  0  0  0  0  0  0  0  0
   59.0070   33.1700   48.0300 N   0  0  0  0  0  0  0  0  0  0  0  0
   57.8890   32.9200   47.1060 C   0  0  0  0  0  0  0  0  0  0  0  0
   57.6490   34.1120   46.1770 C   0  0  0  0  0  0  0  0  0  0  0  0
   58.9240   34.4430   45.4070 C   0  0  0  0  0  0  0  0  0  0  0  0
   60.0310   34.6750   46.3280 N   0  0  0  0  0  0  0  0  0  0  0  0
   60.1260   33.9730   47.5740 C   0  0  0  0  0  0  0  0  0  0  0  0
   61.4700   34.1960   48.4940 S   0  0  0  0  0  0  0  0  0  0  0  0
   58.9030   29.7190   48.7450 C   0  0  0  0  0  0  0  0  0  0  0  0
   58.5220   29.1240   47.3800 C   0  0  0  0  0  0  0  0  0  0  0  0
   58.2970   31.1480   44.1490 C   0  0  0  0  0  0  0  0  0  0  0  0
   58.0119   33.2536   42.4963 H   0  0  0  0  0  0  0  0  0  0  0  0
   58.6306   32.0188   41.3479 H   0  0  0  0  0  0  0  0  0  0  0  0
   56.8873   32.4518   41.3479 H   0  0  0  0  0  0  0  0  0  0  0  0
   55.7947   30.4409   41.9264 H   0  0  0  0  0  0  0  0  0  0  0  0
   55.3183   28.6906   43.6367 H   0  0  0  0  0  0  0  0  0  0  0  0
   56.7390   28.5107   45.6748 H   0  0  0  0  0  0  0  0  0  0  0  0
   60.6459   30.7323   45.4303 H   0  0  0  0  0  0  0  0  0  0  0  0
   59.8937   31.8721   46.6086 H   0  0  0  0  0  0  0  0  0  0  0  0
   61.2841   29.2216   47.2519 H   0  0  0  0  0  0  0  0  0  0  0  0
   61.8870   30.8987   47.5985 H   0  0  0  0  0  0  0  0  0  0  0  0
   60.8570   29.5920   49.4260 H   0  0  0  0  0  0  0  0  0  0  0  0
   60.5487   31.4708   50.5269 H   0  0  0  0  0  0  0  0  0  0  0  0
   61.1457   32.1619   48.9451 H   0  0  0  0  0  0  0  0  0  0  0  0
   58.1963   31.6948   49.2904 H   0  0  0  0  0  0  0  0  0  0  0  0
   58.9828   33.1125   50.1183 H   0  0  0  0  0  0  0  0  0  0  0  0
   58.1205   32.0337   46.4970 H   0  0  0  0  0  0  0  0  0  0  0  0
   56.9788   32.7598   47.7025 H   0  0  0  0  0  0  0  0  0  0  0  0
   56.8485   33.8627   45.4649 H   0  0  0  0  0  0  0  0  0  0  0  0
   57.3562   34.9844   46.7797 H   0  0  0  0  0  0  0  0  0  0  0  0
   59.1750   33.6021   44.7437 H   0  0  0  0  0  0  0  0  0  0  0  0
   58.7559   35.3552   44.8156 H   0  0  0  0  0  0  0  0  0  0  0  0
   60.8160   35.2910   46.0180 H   0  0  0  0  0  0  0  0  0  0  0  0
   58.7887   28.9335   49.5066 H   0  0  0  0  0  0  0  0  0  0  0  0
   58.2354   30.5775   48.9104 H   0  0  0  0  0  0  0  0  0  0  0  0
   59.0788   28.1886   47.2218 H   0  0  0  0  0  0  0  0  0  0  0  0
   57.4410   28.9212   47.3628 H   0  0  0  0  0  0  0  0  0  0  0  0
   59.1313   31.8498   44.2955 H   0  0  0  0  0  0  0  0  0  0  0  0
  1  2  1  0
  2  3  2  0
  3  4  1  0
  4  5  2  0
  5  6  1  0
  6  7  1  0
  7  8  1  0
  8  9  1  0
  9 10  1  0
 10 11  1  0
 11 12  1  0
 12 13  1  0
 13 14  1  0
 14 15  1  0
 15 16  1  0
 16 17  1  0
 17 18  1  0
 18 19  2  0
 10 20  1  0
 20 21  1  0
  6 22  2  0
 22  2  1  0
 21  7  1  0
 18 13  1  0
  1 23  1  0
  1 24  1  0
  1 25  1  0
  3 26  1  0
  4 27  1  0
  5 28  1  0
  8 29  1  0
  8 30  1  0
  9 31  1  0
  9 32  1  0
 10 33  1  0
 11 34  1  0
 11 35  1  0
 12 36  1  0
 12 37  1  0
 14 38  1  0
 14 39  1  0
 15 40  1  0
 15 41  1  0
 16 42  1  0
 16 43  1  0
 17 44  1  0
 20 45  1  0
 20 46  1  0
 21 47  1  0
 21 48  1  0
 22 49  1  0
M  CHG  1  10   1
M  END
>  <UniqueID>  (8) 
8

>  <SMILES>  (8) 
Cc1cccc(N2CC[NH+](CCN3CCCNC3=S)CC2)c1

>  <Energy>  (8) 
58.721959202918754

>  <Genealogy>  (8) 
Cc1cccc(N2CC[NH+](CCN3CCCNC3=S)CC2)c1 (protonated)
Cc1cccc(N2CC[NH+](CCN3CCCNC3=S)CC2)c1 (3D coordinates assigned)
Cc1cccc(N2CC[NH+](CCN3CCCNC3=S)CC2)c1 (nonaromatic ring conformer: 58.721959202918754 kcal/mol)

>  <smiles>  (8) 
Cc1cccc(N2CCN(CCN3CCCNC3=S)CC2)c1

>  <score_type>  (8) 
oracle

>  <origin>  (8) 
adg

>  <m_score__min__energy>  (8) 
-6.1299999999999999

>  <m_primary>  (8) 
energy

$$$$
8:0
     RDKit          3D

 69 73  0  0  0  0  0  0  0  0999 V2000
   58.3930   31.0530   50.5360 C   0  0  0  0  0  0  0  0  0  0  0  0
   59.5490   31.5260   49.7570 N   0  0  0  0  0  0  0  0  0  0  0  0
   59.4560   32.9810   49.4820 C   0  0  0  0  0  0  0  0  0  0  0  0
   60.3100   33.8170   50.4490 C   0  0  0  0  0  0  0  0  0  0  0  0
   61.7470   33.4370   50.4100 N   0  0  0  0  0  0  0  0  0  0  0  0
   62.5540   34.3700   49.5960 C   0  0  0  0  0  0  0  0  0  0  0  0
   63.3500   33.6020   48.5320 C   0  0  0  0  0  0  0  0  0  0  0  0
   62.5830   33.5020   47.2390 C   0  0  0  0  0  0  0  0  0  0  0  0
   63.0030   34.1240   46.2270 O   0  0  0  0  0  0  0  0  0  0  0  0
   61.4610   32.6220   47.0910 N   0  0  0  0  0  0  0  0  0  0  0  0
   60.2500   32.9140   46.3860 C   0  0  0  0  0  0  0  0  0  0  0  0
   59.9680   34.2140   45.9150 C   0  0  0  0  0  0  0  0  0  0  0  0
   58.7880   34.4740   45.1910 C   0  0  0  0  0  0  0  0  0  0  0  0
   57.8790   33.4410   44.9140 C   0  0  0  0  0  0  0  0  0  0  0  0
   58.1810   32.1600   45.3710 C   0  0  0  0  0  0  0  0  0  0  0  0
   59.3400   31.8930   46.0820 C   0  0  0  0  0  0  0  0  0  0  0  0
   59.3350   30.4650   46.4390 C   0  0  0  0  0  0  0  0  0  0  0  0
   60.2520   29.7110   47.1750 C   0  0  0  0  0  0  0  0  0  0  0  0
   59.9800   28.3500   47.3870 C   0  0  0  0  0  0  0  0  0  0  0  0
   58.8030   27.7670   46.8820 C   0  0  0  0  0  0  0  0  0  0  0  0
   57.8710   28.5430   46.1590 C   0  0  0  0  0  0  0  0  0  0  0  0
   56.6730   27.9780   45.6080 N   0  0  0  0  0  0  0  0  0  0  0  0
   56.2540   26.6170   45.7640 C   0  0  0  0  0  0  0  0  0  0  0  0
   55.1160   26.3460   46.2370 O   0  0  0  0  0  0  0  0  0  0  0  0
   57.1770   25.5080   45.3670 C   0  0  0  0  0  0  0  0  0  0  0  0
   56.4200   24.4170   44.5990 C   0  0  0  0  0  0  0  0  0  0  0  0
   57.3430   23.6370   43.7410 N   0  0  0  0  0  0  0  0  0  0  0  0
   56.6300   22.5880   42.9890 C   0  0  0  0  0  0  0  0  0  0  0  0
   56.7910   21.2670   43.7370 C   0  0  0  0  0  0  0  0  0  0  0  0
   57.7490   21.5550   44.8760 C   0  0  0  0  0  0  0  0  0  0  0  0
   58.3360   22.9120   44.5460 C   0  0  0  0  0  0  0  0  0  0  0  0
   58.1780   29.8890   45.9370 C   0  0  0  0  0  0  0  0  0  0  0  0
   57.4150   30.9250   45.2460 C   0  0  0  0  0  0  0  0  0  0  0  0
   56.3080   30.7840   44.6630 O   0  0  0  0  0  0  0  0  0  0  0  0
   61.9740   32.0360   49.9840 C   0  0  0  0  0  0  0  0  0  0  0  0
   60.8160   31.1270   50.4140 C   0  0  0  0  0  0  0  0  0  0  0  0
   58.6130   31.1430   51.6100 H   0  0  0  0  0  0  0  0  0  0  0  0
   57.5110   31.6625   50.2901 H   0  0  0  0  0  0  0  0  0  0  0  0
   58.1912   30.0000   50.2901 H   0  0  0  0  0  0  0  0  0  0  0  0
   59.8003   33.1688   48.4543 H   0  0  0  0  0  0  0  0  0  0  0  0
   58.4064   33.2810   49.6172 H   0  0  0  0  0  0  0  0  0  0  0  0
   60.2177   34.8782   50.1746 H   0  0  0  0  0  0  0  0  0  0  0  0
   59.9415   33.6307   51.4685 H   0  0  0  0  0  0  0  0  0  0  0  0
   61.8856   35.0890   49.0996 H   0  0  0  0  0  0  0  0  0  0  0  0
   63.2580   34.9001   50.2543 H   0  0  0  0  0  0  0  0  0  0  0  0
   64.2985   34.1271   48.3460 H   0  0  0  0  0  0  0  0  0  0  0  0
   63.5348   32.5838   48.9051 H   0  0  0  0  0  0  0  0  0  0  0  0
   60.6761   35.0317   46.1150 H   0  0  0  0  0  0  0  0  0  0  0  0
   58.5772   35.4949   44.8398 H   0  0  0  0  0  0  0  0  0  0  0  0
   56.9541   33.6374   44.3519 H   0  0  0  0  0  0  0  0  0  0  0  0
   61.1653   30.1724   47.5788 H   0  0  0  0  0  0  0  0  0  0  0  0
   60.6937   27.7336   47.9532 H   0  0  0  0  0  0  0  0  0  0  0  0
   58.6075   26.6979   47.0519 H   0  0  0  0  0  0  0  0  0  0  0  0
   57.9733   25.9138   44.7257 H   0  0  0  0  0  0  0  0  0  0  0  0
   57.6068   25.0644   46.2772 H   0  0  0  0  0  0  0  0  0  0  0  0
   55.9375   23.7390   45.3184 H   0  0  0  0  0  0  0  0  0  0  0  0
   55.6658   24.8972   43.9582 H   0  0  0  0  0  0  0  0  0  0  0  0
   55.5631   22.8448   42.9134 H   0  0  0  0  0  0  0  0  0  0  0  0
   57.0452   22.5013   41.9740 H   0  0  0  0  0  0  0  0  0  0  0  0
   55.8208   20.9271   44.1284 H   0  0  0  0  0  0  0  0  0  0  0  0
   57.1700   20.4712   43.0789 H   0  0  0  0  0  0  0  0  0  0  0  0
   57.2129   21.5866   45.8360 H   0  0  0  0  0  0  0  0  0  0  0  0
   58.5220   20.7791   44.9779 H   0  0  0  0  0  0  0  0  0  0  0  0
   58.5457   23.4663   45.4727 H   0  0  0  0  0  0  0  0  0  0  0  0
   59.2797   22.8023   43.9916 H   0  0  0  0  0  0  0  0  0  0  0  0
   62.0655   32.0052   48.8882 H   0  0  0  0  0  0  0  0  0  0  0  0
   62.8956   31.6732   50.4624 H   0  0  0  0  0  0  0  0  0  0  0  0
   61.0526   30.0891   50.1368 H   0  0  0  0  0  0  0  0  0  0  0  0
   60.6875   31.2180   51.5027 H   0  0  0  0  0  0  0  0  0  0  0  0
  1  2  1  0
  2  3  1  0
  3  4  1  0
  4  5  1  0
  5  6  1  0
  6  7  1  0
  7  8  1  0
  8  9  2  0
  8 10  1  0
 10 11  1  0
 11 12  2  0
 12 13  1  0
 13 14  2  0
 14 15  1  0
 15 16  2  0
 16 17  1  0
 17 18  2  0
 18 19  1  0
 19 20  2  0
 20 21  1  0
 21 22  1  0
 22 23  1  0
 23 24  2  0
 23 25  1  0
 25 26  1  0
 26 27  1  0
 27 28  1  0
 28 29  1  0
 29 30  1  0
 30 31  1  0
 21 32  2  0
 32 33  1  0
 33 34  2  0
  5 35  1  0
 35 36  1  0
 36  2  1  0
 16 11  1  0
 32 17  1  0
 33 15  1  0
 31 27  1  0
  1 37  1  0
  1 38  1  0
  1 39  1  0
  3 40  1  0
  3 41  1  0
  4 42  1  0
  4 43  1  0
  6 44  1  0
  6 45  1  0
  7 46  1  0
  7 47  1  0
 12 48  1  0
 13 49  1  0
 14 50  1  0
 18 51  1  0
 19 52  1  0
 20 53  1  0
 25 54  1  0
 25 55  1  0
 26 56  1  0
 26 57  1  0
 28 58  1  0
 28 59  1  0
 29 60  1  0
 29 61  1  0
 30 62  1  0
 30 63  1  0
 31 64  1  0
 31 65  1  0
 35 66  1  0
 35 67  1  0
 36 68  1  0
 36 69  1  0
M  CHG  2  10  -1  22  -1
M  END
>  <UniqueID>  (9) 
9

>  <SMILES>  (9) 
CN1CCN(CCC(=O)[N-]c2cccc3c2-c2cccc([N-]C(=O)CCN4CCCC4)c2C3=O)CC1

>  <Energy>  (9) 
126.04083914999504

>  <Genealogy>  (9) 
CN1CCN(CCC(=O)[N-]c2cccc3c2-c2cccc([N-]C(=O)CCN4CCCC4)c2C3=O)CC1 (protonated)
CN1CCN(CCC(=O)[N-]c2cccc3c2-c2cccc([N-]C(=O)CCN4CCCC4)c2C3=O)CC1 (3D coordinates assigned)
CN1CCN(CCC(=O)[N-]c2cccc3c2-c2cccc([N-]C(=O)CCN4CCCC4)c2C3=O)CC1 (nonaromatic ring conformer: 126.04083914999504 kcal/mol)

>  <smiles>  (9) 
CN1CCN(CCC(=O)Nc2cccc3c2-c2cccc(NC(=O)CCN4CCCC4)c2C3=O)CC1

>  <score_type>  (9) 
oracle

>  <origin>  (9) 
adg

>  <m_score__min__energy>  (9) 
-13.1

>  <m_primary>  (9) 
energy

$$$$
9:0
     RDKit          3D

 59 61  0  0  0  0  0  0  0  0999 V2000
   59.0220   29.5850   51.5060 C   0  0  0  0  0  0  0  0  0  0  0  0
   57.7610   29.9870   51.0180 O   0  0  0  0  0  0  0  0  0  0  0  0
   57.2160   30.9760   51.8580 C   0  0  0  0  0  0  0  0  0  0  0  0
   57.9730   32.2930   51.6680 C   0  0  0  0  0  0  0  0  0  0  0  0
   58.5780   32.3730   50.3360 N   0  0  0  0  0  0  0  0  0  0  0  0
   59.2690   33.5360   49.8590 C   0  0  0  0  0  0  0  0  0  0  0  0
   59.3450   34.5580   50.5910 O   0  0  0  0  0  0  0  0  0  0  0  0
   60.0190   33.4810   48.5410 C   0  0  2  0  0  0  0  0  0  0  0  0
   59.1340   33.7170   47.3250 C   0  0  0  0  0  0  0  0  0  0  0  0
   57.8110   33.2070   47.2340 C   0  0  0  0  0  0  0  0  0  0  0  0
   57.0580   33.3810   46.0690 C   0  0  0  0  0  0  0  0  0  0  0  0
   57.6130   34.0570   44.9770 C   0  0  0  0  0  0  0  0  0  0  0  0
   58.9220   34.5680   45.0510 C   0  0  0  0  0  0  0  0  0  0  0  0
   59.6750   34.3970   46.2170 C   0  0  0  0  0  0  0  0  0  0  0  0
   60.8050   32.2260   48.3860 N   0  0  0  0  0  0  0  0  0  0  0  0
   60.1890   31.0180   47.8790 C   0  0  0  0  0  0  0  0  0  0  0  0
   59.3150   30.4300   48.5650 O   0  0  0  0  0  0  0  0  0  0  0  0
   60.5620   30.4270   46.5490 C   0  0  0  0  0  0  0  0  0  0  0  0
   59.8580   29.1630   46.3550 N   0  0  0  0  0  0  0  0  0  0  0  0
   58.4400   29.0290   46.1760 C   0  0  0  0  0  0  0  0  0  0  0  0
   57.7980   28.2930   46.9730 O   0  0  0  0  0  0  0  0  0  0  0  0
   57.7120   29.6780   45.0670 C   0  0  0  0  0  0  0  0  0  0  0  0
   56.4630   29.3250   44.5580 C   0  0  0  0  0  0  0  0  0  0  0  0
   56.0760   30.0930   43.4520 C   0  0  0  0  0  0  0  0  0  0  0  0
   57.0180   31.0430   43.0760 C   0  0  0  0  0  0  0  0  0  0  0  0
   58.3360   30.9160   44.1150 S   0  0  0  0  0  0  0  0  0  0  0  0
   62.1650   32.1250   48.8730 C   0  0  0  0  0  0  0  0  0  0  0  0
   62.4760   31.2810   49.9580 C   0  0  0  0  0  0  0  0  0  0  0  0
   63.7780   31.2270   50.4650 C   0  0  0  0  0  0  0  0  0  0  0  0
   64.1330   30.2320   51.8690 Cl  0  0  0  0  0  0  0  0  0  0  0  0
   64.7940   31.9730   49.8660 C   0  0  0  0  0  0  0  0  0  0  0  0
   64.5130   32.7820   48.7590 C   0  0  0  0  0  0  0  0  0  0  0  0
   63.2000   32.8840   48.2670 C   0  0  0  0  0  0  0  0  0  0  0  0
   62.9280   33.7790   47.0900 C   0  0  0  0  0  0  0  0  0  0  0  0
   59.0079   29.5895   52.6059 H   0  0  0  0  0  0  0  0  0  0  0  0
   59.2479   28.5703   51.1463 H   0  0  0  0  0  0  0  0  0  0  0  0
   59.7935   30.2817   51.1463 H   0  0  0  0  0  0  0  0  0  0  0  0
   56.1555   31.1248   51.6065 H   0  0  0  0  0  0  0  0  0  0  0  0
   57.3068   30.6529   52.9056 H   0  0  0  0  0  0  0  0  0  0  0  0
   57.2713   33.1308   51.7935 H   0  0  0  0  0  0  0  0  0  0  0  0
   58.7767   32.3422   52.4174 H   0  0  0  0  0  0  0  0  0  0  0  0
   58.4290   31.5720   49.6830 H   0  0  0  0  0  0  0  0  0  0  0  0
   60.7262   34.3224   48.5853 H   0  0  0  0  0  0  0  0  0  0  0  0
   57.3747   32.6697   48.0890 H   0  0  0  0  0  0  0  0  0  0  0  0
   56.0324   32.9876   46.0111 H   0  0  0  0  0  0  0  0  0  0  0  0
   57.0241   34.1895   44.0574 H   0  0  0  0  0  0  0  0  0  0  0  0
   59.3531   35.1021   44.1914 H   0  0  0  0  0  0  0  0  0  0  0  0
   60.6984   34.7970   46.2690 H   0  0  0  0  0  0  0  0  0  0  0  0
   60.2836   31.1269   45.7473 H   0  0  0  0  0  0  0  0  0  0  0  0
   61.6468   30.2464   46.5230 H   0  0  0  0  0  0  0  0  0  0  0  0
   55.8424   28.5224   44.9830 H   0  0  0  0  0  0  0  0  0  0  0  0
   55.1171   29.9569   42.9305 H   0  0  0  0  0  0  0  0  0  0  0  0
   56.9193   31.7549   42.2433 H   0  0  0  0  0  0  0  0  0  0  0  0
   61.6884   30.6599   50.4095 H   0  0  0  0  0  0  0  0  0  0  0  0
   65.8180   31.9251   50.2648 H   0  0  0  0  0  0  0  0  0  0  0  0
   65.3246   33.3415   48.2709 H   0  0  0  0  0  0  0  0  0  0  0  0
   62.6256   34.7741   47.4482 H   0  0  0  0  0  0  0  0  0  0  0  0
   63.8390   33.8700   46.4803 H   0  0  0  0  0  0  0  0  0  0  0  0
   62.1204   33.3477   46.4803 H   0  0  0  0  0  0  0  0  0  0  0  0
  1  2  1  0
  2  3  1  0
  3  4  1  0
  4  5  1  0
  5  6  1  0
  6  7  2  0
  6  8  1  0
  8  9  1  0
  9 10  2  0
 10 11  1  0
 11 12  2  0
 12 13  1  0
 13 14  2  0
  8 15  1  0
 15 16  1  0
 16 17  2  0
 16 18  1  0
 18 19  1  0
 19 20  1  0
 20 21  2  0
 20 22  1  0
 22 23  2  0
 23 24  1  0
 24 25  2  0
 25 26  1  0
 15 27  1  0
 27 28  2  0
 28 29  1  0
 29 30  1  0
 29 31  2  0
 31 32  1  0
 32 33  2  0
 33 34  1  0
 14  9  1  0
 26 22  1  0
 33 27  1  0
  1 35  1  0
  1 36  1  0
  1 37  1  0
  3 38  1  0
  3 39  1  0
  4 40  1  0
  4 41  1  0
  5 42  1  0
  8 43  1  1
 10 44  1  0
 11 45  1  0
 12 46  1  0
 13 47  1  0
 14 48  1  0
 18 49  1  0
 18 50  1  0
 23 51  1  0
 24 52  1  0
 25 53  1  0
 28 54  1  0
 31 55  1  0
 32 56  1  0
 34 57  1  0
 34 58  1  0
 34 59  1  0
M  CHG  1  19  -1
M  END
>  <UniqueID>  (10) 
10

>  <SMILES>  (10) 
COCCNC(=O)[C@H](c1ccccc1)N(C(=O)C[N-]C(=O)c1cccs1)c1cc(Cl)ccc1C

>  <Energy>  (10) 
96.15485014639545

>  <Genealogy>  (10) 
COCCNC(=O)C(c1ccccc1)N(C(=O)C[N-]C(=O)c1cccs1)c1cc(Cl)ccc1C (protonated)
COCCNC(=O)[C@H](c1ccccc1)N(C(=O)C[N-]C(=O)c1cccs1)c1cc(Cl)ccc1C (chirality)
COCCNC(=O)[C@H](c1ccccc1)N(C(=O)C[N-]C(=O)c1cccs1)c1cc(Cl)ccc1C (3D coordinates assigned)
COCCNC(=O)[C@H](c1ccccc1)N(C(=O)C[N-]C(=O)c1cccs1)c1cc(Cl)ccc1C (optimized conformer: 96.15485014639545 kcal/mol)

>  <smiles>  (10) 
COCCNC(=O)C(c1ccccc1)N(C(=O)CNC(=O)c1cccs1)c1cc(Cl)ccc1C

>  <score_type>  (10) 
oracle

>  <origin>  (10) 
adg

>  <m_score__min__energy>  (10) 
-9.1699999999999999

>  <m_primary>  (10) 
energy

$$$$
10:0
     RDKit          3D

 28 30  0  0  0  0  0  0  0  0999 V2000
   58.7800   34.4910   45.3430 C   0  0  0  0  0  0  0  0  0  0  0  0
   58.7050   33.8230   44.1190 C   0  0  0  0  0  0  0  0  0  0  0  0
   58.1640   32.5360   44.0520 C   0  0  0  0  0  0  0  0  0  0  0  0
   57.6890   31.8990   45.2160 C   0  0  0  0  0  0  0  0  0  0  0  0
   57.1110   30.5340   45.1690 C   0  0  0  0  0  0  0  0  0  0  0  0
   57.7530   29.3450   45.4670 C   0  0  0  0  0  0  0  0  0  0  0  0
   56.7850   28.3760   45.2680 C   0  0  0  0  0  0  0  0  0  0  0  0
   56.9350   26.9110   45.4450 C   0  0  0  0  0  0  0  0  0  0  0  0
   58.1180   26.2440   45.0700 C   0  0  0  0  0  0  0  0  0  0  0  0
   58.2390   24.8610   45.2460 C   0  0  0  0  0  0  0  0  0  0  0  0
   57.1850   24.1300   45.7950 C   0  0  0  0  0  0  0  0  0  0  0  0
   56.0070   24.7780   46.1720 C   0  0  0  0  0  0  0  0  0  0  0  0
   55.8810   26.1590   45.9990 C   0  0  0  0  0  0  0  0  0  0  0  0
   55.6390   28.9670   44.8770 N   0  0  0  0  0  0  0  0  0  0  0  0
   55.8360   30.2750   44.8160 N   0  0  0  0  0  0  0  0  0  0  0  0
   57.7710   32.5840   46.4440 C   0  0  0  0  0  0  0  0  0  0  0  0
   58.3130   33.8720   46.5030 C   0  0  0  0  0  0  0  0  0  0  0  0
   59.2066   35.5037   45.3926 H   0  0  0  0  0  0  0  0  0  0  0  0
   59.0729   34.3113   43.2046 H   0  0  0  0  0  0  0  0  0  0  0  0
   58.1086   32.0166   43.0839 H   0  0  0  0  0  0  0  0  0  0  0  0
   58.7952   29.2024   45.7887 H   0  0  0  0  0  0  0  0  0  0  0  0
   58.9524   26.8144   44.6358 H   0  0  0  0  0  0  0  0  0  0  0  0
   59.1669   24.3492   44.9509 H   0  0  0  0  0  0  0  0  0  0  0  0
   57.2821   23.0428   45.9309 H   0  0  0  0  0  0  0  0  0  0  0  0
   55.1771   24.2007   46.6057 H   0  0  0  0  0  0  0  0  0  0  0  0
   54.9503   26.6632   46.2982 H   0  0  0  0  0  0  0  0  0  0  0  0
   57.4061   32.1025   47.3633 H   0  0  0  0  0  0  0  0  0  0  0  0
   58.3713   34.3987   47.4670 H   0  0  0  0  0  0  0  0  0  0  0  0
  1  2  2  0
  2  3  1  0
  3  4  2  0
  4  5  1  0
  5  6  1  0
  6  7  2  0
  7  8  1  0
  8  9  2  0
  9 10  1  0
 10 11  2  0
 11 12  1  0
 12 13  2  0
  7 14  1  0
 14 15  1  0
  4 16  1  0
 16 17  2  0
 17  1  1  0
 15  5  2  0
 13  8  1  0
  1 18  1  0
  2 19  1  0
  3 20  1  0
  6 21  1  0
  9 22  1  0
 10 23  1  0
 11 24  1  0
 12 25  1  0
 13 26  1  0
 16 27  1  0
 17 28  1  0
M  CHG  1  14  -1
M  END
>  <UniqueID>  (11) 
11

>  <SMILES>  (11) 
c1ccc(-c2cc(-c3ccccc3)[n-]n2)cc1

>  <Energy>  (11) 
63.1745998882218

>  <Genealogy>  (11) 
c1ccc(-c2cc(-c3ccccc3)[n-]n2)cc1 (protonated)
c1ccc(-c2cc(-c3ccccc3)[n-]n2)cc1 (3D coordinates assigned)
c1ccc(-c2cc(-c3ccccc3)[n-]n2)cc1 (optimized conformer: 63.1745998882218 kcal/mol)

>  <smiles>  (11) 
c1ccc(-c2cc(-c3ccccc3)[nH]n2)cc1

>  <score_type>  (11) 
oracle

>  <origin>  (11) 
adg

>  <m_score__min__energy>  (11) 
-8.8100000000000005

>  <m_primary>  (11) 
energy

$$$$
11:0
     RDKit          3D

 61 64  0  0  0  0  0  0  0  0999 V2000
   60.4800   32.8510   46.8590 C   0  0  0  0  0  0  0  0  0  0  0  0
   59.4740   34.0200   47.7530 S   0  0  0  0  0  0  0  0  0  0  0  0
   58.0390   33.5860   47.6510 O   0  0  0  0  0  0  0  0  0  0  0  0
   59.6240   35.3860   47.1490 O   0  0  0  0  0  0  0  0  0  0  0  0
   59.9290   34.0570   49.4240 N   0  0  0  0  0  0  0  0  0  0  0  0
   59.1790   33.3880   50.4410 C   0  0  0  0  0  0  0  0  0  0  0  0
   58.9820   34.0350   51.6650 C   0  0  0  0  0  0  0  0  0  0  0  0
   58.1790   33.4550   52.6510 C   0  0  0  0  0  0  0  0  0  0  0  0
   57.5830   32.2010   52.4310 C   0  0  0  0  0  0  0  0  0  0  0  0
   56.7020   31.5880   53.3840 N   0  0  0  0  0  0  0  0  0  0  0  0
   56.1390   30.2700   53.3380 C   0  0  0  0  0  0  0  0  0  0  0  0
   56.3120   29.4700   54.2930 O   0  0  0  0  0  0  0  0  0  0  0  0
   55.4430   29.7920   52.1270 C   0  0  0  0  0  0  0  0  0  0  0  0
   54.1310   29.5190   52.0390 C   0  0  0  0  0  0  0  0  0  0  0  0
   53.0450   30.5220   52.1040 C   0  0  0  0  0  0  0  0  0  0  0  0
   52.5320   30.8960   53.3550 C   0  0  0  0  0  0  0  0  0  0  0  0
   51.5110   31.8480   53.4410 C   0  0  0  0  0  0  0  0  0  0  0  0
   51.0080   32.4480   52.2820 C   0  0  0  0  0  0  0  0  0  0  0  0
   49.9860   33.3840   52.3760 O   0  0  0  0  0  0  0  0  0  0  0  0
   51.5390   32.1060   51.0330 C   0  0  0  0  0  0  0  0  0  0  0  0
   51.0530   32.7090   49.8810 O   0  0  0  0  0  0  0  0  0  0  0  0
   52.5640   31.1580   50.9440 C   0  0  0  0  0  0  0  0  0  0  0  0
   57.7870   31.5530   51.2070 C   0  0  0  0  0  0  0  0  0  0  0  0
   58.6010   32.1210   50.2210 C   0  0  0  0  0  0  0  0  0  0  0  0
   58.8000   31.4110   49.0330 O   0  0  0  0  0  0  0  0  0  0  0  0
   59.2840   30.0930   48.9550 C   0  0  0  0  0  0  0  0  0  0  0  0
   58.5410   29.0600   48.3510 C   0  0  0  0  0  0  0  0  0  0  0  0
   59.0580   27.7630   48.2890 C   0  0  0  0  0  0  0  0  0  0  0  0
   60.3150   27.4860   48.8250 C   0  0  0  0  0  0  0  0  0  0  0  0
   61.0660   28.5050   49.4170 C   0  0  0  0  0  0  0  0  0  0  0  0
   60.5640   29.8190   49.4660 C   0  0  0  0  0  0  0  0  0  0  0  0
   61.2960   30.8860   50.0890 N   0  0  0  0  0  0  0  0  0  0  0  0
   62.6250   31.3220   49.7710 C   0  0  0  0  0  0  0  0  0  0  0  0
   62.8610   31.9290   48.6920 O   0  0  0  0  0  0  0  0  0  0  0  0
   63.6770   31.1800   50.7320 N   0  0  0  0  0  0  0  0  0  0  0  0
   64.7980   32.0620   50.8630 C   0  0  0  0  0  0  0  0  0  0  0  0
   64.6540   33.3610   51.3840 C   0  0  0  0  0  0  0  0  0  0  0  0
   65.7680   34.1970   51.5050 C   0  0  0  0  0  0  0  0  0  0  0  0
   67.0320   33.7440   51.1160 C   0  0  0  0  0  0  0  0  0  0  0  0
   68.5490   34.8960   51.2680 Br  0  0  0  0  0  0  0  0  0  0  0  0
   67.1850   32.4430   50.6260 C   0  0  0  0  0  0  0  0  0  0  0  0
   66.0730   31.6010   50.5110 C   0  0  0  0  0  0  0  0  0  0  0  0
   61.0262   32.2163   47.5724 H   0  0  0  0  0  0  0  0  0  0  0  0
   59.8365   32.2218   46.2265 H   0  0  0  0  0  0  0  0  0  0  0  0
   61.1981   33.3935   46.2265 H   0  0  0  0  0  0  0  0  0  0  0  0
   59.4621   35.0067   51.8530 H   0  0  0  0  0  0  0  0  0  0  0  0
   58.0128   33.9816   53.6024 H   0  0  0  0  0  0  0  0  0  0  0  0
   56.0498   29.6473   51.2210 H   0  0  0  0  0  0  0  0  0  0  0  0
   53.8406   28.4661   51.9082 H   0  0  0  0  0  0  0  0  0  0  0  0
   52.9341   30.4390   54.2713 H   0  0  0  0  0  0  0  0  0  0  0  0
   51.1021   32.1259   54.4237 H   0  0  0  0  0  0  0  0  0  0  0  0
   52.9958   30.9086   49.9635 H   0  0  0  0  0  0  0  0  0  0  0  0
   57.3009   30.5845   51.0180 H   0  0  0  0  0  0  0  0  0  0  0  0
   57.5494   29.2750   47.9262 H   0  0  0  0  0  0  0  0  0  0  0  0
   58.4728   26.9601   47.8170 H   0  0  0  0  0  0  0  0  0  0  0  0
   60.7165   26.4628   48.7818 H   0  0  0  0  0  0  0  0  0  0  0  0
   62.0533   28.2793   49.8463 H   0  0  0  0  0  0  0  0  0  0  0  0
   63.6623   33.7197   51.6969 H   0  0  0  0  0  0  0  0  0  0  0  0
   65.6496   35.2139   51.9074 H   0  0  0  0  0  0  0  0  0  0  0  0
   68.1808   32.0810   50.3306 H   0  0  0  0  0  0  0  0  0  0  0  0
   66.2009   30.5725   50.1425 H   0  0  0  0  0  0  0  0  0  0  0  0
  1  2  1  0
  2  3  2  0
  2  4  2  0
  2  5  1  0
  5  6  1  0
  6  7  2  0
  7  8  1  0
  8  9  2  0
  9 10  1  0
 10 11  1  0
 11 12  2  0
 11 13  1  0
 13 14  2  3
 14 15  1  0
 15 16  2  0
 16 17  1  0
 17 18  2  0
 18 19  1  0
 18 20  1  0
 20 21  1  0
 20 22  2  0
  9 23  1  0
 23 24  2  0
 24 25  1  0
 25 26  1  0
 26 27  2  0
 27 28  1  0
 28 29  2  0
 29 30  1  0
 30 31  2  0
 31 32  1  0
 32 33  1  0
 33 34  2  0
 33 35  1  0
 35 36  1  0
 36 37  2  0
 37 38  1  0
 38 39  2  0
 39 40  1  0
 39 41  1  0
 41 42  2  0
 24  6  1  0
 31 26  1  0
 42 36  1  0
 22 15  1  0
  1 43  1  0
  1 44  1  0
  1 45  1  0
  7 46  1  0
  8 47  1  0
 13 48  1  0
 14 49  1  0
 16 50  1  0
 17 51  1  0
 22 52  1  0
 23 53  1  0
 27 54  1  0
 28 55  1  0
 29 56  1  0
 30 57  1  0
 37 58  1  0
 38 59  1  0
 41 60  1  0
 42 61  1  0
M  CHG  6   5  -1  10  -1  19  -1  21  -1  32  -1  35  -1
M  END
>  <UniqueID>  (12) 
12

>  <SMILES>  (12) 
CS(=O)(=O)[N-]c1ccc([N-]C(=O)C=Cc2ccc([O-])c([O-])c2)cc1Oc1ccccc1[N-]C(=O)[N-]c1ccc(Br)cc1

>  <Energy>  (12) 
91.61336632062807

>  <Genealogy>  (12) 
CS(=O)(=O)[N-]c1ccc([N-]C(=O)C=Cc2ccc([O-])c([O-])c2)cc1Oc1ccccc1[N-]C(=O)[N-]c1ccc(Br)cc1 (protonated)
CS(=O)(=O)[N-]c1ccc([N-]C(=O)C=Cc2ccc([O-])c([O-])c2)cc1Oc1ccccc1[N-]C(=O)[N-]c1ccc(Br)cc1 (3D coordinates assigned)
CS(=O)(=O)[N-]c1ccc([N-]C(=O)C=Cc2ccc([O-])c([O-])c2)cc1Oc1ccccc1[N-]C(=O)[N-]c1ccc(Br)cc1 (optimized conformer: 91.61336632062807 kcal/mol)

>  <smiles>  (12) 
CS(=O)(=O)Nc1ccc(NC(=O)C=Cc2ccc(O)c(O)c2)cc1Oc1ccccc1NC(=O)Nc1ccc(Br)cc1

>  <score_type>  (12) 
oracle

>  <origin>  (12) 
adg

>  <m_score__min__energy>  (12) 
-22.440000000000001

>  <m_primary>  (12) 
energy

$$$$
12:0
     RDKit          3D

 49 51  0  0  0  0  0  0  0  0999 V2000
   59.7130   34.9910   47.2770 C   0  0  0  0  0  0  0  0  0  0  0  0
   59.4590   34.6860   45.9090 O   0  0  0  0  0  0  0  0  0  0  0  0
   58.7850   33.5400   45.4640 C   0  0  0  0  0  0  0  0  0  0  0  0
   58.4310   32.4890   46.3310 C   0  0  0  0  0  0  0  0  0  0  0  0
   57.7620   31.3650   45.8380 C   0  0  0  0  0  0  0  0  0  0  0  0
   57.4380   31.2750   44.4790 C   0  0  0  0  0  0  0  0  0  0  0  0
   56.6130   29.8410   43.8730 S   0  0  0  0  0  0  0  0  0  0  0  0
   56.1850   30.0480   42.4460 O   0  0  0  0  0  0  0  0  0  0  0  0
   55.3950   29.5880   44.7140 O   0  0  0  0  0  0  0  0  0  0  0  0
   57.6730   28.4660   43.9660 N   0  0  0  0  0  0  0  0  0  0  0  0
   57.4170   27.7330   45.2080 C   0  0  0  0  0  0  0  0  0  0  0  0
   58.7410   27.3200   45.8520 C   0  0  0  0  0  0  0  0  0  0  0  0
   59.3880   28.4830   46.4700 N   0  0  0  0  0  0  0  0  0  0  0  0
   59.0410   28.8090   47.7180 N   0  0  0  0  0  0  0  0  0  0  0  0
   59.6070   29.8480   48.3910 C   0  0  0  0  0  0  0  0  0  0  0  0
   59.1790   30.1470   49.7380 N   0  0  0  0  0  0  0  0  0  0  0  0
   59.6610   29.3570   50.8790 C   0  0  0  0  0  0  0  0  0  0  0  0
   58.6520   29.4130   52.0300 C   0  0  0  0  0  0  0  0  0  0  0  0
   58.3030   30.7490   52.3310 O   0  0  0  0  0  0  0  0  0  0  0  0
   57.6070   31.3110   51.2360 C   0  0  0  0  0  0  0  0  0  0  0  0
   58.5240   31.4330   50.0160 C   0  0  0  0  0  0  0  0  0  0  0  0
   60.5950   30.6050   47.7460 C   0  0  0  0  0  0  0  0  0  0  0  0
   60.9760   30.2670   46.4520 C   0  0  0  0  0  0  0  0  0  0  0  0
   60.3650   29.1870   45.8170 C   0  0  0  0  0  0  0  0  0  0  0  0
   60.7200   28.8720   44.6470 O   0  0  0  0  0  0  0  0  0  0  0  0
   57.7870   32.3210   43.6140 C   0  0  0  0  0  0  0  0  0  0  0  0
   58.4570   33.4450   44.1060 C   0  0  0  0  0  0  0  0  0  0  0  0
   59.1410   34.3041   47.9181 H   0  0  0  0  0  0  0  0  0  0  0  0
   60.7872   34.8774   47.4847 H   0  0  0  0  0  0  0  0  0  0  0  0
   59.4069   36.0270   47.4847 H   0  0  0  0  0  0  0  0  0  0  0  0
   58.6817   32.5524   47.4002 H   0  0  0  0  0  0  0  0  0  0  0  0
   57.4888   30.5473   46.5211 H   0  0  0  0  0  0  0  0  0  0  0  0
   58.6480   28.8410   44.0030 H   0  0  0  0  0  0  0  0  0  0  0  0
   56.8588   28.3773   45.9032 H   0  0  0  0  0  0  0  0  0  0  0  0
   56.8283   26.8318   44.9815 H   0  0  0  0  0  0  0  0  0  0  0  0
   58.5485   26.5590   46.6227 H   0  0  0  0  0  0  0  0  0  0  0  0
   59.4048   26.9096   45.0768 H   0  0  0  0  0  0  0  0  0  0  0  0
   59.7955   28.3113   50.5652 H   0  0  0  0  0  0  0  0  0  0  0  0
   60.6190   29.7740   51.2231 H   0  0  0  0  0  0  0  0  0  0  0  0
   57.7457   28.8604   51.7415 H   0  0  0  0  0  0  0  0  0  0  0  0
   59.1108   28.9605   52.9215 H   0  0  0  0  0  0  0  0  0  0  0  0
   56.7525   30.6665   50.9823 H   0  0  0  0  0  0  0  0  0  0  0  0
   57.2576   32.3154   51.5173 H   0  0  0  0  0  0  0  0  0  0  0  0
   57.9269   31.7322   49.1420 H   0  0  0  0  0  0  0  0  0  0  0  0
   59.2953   32.1894   50.2231 H   0  0  0  0  0  0  0  0  0  0  0  0
   61.0642   31.4578   48.2583 H   0  0  0  0  0  0  0  0  0  0  0  0
   61.7535   30.8474   45.9336 H   0  0  0  0  0  0  0  0  0  0  0  0
   57.5332   32.2574   42.5456 H   0  0  0  0  0  0  0  0  0  0  0  0
   58.7287   34.2614   43.4208 H   0  0  0  0  0  0  0  0  0  0  0  0
  1  2  1  0
  2  3  1  0
  3  4  2  0
  4  5  1  0
  5  6  2  0
  6  7  1  0
  7  8  2  0
  7  9  2  0
  7 10  1  0
 10 11  1  0
 11 12  1  0
 12 13  1  0
 13 14  1  0
 14 15  2  0
 15 16  1  0
 16 17  1  0
 17 18  1  0
 18 19  1  0
 19 20  1  0
 20 21  1  0
 15 22  1  0
 22 23  2  0
 23 24  1  0
 24 25  2  0
  6 26  1  0
 26 27  2  0
 27  3  1  0
 24 13  1  0
 21 16  1  0
  1 28  1  0
  1 29  1  0
  1 30  1  0
  4 31  1  0
  5 32  1  0
 10 33  1  0
 11 34  1  0
 11 35  1  0
 12 36  1  0
 12 37  1  0
 17 38  1  0
 17 39  1  0
 18 40  1  0
 18 41  1  0
 20 42  1  0
 20 43  1  0
 21 44  1  0
 21 45  1  0
 22 46  1  0
 23 47  1  0
 26 48  1  0
 27 49  1  0
M  END
>  <UniqueID>  (13) 
13

>  <SMILES>  (13) 
COc1ccc(S(=O)(=O)NCCn2nc(N3CCOCC3)ccc2=O)cc1

>  <Energy>  (13) 
49.94378567694085

>  <Genealogy>  (13) 
COc1ccc(S(=O)(=O)NCCn2nc(N3CCOCC3)ccc2=O)cc1 (3D coordinates assigned)
COc1ccc(S(=O)(=O)NCCn2nc(N3CCOCC3)ccc2=O)cc1 (nonaromatic ring conformer: 49.94378567694085 kcal/mol)

>  <smiles>  (13) 
COc1ccc(S(=O)(=O)NCCn2nc(N3CCOCC3)ccc2=O)cc1

>  <score_type>  (13) 
oracle

>  <origin>  (13) 
adg

>  <m_score__min__energy>  (13) 
-8.1300000000000008

>  <m_primary>  (13) 
energy

$$$$
13:0
     RDKit          3D

 50 54  0  0  0  0  0  0  0  0999 V2000
   58.1798   21.0670   42.9749 H   0  0  0  0  0  0  0  0  0  0  0  0
   57.6680   21.8460   43.5590 C   0  0  0  0  0  0  0  0  0  0  0  0
   56.5270   22.4670   43.0470 C   0  0  0  0  0  0  0  0  0  0  0  0
   56.1417   22.1774   42.0582 H   0  0  0  0  0  0  0  0  0  0  0  0
   55.8730   23.4560   43.7880 C   0  0  0  0  0  0  0  0  0  0  0  0
   54.9728   23.9388   43.3799 H   0  0  0  0  0  0  0  0  0  0  0  0
   56.3590   23.8380   45.0530 C   0  0  0  0  0  0  0  0  0  0  0  0
   55.6680   24.8830   45.8450 C   0  0  0  0  0  0  0  0  0  0  0  0
   54.4120   24.8540   45.9580 O   0  0  0  0  0  0  0  0  0  0  0  0
   56.4320   25.8710   46.5520 N   0  0  0  0  0  0  0  0  0  0  0  0
   56.6670   27.1000   46.1900 C   0  0  0  0  0  0  0  0  0  0  0  0
   55.9060   27.7330   45.2650 N   0  0  0  0  0  0  0  0  0  0  0  0
   56.3830   28.9630   45.1610 N   0  0  0  0  0  0  0  0  0  0  0  0
   55.9000   29.9680   44.3900 C   0  0  0  0  0  0  0  0  0  0  0  0
   54.9200   29.7780   43.6200 O   0  0  0  0  0  0  0  0  0  0  0  0
   56.5090   31.2280   44.4820 C   0  0  0  0  0  0  0  0  0  0  0  0
   56.1523   32.0669   43.8664 H   0  0  0  0  0  0  0  0  0  0  0  0
   57.5920   31.4040   45.3810 C   0  0  0  0  0  0  0  0  0  0  0  0
   58.2680   32.7170   45.5420 C   0  0  0  0  0  0  0  0  0  0  0  0
   58.5790   33.1910   46.8310 C   0  0  0  0  0  0  0  0  0  0  0  0
   58.3113   32.5898   47.7124 H   0  0  0  0  0  0  0  0  0  0  0  0
   59.2250   34.4190   47.0000 C   0  0  0  0  0  0  0  0  0  0  0  0
   59.4580   34.7817   48.0120 H   0  0  0  0  0  0  0  0  0  0  0  0
   59.5750   35.1860   45.8880 C   0  0  0  0  0  0  0  0  0  0  0  0
   60.0788   36.1544   46.0236 H   0  0  0  0  0  0  0  0  0  0  0  0
   59.2850   34.7230   44.6030 C   0  0  0  0  0  0  0  0  0  0  0  0
   59.5657   35.3256   43.7266 H   0  0  0  0  0  0  0  0  0  0  0  0
   58.6390   33.4960   44.4270 C   0  0  0  0  0  0  0  0  0  0  0  0
   58.4185   33.1356   43.4114 H   0  0  0  0  0  0  0  0  0  0  0  0
   58.0120   30.3460   46.1390 N   0  0  0  0  0  0  0  0  0  0  0  0
   57.4140   29.1380   45.9960 C   0  0  0  0  0  0  0  0  0  0  0  0
   57.6420   27.9700   46.6920 C   0  0  0  0  0  0  0  0  0  0  0  0
   58.5380   27.7360   47.7430 O   0  0  0  0  0  0  0  0  0  0  0  0
   59.9100   28.0100   47.7090 C   0  0  0  0  0  0  0  0  0  0  0  0
   60.7430   27.0790   47.5360 O   0  0  0  0  0  0  0  0  0  0  0  0
   60.3820   29.3930   47.9380 C   0  0  0  0  0  0  0  0  0  0  0  0
   61.0640   30.0870   46.9210 C   0  0  0  0  0  0  0  0  0  0  0  0
   61.2448   29.5988   45.9520 H   0  0  0  0  0  0  0  0  0  0  0  0
   61.5130   31.3940   47.1360 C   0  0  0  0  0  0  0  0  0  0  0  0
   62.0448   31.9299   46.3360 H   0  0  0  0  0  0  0  0  0  0  0  0
   61.2880   32.0200   48.3630 C   0  0  0  0  0  0  0  0  0  0  0  0
   61.6422   33.0481   48.5291 H   0  0  0  0  0  0  0  0  0  0  0  0
   60.6130   31.3410   49.3800 C   0  0  0  0  0  0  0  0  0  0  0  0
   60.4364   31.8351   50.3468 H   0  0  0  0  0  0  0  0  0  0  0  0
   60.1610   30.0330   49.1710 C   0  0  0  0  0  0  0  0  0  0  0  0
   59.6301   29.5026   49.9752 H   0  0  0  0  0  0  0  0  0  0  0  0
   57.5110   23.2030   45.5590 C   0  0  0  0  0  0  0  0  0  0  0  0
   57.9023   23.4873   46.5470 H   0  0  0  0  0  0  0  0  0  0  0  0
   58.1590   22.2150   44.8140 C   0  0  0  0  0  0  0  0  0  0  0  0
   59.0584   21.7261   45.2165 H   0  0  0  0  0  0  0  0  0  0  0  0
  1  2  1  0
  2  3  2  0
  3  4  1  0
  3  5  1  0
  5  6  1  0
  5  7  2  0
  7  8  1  0
  8  9  2  0
  8 10  1  0
 10 11  2  0
 11 12  1  0
 12 13  1  0
 13 14  1  0
 14 15  2  0
 14 16  1  0
 16 17  1  0
 16 18  2  0
 18 19  1  0
 19 20  2  0
 20 21  1  0
 20 22  1  0
 22 23  1  0
 22 24  2  0
 24 25  1  0
 24 26  1  0
 26 27  1  0
 26 28  2  0
 28 29  1  0
 18 30  1  0
 30 31  1  0
 31 32  2  0
 32 33  1  0
 33 34  1  0
 34 35  2  0
 34 36  1  0
 36 37  2  0
 37 38  1  0
 37 39  1  0
 39 40  1  0
 39 41  2  0
 41 42  1  0
 41 43  1  0
 43 44  1  0
 43 45  2  0
 45 46  1  0
  7 47  1  0
 47 48  1  0
 47 49  2  0
 49 50  1  0
 49  2  1  0
 32 11  1  0
 45 36  1  0
 31 13  1  0
 28 19  1  0
M  CHG  2  12  -1  30  -1
M  END
>  <UniqueID>  (14) 
14

>  <SMILES>  (14) 
O=C(/N=c1/[n-]n2c(=O)cc(-c3ccccc3)[n-]c2c1OC(=O)c1ccccc1)c1ccccc1

>  <Energy>  (14) 
112.90892756223386

>  <Genealogy>  (14) 
O=C(N=c1[n-]n2c(=O)cc(-c3ccccc3)[n-]c2c1OC(=O)c1ccccc1)c1ccccc1 (protonated)
O=C(/N=c1/[n-]n2c(=O)cc(-c3ccccc3)[n-]c2c1OC(=O)c1ccccc1)c1ccccc1 (cis-trans isomerization)
O=C(/N=c1/[n-]n2c(=O)cc(-c3ccccc3)[n-]c2c1OC(=O)c1ccccc1)c1ccccc1 (3D coordinates assigned)
O=C(/N=c1/[n-]n2c(=O)cc(-c3ccccc3)[n-]c2c1OC(=O)c1ccccc1)c1ccccc1 (optimized conformer: 112.90892756223386 kcal/mol)

>  <smiles>  (14) 
O=C(N=c1[nH]n2c(=O)cc(-c3ccccc3)[nH]c2c1OC(=O)c1ccccc1)c1ccccc1

>  <score_type>  (14) 
oracle

>  <origin>  (14) 
adg

>  <m_score__min__energy>  (14) 
-13.26

>  <m_primary>  (14) 
energy

$$$$
14:0
     RDKit          3D

 57 60  0  0  0  0  0  0  0  0999 V2000
   61.7520   31.3840   47.5380 C   0  0  0  0  0  0  0  0  0  0  0  0
   60.7310   30.2860   47.4750 C   0  0  0  0  0  0  0  0  0  0  0  0
   60.7180   29.3910   46.3930 C   0  0  0  0  0  0  0  0  0  0  0  0
   59.7900   28.3450   46.3530 C   0  0  0  0  0  0  0  0  0  0  0  0
   58.8870   28.1610   47.4070 C   0  0  0  0  0  0  0  0  0  0  0  0
   57.9320   27.0940   47.3300 N   0  0  0  0  0  0  0  0  0  0  0  0
   57.0560   26.8230   46.2270 C   0  0  0  0  0  0  0  0  0  0  0  0
   55.9270   26.3160   46.4610 O   0  0  0  0  0  0  0  0  0  0  0  0
   57.4020   27.2150   44.8170 C   0  0  0  0  0  0  0  0  0  0  0  0
   57.0330   28.6050   44.5590 N   0  0  0  0  0  0  0  0  0  0  0  0
   57.8430   29.5840   44.1240 C   0  0  0  0  0  0  0  0  0  0  0  0
   57.0710   30.7250   44.0840 C   0  0  0  0  0  0  0  0  0  0  0  0
   57.5230   32.0920   43.6960 C   0  0  0  0  0  0  0  0  0  0  0  0
   57.2200   33.0040   44.7460 O   0  0  0  0  0  0  0  0  0  0  0  0
   58.1760   33.5960   45.5840 C   0  0  0  0  0  0  0  0  0  0  0  0
   59.0520   34.6030   45.1360 C   0  0  0  0  0  0  0  0  0  0  0  0
   59.9800   35.1670   46.0130 C   0  0  0  0  0  0  0  0  0  0  0  0
   60.0440   34.7380   47.3420 C   0  0  0  0  0  0  0  0  0  0  0  0
   59.1700   33.7410   47.8080 C   0  0  0  0  0  0  0  0  0  0  0  0
   59.2220   33.2890   49.2170 C   0  0  0  0  0  0  0  0  0  0  0  0
   60.1240   33.7340   49.9750 O   0  0  0  0  0  0  0  0  0  0  0  0
   58.2480   32.3890   49.7630 N   0  0  0  0  0  0  0  0  0  0  0  0
   58.0660   32.0820   51.1530 C   0  0  0  0  0  0  0  0  0  0  0  0
   57.5000   30.8520   51.5070 C   0  0  0  0  0  0  0  0  0  0  0  0
   57.2870   30.5300   52.8500 C   0  0  0  0  0  0  0  0  0  0  0  0
   57.6400   31.4400   53.8600 C   0  0  0  0  0  0  0  0  0  0  0  0
   57.3720   31.1160   55.3000 C   0  0  0  0  0  0  0  0  0  0  0  0
   58.1700   32.6880   53.5070 C   0  0  0  0  0  0  0  0  0  0  0  0
   58.3790   33.0100   52.1630 C   0  0  0  0  0  0  0  0  0  0  0  0
   58.2490   33.1670   46.9160 C   0  0  0  0  0  0  0  0  0  0  0  0
   55.8310   30.4180   44.5170 N   0  0  0  0  0  0  0  0  0  0  0  0
   55.8370   29.1230   44.8000 N   0  0  0  0  0  0  0  0  0  0  0  0
   58.8890   29.0640   48.4820 C   0  0  0  0  0  0  0  0  0  0  0  0
   59.8160   30.1100   48.5240 C   0  0  0  0  0  0  0  0  0  0  0  0
   61.9718   31.6204   48.5896 H   0  0  0  0  0  0  0  0  0  0  0  0
   62.6740   31.0566   47.0353 H   0  0  0  0  0  0  0  0  0  0  0  0
   61.3586   32.2798   47.0353 H   0  0  0  0  0  0  0  0  0  0  0  0
   61.4410   29.5130   45.5730 H   0  0  0  0  0  0  0  0  0  0  0  0
   59.7697   27.6639   45.4895 H   0  0  0  0  0  0  0  0  0  0  0  0
   58.4848   27.0952   44.6649 H   0  0  0  0  0  0  0  0  0  0  0  0
   56.8439   26.5679   44.1243 H   0  0  0  0  0  0  0  0  0  0  0  0
   58.9057   29.4936   43.8546 H   0  0  0  0  0  0  0  0  0  0  0  0
   58.6086   32.0834   43.5187 H   0  0  0  0  0  0  0  0  0  0  0  0
   57.0056   32.4038   42.7767 H   0  0  0  0  0  0  0  0  0  0  0  0
   59.0050   34.9463   44.0920 H   0  0  0  0  0  0  0  0  0  0  0  0
   60.6635   35.9519   45.6571 H   0  0  0  0  0  0  0  0  0  0  0  0
   60.7817   35.1828   48.0260 H   0  0  0  0  0  0  0  0  0  0  0  0
   57.2208   30.1334   50.7223 H   0  0  0  0  0  0  0  0  0  0  0  0
   56.8413   29.5605   53.1171 H   0  0  0  0  0  0  0  0  0  0  0  0
   57.9410   31.8039   55.9427 H   0  0  0  0  0  0  0  0  0  0  0  0
   56.2972   31.2257   55.5066 H   0  0  0  0  0  0  0  0  0  0  0  0
   57.6813   30.0808   55.5066 H   0  0  0  0  0  0  0  0  0  0  0  0
   58.4226   33.4174   54.2907 H   0  0  0  0  0  0  0  0  0  0  0  0
   58.7903   33.9940   51.8936 H   0  0  0  0  0  0  0  0  0  0  0  0
   57.5766   32.3706   47.2676 H   0  0  0  0  0  0  0  0  0  0  0  0
   58.1576   28.9481   49.2954 H   0  0  0  0  0  0  0  0  0  0  0  0
   59.8279   30.7974   49.3826 H   0  0  0  0  0  0  0  0  0  0  0  0
  1  2  1  0
  2  3  2  0
  3  4  1  0
  4  5  2  0
  5  6  1  0
  6  7  1  0
  7  8  2  0
  7  9  1  0
  9 10  1  0
 10 11  1  0
 11 12  2  0
 12 13  1  0
 13 14  1  0
 14 15  1  0
 15 16  2  0
 16 17  1  0
 17 18  2  0
 18 19  1  0
 19 20  1  0
 20 21  2  0
 20 22  1  0
 22 23  1  0
 23 24  2  0
 24 25  1  0
 25 26  2  0
 26 27  1  0
 26 28  1  0
 28 29  2  0
 19 30  2  0
 12 31  1  0
 31 32  2  0
  5 33  1  0
 33 34  2  0
 34  2  1  0
 32 10  1  0
 30 15  1  0
 29 23  1  0
  1 35  1  0
  1 36  1  0
  1 37  1  0
  3 38  1  0
  4 39  1  0
  9 40  1  0
  9 41  1  0
 11 42  1  0
 13 43  1  0
 13 44  1  0
 16 45  1  0
 17 46  1  0
 18 47  1  0
 24 48  1  0
 25 49  1  0
 27 50  1  0
 27 51  1  0
 27 52  1  0
 28 53  1  0
 29 54  1  0
 30 55  1  0
 33 56  1  0
 34 57  1  0
M  CHG  2   6  -1  22  -1
M  END
>  <UniqueID>  (15) 
15

>  <SMILES>  (15) 
Cc1ccc([N-]C(=O)Cn2cc(COc3cccc(C(=O)[N-]c4ccc(C)cc4)c3)nn2)cc1

>  <Energy>  (15) 
103.6410529643778

>  <Genealogy>  (15) 
Cc1ccc([N-]C(=O)Cn2cc(COc3cccc(C(=O)[N-]c4ccc(C)cc4)c3)nn2)cc1 (protonated)
Cc1ccc([N-]C(=O)Cn2cc(COc3cccc(C(=O)[N-]c4ccc(C)cc4)c3)nn2)cc1 (3D coordinates assigned)
Cc1ccc([N-]C(=O)Cn2cc(COc3cccc(C(=O)[N-]c4ccc(C)cc4)c3)nn2)cc1 (optimized conformer: 103.6410529643778 kcal/mol)

>  <smiles>  (15) 
Cc1ccc(NC(=O)Cn2cc(COc3cccc(C(=O)Nc4ccc(C)cc4)c3)nn2)cc1

>  <score_type>  (15) 
oracle

>  <origin>  (15) 
adg

>  <m_score__min__energy>  (15) 
-11.98

>  <m_primary>  (15) 
energy

$$$$
15:0
     RDKit          3D

 44 45  0  0  0  0  0  0  0  0999 V2000
   54.7090   29.8610   45.5700 H   0  0  0  0  0  0  0  0  0  0  0  0
   55.1470   29.3110   44.8000 N   0  0  0  0  0  0  0  0  0  0  0  0
   56.6930   30.0160   44.4800 S   0  0  0  0  0  0  0  0  0  0  0  0
   56.6770   31.4610   44.8870 O   0  0  0  0  0  0  0  0  0  0  0  0
   56.9730   29.9200   43.0060 O   0  0  0  0  0  0  0  0  0  0  0  0
   57.9410   29.1670   45.3890 C   0  0  0  0  0  0  0  0  0  0  0  0
   58.2970   27.8630   45.0290 C   0  0  0  0  0  0  0  0  0  0  0  0
   57.8171   27.3834   44.1632 H   0  0  0  0  0  0  0  0  0  0  0  0
   59.2600   27.1670   45.7650 C   0  0  0  0  0  0  0  0  0  0  0  0
   59.5370   26.1433   45.4729 H   0  0  0  0  0  0  0  0  0  0  0  0
   59.8780   27.7690   46.8790 C   0  0  0  0  0  0  0  0  0  0  0  0
   60.8470   27.0990   47.6430 O   0  0  0  0  0  0  0  0  0  0  0  0
   60.7230   26.8090   49.0340 C   0  0  0  0  0  0  0  0  0  0  0  0
   61.0888   27.6644   49.6209 H   0  0  0  0  0  0  0  0  0  0  0  0
   59.6665   26.6226   49.2769 H   0  0  0  0  0  0  0  0  0  0  0  0
   61.3181   25.9164   49.2769 H   0  0  0  0  0  0  0  0  0  0  0  0
   59.5290   29.0860   47.2360 C   0  0  0  0  0  0  0  0  0  0  0  0
   60.1360   29.7030   48.3840 N   0  0  0  0  0  0  0  0  0  0  0  0
   61.1640   29.5890   48.5270 H   0  0  0  0  0  0  0  0  0  0  0  0
   59.3850   30.3880   49.4000 C   0  0  0  0  0  0  0  0  0  0  0  0
   58.4670   29.6670   50.1720 C   0  0  0  0  0  0  0  0  0  0  0  0
   58.3227   28.5923   49.9873 H   0  0  0  0  0  0  0  0  0  0  0  0
   57.7530   30.2860   51.1480 N   0  0  0  0  0  0  0  0  0  0  0  0
   57.9140   31.6060   51.4180 C   0  0  0  0  0  0  0  0  0  0  0  0
   57.3131   32.0808   52.2076 H   0  0  0  0  0  0  0  0  0  0  0  0
   58.8390   32.3640   50.6980 C   0  0  0  0  0  0  0  0  0  0  0  0
   58.9739   33.4316   50.9259 H   0  0  0  0  0  0  0  0  0  0  0  0
   59.5990   31.7580   49.6790 C   0  0  0  0  0  0  0  0  0  0  0  0
   60.5210   32.3970   49.0130 N   0  0  0  0  0  0  0  0  0  0  0  0
   62.1010   31.8480   48.5290 S   0  0  0  0  0  0  0  0  0  0  0  0
   62.6380   30.8400   49.5080 O   0  0  0  0  0  0  0  0  0  0  0  0
   61.9590   31.1620   47.2000 O   0  0  0  0  0  0  0  0  0  0  0  0
   63.2480   33.2150   48.3210 C   0  0  0  0  0  0  0  0  0  0  0  0
   64.2481   32.8629   48.6139 H   0  0  0  0  0  0  0  0  0  0  0  0
   62.8930   34.3960   49.2320 C   0  0  0  0  0  0  0  0  0  0  0  0
   62.9855   34.0883   50.2840 H   0  0  0  0  0  0  0  0  0  0  0  0
   63.5795   35.2321   49.0328 H   0  0  0  0  0  0  0  0  0  0  0  0
   61.8593   34.7150   49.0328 H   0  0  0  0  0  0  0  0  0  0  0  0
   63.2870   33.6560   46.8550 C   0  0  0  0  0  0  0  0  0  0  0  0
   63.3838   34.7505   46.8038 H   0  0  0  0  0  0  0  0  0  0  0  0
   64.1473   33.1880   46.3541 H   0  0  0  0  0  0  0  0  0  0  0  0
   62.3580   33.3462   46.3541 H   0  0  0  0  0  0  0  0  0  0  0  0
   58.5560   29.7750   46.4910 C   0  0  0  0  0  0  0  0  0  0  0  0
   58.2754   30.7998   46.7757 H   0  0  0  0  0  0  0  0  0  0  0  0
  1  2  1  0
  2  3  1  0
  3  4  2  0
  3  5  2  0
  3  6  1  0
  6  7  2  0
  7  8  1  0
  7  9  1  0
  9 10  1  0
  9 11  2  0
 11 12  1  0
 12 13  1  0
 13 14  1  0
 13 15  1  0
 13 16  1  0
 11 17  1  0
 17 18  1  0
 18 19  1  0
 18 20  1  0
 20 21  2  0
 21 22  1  0
 21 23  1  0
 23 24  1  0
 24 25  1  0
 24 26  2  0
 26 27  1  0
 26 28  1  0
 28 29  2  0
 29 30  1  0
 30 31  2  0
 30 32  2  0
 30 33  1  0
 33 34  1  0
 33 35  1  0
 35 36  1  0
 35 37  1  0
 35 38  1  0
 33 39  1  0
 39 40  1  0
 39 41  1  0
 39 42  1  0
 17 43  2  0
 43 44  1  0
 43  6  1  0
 28 20  1  0
M  CHG  2   2  -1  23  -1
M  END
>  <UniqueID>  (16) 
16

>  <SMILES>  (16) 
COc1ccc(S([NH-])(=O)=O)cc1Nc1c[n-]cc/c1=N\S(=O)(=O)C(C)C

>  <Energy>  (16) 
47.42897893171827

>  <Genealogy>  (16) 
COc1ccc(S([NH-])(=O)=O)cc1Nc1c[n-]ccc1=NS(=O)(=O)C(C)C (protonated)
COc1ccc(S([NH-])(=O)=O)cc1Nc1c[n-]cc/c1=N\S(=O)(=O)C(C)C (cis-trans isomerization)
COc1ccc(S([NH-])(=O)=O)cc1Nc1c[n-]cc/c1=N\S(=O)(=O)C(C)C (3D coordinates assigned)
COc1ccc(S([NH-])(=O)=O)cc1Nc1c[n-]cc/c1=N\S(=O)(=O)C(C)C (optimized conformer: 47.42897893171827 kcal/mol)

>  <smiles>  (16) 
COc1ccc(S(N)(=O)=O)cc1Nc1c[nH]ccc1=NS(=O)(=O)C(C)C

>  <score_type>  (16) 
oracle

>  <origin>  (16) 
adg

>  <m_score__min__energy>  (16) 
-11.199999999999999

>  <m_primary>  (16) 
energy

$$$$
16:0
     RDKit          3D

 50 52  0  0  0  0  0  0  0  0999 V2000
   56.4070   29.7180   42.7520 C   0  0  0  0  0  0  0  0  0  0  0  0
   56.1030   29.8840   44.2090 C   0  0  0  0  0  0  0  0  0  0  0  0
   56.1810   31.0310   44.7240 O   0  0  0  0  0  0  0  0  0  0  0  0
   55.7170   28.7810   45.0350 N   0  0  0  0  0  0  0  0  0  0  0  0
   56.7880   27.5340   45.5900 S   0  0  0  0  0  0  0  0  0  0  0  0
   55.9980   26.5370   46.3900 O   0  0  0  0  0  0  0  0  0  0  0  0
   57.3890   26.8140   44.4140 O   0  0  0  0  0  0  0  0  0  0  0  0
   58.0520   28.2120   46.6140 C   0  0  0  0  0  0  0  0  0  0  0  0
   58.7440   27.3830   47.5070 C   0  0  0  0  0  0  0  0  0  0  0  0
   59.7870   27.8970   48.2820 C   0  0  0  0  0  0  0  0  0  0  0  0
   60.1220   29.2590   48.2030 C   0  0  0  0  0  0  0  0  0  0  0  0
   61.2050   29.8130   48.9630 N   0  0  0  0  0  0  0  0  0  0  0  0
   61.2110   30.0890   50.3720 C   0  0  0  0  0  0  0  0  0  0  0  0
   60.1130   30.1050   50.9910 O   0  0  0  0  0  0  0  0  0  0  0  0
   62.4840   30.3050   51.1440 C   0  0  0  0  0  0  0  0  0  0  0  0
   63.0280   31.6350   50.8620 N   0  0  0  0  0  0  0  0  0  0  0  0
   62.8790   32.3250   49.6090 C   0  0  0  0  0  0  0  0  0  0  0  0
   63.8690   32.1740   48.6260 C   0  0  0  0  0  0  0  0  0  0  0  0
   63.7570   32.8350   47.4020 C   0  0  0  0  0  0  0  0  0  0  0  0
   62.6570   33.6530   47.1420 C   0  0  0  0  0  0  0  0  0  0  0  0
   61.6730   33.8440   48.1270 C   0  0  0  0  0  0  0  0  0  0  0  0
   60.5540   34.6610   47.9050 O   0  0  0  0  0  0  0  0  0  0  0  0
   59.4790   34.3530   47.0580 C   0  0  0  0  0  0  0  0  0  0  0  0
   59.4720   34.8790   45.7590 C   0  0  0  0  0  0  0  0  0  0  0  0
   58.4260   34.5780   44.8810 C   0  0  0  0  0  0  0  0  0  0  0  0
   57.3850   33.7410   45.2930 C   0  0  0  0  0  0  0  0  0  0  0  0
   57.3940   33.1960   46.5800 C   0  0  0  0  0  0  0  0  0  0  0  0
   58.4390   33.4950   47.4600 C   0  0  0  0  0  0  0  0  0  0  0  0
   61.7840   33.1740   49.3510 C   0  0  0  0  0  0  0  0  0  0  0  0
   59.4400   30.0810   47.2990 C   0  0  0  0  0  0  0  0  0  0  0  0
   58.4080   29.5640   46.5100 C   0  0  0  0  0  0  0  0  0  0  0  0
   57.3670   29.1938   42.6351 H   0  0  0  0  0  0  0  0  0  0  0  0
   55.6082   29.1309   42.2753 H   0  0  0  0  0  0  0  0  0  0  0  0
   56.4691   30.7074   42.2753 H   0  0  0  0  0  0  0  0  0  0  0  0
   58.4649   26.3229   47.5983 H   0  0  0  0  0  0  0  0  0  0  0  0
   60.3476   27.2329   48.9562 H   0  0  0  0  0  0  0  0  0  0  0  0
   62.2750   30.2189   52.2205 H   0  0  0  0  0  0  0  0  0  0  0  0
   63.2198   29.5452   50.8419 H   0  0  0  0  0  0  0  0  0  0  0  0
   63.6140   32.0810   51.6030 H   0  0  0  0  0  0  0  0  0  0  0  0
   64.7393   31.5302   48.8215 H   0  0  0  0  0  0  0  0  0  0  0  0
   64.5394   32.7106   46.6389 H   0  0  0  0  0  0  0  0  0  0  0  0
   62.5599   34.1489   46.1650 H   0  0  0  0  0  0  0  0  0  0  0  0
   60.2933   35.5318   45.4284 H   0  0  0  0  0  0  0  0  0  0  0  0
   58.4224   35.0002   43.8653 H   0  0  0  0  0  0  0  0  0  0  0  0
   56.5587   33.5113   44.6042 H   0  0  0  0  0  0  0  0  0  0  0  0
   56.5784   32.5313   46.9010 H   0  0  0  0  0  0  0  0  0  0  0  0
   58.4478   33.0581   48.4695 H   0  0  0  0  0  0  0  0  0  0  0  0
   61.0088   33.3115   50.1192 H   0  0  0  0  0  0  0  0  0  0  0  0
   59.7178   31.1415   47.2085 H   0  0  0  0  0  0  0  0  0  0  0  0
   57.8742   30.2195   45.8061 H   0  0  0  0  0  0  0  0  0  0  0  0
  1  2  1  0
  2  3  2  0
  2  4  1  0
  4  5  1  0
  5  6  2  0
  5  7  2  0
  5  8  1  0
  8  9  2  0
  9 10  1  0
 10 11  2  0
 11 12  1  0
 12 13  1  0
 13 14  2  0
 13 15  1  0
 15 16  1  0
 16 17  1  0
 17 18  2  0
 18 19  1  0
 19 20  2  0
 20 21  1  0
 21 22  1  0
 22 23  1  0
 23 24  2  0
 24 25  1  0
 25 26  2  0
 26 27  1  0
 27 28  2  0
 21 29  2  0
 11 30  1  0
 30 31  2  0
 31  8  1  0
 29 17  1  0
 28 23  1  0
  1 32  1  0
  1 33  1  0
  1 34  1  0
  9 35  1  0
 10 36  1  0
 15 37  1  0
 15 38  1  0
 16 39  1  0
 18 40  1  0
 19 41  1  0
 20 42  1  0
 24 43  1  0
 25 44  1  0
 26 45  1  0
 27 46  1  0
 28 47  1  0
 29 48  1  0
 30 49  1  0
 31 50  1  0
M  CHG  2   4  -1  12  -1
M  END
>  <UniqueID>  (17) 
17

>  <SMILES>  (17) 
CC(=O)[N-]S(=O)(=O)c1ccc([N-]C(=O)CNc2cccc(Oc3ccccc3)c2)cc1

>  <Energy>  (17) 
61.22164314554778

>  <Genealogy>  (17) 
CC(=O)[N-]S(=O)(=O)c1ccc([N-]C(=O)CNc2cccc(Oc3ccccc3)c2)cc1 (protonated)
CC(=O)[N-]S(=O)(=O)c1ccc([N-]C(=O)CNc2cccc(Oc3ccccc3)c2)cc1 (3D coordinates assigned)
CC(=O)[N-]S(=O)(=O)c1ccc([N-]C(=O)CNc2cccc(Oc3ccccc3)c2)cc1 (optimized conformer: 61.22164314554778 kcal/mol)

>  <smiles>  (17) 
CC(=O)NS(=O)(=O)c1ccc(NC(=O)CNc2cccc(Oc3ccccc3)c2)cc1

>  <score_type>  (17) 
oracle

>  <origin>  (17) 
adg

>  <m_score__min__energy>  (17) 
-12.85

>  <m_primary>  (17) 
energy

$$$$
17:0
     RDKit          3D

 23 24  0  0  0  0  0  0  0  0999 V2000
   49.9210   33.0370   53.1600 C   0  0  0  0  0  0  0  0  0  0  0  0
   50.7960   33.1820   52.0030 N   0  0  0  0  0  0  0  0  0  0  0  0
   51.3660   32.0940   51.2660 C   0  0  0  0  0  0  0  0  0  0  0  0
   51.0310   31.9370   50.0610 O   0  0  0  0  0  0  0  0  0  0  0  0
   52.2990   31.1290   51.8810 C   0  0  0  0  0  0  0  0  0  0  0  0
   51.8090   30.1480   52.7590 C   0  0  0  0  0  0  0  0  0  0  0  0
   52.6760   29.2180   53.3410 C   0  0  0  0  0  0  0  0  0  0  0  0
   54.0430   29.2490   53.0370 C   0  0  0  0  0  0  0  0  0  0  0  0
   54.9360   28.3300   53.6030 C   0  0  0  0  0  0  0  0  0  0  0  0
   56.2910   28.3830   53.2690 C   0  0  0  0  0  0  0  0  0  0  0  0
   56.7410   29.3570   52.3700 C   0  0  0  0  0  0  0  0  0  0  0  0
   57.9600   29.4140   52.0610 O   0  0  0  0  0  0  0  0  0  0  0  0
   55.8640   30.2440   51.8290 N   0  0  0  0  0  0  0  0  0  0  0  0
   54.5380   30.2180   52.1370 C   0  0  0  0  0  0  0  0  0  0  0  0
   53.6660   31.1460   51.5590 C   0  0  0  0  0  0  0  0  0  0  0  0
   50.5129   33.1351   54.0820 H   0  0  0  0  0  0  0  0  0  0  0  0
   49.1481   33.8193   53.1355 H   0  0  0  0  0  0  0  0  0  0  0  0
   49.4418   32.0472   53.1355 H   0  0  0  0  0  0  0  0  0  0  0  0
   50.7343   30.1111   52.9906 H   0  0  0  0  0  0  0  0  0  0  0  0
   52.2845   28.4620   54.0376 H   0  0  0  0  0  0  0  0  0  0  0  0
   54.5711   27.5689   54.3084 H   0  0  0  0  0  0  0  0  0  0  0  0
   56.9989   27.6651   53.7089 H   0  0  0  0  0  0  0  0  0  0  0  0
   54.0523   31.8923   50.8492 H   0  0  0  0  0  0  0  0  0  0  0  0
  1  2  1  0
  2  3  1  0
  3  4  2  0
  3  5  1  0
  5  6  2  0
  6  7  1  0
  7  8  2  0
  8  9  1  0
  9 10  2  0
 10 11  1  0
 11 12  2  0
 11 13  1  0
 13 14  1  0
 14 15  2  0
 15  5  1  0
 14  8  1  0
  1 16  1  0
  1 17  1  0
  1 18  1  0
  6 19  1  0
  7 20  1  0
  9 21  1  0
 10 22  1  0
 15 23  1  0
M  CHG  2   2  -1  13  -1
M  END
>  <UniqueID>  (18) 
18

>  <SMILES>  (18) 
C[N-]C(=O)c1ccc2ccc(=O)[n-]c2c1

>  <Energy>  (18) 
30.525645349473496

>  <Genealogy>  (18) 
C[N-]C(=O)c1ccc2ccc(=O)[n-]c2c1 (protonated)
C[N-]C(=O)c1ccc2ccc(=O)[n-]c2c1 (3D coordinates assigned)
C[N-]C(=O)c1ccc2ccc(=O)[n-]c2c1 (optimized conformer: 30.525645349473496 kcal/mol)

>  <smiles>  (18) 
CNC(=O)c1ccc2ccc(=O)[nH]c2c1

>  <score_type>  (18) 
oracle

>  <origin>  (18) 
adg

>  <m_score__min__energy>  (18) 
-10.07

>  <m_primary>  (18) 
energy

$$$$
18:0
     RDKit          3D

 25 27  0  0  0  0  0  0  0  0999 V2000
   57.4440   28.3180   45.2300 C   0  0  0  0  0  0  0  0  0  0  0  0
   58.0740   29.6230   45.4540 N   0  0  0  0  0  0  0  0  0  0  0  0
   59.3070   29.7170   46.1910 C   0  0  0  0  0  0  0  0  0  0  0  0
   59.8670   28.6720   46.6240 O   0  0  0  0  0  0  0  0  0  0  0  0
   59.9180   31.0420   46.4440 C   0  0  0  0  0  0  0  0  0  0  0  0
   61.1460   31.1460   47.1210 C   0  0  0  0  0  0  0  0  0  0  0  0
   61.7220   32.3940   47.3580 C   0  0  0  0  0  0  0  0  0  0  0  0
   61.0850   33.5580   46.9270 C   0  0  0  0  0  0  0  0  0  0  0  0
   59.8600   33.4810   46.2510 C   0  0  0  0  0  0  0  0  0  0  0  0
   59.2170   34.6500   45.8210 C   0  0  0  0  0  0  0  0  0  0  0  0
   57.9960   34.5750   45.1520 C   0  0  0  0  0  0  0  0  0  0  0  0
   57.4030   33.3360   44.9050 C   0  0  0  0  0  0  0  0  0  0  0  0
   58.0280   32.1480   45.3250 C   0  0  0  0  0  0  0  0  0  0  0  0
   59.2650   32.2160   46.0040 C   0  0  0  0  0  0  0  0  0  0  0  0
   57.4000   30.8330   45.0620 C   0  0  0  0  0  0  0  0  0  0  0  0
   56.2730   30.7750   44.4960 O   0  0  0  0  0  0  0  0  0  0  0  0
   57.2176   27.8490   46.1989 H   0  0  0  0  0  0  0  0  0  0  0  0
   56.5121   28.4535   44.6615 H   0  0  0  0  0  0  0  0  0  0  0  0
   58.1297   27.6725   44.6615 H   0  0  0  0  0  0  0  0  0  0  0  0
   61.6568   30.2352   47.4667 H   0  0  0  0  0  0  0  0  0  0  0  0
   62.6838   32.4608   47.8876 H   0  0  0  0  0  0  0  0  0  0  0  0
   61.5455   34.5385   47.1183 H   0  0  0  0  0  0  0  0  0  0  0  0
   59.6776   35.6305   46.0121 H   0  0  0  0  0  0  0  0  0  0  0  0
   57.4977   35.4968   44.8173 H   0  0  0  0  0  0  0  0  0  0  0  0
   56.4389   33.2881   44.3775 H   0  0  0  0  0  0  0  0  0  0  0  0
  1  2  1  0
  2  3  1  0
  3  4  2  0
  3  5  1  0
  5  6  1  0
  6  7  2  0
  7  8  1  0
  8  9  2  0
  9 10  1  0
 10 11  2  0
 11 12  1  0
 12 13  2  0
 13 14  1  0
 13 15  1  0
 15 16  2  0
 15  2  1  0
 14  5  2  0
 14  9  1  0
  1 17  1  0
  1 18  1  0
  1 19  1  0
  6 20  1  0
  7 21  1  0
  8 22  1  0
 10 23  1  0
 11 24  1  0
 12 25  1  0
M  END
>  <UniqueID>  (19) 
19

>  <SMILES>  (19) 
CN1C(=O)c2cccc3cccc(c23)C1=O

>  <Energy>  (19) 
33.508876904223605

>  <Genealogy>  (19) 
CN1C(=O)c2cccc3cccc(c23)C1=O (3D coordinates assigned)
CN1C(=O)c2cccc3cccc(c23)C1=O (nonaromatic ring conformer: 33.508876904223605 kcal/mol)

>  <smiles>  (19) 
CN1C(=O)c2cccc3cccc(c23)C1=O

>  <score_type>  (19) 
oracle

>  <origin>  (19) 
adg

>  <m_score__min__energy>  (19) 
-6.5

>  <m_primary>  (19) 
energy

$$$$
19:0
     RDKit          3D

 39 41  0  0  0  0  0  0  0  0999 V2000
   62.6350   30.2820   50.7700 C   0  0  0  0  0  0  0  0  0  0  0  0
   62.5710   31.0220   49.5200 N   0  0  0  0  0  0  0  0  0  0  0  0
   63.6160   31.9580   49.1500 C   0  0  0  0  0  0  0  0  0  0  0  0
   61.4670   30.8200   48.6460 C   0  0  0  0  0  0  0  0  0  0  0  0
   60.2120   30.5530   49.1300 C   0  0  0  0  0  0  0  0  0  0  0  0
   59.1100   30.3520   48.2940 C   0  0  0  0  0  0  0  0  0  0  0  0
   59.2980   30.4260   46.9250 C   0  0  0  0  0  0  0  0  0  0  0  0
   58.2030   30.2280   45.9800 C   0  0  0  0  0  0  0  0  0  0  0  0
   57.6640   29.0210   45.7350 N   0  0  0  0  0  0  0  0  0  0  0  0
   56.6670   28.8530   44.8700 N   0  0  0  0  0  0  0  0  0  0  0  0
   56.1250   29.8730   44.1790 C   0  0  0  0  0  0  0  0  0  0  0  0
   55.1720   29.7080   43.3550 O   0  0  0  0  0  0  0  0  0  0  0  0
   56.6350   31.1330   44.3880 C   0  0  0  0  0  0  0  0  0  0  0  0
   57.6700   31.3050   45.2860 C   0  0  0  0  0  0  0  0  0  0  0  0
   58.2310   32.6300   45.5270 C   0  0  0  0  0  0  0  0  0  0  0  0
   58.1170   33.1380   46.8150 C   0  0  0  0  0  0  0  0  0  0  0  0
   58.6160   34.3770   47.1250 C   0  0  0  0  0  0  0  0  0  0  0  0
   59.2340   35.1140   46.1500 C   0  0  0  0  0  0  0  0  0  0  0  0
   59.3560   34.6160   44.8530 C   0  0  0  0  0  0  0  0  0  0  0  0
   58.8530   33.3770   44.5480 C   0  0  0  0  0  0  0  0  0  0  0  0
   60.5610   30.6940   46.4390 C   0  0  0  0  0  0  0  0  0  0  0  0
   61.6330   30.8900   47.2840 C   0  0  0  0  0  0  0  0  0  0  0  0
   62.5743   30.9836   51.6150 H   0  0  0  0  0  0  0  0  0  0  0  0
   61.7947   29.5739   50.8203 H   0  0  0  0  0  0  0  0  0  0  0  0
   63.5844   29.7287   50.8203 H   0  0  0  0  0  0  0  0  0  0  0  0
   64.0771   32.3710   50.0593 H   0  0  0  0  0  0  0  0  0  0  0  0
   64.3808   31.4373   48.5551 H   0  0  0  0  0  0  0  0  0  0  0  0
   63.1824   32.7753   48.5551 H   0  0  0  0  0  0  0  0  0  0  0  0
   60.0669   30.4947   50.2188 H   0  0  0  0  0  0  0  0  0  0  0  0
   58.1160   30.1398   48.7147 H   0  0  0  0  0  0  0  0  0  0  0  0
   56.2700   27.9020   44.7020 H   0  0  0  0  0  0  0  0  0  0  0  0
   56.2223   31.9959   43.8448 H   0  0  0  0  0  0  0  0  0  0  0  0
   57.6214   32.5402   47.5941 H   0  0  0  0  0  0  0  0  0  0  0  0
   58.5209   34.7748   48.1461 H   0  0  0  0  0  0  0  0  0  0  0  0
   59.6379   36.1081   46.3922 H   0  0  0  0  0  0  0  0  0  0  0  0
   59.8543   35.2153   44.0767 H   0  0  0  0  0  0  0  0  0  0  0  0
   58.9452   32.9802   43.5262 H   0  0  0  0  0  0  0  0  0  0  0  0
   60.7166   30.7527   45.3517 H   0  0  0  0  0  0  0  0  0  0  0  0
   62.6273   31.1037   46.8649 H   0  0  0  0  0  0  0  0  0  0  0  0
  1  2  1  0
  2  3  1  0
  2  4  1  0
  4  5  2  0
  5  6  1  0
  6  7  2  0
  7  8  1  0
  8  9  2  0
  9 10  1  0
 10 11  1  0
 11 12  2  0
 11 13  1  0
 13 14  2  0
 14 15  1  0
 15 16  2  0
 16 17  1  0
 17 18  2  0
 18 19  1  0
 19 20  2  0
  7 21  1  0
 21 22  2  0
 22  4  1  0
 14  8  1  0
 20 15  1  0
  1 23  1  0
  1 24  1  0
  1 25  1  0
  3 26  1  0
  3 27  1  0
  3 28  1  0
  5 29  1  0
  6 30  1  0
 10 31  1  0
 13 32  1  0
 16 33  1  0
 17 34  1  0
 18 35  1  0
 19 36  1  0
 20 37  1  0
 21 38  1  0
 22 39  1  0
M  END
>  <smiles>  (20) 
CN(C)c1ccc(-c2n[nH]c(=O)cc2-c2ccccc2)cc1

>  <score_type>  (20) 
oracle

>  <origin>  (20) 
adg

>  <m_score__min__energy>  (20) 
-7.0899999999999999

>  <m_primary>  (20) 
energy

$$$$
20:0
     RDKit          3D

 73 78  0  0  0  0  0  0  0  0999 V2000
   57.4130   32.0480   42.0680 C   0  0  0  0  0  0  0  0  0  0  0  0
   57.9850   32.1880   43.4380 C   0  0  0  0  0  0  0  0  0  0  0  0
   58.3460   33.3680   44.0780 C   0  0  0  0  0  0  0  0  0  0  0  0
   58.8320   33.1010   45.3120 N   0  0  0  0  0  0  0  0  0  0  0  0
   59.4780   34.2810   46.4070 S   0  0  0  0  0  0  0  0  0  0  0  0
   58.4910   34.5660   47.5020 O   0  0  0  0  0  0  0  0  0  0  0  0
   59.7380   35.5650   45.6650 O   0  0  0  0  0  0  0  0  0  0  0  0
   60.9790   33.6590   47.0770 C   0  0  0  0  0  0  0  0  0  0  0  0
   60.9840   32.9870   48.3120 C   0  0  0  0  0  0  0  0  0  0  0  0
   62.1810   32.4770   48.8300 C   0  0  0  0  0  0  0  0  0  0  0  0
   63.3730   32.6240   48.1130 C   0  0  0  0  0  0  0  0  0  0  0  0
   63.3710   33.2760   46.8750 C   0  0  0  0  0  0  0  0  0  0  0  0
   62.1770   33.7860   46.3540 C   0  0  0  0  0  0  0  0  0  0  0  0
   58.7860   31.7570   45.4610 C   0  0  0  0  0  0  0  0  0  0  0  0
   59.2060   30.9840   46.5520 C   0  0  0  0  0  0  0  0  0  0  0  0
   59.0560   29.5800   46.4830 C   0  0  0  0  0  0  0  0  0  0  0  0
   59.4160   28.7680   47.6200 N   0  0  0  0  0  0  0  0  0  0  0  0
   60.3080   27.6140   47.4430 C   0  0  0  0  0  0  0  0  0  0  0  0
   60.3220   26.7120   48.6820 C   0  0  0  0  0  0  0  0  0  0  0  0
   60.5260   27.4960   49.9060 N   0  0  0  0  0  0  0  0  0  0  0  0
   61.1440   26.8940   51.0640 C   0  0  0  0  0  0  0  0  0  0  0  0
   62.1120   27.5940   51.8100 C   0  0  0  0  0  0  0  0  0  0  0  0
   62.7340   26.9920   52.9060 C   0  0  0  0  0  0  0  0  0  0  0  0
   62.3880   25.6920   53.2820 C   0  0  0  0  0  0  0  0  0  0  0  0
   61.4200   24.9920   52.5570 C   0  0  0  0  0  0  0  0  0  0  0  0
   60.8000   25.5850   51.4560 C   0  0  0  0  0  0  0  0  0  0  0  0
   59.9930   28.8650   50.0010 C   0  0  0  0  0  0  0  0  0  0  0  0
   58.9140   29.1060   48.9540 C   0  0  0  0  0  0  0  0  0  0  0  0
   58.5220   28.9870   45.3010 C   0  0  0  0  0  0  0  0  0  0  0  0
   58.4770   27.5690   45.1470 N   0  0  0  0  0  0  0  0  0  0  0  0
   57.3920   26.8200   45.7000 C   0  0  0  0  0  0  0  0  0  0  0  0
   56.2220   27.2970   45.6620 O   0  0  0  0  0  0  0  0  0  0  0  0
   57.6270   25.4660   46.3040 C   0  0  0  0  0  0  0  0  0  0  0  0
   57.4340   24.3620   45.2980 C   0  0  0  0  0  0  0  0  0  0  0  0
   58.2950   23.2540   45.2900 C   0  0  0  0  0  0  0  0  0  0  0  0
   58.1130   22.2270   44.3580 C   0  0  0  0  0  0  0  0  0  0  0  0
   57.0500   22.2770   43.4570 C   0  0  0  0  0  0  0  0  0  0  0  0
   56.1900   23.3780   43.4590 C   0  0  0  0  0  0  0  0  0  0  0  0
   56.3820   24.4220   44.3700 C   0  0  0  0  0  0  0  0  0  0  0  0
   58.1130   29.7960   44.2220 C   0  0  0  0  0  0  0  0  0  0  0  0
   58.2540   31.1760   44.3400 C   0  0  0  0  0  0  0  0  0  0  0  0
   56.3469   31.7871   42.1407 H   0  0  0  0  0  0  0  0  0  0  0  0
   57.5216   32.9992   41.5264 H   0  0  0  0  0  0  0  0  0  0  0  0
   57.9486   31.2544   41.5264 H   0  0  0  0  0  0  0  0  0  0  0  0
   58.2503   34.3741   43.6436 H   0  0  0  0  0  0  0  0  0  0  0  0
   60.0458   32.8616   48.8725 H   0  0  0  0  0  0  0  0  0  0  0  0
   62.1838   31.9606   49.8012 H   0  0  0  0  0  0  0  0  0  0  0  0
   64.3132   32.2265   48.5229 H   0  0  0  0  0  0  0  0  0  0  0  0
   64.3088   33.3876   46.3110 H   0  0  0  0  0  0  0  0  0  0  0  0
   62.1761   34.2880   45.3752 H   0  0  0  0  0  0  0  0  0  0  0  0
   59.6429   31.4594   47.4426 H   0  0  0  0  0  0  0  0  0  0  0  0
   59.9639   27.0269   46.5787 H   0  0  0  0  0  0  0  0  0  0  0  0
   61.3287   27.9914   47.2825 H   0  0  0  0  0  0  0  0  0  0  0  0
   59.3605   26.1822   48.7512 H   0  0  0  0  0  0  0  0  0  0  0  0
   61.1521   25.9970   48.5834 H   0  0  0  0  0  0  0  0  0  0  0  0
   62.3802   28.6227   51.5273 H   0  0  0  0  0  0  0  0  0  0  0  0
   63.4980   27.5428   53.4743 H   0  0  0  0  0  0  0  0  0  0  0  0
   62.8766   25.2201   54.1472 H   0  0  0  0  0  0  0  0  0  0  0  0
   61.1455   23.9694   52.8552 H   0  0  0  0  0  0  0  0  0  0  0  0
   60.0385   25.0273   50.8911 H   0  0  0  0  0  0  0  0  0  0  0  0
   59.5622   29.0143   51.0021 H   0  0  0  0  0  0  0  0  0  0  0  0
   60.8157   29.5737   49.8250 H   0  0  0  0  0  0  0  0  0  0  0  0
   58.0399   28.4786   49.1826 H   0  0  0  0  0  0  0  0  0  0  0  0
   58.6298   30.1685   48.9709 H   0  0  0  0  0  0  0  0  0  0  0  0
   59.3450   27.0800   44.8470 H   0  0  0  0  0  0  0  0  0  0  0  0
   58.6569   25.4215   46.6878 H   0  0  0  0  0  0  0  0  0  0  0  0
   56.8961   25.3218   47.1133 H   0  0  0  0  0  0  0  0  0  0  0  0
   59.1161   23.1929   46.0194 H   0  0  0  0  0  0  0  0  0  0  0  0
   58.8108   21.3770   44.3358 H   0  0  0  0  0  0  0  0  0  0  0  0
   56.8891   21.4523   42.7470 H   0  0  0  0  0  0  0  0  0  0  0  0
   55.3580   23.4241   42.7409 H   0  0  0  0  0  0  0  0  0  0  0  0
   55.7079   25.2912   44.3594 H   0  0  0  0  0  0  0  0  0  0  0  0
   57.6928   29.3483   43.3093 H   0  0  0  0  0  0  0  0  0  0  0  0
  1  2  1  0
  2  3  2  0
  3  4  1  0
  4  5  1  0
  5  6  2  0
  5  7  2  0
  5  8  1  0
  8  9  2  0
  9 10  1  0
 10 11  2  0
 11 12  1  0
 12 13  2  0
  4 14  1  0
 14 15  2  0
 15 16  1  0
 16 17  1  0
 17 18  1  0
 18 19  1  0
 19 20  1  0
 20 21  1  0
 21 22  2  0
 22 23  1  0
 23 24  2  0
 24 25  1  0
 25 26  2  0
 20 27  1  0
 27 28  1  0
 16 29  2  0
 29 30  1  0
 30 31  1  0
 31 32  2  0
 31 33  1  0
 33 34  1  0
 34 35  2  0
 35 36  1  0
 36 37  2  0
 37 38  1  0
 38 39  2  0
 29 40  1  0
 40 41  2  0
 41  2  1  0
 13  8  1  0
 41 14  1  0
 28 17  1  0
 39 34  1  0
 26 21  1  0
  1 42  1  0
  1 43  1  0
  1 44  1  0
  3 45  1  0
  9 46  1  0
 10 47  1  0
 11 48  1  0
 12 49  1  0
 13 50  1  0
 15 51  1  0
 18 52  1  0
 18 53  1  0
 19 54  1  0
 19 55  1  0
 22 56  1  0
 23 57  1  0
 24 58  1  0
 25 59  1  0
 26 60  1  0
 27 61  1  0
 27 62  1  0
 28 63  1  0
 28 64  1  0
 30 65  1  0
 33 66  1  0
 33 67  1  0
 35 68  1  0
 36 69  1  0
 37 70  1  0
 38 71  1  0
 39 72  1  0
 40 73  1  0
M  END
>  <UniqueID>  (21) 
20

>  <SMILES>  (21) 
Cc1cn(S(=O)(=O)c2ccccc2)c2cc(N3CCN(c4ccccc4)CC3)c(NC(=O)Cc3ccccc3)cc12

>  <Energy>  (21) 
129.31783483390106

>  <Genealogy>  (21) 
Cc1cn(S(=O)(=O)c2ccccc2)c2cc(N3CCN(c4ccccc4)CC3)c(NC(=O)Cc3ccccc3)cc12 (3D coordinates assigned)
Cc1cn(S(=O)(=O)c2ccccc2)c2cc(N3CCN(c4ccccc4)CC3)c(NC(=O)Cc3ccccc3)cc12 (nonaromatic ring conformer: 129.31783483390106 kcal/mol)

>  <smiles>  (21) 
Cc1cn(S(=O)(=O)c2ccccc2)c2cc(N3CCN(c4ccccc4)CC3)c(NC(=O)Cc3ccccc3)cc12

>  <score_type>  (21) 
oracle

>  <origin>  (21) 
adg

>  <m_score__min__energy>  (21) 
-11.220000000000001

>  <m_primary>  (21) 
energy

$$$$
21:0
     RDKit          3D

 54 56  0  0  0  0  0  0  0  0999 V2000
   60.1290   29.2880   44.7950 C   0  0  0  0  0  0  0  0  0  0  0  0
   59.0070   28.3870   45.2370 C   0  0  0  0  0  0  0  0  0  0  0  0
   59.3320   27.1430   45.8040 C   0  0  0  0  0  0  0  0  0  0  0  0
   58.3340   26.2700   46.2360 C   0  0  0  0  0  0  0  0  0  0  0  0
   56.9840   26.6300   46.1250 C   0  0  0  0  0  0  0  0  0  0  0  0
   55.9240   25.7500   46.5300 N   0  0  0  0  0  0  0  0  0  0  0  0
   55.1620   24.8820   45.6820 C   0  0  0  0  0  0  0  0  0  0  0  0
   53.9090   24.9920   45.6080 O   0  0  0  0  0  0  0  0  0  0  0  0
   55.8570   23.8880   44.8530 C   0  0  0  0  0  0  0  0  0  0  0  0
   57.0220   23.2090   45.1920 C   0  0  0  0  0  0  0  0  0  0  0  0
   57.4520   22.3210   44.1970 C   0  0  0  0  0  0  0  0  0  0  0  0
   56.6320   22.2990   43.0770 C   0  0  0  0  0  0  0  0  0  0  0  0
   55.3700   23.3830   43.3240 S   0  0  0  0  0  0  0  0  0  0  0  0
   56.6500   27.8570   45.5460 C   0  0  0  0  0  0  0  0  0  0  0  0
   57.6400   28.7530   45.1130 C   0  0  0  0  0  0  0  0  0  0  0  0
   57.0870   30.2820   44.3960 S   0  0  0  0  0  0  0  0  0  0  0  0
   55.6630   30.6000   44.7590 O   0  0  0  0  0  0  0  0  0  0  0  0
   57.1600   30.1580   42.9000 O   0  0  0  0  0  0  0  0  0  0  0  0
   58.1240   31.5840   44.8950 N   0  0  0  0  0  0  0  0  0  0  0  0
   57.3420   32.8110   45.0620 C   0  0  0  0  0  0  0  0  0  0  0  0
   58.2290   34.0490   44.8680 C   0  0  0  0  0  0  0  0  0  0  0  0
   59.5580   33.9520   45.6300 C   0  0  0  0  0  0  0  0  0  0  0  0
   59.4110   33.0780   46.8200 N   0  0  0  0  0  0  0  0  0  0  0  0
   59.2700   33.8800   48.0470 C   0  0  0  0  0  0  0  0  0  0  0  0
   60.5380   32.1310   46.9650 C   0  0  0  0  0  0  0  0  0  0  0  0
   60.0950   30.8950   47.6850 C   0  0  0  0  0  0  0  0  0  0  0  0
   60.9150   30.0120   48.3590 C   0  0  0  0  0  0  0  0  0  0  0  0
   60.0790   29.0240   48.8350 C   0  0  0  0  0  0  0  0  0  0  0  0
   58.8070   29.3650   48.4220 C   0  0  0  0  0  0  0  0  0  0  0  0
   58.8490   30.4850   47.7380 O   0  0  0  0  0  0  0  0  0  0  0  0
   60.6397   29.6981   45.6787 H   0  0  0  0  0  0  0  0  0  0  0  0
   60.8459   28.7118   44.1916 H   0  0  0  0  0  0  0  0  0  0  0  0
   59.7212   30.1124   44.1916 H   0  0  0  0  0  0  0  0  0  0  0  0
   60.3882   26.8538   45.9085 H   0  0  0  0  0  0  0  0  0  0  0  0
   58.6074   25.2950   46.6656 H   0  0  0  0  0  0  0  0  0  0  0  0
   57.5524   23.3542   46.1447 H   0  0  0  0  0  0  0  0  0  0  0  0
   58.3545   21.6997   44.2942 H   0  0  0  0  0  0  0  0  0  0  0  0
   56.7820   21.6786   42.1811 H   0  0  0  0  0  0  0  0  0  0  0  0
   55.5901   28.1262   45.4271 H   0  0  0  0  0  0  0  0  0  0  0  0
   58.5180   31.3180   45.8280 H   0  0  0  0  0  0  0  0  0  0  0  0
   56.5316   32.8270   44.3183 H   0  0  0  0  0  0  0  0  0  0  0  0
   56.9255   32.8297   46.0799 H   0  0  0  0  0  0  0  0  0  0  0  0
   58.4459   34.1617   43.7955 H   0  0  0  0  0  0  0  0  0  0  0  0
   57.6808   34.9157   45.2659 H   0  0  0  0  0  0  0  0  0  0  0  0
   60.3270   33.5320   44.9650 H   0  0  0  0  0  0  0  0  0  0  0  0
   59.8527   34.9586   45.9616 H   0  0  0  0  0  0  0  0  0  0  0  0
   59.3845   33.2286   48.9260 H   0  0  0  0  0  0  0  0  0  0  0  0
   60.0447   34.6607   48.0658 H   0  0  0  0  0  0  0  0  0  0  0  0
   58.2755   34.3497   48.0658 H   0  0  0  0  0  0  0  0  0  0  0  0
   60.9097   31.8551   45.9671 H   0  0  0  0  0  0  0  0  0  0  0  0
   61.3366   32.6147   47.5467 H   0  0  0  0  0  0  0  0  0  0  0  0
   62.0051   30.0819   48.4889 H   0  0  0  0  0  0  0  0  0  0  0  0
   60.3678   28.1417   49.4251 H   0  0  0  0  0  0  0  0  0  0  0  0
   57.8959   28.7861   48.6338 H   0  0  0  0  0  0  0  0  0  0  0  0
  1  2  1  0
  2  3  2  0
  3  4  1  0
  4  5  2  0
  5  6  1  0
  6  7  1  0
  7  8  2  0
  7  9  1  0
  9 10  2  0
 10 11  1  0
 11 12  2  0
 12 13  1  0
  5 14  1  0
 14 15  2  0
 15 16  1  0
 16 17  2  0
 16 18  2  0
 16 19  1  0
 19 20  1  0
 20 21  1  0
 21 22  1  0
 22 23  1  0
 23 24  1  0
 23 25  1  0
 25 26  1  0
 26 27  2  0
 27 28  1  0
 28 29  2  0
 29 30  1  0
 15  2  1  0
 30 26  1  0
 13  9  1  0
  1 31  1  0
  1 32  1  0
  1 33  1  0
  3 34  1  0
  4 35  1  0
 10 36  1  0
 11 37  1  0
 12 38  1  0
 14 39  1  0
 19 40  1  0
 20 41  1  0
 20 42  1  0
 21 43  1  0
 21 44  1  0
 22 45  1  0
 22 46  1  0
 24 47  1  0
 24 48  1  0
 24 49  1  0
 25 50  1  0
 25 51  1  0
 27 52  1  0
 28 53  1  0
 29 54  1  0
M  CHG  1   6  -1
M  END
>  <UniqueID>  (22) 
21

>  <SMILES>  (22) 
Cc1ccc([N-]C(=O)c2cccs2)cc1S(=O)(=O)NCCCN(C)Cc1ccco1

>  <Energy>  (22) 
107.62283990996343

>  <Genealogy>  (22) 
Cc1ccc([N-]C(=O)c2cccs2)cc1S(=O)(=O)NCCCN(C)Cc1ccco1 (protonated)
Cc1ccc([N-]C(=O)c2cccs2)cc1S(=O)(=O)NCCCN(C)Cc1ccco1 (3D coordinates assigned)
Cc1ccc([N-]C(=O)c2cccs2)cc1S(=O)(=O)NCCCN(C)Cc1ccco1 (optimized conformer: 107.62283990996343 kcal/mol)

>  <smiles>  (22) 
Cc1ccc(NC(=O)c2cccs2)cc1S(=O)(=O)NCCCN(C)Cc1ccco1

>  <score_type>  (22) 
oracle

>  <origin>  (22) 
adg

>  <m_score__min__energy>  (22) 
-11.109999999999999

>  <m_primary>  (22) 
energy

$$$$
22:0
     RDKit          3D

 52 55  0  0  0  0  0  0  0  0999 V2000
   62.5090   33.8360   46.7740 C   0  0  0  0  0  0  0  0  0  0  0  0
   61.0690   33.4670   46.4220 C   0  0  0  0  0  0  0  0  0  0  0  0
   60.1670   34.7000   46.3150 C   0  0  0  0  0  0  0  0  0  0  0  0
   58.5140   34.4030   47.0470 S   0  0  0  0  0  0  0  0  0  0  0  0
   58.2880   32.7840   46.2960 C   0  0  0  0  0  0  0  0  0  0  0  0
   57.9090   32.7060   44.9840 N   0  0  0  0  0  0  0  0  0  0  0  0
   57.7990   31.5000   44.3380 C   0  0  0  0  0  0  0  0  0  0  0  0
   57.4130   31.4530   42.8960 C   0  0  0  0  0  0  0  0  0  0  0  0
   58.0950   30.3410   44.9940 N   0  0  0  0  0  0  0  0  0  0  0  0
   58.4690   30.4000   46.2950 C   0  0  0  0  0  0  0  0  0  0  0  0
   58.5330   31.5840   46.9780 C   0  0  0  0  0  0  0  0  0  0  0  0
   58.8860   31.2590   48.2840 C   0  0  0  0  0  0  0  0  0  0  0  0
   58.9910   32.1270   49.4700 C   0  0  0  0  0  0  0  0  0  0  0  0
   60.0630   33.0260   49.5860 C   0  0  0  0  0  0  0  0  0  0  0  0
   60.1910   33.8260   50.7260 C   0  0  0  0  0  0  0  0  0  0  0  0
   59.2610   33.7190   51.7640 C   0  0  0  0  0  0  0  0  0  0  0  0
   58.2070   32.8060   51.6670 C   0  0  0  0  0  0  0  0  0  0  0  0
   58.0770   32.0040   50.5290 C   0  0  0  0  0  0  0  0  0  0  0  0
   59.0360   29.8740   48.3040 C   0  0  0  0  0  0  0  0  0  0  0  0
   58.7790   29.3510   47.0820 N   0  0  0  0  0  0  0  0  0  0  0  0
   58.8120   27.9550   46.7260 C   0  0  0  0  0  0  0  0  0  0  0  0
   57.6370   27.2790   46.3600 C   0  0  0  0  0  0  0  0  0  0  0  0
   57.6740   25.9270   46.0090 C   0  0  0  0  0  0  0  0  0  0  0  0
   58.8960   25.2260   46.0130 C   0  0  0  0  0  0  0  0  0  0  0  0
   58.9870   23.8690   45.6710 O   0  0  0  0  0  0  0  0  0  0  0  0
   58.1380   23.2200   44.7280 C   0  0  0  0  0  0  0  0  0  0  0  0
   60.0680   25.9020   46.3690 C   0  0  0  0  0  0  0  0  0  0  0  0
   60.0300   27.2550   46.7190 C   0  0  0  0  0  0  0  0  0  0  0  0
   62.6231   33.8652   47.8677 H   0  0  0  0  0  0  0  0  0  0  0  0
   63.1933   33.0842   46.3539 H   0  0  0  0  0  0  0  0  0  0  0  0
   62.7474   34.8243   46.3539 H   0  0  0  0  0  0  0  0  0  0  0  0
   61.0641   32.9393   45.4568 H   0  0  0  0  0  0  0  0  0  0  0  0
   60.6764   32.8296   47.2280 H   0  0  0  0  0  0  0  0  0  0  0  0
   60.6451   35.5374   46.8444 H   0  0  0  0  0  0  0  0  0  0  0  0
   60.0308   34.9312   45.2482 H   0  0  0  0  0  0  0  0  0  0  0  0
   57.7170   33.5880   44.4580 H   0  0  0  0  0  0  0  0  0  0  0  0
   56.3243   31.3204   42.8120 H   0  0  0  0  0  0  0  0  0  0  0  0
   57.7067   32.3935   42.4070 H   0  0  0  0  0  0  0  0  0  0  0  0
   57.9238   30.6104   42.4070 H   0  0  0  0  0  0  0  0  0  0  0  0
   60.8049   33.1015   48.7774 H   0  0  0  0  0  0  0  0  0  0  0  0
   61.0241   34.5399   50.8058 H   0  0  0  0  0  0  0  0  0  0  0  0
   59.3586   34.3534   52.6573 H   0  0  0  0  0  0  0  0  0  0  0  0
   57.4790   32.7183   52.4869 H   0  0  0  0  0  0  0  0  0  0  0  0
   57.2563   31.2745   50.4631 H   0  0  0  0  0  0  0  0  0  0  0  0
   59.3231   29.2874   49.1891 H   0  0  0  0  0  0  0  0  0  0  0  0
   56.6786   27.8187   46.3495 H   0  0  0  0  0  0  0  0  0  0  0  0
   56.7455   25.4081   45.7285 H   0  0  0  0  0  0  0  0  0  0  0  0
   57.3744   22.6363   45.2630 H   0  0  0  0  0  0  0  0  0  0  0  0
   57.6467   23.9749   44.0966 H   0  0  0  0  0  0  0  0  0  0  0  0
   58.7376   22.5479   44.0966 H   0  0  0  0  0  0  0  0  0  0  0  0
   61.0276   25.3643   46.3736 H   0  0  0  0  0  0  0  0  0  0  0  0
   60.9604   27.7751   46.9908 H   0  0  0  0  0  0  0  0  0  0  0  0
  1  2  1  0
  2  3  1  0
  3  4  1  0
  4  5  1  0
  5  6  2  0
  6  7  1  0
  7  8  1  0
  7  9  2  0
  9 10  1  0
 10 11  2  0
 11 12  1  0
 12 13  1  0
 13 14  2  0
 14 15  1  0
 15 16  2  0
 16 17  1  0
 17 18  2  0
 12 19  2  0
 19 20  1  0
 20 21  1  0
 21 22  2  0
 22 23  1  0
 23 24  2  0
 24 25  1  0
 25 26  1  0
 24 27  1  0
 27 28  2  0
 11  5  1  0
 18 13  1  0
 28 21  1  0
 20 10  1  0
  1 29  1  0
  1 30  1  0
  1 31  1  0
  2 32  1  0
  2 33  1  0
  3 34  1  0
  3 35  1  0
  6 36  1  0
  8 37  1  0
  8 38  1  0
  8 39  1  0
 14 40  1  0
 15 41  1  0
 16 42  1  0
 17 43  1  0
 18 44  1  0
 19 45  1  0
 22 46  1  0
 23 47  1  0
 26 48  1  0
 26 49  1  0
 26 50  1  0
 27 51  1  0
 28 52  1  0
M  CHG  1   6   1
M  END
>  <UniqueID>  (23) 
22

>  <SMILES>  (23) 
CCCSc1[nH+]c(C)nc2c1c(-c1ccccc1)cn2-c1ccc(OC)cc1

>  <Energy>  (23) 
91.88073679653019

>  <Genealogy>  (23) 
CCCSc1[nH+]c(C)nc2c1c(-c1ccccc1)cn2-c1ccc(OC)cc1 (protonated)
CCCSc1[nH+]c(C)nc2c1c(-c1ccccc1)cn2-c1ccc(OC)cc1 (3D coordinates assigned)
CCCSc1[nH+]c(C)nc2c1c(-c1ccccc1)cn2-c1ccc(OC)cc1 (optimized conformer: 91.88073679653019 kcal/mol)

>  <smiles>  (23) 
CCCSc1nc(C)nc2c1c(-c1ccccc1)cn2-c1ccc(OC)cc1

>  <score_type>  (23) 
oracle

>  <origin>  (23) 
adg

>  <m_score__min__energy>  (23) 
-7.2199999999999998

>  <m_primary>  (23) 
energy

$$$$
23:0
     RDKit          3D

 60 64  0  0  0  0  0  0  0  0999 V2000
   55.8243   29.6187   42.7678 H   0  0  0  0  0  0  0  0  0  0  0  0
   56.6000   29.6840   43.5450 C   0  0  0  0  0  0  0  0  0  0  0  0
   57.0300   28.5330   44.0850 C   0  0  0  0  0  0  0  0  0  0  0  0
   57.0254   27.6398   43.4429 H   0  0  0  0  0  0  0  0  0  0  0  0
   57.5090   28.3700   45.4730 C   0  0  0  0  0  0  0  0  0  0  0  0
   57.0580   27.4430   46.3530 N   0  0  0  0  0  0  0  0  0  0  0  0
   57.7550   27.5380   47.4820 N   0  0  0  0  0  0  0  0  0  0  0  0
   58.6560   28.5210   47.3140 C   0  0  0  0  0  0  0  0  0  0  0  0
   59.6050   28.9710   48.2260 C   0  0  0  0  0  0  0  0  0  0  0  0
   59.6820   28.5256   49.2289 H   0  0  0  0  0  0  0  0  0  0  0  0
   60.4690   30.0190   47.8260 C   0  0  0  0  0  0  0  0  0  0  0  0
   61.4740   30.5230   48.7330 N   0  0  0  0  0  0  0  0  0  0  0  0
   62.2210   29.8080   48.8930 H   0  0  0  0  0  0  0  0  0  0  0  0
   60.9830   30.6860   49.6420 H   0  0  0  0  0  0  0  0  0  0  0  0
   62.0980   31.7470   48.2620 C   0  0  0  0  0  0  0  0  0  0  0  0
   63.2750   31.6960   47.4780 C   0  0  0  0  0  0  0  0  0  0  0  0
   63.7318   30.7217   47.2499 H   0  0  0  0  0  0  0  0  0  0  0  0
   63.8650   32.8620   46.9900 C   0  0  0  0  0  0  0  0  0  0  0  0
   64.7663   32.8004   46.3624 H   0  0  0  0  0  0  0  0  0  0  0  0
   63.3150   34.1030   47.2960 C   0  0  0  0  0  0  0  0  0  0  0  0
   63.7658   35.0195   46.8876 H   0  0  0  0  0  0  0  0  0  0  0  0
   62.1940   34.1860   48.1190 C   0  0  0  0  0  0  0  0  0  0  0  0
   61.7733   35.1723   48.3645 H   0  0  0  0  0  0  0  0  0  0  0  0
   61.5930   33.0270   48.6400 C   0  0  0  0  0  0  0  0  0  0  0  0
   60.4840   33.1980   49.6100 C   0  0  0  0  0  0  0  0  0  0  0  0
   59.6400   34.1220   49.4590 O   0  0  0  0  0  0  0  0  0  0  0  0
   60.3270   32.2600   50.6820 N   0  0  0  0  0  0  0  0  0  0  0  0
   61.1060   32.3290   51.9100 C   0  0  0  0  0  0  0  0  0  0  0  0
   60.9387   31.4174   52.5025 H   0  0  0  0  0  0  0  0  0  0  0  0
   60.7941   33.2072   52.4943 H   0  0  0  0  0  0  0  0  0  0  0  0
   62.5660   32.4450   51.5690 C   0  0  0  0  0  0  0  0  0  0  0  0
   63.2100   33.6900   51.6730 C   0  0  0  0  0  0  0  0  0  0  0  0
   62.6455   34.5710   52.0124 H   0  0  0  0  0  0  0  0  0  0  0  0
   64.5620   33.8150   51.3480 C   0  0  0  0  0  0  0  0  0  0  0  0
   65.0603   34.7916   51.4374 H   0  0  0  0  0  0  0  0  0  0  0  0
   65.2820   32.7030   50.9100 C   0  0  0  0  0  0  0  0  0  0  0  0
   66.3488   32.8031   50.6610 H   0  0  0  0  0  0  0  0  0  0  0  0
   64.6510   31.4630   50.7870 C   0  0  0  0  0  0  0  0  0  0  0  0
   65.2225   30.5909   50.4367 H   0  0  0  0  0  0  0  0  0  0  0  0
   63.2870   31.3230   51.1090 C   0  0  0  0  0  0  0  0  0  0  0  0
   62.6200   30.0940   50.9800 O   0  0  0  0  0  0  0  0  0  0  0  0
   62.4680   29.1430   52.0290 C   0  0  0  0  0  0  0  0  0  0  0  0
   62.5494   29.6525   53.0005 H   0  0  0  0  0  0  0  0  0  0  0  0
   61.4817   28.6627   51.9484 H   0  0  0  0  0  0  0  0  0  0  0  0
   63.2555   28.3792   51.9484 H   0  0  0  0  0  0  0  0  0  0  0  0
   60.3480   30.5670   46.5190 C   0  0  0  0  0  0  0  0  0  0  0  0
   61.0232   31.3764   46.2043 H   0  0  0  0  0  0  0  0  0  0  0  0
   59.3750   30.0860   45.6240 C   0  0  0  0  0  0  0  0  0  0  0  0
   59.2750   30.5053   44.6120 H   0  0  0  0  0  0  0  0  0  0  0  0
   58.5430   29.0600   46.0650 C   0  0  0  0  0  0  0  0  0  0  0  0
   57.0830   31.0300   43.9090 C   0  0  0  0  0  0  0  0  0  0  0  0
   56.6510   31.5900   45.0720 N   0  0  0  0  0  0  0  0  0  0  0  0
   57.0190   32.8460   45.4460 C   0  0  0  0  0  0  0  0  0  0  0  0
   56.6640   33.2605   46.4010 H   0  0  0  0  0  0  0  0  0  0  0  0
   57.8460   33.6090   44.6200 C   0  0  0  0  0  0  0  0  0  0  0  0
   58.1545   34.6205   44.9227 H   0  0  0  0  0  0  0  0  0  0  0  0
   58.2770   33.0730   43.4050 C   0  0  0  0  0  0  0  0  0  0  0  0
   58.9221   33.6650   42.7391 H   0  0  0  0  0  0  0  0  0  0  0  0
   57.8870   31.7830   43.0370 C   0  0  0  0  0  0  0  0  0  0  0  0
   58.2066   31.3605   42.0730 H   0  0  0  0  0  0  0  0  0  0  0  0
  1  2  1  0
  2  3  2  0
  3  4  1  0
  3  5  1  0
  5  6  1  0
  6  7  1  0
  7  8  2  0
  8  9  1  0
  9 10  1  0
  9 11  2  0
 11 12  1  0
 12 13  1  0
 12 14  1  0
 12 15  1  0
 15 16  2  0
 16 17  1  0
 16 18  1  0
 18 19  1  0
 18 20  2  0
 20 21  1  0
 20 22  1  0
 22 23  1  0
 22 24  2  0
 24 25  1  0
 25 26  2  0
 25 27  1  0
 27 28  1  0
 28 29  1  0
 28 30  1  0
 28 31  1  0
 31 32  2  0
 32 33  1  0
 32 34  1  0
 34 35  1  0
 34 36  2  0
 36 37  1  0
 36 38  1  0
 38 39  1  0
 38 40  2  0
 40 41  1  0
 41 42  1  0
 42 43  1  0
 42 44  1  0
 42 45  1  0
 11 46  1  0
 46 47  1  0
 46 48  2  0
 48 49  1  0
 48 50  1  0
  2 51  1  0
 51 52  2  0
 52 53  1  0
 53 54  1  0
 53 55  2  0
 55 56  1  0
 55 57  1  0
 57 58  1  0
 57 59  2  0
 59 60  1  0
 50  5  2  0
 59 51  1  0
 50  8  1  0
 24 15  1  0
 40 31  1  0
M  CHG  3   6  -1  12   1  27  -1
M  END
>  <UniqueID>  (24) 
23

>  <SMILES>  (24) 
COc1ccccc1C[N-]C(=O)c1ccccc1[NH2+]c1ccc2c(/C=C\c3ccccn3)[n-]nc2c1

>  <Energy>  (24) 
121.21974192194365

>  <Genealogy>  (24) 
COc1ccccc1C[N-]C(=O)c1ccccc1[NH2+]c1ccc2c(C=Cc3ccccn3)[n-]nc2c1 (protonated)
COc1ccccc1C[N-]C(=O)c1ccccc1[NH2+]c1ccc2c(/C=C\c3ccccn3)[n-]nc2c1 (cis-trans isomerization)
COc1ccccc1C[N-]C(=O)c1ccccc1[NH2+]c1ccc2c(/C=C\c3ccccn3)[n-]nc2c1 (3D coordinates assigned)
COc1ccccc1C[N-]C(=O)c1ccccc1[NH2+]c1ccc2c(/C=C\c3ccccn3)[n-]nc2c1 (optimized conformer: 121.21974192194365 kcal/mol)

>  <smiles>  (24) 
COc1ccccc1CNC(=O)c1ccccc1Nc1ccc2c(C=Cc3ccccn3)[nH]nc2c1

>  <score_type>  (24) 
oracle

>  <origin>  (24) 
adg

>  <m_score__min__energy>  (24) 
-11.82

>  <m_primary>  (24) 
energy

$$$$
24:0
     RDKit          3D

 60 64  0  0  1  0  0  0  0  0999 V2000
   55.8200   29.7070   42.9340 N   0  0  0  0  0  0  0  0  0  0  0  0
   56.9690   29.4400   43.4720 C   0  0  0  0  0  0  0  0  0  0  0  0
   57.3880   28.1770   43.5800 N   0  0  0  0  0  0  0  0  0  0  0  0
   58.5500   27.8010   44.1170 C   0  0  0  0  0  0  0  0  0  0  0  0
   59.3520   28.7750   44.5810 N   0  0  0  0  0  0  0  0  0  0  0  0
   60.6100   28.3730   45.1640 C   0  0  0  0  0  0  0  0  0  0  0  0
   60.5710   28.4250   46.6580 C   0  0  0  0  0  0  0  0  0  0  0  0
   60.3310   27.2050   47.2940 C   0  0  0  0  0  0  0  0  0  0  0  0
   60.2820   27.1690   48.6720 C   0  0  0  0  0  0  0  0  0  0  0  0
   60.4770   28.3620   49.3760 C   0  0  0  0  0  0  0  0  0  0  0  0
   60.7130   29.5600   48.7370 C   0  0  0  0  0  0  0  0  0  0  0  0
   60.9040   30.7360   49.5370 N   0  0  0  0  0  0  0  0  0  0  0  0
   62.2400   31.2650   49.5700 C   0  0  0  0  0  0  0  0  0  0  0  0
   63.0470   30.8040   50.5630 N   0  0  0  0  0  0  0  0  0  0  0  0
   64.3140   31.2280   50.6840 C   0  0  0  0  0  0  0  0  0  0  0  0
   65.2950   30.9390   51.5510 N   0  0  0  0  0  0  0  0  0  0  0  0
   66.3730   31.6400   51.2300 N   0  0  0  0  0  0  0  0  0  0  0  0
   66.1000   32.3840   50.1570 C   0  0  0  0  0  0  0  0  0  0  0  0
   64.7870   32.1530   49.7690 C   0  0  0  0  0  0  0  0  0  0  0  0
   63.9910   32.6490   48.7400 C   0  0  0  0  0  0  0  0  0  0  0  0
   64.4510   33.4900   47.9240 O   0  0  0  0  0  0  0  0  0  0  0  0
   62.6800   32.1880   48.6420 C   0  0  0  0  0  0  0  0  0  0  0  0
   61.8350   32.6360   47.6460 O   0  0  0  0  0  0  0  0  0  0  0  0
   60.7620   29.5940   47.3590 C   0  0  0  0  0  0  0  0  0  0  0  0
   58.9710   30.0790   44.4950 C   0  0  0  0  0  0  0  0  0  0  0  0
   57.7650   30.4670   43.9350 C   0  0  0  0  0  0  0  0  0  0  0  0
   57.2250   31.7890   43.9170 C   0  0  0  0  0  0  0  0  0  0  0  0
   57.0160   32.6040   44.8920 C   0  0  0  0  0  0  0  0  0  0  0  0
   57.9370   33.4600   45.5810 C   0  0  0  0  0  0  0  0  0  0  0  0
   58.6770   34.4950   45.0990 C   0  0  0  0  0  0  0  0  0  0  0  0
   59.6260   35.1950   45.8280 C   0  0  0  0  0  0  0  0  0  0  0  0
   59.8620   34.8500   47.1300 C   0  0  0  0  0  0  0  0  0  0  0  0
   59.1310   33.8070   47.6520 C   0  0  0  0  0  0  0  0  0  0  0  0
   59.3510   33.4060   49.0330 C   0  0  0  0  0  0  0  0  0  0  0  0
   60.3980   33.9540   49.8200 N   0  0  0  0  0  0  0  0  0  0  0  0
   58.5570   32.5310   49.5160 O   0  0  0  0  0  0  0  0  0  0  0  0
   58.1920   33.1180   46.9210 C   0  0  0  0  0  0  0  0  0  0  0  0
   55.4580   29.0470   42.2320 H   0  0  0  0  0  0  0  0  0  0  0  0
   56.7640   27.4360   43.2180 H   0  0  0  0  0  0  0  0  0  0  0  0
   58.8389   26.7413   44.1774 H   0  0  0  0  0  0  0  0  0  0  0  0
   60.8356   27.3434   44.8492 H   0  0  0  0  0  0  0  0  0  0  0  0
   61.3863   29.0711   44.8175 H   0  0  0  0  0  0  0  0  0  0  0  0
   60.1834   26.2875   46.7054 H   0  0  0  0  0  0  0  0  0  0  0  0
   60.0941   26.2250   49.2045 H   0  0  0  0  0  0  0  0  0  0  0  0
   60.4408   28.3433   50.4752 H   0  0  0  0  0  0  0  0  0  0  0  0
   60.1180   31.1760   50.0610 H   0  0  0  0  0  0  0  0  0  0  0  0
   62.6770   30.1070   51.2450 H   0  0  0  0  0  0  0  0  0  0  0  0
   65.1630   30.2540   52.3410 H   0  0  0  0  0  0  0  0  0  0  0  0
   66.8018   33.0698   49.6598 H   0  0  0  0  0  0  0  0  0  0  0  0
   62.1470   33.3030   46.9250 H   0  0  0  0  0  0  0  0  0  0  0  0
   60.9505   30.5394   46.8292 H   0  0  0  0  0  0  0  0  0  0  0  0
   59.6468   30.8543   44.8852 H   0  0  0  0  0  0  0  0  0  0  0  0
   56.9461   32.1674   42.9225 H   0  0  0  0  0  0  0  0  0  0  0  0
   55.9766   32.6503   45.2492 H   0  0  0  0  0  0  0  0  0  0  0  0
   58.5102   34.7985   44.0549 H   0  0  0  0  0  0  0  0  0  0  0  0
   60.1844   36.0209   45.3630 H   0  0  0  0  0  0  0  0  0  0  0  0
   60.6072   35.3853   47.7367 H   0  0  0  0  0  0  0  0  0  0  0  0
   60.2430   34.5860   50.6370 H   0  0  0  0  0  0  0  0  0  0  0  0
   61.3790   33.6770   49.5230 H   0  0  0  0  0  0  0  0  0  0  0  0
   57.6355   32.2922   47.3884 H   0  0  0  0  0  0  0  0  0  0  0  0
  1  2  2  3
  2  3  1  0
  3  4  1  0
  4  5  2  0
  5  6  1  0
  6  7  1  0
  7  8  2  0
  8  9  1  0
  9 10  2  0
 10 11  1  0
 11 12  1  0
 12 13  1  0
 13 14  1  0
 14 15  1  0
 15 16  1  0
 16 17  1  0
 17 18  2  0
 18 19  1  0
 19 20  1  0
 20 21  2  0
 20 22  1  0
 22 23  1  0
 11 24  2  0
  5 25  1  0
 25 26  2  0
 26 27  1  0
 27 28  2  0
 28 29  1  0
 29 30  2  0
 30 31  1  0
 31 32  2  0
 32 33  1  0
 33 34  1  0
 34 35  1  0
 34 36  2  0
 33 37  2  0
 26  2  1  0
 37 29  1  0
 24  7  1  0
 22 13  2  0
 19 15  2  0
  1 38  1  0
  3 39  1  0
  4 40  1  0
  6 41  1  0
  6 42  1  0
  8 43  1  0
  9 44  1  0
 10 45  1  0
 12 46  1  0
 14 47  1  0
 16 48  1  0
 18 49  1  0
 23 50  1  0
 24 51  1  0
 25 52  1  0
 27 53  1  0
 28 54  1  0
 30 55  1  0
 31 56  1  0
 32 57  1  0
 35 58  1  0
 35 59  1  0
 37 60  1  0
M  CHG  1   5   1
M  END
>  <smiles>  (25) 
N=c1[nH]c[n+](Cc2cccc(Nc3[nH]c4[nH]ncc4c(=O)c3O)c2)cc1C=Cc1cccc(C(N)=O)c1

>  <score_type>  (25) 
oracle

>  <origin>  (25) 
adg

>  <m_score__min__energy>  (25) 
-10.76

>  <m_primary>  (25) 
energy

$$$$
25:0
     RDKit          3D

 38 40  0  0  0  0  0  0  0  0999 V2000
   57.2050   20.5310   45.4050 C   0  0  0  0  0  0  0  0  0  0  0  0
   56.2890   20.7290   44.3360 O   0  0  0  0  0  0  0  0  0  0  0  0
   56.2850   21.8860   43.5480 C   0  0  0  0  0  0  0  0  0  0  0  0
   56.2940   21.7920   42.2900 O   0  0  0  0  0  0  0  0  0  0  0  0
   56.2720   23.2170   44.1940 C   0  0  0  0  0  0  0  0  0  0  0  0
   57.3370   24.1120   43.9940 C   0  0  0  0  0  0  0  0  0  0  0  0
   57.3230   25.3750   44.5930 C   0  0  0  0  0  0  0  0  0  0  0  0
   56.2340   25.7720   45.3850 C   0  0  0  0  0  0  0  0  0  0  0  0
   56.1760   27.0720   45.9870 N   0  0  0  0  0  0  0  0  0  0  0  0
   56.4120   28.3190   45.3190 C   0  0  0  0  0  0  0  0  0  0  0  0
   55.4290   28.9880   44.9080 O   0  0  0  0  0  0  0  0  0  0  0  0
   57.7360   28.8260   45.1030 N   0  0  0  0  0  0  0  0  0  0  0  0
   58.2520   30.0650   45.6120 C   0  0  0  0  0  0  0  0  0  0  0  0
   58.9120   30.1310   46.8500 C   0  0  0  0  0  0  0  0  0  0  0  0
   59.3800   31.3540   47.3380 C   0  0  0  0  0  0  0  0  0  0  0  0
   59.2080   32.5250   46.5860 C   0  0  0  0  0  0  0  0  0  0  0  0
   59.6660   33.7600   47.0710 C   0  0  0  0  0  0  0  0  0  0  0  0
   59.4910   34.9200   46.3100 C   0  0  0  0  0  0  0  0  0  0  0  0
   58.8610   34.8550   45.0640 C   0  0  0  0  0  0  0  0  0  0  0  0
   58.4010   33.6310   44.5690 C   0  0  0  0  0  0  0  0  0  0  0  0
   58.5700   32.4590   45.3250 C   0  0  0  0  0  0  0  0  0  0  0  0
   58.1060   31.2260   44.8420 C   0  0  0  0  0  0  0  0  0  0  0  0
   55.1870   24.8720   45.6110 C   0  0  0  0  0  0  0  0  0  0  0  0
   55.2000   23.6070   45.0160 C   0  0  0  0  0  0  0  0  0  0  0  0
   56.6790   20.6447   46.3644 H   0  0  0  0  0  0  0  0  0  0  0  0
   57.6326   19.5197   45.3389 H   0  0  0  0  0  0  0  0  0  0  0  0
   58.0121   21.2754   45.3389 H   0  0  0  0  0  0  0  0  0  0  0  0
   58.1874   23.8166   43.3618 H   0  0  0  0  0  0  0  0  0  0  0  0
   58.1695   26.0612   44.4430 H   0  0  0  0  0  0  0  0  0  0  0  0
   59.0615   29.2142   47.4392 H   0  0  0  0  0  0  0  0  0  0  0  0
   59.8846   31.3982   48.3145 H   0  0  0  0  0  0  0  0  0  0  0  0
   60.1631   33.8154   48.0507 H   0  0  0  0  0  0  0  0  0  0  0  0
   59.8502   35.8865   46.6931 H   0  0  0  0  0  0  0  0  0  0  0  0
   58.7265   35.7711   44.4701 H   0  0  0  0  0  0  0  0  0  0  0  0
   57.9067   33.5857   43.5874 H   0  0  0  0  0  0  0  0  0  0  0  0
   57.6254   31.1709   43.8541 H   0  0  0  0  0  0  0  0  0  0  0  0
   54.3482   25.1616   46.2610 H   0  0  0  0  0  0  0  0  0  0  0  0
   54.3658   22.9120   45.1921 H   0  0  0  0  0  0  0  0  0  0  0  0
  1  2  1  0
  2  3  1  0
  3  4  2  0
  3  5  1  0
  5  6  2  0
  6  7  1  0
  7  8  2  0
  8  9  1  0
  9 10  1  0
 10 11  2  0
 10 12  1  0
 12 13  1  0
 13 14  2  0
 14 15  1  0
 15 16  2  0
 16 17  1  0
 17 18  2  0
 18 19  1  0
 19 20  2  0
 20 21  1  0
 21 22  2  0
  8 23  1  0
 23 24  2  0
 24  5  1  0
 22 13  1  0
 21 16  1  0
  1 25  1  0
  1 26  1  0
  1 27  1  0
  6 28  1  0
  7 29  1  0
 14 30  1  0
 15 31  1  0
 17 32  1  0
 18 33  1  0
 19 34  1  0
 20 35  1  0
 22 36  1  0
 23 37  1  0
 24 38  1  0
M  CHG  2   9  -1  12  -1
M  END
>  <UniqueID>  (26) 
24

>  <SMILES>  (26) 
COC(=O)c1ccc([N-]C(=O)[N-]c2ccc3ccccc3c2)cc1

>  <Energy>  (26) 
48.76727241039123

>  <Genealogy>  (26) 
COC(=O)c1ccc([N-]C(=O)[N-]c2ccc3ccccc3c2)cc1 (protonated)
COC(=O)c1ccc([N-]C(=O)[N-]c2ccc3ccccc3c2)cc1 (3D coordinates assigned)
COC(=O)c1ccc([N-]C(=O)[N-]c2ccc3ccccc3c2)cc1 (optimized conformer: 48.76727241039123 kcal/mol)

>  <smiles>  (26) 
COC(=O)c1ccc(NC(=O)Nc2ccc3ccccc3c2)cc1

>  <score_type>  (26) 
oracle

>  <origin>  (26) 
adg

>  <m_score__min__energy>  (26) 
-11.02

>  <m_primary>  (26) 
energy

$$$$
26:0
     RDKit          3D

 37 39  0  0  0  0  0  0  0  0999 V2000
   57.6408   31.3313   42.7075 H   0  0  0  0  0  0  0  0  0  0  0  0
   57.4880   31.3940   43.7950 C   0  0  0  0  0  0  0  0  0  0  0  0
   57.4250   32.5780   44.3380 N   0  0  0  0  0  0  0  0  0  0  0  0
   58.1560   33.0540   45.4800 C   0  0  0  0  0  0  0  0  0  0  0  0
   59.2770   33.8690   45.2710 C   0  0  0  0  0  0  0  0  0  0  0  0
   59.5720   34.1407   44.2467 H   0  0  0  0  0  0  0  0  0  0  0  0
   60.0230   34.3390   46.3570 C   0  0  0  0  0  0  0  0  0  0  0  0
   60.8899   34.9941   46.1857 H   0  0  0  0  0  0  0  0  0  0  0  0
   59.6680   33.9770   47.6600 C   0  0  0  0  0  0  0  0  0  0  0  0
   60.6050   34.5660   49.0210 Cl  0  0  0  0  0  0  0  0  0  0  0  0
   58.5730   33.1340   47.8760 C   0  0  0  0  0  0  0  0  0  0  0  0
   58.2989   32.8410   48.9002 H   0  0  0  0  0  0  0  0  0  0  0  0
   57.8260   32.6630   46.7910 C   0  0  0  0  0  0  0  0  0  0  0  0
   56.9775   31.9845   46.9632 H   0  0  0  0  0  0  0  0  0  0  0  0
   57.3660   30.1270   44.5560 C   0  0  0  0  0  0  0  0  0  0  0  0
   56.1940   29.3360   44.5070 C   0  0  0  0  0  0  0  0  0  0  0  0
   55.0000   29.7090   43.6750 C   0  0  0  0  0  0  0  0  0  0  0  0
   54.1604   29.9713   44.3355 H   0  0  0  0  0  0  0  0  0  0  0  0
   55.2505   30.5717   43.0402 H   0  0  0  0  0  0  0  0  0  0  0  0
   54.7149   28.8571   43.0402 H   0  0  0  0  0  0  0  0  0  0  0  0
   56.1230   28.1960   45.2450 N   0  0  0  0  0  0  0  0  0  0  0  0
   57.1530   27.7570   46.0120 C   0  0  0  0  0  0  0  0  0  0  0  0
   57.0180   26.5760   46.7470 C   0  0  0  0  0  0  0  0  0  0  0  0
   56.0747   26.0115   46.7085 H   0  0  0  0  0  0  0  0  0  0  0  0
   58.0760   26.1100   47.5300 C   0  0  0  0  0  0  0  0  0  0  0  0
   57.9619   25.1800   48.1062 H   0  0  0  0  0  0  0  0  0  0  0  0
   59.2880   26.8240   47.5860 C   0  0  0  0  0  0  0  0  0  0  0  0
   60.3780   26.3950   48.3580 O   0  0  0  0  0  0  0  0  0  0  0  0
   60.7650   26.9780   49.5980 C   0  0  0  0  0  0  0  0  0  0  0  0
   60.3651   26.3756   50.4270 H   0  0  0  0  0  0  0  0  0  0  0  0
   61.8627   27.0077   49.6625 H   0  0  0  0  0  0  0  0  0  0  0  0
   60.3661   28.0011   49.6625 H   0  0  0  0  0  0  0  0  0  0  0  0
   59.4220   28.0080   46.8490 C   0  0  0  0  0  0  0  0  0  0  0  0
   60.3668   28.5699   46.8888 H   0  0  0  0  0  0  0  0  0  0  0  0
   58.3600   28.4860   46.0580 C   0  0  0  0  0  0  0  0  0  0  0  0
   58.4620   29.6770   45.3150 C   0  0  0  0  0  0  0  0  0  0  0  0
   59.5300   30.3510   45.3400 O   0  0  0  0  0  0  0  0  0  0  0  0
  1  2  1  0
  2  3  2  0
  3  4  1  0
  4  5  2  0
  5  6  1  0
  5  7  1  0
  7  8  1  0
  7  9  2  0
  9 10  1  0
  9 11  1  0
 11 12  1  0
 11 13  2  0
 13 14  1  0
  2 15  1  0
 15 16  2  0
 16 17  1  0
 17 18  1  0
 17 19  1  0
 17 20  1  0
 16 21  1  0
 21 22  1  0
 22 23  2  0
 23 24  1  0
 23 25  1  0
 25 26  1  0
 25 27  2  0
 27 28  1  0
 28 29  1  0
 29 30  1  0
 29 31  1  0
 29 32  1  0
 27 33  1  0
 33 34  1  0
 33 35  2  0
 35 36  1  0
 36 37  2  0
 13  4  1  0
 36 15  1  0
 35 22  1  0
M  CHG  1  21  -1
M  END
>  <UniqueID>  (27) 
25

>  <SMILES>  (27) 
COc1ccc2[n-]c(C)c(/C=N\c3ccc(Cl)cc3)c(=O)c2c1

>  <Energy>  (27) 
56.767339461729016

>  <Genealogy>  (27) 
COc1ccc2[n-]c(C)c(C=Nc3ccc(Cl)cc3)c(=O)c2c1 (protonated)
COc1ccc2[n-]c(C)c(/C=N\c3ccc(Cl)cc3)c(=O)c2c1 (cis-trans isomerization)
COc1ccc2[n-]c(C)c(/C=N\c3ccc(Cl)cc3)c(=O)c2c1 (3D coordinates assigned)
COc1ccc2[n-]c(C)c(/C=N\c3ccc(Cl)cc3)c(=O)c2c1 (optimized conformer: 56.767339461729016 kcal/mol)

>  <smiles>  (27) 
COc1ccc2[nH]c(C)c(C=Nc3ccc(Cl)cc3)c(=O)c2c1

>  <score_type>  (27) 
oracle

>  <origin>  (27) 
adg

>  <m_score__min__energy>  (27) 
-8.8300000000000001

>  <m_primary>  (27) 
energy

$$$$
27:0
     RDKit          3D

 88 94  0  0  0  0  0  0  0  0999 V2000
   64.3498   26.7924   54.2564 H   0  0  0  0  0  0  0  0  0  0  0  0
   64.2880   27.8800   54.1040 C   0  0  0  0  0  0  0  0  0  0  0  0
   63.3800   28.6130   54.8010 N   0  0  0  0  0  0  0  0  0  0  0  0
   63.2850   29.9640   54.6400 C   0  0  0  0  0  0  0  0  0  0  0  0
   62.4570   30.6710   55.3490 N   0  0  0  0  0  0  0  0  0  0  0  0
   61.0240   30.6710   55.2280 C   0  0  0  0  0  0  0  0  0  0  0  0
   60.2350   29.7400   55.9220 C   0  0  0  0  0  0  0  0  0  0  0  0
   60.7128   29.0142   56.5965 H   0  0  0  0  0  0  0  0  0  0  0  0
   58.8490   29.7290   55.7620 C   0  0  0  0  0  0  0  0  0  0  0  0
   58.2409   28.9936   56.3091 H   0  0  0  0  0  0  0  0  0  0  0  0
   58.2270   30.6510   54.9070 C   0  0  0  0  0  0  0  0  0  0  0  0
   56.7540   30.6640   54.7560 C   0  0  0  0  0  0  0  0  0  0  0  0
   56.0250   30.7100   55.7850 O   0  0  0  0  0  0  0  0  0  0  0  0
   56.1510   30.6480   53.4530 N   0  0  0  0  0  0  0  0  0  0  0  0
   56.7330   30.9060   52.6260 H   0  0  0  0  0  0  0  0  0  0  0  0
   54.7410   30.2940   53.2580 C   0  0  0  0  0  0  0  0  0  0  0  0
   54.1163   31.0377   53.7744 H   0  0  0  0  0  0  0  0  0  0  0  0
   54.3790   30.3180   51.7660 C   0  0  0  0  0  0  0  0  0  0  0  0
   54.5605   31.3281   51.3702 H   0  0  0  0  0  0  0  0  0  0  0  0
   55.0039   29.5764   51.2468 H   0  0  0  0  0  0  0  0  0  0  0  0
   52.8960   29.9480   51.5380 C   0  0  0  0  0  0  0  0  0  0  0  0
   52.3238   30.8738   51.3782 H   0  0  0  0  0  0  0  0  0  0  0  0
   52.8522   29.2836   50.6624 H   0  0  0  0  0  0  0  0  0  0  0  0
   52.3010   29.2150   52.6840 N   0  0  0  0  0  0  0  0  0  0  0  0
   51.0170   28.5980   52.2880 C   0  0  0  0  0  0  0  0  0  0  0  0
   50.1886   29.2246   52.6500 H   0  0  0  0  0  0  0  0  0  0  0  0
   50.9858   28.5199   51.1912 H   0  0  0  0  0  0  0  0  0  0  0  0
   50.8830   27.1900   52.8870 C   0  0  0  0  0  0  0  0  0  0  0  0
   51.8101   26.9403   53.4238 H   0  0  0  0  0  0  0  0  0  0  0  0
   50.0214   27.1865   53.5708 H   0  0  0  0  0  0  0  0  0  0  0  0
   50.6390   26.1410   51.8030 C   0  0  0  0  0  0  0  0  0  0  0  0
   51.6015   25.7038   51.4989 H   0  0  0  0  0  0  0  0  0  0  0  0
   49.9784   25.3592   52.2061 H   0  0  0  0  0  0  0  0  0  0  0  0
   50.0310   26.7170   50.7000 F   0  0  0  0  0  0  0  0  0  0  0  0
   53.2510   28.2070   53.2020 C   0  0  0  0  0  0  0  0  0  0  0  0
   52.7421   27.5773   53.9466 H   0  0  0  0  0  0  0  0  0  0  0  0
   53.6074   27.5873   52.3660 H   0  0  0  0  0  0  0  0  0  0  0  0
   54.4570   28.9010   53.8620 C   0  0  0  0  0  0  0  0  0  0  0  0
   54.2525   29.0174   54.9365 H   0  0  0  0  0  0  0  0  0  0  0  0
   55.3424   28.2729   53.6847 H   0  0  0  0  0  0  0  0  0  0  0  0
   59.0160   31.5780   54.2070 C   0  0  0  0  0  0  0  0  0  0  0  0
   58.5348   32.3085   53.5401 H   0  0  0  0  0  0  0  0  0  0  0  0
   60.4170   31.5820   54.3500 C   0  0  0  0  0  0  0  0  0  0  0  0
   61.2370   32.4810   53.6480 O   0  0  0  0  0  0  0  0  0  0  0  0
   61.7680   32.2460   52.3480 C   0  0  0  0  0  0  0  0  0  0  0  0
   62.7707   31.8023   52.4362 H   0  0  0  0  0  0  0  0  0  0  0  0
   61.1083   31.5558   51.8017 H   0  0  0  0  0  0  0  0  0  0  0  0
   61.8353   33.1984   51.8017 H   0  0  0  0  0  0  0  0  0  0  0  0
   64.1150   30.5940   53.7700 N   0  0  0  0  0  0  0  0  0  0  0  0
   65.0320   29.9020   53.0490 C   0  0  0  0  0  0  0  0  0  0  0  0
   65.1440   28.5080   53.1930 C   0  0  0  0  0  0  0  0  0  0  0  0
   66.2770   27.7370   52.5260 C   0  0  0  0  0  0  0  0  0  0  0  0
   67.1160   27.6729   53.2344 H   0  0  0  0  0  0  0  0  0  0  0  0
   65.8749   26.7493   52.2562 H   0  0  0  0  0  0  0  0  0  0  0  0
   66.7940   28.3860   51.2140 C   0  0  0  0  0  0  0  0  0  0  0  0
   67.8173   28.0330   51.0185 H   0  0  0  0  0  0  0  0  0  0  0  0
   66.1197   28.0971   50.3943 H   0  0  0  0  0  0  0  0  0  0  0  0
   66.8040   29.8810   51.3140 C   0  0  0  0  0  0  0  0  0  0  0  0
   67.5040   30.7320   50.5400 N   0  0  0  0  0  0  0  0  0  0  0  0
   67.1100   31.9590   50.8600 N   0  0  0  0  0  0  0  0  0  0  0  0
   67.6530   33.1640   50.2410 C   0  0  0  0  0  0  0  0  0  0  0  0
   67.9701   33.8678   51.0247 H   0  0  0  0  0  0  0  0  0  0  0  0
   68.5179   32.8972   49.6159 H   0  0  0  0  0  0  0  0  0  0  0  0
   66.8802   33.6352   49.6159 H   0  0  0  0  0  0  0  0  0  0  0  0
   66.1560   31.9020   51.8200 C   0  0  0  0  0  0  0  0  0  0  0  0
   65.4500   33.0620   52.3950 C   0  0  0  0  0  0  0  0  0  0  0  0
   65.4440   33.2430   53.7870 C   0  0  0  0  0  0  0  0  0  0  0  0
   65.9551   32.5167   54.4360 H   0  0  0  0  0  0  0  0  0  0  0  0
   64.7920   34.3410   54.3510 C   0  0  0  0  0  0  0  0  0  0  0  0
   64.7896   34.4775   55.4425 H   0  0  0  0  0  0  0  0  0  0  0  0
   64.1430   35.2660   53.5310 C   0  0  0  0  0  0  0  0  0  0  0  0
   63.6327   36.1325   53.9768 H   0  0  0  0  0  0  0  0  0  0  0  0
   64.1410   35.0920   52.1440 C   0  0  0  0  0  0  0  0  0  0  0  0
   63.6344   35.8274   51.5017 H   0  0  0  0  0  0  0  0  0  0  0  0
   64.7830   33.9820   51.5640 C   0  0  0  0  0  0  0  0  0  0  0  0
   64.8290   33.8090   50.1720 O   0  0  0  0  0  0  0  0  0  0  0  0
   63.7480   33.4350   49.3620 C   0  0  0  0  0  0  0  0  0  0  0  0
   62.6000   34.2380   49.3600 C   0  0  0  0  0  0  0  0  0  0  0  0
   62.5600   35.1368   49.9928 H   0  0  0  0  0  0  0  0  0  0  0  0
   61.5050   33.9030   48.5580 C   0  0  0  0  0  0  0  0  0  0  0  0
   60.6036   34.5333   48.5689 H   0  0  0  0  0  0  0  0  0  0  0  0
   61.5530   32.7700   47.7430 C   0  0  0  0  0  0  0  0  0  0  0  0
   60.6864   32.5016   47.1210 H   0  0  0  0  0  0  0  0  0  0  0  0
   62.7050   31.9770   47.7190 C   0  0  0  0  0  0  0  0  0  0  0  0
   62.7473   31.0894   47.0707 H   0  0  0  0  0  0  0  0  0  0  0  0
   63.8030   32.3110   48.5180 C   0  0  0  0  0  0  0  0  0  0  0  0
   64.7124   31.6929   48.4864 H   0  0  0  0  0  0  0  0  0  0  0  0
   65.9350   30.5730   52.1120 C   0  0  0  0  0  0  0  0  0  0  0  0
  1  2  1  0
  2  3  1  0
  3  4  1  0
  4  5  2  0
  5  6  1  0
  6  7  2  0
  7  8  1  0
  7  9  1  0
  9 10  1  0
  9 11  2  0
 11 12  1  0
 12 13  2  0
 12 14  1  0
 14 15  1  0
 14 16  1  0
 16 17  1  0
 16 18  1  0
 18 19  1  0
 18 20  1  0
 18 21  1  0
 21 22  1  0
 21 23  1  0
 21 24  1  0
 24 25  1  0
 25 26  1  0
 25 27  1  0
 25 28  1  0
 28 29  1  0
 28 30  1  0
 28 31  1  0
 31 32  1  0
 31 33  1  0
 31 34  1  0
 24 35  1  0
 35 36  1  0
 35 37  1  0
 35 38  1  0
 38 39  1  0
 38 40  1  0
 11 41  1  0
 41 42  1  0
 41 43  2  0
 43 44  1  0
 44 45  1  0
 45 46  1  0
 45 47  1  0
 45 48  1  0
  4 49  1  0
 49 50  2  0
 50 51  1  0
 51 52  1  0
 52 53  1  0
 52 54  1  0
 52 55  1  0
 55 56  1  0
 55 57  1  0
 55 58  1  0
 58 59  2  0
 59 60  1  0
 60 61  1  0
 61 62  1  0
 61 63  1  0
 61 64  1  0
 60 65  1  0
 65 66  1  0
 66 67  2  0
 67 68  1  0
 67 69  1  0
 69 70  1  0
 69 71  2  0
 71 72  1  0
 71 73  1  0
 73 74  1  0
 73 75  2  0
 75 76  1  0
 76 77  1  0
 77 78  2  0
 78 79  1  0
 78 80  1  0
 80 81  1  0
 80 82  2  0
 82 83  1  0
 82 84  1  0
 84 85  1  0
 84 86  2  0
 86 87  1  0
 65 88  2  0
 51  2  2  0
 88 58  1  0
 43  6  1  0
 88 50  1  0
 38 16  1  0
 75 66  1  0
 86 77  1  0
M  CHG  1   3  -1
M  END
>  <UniqueID>  (28) 
26

>  <SMILES>  (28) 
COc1cc(C(=O)NC2CCN(CCCF)CC2)ccc1/N=c1/nc2c(c[n-]1)CCc1nn(C)c(-c3ccccc3Oc3ccccc3)c1-2

>  <Energy>  (28) 
154.70880918975928

>  <Genealogy>  (28) 
COc1cc(C(=O)NC2CCN(CCCF)CC2)ccc1N=c1nc2c(c[n-]1)CCc1nn(C)c(-c3ccccc3Oc3ccccc3)c1-2 (protonated)
COc1cc(C(=O)NC2CCN(CCCF)CC2)ccc1/N=c1/nc2c(c[n-]1)CCc1nn(C)c(-c3ccccc3Oc3ccccc3)c1-2 (cis-trans isomerization)
COc1cc(C(=O)NC2CCN(CCCF)CC2)ccc1/N=c1/nc2c(c[n-]1)CCc1nn(C)c(-c3ccccc3Oc3ccccc3)c1-2 (3D coordinates assigned)
COc1cc(C(=O)NC2CCN(CCCF)CC2)ccc1/N=c1/nc2c(c[n-]1)CCc1nn(C)c(-c3ccccc3Oc3ccccc3)c1-2 (nonaromatic ring conformer: 154.70880918975928 kcal/mol)

>  <smiles>  (28) 
COc1cc(C(=O)NC2CCN(CCCF)CC2)ccc1N=c1nc2c(c[nH]1)CCc1nn(C)c(-c3ccccc3Oc3ccccc3)c1-2

>  <score_type>  (28) 
oracle

>  <origin>  (28) 
adg

>  <m_score__min__energy>  (28) 
-9.6199999999999992

>  <m_primary>  (28) 
energy

$$$$
28:0
     RDKit          3D

 28 29  0  0  0  0  0  0  0  0999 V2000
   55.8670   29.7220   45.9900 H   0  0  0  0  0  0  0  0  0  0  0  0
   56.1690   29.7280   44.9900 N   0  0  0  0  0  0  0  0  0  0  0  0
   56.8000   30.7360   44.4800 C   0  0  0  0  0  0  0  0  0  0  0  0
   56.9220   31.8920   45.1860 N   0  0  0  0  0  0  0  0  0  0  0  0
   57.5750   32.9680   44.6720 C   0  0  0  0  0  0  0  0  0  0  0  0
   57.7220   34.2120   45.4970 C   0  0  0  0  0  0  0  0  0  0  0  0
   57.7745   35.0858   44.8309 H   0  0  0  0  0  0  0  0  0  0  0  0
   56.8548   34.3030   46.1676 H   0  0  0  0  0  0  0  0  0  0  0  0
   58.9760   34.1410   46.3230 C   0  0  0  0  0  0  0  0  0  0  0  0
   60.2310   34.0500   45.7000 C   0  0  0  0  0  0  0  0  0  0  0  0
   60.2992   34.0606   44.6022 H   0  0  0  0  0  0  0  0  0  0  0  0
   61.3940   33.9460   46.4680 C   0  0  0  0  0  0  0  0  0  0  0  0
   62.3730   33.8717   45.9720 H   0  0  0  0  0  0  0  0  0  0  0  0
   61.3180   33.9360   47.8700 C   0  0  0  0  0  0  0  0  0  0  0  0
   62.5640   33.7830   48.6930 C   0  0  0  0  0  0  0  0  0  0  0  0
   62.3040   33.8149   49.7614 H   0  0  0  0  0  0  0  0  0  0  0  0
   63.0411   32.8195   48.4604 H   0  0  0  0  0  0  0  0  0  0  0  0
   63.2600   34.6024   48.4604 H   0  0  0  0  0  0  0  0  0  0  0  0
   60.0630   33.9960   48.4930 C   0  0  0  0  0  0  0  0  0  0  0  0
   59.9937   33.9619   49.5903 H   0  0  0  0  0  0  0  0  0  0  0  0
   58.8990   34.0990   47.7240 C   0  0  0  0  0  0  0  0  0  0  0  0
   57.9182   34.1473   48.2197 H   0  0  0  0  0  0  0  0  0  0  0  0
   58.1530   32.8790   43.4000 C   0  0  0  0  0  0  0  0  0  0  0  0
   58.7001   33.7311   42.9703 H   0  0  0  0  0  0  0  0  0  0  0  0
   58.0200   31.6870   42.6900 C   0  0  0  0  0  0  0  0  0  0  0  0
   58.4598   31.5938   41.6861 H   0  0  0  0  0  0  0  0  0  0  0  0
   57.3480   30.6400   43.2360 N   0  0  0  0  0  0  0  0  0  0  0  0
   57.2580   29.7520   42.6900 H   0  0  0  0  0  0  0  0  0  0  0  0
  1  2  1  0
  2  3  2  0
  3  4  1  0
  4  5  2  0
  5  6  1  0
  6  7  1  0
  6  8  1  0
  6  9  1  0
  9 10  2  0
 10 11  1  0
 10 12  1  0
 12 13  1  0
 12 14  2  0
 14 15  1  0
 15 16  1  0
 15 17  1  0
 15 18  1  0
 14 19  1  0
 19 20  1  0
 19 21  2  0
 21 22  1  0
  5 23  1  0
 23 24  1  0
 23 25  2  0
 25 26  1  0
 25 27  1  0
 27 28  1  0
 27  3  1  0
 21  9  1  0
M  END
>  <UniqueID>  (29) 
27

>  <SMILES>  (29) 
[H]/N=c1\nc(Cc2ccc(C)cc2)cc[nH]1

>  <Energy>  (29) 
26.04547118946138

>  <Genealogy>  (29) 
[H]/N=c1\nc(Cc2ccc(C)cc2)cc[nH]1 (cis-trans isomerization)
[H]/N=c1\nc(Cc2ccc(C)cc2)cc[nH]1 (3D coordinates assigned)
[H]/N=c1\nc(Cc2ccc(C)cc2)cc[nH]1 (optimized conformer: 26.04547118946138 kcal/mol)

>  <smiles>  (29) 
Cc1ccc(Cc2cc[nH]c(=N)n2)cc1

>  <score_type>  (29) 
oracle

>  <origin>  (29) 
adg

>  <m_score__min__energy>  (29) 
-6.9500000000000002

>  <m_primary>  (29) 
energy

$$$$
29:0
     RDKit          3D

 43 46  0  0  0  0  0  0  0  0999 V2000
   61.0540   29.0950   45.5170 C   0  0  0  0  0  0  0  0  0  0  0  0
   59.9190   30.0810   45.5750 C   0  0  0  0  0  0  0  0  0  0  0  0
   58.7710   29.8590   44.7990 C   0  0  0  0  0  0  0  0  0  0  0  0
   57.6970   30.7620   44.8250 C   0  0  0  0  0  0  0  0  0  0  0  0
   56.5270   30.5340   44.0180 N   0  0  0  0  0  0  0  0  0  0  0  0
   55.4550   30.1630   44.5390 O   0  0  0  0  0  0  0  0  0  0  0  0
   56.5700   30.7170   42.6530 O   0  0  0  0  0  0  0  0  0  0  0  0
   57.7760   31.8910   45.6540 C   0  0  0  0  0  0  0  0  0  0  0  0
   58.9070   32.1250   46.4510 C   0  0  0  0  0  0  0  0  0  0  0  0
   58.9210   33.2950   47.3580 C   0  0  0  0  0  0  0  0  0  0  0  0
   58.7280   34.4430   46.8710 O   0  0  0  0  0  0  0  0  0  0  0  0
   59.1660   33.1560   48.8160 C   0  0  0  0  0  0  0  0  0  0  0  0
   58.4970   32.1620   49.5520 C   0  0  0  0  0  0  0  0  0  0  0  0
   58.7330   32.0150   50.9230 C   0  0  0  0  0  0  0  0  0  0  0  0
   59.6440   32.8520   51.5700 C   0  0  0  0  0  0  0  0  0  0  0  0
   60.3240   33.8350   50.8490 C   0  0  0  0  0  0  0  0  0  0  0  0
   60.0910   33.9870   49.4790 C   0  0  0  0  0  0  0  0  0  0  0  0
   59.9850   31.2110   46.4180 C   0  0  0  0  0  0  0  0  0  0  0  0
   61.1630   31.4490   47.2020 N   0  0  0  0  0  0  0  0  0  0  0  0
   62.0460   32.5690   47.1090 C   0  0  0  0  0  0  0  0  0  0  0  0
   62.0260   33.4130   46.1760 O   0  0  0  0  0  0  0  0  0  0  0  0
   62.9490   32.5830   48.2540 C   0  0  0  0  0  0  0  0  0  0  0  0
   63.9680   33.4720   48.5880 C   0  0  0  0  0  0  0  0  0  0  0  0
   64.6790   33.2450   49.7790 C   0  0  0  0  0  0  0  0  0  0  0  0
   64.3590   32.1460   50.6050 C   0  0  0  0  0  0  0  0  0  0  0  0
   63.3220   31.2630   50.2510 C   0  0  0  0  0  0  0  0  0  0  0  0
   62.9260   29.9020   51.2860 Cl  0  0  0  0  0  0  0  0  0  0  0  0
   62.6310   31.5060   49.0590 C   0  0  0  0  0  0  0  0  0  0  0  0
   61.5160   30.8020   48.4260 C   0  0  0  0  0  0  0  0  0  0  0  0
   60.9140   29.8000   48.8940 O   0  0  0  0  0  0  0  0  0  0  0  0
   61.3608   28.8285   46.5392 H   0  0  0  0  0  0  0  0  0  0  0  0
   60.7265   28.1898   44.9847 H   0  0  0  0  0  0  0  0  0  0  0  0
   61.9045   29.5458   44.9847 H   0  0  0  0  0  0  0  0  0  0  0  0
   58.7121   28.9646   44.1614 H   0  0  0  0  0  0  0  0  0  0  0  0
   56.9385   32.6037   45.6796 H   0  0  0  0  0  0  0  0  0  0  0  0
   57.7831   31.4953   49.0461 H   0  0  0  0  0  0  0  0  0  0  0  0
   58.2001   31.2389   51.4920 H   0  0  0  0  0  0  0  0  0  0  0  0
   59.8261   32.7368   52.6487 H   0  0  0  0  0  0  0  0  0  0  0  0
   61.0443   34.4910   51.3596 H   0  0  0  0  0  0  0  0  0  0  0  0
   60.6332   34.7602   48.9149 H   0  0  0  0  0  0  0  0  0  0  0  0
   64.2092   34.3266   47.9388 H   0  0  0  0  0  0  0  0  0  0  0  0
   65.4904   33.9285   50.0694 H   0  0  0  0  0  0  0  0  0  0  0  0
   64.9250   31.9784   51.5332 H   0  0  0  0  0  0  0  0  0  0  0  0
  1  2  1  0
  2  3  2  0
  3  4  1  0
  4  5  1  0
  5  6  2  0
  5  7  1  0
  4  8  2  0
  8  9  1  0
  9 10  1  0
 10 11  2  0
 10 12  1  0
 12 13  2  0
 13 14  1  0
 14 15  2  0
 15 16  1  0
 16 17  2  0
  9 18  2  0
 18 19  1  0
 19 20  1  0
 20 21  2  0
 20 22  1  0
 22 23  2  0
 23 24  1  0
 24 25  2  0
 25 26  1  0
 26 27  1  0
 26 28  2  0
 28 29  1  0
 29 30  2  0
 18  2  1  0
 29 19  1  0
 17 12  1  0
 28 22  1  0
  1 31  1  0
  1 32  1  0
  1 33  1  0
  3 34  1  0
  8 35  1  0
 13 36  1  0
 14 37  1  0
 15 38  1  0
 16 39  1  0
 17 40  1  0
 23 41  1  0
 24 42  1  0
 25 43  1  0
M  CHG  2   5   1   7  -1
M  END
>  <UniqueID>  (30) 
28

>  <SMILES>  (30) 
Cc1cc([N+](=O)[O-])cc(C(=O)c2ccccc2)c1N1C(=O)c2cccc(Cl)c2C1=O

>  <Energy>  (30) 
95.44454625263646

>  <Genealogy>  (30) 
Cc1cc([N+](=O)[O-])cc(C(=O)c2ccccc2)c1N1C(=O)c2cccc(Cl)c2C1=O (3D coordinates assigned)
Cc1cc([N+](=O)[O-])cc(C(=O)c2ccccc2)c1N1C(=O)c2cccc(Cl)c2C1=O (nonaromatic ring conformer: 95.44454625263646 kcal/mol)

>  <smiles>  (30) 
Cc1cc([N+](=O)[O-])cc(C(=O)c2ccccc2)c1N1C(=O)c2cccc(Cl)c2C1=O

>  <score_type>  (30) 
oracle

>  <origin>  (30) 
adg

>  <m_score__min__energy>  (30) 
-8.7899999999999991

>  <m_primary>  (30) 
energy

$$$$
30:0
     RDKit          3D

 25 26  0  0  0  0  0  0  0  0999 V2000
   60.4510   29.8270   46.1140 O   0  0  0  0  0  0  0  0  0  0  0  0
   59.6120   30.7660   46.0460 C   0  0  0  0  0  0  0  0  0  0  0  0
   59.8020   31.9870   46.9130 C   0  0  0  0  0  0  0  0  0  0  0  0
   61.2030   32.4040   46.9520 N   0  0  0  0  0  0  0  0  0  0  0  0
   61.6980   33.6100   46.6130 C   0  0  0  0  0  0  0  0  0  0  0  0
   63.0710   33.5560   46.7310 C   0  0  0  0  0  0  0  0  0  0  0  0
   63.4210   32.3180   47.1310 N   0  0  0  0  0  0  0  0  0  0  0  0
   62.2680   31.6350   47.2530 C   0  0  0  0  0  0  0  0  0  0  0  0
   58.4580   30.6480   45.1120 C   0  0  0  0  0  0  0  0  0  0  0  0
   57.3430   29.8650   45.4680 C   0  0  0  0  0  0  0  0  0  0  0  0
   56.2510   29.7440   44.6020 C   0  0  0  0  0  0  0  0  0  0  0  0
   55.1570   28.9680   44.9660 O   0  0  0  0  0  0  0  0  0  0  0  0
   56.2590   30.4020   43.3700 C   0  0  0  0  0  0  0  0  0  0  0  0
   57.3570   31.1820   43.0030 C   0  0  0  0  0  0  0  0  0  0  0  0
   57.3620   31.8210   41.8060 F   0  0  0  0  0  0  0  0  0  0  0  0
   58.4500   31.3060   43.8650 C   0  0  0  0  0  0  0  0  0  0  0  0
   59.1951   32.8105   46.5086 H   0  0  0  0  0  0  0  0  0  0  0  0
   59.4882   31.7354   47.9368 H   0  0  0  0  0  0  0  0  0  0  0  0
   61.1102   34.4846   46.2974 H   0  0  0  0  0  0  0  0  0  0  0  0
   63.7650   34.3858   46.5317 H   0  0  0  0  0  0  0  0  0  0  0  0
   64.3870   31.9610   47.2990 H   0  0  0  0  0  0  0  0  0  0  0  0
   62.2029   30.5807   47.5600 H   0  0  0  0  0  0  0  0  0  0  0  0
   57.3306   29.3435   46.4364 H   0  0  0  0  0  0  0  0  0  0  0  0
   55.4004   30.3056   42.6892 H   0  0  0  0  0  0  0  0  0  0  0  0
   59.3115   31.9222   43.5681 H   0  0  0  0  0  0  0  0  0  0  0  0
  1  2  2  0
  2  3  1  0
  3  4  1  0
  4  5  1  0
  5  6  2  0
  6  7  1  0
  7  8  2  0
  2  9  1  0
  9 10  2  0
 10 11  1  0
 11 12  1  0
 11 13  2  0
 13 14  1  0
 14 15  1  0
 14 16  2  0
  8  4  1  0
 16  9  1  0
  3 17  1  0
  3 18  1  0
  5 19  1  0
  6 20  1  0
  7 21  1  0
  8 22  1  0
 10 23  1  0
 13 24  1  0
 16 25  1  0
M  CHG  2   7   1  12  -1
M  END
>  <UniqueID>  (31) 
29

>  <SMILES>  (31) 
O=C(Cn1cc[nH+]c1)c1cc([O-])cc(F)c1

>  <Energy>  (31) 
56.86067112668987

>  <Genealogy>  (31) 
O=C(Cn1cc[nH+]c1)c1cc([O-])cc(F)c1 (protonated)
O=C(Cn1cc[nH+]c1)c1cc([O-])cc(F)c1 (3D coordinates assigned)
O=C(Cn1cc[nH+]c1)c1cc([O-])cc(F)c1 (optimized conformer: 56.86067112668987 kcal/mol)

>  <smiles>  (31) 
O=C(Cn1ccnc1)c1cc(O)cc(F)c1

>  <score_type>  (31) 
oracle

>  <origin>  (31) 
adg

>  <m_score__min__energy>  (31) 
-7.8899999999999997

>  <m_primary>  (31) 
energy

$$$$
31:0
     RDKit          3D

 50 53  0  0  0  0  0  0  0  0999 V2000
   56.1850   24.4660   44.6660 N   0  0  0  0  0  0  0  0  0  0  0  0
   56.1470   25.7240   45.8510 S   0  0  0  0  0  0  0  0  0  0  0  0
   56.6040   25.1790   47.1760 O   0  0  0  0  0  0  0  0  0  0  0  0
   54.7390   26.2310   45.9990 O   0  0  0  0  0  0  0  0  0  0  0  0
   57.2060   27.0390   45.3500 C   0  0  0  0  0  0  0  0  0  0  0  0
   58.5540   26.7890   45.0640 C   0  0  0  0  0  0  0  0  0  0  0  0
   59.4000   27.8400   44.7010 C   0  0  0  0  0  0  0  0  0  0  0  0
   58.9050   29.1440   44.6180 C   0  0  0  0  0  0  0  0  0  0  0  0
   57.5490   29.4060   44.8910 C   0  0  0  0  0  0  0  0  0  0  0  0
   56.9960   30.7330   44.8620 N   0  0  0  0  0  0  0  0  0  0  0  0
   57.3630   31.8160   43.9980 C   0  0  0  0  0  0  0  0  0  0  0  0
   57.4870   31.6450   42.7560 O   0  0  0  0  0  0  0  0  0  0  0  0
   57.5580   33.1810   44.5770 C   0  0  0  0  0  0  0  0  0  0  0  0
   57.0620   33.2470   46.3370 S   0  0  0  0  0  0  0  0  0  0  0  0
   58.6310   33.8980   46.9260 C   0  0  0  0  0  0  0  0  0  0  0  0
   58.8940   35.2150   47.0060 N   0  0  0  0  0  0  0  0  0  0  0  0
   60.1070   35.3350   47.5230 N   0  0  0  0  0  0  0  0  0  0  0  0
   60.5640   34.0900   47.7600 C   0  0  0  0  0  0  0  0  0  0  0  0
   61.9100   33.8220   48.3140 C   0  0  0  0  0  0  0  0  0  0  0  0
   62.1790   34.1020   49.6650 C   0  0  0  0  0  0  0  0  0  0  0  0
   63.4510   33.8680   50.1950 C   0  0  0  0  0  0  0  0  0  0  0  0
   64.4690   33.3670   49.3800 C   0  0  0  0  0  0  0  0  0  0  0  0
   64.2170   33.1040   48.0310 C   0  0  0  0  0  0  0  0  0  0  0  0
   62.9460   33.3360   47.4960 C   0  0  0  0  0  0  0  0  0  0  0  0
   59.6530   33.1550   47.4010 N   0  0  0  0  0  0  0  0  0  0  0  0
   59.6310   31.7560   47.7410 C   0  0  0  0  0  0  0  0  0  0  0  0
   60.4010   30.8330   47.0180 C   0  0  0  0  0  0  0  0  0  0  0  0
   60.3890   29.4780   47.3560 C   0  0  0  0  0  0  0  0  0  0  0  0
   59.6000   29.0300   48.4200 C   0  0  0  0  0  0  0  0  0  0  0  0
   59.5880   27.7150   48.7500 F   0  0  0  0  0  0  0  0  0  0  0  0
   58.8210   29.9390   49.1430 C   0  0  0  0  0  0  0  0  0  0  0  0
   58.8340   31.2960   48.8050 C   0  0  0  0  0  0  0  0  0  0  0  0
   56.7130   28.3490   45.2740 C   0  0  0  0  0  0  0  0  0  0  0  0
   57.1140   23.9960   44.7500 H   0  0  0  0  0  0  0  0  0  0  0  0
   56.1680   24.9290   43.7290 H   0  0  0  0  0  0  0  0  0  0  0  0
   58.9473   25.7636   45.1253 H   0  0  0  0  0  0  0  0  0  0  0  0
   60.4589   27.6403   44.4799 H   0  0  0  0  0  0  0  0  0  0  0  0
   59.5771   29.9687   44.3384 H   0  0  0  0  0  0  0  0  0  0  0  0
   58.6204   33.4543   44.4956 H   0  0  0  0  0  0  0  0  0  0  0  0
   56.9257   33.8849   44.0160 H   0  0  0  0  0  0  0  0  0  0  0  0
   61.3843   34.5074   50.3085 H   0  0  0  0  0  0  0  0  0  0  0  0
   63.6509   34.0788   51.2560 H   0  0  0  0  0  0  0  0  0  0  0  0
   65.4683   33.1797   49.7999 H   0  0  0  0  0  0  0  0  0  0  0  0
   65.0201   32.7137   47.3886 H   0  0  0  0  0  0  0  0  0  0  0  0
   62.7556   33.1376   46.4309 H   0  0  0  0  0  0  0  0  0  0  0  0
   61.0199   31.1796   46.1772 H   0  0  0  0  0  0  0  0  0  0  0  0
   61.0001   28.7633   46.7853 H   0  0  0  0  0  0  0  0  0  0  0  0
   58.1977   29.5864   49.9780 H   0  0  0  0  0  0  0  0  0  0  0  0
   58.2177   32.0075   49.3742 H   0  0  0  0  0  0  0  0  0  0  0  0
   55.6591   28.5491   45.5175 H   0  0  0  0  0  0  0  0  0  0  0  0
  1  2  1  0
  2  3  2  0
  2  4  2  0
  2  5  1  0
  5  6  2  0
  6  7  1  0
  7  8  2  0
  8  9  1  0
  9 10  1  0
 10 11  1  0
 11 12  2  0
 11 13  1  0
 13 14  1  0
 14 15  1  0
 15 16  2  0
 16 17  1  0
 17 18  2  0
 18 19  1  0
 19 20  2  0
 20 21  1  0
 21 22  2  0
 22 23  1  0
 23 24  2  0
 18 25  1  0
 25 26  1  0
 26 27  2  0
 27 28  1  0
 28 29  2  0
 29 30  1  0
 29 31  1  0
 31 32  2  0
  9 33  2  0
 33  5  1  0
 25 15  1  0
 32 26  1  0
 24 19  1  0
  1 34  1  0
  1 35  1  0
  6 36  1  0
  7 37  1  0
  8 38  1  0
 13 39  1  0
 13 40  1  0
 20 41  1  0
 21 42  1  0
 22 43  1  0
 23 44  1  0
 24 45  1  0
 27 46  1  0
 28 47  1  0
 31 48  1  0
 32 49  1  0
 33 50  1  0
M  CHG  1  10  -1
M  END
>  <UniqueID>  (32) 
30

>  <SMILES>  (32) 
NS(=O)(=O)c1cccc([N-]C(=O)CSc2nnc(-c3ccccc3)n2-c2ccc(F)cc2)c1

>  <Energy>  (32) 
96.14921847477531

>  <Genealogy>  (32) 
NS(=O)(=O)c1cccc([N-]C(=O)CSc2nnc(-c3ccccc3)n2-c2ccc(F)cc2)c1 (protonated)
NS(=O)(=O)c1cccc([N-]C(=O)CSc2nnc(-c3ccccc3)n2-c2ccc(F)cc2)c1 (3D coordinates assigned)
NS(=O)(=O)c1cccc([N-]C(=O)CSc2nnc(-c3ccccc3)n2-c2ccc(F)cc2)c1 (optimized conformer: 96.14921847477531 kcal/mol)

>  <smiles>  (32) 
NS(=O)(=O)c1cccc(NC(=O)CSc2nnc(-c3ccccc3)n2-c2ccc(F)cc2)c1

>  <score_type>  (32) 
oracle

>  <origin>  (32) 
adg

>  <m_score__min__energy>  (32) 
-11.41

>  <m_primary>  (32) 
energy

$$$$
32:0
     RDKit          3D

 27 28  0  0  0  0  0  0  0  0999 V2000
   63.3340   33.8180   46.3350 C   0  0  0  0  0  0  0  0  0  0  0  0
   63.5980   32.8190   47.4550 C   0  0  0  0  0  0  0  0  0  0  0  0
   62.1280   32.6320   48.5240 S   0  0  0  0  0  0  0  0  0  0  0  0
   61.3010   31.4720   47.4390 C   0  0  0  0  0  0  0  0  0  0  0  0
   61.9280   30.4900   46.7670 N   0  0  0  0  0  0  0  0  0  0  0  0
   60.9880   29.8550   46.0840 N   0  0  0  0  0  0  0  0  0  0  0  0
   59.8260   30.4770   46.3650 C   0  0  0  0  0  0  0  0  0  0  0  0
   58.5130   30.0880   45.8140 C   0  0  0  0  0  0  0  0  0  0  0  0
   57.7850   30.9790   45.0090 C   0  0  0  0  0  0  0  0  0  0  0  0
   56.5410   30.6090   44.4970 C   0  0  0  0  0  0  0  0  0  0  0  0
   56.0110   29.3460   44.7760 C   0  0  0  0  0  0  0  0  0  0  0  0
   54.7690   28.9960   44.2580 O   0  0  0  0  0  0  0  0  0  0  0  0
   56.7280   28.4360   45.5680 C   0  0  0  0  0  0  0  0  0  0  0  0
   56.1460   27.1500   45.8340 N   0  0  0  0  0  0  0  0  0  0  0  0
   56.7790   26.0530   46.4970 C   0  0  0  0  0  0  0  0  0  0  0  0
   56.0720   25.1820   47.0660 O   0  0  0  0  0  0  0  0  0  0  0  0
   57.9780   28.8180   46.0930 C   0  0  0  0  0  0  0  0  0  0  0  0
   60.0140   31.4740   47.1970 O   0  0  0  0  0  0  0  0  0  0  0  0
   63.0757   34.7953   46.7687 H   0  0  0  0  0  0  0  0  0  0  0  0
   64.2362   33.9194   45.7139 H   0  0  0  0  0  0  0  0  0  0  0  0
   62.4995   33.4604   45.7139 H   0  0  0  0  0  0  0  0  0  0  0  0
   63.8493   31.8428   47.0147 H   0  0  0  0  0  0  0  0  0  0  0  0
   64.4323   33.1912   48.0677 H   0  0  0  0  0  0  0  0  0  0  0  0
   58.1973   31.9730   44.7811 H   0  0  0  0  0  0  0  0  0  0  0  0
   55.9748   31.3143   43.8710 H   0  0  0  0  0  0  0  0  0  0  0  0
   57.8759   25.9712   46.5095 H   0  0  0  0  0  0  0  0  0  0  0  0
   58.5405   28.1166   46.7268 H   0  0  0  0  0  0  0  0  0  0  0  0
  1  2  1  0
  2  3  1  0
  3  4  1  0
  4  5  2  0
  5  6  1  0
  6  7  2  0
  7  8  1  0
  8  9  2  0
  9 10  1  0
 10 11  2  0
 11 12  1  0
 11 13  1  0
 13 14  1  0
 14 15  1  0
 15 16  2  0
 13 17  2  0
  7 18  1  0
 18  4  1  0
 17  8  1  0
  1 19  1  0
  1 20  1  0
  1 21  1  0
  2 22  1  0
  2 23  1  0
  9 24  1  0
 10 25  1  0
 15 26  1  0
 17 27  1  0
M  CHG  2  12  -1  14  -1
M  END
>  <UniqueID>  (33) 
31

>  <SMILES>  (33) 
CCSc1nnc(-c2ccc([O-])c([N-]C=O)c2)o1

>  <Energy>  (33) 
57.43873475331839

>  <Genealogy>  (33) 
CCSc1nnc(-c2ccc([O-])c([N-]C=O)c2)o1 (protonated)
CCSc1nnc(-c2ccc([O-])c([N-]C=O)c2)o1 (3D coordinates assigned)
CCSc1nnc(-c2ccc([O-])c([N-]C=O)c2)o1 (optimized conformer: 57.43873475331839 kcal/mol)

>  <smiles>  (33) 
CCSc1nnc(-c2ccc(O)c(NC=O)c2)o1

>  <score_type>  (33) 
oracle

>  <origin>  (33) 
adg

>  <m_score__min__energy>  (33) 
-12.5

>  <m_primary>  (33) 
energy

$$$$
33:0
     RDKit          3D

 50 53  0  0  0  0  0  0  0  0999 V2000
   60.7600   27.4750   49.5280 C   0  0  0  0  0  0  0  0  0  0  0  0
   60.2260   27.8970   48.1860 C   0  0  0  0  0  0  0  0  0  0  0  0
   59.5560   26.9760   47.4470 N   0  0  0  0  0  0  0  0  0  0  0  0
   59.0290   27.2800   46.2370 C   0  0  0  0  0  0  0  0  0  0  0  0
   58.3430   26.3030   45.5060 C   0  0  0  0  0  0  0  0  0  0  0  0
   57.8020   26.6160   44.2560 C   0  0  0  0  0  0  0  0  0  0  0  0
   57.9400   27.9060   43.7350 C   0  0  0  0  0  0  0  0  0  0  0  0
   58.6230   28.8880   44.4600 C   0  0  0  0  0  0  0  0  0  0  0  0
   59.1720   28.5800   45.7200 C   0  0  0  0  0  0  0  0  0  0  0  0
   59.8730   29.5260   46.4860 C   0  0  0  0  0  0  0  0  0  0  0  0
   60.0300   30.7000   46.0440 O   0  0  0  0  0  0  0  0  0  0  0  0
   60.3950   29.1750   47.7060 N   0  0  0  0  0  0  0  0  0  0  0  0
   61.1080   30.1590   48.4780 C   0  0  0  0  0  0  0  0  0  0  0  0
   60.7460   30.5180   49.7750 C   0  0  0  0  0  0  0  0  0  0  0  0
   61.8170   31.7000   50.3090 S   0  0  0  0  0  0  0  0  0  0  0  0
   62.7420   31.7500   48.9030 C   0  0  0  0  0  0  0  0  0  0  0  0
   63.8560   32.6290   48.6750 N   0  0  0  0  0  0  0  0  0  0  0  0
   63.4060   33.9670   48.2480 C   0  0  0  0  0  0  0  0  0  0  0  0
   62.0190   34.3420   48.8070 C   0  0  0  0  0  0  0  0  0  0  0  0
   60.9090   33.9750   47.8540 C   0  0  0  0  0  0  0  0  0  0  0  0
   61.0780   34.1190   46.4660 C   0  0  0  0  0  0  0  0  0  0  0  0
   60.0380   33.7960   45.5900 C   0  0  0  0  0  0  0  0  0  0  0  0
   58.8180   33.3170   46.0890 C   0  0  0  0  0  0  0  0  0  0  0  0
   57.4980   32.9060   44.9970 S   0  0  0  0  0  0  0  0  0  0  0  0
   57.0350   31.2600   45.2470 N   0  0  0  0  0  0  0  0  0  0  0  0
   57.9480   33.0940   43.5760 O   0  0  0  0  0  0  0  0  0  0  0  0
   56.3140   33.7950   45.2530 O   0  0  0  0  0  0  0  0  0  0  0  0
   58.6460   33.1720   47.4710 C   0  0  0  0  0  0  0  0  0  0  0  0
   59.6830   33.5010   48.3500 C   0  0  0  0  0  0  0  0  0  0  0  0
   62.2320   30.8380   47.9870 C   0  0  0  0  0  0  0  0  0  0  0  0
   60.1644   27.9457   50.3241 H   0  0  0  0  0  0  0  0  0  0  0  0
   60.6961   26.3808   49.6205 H   0  0  0  0  0  0  0  0  0  0  0  0
   61.8098   27.7901   49.6205 H   0  0  0  0  0  0  0  0  0  0  0  0
   58.2297   25.2884   45.9156 H   0  0  0  0  0  0  0  0  0  0  0  0
   57.2667   25.8460   43.6811 H   0  0  0  0  0  0  0  0  0  0  0  0
   57.5102   28.1494   42.7521 H   0  0  0  0  0  0  0  0  0  0  0  0
   58.7314   29.9013   44.0459 H   0  0  0  0  0  0  0  0  0  0  0  0
   59.9059   30.1009   50.3497 H   0  0  0  0  0  0  0  0  0  0  0  0
   64.5100   32.2160   47.9710 H   0  0  0  0  0  0  0  0  0  0  0  0
   64.3780   32.7260   49.5770 H   0  0  0  0  0  0  0  0  0  0  0  0
   64.1375   34.7109   48.5968 H   0  0  0  0  0  0  0  0  0  0  0  0
   63.3263   33.9532   47.1510 H   0  0  0  0  0  0  0  0  0  0  0  0
   61.8627   33.8093   49.7566 H   0  0  0  0  0  0  0  0  0  0  0  0
   61.9947   35.4318   48.9542 H   0  0  0  0  0  0  0  0  0  0  0  0
   62.0343   34.4880   46.0670 H   0  0  0  0  0  0  0  0  0  0  0  0
   60.1768   33.9179   44.5056 H   0  0  0  0  0  0  0  0  0  0  0  0
   57.8550   30.7790   45.6810 H   0  0  0  0  0  0  0  0  0  0  0  0
   57.6907   32.7975   47.8673 H   0  0  0  0  0  0  0  0  0  0  0  0
   59.5380   33.3881   49.4345 H   0  0  0  0  0  0  0  0  0  0  0  0
   62.6619   30.6679   46.9889 H   0  0  0  0  0  0  0  0  0  0  0  0
  1  2  1  0
  2  3  2  0
  3  4  1  0
  4  5  2  0
  5  6  1  0
  6  7  2  0
  7  8  1  0
  8  9  2  0
  9 10  1  0
 10 11  2  0
 10 12  1  0
 12 13  1  0
 13 14  2  0
 14 15  1  0
 15 16  1  0
 16 17  1  0
 17 18  1  0
 18 19  1  0
 19 20  1  0
 20 21  2  0
 21 22  1  0
 22 23  2  0
 23 24  1  0
 24 25  1  0
 24 26  2  0
 24 27  2  0
 23 28  1  0
 28 29  2  0
 16 30  2  0
 12  2  1  0
 30 13  1  0
  9  4  1  0
 29 20  1  0
  1 31  1  0
  1 32  1  0
  1 33  1  0
  5 34  1  0
  6 35  1  0
  7 36  1  0
  8 37  1  0
 14 38  1  0
 17 39  1  0
 17 40  1  0
 18 41  1  0
 18 42  1  0
 19 43  1  0
 19 44  1  0
 21 45  1  0
 22 46  1  0
 25 47  1  0
 28 48  1  0
 29 49  1  0
 30 50  1  0
M  CHG  2  17   1  25  -1
M  END
>  <UniqueID>  (34) 
32

>  <SMILES>  (34) 
Cc1nc2ccccc2c(=O)n1-c1csc([NH2+]CCc2ccc(S([NH-])(=O)=O)cc2)c1

>  <Energy>  (34) 
92.35813182257556

>  <Genealogy>  (34) 
Cc1nc2ccccc2c(=O)n1-c1csc([NH2+]CCc2ccc(S([NH-])(=O)=O)cc2)c1 (protonated)
Cc1nc2ccccc2c(=O)n1-c1csc([NH2+]CCc2ccc(S([NH-])(=O)=O)cc2)c1 (3D coordinates assigned)
Cc1nc2ccccc2c(=O)n1-c1csc([NH2+]CCc2ccc(S([NH-])(=O)=O)cc2)c1 (optimized conformer: 92.35813182257556 kcal/mol)

>  <smiles>  (34) 
Cc1nc2ccccc2c(=O)n1-c1csc(NCCc2ccc(S(N)(=O)=O)cc2)c1

>  <score_type>  (34) 
oracle

>  <origin>  (34) 
adg

>  <m_score__min__energy>  (34) 
-10.35

>  <m_primary>  (34) 
energy

$$$$
34:0
     RDKit          3D

 40 42  0  0  0  0  0  0  0  0999 V2000
   59.3240   31.7930   44.8990 H   0  0  0  0  0  0  0  0  0  0  0  0
   59.3320   30.8430   45.2390 O   0  0  0  0  0  0  0  0  0  0  0  0
   58.2260   29.9850   45.2680 C   0  0  0  0  0  0  0  0  0  0  0  0
   57.0760   30.3330   44.5150 C   0  0  0  0  0  0  0  0  0  0  0  0
   56.9970   31.5850   43.7100 C   0  0  0  0  0  0  0  0  0  0  0  0
   56.2192   31.6749   42.9374 H   0  0  0  0  0  0  0  0  0  0  0  0
   57.8190   32.5720   43.8940 N   0  0  0  0  0  0  0  0  0  0  0  0
   57.4560   33.7870   44.6160 C   0  0  0  0  0  0  0  0  0  0  0  0
   58.3197   34.4679   44.6344 H   0  0  0  0  0  0  0  0  0  0  0  0
   56.6064   34.2624   44.1040 H   0  0  0  0  0  0  0  0  0  0  0  0
   57.0440   33.4590   46.0530 C   0  0  0  0  0  0  0  0  0  0  0  0
   56.2737   34.1728   46.3802 H   0  0  0  0  0  0  0  0  0  0  0  0
   56.6491   32.4328   46.0834 H   0  0  0  0  0  0  0  0  0  0  0  0
   58.2290   33.5510   46.9780 C   0  0  0  0  0  0  0  0  0  0  0  0
   59.2270   34.5160   46.7570 C   0  0  0  0  0  0  0  0  0  0  0  0
   59.1301   35.2231   45.9200 H   0  0  0  0  0  0  0  0  0  0  0  0
   60.3430   34.5800   47.5980 C   0  0  0  0  0  0  0  0  0  0  0  0
   61.1178   35.3417   47.4262 H   0  0  0  0  0  0  0  0  0  0  0  0
   60.4740   33.6770   48.6560 C   0  0  0  0  0  0  0  0  0  0  0  0
   61.3508   33.7300   49.3181 H   0  0  0  0  0  0  0  0  0  0  0  0
   59.4930   32.7070   48.8740 C   0  0  0  0  0  0  0  0  0  0  0  0
   59.5997   31.9954   49.7060 H   0  0  0  0  0  0  0  0  0  0  0  0
   58.3750   32.6390   48.0360 C   0  0  0  0  0  0  0  0  0  0  0  0
   57.6080   31.8690   48.2062 H   0  0  0  0  0  0  0  0  0  0  0  0
   55.9710   29.4580   44.5220 C   0  0  0  0  0  0  0  0  0  0  0  0
   54.9310   29.7260   43.8620 O   0  0  0  0  0  0  0  0  0  0  0  0
   56.0080   28.3120   45.2420 N   0  0  0  0  0  0  0  0  0  0  0  0
   57.0850   27.9520   45.9810 C   0  0  0  0  0  0  0  0  0  0  0  0
   57.0450   26.7570   46.7050 C   0  0  0  0  0  0  0  0  0  0  0  0
   56.1468   26.1232   46.6653 H   0  0  0  0  0  0  0  0  0  0  0  0
   58.1370   26.3640   47.4770 C   0  0  0  0  0  0  0  0  0  0  0  0
   58.0937   25.4263   48.0505 H   0  0  0  0  0  0  0  0  0  0  0  0
   59.2880   27.1580   47.5250 C   0  0  0  0  0  0  0  0  0  0  0  0
   60.4450   26.7540   48.3910 C   0  0  0  0  0  0  0  0  0  0  0  0
   60.1627   26.8526   49.4496 H   0  0  0  0  0  0  0  0  0  0  0  0
   60.7142   25.7087   48.1791 H   0  0  0  0  0  0  0  0  0  0  0  0
   61.3063   27.4046   48.1791 H   0  0  0  0  0  0  0  0  0  0  0  0
   59.3280   28.3690   46.8140 C   0  0  0  0  0  0  0  0  0  0  0  0
   60.2228   29.0058   46.8755 H   0  0  0  0  0  0  0  0  0  0  0  0
   58.2330   28.7790   46.0210 C   0  0  0  0  0  0  0  0  0  0  0  0
  1  2  1  0
  2  3  1  0
  3  4  2  0
  4  5  1  0
  5  6  1  0
  5  7  2  0
  7  8  1  0
  8  9  1  0
  8 10  1  0
  8 11  1  0
 11 12  1  0
 11 13  1  0
 11 14  1  0
 14 15  2  0
 15 16  1  0
 15 17  1  0
 17 18  1  0
 17 19  2  0
 19 20  1  0
 19 21  1  0
 21 22  1  0
 21 23  2  0
 23 24  1  0
  4 25  1  0
 25 26  2  0
 25 27  1  0
 27 28  1  0
 28 29  2  0
 29 30  1  0
 29 31  1  0
 31 32  1  0
 31 33  2  0
 33 34  1  0
 34 35  1  0
 34 36  1  0
 34 37  1  0
 33 38  1  0
 38 39  1  0
 38 40  2  0
 40  3  1  0
 23 14  1  0
 40 28  1  0
M  CHG  1  27  -1
M  END
>  <UniqueID>  (35) 
33

>  <SMILES>  (35) 
Cc1ccc2[n-]c(=O)c(/C=N/CCc3ccccc3)c(O)c2c1

>  <Energy>  (35) 
47.48608992763908

>  <Genealogy>  (35) 
Cc1ccc2[n-]c(=O)c(C=NCCc3ccccc3)c(O)c2c1 (protonated)
Cc1ccc2[n-]c(=O)c(/C=N/CCc3ccccc3)c(O)c2c1 (cis-trans isomerization)
Cc1ccc2[n-]c(=O)c(/C=N/CCc3ccccc3)c(O)c2c1 (3D coordinates assigned)
Cc1ccc2[n-]c(=O)c(/C=N/CCc3ccccc3)c(O)c2c1 (optimized conformer: 47.48608992763908 kcal/mol)

>  <smiles>  (35) 
Cc1ccc2[nH]c(=O)c(C=NCCc3ccccc3)c(O)c2c1

>  <score_type>  (35) 
oracle

>  <origin>  (35) 
adg

>  <m_score__min__energy>  (35) 
-9.0299999999999994

>  <m_primary>  (35) 
energy

$$$$
35:0
     RDKit          3D

 53 56  0  0  0  0  0  0  0  0999 V2000
   57.3610   34.5400   44.8720 C   0  0  0  0  0  0  0  0  0  0  0  0
   57.8950   33.1680   44.9670 C   0  0  0  0  0  0  0  0  0  0  0  0
   57.7250   32.3190   43.8960 C   0  0  0  0  0  0  0  0  0  0  0  0
   58.2090   31.0190   43.9370 C   0  0  0  0  0  0  0  0  0  0  0  0
   58.8780   30.4990   45.0210 C   0  0  0  0  0  0  0  0  0  0  0  0
   59.3690   29.1840   45.1150 N   0  0  0  0  0  0  0  0  0  0  0  0
   58.6550   27.9920   45.0270 C   0  0  0  0  0  0  0  0  0  0  0  0
   58.4450   27.4570   43.7510 C   0  0  0  0  0  0  0  0  0  0  0  0
   57.7720   26.2680   43.5610 C   0  0  0  0  0  0  0  0  0  0  0  0
   57.2830   25.5650   44.6400 C   0  0  0  0  0  0  0  0  0  0  0  0
   56.4000   24.0210   44.4790 S   0  0  0  0  0  0  0  0  0  0  0  0
   54.8970   24.1430   45.4850 C   0  0  0  0  0  0  0  0  0  0  0  0
   55.1470   23.6470   46.7460 F   0  0  0  0  0  0  0  0  0  0  0  0
   54.6160   25.4850   45.6240 F   0  0  0  0  0  0  0  0  0  0  0  0
   53.8440   23.4620   44.8950 F   0  0  0  0  0  0  0  0  0  0  0  0
   57.4730   26.0600   45.9040 C   0  0  0  0  0  0  0  0  0  0  0  0
   58.1520   27.2580   46.0730 C   0  0  0  0  0  0  0  0  0  0  0  0
   59.0400   31.3800   46.0990 C   0  0  0  0  0  0  0  0  0  0  0  0
   59.8810   30.8430   47.5540 Cl  0  0  0  0  0  0  0  0  0  0  0  0
   58.5620   32.6710   46.0660 C   0  0  0  0  0  0  0  0  0  0  0  0
   58.7530   33.5530   47.2200 C   0  0  0  0  0  0  0  0  0  0  0  0
   60.1020   33.9380   47.4410 O   0  0  0  0  0  0  0  0  0  0  0  0
   60.7010   33.7690   48.7010 C   0  0  0  0  0  0  0  0  0  0  0  0
   59.8850   33.8770   49.8280 C   0  0  0  0  0  0  0  0  0  0  0  0
   60.3880   33.7250   51.1080 C   0  0  0  0  0  0  0  0  0  0  0  0
   61.7360   33.4600   51.2770 C   0  0  0  0  0  0  0  0  0  0  0  0
   62.5410   33.3540   50.1560 C   0  0  0  0  0  0  0  0  0  0  0  0
   63.8460   33.0960   50.3410 N   0  0  0  0  0  0  0  0  0  0  0  0
   64.6430   32.9910   49.2540 C   0  0  0  0  0  0  0  0  0  0  0  0
   65.8960   32.7420   49.4610 N   0  0  0  0  0  0  0  0  0  0  0  0
   64.1530   33.1390   48.0090 N   0  0  0  0  0  0  0  0  0  0  0  0
   62.8520   33.3980   47.7740 C   0  0  0  0  0  0  0  0  0  0  0  0
   62.3830   33.5380   46.5630 N   0  0  0  0  0  0  0  0  0  0  0  0
   62.0270   33.5080   48.8730 C   0  0  0  0  0  0  0  0  0  0  0  0
   57.2041   34.9432   45.8833 H   0  0  0  0  0  0  0  0  0  0  0  0
   58.0774   35.1756   44.3309 H   0  0  0  0  0  0  0  0  0  0  0  0
   56.4034   34.5241   44.3309 H   0  0  0  0  0  0  0  0  0  0  0  0
   57.1995   32.6754   42.9977 H   0  0  0  0  0  0  0  0  0  0  0  0
   58.0501   30.3733   43.0607 H   0  0  0  0  0  0  0  0  0  0  0  0
   60.4210   29.0940   45.2750 H   0  0  0  0  0  0  0  0  0  0  0  0
   58.8276   28.0003   42.8744 H   0  0  0  0  0  0  0  0  0  0  0  0
   57.6250   25.8792   42.5426 H   0  0  0  0  0  0  0  0  0  0  0  0
   57.0902   25.5118   46.7774 H   0  0  0  0  0  0  0  0  0  0  0  0
   58.2945   27.6386   47.0952 H   0  0  0  0  0  0  0  0  0  0  0  0
   58.1560   34.4632   47.0612 H   0  0  0  0  0  0  0  0  0  0  0  0
   58.4366   32.9855   48.1076 H   0  0  0  0  0  0  0  0  0  0  0  0
   58.8137   34.0885   49.6952 H   0  0  0  0  0  0  0  0  0  0  0  0
   59.7245   33.8137   51.9809 H   0  0  0  0  0  0  0  0  0  0  0  0
   62.1600   33.3358   52.2844 H   0  0  0  0  0  0  0  0  0  0  0  0
   64.2070   32.9860   51.3110 H   0  0  0  0  0  0  0  0  0  0  0  0
   66.5380   32.7390   48.6370 H   0  0  0  0  0  0  0  0  0  0  0  0
   64.8280   33.0430   47.2240 H   0  0  0  0  0  0  0  0  0  0  0  0
   61.3580   33.5520   46.4670 H   0  0  0  0  0  0  0  0  0  0  0  0
  1  2  1  0
  2  3  2  0
  3  4  1  0
  4  5  2  0
  5  6  1  0
  6  7  1  0
  7  8  2  0
  8  9  1  0
  9 10  2  0
 10 11  1  0
 11 12  1  0
 12 13  1  0
 12 14  1  0
 12 15  1  0
 10 16  1  0
 16 17  2  0
  5 18  1  0
 18 19  1  0
 18 20  2  0
 20 21  1  0
 21 22  1  0
 22 23  1  0
 23 24  2  0
 24 25  1  0
 25 26  2  0
 26 27  1  0
 27 28  1  0
 28 29  1  0
 29 30  2  3
 29 31  1  0
 31 32  1  0
 32 33  2  3
 32 34  1  0
 20  2  1  0
 34 23  1  0
 17  7  1  0
 34 27  2  0
  1 35  1  0
  1 36  1  0
  1 37  1  0
  3 38  1  0
  4 39  1  0
  6 40  1  0
  8 41  1  0
  9 42  1  0
 16 43  1  0
 17 44  1  0
 21 45  1  0
 21 46  1  0
 24 47  1  0
 25 48  1  0
 26 49  1  0
 28 50  1  0
 30 51  1  0
 31 52  1  0
 33 53  1  0
M  END
>  <smiles>  (36) 
Cc1ccc(Nc2ccc(SC(F)(F)F)cc2)c(Cl)c1COc1cccc2[nH]c(=N)[nH]c(=N)c12

>  <score_type>  (36) 
oracle

>  <origin>  (36) 
adg

>  <m_score__min__energy>  (36) 
-9.3499999999999996

>  <m_primary>  (36) 
energy

$$$$
36:0
     RDKit          3D

 31 32  0  0  1  0  0  0  0  0999 V2000
   57.3330   32.1810   41.3020 C   0  0  0  0  0  0  0  0  0  0  0  0
   57.0180   31.2150   42.4140 C   0  0  0  0  0  0  0  0  0  0  0  0
   56.3270   30.0640   42.3460 N   0  0  0  0  0  0  0  0  0  0  0  0
   56.2740   29.5250   43.5290 N   0  0  0  0  0  0  0  0  0  0  0  0
   56.9200   30.2950   44.4120 C   0  0  0  0  0  0  0  0  0  0  0  0
   57.0620   30.0780   45.6310 O   0  0  0  0  0  0  0  0  0  0  0  0
   57.4130   31.3860   43.7490 C   0  0  0  0  0  0  0  0  0  0  0  0
   58.1780   32.5320   44.1720 C   0  0  0  0  0  0  0  0  0  0  0  0
   57.9080   33.3070   45.1640 N   0  0  0  0  0  0  0  0  0  0  0  0
   58.7430   34.4710   45.4470 C   0  0  0  0  0  0  0  0  0  0  0  0
   59.3320   34.4660   46.8070 C   0  0  0  0  0  0  0  0  0  0  0  0
   59.8820   33.1020   47.2110 C   0  0  0  0  0  0  0  0  0  0  0  0
   61.3290   33.0990   47.1210 N   0  0  0  0  0  0  0  0  0  0  0  0
   62.1850   33.8220   46.4010 C   0  0  0  0  0  0  0  0  0  0  0  0
   63.4620   33.4470   46.6720 N   0  0  0  0  0  0  0  0  0  0  0  0
   63.3630   32.4510   47.5970 C   0  0  0  0  0  0  0  0  0  0  0  0
   62.0680   32.2540   47.8580 N   0  0  0  0  0  0  0  0  0  0  0  0
   57.6470   33.1440   41.7309 H   0  0  0  0  0  0  0  0  0  0  0  0
   58.1449   31.7738   40.6815 H   0  0  0  0  0  0  0  0  0  0  0  0
   56.4371   32.3306   40.6815 H   0  0  0  0  0  0  0  0  0  0  0  0
   55.9150   29.7060   41.4310 H   0  0  0  0  0  0  0  0  0  0  0  0
   55.7720   28.6060   43.7140 H   0  0  0  0  0  0  0  0  0  0  0  0
   59.0813   32.7676   43.5901 H   0  0  0  0  0  0  0  0  0  0  0  0
   59.5626   34.4968   44.7138 H   0  0  0  0  0  0  0  0  0  0  0  0
   58.0930   35.3560   45.3817 H   0  0  0  0  0  0  0  0  0  0  0  0
   60.1525   35.1980   46.8367 H   0  0  0  0  0  0  0  0  0  0  0  0
   58.5297   34.7211   47.5150 H   0  0  0  0  0  0  0  0  0  0  0  0
   59.5819   32.8812   48.2460 H   0  0  0  0  0  0  0  0  0  0  0  0
   59.4785   32.3367   46.5316 H   0  0  0  0  0  0  0  0  0  0  0  0
   61.8988   34.6100   45.6889 H   0  0  0  0  0  0  0  0  0  0  0  0
   64.2034   31.9045   48.0498 H   0  0  0  0  0  0  0  0  0  0  0  0
  1  2  1  0
  2  3  1  0
  3  4  1  0
  4  5  1  0
  5  6  2  0
  5  7  1  0
  7  8  1  0
  8  9  2  0
  9 10  1  0
 10 11  1  0
 11 12  1  0
 12 13  1  0
 13 14  1  0
 14 15  2  0
 15 16  1  0
 16 17  2  0
  7  2  2  0
 17 13  1  0
  1 18  1  0
  1 19  1  0
  1 20  1  0
  3 21  1  0
  4 22  1  0
  8 23  1  0
 10 24  1  0
 10 25  1  0
 11 26  1  0
 11 27  1  0
 12 28  1  0
 12 29  1  0
 14 30  1  0
 16 31  1  0
M  END
>  <smiles>  (37) 
Cc1[nH][nH]c(=O)c1C=NCCCn1cncn1

>  <score_type>  (37) 
oracle

>  <origin>  (37) 
adg

>  <m_score__min__energy>  (37) 
-6.0499999999999998

>  <m_primary>  (37) 
energy

$$$$
37:0
     RDKit          3D

 46 49  0  0  0  0  0  0  0  0999 V2000
   54.3990   25.9650   45.9260 N   0  0  0  0  0  0  0  0  0  0  0  0
   54.3670   24.2670   45.6140 S   0  0  0  0  0  0  0  0  0  0  0  0
   52.9600   23.7700   45.7870 O   0  0  0  0  0  0  0  0  0  0  0  0
   54.8160   24.0190   44.2010 O   0  0  0  0  0  0  0  0  0  0  0  0
   55.4510   23.4460   46.7730 C   0  0  0  0  0  0  0  0  0  0  0  0
   57.1140   24.1060   46.7510 S   0  0  0  0  0  0  0  0  0  0  0  0
   58.0100   23.0590   46.1480 O   0  0  0  0  0  0  0  0  0  0  0  0
   57.5990   24.3780   48.1470 O   0  0  0  0  0  0  0  0  0  0  0  0
   57.2150   25.5320   45.7610 N   0  0  0  0  0  0  0  0  0  0  0  0
   58.1140   26.6280   45.9960 C   0  0  0  0  0  0  0  0  0  0  0  0
   59.5090   26.4530   46.0390 C   0  0  0  0  0  0  0  0  0  0  0  0
   60.3500   27.5410   46.2870 C   0  0  0  0  0  0  0  0  0  0  0  0
   59.8130   28.8180   46.4670 C   0  0  0  0  0  0  0  0  0  0  0  0
   58.4330   29.0200   46.3670 C   0  0  0  0  0  0  0  0  0  0  0  0
   57.8960   30.3280   46.6030 N   0  0  0  0  0  0  0  0  0  0  0  0
   58.0810   31.4530   45.9550 C   0  0  0  0  0  0  0  0  0  0  0  0
   57.7020   31.4870   44.5890 C   0  0  0  0  0  0  0  0  0  0  0  0
   56.9960   30.4250   43.9800 C   0  0  0  0  0  0  0  0  0  0  0  0
   56.6800   30.4690   42.6200 C   0  0  0  0  0  0  0  0  0  0  0  0
   57.0700   31.5600   41.8430 C   0  0  0  0  0  0  0  0  0  0  0  0
   57.7770   32.6140   42.4240 C   0  0  0  0  0  0  0  0  0  0  0  0
   58.0920   32.5850   43.7870 C   0  0  0  0  0  0  0  0  0  0  0  0
   58.7870   33.6130   44.3310 N   0  0  0  0  0  0  0  0  0  0  0  0
   59.0850   33.6670   45.6510 C   0  0  0  0  0  0  0  0  0  0  0  0
   59.7410   34.7990   46.1490 C   0  0  0  0  0  0  0  0  0  0  0  0
   59.9450   34.9460   47.5190 C   0  0  0  0  0  0  0  0  0  0  0  0
   59.4580   33.9840   48.4010 C   0  0  0  0  0  0  0  0  0  0  0  0
   58.8120   32.8460   47.9150 C   0  0  0  0  0  0  0  0  0  0  0  0
   58.6850   32.6190   46.5230 C   0  0  0  0  0  0  0  0  0  0  0  0
   57.5850   27.9180   46.1600 C   0  0  0  0  0  0  0  0  0  0  0  0
   53.4800   26.3510   45.6120 H   0  0  0  0  0  0  0  0  0  0  0  0
   55.0385   23.5654   47.7857 H   0  0  0  0  0  0  0  0  0  0  0  0
   55.5101   22.3875   46.4796 H   0  0  0  0  0  0  0  0  0  0  0  0
   56.4270   25.6790   45.0920 H   0  0  0  0  0  0  0  0  0  0  0  0
   59.9402   25.4542   45.8765 H   0  0  0  0  0  0  0  0  0  0  0  0
   61.4385   27.3915   46.3407 H   0  0  0  0  0  0  0  0  0  0  0  0
   60.4772   29.6665   46.6879 H   0  0  0  0  0  0  0  0  0  0  0  0
   56.6926   29.5560   44.5823 H   0  0  0  0  0  0  0  0  0  0  0  0
   56.1216   29.6404   42.1601 H   0  0  0  0  0  0  0  0  0  0  0  0
   56.8203   31.5897   40.7721 H   0  0  0  0  0  0  0  0  0  0  0  0
   58.0877   33.4707   41.8080 H   0  0  0  0  0  0  0  0  0  0  0  0
   60.0967   35.5754   45.4557 H   0  0  0  0  0  0  0  0  0  0  0  0
   60.4899   35.8206   47.9039 H   0  0  0  0  0  0  0  0  0  0  0  0
   59.5830   34.1217   49.4852 H   0  0  0  0  0  0  0  0  0  0  0  0
   58.3955   32.1149   48.6236 H   0  0  0  0  0  0  0  0  0  0  0  0
   56.4958   28.0681   46.1262 H   0  0  0  0  0  0  0  0  0  0  0  0
  1  2  1  0
  2  3  2  0
  2  4  2  0
  2  5  1  0
  5  6  1  0
  6  7  2  0
  6  8  2  0
  6  9  1  0
  9 10  1  0
 10 11  2  0
 11 12  1  0
 12 13  2  0
 13 14  1  0
 14 15  1  0
 15 16  2  3
 16 17  1  0
 17 18  2  0
 18 19  1  0
 19 20  2  0
 20 21  1  0
 21 22  2  0
 22 23  1  0
 23 24  1  0
 24 25  2  0
 25 26  1  0
 26 27  2  0
 27 28  1  0
 28 29  2  0
 14 30  2  0
 30 10  1  0
 29 16  1  0
 22 17  1  0
 29 24  1  0
  1 31  1  0
  5 32  1  0
  5 33  1  0
  9 34  1  0
 11 35  1  0
 12 36  1  0
 13 37  1  0
 18 38  1  0
 19 39  1  0
 20 40  1  0
 21 41  1  0
 25 42  1  0
 26 43  1  0
 27 44  1  0
 28 45  1  0
 30 46  1  0
M  CHG  2   1  -1  23  -1
M  END
>  <UniqueID>  (38) 
34

>  <SMILES>  (38) 
[NH-]S(=O)(=O)CS(=O)(=O)Nc1cccc(N=c2c3ccccc3[n-]c3ccccc23)c1

>  <Energy>  (38) 
75.22007141194814

>  <Genealogy>  (38) 
[NH-]S(=O)(=O)CS(=O)(=O)Nc1cccc(N=c2c3ccccc3[n-]c3ccccc23)c1 (protonated)
[NH-]S(=O)(=O)CS(=O)(=O)Nc1cccc(N=c2c3ccccc3[n-]c3ccccc23)c1 (3D coordinates assigned)
[NH-]S(=O)(=O)CS(=O)(=O)Nc1cccc(N=c2c3ccccc3[n-]c3ccccc23)c1 (optimized conformer: 75.22007141194814 kcal/mol)

>  <smiles>  (38) 
NS(=O)(=O)CS(=O)(=O)Nc1cccc(N=c2c3ccccc3[nH]c3ccccc23)c1

>  <score_type>  (38) 
oracle

>  <origin>  (38) 
adg

>  <m_score__min__energy>  (38) 
-13.609999999999999

>  <m_primary>  (38) 
energy

$$$$
38:0
     RDKit          3D

 30 32  0  0  0  0  0  0  0  0999 V2000
   60.8070   30.0320   46.3930 N   0  0  0  0  0  0  0  0  0  0  0  0
   59.5220   29.4250   46.2020 C   0  0  0  0  0  0  0  0  0  0  0  0
   59.2730   28.1630   46.7650 C   0  0  0  0  0  0  0  0  0  0  0  0
   58.0360   27.5260   46.5710 C   0  0  0  0  0  0  0  0  0  0  0  0
   57.7450   26.2630   47.1130 C   0  0  0  0  0  0  0  0  0  0  0  0
   58.5950   25.6400   47.8040 O   0  0  0  0  0  0  0  0  0  0  0  0
   56.5280   25.7000   46.8920 N   0  0  0  0  0  0  0  0  0  0  0  0
   55.5800   26.3350   46.1540 C   0  0  0  0  0  0  0  0  0  0  0  0
   54.4620   25.7910   45.9660 O   0  0  0  0  0  0  0  0  0  0  0  0
   55.8370   27.5570   45.6200 N   0  0  0  0  0  0  0  0  0  0  0  0
   57.0390   28.1650   45.8090 C   0  0  0  0  0  0  0  0  0  0  0  0
   57.2800   29.4230   45.2520 C   0  0  0  0  0  0  0  0  0  0  0  0
   58.5200   30.0580   45.4340 C   0  0  0  0  0  0  0  0  0  0  0  0
   58.7320   31.3760   44.8970 N   0  0  0  0  0  0  0  0  0  0  0  0
   58.8780   32.5570   45.7060 C   0  0  0  0  0  0  0  0  0  0  0  0
   58.7560   32.4580   47.1010 C   0  0  0  0  0  0  0  0  0  0  0  0
   58.9120   33.5900   47.9070 C   0  0  0  0  0  0  0  0  0  0  0  0
   59.2050   34.8270   47.3280 C   0  0  0  0  0  0  0  0  0  0  0  0
   59.3480   34.9340   45.9430 C   0  0  0  0  0  0  0  0  0  0  0  0
   59.6470   36.1320   45.3820 F   0  0  0  0  0  0  0  0  0  0  0  0
   59.1920   33.8040   45.1320 C   0  0  0  0  0  0  0  0  0  0  0  0
   61.5270   29.6130   47.0200 H   0  0  0  0  0  0  0  0  0  0  0  0
   61.0340   30.9450   45.9390 H   0  0  0  0  0  0  0  0  0  0  0  0
   60.0530   27.6690   47.3629 H   0  0  0  0  0  0  0  0  0  0  0  0
   56.4929   29.9204   44.6663 H   0  0  0  0  0  0  0  0  0  0  0  0
   58.8430   31.4690   43.8620 H   0  0  0  0  0  0  0  0  0  0  0  0
   58.5364   31.4841   47.5628 H   0  0  0  0  0  0  0  0  0  0  0  0
   58.8038   33.5063   48.9985 H   0  0  0  0  0  0  0  0  0  0  0  0
   59.3231   35.7172   47.9633 H   0  0  0  0  0  0  0  0  0  0  0  0
   59.3151   33.8903   44.0423 H   0  0  0  0  0  0  0  0  0  0  0  0
  1  2  1  0
  2  3  2  0
  3  4  1  0
  4  5  1  0
  5  6  2  0
  5  7  1  0
  7  8  1  0
  8  9  2  0
  8 10  1  0
 10 11  1  0
 11 12  1  0
 12 13  2  0
 13 14  1  0
 14 15  1  0
 15 16  2  0
 16 17  1  0
 17 18  2  0
 18 19  1  0
 19 20  1  0
 19 21  2  0
 13  2  1  0
 21 15  1  0
 11  4  2  0
  1 22  1  0
  1 23  1  0
  3 24  1  0
 12 25  1  0
 14 26  1  0
 16 27  1  0
 17 28  1  0
 18 29  1  0
 21 30  1  0
M  CHG  2   7  -1  10  -1
M  END
>  <UniqueID>  (39) 
35

>  <SMILES>  (39) 
Nc1cc2c(=O)[n-]c(=O)[n-]c2cc1Nc1cccc(F)c1

>  <Energy>  (39) 
44.02019523071324

>  <Genealogy>  (39) 
Nc1cc2c(=O)[n-]c(=O)[n-]c2cc1Nc1cccc(F)c1 (protonated)
Nc1cc2c(=O)[n-]c(=O)[n-]c2cc1Nc1cccc(F)c1 (3D coordinates assigned)
Nc1cc2c(=O)[n-]c(=O)[n-]c2cc1Nc1cccc(F)c1 (optimized conformer: 44.02019523071324 kcal/mol)

>  <smiles>  (39) 
Nc1cc2c(=O)[nH]c(=O)[nH]c2cc1Nc1cccc(F)c1

>  <score_type>  (39) 
oracle

>  <origin>  (39) 
adg

>  <m_score__min__energy>  (39) 
-10.4

>  <m_primary>  (39) 
energy

$$$$
39:0
     RDKit          3D

 47 50  0  0  0  0  0  0  0  0999 V2000
   62.2810   33.7030   48.6060 C   0  0  0  0  0  0  0  0  0  0  0  0
   61.0610   33.8160   47.7470 C   0  0  0  0  0  0  0  0  0  0  0  0
   61.0460   34.5400   46.5970 N   0  0  0  0  0  0  0  0  0  0  0  0
   59.7900   34.3720   46.1470 C   0  0  0  0  0  0  0  0  0  0  0  0
   59.2240   34.9120   44.9950 C   0  0  0  0  0  0  0  0  0  0  0  0
   57.8720   34.6210   44.7300 C   0  0  0  0  0  0  0  0  0  0  0  0
   57.1280   33.8100   45.6170 C   0  0  0  0  0  0  0  0  0  0  0  0
   57.7300   33.2820   46.7750 C   0  0  0  0  0  0  0  0  0  0  0  0
   59.0750   33.5800   46.9990 C   0  0  0  0  0  0  0  0  0  0  0  0
   59.8670   33.2240   48.0260 N   0  0  0  0  0  0  0  0  0  0  0  0
   59.5300   32.3910   49.1490 C   0  0  0  0  0  0  0  0  0  0  0  0
   59.2060   31.0400   48.9560 C   0  0  0  0  0  0  0  0  0  0  0  0
   58.8710   30.2320   50.0470 C   0  0  0  0  0  0  0  0  0  0  0  0
   58.8630   30.7640   51.3450 C   0  0  0  0  0  0  0  0  0  0  0  0
   58.4730   29.8960   52.5110 C   0  0  0  0  0  0  0  0  0  0  0  0
   57.0230   29.7120   52.5400 N   0  0  0  0  0  0  0  0  0  0  0  0
   56.1150   30.8070   52.7280 C   0  0  0  0  0  0  0  0  0  0  0  0
   56.5620   31.9630   52.9640 O   0  0  0  0  0  0  0  0  0  0  0  0
   54.6560   30.6070   52.6530 C   0  0  0  0  0  0  0  0  0  0  0  0
   53.8020   30.1410   53.6390 C   0  0  0  0  0  0  0  0  0  0  0  0
   52.5470   30.0880   53.1500 N   0  0  0  0  0  0  0  0  0  0  0  0
   52.5870   30.5150   51.8970 N   0  0  0  0  0  0  0  0  0  0  0  0
   51.4270   30.5490   51.0130 C   0  0  0  0  0  0  0  0  0  0  0  0
   51.0470   31.9660   50.7260 C   0  0  0  0  0  0  0  0  0  0  0  0
   51.0180   32.8140   51.6550 O   0  0  0  0  0  0  0  0  0  0  0  0
   50.6730   32.3380   49.4410 O   0  0  0  0  0  0  0  0  0  0  0  0
   53.8500   30.8300   51.5550 C   0  0  0  0  0  0  0  0  0  0  0  0
   59.1850   32.1170   51.5380 C   0  0  0  0  0  0  0  0  0  0  0  0
   59.5170   32.9240   50.4460 C   0  0  0  0  0  0  0  0  0  0  0  0
   61.9871   33.7302   49.6657 H   0  0  0  0  0  0  0  0  0  0  0  0
   62.7935   32.7535   48.3919 H   0  0  0  0  0  0  0  0  0  0  0  0
   62.9592   34.5422   48.3919 H   0  0  0  0  0  0  0  0  0  0  0  0
   59.8132   35.5446   44.3149 H   0  0  0  0  0  0  0  0  0  0  0  0
   57.3920   35.0272   43.8274 H   0  0  0  0  0  0  0  0  0  0  0  0
   56.0721   33.5900   45.4012 H   0  0  0  0  0  0  0  0  0  0  0  0
   57.1605   32.6567   47.4783 H   0  0  0  0  0  0  0  0  0  0  0  0
   59.2155   30.6142   47.9418 H   0  0  0  0  0  0  0  0  0  0  0  0
   58.6127   29.1748   49.8868 H   0  0  0  0  0  0  0  0  0  0  0  0
   58.9619   28.9154   52.4137 H   0  0  0  0  0  0  0  0  0  0  0  0
   58.7919   30.3834   53.4441 H   0  0  0  0  0  0  0  0  0  0  0  0
   56.6530   28.7420   52.4250 H   0  0  0  0  0  0  0  0  0  0  0  0
   54.1006   29.8589   54.6594 H   0  0  0  0  0  0  0  0  0  0  0  0
   51.6723   30.0390   50.0697 H   0  0  0  0  0  0  0  0  0  0  0  0
   50.5836   30.0401   51.5027 H   0  0  0  0  0  0  0  0  0  0  0  0
   54.1814   31.1999   50.5735 H   0  0  0  0  0  0  0  0  0  0  0  0
   59.1760   32.5434   52.5520 H   0  0  0  0  0  0  0  0  0  0  0  0
   59.7694   33.9828   50.6049 H   0  0  0  0  0  0  0  0  0  0  0  0
  1  2  1  0
  2  3  2  0
  3  4  1  0
  4  5  2  0
  5  6  1  0
  6  7  2  0
  7  8  1  0
  8  9  2  0
  9 10  1  0
 10 11  1  0
 11 12  2  0
 12 13  1  0
 13 14  2  0
 14 15  1  0
 15 16  1  0
 16 17  1  0
 17 18  2  0
 17 19  1  0
 19 20  1  0
 20 21  2  0
 21 22  1  0
 22 23  1  0
 23 24  1  0
 24 25  2  0
 24 26  1  0
 22 27  1  0
 14 28  1  0
 28 29  2  0
 10  2  1  0
 29 11  1  0
  9  4  1  0
 27 19  2  0
  1 30  1  0
  1 31  1  0
  1 32  1  0
  5 33  1  0
  6 34  1  0
  7 35  1  0
  8 36  1  0
 12 37  1  0
 13 38  1  0
 15 39  1  0
 15 40  1  0
 16 41  1  0
 20 42  1  0
 23 43  1  0
 23 44  1  0
 27 45  1  0
 28 46  1  0
 29 47  1  0
M  CHG  1  26  -1
M  END
>  <UniqueID>  (40) 
36

>  <SMILES>  (40) 
Cc1nc2ccccc2n1-c1ccc(CNC(=O)c2cnn(CC(=O)[O-])c2)cc1

>  <Energy>  (40) 
118.67580337949717

>  <Genealogy>  (40) 
Cc1nc2ccccc2n1-c1ccc(CNC(=O)c2cnn(CC(=O)[O-])c2)cc1 (protonated)
Cc1nc2ccccc2n1-c1ccc(CNC(=O)c2cnn(CC(=O)[O-])c2)cc1 (3D coordinates assigned)
Cc1nc2ccccc2n1-c1ccc(CNC(=O)c2cnn(CC(=O)[O-])c2)cc1 (optimized conformer: 118.67580337949717 kcal/mol)

>  <smiles>  (40) 
Cc1nc2ccccc2n1-c1ccc(CNC(=O)c2cnn(CC(=O)O)c2)cc1

>  <score_type>  (40) 
oracle

>  <origin>  (40) 
adg

>  <m_score__min__energy>  (40) 
-12.58

>  <m_primary>  (40) 
energy

$$$$
40:0
     RDKit          3D

 61 63  0  0  0  0  0  0  0  0999 V2000
   56.6340   22.1360   42.7960 C   0  0  0  0  0  0  0  0  0  0  0  0
   56.8760   22.8410   44.1280 C   0  0  0  0  0  0  0  0  0  0  0  0
   55.9350   23.8950   44.3170 O   0  0  0  0  0  0  0  0  0  0  0  0
   56.0060   24.8200   45.3670 C   0  0  0  0  0  0  0  0  0  0  0  0
   55.2890   24.6630   46.3950 O   0  0  0  0  0  0  0  0  0  0  0  0
   56.8990   25.9460   45.2790 N   0  0  0  0  0  0  0  0  0  0  0  0
   57.7880   26.1100   44.1180 C   0  0  0  0  0  0  0  0  0  0  0  0
   57.8070   27.5690   43.6210 C   0  0  0  0  0  0  0  0  0  0  0  0
   57.5960   28.6180   44.7380 C   0  0  0  0  0  0  0  0  0  0  0  0
   58.4390   29.7900   44.4700 N   0  0  0  0  0  0  0  0  0  0  0  0
   57.4820   31.2210   44.2190 S   0  0  0  0  0  0  0  0  0  0  0  0
   57.4150   31.5190   42.7470 O   0  0  0  0  0  0  0  0  0  0  0  0
   56.0840   30.9830   44.7220 O   0  0  0  0  0  0  0  0  0  0  0  0
   58.2050   32.5950   45.0520 C   0  0  0  0  0  0  0  0  0  0  0  0
   58.2980   33.8420   44.4220 C   0  0  0  0  0  0  0  0  0  0  0  0
   58.8460   34.9300   45.1030 C   0  0  0  0  0  0  0  0  0  0  0  0
   59.2910   34.7830   46.4190 C   0  0  0  0  0  0  0  0  0  0  0  0
   59.1840   33.5440   47.0740 C   0  0  0  0  0  0  0  0  0  0  0  0
   59.6360   33.4080   48.4780 C   0  0  0  0  0  0  0  0  0  0  0  0
   58.9160   32.7740   49.2990 O   0  0  0  0  0  0  0  0  0  0  0  0
   60.8890   33.9600   48.9120 N   0  0  0  0  0  0  0  0  0  0  0  0
   61.3560   33.8470   50.2930 C   0  0  0  0  0  0  0  0  0  0  0  0
   62.7160   33.1960   50.3360 C   0  0  0  0  0  0  0  0  0  0  0  0
   63.0690   32.3900   51.4320 C   0  0  0  0  0  0  0  0  0  0  0  0
   64.3190   31.7690   51.4780 C   0  0  0  0  0  0  0  0  0  0  0  0
   65.2260   31.9440   50.4320 C   0  0  0  0  0  0  0  0  0  0  0  0
   64.8860   32.7360   49.3330 C   0  0  0  0  0  0  0  0  0  0  0  0
   63.6290   33.3690   49.2710 C   0  0  0  0  0  0  0  0  0  0  0  0
   63.2550   34.1680   48.1780 O   0  0  0  0  0  0  0  0  0  0  0  0
   63.3540   33.7690   46.8140 C   0  0  0  0  0  0  0  0  0  0  0  0
   58.6520   32.4470   46.3720 C   0  0  0  0  0  0  0  0  0  0  0  0
   57.9410   28.0430   46.1190 C   0  0  0  0  0  0  0  0  0  0  0  0
   57.0210   26.8570   46.4300 C   0  0  0  0  0  0  0  0  0  0  0  0
   56.2820   21.1106   42.9825 H   0  0  0  0  0  0  0  0  0  0  0  0
   55.8733   22.6862   42.2228 H   0  0  0  0  0  0  0  0  0  0  0  0
   57.5723   22.1030   42.2228 H   0  0  0  0  0  0  0  0  0  0  0  0
   56.7724   22.1131   44.9462 H   0  0  0  0  0  0  0  0  0  0  0  0
   57.8898   23.2678   44.1239 H   0  0  0  0  0  0  0  0  0  0  0  0
   58.8086   25.8173   44.4055 H   0  0  0  0  0  0  0  0  0  0  0  0
   57.4120   25.4734   43.3035 H   0  0  0  0  0  0  0  0  0  0  0  0
   58.7810   27.7600   43.1469 H   0  0  0  0  0  0  0  0  0  0  0  0
   56.9658   27.6771   42.9205 H   0  0  0  0  0  0  0  0  0  0  0  0
   56.5346   28.9069   44.7438 H   0  0  0  0  0  0  0  0  0  0  0  0
   57.9389   33.9642   43.3895 H   0  0  0  0  0  0  0  0  0  0  0  0
   58.9277   35.9059   44.6021 H   0  0  0  0  0  0  0  0  0  0  0  0
   59.7284   35.6434   46.9466 H   0  0  0  0  0  0  0  0  0  0  0  0
   61.5360   34.3950   48.2180 H   0  0  0  0  0  0  0  0  0  0  0  0
   61.4206   34.8512   50.7372 H   0  0  0  0  0  0  0  0  0  0  0  0
   60.6457   33.2279   50.8606 H   0  0  0  0  0  0  0  0  0  0  0  0
   62.3568   32.2476   52.2581 H   0  0  0  0  0  0  0  0  0  0  0  0
   64.5890   31.1411   52.3399 H   0  0  0  0  0  0  0  0  0  0  0  0
   66.2114   31.4569   50.4732 H   0  0  0  0  0  0  0  0  0  0  0  0
   65.6045   32.8664   48.5104 H   0  0  0  0  0  0  0  0  0  0  0  0
   63.6186   32.7026   46.7622 H   0  0  0  0  0  0  0  0  0  0  0  0
   62.3882   33.9319   46.3133 H   0  0  0  0  0  0  0  0  0  0  0  0
   64.1316   34.3645   46.3133 H   0  0  0  0  0  0  0  0  0  0  0  0
   58.5863   31.4650   46.8632 H   0  0  0  0  0  0  0  0  0  0  0  0
   58.9876   27.7046   46.1230 H   0  0  0  0  0  0  0  0  0  0  0  0
   57.8015   28.8221   46.8829 H   0  0  0  0  0  0  0  0  0  0  0  0
   57.4341   26.2996   47.2836 H   0  0  0  0  0  0  0  0  0  0  0  0
   56.0207   27.2508   46.6633 H   0  0  0  0  0  0  0  0  0  0  0  0
  1  2  1  0
  2  3  1  0
  3  4  1  0
  4  5  2  0
  4  6  1  0
  6  7  1  0
  7  8  1  0
  8  9  1  0
  9 10  1  0
 10 11  1  0
 11 12  2  0
 11 13  2  0
 11 14  1  0
 14 15  2  0
 15 16  1  0
 16 17  2  0
 17 18  1  0
 18 19  1  0
 19 20  2  0
 19 21  1  0
 21 22  1  0
 22 23  1  0
 23 24  2  0
 24 25  1  0
 25 26  2  0
 26 27  1  0
 27 28  2  0
 28 29  1  0
 29 30  1  0
 18 31  2  0
  9 32  1  0
 32 33  1  0
 33  6  1  0
 31 14  1  0
 28 23  1  0
  1 34  1  0
  1 35  1  0
  1 36  1  0
  2 37  1  0
  2 38  1  0
  7 39  1  0
  7 40  1  0
  8 41  1  0
  8 42  1  0
  9 43  1  0
 15 44  1  0
 16 45  1  0
 17 46  1  0
 21 47  1  0
 22 48  1  0
 22 49  1  0
 24 50  1  0
 25 51  1  0
 26 52  1  0
 27 53  1  0
 30 54  1  0
 30 55  1  0
 30 56  1  0
 31 57  1  0
 32 58  1  0
 32 59  1  0
 33 60  1  0
 33 61  1  0
M  CHG  1  10  -1
M  END
>  <UniqueID>  (41) 
37

>  <SMILES>  (41) 
CCOC(=O)N1CCC([N-]S(=O)(=O)c2cccc(C(=O)NCc3ccccc3OC)c2)CC1

>  <Energy>  (41) 
57.71513986922646

>  <Genealogy>  (41) 
CCOC(=O)N1CCC([N-]S(=O)(=O)c2cccc(C(=O)NCc3ccccc3OC)c2)CC1 (protonated)
CCOC(=O)N1CCC([N-]S(=O)(=O)c2cccc(C(=O)NCc3ccccc3OC)c2)CC1 (3D coordinates assigned)
CCOC(=O)N1CCC([N-]S(=O)(=O)c2cccc(C(=O)NCc3ccccc3OC)c2)CC1 (nonaromatic ring conformer: 57.71513986922646 kcal/mol)

>  <smiles>  (41) 
CCOC(=O)N1CCC(NS(=O)(=O)c2cccc(C(=O)NCc3ccccc3OC)c2)CC1

>  <score_type>  (41) 
oracle

>  <origin>  (41) 
adg

>  <m_score__min__energy>  (41) 
-10.720000000000001

>  <m_primary>  (41) 
energy

$$$$
41:0
     RDKit          3D

 55 59  0  0  1  0  0  0  0  0999 V2000
   59.4740   33.5120   50.5690 C   0  0  0  0  0  0  0  0  0  0  0  0
   59.9000   34.1930   49.4020 O   0  0  0  0  0  0  0  0  0  0  0  0
   61.0740   33.8540   48.7360 C   0  0  0  0  0  0  0  0  0  0  0  0
   62.1600   33.3580   49.4500 C   0  0  0  0  0  0  0  0  0  0  0  0
   63.3480   33.0060   48.8440 C   0  0  0  0  0  0  0  0  0  0  0  0
   64.4410   32.4920   49.6780 C   0  0  0  0  0  0  0  0  0  0  0  0
   64.1460   31.3840   50.4550 C   0  0  0  0  0  0  0  0  0  0  0  0
   65.1430   30.8590   51.2610 C   0  0  0  0  0  0  0  0  0  0  0  0
   66.4030   31.4180   51.2960 C   0  0  0  0  0  0  0  0  0  0  0  0
   66.6970   32.5360   50.5110 C   0  0  0  0  0  0  0  0  0  0  0  0
   65.6930   33.0670   49.6990 C   0  0  0  0  0  0  0  0  0  0  0  0
   63.4650   33.1490   47.4790 C   0  0  0  0  0  0  0  0  0  0  0  0
   62.3830   33.6420   46.7680 C   0  0  0  0  0  0  0  0  0  0  0  0
   61.1980   33.9960   47.3550 C   0  0  0  0  0  0  0  0  0  0  0  0
   60.0720   34.5020   46.6540 N   0  0  0  0  0  0  0  0  0  0  0  0
   59.3570   33.6720   45.9780 C   0  0  0  0  0  0  0  0  0  0  0  0
   59.3230   32.3510   46.1870 N   0  0  0  0  0  0  0  0  0  0  0  0
   58.5430   31.5210   45.4390 C   0  0  0  0  0  0  0  0  0  0  0  0
   58.5080   30.1590   45.6540 C   0  0  0  0  0  0  0  0  0  0  0  0
   57.6970   29.3400   44.8640 C   0  0  0  0  0  0  0  0  0  0  0  0
   57.6800   27.9030   45.1130 C   0  0  0  0  0  0  0  0  0  0  0  0
   57.4520   27.3450   46.3450 C   0  0  0  0  0  0  0  0  0  0  0  0
   57.5110   26.0040   46.1900 N   0  0  0  0  0  0  0  0  0  0  0  0
   57.3300   24.9970   47.2310 C   0  0  0  0  0  0  0  0  0  0  0  0
   57.7630   25.7300   44.9240 N   0  0  0  0  0  0  0  0  0  0  0  0
   57.8740   26.8570   44.2350 C   0  0  0  0  0  0  0  0  0  0  0  0
   58.1500   27.0570   42.7890 C   0  0  0  0  0  0  0  0  0  0  0  0
   56.9190   29.9180   43.8540 C   0  0  0  0  0  0  0  0  0  0  0  0
   56.9490   31.2870   43.6300 C   0  0  0  0  0  0  0  0  0  0  0  0
   57.7680   32.0630   44.4360 C   0  0  0  0  0  0  0  0  0  0  0  0
   57.7980   33.4410   44.2110 C   0  0  0  0  0  0  0  0  0  0  0  0
   58.5960   34.1980   44.9940 N   0  0  0  0  0  0  0  0  0  0  0  0
   59.8168   34.0600   51.4590 H   0  0  0  0  0  0  0  0  0  0  0  0
   58.3758   33.4499   50.5770 H   0  0  0  0  0  0  0  0  0  0  0  0
   59.8987   32.4973   50.5770 H   0  0  0  0  0  0  0  0  0  0  0  0
   62.0677   33.2420   50.5400 H   0  0  0  0  0  0  0  0  0  0  0  0
   63.1436   30.9315   50.4326 H   0  0  0  0  0  0  0  0  0  0  0  0
   64.9253   29.9796   51.8849 H   0  0  0  0  0  0  0  0  0  0  0  0
   67.1786   30.9828   51.9434 H   0  0  0  0  0  0  0  0  0  0  0  0
   67.6993   32.9886   50.5324 H   0  0  0  0  0  0  0  0  0  0  0  0
   65.9022   33.9475   49.0738 H   0  0  0  0  0  0  0  0  0  0  0  0
   64.3983   32.8773   46.9641 H   0  0  0  0  0  0  0  0  0  0  0  0
   62.4809   33.7545   45.6782 H   0  0  0  0  0  0  0  0  0  0  0  0
   59.1218   29.7151   46.4516 H   0  0  0  0  0  0  0  0  0  0  0  0
   57.2578   27.8869   47.2824 H   0  0  0  0  0  0  0  0  0  0  0  0
   57.4154   25.4720   48.2195 H   0  0  0  0  0  0  0  0  0  0  0  0
   56.3351   24.5389   47.1290 H   0  0  0  0  0  0  0  0  0  0  0  0
   58.1031   24.2212   47.1290 H   0  0  0  0  0  0  0  0  0  0  0  0
   59.0355   27.6987   42.6701 H   0  0  0  0  0  0  0  0  0  0  0  0
   58.3364   26.0829   42.3131 H   0  0  0  0  0  0  0  0  0  0  0  0
   57.2824   27.5375   42.3131 H   0  0  0  0  0  0  0  0  0  0  0  0
   56.2762   29.2793   43.2305 H   0  0  0  0  0  0  0  0  0  0  0  0
   56.3404   31.7437   42.8356 H   0  0  0  0  0  0  0  0  0  0  0  0
   57.1880   33.8972   43.4174 H   0  0  0  0  0  0  0  0  0  0  0  0
   58.5910   35.2210   44.7950 H   0  0  0  0  0  0  0  0  0  0  0  0
  1  2  1  0
  2  3  1  0
  3  4  2  0
  4  5  1  0
  5  6  1  0
  6  7  2  0
  7  8  1  0
  8  9  2  0
  9 10  1  0
 10 11  2  0
  5 12  2  0
 12 13  1  0
 13 14  2  0
 14 15  1  0
 15 16  2  0
 16 17  1  0
 17 18  2  0
 18 19  1  0
 19 20  2  0
 20 21  1  0
 21 22  2  0
 22 23  1  0
 23 24  1  0
 23 25  1  0
 25 26  2  0
 26 27  1  0
 20 28  1  0
 28 29  2  0
 29 30  1  0
 30 31  2  0
 31 32  1  0
 14  3  1  0
 32 16  1  0
 11  6  1  0
 30 18  1  0
 26 21  1  0
  1 33  1  0
  1 34  1  0
  1 35  1  0
  4 36  1  0
  7 37  1  0
  8 38  1  0
  9 39  1  0
 10 40  1  0
 11 41  1  0
 12 42  1  0
 13 43  1  0
 19 44  1  0
 22 45  1  0
 24 46  1  0
 24 47  1  0
 24 48  1  0
 27 49  1  0
 27 50  1  0
 27 51  1  0
 28 52  1  0
 29 53  1  0
 31 54  1  0
 32 55  1  0
M  END
>  <smiles>  (42) 
COc1cc(-c2ccccc2)ccc1N=c1nc2cc(-c3cn(C)nc3C)ccc2c[nH]1

>  <score_type>  (42) 
oracle

>  <origin>  (42) 
adg

>  <m_score__min__energy>  (42) 
-9.2899999999999991

>  <m_primary>  (42) 
energy

$$$$
42:0
     RDKit          3D

 22 23  0  0  0  0  0  0  0  0999 V2000
   55.5690   29.3440   44.8830 O   0  0  0  0  0  0  0  0  0  0  0  0
   56.6420   28.7930   45.2470 C   0  0  0  0  0  0  0  0  0  0  0  0
   57.8800   29.5230   45.2060 N   0  0  0  0  0  0  0  0  0  0  0  0
   57.9610   30.9560   45.1230 C   0  0  0  0  0  0  0  0  0  0  0  0
   57.6910   31.5910   43.9010 C   0  0  0  0  0  0  0  0  0  0  0  0
   57.7830   32.9820   43.7900 C   0  0  0  0  0  0  0  0  0  0  0  0
   58.1600   33.7510   44.8930 C   0  0  0  0  0  0  0  0  0  0  0  0
   58.2490   35.0990   44.7740 F   0  0  0  0  0  0  0  0  0  0  0  0
   58.4560   33.1270   46.1110 C   0  0  0  0  0  0  0  0  0  0  0  0
   58.9550   34.0810   47.4980 Cl  0  0  0  0  0  0  0  0  0  0  0  0
   58.3630   31.7350   46.2240 C   0  0  0  0  0  0  0  0  0  0  0  0
   56.6110   27.3820   45.6700 C   0  0  0  0  0  0  0  0  0  0  0  0
   57.6920   26.5430   45.8400 C   0  0  0  0  0  0  0  0  0  0  0  0
   57.2540   25.3390   46.2470 N   0  0  0  0  0  0  0  0  0  0  0  0
   55.9170   25.4950   46.3110 C   0  0  0  0  0  0  0  0  0  0  0  0
   55.1410   24.5680   46.6600 O   0  0  0  0  0  0  0  0  0  0  0  0
   55.4780   26.7220   45.9710 N   0  0  0  0  0  0  0  0  0  0  0  0
   58.7710   28.9810   45.1320 H   0  0  0  0  0  0  0  0  0  0  0  0
   57.4051   30.9907   43.0247 H   0  0  0  0  0  0  0  0  0  0  0  0
   57.5578   33.4718   42.8312 H   0  0  0  0  0  0  0  0  0  0  0  0
   58.6057   31.2468   47.1794 H   0  0  0  0  0  0  0  0  0  0  0  0
   58.7441   26.8153   45.6699 H   0  0  0  0  0  0  0  0  0  0  0  0
  1  2  2  0
  2  3  1  0
  3  4  1  0
  4  5  2  0
  5  6  1  0
  6  7  2  0
  7  8  1  0
  7  9  1  0
  9 10  1  0
  9 11  2  0
  2 12  1  0
 12 13  2  0
 13 14  1  0
 14 15  1  0
 15 16  2  0
 15 17  1  0
 11  4  1  0
 17 12  1  0
  3 18  1  0
  5 19  1  0
  6 20  1  0
 11 21  1  0
 13 22  1  0
M  CHG  2  14  -1  17  -1
M  END
>  <UniqueID>  (43) 
38

>  <SMILES>  (43) 
O=C(Nc1ccc(F)c(Cl)c1)c1c[n-]c(=O)[n-]1

>  <Energy>  (43) 
54.15031751947622

>  <Genealogy>  (43) 
O=C(Nc1ccc(F)c(Cl)c1)c1c[n-]c(=O)[n-]1 (protonated)
O=C(Nc1ccc(F)c(Cl)c1)c1c[n-]c(=O)[n-]1 (3D coordinates assigned)
O=C(Nc1ccc(F)c(Cl)c1)c1c[n-]c(=O)[n-]1 (optimized conformer: 54.15031751947622 kcal/mol)

>  <smiles>  (43) 
O=C(Nc1ccc(F)c(Cl)c1)c1c[nH]c(=O)[nH]1

>  <score_type>  (43) 
oracle

>  <origin>  (43) 
adg

>  <m_score__min__energy>  (43) 
-10.57

>  <m_primary>  (43) 
energy

$$$$
43:0
     RDKit          3D

 54 57  0  0  0  0  0  0  0  0999 V2000
   57.3740   21.0930   47.8770 N   0  0  0  0  0  0  0  0  0  0  0  0
   56.6500   22.2890   48.1610 C   0  0  0  0  0  0  0  0  0  0  0  0
   57.2530   23.2920   48.6280 O   0  0  0  0  0  0  0  0  0  0  0  0
   55.1730   22.3430   47.9370 C   0  0  0  0  0  0  0  0  0  0  0  0
   54.7450   23.7060   47.6210 N   0  0  0  0  0  0  0  0  0  0  0  0
   54.7160   23.9700   45.9000 S   0  0  0  0  0  0  0  0  0  0  0  0
   54.8210   25.4450   45.6270 O   0  0  0  0  0  0  0  0  0  0  0  0
   53.4070   23.4730   45.3510 O   0  0  0  0  0  0  0  0  0  0  0  0
   56.0620   23.1400   45.0940 C   0  0  0  0  0  0  0  0  0  0  0  0
   55.8900   21.8030   44.7000 C   0  0  0  0  0  0  0  0  0  0  0  0
   56.9360   21.1000   44.1000 C   0  0  0  0  0  0  0  0  0  0  0  0
   58.1640   21.7220   43.8840 C   0  0  0  0  0  0  0  0  0  0  0  0
   58.3490   23.0540   44.2580 C   0  0  0  0  0  0  0  0  0  0  0  0
   57.3040   23.7780   44.8520 C   0  0  0  0  0  0  0  0  0  0  0  0
   57.5450   25.1830   45.2280 C   0  0  0  0  0  0  0  0  0  0  0  0
   57.5670   25.5510   46.5820 C   0  0  0  0  0  0  0  0  0  0  0  0
   57.7290   26.8900   46.9430 C   0  0  0  0  0  0  0  0  0  0  0  0
   57.8790   27.8770   45.9530 C   0  0  0  0  0  0  0  0  0  0  0  0
   58.0090   29.2630   46.2950 N   0  0  0  0  0  0  0  0  0  0  0  0
   57.4300   30.3520   45.5630 C   0  0  0  0  0  0  0  0  0  0  0  0
   56.3850   30.1420   44.8920 O   0  0  0  0  0  0  0  0  0  0  0  0
   58.0000   31.7190   45.6180 C   0  0  0  0  0  0  0  0  0  0  0  0
   57.3760   32.7800   44.9410 C   0  0  0  0  0  0  0  0  0  0  0  0
   57.9190   34.0640   44.9910 C   0  0  0  0  0  0  0  0  0  0  0  0
   59.0880   34.3060   45.7170 C   0  0  0  0  0  0  0  0  0  0  0  0
   59.7330   33.2590   46.3990 C   0  0  0  0  0  0  0  0  0  0  0  0
   60.9830   33.5350   47.1560 C   0  0  0  0  0  0  0  0  0  0  0  0
   62.2430   33.5320   46.5310 C   0  0  0  0  0  0  0  0  0  0  0  0
   63.3880   33.7960   47.2860 C   0  0  0  0  0  0  0  0  0  0  0  0
   63.2770   34.0490   48.6540 C   0  0  0  0  0  0  0  0  0  0  0  0
   62.0130   34.0310   49.2490 C   0  0  0  0  0  0  0  0  0  0  0  0
   61.8940   34.2460   50.4840 O   0  0  0  0  0  0  0  0  0  0  0  0
   60.9110   33.7770   48.4960 N   0  0  0  0  0  0  0  0  0  0  0  0
   59.1880   31.9610   46.3290 C   0  0  0  0  0  0  0  0  0  0  0  0
   57.9230   27.4990   44.6060 C   0  0  0  0  0  0  0  0  0  0  0  0
   57.7490   26.1600   44.2430 C   0  0  0  0  0  0  0  0  0  0  0  0
   58.0690   21.0600   47.0980 H   0  0  0  0  0  0  0  0  0  0  0  0
   54.9107   21.6794   47.0999 H   0  0  0  0  0  0  0  0  0  0  0  0
   54.6647   22.0181   48.8568 H   0  0  0  0  0  0  0  0  0  0  0  0
   54.9229   21.3057   44.8656 H   0  0  0  0  0  0  0  0  0  0  0  0
   56.7906   20.0526   43.7970 H   0  0  0  0  0  0  0  0  0  0  0  0
   58.9887   21.1626   43.4182 H   0  0  0  0  0  0  0  0  0  0  0  0
   59.3209   23.5396   44.0859 H   0  0  0  0  0  0  0  0  0  0  0  0
   57.4563   24.7824   47.3611 H   0  0  0  0  0  0  0  0  0  0  0  0
   57.7393   27.1737   48.0057 H   0  0  0  0  0  0  0  0  0  0  0  0
   56.4546   32.5974   44.3686 H   0  0  0  0  0  0  0  0  0  0  0  0
   57.4250   34.8890   44.4569 H   0  0  0  0  0  0  0  0  0  0  0  0
   59.5066   35.3225   45.7553 H   0  0  0  0  0  0  0  0  0  0  0  0
   62.3261   33.3230   45.4542 H   0  0  0  0  0  0  0  0  0  0  0  0
   64.3762   33.8045   46.8029 H   0  0  0  0  0  0  0  0  0  0  0  0
   64.1732   34.2599   49.2560 H   0  0  0  0  0  0  0  0  0  0  0  0
   59.6978   31.1286   46.8362 H   0  0  0  0  0  0  0  0  0  0  0  0
   58.0953   28.2588   43.8295 H   0  0  0  0  0  0  0  0  0  0  0  0
   57.7722   25.8721   43.1816 H   0  0  0  0  0  0  0  0  0  0  0  0
  1  2  1  0
  2  3  2  0
  2  4  1  0
  4  5  1  0
  5  6  1  0
  6  7  2  0
  6  8  2  0
  6  9  1  0
  9 10  2  0
 10 11  1  0
 11 12  2  0
 12 13  1  0
 13 14  2  0
 14 15  1  0
 15 16  2  0
 16 17  1  0
 17 18  2  0
 18 19  1  0
 19 20  1  0
 20 21  2  0
 20 22  1  0
 22 23  2  0
 23 24  1  0
 24 25  2  0
 25 26  1  0
 26 27  1  0
 27 28  2  0
 28 29  1  0
 29 30  2  0
 30 31  1  0
 31 32  2  0
 31 33  1  0
 26 34  2  0
 18 35  1  0
 35 36  2  0
 14  9  1  0
 36 15  1  0
 34 22  1  0
 33 27  1  0
  1 37  1  0
  4 38  1  0
  4 39  1  0
 10 40  1  0
 11 41  1  0
 12 42  1  0
 13 43  1  0
 16 44  1  0
 17 45  1  0
 23 46  1  0
 24 47  1  0
 25 48  1  0
 28 49  1  0
 29 50  1  0
 30 51  1  0
 34 52  1  0
 35 53  1  0
 36 54  1  0
M  CHG  4   1  -1   5  -1  19  -1  33  -1
M  END
>  <UniqueID>  (44) 
39

>  <SMILES>  (44) 
[NH-]C(=O)C[N-]S(=O)(=O)c1ccccc1-c1ccc([N-]C(=O)c2cccc(-c3cccc(=O)[n-]3)c2)cc1

>  <Energy>  (44) 
74.05150039062472

>  <Genealogy>  (44) 
[NH-]C(=O)C[N-]S(=O)(=O)c1ccccc1-c1ccc([N-]C(=O)c2cccc(-c3cccc(=O)[n-]3)c2)cc1 (protonated)
[NH-]C(=O)C[N-]S(=O)(=O)c1ccccc1-c1ccc([N-]C(=O)c2cccc(-c3cccc(=O)[n-]3)c2)cc1 (3D coordinates assigned)
[NH-]C(=O)C[N-]S(=O)(=O)c1ccccc1-c1ccc([N-]C(=O)c2cccc(-c3cccc(=O)[n-]3)c2)cc1 (optimized conformer: 74.05150039062472 kcal/mol)

>  <smiles>  (44) 
NC(=O)CNS(=O)(=O)c1ccccc1-c1ccc(NC(=O)c2cccc(-c3cccc(=O)[nH]3)c2)cc1

>  <score_type>  (44) 
oracle

>  <origin>  (44) 
adg

>  <m_score__min__energy>  (44) 
-18.109999999999999

>  <m_primary>  (44) 
energy

$$$$
44:0
     RDKit          3D

 42 44  0  0  0  0  0  0  0  0999 V2000
   55.1450   28.9930   44.5030 O   0  0  0  0  0  0  0  0  0  0  0  0
   56.3100   29.4390   44.6740 C   0  0  0  0  0  0  0  0  0  0  0  0
   56.5320   30.8490   44.5480 N   0  0  0  0  0  0  0  0  0  0  0  0
   57.5490   31.6030   45.2200 C   0  0  0  0  0  0  0  0  0  0  0  0
   58.1190   31.0830   46.3870 C   0  0  0  0  0  0  0  0  0  0  0  0
   59.1340   31.7790   47.0490 C   0  0  0  0  0  0  0  0  0  0  0  0
   59.6020   33.0050   46.5460 C   0  0  0  0  0  0  0  0  0  0  0  0
   60.6840   33.7430   47.2360 C   0  0  0  0  0  0  0  0  0  0  0  0
   60.4950   34.9500   47.5510 O   0  0  0  0  0  0  0  0  0  0  0  0
   61.9390   33.1150   47.5650 N   0  0  0  0  0  0  0  0  0  0  0  0
   62.0130   31.6990   47.9350 C   0  0  0  0  0  0  0  0  0  0  0  0
   63.0200   31.5230   49.0770 C   0  0  0  0  0  0  0  0  0  0  0  0
   64.2640   32.1100   48.7450 O   0  0  0  0  0  0  0  0  0  0  0  0
   64.1150   33.5120   48.6160 C   0  0  0  0  0  0  0  0  0  0  0  0
   63.1970   33.8580   47.4400 C   0  0  0  0  0  0  0  0  0  0  0  0
   59.0610   33.5010   45.3490 C   0  0  0  0  0  0  0  0  0  0  0  0
   58.0450   32.8050   44.6880 C   0  0  0  0  0  0  0  0  0  0  0  0
   57.4020   28.5450   44.9600 N   0  0  0  0  0  0  0  0  0  0  0  0
   57.2560   27.1250   45.1300 C   0  0  0  0  0  0  0  0  0  0  0  0
   56.5480   26.5830   46.2190 C   0  0  0  0  0  0  0  0  0  0  0  0
   56.3990   25.1980   46.3440 C   0  0  0  0  0  0  0  0  0  0  0  0
   56.9410   24.3450   45.3800 C   0  0  0  0  0  0  0  0  0  0  0  0
   56.7950   23.0030   45.5010 F   0  0  0  0  0  0  0  0  0  0  0  0
   57.6250   24.8760   44.2820 C   0  0  0  0  0  0  0  0  0  0  0  0
   57.7740   26.2610   44.1540 C   0  0  0  0  0  0  0  0  0  0  0  0
   57.7661   30.1205   46.7859 H   0  0  0  0  0  0  0  0  0  0  0  0
   59.5696   31.3644   47.9701 H   0  0  0  0  0  0  0  0  0  0  0  0
   61.0217   31.3532   48.2633 H   0  0  0  0  0  0  0  0  0  0  0  0
   62.3370   31.1085   47.0653 H   0  0  0  0  0  0  0  0  0  0  0  0
   62.6247   32.0042   49.9837 H   0  0  0  0  0  0  0  0  0  0  0  0
   63.1726   30.4474   49.2498 H   0  0  0  0  0  0  0  0  0  0  0  0
   63.6804   33.9148   49.5428 H   0  0  0  0  0  0  0  0  0  0  0  0
   65.1047   33.9552   48.4315 H   0  0  0  0  0  0  0  0  0  0  0  0
   62.9868   34.9377   47.4446 H   0  0  0  0  0  0  0  0  0  0  0  0
   63.6917   33.5840   46.4965 H   0  0  0  0  0  0  0  0  0  0  0  0
   59.4396   34.4443   44.9284 H   0  0  0  0  0  0  0  0  0  0  0  0
   57.6323   33.1998   43.7479 H   0  0  0  0  0  0  0  0  0  0  0  0
   58.3490   28.9510   45.1240 H   0  0  0  0  0  0  0  0  0  0  0  0
   56.1101   27.2515   46.9749 H   0  0  0  0  0  0  0  0  0  0  0  0
   55.8540   24.7798   47.2031 H   0  0  0  0  0  0  0  0  0  0  0  0
   58.0459   24.2047   43.5190 H   0  0  0  0  0  0  0  0  0  0  0  0
   58.3010   26.6754   43.2819 H   0  0  0  0  0  0  0  0  0  0  0  0
  1  2  2  0
  2  3  1  0
  3  4  1  0
  4  5  2  0
  5  6  1  0
  6  7  2  0
  7  8  1  0
  8  9  2  0
  8 10  1  0
 10 11  1  0
 11 12  1  0
 12 13  1  0
 13 14  1  0
 14 15  1  0
  7 16  1  0
 16 17  2  0
  2 18  1  0
 18 19  1  0
 19 20  2  0
 20 21  1  0
 21 22  2  0
 22 23  1  0
 22 24  1  0
 24 25  2  0
 17  4  1  0
 25 19  1  0
 15 10  1  0
  5 26  1  0
  6 27  1  0
 11 28  1  0
 11 29  1  0
 12 30  1  0
 12 31  1  0
 14 32  1  0
 14 33  1  0
 15 34  1  0
 15 35  1  0
 16 36  1  0
 17 37  1  0
 18 38  1  0
 20 39  1  0
 21 40  1  0
 24 41  1  0
 25 42  1  0
M  CHG  1   3  -1
M  END
>  <UniqueID>  (45) 
40

>  <SMILES>  (45) 
O=C([N-]c1ccc(C(=O)N2CCOCC2)cc1)Nc1ccc(F)cc1

>  <Energy>  (45) 
58.66306663350442

>  <Genealogy>  (45) 
O=C([N-]c1ccc(C(=O)N2CCOCC2)cc1)Nc1ccc(F)cc1 (protonated)
O=C([N-]c1ccc(C(=O)N2CCOCC2)cc1)Nc1ccc(F)cc1 (3D coordinates assigned)
O=C([N-]c1ccc(C(=O)N2CCOCC2)cc1)Nc1ccc(F)cc1 (nonaromatic ring conformer: 58.66306663350442 kcal/mol)

>  <smiles>  (45) 
O=C(Nc1ccc(F)cc1)Nc1ccc(C(=O)N2CCOCC2)cc1

>  <score_type>  (45) 
oracle

>  <origin>  (45) 
adg

>  <m_score__min__energy>  (45) 
-9.0399999999999991

>  <m_primary>  (45) 
energy

$$$$
45:0
     RDKit          3D

 49 52  0  0  0  0  0  0  0  0999 V2000
   51.6830   23.2120   45.6200 C   0  0  0  0  0  0  0  0  0  0  0  0
   52.8960   22.5250   45.3240 O   0  0  0  0  0  0  0  0  0  0  0  0
   54.1730   22.9740   45.6940 C   0  0  0  0  0  0  0  0  0  0  0  0
   54.6860   24.1070   45.0580 C   0  0  0  0  0  0  0  0  0  0  0  0
   55.9480   24.5990   45.3920 C   0  0  0  0  0  0  0  0  0  0  0  0
   56.7180   23.9690   46.3870 C   0  0  0  0  0  0  0  0  0  0  0  0
   58.0300   24.4370   46.7330 N   0  0  0  0  0  0  0  0  0  0  0  0
   58.3960   25.7780   47.0900 C   0  0  0  0  0  0  0  0  0  0  0  0
   58.8880   26.0200   48.2260 O   0  0  0  0  0  0  0  0  0  0  0  0
   58.2420   26.8730   46.1040 C   0  0  0  0  0  0  0  0  0  0  0  0
   58.3390   26.6040   44.7090 C   0  0  0  0  0  0  0  0  0  0  0  0
   58.2100   27.6390   43.7630 C   0  0  0  0  0  0  0  0  0  0  0  0
   57.9860   28.9240   44.2420 C   0  0  0  0  0  0  0  0  0  0  0  0
   57.8320   30.0610   43.5490 N   0  0  0  0  0  0  0  0  0  0  0  0
   57.6410   30.9920   44.5170 C   0  0  0  0  0  0  0  0  0  0  0  0
   57.3920   32.4400   44.2390 C   0  0  0  0  0  0  0  0  0  0  0  0
   58.1380   33.2900   45.2300 C   0  0  0  0  0  0  0  0  0  0  0  0
   57.9450   33.1040   46.6090 C   0  0  0  0  0  0  0  0  0  0  0  0
   58.6110   33.9190   47.5300 C   0  0  0  0  0  0  0  0  0  0  0  0
   59.4650   34.9320   47.0810 C   0  0  0  0  0  0  0  0  0  0  0  0
   59.6480   35.1340   45.7090 C   0  0  0  0  0  0  0  0  0  0  0  0
   58.9850   34.3200   44.7850 C   0  0  0  0  0  0  0  0  0  0  0  0
   57.6700   30.4750   45.7350 O   0  0  0  0  0  0  0  0  0  0  0  0
   57.8860   29.1940   45.5740 C   0  0  0  0  0  0  0  0  0  0  0  0
   58.0080   28.2020   46.5410 C   0  0  0  0  0  0  0  0  0  0  0  0
   56.2260   22.8140   47.0150 C   0  0  0  0  0  0  0  0  0  0  0  0
   57.0310   22.1830   47.9790 O   0  0  0  0  0  0  0  0  0  0  0  0
   56.6810   22.0270   49.3510 C   0  0  0  0  0  0  0  0  0  0  0  0
   54.9490   22.3240   46.6720 C   0  0  0  0  0  0  0  0  0  0  0  0
   51.5583   23.2826   46.7106 H   0  0  0  0  0  0  0  0  0  0  0  0
   51.7198   24.2233   45.1889 H   0  0  0  0  0  0  0  0  0  0  0  0
   50.8346   22.6603   45.1889 H   0  0  0  0  0  0  0  0  0  0  0  0
   54.0894   24.6160   44.2867 H   0  0  0  0  0  0  0  0  0  0  0  0
   56.3437   25.4852   44.8741 H   0  0  0  0  0  0  0  0  0  0  0  0
   58.5170   25.5742   44.3659 H   0  0  0  0  0  0  0  0  0  0  0  0
   58.2839   27.4376   42.6841 H   0  0  0  0  0  0  0  0  0  0  0  0
   57.8470   30.1970   42.5130 H   0  0  0  0  0  0  0  0  0  0  0  0
   57.7356   32.6799   43.2219 H   0  0  0  0  0  0  0  0  0  0  0  0
   56.3147   32.6444   44.3270 H   0  0  0  0  0  0  0  0  0  0  0  0
   57.2674   32.3143   46.9658 H   0  0  0  0  0  0  0  0  0  0  0  0
   58.4631   33.7633   48.6088 H   0  0  0  0  0  0  0  0  0  0  0  0
   59.9922   35.5692   47.8063 H   0  0  0  0  0  0  0  0  0  0  0  0
   60.3147   35.9346   45.3561 H   0  0  0  0  0  0  0  0  0  0  0  0
   59.1267   34.4862   43.7069 H   0  0  0  0  0  0  0  0  0  0  0  0
   57.9256   28.4406   47.6116 H   0  0  0  0  0  0  0  0  0  0  0  0
   57.5033   22.3935   49.9831 H   0  0  0  0  0  0  0  0  0  0  0  0
   55.7691   22.6039   49.5647 H   0  0  0  0  0  0  0  0  0  0  0  0
   56.5004   20.9632   49.5647 H   0  0  0  0  0  0  0  0  0  0  0  0
   54.5562   21.4268   47.1727 H   0  0  0  0  0  0  0  0  0  0  0  0
  1  2  1  0
  2  3  1  0
  3  4  2  0
  4  5  1  0
  5  6  2  0
  6  7  1  0
  7  8  1  0
  8  9  2  0
  8 10  1  0
 10 11  2  0
 11 12  1  0
 12 13  2  0
 13 14  1  0
 14 15  2  0
 15 16  1  0
 16 17  1  0
 17 18  2  0
 18 19  1  0
 19 20  2  0
 20 21  1  0
 21 22  2  0
 15 23  1  0
 23 24  1  0
 24 25  2  0
  6 26  1  0
 26 27  1  0
 27 28  1  0
 26 29  2  0
 29  3  1  0
 25 10  1  0
 24 13  1  0
 22 17  1  0
  1 30  1  0
  1 31  1  0
  1 32  1  0
  4 33  1  0
  5 34  1  0
 11 35  1  0
 12 36  1  0
 14 37  1  0
 16 38  1  0
 16 39  1  0
 18 40  1  0
 19 41  1  0
 20 42  1  0
 21 43  1  0
 22 44  1  0
 25 45  1  0
 28 46  1  0
 28 47  1  0
 28 48  1  0
 29 49  1  0
M  CHG  2   7  -1  14   1
M  END
>  <UniqueID>  (46) 
41

>  <SMILES>  (46) 
COc1ccc([N-]C(=O)c2ccc3[nH+]c(Cc4ccccc4)oc3c2)c(OC)c1

>  <Energy>  (46) 
93.6844284759094

>  <Genealogy>  (46) 
COc1ccc([N-]C(=O)c2ccc3[nH+]c(Cc4ccccc4)oc3c2)c(OC)c1 (protonated)
COc1ccc([N-]C(=O)c2ccc3[nH+]c(Cc4ccccc4)oc3c2)c(OC)c1 (3D coordinates assigned)
COc1ccc([N-]C(=O)c2ccc3[nH+]c(Cc4ccccc4)oc3c2)c(OC)c1 (optimized conformer: 93.6844284759094 kcal/mol)

>  <smiles>  (46) 
COc1ccc(NC(=O)c2ccc3nc(Cc4ccccc4)oc3c2)c(OC)c1

>  <score_type>  (46) 
oracle

>  <origin>  (46) 
adg

>  <m_score__min__energy>  (46) 
-9.6300000000000008

>  <m_primary>  (46) 
energy

$$$$
46:0
     RDKit          3D

 52 55  0  0  0  0  0  0  0  0999 V2000
   56.2620   29.8220   43.3940 C   0  0  0  0  0  0  0  0  0  0  0  0
   57.1930   29.7460   44.6050 C   0  0  0  0  0  0  0  0  0  0  0  0
   57.3370   28.4750   45.4510 C   0  0  0  0  0  0  0  0  0  0  0  0
   58.4270   27.2900   44.6680 S   0  0  0  0  0  0  0  0  0  0  0  0
   57.9140   25.8970   44.9130 O   0  0  0  0  0  0  0  0  0  0  0  0
   58.4340   27.5550   43.1880 O   0  0  0  0  0  0  0  0  0  0  0  0
   60.0430   27.4770   45.3170 N   0  0  0  0  0  0  0  0  0  0  0  0
   60.6630   28.7690   44.9390 C   0  0  0  0  0  0  0  0  0  0  0  0
   60.9110   29.7060   46.1360 C   0  0  0  0  0  0  0  0  0  0  0  0
   59.7470   29.6960   47.0420 N   0  0  0  0  0  0  0  0  0  0  0  0
   59.9130   30.7230   48.0990 C   0  0  0  0  0  0  0  0  0  0  0  0
   61.1360   31.5960   47.8620 C   0  0  0  0  0  0  0  0  0  0  0  0
   62.3660   31.1960   48.4150 C   0  0  0  0  0  0  0  0  0  0  0  0
   63.5030   31.9930   48.2750 C   0  0  0  0  0  0  0  0  0  0  0  0
   63.4290   33.2030   47.5870 C   0  0  0  0  0  0  0  0  0  0  0  0
   62.2190   33.6180   47.0310 C   0  0  0  0  0  0  0  0  0  0  0  0
   61.0660   32.8240   47.1520 C   0  0  0  0  0  0  0  0  0  0  0  0
   59.8110   33.3200   46.5500 C   0  0  0  0  0  0  0  0  0  0  0  0
   58.6170   33.2830   47.2890 C   0  0  0  0  0  0  0  0  0  0  0  0
   57.4220   33.7330   46.7180 C   0  0  0  0  0  0  0  0  0  0  0  0
   57.4160   34.2400   45.4170 C   0  0  0  0  0  0  0  0  0  0  0  0
   56.2570   34.6760   44.8640 F   0  0  0  0  0  0  0  0  0  0  0  0
   58.6060   34.3030   44.6850 C   0  0  0  0  0  0  0  0  0  0  0  0
   59.8010   33.8510   45.2500 C   0  0  0  0  0  0  0  0  0  0  0  0
   59.5140   28.3450   47.6190 C   0  0  0  0  0  0  0  0  0  0  0  0
   60.0940   27.1960   46.7640 C   0  0  0  0  0  0  0  0  0  0  0  0
   57.3130   30.8660   45.2710 N   0  0  0  0  0  0  0  0  0  0  0  0
   58.3110   30.4110   44.4540 N   0  0  0  0  0  0  0  0  0  0  0  0
   55.2203   29.9070   43.7371 H   0  0  0  0  0  0  0  0  0  0  0  0
   56.5211   30.7020   42.7870 H   0  0  0  0  0  0  0  0  0  0  0  0
   56.3750   28.9116   42.7870 H   0  0  0  0  0  0  0  0  0  0  0  0
   57.7487   28.7445   46.4348 H   0  0  0  0  0  0  0  0  0  0  0  0
   56.3435   28.0148   45.5567 H   0  0  0  0  0  0  0  0  0  0  0  0
   61.6279   28.5629   44.4526 H   0  0  0  0  0  0  0  0  0  0  0  0
   59.9581   29.2816   44.2679 H   0  0  0  0  0  0  0  0  0  0  0  0
   61.8014   29.3658   46.6850 H   0  0  0  0  0  0  0  0  0  0  0  0
   61.0667   30.7294   45.7638 H   0  0  0  0  0  0  0  0  0  0  0  0
   58.9150   29.9620   46.4700 H   0  0  0  0  0  0  0  0  0  0  0  0
   59.0184   31.3628   48.1154 H   0  0  0  0  0  0  0  0  0  0  0  0
   60.0493   30.2025   49.0584 H   0  0  0  0  0  0  0  0  0  0  0  0
   62.4324   30.2449   48.9636 H   0  0  0  0  0  0  0  0  0  0  0  0
   64.4595   31.6657   48.7085 H   0  0  0  0  0  0  0  0  0  0  0  0
   64.3258   33.8313   47.4824 H   0  0  0  0  0  0  0  0  0  0  0  0
   62.1669   34.5759   46.4927 H   0  0  0  0  0  0  0  0  0  0  0  0
   58.6217   32.8990   48.3198 H   0  0  0  0  0  0  0  0  0  0  0  0
   56.4862   33.6874   47.2944 H   0  0  0  0  0  0  0  0  0  0  0  0
   58.6010   34.7091   43.6627 H   0  0  0  0  0  0  0  0  0  0  0  0
   60.7368   33.9112   44.6750 H   0  0  0  0  0  0  0  0  0  0  0  0
   59.9810   28.3072   48.6142 H   0  0  0  0  0  0  0  0  0  0  0  0
   58.4248   28.1966   47.6605 H   0  0  0  0  0  0  0  0  0  0  0  0
   61.1431   27.0372   47.0542 H   0  0  0  0  0  0  0  0  0  0  0  0
   59.4791   26.3029   46.9493 H   0  0  0  0  0  0  0  0  0  0  0  0
  1  2  1  0
  2  3  1  0
  3  4  1  0
  4  5  2  0
  4  6  2  0
  4  7  1  0
  7  8  1  0
  8  9  1  0
  9 10  1  0
 10 11  1  0
 11 12  1  0
 12 13  2  0
 13 14  1  0
 14 15  2  0
 15 16  1  0
 16 17  2  0
 17 18  1  0
 18 19  2  0
 19 20  1  0
 20 21  2  0
 21 22  1  0
 21 23  1  0
 23 24  2  0
 10 25  1  0
 25 26  1  0
  2 27  1  0
 27 28  2  0
 28  2  1  0
 26  7  1  0
 17 12  1  0
 24 18  1  0
  1 29  1  0
  1 30  1  0
  1 31  1  0
  3 32  1  0
  3 33  1  0
  8 34  1  0
  8 35  1  0
  9 36  1  0
  9 37  1  0
 10 38  1  0
 11 39  1  0
 11 40  1  0
 13 41  1  0
 14 42  1  0
 15 43  1  0
 16 44  1  0
 19 45  1  0
 20 46  1  0
 23 47  1  0
 24 48  1  0
 25 49  1  0
 25 50  1  0
 26 51  1  0
 26 52  1  0
M  CHG  1  10   1
M  END
>  <UniqueID>  (47) 
42

>  <SMILES>  (47) 
CC1(CS(=O)(=O)N2CC[NH+](Cc3ccccc3-c3ccc(F)cc3)CC2)N=N1

>  <Energy>  (47) 
268.85126625571274

>  <Genealogy>  (47) 
CC1(CS(=O)(=O)N2CC[NH+](Cc3ccccc3-c3ccc(F)cc3)CC2)N=N1 (protonated)
CC1(CS(=O)(=O)N2CC[NH+](Cc3ccccc3-c3ccc(F)cc3)CC2)N=N1 (3D coordinates assigned)
CC1(CS(=O)(=O)N2CC[NH+](Cc3ccccc3-c3ccc(F)cc3)CC2)N=N1 (nonaromatic ring conformer: 268.85126625571274 kcal/mol)

>  <smiles>  (47) 
CC1(CS(=O)(=O)N2CCN(Cc3ccccc3-c3ccc(F)cc3)CC2)N=N1

>  <score_type>  (47) 
oracle

>  <origin>  (47) 
adg

>  <m_score__min__energy>  (47) 
-8.6099999999999994

>  <m_primary>  (47) 
energy

$$$$
47:0
     RDKit          3D

 41 43  0  0  0  0  0  0  0  0999 V2000
   59.2490   29.5750   49.2490 N   0  0  0  0  0  0  0  0  0  0  0  0
   59.9220   28.1760   48.4870 S   0  0  0  0  0  0  0  0  0  0  0  0
   60.4430   27.2310   49.5330 O   0  0  0  0  0  0  0  0  0  0  0  0
   61.0620   28.5910   47.6000 O   0  0  0  0  0  0  0  0  0  0  0  0
   58.6790   27.3760   47.5310 C   0  0  0  0  0  0  0  0  0  0  0  0
   58.5920   25.9770   47.5120 C   0  0  0  0  0  0  0  0  0  0  0  0
   57.6040   25.3470   46.7520 C   0  0  0  0  0  0  0  0  0  0  0  0
   56.7090   26.1070   45.9940 C   0  0  0  0  0  0  0  0  0  0  0  0
   56.8110   27.5090   45.9780 C   0  0  0  0  0  0  0  0  0  0  0  0
   55.8930   28.3200   45.2330 N   0  0  0  0  0  0  0  0  0  0  0  0
   56.1430   29.6350   44.7180 C   0  0  0  0  0  0  0  0  0  0  0  0
   55.1640   30.3970   44.5010 O   0  0  0  0  0  0  0  0  0  0  0  0
   57.5400   30.1440   44.4790 C   0  0  0  0  0  0  0  0  0  0  0  0
   57.7010   31.4790   45.0450 N   0  0  0  0  0  0  0  0  0  0  0  0
   57.9470   32.6750   44.3110 C   0  0  0  0  0  0  0  0  0  0  0  0
   57.7690   32.8010   43.0710 O   0  0  0  0  0  0  0  0  0  0  0  0
   58.4830   33.6860   45.2040 C   0  0  0  0  0  0  0  0  0  0  0  0
   58.8510   34.8440   44.8760 O   0  0  0  0  0  0  0  0  0  0  0  0
   58.5820   33.1470   46.5200 N   0  0  0  0  0  0  0  0  0  0  0  0
   59.4410   33.6530   47.5860 C   0  0  0  0  0  0  0  0  0  0  0  0
   60.8630   33.2680   47.3240 C   0  0  0  0  0  0  0  0  0  0  0  0
   61.4390   32.0510   47.6280 C   0  0  0  0  0  0  0  0  0  0  0  0
   62.7590   32.1640   47.2510 C   0  0  0  0  0  0  0  0  0  0  0  0
   62.9070   33.4410   46.7460 C   0  0  0  0  0  0  0  0  0  0  0  0
   61.7590   34.0750   46.8050 O   0  0  0  0  0  0  0  0  0  0  0  0
   58.1430   31.7920   46.3710 C   0  0  0  0  0  0  0  0  0  0  0  0
   58.1890   30.9450   47.3030 O   0  0  0  0  0  0  0  0  0  0  0  0
   57.7850   28.1370   46.7640 C   0  0  0  0  0  0  0  0  0  0  0  0
   59.6840   30.4090   48.7940 H   0  0  0  0  0  0  0  0  0  0  0  0
   58.2330   29.5950   49.0080 H   0  0  0  0  0  0  0  0  0  0  0  0
   59.3029   25.3745   48.0965 H   0  0  0  0  0  0  0  0  0  0  0  0
   57.5301   24.2495   46.7500 H   0  0  0  0  0  0  0  0  0  0  0  0
   55.9231   25.6071   45.4087 H   0  0  0  0  0  0  0  0  0  0  0  0
   58.2603   29.4607   44.9526 H   0  0  0  0  0  0  0  0  0  0  0  0
   57.7203   30.1930   43.3950 H   0  0  0  0  0  0  0  0  0  0  0  0
   59.3623   34.7494   47.6277 H   0  0  0  0  0  0  0  0  0  0  0  0
   59.1203   33.2191   48.5446 H   0  0  0  0  0  0  0  0  0  0  0  0
   60.9474   31.1753   48.0768 H   0  0  0  0  0  0  0  0  0  0  0  0
   63.5385   31.3924   47.3352 H   0  0  0  0  0  0  0  0  0  0  0  0
   63.8443   33.8627   46.3540 H   0  0  0  0  0  0  0  0  0  0  0  0
   57.8493   29.2350   46.7799 H   0  0  0  0  0  0  0  0  0  0  0  0
  1  2  1  0
  2  3  2  0
  2  4  2  0
  2  5  1  0
  5  6  2  0
  6  7  1  0
  7  8  2  0
  8  9  1  0
  9 10  1  0
 10 11  1  0
 11 12  2  0
 11 13  1  0
 13 14  1  0
 14 15  1  0
 15 16  2  0
 15 17  1  0
 17 18  2  0
 17 19  1  0
 19 20  1  0
 20 21  1  0
 21 22  2  0
 22 23  1  0
 23 24  2  0
 24 25  1  0
 19 26  1  0
 26 27  2  0
  9 28  2  0
 28  5  1  0
 26 14  1  0
 25 21  1  0
  1 29  1  0
  1 30  1  0
  6 31  1  0
  7 32  1  0
  8 33  1  0
 13 34  1  0
 13 35  1  0
 20 36  1  0
 20 37  1  0
 22 38  1  0
 23 39  1  0
 24 40  1  0
 28 41  1  0
M  CHG  1  10  -1
M  END
>  <UniqueID>  (48) 
43

>  <SMILES>  (48) 
NS(=O)(=O)c1cccc([N-]C(=O)CN2C(=O)C(=O)N(Cc3ccco3)C2=O)c1

>  <Energy>  (48) 
98.15505662544325

>  <Genealogy>  (48) 
NS(=O)(=O)c1cccc([N-]C(=O)CN2C(=O)C(=O)N(Cc3ccco3)C2=O)c1 (protonated)
NS(=O)(=O)c1cccc([N-]C(=O)CN2C(=O)C(=O)N(Cc3ccco3)C2=O)c1 (3D coordinates assigned)
NS(=O)(=O)c1cccc([N-]C(=O)CN2C(=O)C(=O)N(Cc3ccco3)C2=O)c1 (nonaromatic ring conformer: 98.15505662544325 kcal/mol)

>  <smiles>  (48) 
NS(=O)(=O)c1cccc(NC(=O)CN2C(=O)C(=O)N(Cc3ccco3)C2=O)c1

>  <score_type>  (48) 
oracle

>  <origin>  (48) 
adg

>  <m_score__min__energy>  (48) 
-9.1500000000000004

>  <m_primary>  (48) 
energy

$$$$
48:0
     RDKit          3D

 47 49  0  0  1  0  0  0  0  0999 V2000
   58.0390   34.3680   46.1240 C   0  0  0  0  0  0  0  0  0  0  0  0
   58.3520   32.6570   45.7420 S   0  0  0  0  0  0  0  0  0  0  0  0
   58.9160   32.5240   44.3710 O   0  0  0  0  0  0  0  0  0  0  0  0
   57.0160   31.9440   45.8080 O   0  0  0  0  0  0  0  0  0  0  0  0
   59.3490   31.9770   46.9680 N   0  0  0  0  0  0  0  0  0  0  0  0
   60.6670   32.4490   47.2300 C   0  0  0  0  0  0  0  0  0  0  0  0
   61.2400   33.3760   46.3740 C   0  0  0  0  0  0  0  0  0  0  0  0
   62.4860   33.8090   46.7200 C   0  0  0  0  0  0  0  0  0  0  0  0
   63.2070   33.4150   47.8090 C   0  0  0  0  0  0  0  0  0  0  0  0
   62.6440   32.4860   48.6630 C   0  0  0  0  0  0  0  0  0  0  0  0
   61.3740   31.9790   48.3970 C   0  0  0  0  0  0  0  0  0  0  0  0
   59.9870   27.2400   47.4440 N   0  0  0  0  0  0  0  0  0  0  0  0
   60.3840   27.8890   48.5250 C   0  0  0  0  0  0  0  0  0  0  0  0
   61.1590   29.0420   50.5130 C   0  0  0  0  0  0  0  0  0  0  0  0
   61.1480   27.7130   50.6160 C   0  0  0  0  0  0  0  0  0  0  0  0
   60.7170   27.0340   49.5220 N   0  0  0  0  0  0  0  0  0  0  0  0
   60.9180   30.0520   49.7540 C   0  0  0  0  0  0  0  0  0  0  0  0
   60.7450   31.0840   49.1570 N   0  0  0  0  0  0  0  0  0  0  0  0
   59.1900   27.9100   46.4890 C   0  0  0  0  0  0  0  0  0  0  0  0
   59.7200   28.6860   45.4850 C   0  0  0  0  0  0  0  0  0  0  0  0
   58.9390   29.3340   44.5140 C   0  0  0  0  0  0  0  0  0  0  0  0
   57.5860   29.1550   44.6070 C   0  0  0  0  0  0  0  0  0  0  0  0
   56.4610   29.8290   43.3990 S   0  0  0  0  0  0  0  0  0  0  0  0
   57.1280   31.3270   42.8890 N   0  0  0  0  0  0  0  0  0  0  0  0
   56.3610   28.9340   42.2050 O   0  0  0  0  0  0  0  0  0  0  0  0
   55.1460   30.0620   44.0730 O   0  0  0  0  0  0  0  0  0  0  0  0
   57.0010   28.3940   45.5910 C   0  0  0  0  0  0  0  0  0  0  0  0
   57.7940   27.7890   46.5090 C   0  0  0  0  0  0  0  0  0  0  0  0
   60.4250   29.1630   48.5050 N   0  0  0  0  0  0  0  0  0  0  0  0
   58.0146   34.5015   47.2156 H   0  0  0  0  0  0  0  0  0  0  0  0
   58.8380   34.9913   45.6962 H   0  0  0  0  0  0  0  0  0  0  0  0
   57.0711   34.6681   45.6962 H   0  0  0  0  0  0  0  0  0  0  0  0
   59.0100   31.1750   47.5760 H   0  0  0  0  0  0  0  0  0  0  0  0
   60.7231   33.7392   45.4735 H   0  0  0  0  0  0  0  0  0  0  0  0
   62.9560   34.5489   46.0555 H   0  0  0  0  0  0  0  0  0  0  0  0
   64.2091   33.8256   48.0020 H   0  0  0  0  0  0  0  0  0  0  0  0
   63.1976   32.1474   49.5512 H   0  0  0  0  0  0  0  0  0  0  0  0
   61.5248   29.4378   51.4719 H   0  0  0  0  0  0  0  0  0  0  0  0
   61.4690   27.1970   51.5329 H   0  0  0  0  0  0  0  0  0  0  0  0
   60.6580   26.0230   49.4490 H   0  0  0  0  0  0  0  0  0  0  0  0
   60.8126   28.8055   45.4400 H   0  0  0  0  0  0  0  0  0  0  0  0
   59.3901   29.9510   43.7229 H   0  0  0  0  0  0  0  0  0  0  0  0
   56.9420   32.0450   43.6370 H   0  0  0  0  0  0  0  0  0  0  0  0
   58.1640   31.1860   42.7790 H   0  0  0  0  0  0  0  0  0  0  0  0
   55.9079   28.2779   45.6328 H   0  0  0  0  0  0  0  0  0  0  0  0
   57.3252   27.1817   47.2973 H   0  0  0  0  0  0  0  0  0  0  0  0
   60.1560   29.7110   47.7170 H   0  0  0  0  0  0  0  0  0  0  0  0
  1  2  1  0
  2  3  2  0
  2  4  2  0
  2  5  1  0
  5  6  1  0
  6  7  2  0
  7  8  1  0
  8  9  2  0
  9 10  1  0
 10 11  2  0
 11 12  1  0
 12 13  2  0
 13 14  1  0
 14 15  2  0
 15 16  1  0
 16 17  1  0
 17 18  2  0
 18 19  1  0
 19 20  2  0
 20 21  1  0
 21 22  2  0
 22 23  1  0
 23 24  1  0
 23 25  2  0
 23 26  2  0
 22 27  1  0
 27 28  2  0
 17 29  1  0
 11  6  1  0
 29 13  1  0
 28 19  1  0
  1 30  1  0
  1 31  1  0
  1 32  1  0
  5 33  1  0
  7 34  1  0
  8 35  1  0
  9 36  1  0
 10 37  1  0
 14 38  1  0
 15 39  1  0
 16 40  1  0
 20 41  1  0
 21 42  1  0
 24 43  1  0
 24 44  1  0
 27 45  1  0
 28 46  1  0
 29 47  1  0
M  END
>  <smiles>  (49) 
CS(=O)(=O)Nc1ccccc1N=c1cc[nH]c(=Nc2ccc(S(N)(=O)=O)cc2)[nH]1

>  <score_type>  (49) 
oracle

>  <origin>  (49) 
adg

>  <m_score__min__energy>  (49) 
-9.6600000000000001

>  <m_primary>  (49) 
energy

$$$$
49:0
     RDKit          3D

 45 47  0  0  0  0  0  0  0  0999 V2000
   56.8800   23.9160   46.9240 C   0  0  0  0  0  0  0  0  0  0  0  0
   56.3000   25.1680   47.2530 O   0  0  0  0  0  0  0  0  0  0  0  0
   55.9670   26.1250   46.2900 C   0  0  0  0  0  0  0  0  0  0  0  0
   54.7600   26.3300   45.9980 O   0  0  0  0  0  0  0  0  0  0  0  0
   57.0340   26.8980   45.6160 C   0  0  0  0  0  0  0  0  0  0  0  0
   57.6990   26.3610   44.4990 C   0  0  0  0  0  0  0  0  0  0  0  0
   58.7030   27.0920   43.8570 C   0  0  0  0  0  0  0  0  0  0  0  0
   59.0620   28.3590   44.3190 C   0  0  0  0  0  0  0  0  0  0  0  0
   58.4110   28.9100   45.4330 C   0  0  0  0  0  0  0  0  0  0  0  0
   58.7660   30.2120   45.9210 N   0  0  0  0  0  0  0  0  0  0  0  0
   58.0910   31.4090   45.5060 C   0  0  0  0  0  0  0  0  0  0  0  0
   57.0040   31.3390   44.8760 O   0  0  0  0  0  0  0  0  0  0  0  0
   58.6330   32.7300   45.8770 C   0  0  0  0  0  0  0  0  0  0  0  0
   58.5290   33.7620   44.9360 C   0  0  0  0  0  0  0  0  0  0  0  0
   58.9880   35.0440   45.2380 C   0  0  0  0  0  0  0  0  0  0  0  0
   59.5670   35.3070   46.4760 C   0  0  0  0  0  0  0  0  0  0  0  0
   59.6870   34.2910   47.4230 C   0  0  0  0  0  0  0  0  0  0  0  0
   59.2280   32.9890   47.1450 C   0  0  0  0  0  0  0  0  0  0  0  0
   59.4320   31.9290   48.1670 C   0  0  0  0  0  0  0  0  0  0  0  0
   58.4900   31.5880   48.9300 O   0  0  0  0  0  0  0  0  0  0  0  0
   60.6790   31.2250   48.2270 N   0  0  0  0  0  0  0  0  0  0  0  0
   61.9700   31.8270   48.3540 C   0  0  0  0  0  0  0  0  0  0  0  0
   62.5350   32.4570   47.2370 C   0  0  0  0  0  0  0  0  0  0  0  0
   63.7760   33.0840   47.3370 C   0  0  0  0  0  0  0  0  0  0  0  0
   64.4640   33.0810   48.5500 C   0  0  0  0  0  0  0  0  0  0  0  0
   63.9110   32.4500   49.6660 C   0  0  0  0  0  0  0  0  0  0  0  0
   62.6600   31.8360   49.5760 C   0  0  0  0  0  0  0  0  0  0  0  0
   57.4040   28.1730   46.0810 C   0  0  0  0  0  0  0  0  0  0  0  0
   57.1310   23.3741   47.8478 H   0  0  0  0  0  0  0  0  0  0  0  0
   56.1644   23.3240   46.3346 H   0  0  0  0  0  0  0  0  0  0  0  0
   57.7943   24.0790   46.3346 H   0  0  0  0  0  0  0  0  0  0  0  0
   57.4279   25.3613   44.1289 H   0  0  0  0  0  0  0  0  0  0  0  0
   59.2138   26.6653   42.9812 H   0  0  0  0  0  0  0  0  0  0  0  0
   59.8554   28.9257   43.8097 H   0  0  0  0  0  0  0  0  0  0  0  0
   59.4580   30.2790   46.7070 H   0  0  0  0  0  0  0  0  0  0  0  0
   58.0820   33.5600   43.9514 H   0  0  0  0  0  0  0  0  0  0  0  0
   58.8921   35.8498   44.4953 H   0  0  0  0  0  0  0  0  0  0  0  0
   59.9308   36.3189   46.7078 H   0  0  0  0  0  0  0  0  0  0  0  0
   60.1456   34.5089   48.3988 H   0  0  0  0  0  0  0  0  0  0  0  0
   61.9971   32.4568   46.2775 H   0  0  0  0  0  0  0  0  0  0  0  0
   64.2129   33.5814   46.4585 H   0  0  0  0  0  0  0  0  0  0  0  0
   65.4432   33.5762   48.6276 H   0  0  0  0  0  0  0  0  0  0  0  0
   64.4619   32.4365   50.6180 H   0  0  0  0  0  0  0  0  0  0  0  0
   62.2157   31.3597   50.4624 H   0  0  0  0  0  0  0  0  0  0  0  0
   56.8999   28.5982   46.9614 H   0  0  0  0  0  0  0  0  0  0  0  0
  1  2  1  0
  2  3  1  0
  3  4  2  0
  3  5  1  0
  5  6  2  0
  6  7  1  0
  7  8  2  0
  8  9  1  0
  9 10  1  0
 10 11  1  0
 11 12  2  0
 11 13  1  0
 13 14  2  0
 14 15  1  0
 15 16  2  0
 16 17  1  0
 17 18  2  0
 18 19  1  0
 19 20  2  0
 19 21  1  0
 21 22  1  0
 22 23  2  0
 23 24  1  0
 24 25  2  0
 25 26  1  0
 26 27  2  0
  9 28  2  0
 28  5  1  0
 18 13  1  0
 27 22  1  0
  1 29  1  0
  1 30  1  0
  1 31  1  0
  6 32  1  0
  7 33  1  0
  8 34  1  0
 10 35  1  0
 14 36  1  0
 15 37  1  0
 16 38  1  0
 17 39  1  0
 23 40  1  0
 24 41  1  0
 25 42  1  0
 26 43  1  0
 27 44  1  0
 28 45  1  0
M  CHG  1  21  -1
M  END
>  <UniqueID>  (50) 
44

>  <SMILES>  (50) 
COC(=O)c1cccc(NC(=O)c2ccccc2C(=O)[N-]c2ccccc2)c1

>  <Energy>  (50) 
63.28654009658366

>  <Genealogy>  (50) 
COC(=O)c1cccc(NC(=O)c2ccccc2C(=O)[N-]c2ccccc2)c1 (protonated)
COC(=O)c1cccc(NC(=O)c2ccccc2C(=O)[N-]c2ccccc2)c1 (3D coordinates assigned)
COC(=O)c1cccc(NC(=O)c2ccccc2C(=O)[N-]c2ccccc2)c1 (optimized conformer: 63.28654009658366 kcal/mol)

>  <smiles>  (50) 
COC(=O)c1cccc(NC(=O)c2ccccc2C(=O)Nc2ccccc2)c1

>  <score_type>  (50) 
oracle

>  <origin>  (50) 
adg

>  <m_score__min__energy>  (50) 
-9.8399999999999999

>  <m_primary>  (50) 
energy

$$$$
50:0
     RDKit          3D

 50 51  0  0  0  0  0  0  0  0999 V2000
   51.2470   22.7750   46.6870 C   0  0  0  0  0  0  0  0  0  0  0  0
   52.2620   22.6510   45.6030 C   0  0  0  0  0  0  0  0  0  0  0  0
   52.1360   23.3430   44.5580 O   0  0  0  0  0  0  0  0  0  0  0  0
   53.3080   21.6790   45.7210 N   0  0  0  0  0  0  0  0  0  0  0  0
   54.7200   21.9350   45.7530 C   0  0  0  0  0  0  0  0  0  0  0  0
   55.6250   21.2630   44.9100 C   0  0  0  0  0  0  0  0  0  0  0  0
   56.9910   21.5600   44.9650 C   0  0  0  0  0  0  0  0  0  0  0  0
   57.4640   22.5290   45.8530 C   0  0  0  0  0  0  0  0  0  0  0  0
   56.5710   23.2060   46.6900 C   0  0  0  0  0  0  0  0  0  0  0  0
   57.1710   24.4610   47.8270 S   0  0  0  0  0  0  0  0  0  0  0  0
   57.6430   25.6510   46.5260 C   0  0  0  0  0  0  0  0  0  0  0  0
   56.5410   26.6270   46.2640 C   0  0  0  0  0  0  0  0  0  0  0  0
   55.3420   26.2390   46.2900 O   0  0  0  0  0  0  0  0  0  0  0  0
   56.8560   27.9960   45.9920 N   0  0  0  0  0  0  0  0  0  0  0  0
   56.7910   28.6000   44.6590 C   0  0  1  0  0  0  0  0  0  0  0  0
   56.3700   30.0440   44.7320 C   0  0  0  0  0  0  0  0  0  0  0  0
   55.1840   30.3790   44.4610 O   0  0  0  0  0  0  0  0  0  0  0  0
   57.3080   31.0250   45.1840 N   0  0  0  0  0  0  0  0  0  0  0  0
   57.6390   32.2220   44.4210 C   0  0  0  0  0  0  0  0  0  0  0  0
   58.3060   33.2280   45.3030 C   0  0  0  0  0  0  0  0  0  0  0  0
   58.1640   33.3200   46.6740 C   0  0  0  0  0  0  0  0  0  0  0  0
   58.9360   34.3970   47.0530 C   0  0  0  0  0  0  0  0  0  0  0  0
   59.4990   34.8930   45.8940 C   0  0  0  0  0  0  0  0  0  0  0  0
   59.1020   34.1760   44.8660 O   0  0  0  0  0  0  0  0  0  0  0  0
   58.1530   28.4580   43.9320 C   0  0  0  0  0  0  0  0  0  0  0  0
   59.3480   28.5390   44.8960 C   0  0  0  0  0  0  0  0  0  0  0  0
   58.2110   27.1520   43.1270 C   0  0  0  0  0  0  0  0  0  0  0  0
   55.2020   22.9230   46.6220 C   0  0  0  0  0  0  0  0  0  0  0  0
   51.7461   22.7140   47.6654 H   0  0  0  0  0  0  0  0  0  0  0  0
   50.7318   23.7428   46.5979 H   0  0  0  0  0  0  0  0  0  0  0  0
   50.5139   21.9597   46.5979 H   0  0  0  0  0  0  0  0  0  0  0  0
   55.2571   20.5021   44.2059 H   0  0  0  0  0  0  0  0  0  0  0  0
   57.6946   21.0289   44.3071 H   0  0  0  0  0  0  0  0  0  0  0  0
   58.5388   22.7596   45.8940 H   0  0  0  0  0  0  0  0  0  0  0  0
   58.5398   26.1999   46.8493 H   0  0  0  0  0  0  0  0  0  0  0  0
   57.8441   25.0939   45.5991 H   0  0  0  0  0  0  0  0  0  0  0  0
   56.0282   28.0604   44.0785 H   0  0  0  0  0  0  0  0  0  0  0  0
   58.3182   31.9526   43.5987 H   0  0  0  0  0  0  0  0  0  0  0  0
   56.7134   32.6571   44.0161 H   0  0  0  0  0  0  0  0  0  0  0  0
   57.5616   32.6704   47.3260 H   0  0  0  0  0  0  0  0  0  0  0  0
   59.0755   34.7835   48.0734 H   0  0  0  0  0  0  0  0  0  0  0  0
   60.1771   35.7573   45.8390 H   0  0  0  0  0  0  0  0  0  0  0  0
   58.2296   29.3111   43.2418 H   0  0  0  0  0  0  0  0  0  0  0  0
   58.9842   28.5143   45.9338 H   0  0  0  0  0  0  0  0  0  0  0  0
   60.0181   27.6842   44.7219 H   0  0  0  0  0  0  0  0  0  0  0  0
   59.8966   29.4764   44.7219 H   0  0  0  0  0  0  0  0  0  0  0  0
   58.2490   26.2968   43.8178 H   0  0  0  0  0  0  0  0  0  0  0  0
   57.3155   27.0719   42.4932 H   0  0  0  0  0  0  0  0  0  0  0  0
   59.1100   27.1516   42.4932 H   0  0  0  0  0  0  0  0  0  0  0  0
   54.4979   23.4813   47.2565 H   0  0  0  0  0  0  0  0  0  0  0  0
  1  2  1  0
  2  3  2  0
  2  4  1  0
  4  5  1  0
  5  6  2  0
  6  7  1  0
  7  8  2  0
  8  9  1  0
  9 10  1  0
 10 11  1  0
 11 12  1  0
 12 13  2  0
 12 14  1  0
 14 15  1  0
 15 16  1  0
 16 17  2  0
 16 18  1  0
 18 19  1  0
 19 20  1  0
 20 21  2  0
 21 22  1  0
 22 23  2  0
 23 24  1  0
 15 25  1  0
 25 26  1  0
 25 27  1  0
  9 28  2  0
 28  5  1  0
 24 20  1  0
  1 29  1  0
  1 30  1  0
  1 31  1  0
  6 32  1  0
  7 33  1  0
  8 34  1  0
 11 35  1  0
 11 36  1  0
 15 37  1  6
 19 38  1  0
 19 39  1  0
 21 40  1  0
 22 41  1  0
 23 42  1  0
 25 43  1  0
 26 44  1  0
 26 45  1  0
 26 46  1  0
 27 47  1  0
 27 48  1  0
 27 49  1  0
 28 50  1  0
M  CHG  3   4  -1  14  -1  18  -1
M  END
>  <UniqueID>  (51) 
45

>  <SMILES>  (51) 
CC(=O)[N-]c1cccc(SCC(=O)[N-][C@@H](C(=O)[N-]Cc2ccco2)C(C)C)c1

>  <Energy>  (51) 
57.19560234051853

>  <Genealogy>  (51) 
CC(=O)[N-]c1cccc(SCC(=O)[N-]C(C(=O)[N-]Cc2ccco2)C(C)C)c1 (protonated)
CC(=O)[N-]c1cccc(SCC(=O)[N-][C@@H](C(=O)[N-]Cc2ccco2)C(C)C)c1 (chirality)
CC(=O)[N-]c1cccc(SCC(=O)[N-][C@@H](C(=O)[N-]Cc2ccco2)C(C)C)c1 (3D coordinates assigned)
CC(=O)[N-]c1cccc(SCC(=O)[N-][C@@H](C(=O)[N-]Cc2ccco2)C(C)C)c1 (optimized conformer: 57.19560234051853 kcal/mol)

>  <smiles>  (51) 
CC(=O)Nc1cccc(SCC(=O)NC(C(=O)NCc2ccco2)C(C)C)c1

>  <score_type>  (51) 
oracle

>  <origin>  (51) 
adg

>  <m_score__min__energy>  (51) 
-13.720000000000001

>  <m_primary>  (51) 
energy

$$$$
51:0
     RDKit          3D

 37 38  0  0  0  0  0  0  0  0999 V2000
   56.7110   20.6840   45.6210 C   0  0  0  0  0  0  0  0  0  0  0  0
   57.7430   21.4030   44.9530 O   0  0  0  0  0  0  0  0  0  0  0  0
   57.8320   22.8030   44.8860 C   0  0  0  0  0  0  0  0  0  0  0  0
   58.7700   23.5120   45.6620 C   0  0  0  0  0  0  0  0  0  0  0  0
   58.8360   24.9030   45.6060 C   0  0  0  0  0  0  0  0  0  0  0  0
   57.9680   25.6230   44.7740 C   0  0  0  0  0  0  0  0  0  0  0  0
   58.0380   27.1040   44.7080 C   0  0  0  0  0  0  0  0  0  0  0  0
   58.6590   27.7810   45.6240 N   0  0  0  0  0  0  0  0  0  0  0  0
   57.4080   27.8070   43.6300 N   0  0  0  0  0  0  0  0  0  0  0  0
   57.3980   29.1870   43.6210 O   0  0  0  0  0  0  0  0  0  0  0  0
   56.6970   29.9370   44.5700 C   0  0  0  0  0  0  0  0  0  0  0  0
   55.4510   30.0900   44.4680 O   0  0  0  0  0  0  0  0  0  0  0  0
   57.3910   30.5850   45.6410 N   0  0  0  0  0  0  0  0  0  0  0  0
   57.8910   31.9300   45.6310 C   0  0  0  0  0  0  0  0  0  0  0  0
   57.2910   32.9430   44.8590 C   0  0  0  0  0  0  0  0  0  0  0  0
   57.8230   34.2370   44.8630 C   0  0  0  0  0  0  0  0  0  0  0  0
   58.9600   34.5250   45.6210 C   0  0  0  0  0  0  0  0  0  0  0  0
   59.5750   33.5170   46.3690 C   0  0  0  0  0  0  0  0  0  0  0  0
   59.0470   32.2230   46.3680 C   0  0  0  0  0  0  0  0  0  0  0  0
   57.0350   24.9230   43.9940 C   0  0  0  0  0  0  0  0  0  0  0  0
   56.9580   23.5170   44.0340 C   0  0  0  0  0  0  0  0  0  0  0  0
   55.9870   22.8330   43.2130 N   0  0  0  0  0  0  0  0  0  0  0  0
   54.8560   23.3300   43.0260 O   0  0  0  0  0  0  0  0  0  0  0  0
   56.2970   21.6550   42.5730 O   0  0  0  0  0  0  0  0  0  0  0  0
   56.8444   20.7770   46.7089 H   0  0  0  0  0  0  0  0  0  0  0  0
   55.7323   21.0968   45.3350 H   0  0  0  0  0  0  0  0  0  0  0  0
   56.7592   19.6229   45.3350 H   0  0  0  0  0  0  0  0  0  0  0  0
   59.4584   22.9612   46.3198 H   0  0  0  0  0  0  0  0  0  0  0  0
   59.5748   25.4397   46.2193 H   0  0  0  0  0  0  0  0  0  0  0  0
   58.6420   28.8240   45.6690 H   0  0  0  0  0  0  0  0  0  0  0  0
   56.9830   27.2710   42.8400 H   0  0  0  0  0  0  0  0  0  0  0  0
   56.4023   32.7167   44.2516 H   0  0  0  0  0  0  0  0  0  0  0  0
   57.3448   35.0290   44.2680 H   0  0  0  0  0  0  0  0  0  0  0  0
   59.3716   35.5451   45.6294 H   0  0  0  0  0  0  0  0  0  0  0  0
   60.4755   33.7425   46.9591 H   0  0  0  0  0  0  0  0  0  0  0  0
   59.5412   31.4301   46.9486 H   0  0  0  0  0  0  0  0  0  0  0  0
   56.3509   25.4826   43.3391 H   0  0  0  0  0  0  0  0  0  0  0  0
  1  2  1  0
  2  3  1  0
  3  4  2  0
  4  5  1  0
  5  6  2  0
  6  7  1  0
  7  8  2  3
  7  9  1  0
  9 10  1  0
 10 11  1  0
 11 12  2  0
 11 13  1  0
 13 14  1  0
 14 15  2  0
 15 16  1  0
 16 17  2  0
 17 18  1  0
 18 19  2  0
  6 20  1  0
 20 21  2  0
 21 22  1  0
 22 23  2  0
 22 24  1  0
 21  3  1  0
 19 14  1  0
  1 25  1  0
  1 26  1  0
  1 27  1  0
  4 28  1  0
  5 29  1  0
  8 30  1  0
  9 31  1  0
 15 32  1  0
 16 33  1  0
 17 34  1  0
 18 35  1  0
 19 36  1  0
 20 37  1  0
M  CHG  3  13  -1  22   1  24  -1
M  END
>  <UniqueID>  (52) 
46

>  <SMILES>  (52) 
COc1ccc(C(=N)NOC(=O)[N-]c2ccccc2)cc1[N+](=O)[O-]

>  <Energy>  (52) 
44.709604336153504

>  <Genealogy>  (52) 
COc1ccc(C(=N)NOC(=O)[N-]c2ccccc2)cc1[N+](=O)[O-] (protonated)
COc1ccc(C(=N)NOC(=O)[N-]c2ccccc2)cc1[N+](=O)[O-] (3D coordinates assigned)
COc1ccc(C(=N)NOC(=O)[N-]c2ccccc2)cc1[N+](=O)[O-] (optimized conformer: 44.709604336153504 kcal/mol)

>  <smiles>  (52) 
COc1ccc(C(=N)NOC(=O)Nc2ccccc2)cc1[N+](=O)[O-]

>  <score_type>  (52) 
oracle

>  <origin>  (52) 
adg

>  <m_score__min__energy>  (52) 
-8.3599999999999994

>  <m_primary>  (52) 
energy

$$$$
52:0
     RDKit          3D

 46 48  0  0  0  0  0  0  0  0999 V2000
   55.1600   29.2480   44.7990 N   0  0  0  0  0  0  0  0  0  0  0  0
   56.3580   30.0180   44.8690 C   0  0  0  0  0  0  0  0  0  0  0  0
   56.3500   31.2080   44.4540 O   0  0  0  0  0  0  0  0  0  0  0  0
   57.5900   29.4460   45.4620 C   0  0  0  0  0  0  0  0  0  0  0  0
   57.8130   28.0620   45.3600 C   0  0  0  0  0  0  0  0  0  0  0  0
   58.9930   27.4850   45.8490 C   0  0  0  0  0  0  0  0  0  0  0  0
   59.1490   25.9870   45.8490 C   0  0  0  0  0  0  0  0  0  0  0  0
   57.8760   25.3360   45.4750 N   0  0  0  0  0  0  0  0  0  0  0  0
   56.9650   25.2250   46.6430 C   0  0  0  0  0  0  0  0  0  0  0  0
   55.7610   24.2940   46.3730 C   0  0  0  0  0  0  0  0  0  0  0  0
   55.5660   24.0480   44.8760 C   0  0  0  0  0  0  0  0  0  0  0  0
   56.8360   23.4500   44.2500 C   0  0  0  0  0  0  0  0  0  0  0  0
   58.1250   24.0090   44.8820 C   0  0  0  0  0  0  0  0  0  0  0  0
   59.9820   28.3050   46.4080 C   0  0  0  0  0  0  0  0  0  0  0  0
   59.7690   29.6780   46.5270 C   0  0  0  0  0  0  0  0  0  0  0  0
   58.5620   30.2510   46.1110 C   0  0  0  0  0  0  0  0  0  0  0  0
   58.3050   31.6150   46.4710 N   0  0  0  0  0  0  0  0  0  0  0  0
   59.2110   32.7030   46.2280 C   0  0  0  0  0  0  0  0  0  0  0  0
   58.8930   33.5780   45.3790 O   0  0  0  0  0  0  0  0  0  0  0  0
   60.4990   32.8290   46.9510 C   0  0  0  0  0  0  0  0  0  0  0  0
   61.5910   33.5000   46.3730 C   0  0  0  0  0  0  0  0  0  0  0  0
   62.8150   33.5680   47.0440 C   0  0  0  0  0  0  0  0  0  0  0  0
   62.9560   32.9820   48.3040 C   0  0  0  0  0  0  0  0  0  0  0  0
   64.4970   33.0590   49.1400 Cl  0  0  0  0  0  0  0  0  0  0  0  0
   61.8670   32.3370   48.9000 C   0  0  0  0  0  0  0  0  0  0  0  0
   60.6410   32.2650   48.2300 C   0  0  0  0  0  0  0  0  0  0  0  0
   54.4170   29.3450   45.5260 H   0  0  0  0  0  0  0  0  0  0  0  0
   57.0510   27.4230   44.8900 H   0  0  0  0  0  0  0  0  0  0  0  0
   59.9272   25.7037   45.1251 H   0  0  0  0  0  0  0  0  0  0  0  0
   59.4344   25.6582   46.8592 H   0  0  0  0  0  0  0  0  0  0  0  0
   57.5335   24.8268   47.4963 H   0  0  0  0  0  0  0  0  0  0  0  0
   56.5684   26.2295   46.8521 H   0  0  0  0  0  0  0  0  0  0  0  0
   55.9353   23.3302   46.8737 H   0  0  0  0  0  0  0  0  0  0  0  0
   54.8549   24.7804   46.7633 H   0  0  0  0  0  0  0  0  0  0  0  0
   54.7293   23.3486   44.7317 H   0  0  0  0  0  0  0  0  0  0  0  0
   55.3511   25.0092   44.3863 H   0  0  0  0  0  0  0  0  0  0  0  0
   56.8185   22.3592   44.3906 H   0  0  0  0  0  0  0  0  0  0  0  0
   56.8422   23.7204   43.1838 H   0  0  0  0  0  0  0  0  0  0  0  0
   58.4711   23.3208   45.6672 H   0  0  0  0  0  0  0  0  0  0  0  0
   58.8914   24.1073   44.0991 H   0  0  0  0  0  0  0  0  0  0  0  0
   60.9288   27.8647   46.7539 H   0  0  0  0  0  0  0  0  0  0  0  0
   60.5573   30.3167   46.9519 H   0  0  0  0  0  0  0  0  0  0  0  0
   61.4813   33.9743   45.3866 H   0  0  0  0  0  0  0  0  0  0  0  0
   63.6683   34.0836   46.5793 H   0  0  0  0  0  0  0  0  0  0  0  0
   61.9749   31.8856   49.8973 H   0  0  0  0  0  0  0  0  0  0  0  0
   59.7849   31.7649   48.7064 H   0  0  0  0  0  0  0  0  0  0  0  0
  1  2  1  0
  2  3  2  0
  2  4  1  0
  4  5  2  0
  5  6  1  0
  6  7  1  0
  7  8  1  0
  8  9  1  0
  9 10  1  0
 10 11  1  0
 11 12  1  0
 12 13  1  0
  6 14  2  0
 14 15  1  0
 15 16  2  0
 16 17  1  0
 17 18  1  0
 18 19  2  0
 18 20  1  0
 20 21  2  0
 21 22  1  0
 22 23  2  0
 23 24  1  0
 23 25  1  0
 25 26  2  0
 16  4  1  0
 26 20  1  0
 13  8  1  0
  1 27  1  0
  5 28  1  0
  7 29  1  0
  7 30  1  0
  9 31  1  0
  9 32  1  0
 10 33  1  0
 10 34  1  0
 11 35  1  0
 11 36  1  0
 12 37  1  0
 12 38  1  0
 13 39  1  0
 13 40  1  0
 14 41  1  0
 15 42  1  0
 21 43  1  0
 22 44  1  0
 25 45  1  0
 26 46  1  0
M  CHG  2   1  -1  17  -1
M  END
>  <UniqueID>  (53) 
47

>  <SMILES>  (53) 
[NH-]C(=O)c1cc(CN2CCCCC2)ccc1[N-]C(=O)c1ccc(Cl)cc1

>  <Energy>  (53) 
63.2428018588065

>  <Genealogy>  (53) 
[NH-]C(=O)c1cc(CN2CCCCC2)ccc1[N-]C(=O)c1ccc(Cl)cc1 (protonated)
[NH-]C(=O)c1cc(CN2CCCCC2)ccc1[N-]C(=O)c1ccc(Cl)cc1 (3D coordinates assigned)
[NH-]C(=O)c1cc(CN2CCCCC2)ccc1[N-]C(=O)c1ccc(Cl)cc1 (nonaromatic ring conformer: 63.2428018588065 kcal/mol)

>  <smiles>  (53) 
NC(=O)c1cc(CN2CCCCC2)ccc1NC(=O)c1ccc(Cl)cc1

>  <score_type>  (53) 
oracle

>  <origin>  (53) 
adg

>  <m_score__min__energy>  (53) 
-13.18

>  <m_primary>  (53) 
energy

$$$$
53:0
     RDKit          3D

 48 50  0  0  0  0  0  0  0  0999 V2000
   56.9940   21.0600   43.1150 C   0  0  0  0  0  0  0  0  0  0  0  0
   56.0230   21.9310   43.6860 O   0  0  0  0  0  0  0  0  0  0  0  0
   56.3050   23.2130   44.1830 C   0  0  0  0  0  0  0  0  0  0  0  0
   55.4660   23.7420   45.1700 C   0  0  0  0  0  0  0  0  0  0  0  0
   55.7040   25.0140   45.6970 C   0  0  0  0  0  0  0  0  0  0  0  0
   56.7850   25.7880   45.2380 C   0  0  0  0  0  0  0  0  0  0  0  0
   57.0320   27.1360   45.8050 C   0  0  0  0  0  0  0  0  0  0  0  0
   57.3600   27.2490   47.0180 O   0  0  0  0  0  0  0  0  0  0  0  0
   56.8560   28.3160   45.0030 N   0  0  0  0  0  0  0  0  0  0  0  0
   57.4430   29.5910   45.3170 C   0  0  0  0  0  0  0  0  0  0  0  0
   58.4090   29.7230   46.3310 C   0  0  0  0  0  0  0  0  0  0  0  0
   58.9830   30.9690   46.6010 C   0  0  0  0  0  0  0  0  0  0  0  0
   58.6070   32.0950   45.8600 C   0  0  0  0  0  0  0  0  0  0  0  0
   59.3590   33.6520   46.2000 S   0  0  0  0  0  0  0  0  0  0  0  0
   59.6820   34.3620   44.9140 O   0  0  0  0  0  0  0  0  0  0  0  0
   58.3910   34.4910   46.9850 O   0  0  0  0  0  0  0  0  0  0  0  0
   60.8180   33.4030   47.1270 N   0  0  0  0  0  0  0  0  0  0  0  0
   61.9860   33.8630   46.3580 C   0  0  0  0  0  0  0  0  0  0  0  0
   63.2910   33.4500   47.0660 C   0  0  0  0  0  0  0  0  0  0  0  0
   63.0970   33.2330   48.5750 C   0  0  0  0  0  0  0  0  0  0  0  0
   62.0770   34.2190   49.1450 C   0  0  0  0  0  0  0  0  0  0  0  0
   60.7170   34.1220   48.4140 C   0  0  0  0  0  0  0  0  0  0  0  0
   57.6630   31.9640   44.8330 C   0  0  0  0  0  0  0  0  0  0  0  0
   57.0900   30.7190   44.5610 C   0  0  0  0  0  0  0  0  0  0  0  0
   57.6330   25.2510   44.2520 C   0  0  0  0  0  0  0  0  0  0  0  0
   57.3950   23.9770   43.7290 C   0  0  0  0  0  0  0  0  0  0  0  0
   57.5536   20.5580   43.9180 H   0  0  0  0  0  0  0  0  0  0  0  0
   56.4895   20.3060   42.4929 H   0  0  0  0  0  0  0  0  0  0  0  0
   57.6890   21.6431   42.4929 H   0  0  0  0  0  0  0  0  0  0  0  0
   54.6121   23.1517   45.5340 H   0  0  0  0  0  0  0  0  0  0  0  0
   55.0401   25.4136   46.4777 H   0  0  0  0  0  0  0  0  0  0  0  0
   56.1740   28.2740   44.2120 H   0  0  0  0  0  0  0  0  0  0  0  0
   58.7143   28.8417   46.9143 H   0  0  0  0  0  0  0  0  0  0  0  0
   59.7335   31.0646   47.3995 H   0  0  0  0  0  0  0  0  0  0  0  0
   61.9597   33.4128   45.3547 H   0  0  0  0  0  0  0  0  0  0  0  0
   61.9533   34.9598   46.2808 H   0  0  0  0  0  0  0  0  0  0  0  0
   63.6542   32.5131   46.6184 H   0  0  0  0  0  0  0  0  0  0  0  0
   64.0157   34.2672   46.9357 H   0  0  0  0  0  0  0  0  0  0  0  0
   62.7404   32.2068   48.7477 H   0  0  0  0  0  0  0  0  0  0  0  0
   64.0611   33.3965   49.0788 H   0  0  0  0  0  0  0  0  0  0  0  0
   61.9249   33.9977   50.2117 H   0  0  0  0  0  0  0  0  0  0  0  0
   62.4694   35.2371   49.0056 H   0  0  0  0  0  0  0  0  0  0  0  0
   60.0054   33.5887   49.0615 H   0  0  0  0  0  0  0  0  0  0  0  0
   60.3782   35.1463   48.1997 H   0  0  0  0  0  0  0  0  0  0  0  0
   57.3723   32.8433   44.2395 H   0  0  0  0  0  0  0  0  0  0  0  0
   56.3560   30.6224   43.7474 H   0  0  0  0  0  0  0  0  0  0  0  0
   58.4898   25.8383   43.8900 H   0  0  0  0  0  0  0  0  0  0  0  0
   58.0645   23.5692   42.9573 H   0  0  0  0  0  0  0  0  0  0  0  0
  1  2  1  0
  2  3  1  0
  3  4  2  0
  4  5  1  0
  5  6  2  0
  6  7  1  0
  7  8  2  0
  7  9  1  0
  9 10  1  0
 10 11  2  0
 11 12  1  0
 12 13  2  0
 13 14  1  0
 14 15  2  0
 14 16  2  0
 14 17  1  0
 17 18  1  0
 18 19  1  0
 19 20  1  0
 20 21  1  0
 21 22  1  0
 13 23  1  0
 23 24  2  0
  6 25  1  0
 25 26  2  0
 26  3  1  0
 24 10  1  0
 22 17  1  0
  1 27  1  0
  1 28  1  0
  1 29  1  0
  4 30  1  0
  5 31  1  0
  9 32  1  0
 11 33  1  0
 12 34  1  0
 18 35  1  0
 18 36  1  0
 19 37  1  0
 19 38  1  0
 20 39  1  0
 20 40  1  0
 21 41  1  0
 21 42  1  0
 22 43  1  0
 22 44  1  0
 23 45  1  0
 24 46  1  0
 25 47  1  0
 26 48  1  0
M  END
>  <UniqueID>  (54) 
48

>  <SMILES>  (54) 
COc1ccc(C(=O)Nc2ccc(S(=O)(=O)N3CCCCC3)cc2)cc1

>  <Energy>  (54) 
56.71343858732692

>  <Genealogy>  (54) 
COc1ccc(C(=O)Nc2ccc(S(=O)(=O)N3CCCCC3)cc2)cc1 (3D coordinates assigned)
COc1ccc(C(=O)Nc2ccc(S(=O)(=O)N3CCCCC3)cc2)cc1 (nonaromatic ring conformer: 56.71343858732692 kcal/mol)

>  <smiles>  (54) 
COc1ccc(C(=O)Nc2ccc(S(=O)(=O)N3CCCCC3)cc2)cc1

>  <score_type>  (54) 
oracle

>  <origin>  (54) 
adg

>  <m_score__min__energy>  (54) 
-8.9900000000000002

>  <m_primary>  (54) 
energy

$$$$
54:0
     RDKit          3D

 45 48  0  0  0  0  0  0  0  0999 V2000
   55.3600   29.6040   44.8800 N   0  0  0  0  0  0  0  0  0  0  0  0
   56.7950   29.9240   43.9730 S   0  0  0  0  0  0  0  0  0  0  0  0
   56.4820   30.8810   42.8580 O   0  0  0  0  0  0  0  0  0  0  0  0
   57.3060   28.6420   43.3780 O   0  0  0  0  0  0  0  0  0  0  0  0
   58.0180   30.6190   45.0310 C   0  0  0  0  0  0  0  0  0  0  0  0
   58.0820   32.0070   45.2160 C   0  0  0  0  0  0  0  0  0  0  0  0
   59.0460   32.5600   46.0640 C   0  0  0  0  0  0  0  0  0  0  0  0
   59.9610   31.7330   46.7330 C   0  0  0  0  0  0  0  0  0  0  0  0
   60.9450   32.3160   47.6070 N   0  0  0  0  0  0  0  0  0  0  0  0
   62.1720   32.9260   47.1200 C   0  0  0  0  0  0  0  0  0  0  0  0
   62.6020   33.8610   48.2590 C   0  0  0  0  0  0  0  0  0  0  0  0
   61.6290   33.6380   49.3200 N   0  0  0  0  0  0  0  0  0  0  0  0
   60.7350   32.7940   48.9320 C   0  0  0  0  0  0  0  0  0  0  0  0
   59.6740   32.3130   49.8430 C   0  0  0  0  0  0  0  0  0  0  0  0
   59.2130   30.9890   49.7730 C   0  0  0  0  0  0  0  0  0  0  0  0
   58.2110   30.5400   50.6360 C   0  0  0  0  0  0  0  0  0  0  0  0
   57.6530   31.4040   51.5940 C   0  0  0  0  0  0  0  0  0  0  0  0
   56.5830   30.9180   52.4980 C   0  0  0  0  0  0  0  0  0  0  0  0
   56.8910   30.5080   53.8090 C   0  0  0  0  0  0  0  0  0  0  0  0
   55.8850   30.0420   54.6580 C   0  0  0  0  0  0  0  0  0  0  0  0
   54.5630   29.9750   54.2090 C   0  0  0  0  0  0  0  0  0  0  0  0
   54.2470   30.3730   52.9090 C   0  0  0  0  0  0  0  0  0  0  0  0
   55.2500   30.8400   52.0540 C   0  0  0  0  0  0  0  0  0  0  0  0
   58.1320   32.7260   51.6810 C   0  0  0  0  0  0  0  0  0  0  0  0
   57.6560   33.5770   52.6250 F   0  0  0  0  0  0  0  0  0  0  0  0
   59.1370   33.1700   50.8160 C   0  0  0  0  0  0  0  0  0  0  0  0
   59.8770   30.3400   46.5660 C   0  0  0  0  0  0  0  0  0  0  0  0
   58.9130   29.7880   45.7170 C   0  0  0  0  0  0  0  0  0  0  0  0
   55.1610   28.5830   44.7850 H   0  0  0  0  0  0  0  0  0  0  0  0
   57.3714   32.6632   44.6922 H   0  0  0  0  0  0  0  0  0  0  0  0
   59.0875   33.6498   46.2076 H   0  0  0  0  0  0  0  0  0  0  0  0
   62.9401   32.1615   46.9311 H   0  0  0  0  0  0  0  0  0  0  0  0
   62.0304   33.4577   46.1675 H   0  0  0  0  0  0  0  0  0  0  0  0
   63.6152   33.6082   48.6047 H   0  0  0  0  0  0  0  0  0  0  0  0
   62.6306   34.9134   47.9401 H   0  0  0  0  0  0  0  0  0  0  0  0
   59.6445   30.2995   49.0324 H   0  0  0  0  0  0  0  0  0  0  0  0
   57.8555   29.5014   50.5654 H   0  0  0  0  0  0  0  0  0  0  0  0
   57.9302   30.5550   54.1667 H   0  0  0  0  0  0  0  0  0  0  0  0
   56.1334   29.7270   55.6822 H   0  0  0  0  0  0  0  0  0  0  0  0
   53.7720   29.6088   54.8799 H   0  0  0  0  0  0  0  0  0  0  0  0
   53.2065   30.3191   52.5563 H   0  0  0  0  0  0  0  0  0  0  0  0
   54.9957   31.1480   51.0291 H   0  0  0  0  0  0  0  0  0  0  0  0
   59.5104   34.2013   50.8990 H   0  0  0  0  0  0  0  0  0  0  0  0
   60.5729   29.6810   47.1058 H   0  0  0  0  0  0  0  0  0  0  0  0
   58.8572   28.6971   45.5873 H   0  0  0  0  0  0  0  0  0  0  0  0
  1  2  1  0
  2  3  2  0
  2  4  2  0
  2  5  1  0
  5  6  2  0
  6  7  1  0
  7  8  2  0
  8  9  1  0
  9 10  1  0
 10 11  1  0
 11 12  1  0
 12 13  2  0
 13 14  1  0
 14 15  2  0
 15 16  1  0
 16 17  2  0
 17 18  1  0
 18 19  2  0
 19 20  1  0
 20 21  2  0
 21 22  1  0
 22 23  2  0
 17 24  1  0
 24 25  1  0
 24 26  2  0
  8 27  1  0
 27 28  2  0
 28  5  1  0
 13  9  1  0
 26 14  1  0
 23 18  1  0
  1 29  1  0
  6 30  1  0
  7 31  1  0
 10 32  1  0
 10 33  1  0
 11 34  1  0
 11 35  1  0
 15 36  1  0
 16 37  1  0
 19 38  1  0
 20 39  1  0
 21 40  1  0
 22 41  1  0
 23 42  1  0
 26 43  1  0
 27 44  1  0
 28 45  1  0
M  CHG  1   1  -1
M  END
>  <UniqueID>  (55) 
49

>  <SMILES>  (55) 
[NH-]S(=O)(=O)c1ccc(N2CCN=C2c2ccc(-c3ccccc3)c(F)c2)cc1

>  <Energy>  (55) 
74.4197444643803

>  <Genealogy>  (55) 
[NH-]S(=O)(=O)c1ccc(N2CCN=C2c2ccc(-c3ccccc3)c(F)c2)cc1 (protonated)
[NH-]S(=O)(=O)c1ccc(N2CCN=C2c2ccc(-c3ccccc3)c(F)c2)cc1 (3D coordinates assigned)
[NH-]S(=O)(=O)c1ccc(N2CCN=C2c2ccc(-c3ccccc3)c(F)c2)cc1 (nonaromatic ring conformer: 74.4197444643803 kcal/mol)

>  <smiles>  (55) 
NS(=O)(=O)c1ccc(N2CCN=C2c2ccc(-c3ccccc3)c(F)c2)cc1

>  <score_type>  (55) 
oracle

>  <origin>  (55) 
adg

>  <m_score__min__energy>  (55) 
-11.140000000000001

>  <m_primary>  (55) 
energy

$$$$
55:0
     RDKit          3D

 44 45  0  0  0  0  0  0  0  0999 V2000
   55.6320   24.1700   45.0600 C   0  0  0  0  0  0  0  0  0  0  0  0
   55.5900   25.1000   46.2740 C   0  0  0  0  0  0  0  0  0  0  0  0
   56.5110   24.5900   47.3830 C   0  0  0  0  0  0  0  0  0  0  0  0
   55.9940   26.4520   45.8810 N   0  0  0  0  0  0  0  0  0  0  0  0
   57.2910   26.7410   45.3460 C   0  0  0  0  0  0  0  0  0  0  0  0
   58.2140   25.8850   45.4140 O   0  0  0  0  0  0  0  0  0  0  0  0
   57.5190   28.0070   44.7210 N   0  0  0  0  0  0  0  0  0  0  0  0
   56.6880   29.1660   44.8560 C   0  0  0  0  0  0  0  0  0  0  0  0
   55.4310   29.0660   44.8590 O   0  0  0  0  0  0  0  0  0  0  0  0
   57.3290   30.5020   45.0510 C   0  0  0  0  0  0  0  0  0  0  0  0
   59.1480   30.4180   44.8600 S   0  0  0  0  0  0  0  0  0  0  0  0
   59.4770   29.7270   46.5000 C   0  0  0  0  0  0  0  0  0  0  0  0
   59.4460   28.3740   46.6500 N   0  0  0  0  0  0  0  0  0  0  0  0
   59.5950   27.7990   47.8700 C   0  0  0  0  0  0  0  0  0  0  0  0
   59.5410   26.5470   47.9910 O   0  0  0  0  0  0  0  0  0  0  0  0
   59.8090   28.5950   48.9890 C   0  0  0  0  0  0  0  0  0  0  0  0
   59.8850   29.9820   48.8320 C   0  0  0  0  0  0  0  0  0  0  0  0
   60.1720   30.7900   49.9840 N   0  0  0  0  0  0  0  0  0  0  0  0
   59.7150   30.5390   47.5850 N   0  0  0  0  0  0  0  0  0  0  0  0
   59.8140   31.9640   47.4040 C   0  0  0  0  0  0  0  0  0  0  0  0
   61.0560   32.5640   47.1420 C   0  0  0  0  0  0  0  0  0  0  0  0
   61.1490   33.9470   46.9720 C   0  0  0  0  0  0  0  0  0  0  0  0
   60.0010   34.7420   47.0580 C   0  0  0  0  0  0  0  0  0  0  0  0
   58.7590   34.1510   47.3090 C   0  0  0  0  0  0  0  0  0  0  0  0
   58.6640   32.7660   47.4790 C   0  0  0  0  0  0  0  0  0  0  0  0
   55.6792   23.1250   45.4001 H   0  0  0  0  0  0  0  0  0  0  0  0
   54.7263   24.3176   44.4535 H   0  0  0  0  0  0  0  0  0  0  0  0
   56.5207   24.3987   44.4535 H   0  0  0  0  0  0  0  0  0  0  0  0
   54.5591   25.1210   46.6572 H   0  0  0  0  0  0  0  0  0  0  0  0
   56.0738   24.8321   48.3629 H   0  0  0  0  0  0  0  0  0  0  0  0
   56.6258   23.4998   47.2919 H   0  0  0  0  0  0  0  0  0  0  0  0
   57.4959   25.0712   47.2919 H   0  0  0  0  0  0  0  0  0  0  0  0
   55.2560   27.1870   45.7840 H   0  0  0  0  0  0  0  0  0  0  0  0
   56.9248   31.2030   44.3059 H   0  0  0  0  0  0  0  0  0  0  0  0
   57.1080   30.8412   46.0738 H   0  0  0  0  0  0  0  0  0  0  0  0
   59.2780   27.7670   45.8160 H   0  0  0  0  0  0  0  0  0  0  0  0
   59.9171   28.1398   49.9846 H   0  0  0  0  0  0  0  0  0  0  0  0
   59.4240   31.0000   50.6810 H   0  0  0  0  0  0  0  0  0  0  0  0
   61.1280   31.1530   50.1900 H   0  0  0  0  0  0  0  0  0  0  0  0
   61.9602   31.9417   47.0703 H   0  0  0  0  0  0  0  0  0  0  0  0
   62.1255   34.4116   46.7704 H   0  0  0  0  0  0  0  0  0  0  0  0
   60.0755   35.8318   46.9282 H   0  0  0  0  0  0  0  0  0  0  0  0
   57.8559   34.7758   47.3728 H   0  0  0  0  0  0  0  0  0  0  0  0
   57.6849   32.3034   47.6721 H   0  0  0  0  0  0  0  0  0  0  0  0
  1  2  1  0
  2  3  1  0
  2  4  1  0
  4  5  1  0
  5  6  2  0
  5  7  1  0
  7  8  1  0
  8  9  2  0
  8 10  1  0
 10 11  1  0
 11 12  1  0
 12 13  2  0
 13 14  1  0
 14 15  2  0
 14 16  1  0
 16 17  2  0
 17 18  1  0
 17 19  1  0
 19 20  1  0
 20 21  2  0
 21 22  1  0
 22 23  2  0
 23 24  1  0
 24 25  2  0
 19 12  1  0
 25 20  1  0
  1 26  1  0
  1 27  1  0
  1 28  1  0
  2 29  1  0
  3 30  1  0
  3 31  1  0
  3 32  1  0
  4 33  1  0
 10 34  1  0
 10 35  1  0
 13 36  1  0
 16 37  1  0
 18 38  1  0
 18 39  1  0
 21 40  1  0
 22 41  1  0
 23 42  1  0
 24 43  1  0
 25 44  1  0
M  CHG  2   7  -1  13   1
M  END
>  <UniqueID>  (56) 
50

>  <SMILES>  (56) 
CC(C)NC(=O)[N-]C(=O)CSc1[nH+]c(=O)cc(N)n1-c1ccccc1

>  <Energy>  (56) 
40.27636700987597

>  <Genealogy>  (56) 
CC(C)NC(=O)[N-]C(=O)CSc1[nH+]c(=O)cc(N)n1-c1ccccc1 (protonated)
CC(C)NC(=O)[N-]C(=O)CSc1[nH+]c(=O)cc(N)n1-c1ccccc1 (3D coordinates assigned)
CC(C)NC(=O)[N-]C(=O)CSc1[nH+]c(=O)cc(N)n1-c1ccccc1 (optimized conformer: 40.27636700987597 kcal/mol)

>  <smiles>  (56) 
CC(C)NC(=O)NC(=O)CSc1nc(=O)cc(N)n1-c1ccccc1

>  <score_type>  (56) 
oracle

>  <origin>  (56) 
adg

>  <m_score__min__energy>  (56) 
-7.4500000000000002

>  <m_primary>  (56) 
energy

$$$$
56:0
     RDKit          3D

 69 74  0  0  0  0  0  0  0  0999 V2000
   57.4630   33.5120   47.4230 O   0  0  0  0  0  0  0  0  0  0  0  0
   58.6160   33.0270   47.5860 C   0  0  0  0  0  0  0  0  0  0  0  0
   59.2870   32.4020   46.4790 N   0  0  0  0  0  0  0  0  0  0  0  0
   58.6060   31.8980   45.3170 C   0  0  0  0  0  0  0  0  0  0  0  0
   58.3420   32.7230   44.2110 C   0  0  0  0  0  0  0  0  0  0  0  0
   57.6720   32.2140   43.0970 C   0  0  0  0  0  0  0  0  0  0  0  0
   57.2470   30.8840   43.0790 C   0  0  0  0  0  0  0  0  0  0  0  0
   57.4700   30.0500   44.1900 C   0  0  0  0  0  0  0  0  0  0  0  0
   57.0340   28.5940   44.1790 C   0  0  0  0  0  0  0  0  0  0  0  0
   56.6660   28.1280   45.6000 C   0  0  0  0  0  0  0  0  0  0  0  0
   56.5630   26.5980   45.6340 C   0  0  0  0  0  0  0  0  0  0  0  0
   57.8520   25.9220   45.3170 N   0  0  0  0  0  0  0  0  0  0  0  0
   58.4930   25.3910   46.5420 C   0  0  0  0  0  0  0  0  0  0  0  0
   59.6060   26.3230   47.0520 C   0  0  0  0  0  0  0  0  0  0  0  0
   59.0540   27.5290   47.8280 C   0  0  0  0  0  0  0  0  0  0  0  0
   60.0300   28.6310   47.8890 N   0  0  0  0  0  0  0  0  0  0  0  0
   60.3300   29.3290   46.7350 C   0  0  0  0  0  0  0  0  0  0  0  0
   61.2050   30.3770   46.7530 N   0  0  0  0  0  0  0  0  0  0  0  0
   61.7760   30.7130   47.9300 C   0  0  0  0  0  0  0  0  0  0  0  0
   61.5120   30.0460   49.0920 C   0  0  0  0  0  0  0  0  0  0  0  0
   62.1960   30.5740   50.1320 N   0  0  0  0  0  0  0  0  0  0  0  0
   62.8980   31.5960   49.5900 C   0  0  0  0  0  0  0  0  0  0  0  0
   63.7610   32.4710   50.2500 C   0  0  0  0  0  0  0  0  0  0  0  0
   64.3890   33.4770   49.4900 C   0  0  0  0  0  0  0  0  0  0  0  0
   64.1440   33.5880   48.1020 C   0  0  0  0  0  0  0  0  0  0  0  0
   63.2690   32.6960   47.4550 C   0  0  0  0  0  0  0  0  0  0  0  0
   62.6650   31.7130   48.2330 C   0  0  0  0  0  0  0  0  0  0  0  0
   60.6240   28.9780   49.0830 C   0  0  0  0  0  0  0  0  0  0  0  0
   60.3740   28.3510   50.1490 O   0  0  0  0  0  0  0  0  0  0  0  0
   58.7950   26.7560   44.5240 C   0  0  0  0  0  0  0  0  0  0  0  0
   58.0730   27.6580   43.5100 C   0  0  0  0  0  0  0  0  0  0  0  0
   58.1520   30.5700   45.3040 C   0  0  0  0  0  0  0  0  0  0  0  0
   59.2820   33.1560   48.9060 C   0  0  0  0  0  0  0  0  0  0  0  0
   60.3510   34.0560   49.0740 C   0  0  0  0  0  0  0  0  0  0  0  0
   60.9800   34.1890   50.3150 C   0  0  0  0  0  0  0  0  0  0  0  0
   60.5460   33.4310   51.4050 C   0  0  0  0  0  0  0  0  0  0  0  0
   59.4810   32.5410   51.2550 C   0  0  0  0  0  0  0  0  0  0  0  0
   58.8480   32.4050   50.0150 C   0  0  0  0  0  0  0  0  0  0  0  0
   60.3320   32.4210   46.4610 H   0  0  0  0  0  0  0  0  0  0  0  0
   58.6646   33.7746   44.2228 H   0  0  0  0  0  0  0  0  0  0  0  0
   57.4782   32.8630   42.2303 H   0  0  0  0  0  0  0  0  0  0  0  0
   56.7347   30.4859   42.1907 H   0  0  0  0  0  0  0  0  0  0  0  0
   56.1319   28.5292   43.5529 H   0  0  0  0  0  0  0  0  0  0  0  0
   57.4432   28.4576   46.3052 H   0  0  0  0  0  0  0  0  0  0  0  0
   55.6974   28.5639   45.8860 H   0  0  0  0  0  0  0  0  0  0  0  0
   56.2438   26.2902   46.6406 H   0  0  0  0  0  0  0  0  0  0  0  0
   55.8362   26.2994   44.8642 H   0  0  0  0  0  0  0  0  0  0  0  0
   57.7294   25.2852   47.3266 H   0  0  0  0  0  0  0  0  0  0  0  0
   58.9453   24.4184   46.2981 H   0  0  0  0  0  0  0  0  0  0  0  0
   60.2694   25.7497   47.7163 H   0  0  0  0  0  0  0  0  0  0  0  0
   60.1468   26.7088   46.1752 H   0  0  0  0  0  0  0  0  0  0  0  0
   58.1422   27.8876   47.3279 H   0  0  0  0  0  0  0  0  0  0  0  0
   58.8380   27.2050   48.8568 H   0  0  0  0  0  0  0  0  0  0  0  0
   59.8563   29.0357   45.7865 H   0  0  0  0  0  0  0  0  0  0  0  0
   62.1810   30.2670   51.1310 H   0  0  0  0  0  0  0  0  0  0  0  0
   63.9454   32.3782   51.3305 H   0  0  0  0  0  0  0  0  0  0  0  0
   65.0759   34.1823   49.9806 H   0  0  0  0  0  0  0  0  0  0  0  0
   64.6421   34.3792   47.5224 H   0  0  0  0  0  0  0  0  0  0  0  0
   63.0701   32.7728   46.3759 H   0  0  0  0  0  0  0  0  0  0  0  0
   59.3703   27.3908   45.2139 H   0  0  0  0  0  0  0  0  0  0  0  0
   59.4496   26.0756   43.9595 H   0  0  0  0  0  0  0  0  0  0  0  0
   58.8216   28.2756   42.9922 H   0  0  0  0  0  0  0  0  0  0  0  0
   57.5312   27.0052   42.8098 H   0  0  0  0  0  0  0  0  0  0  0  0
   58.3324   29.9268   46.1780 H   0  0  0  0  0  0  0  0  0  0  0  0
   60.6944   34.6600   48.2212 H   0  0  0  0  0  0  0  0  0  0  0  0
   61.8180   34.8916   50.4335 H   0  0  0  0  0  0  0  0  0  0  0  0
   61.0430   33.5353   52.3808 H   0  0  0  0  0  0  0  0  0  0  0  0
   59.1387   31.9452   52.1140 H   0  0  0  0  0  0  0  0  0  0  0  0
   58.0053   31.7065   49.9056 H   0  0  0  0  0  0  0  0  0  0  0  0
  1  2  2  0
  2  3  1  0
  3  4  1  0
  4  5  2  0
  5  6  1  0
  6  7  2  0
  7  8  1  0
  8  9  1  0
  9 10  1  0
 10 11  1  0
 11 12  1  0
 12 13  1  0
 13 14  1  0
 14 15  1  0
 15 16  1  0
 16 17  1  0
 17 18  2  0
 18 19  1  0
 19 20  2  0
 20 21  1  0
 21 22  1  0
 22 23  2  0
 23 24  1  0
 24 25  2  0
 25 26  1  0
 26 27  2  0
 20 28  1  0
 28 29  2  0
 12 30  1  0
 30 31  1  0
  8 32  2  0
  2 33  1  0
 33 34  2  0
 34 35  1  0
 35 36  2  0
 36 37  1  0
 37 38  2  0
 32  4  1  0
 38 33  1  0
 31  9  1  0
 28 16  1  0
 27 19  1  0
 27 22  1  0
  3 39  1  0
  5 40  1  0
  6 41  1  0
  7 42  1  0
  9 43  1  0
 10 44  1  0
 10 45  1  0
 11 46  1  0
 11 47  1  0
 13 48  1  0
 13 49  1  0
 14 50  1  0
 14 51  1  0
 15 52  1  0
 15 53  1  0
 17 54  1  0
 21 55  1  0
 23 56  1  0
 24 57  1  0
 25 58  1  0
 26 59  1  0
 30 60  1  0
 30 61  1  0
 31 62  1  0
 31 63  1  0
 32 64  1  0
 34 65  1  0
 35 66  1  0
 36 67  1  0
 37 68  1  0
 38 69  1  0
M  END
>  <UniqueID>  (57) 
51

>  <SMILES>  (57) 
O=C(Nc1cccc(C2CCN(CCCn3cnc4c([nH]c5ccccc54)c3=O)CC2)c1)c1ccccc1

>  <Energy>  (57) 
135.5855617195911

>  <Genealogy>  (57) 
O=C(Nc1cccc(C2CCN(CCCn3cnc4c([nH]c5ccccc54)c3=O)CC2)c1)c1ccccc1 (3D coordinates assigned)
O=C(Nc1cccc(C2CCN(CCCn3cnc4c([nH]c5ccccc54)c3=O)CC2)c1)c1ccccc1 (nonaromatic ring conformer: 135.5855617195911 kcal/mol)

>  <smiles>  (57) 
O=C(Nc1cccc(C2CCN(CCCn3cnc4c([nH]c5ccccc54)c3=O)CC2)c1)c1ccccc1

>  <score_type>  (57) 
oracle

>  <origin>  (57) 
adg

>  <m_score__min__energy>  (57) 
-11.710000000000001

>  <m_primary>  (57) 
energy

$$$$
57:0
     RDKit          3D

 42 44  0  0  0  0  0  0  0  0999 V2000
   59.5580   29.6640   48.6850 C   0  0  0  0  0  0  0  0  0  0  0  0
   59.3130   28.8740   47.4680 N   0  0  0  0  0  0  0  0  0  0  0  0
   58.3950   29.3150   46.5400 C   0  0  0  0  0  0  0  0  0  0  0  0
   57.7700   30.3980   46.7050 O   0  0  0  0  0  0  0  0  0  0  0  0
   58.1660   28.5250   45.4200 C   0  0  0  0  0  0  0  0  0  0  0  0
   58.8160   27.3490   45.2690 C   0  0  0  0  0  0  0  0  0  0  0  0
   58.3770   26.7310   44.1550 N   0  0  0  0  0  0  0  0  0  0  0  0
   57.4660   27.5550   43.6440 N   0  0  0  0  0  0  0  0  0  0  0  0
   57.3170   28.6510   44.3820 N   0  0  0  0  0  0  0  0  0  0  0  0
   56.3160   29.6870   44.1200 C   0  0  0  0  0  0  0  0  0  0  0  0
   56.9770   30.9680   43.6130 C   0  0  0  0  0  0  0  0  0  0  0  0
   57.0430   31.9720   44.6880 N   0  0  0  0  0  0  0  0  0  0  0  0
   58.0330   33.0310   44.4300 C   0  0  0  0  0  0  0  0  0  0  0  0
   58.8150   33.3900   45.6700 C   0  0  0  0  0  0  0  0  0  0  0  0
   58.5710   34.6070   46.3300 C   0  0  0  0  0  0  0  0  0  0  0  0
   59.2870   34.9370   47.4850 C   0  0  0  0  0  0  0  0  0  0  0  0
   60.2480   34.0570   47.9900 C   0  0  0  0  0  0  0  0  0  0  0  0
   60.4970   32.8450   47.3400 C   0  0  0  0  0  0  0  0  0  0  0  0
   59.7840   32.5110   46.1840 C   0  0  0  0  0  0  0  0  0  0  0  0
   59.7140   26.8850   46.1770 N   0  0  0  0  0  0  0  0  0  0  0  0
   60.3460   25.5710   46.0050 C   0  0  0  0  0  0  0  0  0  0  0  0
   59.9450   27.6500   47.3000 C   0  0  0  0  0  0  0  0  0  0  0  0
   60.7330   27.2240   48.1900 O   0  0  0  0  0  0  0  0  0  0  0  0
   59.3650   29.0416   49.5712 H   0  0  0  0  0  0  0  0  0  0  0  0
   60.6039   30.0044   48.6968 H   0  0  0  0  0  0  0  0  0  0  0  0
   58.8882   30.5365   48.6968 H   0  0  0  0  0  0  0  0  0  0  0  0
   56.9210   27.3480   42.7780 H   0  0  0  0  0  0  0  0  0  0  0  0
   55.6095   29.3213   43.3603 H   0  0  0  0  0  0  0  0  0  0  0  0
   55.7885   29.9115   45.0588 H   0  0  0  0  0  0  0  0  0  0  0  0
   57.9961   30.7382   43.2687 H   0  0  0  0  0  0  0  0  0  0  0  0
   56.3798   31.3731   42.7828 H   0  0  0  0  0  0  0  0  0  0  0  0
   57.2640   31.5000   45.5980 H   0  0  0  0  0  0  0  0  0  0  0  0
   58.7336   32.6813   43.6574 H   0  0  0  0  0  0  0  0  0  0  0  0
   57.4907   33.9290   44.0992 H   0  0  0  0  0  0  0  0  0  0  0  0
   57.8144   35.3019   45.9367 H   0  0  0  0  0  0  0  0  0  0  0  0
   59.0934   35.8911   47.9970 H   0  0  0  0  0  0  0  0  0  0  0  0
   60.8088   34.3183   48.8995 H   0  0  0  0  0  0  0  0  0  0  0  0
   61.2542   32.1534   47.7378 H   0  0  0  0  0  0  0  0  0  0  0  0
   59.9824   31.5563   45.6749 H   0  0  0  0  0  0  0  0  0  0  0  0
   60.5565   25.1334   46.9920 H   0  0  0  0  0  0  0  0  0  0  0  0
   59.6681   24.9083   45.4471 H   0  0  0  0  0  0  0  0  0  0  0  0
   61.2869   25.6869   45.4471 H   0  0  0  0  0  0  0  0  0  0  0  0
  1  2  1  0
  2  3  1  0
  3  4  2  0
  3  5  1  0
  5  6  2  0
  6  7  1  0
  7  8  2  0
  8  9  1  0
  9 10  1  0
 10 11  1  0
 11 12  1  0
 12 13  1  0
 13 14  1  0
 14 15  2  0
 15 16  1  0
 16 17  2  0
 17 18  1  0
 18 19  2  0
  6 20  1  0
 20 21  1  0
 20 22  1  0
 22 23  2  0
 22  2  1  0
  9  5  1  0
 19 14  1  0
  1 24  1  0
  1 25  1  0
  1 26  1  0
  8 27  1  0
 10 28  1  0
 10 29  1  0
 11 30  1  0
 11 31  1  0
 12 32  1  0
 13 33  1  0
 13 34  1  0
 15 35  1  0
 16 36  1  0
 17 37  1  0
 18 38  1  0
 19 39  1  0
 21 40  1  0
 21 41  1  0
 21 42  1  0
M  CHG  1   8   1
M  END
>  <UniqueID>  (58) 
52

>  <SMILES>  (58) 
Cn1c(=O)c2c(n[nH+]n2CCNCc2ccccc2)n(C)c1=O

>  <Energy>  (58) 
94.84982399236516

>  <Genealogy>  (58) 
Cn1c(=O)c2c(n[nH+]n2CCNCc2ccccc2)n(C)c1=O (protonated)
Cn1c(=O)c2c(n[nH+]n2CCNCc2ccccc2)n(C)c1=O (3D coordinates assigned)
Cn1c(=O)c2c(n[nH+]n2CCNCc2ccccc2)n(C)c1=O (optimized conformer: 94.84982399236516 kcal/mol)

>  <smiles>  (58) 
Cn1c(=O)c2c(nnn2CCNCc2ccccc2)n(C)c1=O

>  <score_type>  (58) 
oracle

>  <origin>  (58) 
adg

>  <m_score__min__energy>  (58) 
-6.4000000000000004

>  <m_primary>  (58) 
energy

$$$$
58:0
     RDKit          3D

 51 53  0  0  1  0  0  0  0  0999 V2000
   59.2970   35.4120   45.2270 C   0  0  0  0  0  0  0  0  0  0  0  0
   59.2410   34.2360   46.1630 C   0  0  0  0  0  0  0  0  0  0  0  0
   59.6880   34.3320   47.4620 C   0  0  0  0  0  0  0  0  0  0  0  0
   59.6110   33.2160   48.2700 C   0  0  0  0  0  0  0  0  0  0  0  0
   60.0760   33.3290   49.6100 N   0  0  0  0  0  0  0  0  0  0  0  0
   59.3600   33.1920   50.6570 C   0  0  0  0  0  0  0  0  0  0  0  0
   58.3440   32.3190   50.6150 N   0  0  0  0  0  0  0  0  0  0  0  0
   57.5550   32.1320   51.6880 C   0  0  0  0  0  0  0  0  0  0  0  0
   56.4170   31.1570   51.6460 C   0  0  0  0  0  0  0  0  0  0  0  0
   57.8260   32.8660   52.8300 C   0  0  0  0  0  0  0  0  0  0  0  0
   58.8940   33.7620   52.8270 C   0  0  0  0  0  0  0  0  0  0  0  0
   59.2560   34.7020   54.2620 Cl  0  0  0  0  0  0  0  0  0  0  0  0
   59.6710   33.9310   51.7370 N   0  0  0  0  0  0  0  0  0  0  0  0
   59.0900   32.0210   47.7710 C   0  0  0  0  0  0  0  0  0  0  0  0
   58.6380   31.9040   46.4750 C   0  0  0  0  0  0  0  0  0  0  0  0
   58.0870   30.6570   45.9320 C   0  0  0  0  0  0  0  0  0  0  0  0
   57.0760   30.7700   45.2050 O   0  0  0  0  0  0  0  0  0  0  0  0
   58.6430   29.3890   46.1980 N   0  0  0  0  0  0  0  0  0  0  0  0
   58.1880   28.1470   45.7250 C   0  0  0  0  0  0  0  0  0  0  0  0
   57.4280   27.2420   46.4190 C   0  0  0  0  0  0  0  0  0  0  0  0
   57.0160   26.0270   45.8720 C   0  0  0  0  0  0  0  0  0  0  0  0
   57.3640   25.6800   44.5850 C   0  0  0  0  0  0  0  0  0  0  0  0
   56.9700   24.4300   43.9520 C   0  0  0  0  0  0  0  0  0  0  0  0
   56.1310   24.4150   42.9980 O   0  0  0  0  0  0  0  0  0  0  0  0
   57.4840   23.1670   44.3470 N   0  0  0  0  0  0  0  0  0  0  0  0
   57.0870   21.9550   43.7170 C   0  0  0  0  0  0  0  0  0  0  0  0
   56.2300   22.0020   42.7510 N   0  0  0  0  0  0  0  0  0  0  0  0
   57.6360   20.7060   44.1550 N   0  0  0  0  0  0  0  0  0  0  0  0
   58.1250   26.5730   43.8750 C   0  0  0  0  0  0  0  0  0  0  0  0
   58.5270   27.7710   44.4210 C   0  0  0  0  0  0  0  0  0  0  0  0
   58.7310   33.0460   45.6900 C   0  0  0  0  0  0  0  0  0  0  0  0
   59.3414   36.3434   45.8106 H   0  0  0  0  0  0  0  0  0  0  0  0
   60.1924   35.3336   44.5929 H   0  0  0  0  0  0  0  0  0  0  0  0
   58.3982   35.4191   44.5929 H   0  0  0  0  0  0  0  0  0  0  0  0
   60.0975   35.2775   47.8471 H   0  0  0  0  0  0  0  0  0  0  0  0
   56.1166   30.8996   52.6724 H   0  0  0  0  0  0  0  0  0  0  0  0
   55.5653   31.6100   51.1174 H   0  0  0  0  0  0  0  0  0  0  0  0
   56.7341   30.2459   51.1174 H   0  0  0  0  0  0  0  0  0  0  0  0
   57.2054   32.7436   53.7300 H   0  0  0  0  0  0  0  0  0  0  0  0
   60.4710   34.5930   51.7120 H   0  0  0  0  0  0  0  0  0  0  0  0
   59.0387   31.1447   48.4339 H   0  0  0  0  0  0  0  0  0  0  0  0
   59.4930   29.3810   46.8190 H   0  0  0  0  0  0  0  0  0  0  0  0
   57.1307   27.4839   47.4501 H   0  0  0  0  0  0  0  0  0  0  0  0
   56.4063   25.3380   46.4750 H   0  0  0  0  0  0  0  0  0  0  0  0
   58.1750   23.0980   45.1220 H   0  0  0  0  0  0  0  0  0  0  0  0
   56.4480   22.5850   41.9140 H   0  0  0  0  0  0  0  0  0  0  0  0
   58.6490   20.5690   44.3490 H   0  0  0  0  0  0  0  0  0  0  0  0
   56.9910   19.8720   44.2940 H   0  0  0  0  0  0  0  0  0  0  0  0
   58.4212   26.3261   42.8448 H   0  0  0  0  0  0  0  0  0  0  0  0
   59.1352   28.4555   43.8115 H   0  0  0  0  0  0  0  0  0  0  0  0
   58.3832   32.9988   44.6475 H   0  0  0  0  0  0  0  0  0  0  0  0
  1  2  1  0
  2  3  2  0
  3  4  1  0
  4  5  1  0
  5  6  2  0
  6  7  1  0
  7  8  2  0
  8  9  1  0
  8 10  1  0
 10 11  2  0
 11 12  1  0
 11 13  1  0
  4 14  2  0
 14 15  1  0
 15 16  1  0
 16 17  2  0
 16 18  1  0
 18 19  1  0
 19 20  2  0
 20 21  1  0
 21 22  2  0
 22 23  1  0
 23 24  2  0
 23 25  1  0
 25 26  1  0
 26 27  2  3
 26 28  1  0
 22 29  1  0
 29 30  2  0
 15 31  2  0
 31  2  1  0
 13  6  1  0
 30 19  1  0
  1 32  1  0
  1 33  1  0
  1 34  1  0
  3 35  1  0
  9 36  1  0
  9 37  1  0
  9 38  1  0
 10 39  1  0
 13 40  1  0
 14 41  1  0
 18 42  1  0
 20 43  1  0
 21 44  1  0
 25 45  1  0
 27 46  1  0
 28 47  1  0
 28 48  1  0
 29 49  1  0
 30 50  1  0
 31 51  1  0
M  END
>  <smiles>  (59) 
Cc1cc(N=c2nc(C)cc(Cl)[nH]2)cc(C(=O)Nc2ccc(C(=O)NC(=N)N)cc2)c1

>  <score_type>  (59) 
oracle

>  <origin>  (59) 
adg

>  <m_score__min__energy>  (59) 
-9.6199999999999992

>  <m_primary>  (59) 
energy

$$$$
59:0
     RDKit          3D

 40 42  0  0  0  0  0  0  0  0999 V2000
   56.6250   31.2390   42.6920 O   0  0  0  0  0  0  0  0  0  0  0  0
   57.0920   30.7940   44.0490 S   0  0  0  0  0  0  0  0  0  0  0  0
   55.8900   30.4090   44.8660 O   0  0  0  0  0  0  0  0  0  0  0  0
   58.1260   29.4120   43.8770 N   0  0  0  0  0  0  0  0  0  0  0  0
   57.8390   28.1280   44.4590 C   0  0  0  0  0  0  0  0  0  0  0  0
   58.3800   26.9770   43.8780 C   0  0  0  0  0  0  0  0  0  0  0  0
   58.1310   25.7160   44.4240 C   0  0  0  0  0  0  0  0  0  0  0  0
   57.3170   25.5640   45.5720 C   0  0  0  0  0  0  0  0  0  0  0  0
   57.0560   24.2470   46.1480 N   0  0  0  0  0  0  0  0  0  0  0  0
   57.5780   23.0430   45.4690 C   0  0  0  0  0  0  0  0  0  0  0  0
   57.1640   21.7300   46.1410 C   0  0  0  0  0  0  0  0  0  0  0  0
   57.1770   21.8550   47.5430 O   0  0  0  0  0  0  0  0  0  0  0  0
   56.1290   22.7140   47.9200 C   0  0  0  0  0  0  0  0  0  0  0  0
   56.4070   24.1520   47.4750 C   0  0  0  0  0  0  0  0  0  0  0  0
   56.7710   26.7370   46.1430 C   0  0  0  0  0  0  0  0  0  0  0  0
   57.0240   27.9960   45.5920 C   0  0  0  0  0  0  0  0  0  0  0  0
   57.9730   32.1240   44.8110 C   0  0  0  0  0  0  0  0  0  0  0  0
   57.8910   33.4120   44.2560 C   0  0  0  0  0  0  0  0  0  0  0  0
   58.5620   34.4840   44.8520 C   0  0  0  0  0  0  0  0  0  0  0  0
   59.3220   34.2800   46.0030 C   0  0  0  0  0  0  0  0  0  0  0  0
   59.4170   33.0040   46.5610 C   0  0  0  0  0  0  0  0  0  0  0  0
   58.7480   31.9220   45.9740 C   0  0  0  0  0  0  0  0  0  0  0  0
   58.9360   30.2010   46.7990 Br  0  0  0  0  0  0  0  0  0  0  0  0
   59.0610   29.5720   43.4390 H   0  0  0  0  0  0  0  0  0  0  0  0
   59.0092   27.0658   42.9801 H   0  0  0  0  0  0  0  0  0  0  0  0
   58.5749   24.8260   43.9541 H   0  0  0  0  0  0  0  0  0  0  0  0
   57.2032   23.0373   44.4348 H   0  0  0  0  0  0  0  0  0  0  0  0
   58.6756   23.0969   45.5168 H   0  0  0  0  0  0  0  0  0  0  0  0
   56.1486   21.4626   45.8131 H   0  0  0  0  0  0  0  0  0  0  0  0
   57.8809   20.9472   45.8522 H   0  0  0  0  0  0  0  0  0  0  0  0
   55.1952   22.3677   47.4530 H   0  0  0  0  0  0  0  0  0  0  0  0
   56.0423   22.6985   49.0165 H   0  0  0  0  0  0  0  0  0  0  0  0
   55.4508   24.6943   47.4340 H   0  0  0  0  0  0  0  0  0  0  0  0
   57.1038   24.5869   48.2066 H   0  0  0  0  0  0  0  0  0  0  0  0
   56.1355   26.6568   47.0373 H   0  0  0  0  0  0  0  0  0  0  0  0
   56.5798   28.8914   46.0513 H   0  0  0  0  0  0  0  0  0  0  0  0
   57.2949   33.5781   43.3465 H   0  0  0  0  0  0  0  0  0  0  0  0
   58.4902   35.4897   44.4123 H   0  0  0  0  0  0  0  0  0  0  0  0
   59.8472   35.1253   46.4717 H   0  0  0  0  0  0  0  0  0  0  0  0
   60.0207   32.8471   47.4670 H   0  0  0  0  0  0  0  0  0  0  0  0
  1  2  2  0
  2  3  2  0
  2  4  1  0
  4  5  1  0
  5  6  2  0
  6  7  1  0
  7  8  2  0
  8  9  1  0
  9 10  1  0
 10 11  1  0
 11 12  1  0
 12 13  1  0
 13 14  1  0
  8 15  1  0
 15 16  2  0
  2 17  1  0
 17 18  2  0
 18 19  1  0
 19 20  2  0
 20 21  1  0
 21 22  2  0
 22 23  1  0
 16  5  1  0
 22 17  1  0
 14  9  1  0
  4 24  1  0
  6 25  1  0
  7 26  1  0
 10 27  1  0
 10 28  1  0
 11 29  1  0
 11 30  1  0
 13 31  1  0
 13 32  1  0
 14 33  1  0
 14 34  1  0
 15 35  1  0
 16 36  1  0
 18 37  1  0
 19 38  1  0
 20 39  1  0
 21 40  1  0
M  END
>  <UniqueID>  (60) 
53

>  <SMILES>  (60) 
O=S(=O)(Nc1ccc(N2CCOCC2)cc1)c1ccccc1Br

>  <Energy>  (60) 
53.53058980116863

>  <Genealogy>  (60) 
O=S(=O)(Nc1ccc(N2CCOCC2)cc1)c1ccccc1Br (3D coordinates assigned)
O=S(=O)(Nc1ccc(N2CCOCC2)cc1)c1ccccc1Br (nonaromatic ring conformer: 53.53058980116863 kcal/mol)

>  <smiles>  (60) 
O=S(=O)(Nc1ccc(N2CCOCC2)cc1)c1ccccc1Br

>  <score_type>  (60) 
oracle

>  <origin>  (60) 
adg

>  <m_score__min__energy>  (60) 
-8.5

>  <m_primary>  (60) 
energy

$$$$
60:0
     RDKit          3D

 48 51  0  0  0  0  0  0  0  0999 V2000
   56.0540   30.7240   44.4880 O   0  0  0  0  0  0  0  0  0  0  0  0
   56.5770   29.7310   45.0570 C   0  0  0  0  0  0  0  0  0  0  0  0
   55.8110   28.5860   45.2260 O   0  0  0  0  0  0  0  0  0  0  0  0
   57.9870   29.7830   45.5180 C   0  0  0  0  0  0  0  0  0  0  0  0
   58.5420   30.7350   46.3770 C   0  0  0  0  0  0  0  0  0  0  0  0
   57.8520   31.9220   47.0030 C   0  0  0  0  0  0  0  0  0  0  0  0
   58.4570   33.2480   46.5930 C   0  0  0  0  0  0  0  0  0  0  0  0
   58.4980   33.5870   45.2290 C   0  0  0  0  0  0  0  0  0  0  0  0
   59.0780   34.7890   44.8140 C   0  0  0  0  0  0  0  0  0  0  0  0
   59.6340   35.6600   45.7520 C   0  0  0  0  0  0  0  0  0  0  0  0
   59.6170   35.3280   47.1090 C   0  0  0  0  0  0  0  0  0  0  0  0
   59.0400   34.1270   47.5300 C   0  0  0  0  0  0  0  0  0  0  0  0
   59.8830   30.3740   46.4960 C   0  0  0  0  0  0  0  0  0  0  0  0
   60.9480   31.0500   47.2690 C   0  0  0  0  0  0  0  0  0  0  0  0
   61.2760   30.5800   48.5520 C   0  0  0  0  0  0  0  0  0  0  0  0
   62.2660   31.2170   49.3080 C   0  0  0  0  0  0  0  0  0  0  0  0
   62.9270   32.3350   48.7940 C   0  0  0  0  0  0  0  0  0  0  0  0
   62.5970   32.8210   47.5270 C   0  0  0  0  0  0  0  0  0  0  0  0
   61.6070   32.1870   46.7690 C   0  0  0  0  0  0  0  0  0  0  0  0
   60.1000   29.2780   45.7460 N   0  0  0  0  0  0  0  0  0  0  0  0
   58.9690   28.9140   45.1620 N   0  0  0  0  0  0  0  0  0  0  0  0
   58.8520   27.6890   44.3650 C   0  0  0  0  0  0  0  0  0  0  0  0
   58.1930   26.5910   45.1600 C   0  0  0  0  0  0  0  0  0  0  0  0
   58.2960   26.5690   46.5620 C   0  0  0  0  0  0  0  0  0  0  0  0
   57.6690   25.5580   47.2990 C   0  0  0  0  0  0  0  0  0  0  0  0
   56.9250   24.5720   46.6460 C   0  0  0  0  0  0  0  0  0  0  0  0
   56.8010   24.5980   45.2550 C   0  0  0  0  0  0  0  0  0  0  0  0
   57.4240   25.6060   44.5140 C   0  0  0  0  0  0  0  0  0  0  0  0
   56.7946   31.9116   46.7000 H   0  0  0  0  0  0  0  0  0  0  0  0
   57.9704   31.8317   48.0929 H   0  0  0  0  0  0  0  0  0  0  0  0
   58.0704   32.9010   44.4829 H   0  0  0  0  0  0  0  0  0  0  0  0
   59.0963   35.0491   43.7454 H   0  0  0  0  0  0  0  0  0  0  0  0
   60.0855   36.6076   45.4230 H   0  0  0  0  0  0  0  0  0  0  0  0
   60.0587   36.0133   47.8474 H   0  0  0  0  0  0  0  0  0  0  0  0
   59.0403   33.8653   48.5984 H   0  0  0  0  0  0  0  0  0  0  0  0
   60.7511   29.7058   48.9645 H   0  0  0  0  0  0  0  0  0  0  0  0
   62.5239   30.8372   50.3076 H   0  0  0  0  0  0  0  0  0  0  0  0
   63.7079   32.8329   49.3875 H   0  0  0  0  0  0  0  0  0  0  0  0
   63.1162   33.7034   47.1247 H   0  0  0  0  0  0  0  0  0  0  0  0
   61.3425   32.5801   45.7763 H   0  0  0  0  0  0  0  0  0  0  0  0
   61.0060   28.7650   45.6580 H   0  0  0  0  0  0  0  0  0  0  0  0
   58.2477   27.8980   43.4699 H   0  0  0  0  0  0  0  0  0  0  0  0
   59.8613   27.3583   44.0786 H   0  0  0  0  0  0  0  0  0  0  0  0
   58.8715   27.3493   47.0815 H   0  0  0  0  0  0  0  0  0  0  0  0
   57.7621   25.5396   48.3949 H   0  0  0  0  0  0  0  0  0  0  0  0
   56.4371   23.7756   47.2271 H   0  0  0  0  0  0  0  0  0  0  0  0
   56.2119   23.8237   44.7418 H   0  0  0  0  0  0  0  0  0  0  0  0
   57.3124   25.6293   43.4199 H   0  0  0  0  0  0  0  0  0  0  0  0
  1  2  2  0
  2  3  1  0
  2  4  1  0
  4  5  2  0
  5  6  1  0
  6  7  1  0
  7  8  2  0
  8  9  1  0
  9 10  2  0
 10 11  1  0
 11 12  2  0
  5 13  1  0
 13 14  1  0
 14 15  2  0
 15 16  1  0
 16 17  2  0
 17 18  1  0
 18 19  2  0
 13 20  2  0
 20 21  1  0
 21 22  1  0
 22 23  1  0
 23 24  2  0
 24 25  1  0
 25 26  2  0
 26 27  1  0
 27 28  2  0
 21  4  1  0
 28 23  1  0
 12  7  1  0
 19 14  1  0
  6 29  1  0
  6 30  1  0
  8 31  1  0
  9 32  1  0
 10 33  1  0
 11 34  1  0
 12 35  1  0
 15 36  1  0
 16 37  1  0
 17 38  1  0
 18 39  1  0
 19 40  1  0
 20 41  1  0
 22 42  1  0
 22 43  1  0
 24 44  1  0
 25 45  1  0
 26 46  1  0
 27 47  1  0
 28 48  1  0
M  CHG  2   3  -1  20   1
M  END
>  <UniqueID>  (61) 
54

>  <SMILES>  (61) 
O=C([O-])c1c(Cc2ccccc2)c(-c2ccccc2)[nH+]n1Cc1ccccc1

>  <Energy>  (61) 
89.96275441430956

>  <Genealogy>  (61) 
O=C([O-])c1c(Cc2ccccc2)c(-c2ccccc2)[nH+]n1Cc1ccccc1 (protonated)
O=C([O-])c1c(Cc2ccccc2)c(-c2ccccc2)[nH+]n1Cc1ccccc1 (3D coordinates assigned)
O=C([O-])c1c(Cc2ccccc2)c(-c2ccccc2)[nH+]n1Cc1ccccc1 (optimized conformer: 89.96275441430956 kcal/mol)

>  <smiles>  (61) 
O=C(O)c1c(Cc2ccccc2)c(-c2ccccc2)nn1Cc1ccccc1

>  <score_type>  (61) 
oracle

>  <origin>  (61) 
adg

>  <m_score__min__energy>  (61) 
-9.3900000000000006

>  <m_primary>  (61) 
energy

$$$$
61:0
     RDKit          3D

 52 54  0  0  0  0  0  0  0  0999 V2000
   51.4010   31.9350   50.4660 C   0  0  0  0  0  0  0  0  0  0  0  0
   52.1390   31.6200   51.5390 C   0  0  0  0  0  0  0  0  0  0  0  0
   52.8240   30.2860   51.6690 C   0  0  0  0  0  0  0  0  0  0  0  0
   53.4260   30.1510   52.9930 N   0  0  0  0  0  0  0  0  0  0  0  0
   54.7310   29.6240   53.2670 C   0  0  0  0  0  0  0  0  0  0  0  0
   54.8330   28.6160   54.0160 O   0  0  0  0  0  0  0  0  0  0  0  0
   55.9540   30.2030   52.6760 C   0  0  0  0  0  0  0  0  0  0  0  0
   57.0890   29.4120   52.4530 C   0  0  0  0  0  0  0  0  0  0  0  0
   58.2430   29.9730   51.8980 C   0  0  0  0  0  0  0  0  0  0  0  0
   58.2820   31.3340   51.5630 C   0  0  0  0  0  0  0  0  0  0  0  0
   59.4720   31.8820   50.9710 N   0  0  0  0  0  0  0  0  0  0  0  0
   59.6530   33.2770   50.6790 C   0  0  0  0  0  0  0  0  0  0  0  0
   58.9100   34.1480   51.2110 O   0  0  0  0  0  0  0  0  0  0  0  0
   60.7520   33.7120   49.7580 C   0  0  0  0  0  0  0  0  0  0  0  0
   60.2790   33.6650   48.3400 C   0  0  0  0  0  0  0  0  0  0  0  0
   60.9740   34.1530   47.2370 C   0  0  0  0  0  0  0  0  0  0  0  0
   60.2430   34.0630   46.0470 C   0  0  0  0  0  0  0  0  0  0  0  0
   58.9780   33.5170   46.2250 C   0  0  0  0  0  0  0  0  0  0  0  0
   57.7800   33.2750   44.9610 S   0  0  0  0  0  0  0  0  0  0  0  0
   58.4360   33.4740   43.6220 O   0  0  0  0  0  0  0  0  0  0  0  0
   56.6990   34.3090   45.1110 O   0  0  0  0  0  0  0  0  0  0  0  0
   57.0680   31.6820   45.0320 N   0  0  0  0  0  0  0  0  0  0  0  0
   58.0020   30.7280   45.6540 C   0  0  0  0  0  0  0  0  0  0  0  0
   57.3790   29.3150   45.6800 C   0  0  0  0  0  0  0  0  0  0  0  0
   56.1050   29.2830   45.0590 O   0  0  0  0  0  0  0  0  0  0  0  0
   56.2050   29.7560   43.7290 C   0  0  0  0  0  0  0  0  0  0  0  0
   56.7030   31.2170   43.6830 C   0  0  0  0  0  0  0  0  0  0  0  0
   58.7550   33.1430   47.8490 S   0  0  0  0  0  0  0  0  0  0  0  0
   57.1290   32.1180   51.7510 C   0  0  0  0  0  0  0  0  0  0  0  0
   55.9760   31.5540   52.3020 C   0  0  0  0  0  0  0  0  0  0  0  0
   50.9139   32.9193   50.4032 H   0  0  0  0  0  0  0  0  0  0  0  0
   51.2822   31.2093   49.6479 H   0  0  0  0  0  0  0  0  0  0  0  0
   52.2474   32.3573   52.3481 H   0  0  0  0  0  0  0  0  0  0  0  0
   52.0860   29.4835   51.5226 H   0  0  0  0  0  0  0  0  0  0  0  0
   53.6149   30.2147   50.9079 H   0  0  0  0  0  0  0  0  0  0  0  0
   57.0719   28.3440   52.7160 H   0  0  0  0  0  0  0  0  0  0  0  0
   59.1269   29.3421   51.7228 H   0  0  0  0  0  0  0  0  0  0  0  0
   60.2760   31.2370   50.7900 H   0  0  0  0  0  0  0  0  0  0  0  0
   61.0515   34.7404   50.0083 H   0  0  0  0  0  0  0  0  0  0  0  0
   61.6108   33.0347   49.8750 H   0  0  0  0  0  0  0  0  0  0  0  0
   61.9918   34.5663   47.2947 H   0  0  0  0  0  0  0  0  0  0  0  0
   60.6303   34.3909   45.0710 H   0  0  0  0  0  0  0  0  0  0  0  0
   58.9363   30.7030   45.0740 H   0  0  0  0  0  0  0  0  0  0  0  0
   58.2100   31.0486   46.6855 H   0  0  0  0  0  0  0  0  0  0  0  0
   58.0493   28.6219   45.1505 H   0  0  0  0  0  0  0  0  0  0  0  0
   57.2508   29.0203   46.7320 H   0  0  0  0  0  0  0  0  0  0  0  0
   56.9118   29.1200   43.1758 H   0  0  0  0  0  0  0  0  0  0  0  0
   55.2045   29.7183   43.2735 H   0  0  0  0  0  0  0  0  0  0  0  0
   57.5849   31.2781   43.0284 H   0  0  0  0  0  0  0  0  0  0  0  0
   55.8959   31.8551   43.2938 H   0  0  0  0  0  0  0  0  0  0  0  0
   57.1355   33.1796   51.4629 H   0  0  0  0  0  0  0  0  0  0  0  0
   55.0787   32.1744   52.4435 H   0  0  0  0  0  0  0  0  0  0  0  0
  1  2  2  0
  2  3  1  0
  3  4  1  0
  4  5  1  0
  5  6  2  0
  5  7  1  0
  7  8  2  0
  8  9  1  0
  9 10  2  0
 10 11  1  0
 11 12  1  0
 12 13  2  0
 12 14  1  0
 14 15  1  0
 15 16  2  0
 16 17  1  0
 17 18  2  0
 18 19  1  0
 19 20  2  0
 19 21  2  0
 19 22  1  0
 22 23  1  0
 23 24  1  0
 24 25  1  0
 25 26  1  0
 26 27  1  0
 18 28  1  0
 10 29  1  0
 29 30  2  0
 30  7  1  0
 28 15  1  0
 27 22  1  0
  1 31  1  0
  1 32  1  0
  2 33  1  0
  3 34  1  0
  3 35  1  0
  8 36  1  0
  9 37  1  0
 11 38  1  0
 14 39  1  0
 14 40  1  0
 16 41  1  0
 17 42  1  0
 23 43  1  0
 23 44  1  0
 24 45  1  0
 24 46  1  0
 26 47  1  0
 26 48  1  0
 27 49  1  0
 27 50  1  0
 29 51  1  0
 30 52  1  0
M  CHG  1   4  -1
M  END
>  <UniqueID>  (62) 
55

>  <SMILES>  (62) 
C=CC[N-]C(=O)c1ccc(NC(=O)Cc2ccc(S(=O)(=O)N3CCOCC3)s2)cc1

>  <Energy>  (62) 
87.29640125229889

>  <Genealogy>  (62) 
C=CC[N-]C(=O)c1ccc(NC(=O)Cc2ccc(S(=O)(=O)N3CCOCC3)s2)cc1 (protonated)
C=CC[N-]C(=O)c1ccc(NC(=O)Cc2ccc(S(=O)(=O)N3CCOCC3)s2)cc1 (3D coordinates assigned)
C=CC[N-]C(=O)c1ccc(NC(=O)Cc2ccc(S(=O)(=O)N3CCOCC3)s2)cc1 (nonaromatic ring conformer: 87.29640125229889 kcal/mol)

>  <smiles>  (62) 
C=CCNC(=O)c1ccc(NC(=O)Cc2ccc(S(=O)(=O)N3CCOCC3)s2)cc1

>  <score_type>  (62) 
oracle

>  <origin>  (62) 
adg

>  <m_score__min__energy>  (62) 
-10.699999999999999

>  <m_primary>  (62) 
energy

$$$$
62:0
     RDKit          3D

 35 36  0  0  0  0  0  0  0  0999 V2000
   57.2170   23.8040   44.7070 C   0  0  0  0  0  0  0  0  0  0  0  0
   55.9240   24.3890   44.3300 N   0  0  0  0  0  0  0  0  0  0  0  0
   55.0620   23.3620   43.7320 C   0  0  0  0  0  0  0  0  0  0  0  0
   55.1490   25.0390   45.7520 S   0  0  0  0  0  0  0  0  0  0  0  0
   55.5160   24.2190   46.9580 O   0  0  0  0  0  0  0  0  0  0  0  0
   53.6580   25.0170   45.5580 O   0  0  0  0  0  0  0  0  0  0  0  0
   55.6680   26.6780   45.9840 N   0  0  0  0  0  0  0  0  0  0  0  0
   57.0200   27.0920   46.2230 C   0  0  0  0  0  0  0  0  0  0  0  0
   57.9850   26.2190   46.7540 C   0  0  0  0  0  0  0  0  0  0  0  0
   59.2870   26.6700   46.9870 C   0  0  0  0  0  0  0  0  0  0  0  0
   59.6380   27.9880   46.6870 C   0  0  0  0  0  0  0  0  0  0  0  0
   58.6930   28.8660   46.1360 C   0  0  0  0  0  0  0  0  0  0  0  0
   59.0730   30.2250   45.8550 N   0  0  0  0  0  0  0  0  0  0  0  0
   58.1440   31.2470   45.4580 C   0  0  0  0  0  0  0  0  0  0  0  0
   57.0120   30.9310   45.0010 O   0  0  0  0  0  0  0  0  0  0  0  0
   58.5110   32.6720   45.5330 C   0  0  0  0  0  0  0  0  0  0  0  0
   58.4520   33.6040   44.5010 C   0  0  0  0  0  0  0  0  0  0  0  0
   58.8870   34.8790   44.8820 C   0  0  0  0  0  0  0  0  0  0  0  0
   59.2940   34.9600   46.2060 C   0  0  0  0  0  0  0  0  0  0  0  0
   59.1130   33.4410   46.9040 S   0  0  0  0  0  0  0  0  0  0  0  0
   57.3780   28.4130   45.9240 C   0  0  0  0  0  0  0  0  0  0  0  0
   57.2973   23.7677   45.8035 H   0  0  0  0  0  0  0  0  0  0  0  0
   57.2909   22.7848   44.3000 H   0  0  0  0  0  0  0  0  0  0  0  0
   58.0314   24.4213   44.3000 H   0  0  0  0  0  0  0  0  0  0  0  0
   54.5751   22.7819   44.5298 H   0  0  0  0  0  0  0  0  0  0  0  0
   54.2946   23.8447   43.1091 H   0  0  0  0  0  0  0  0  0  0  0  0
   55.6704   22.6899   43.1091 H   0  0  0  0  0  0  0  0  0  0  0  0
   57.7148   25.1784   46.9867 H   0  0  0  0  0  0  0  0  0  0  0  0
   60.0376   25.9849   47.4079 H   0  0  0  0  0  0  0  0  0  0  0  0
   60.6615   28.3396   46.8839 H   0  0  0  0  0  0  0  0  0  0  0  0
   60.0920   30.4510   45.8370 H   0  0  0  0  0  0  0  0  0  0  0  0
   58.0989   33.3629   43.4875 H   0  0  0  0  0  0  0  0  0  0  0  0
   58.9045   35.7377   44.1948 H   0  0  0  0  0  0  0  0  0  0  0  0
   59.6700   35.8617   46.7115 H   0  0  0  0  0  0  0  0  0  0  0  0
   56.6231   29.1032   45.5193 H   0  0  0  0  0  0  0  0  0  0  0  0
  1  2  1  0
  2  3  1  0
  2  4  1  0
  4  5  2  0
  4  6  2  0
  4  7  1  0
  7  8  1  0
  8  9  2  0
  9 10  1  0
 10 11  2  0
 11 12  1  0
 12 13  1  0
 13 14  1  0
 14 15  2  0
 14 16  1  0
 16 17  2  0
 17 18  1  0
 18 19  2  0
 19 20  1  0
 12 21  2  0
 21  8  1  0
 20 16  1  0
  1 22  1  0
  1 23  1  0
  1 24  1  0
  3 25  1  0
  3 26  1  0
  3 27  1  0
  9 28  1  0
 10 29  1  0
 11 30  1  0
 13 31  1  0
 17 32  1  0
 18 33  1  0
 19 34  1  0
 21 35  1  0
M  CHG  1   7  -1
M  END
>  <UniqueID>  (63) 
56

>  <SMILES>  (63) 
CN(C)S(=O)(=O)[N-]c1cccc(NC(=O)c2cccs2)c1

>  <Energy>  (63) 
63.862908086174755

>  <Genealogy>  (63) 
CN(C)S(=O)(=O)[N-]c1cccc(NC(=O)c2cccs2)c1 (protonated)
CN(C)S(=O)(=O)[N-]c1cccc(NC(=O)c2cccs2)c1 (3D coordinates assigned)
CN(C)S(=O)(=O)[N-]c1cccc(NC(=O)c2cccs2)c1 (optimized conformer: 63.862908086174755 kcal/mol)

>  <smiles>  (63) 
CN(C)S(=O)(=O)Nc1cccc(NC(=O)c2cccs2)c1

>  <score_type>  (63) 
oracle

>  <origin>  (63) 
adg

>  <m_score__min__energy>  (63) 
-9.4000000000000004

>  <m_primary>  (63) 
energy

$$$$
63:0
     RDKit          3D

 50 53  0  0  0  0  0  0  0  0999 V2000
   58.9010   34.0130   52.0520 C   0  0  0  0  0  0  0  0  0  0  0  0
   59.2730   33.8080   50.5880 C   0  0  0  0  0  0  0  0  0  0  0  0
   59.7900   32.4120   50.3610 C   0  0  0  0  0  0  0  0  0  0  0  0
   58.9780   31.3020   50.6370 C   0  0  0  0  0  0  0  0  0  0  0  0
   59.4480   30.0080   50.3990 C   0  0  0  0  0  0  0  0  0  0  0  0
   60.7240   29.8030   49.8590 C   0  0  0  0  0  0  0  0  0  0  0  0
   61.1740   28.4560   49.6520 N   0  0  0  0  0  0  0  0  0  0  0  0
   60.4150   27.3790   49.0830 C   0  0  0  0  0  0  0  0  0  0  0  0
   60.3920   26.2530   49.6510 O   0  0  0  0  0  0  0  0  0  0  0  0
   59.7020   27.5730   47.7980 C   0  0  0  0  0  0  0  0  0  0  0  0
   58.3800   27.1190   47.6400 C   0  0  0  0  0  0  0  0  0  0  0  0
   57.7040   27.3030   46.4320 C   0  0  0  0  0  0  0  0  0  0  0  0
   58.3350   27.9480   45.3510 C   0  0  0  0  0  0  0  0  0  0  0  0
   57.6720   28.1510   44.0900 N   0  0  0  0  0  0  0  0  0  0  0  0
   56.5550   29.4410   43.7710 S   0  0  0  0  0  0  0  0  0  0  0  0
   55.4780   29.4240   44.8180 O   0  0  0  0  0  0  0  0  0  0  0  0
   55.9310   29.2170   42.4220 O   0  0  0  0  0  0  0  0  0  0  0  0
   57.3790   31.0050   43.8300 C   0  0  0  0  0  0  0  0  0  0  0  0
   57.5480   31.7400   42.6480 C   0  0  0  0  0  0  0  0  0  0  0  0
   58.1880   32.9790   42.6670 C   0  0  0  0  0  0  0  0  0  0  0  0
   58.6780   33.5010   43.8650 C   0  0  0  0  0  0  0  0  0  0  0  0
   58.5320   32.7760   45.0600 C   0  0  0  0  0  0  0  0  0  0  0  0
   59.0180   33.2530   46.2910 C   0  0  0  0  0  0  0  0  0  0  0  0
   59.6070   34.3650   46.3680 O   0  0  0  0  0  0  0  0  0  0  0  0
   58.8550   32.5070   47.4140 N   0  0  0  0  0  0  0  0  0  0  0  0
   58.2300   31.3030   47.3760 C   0  0  0  0  0  0  0  0  0  0  0  0
   57.7510   30.8210   46.2010 N   0  0  0  0  0  0  0  0  0  0  0  0
   57.8810   31.5210   45.0420 C   0  0  0  0  0  0  0  0  0  0  0  0
   59.6530   28.4000   45.5100 C   0  0  0  0  0  0  0  0  0  0  0  0
   60.3300   28.2160   46.7190 C   0  0  0  0  0  0  0  0  0  0  0  0
   61.5440   30.9130   49.5940 C   0  0  0  0  0  0  0  0  0  0  0  0
   61.0750   32.2090   49.8320 C   0  0  0  0  0  0  0  0  0  0  0  0
   59.6839   33.5816   52.6931 H   0  0  0  0  0  0  0  0  0  0  0  0
   58.8088   35.0893   52.2597 H   0  0  0  0  0  0  0  0  0  0  0  0
   57.9419   33.5161   52.2597 H   0  0  0  0  0  0  0  0  0  0  0  0
   58.3823   33.9693   49.9630 H   0  0  0  0  0  0  0  0  0  0  0  0
   60.0623   34.5256   50.3197 H   0  0  0  0  0  0  0  0  0  0  0  0
   57.9665   31.4510   51.0427 H   0  0  0  0  0  0  0  0  0  0  0  0
   58.8110   29.1435   50.6375 H   0  0  0  0  0  0  0  0  0  0  0  0
   57.8738   26.6142   48.4760 H   0  0  0  0  0  0  0  0  0  0  0  0
   56.6708   26.9413   46.3241 H   0  0  0  0  0  0  0  0  0  0  0  0
   57.8640   27.4890   43.3040 H   0  0  0  0  0  0  0  0  0  0  0  0
   57.1722   31.3355   41.6966 H   0  0  0  0  0  0  0  0  0  0  0  0
   58.3072   33.5477   41.7330 H   0  0  0  0  0  0  0  0  0  0  0  0
   59.1787   34.4804   43.8739 H   0  0  0  0  0  0  0  0  0  0  0  0
   58.1114   30.7166   48.2991 H   0  0  0  0  0  0  0  0  0  0  0  0
   60.1596   28.9048   44.6742 H   0  0  0  0  0  0  0  0  0  0  0  0
   61.3632   28.5779   46.8261 H   0  0  0  0  0  0  0  0  0  0  0  0
   62.5590   30.7620   49.1977 H   0  0  0  0  0  0  0  0  0  0  0  0
   61.7158   33.0735   49.6037 H   0  0  0  0  0  0  0  0  0  0  0  0
  1  2  1  0
  2  3  1  0
  3  4  2  0
  4  5  1  0
  5  6  2  0
  6  7  1  0
  7  8  1  0
  8  9  2  0
  8 10  1  0
 10 11  2  0
 11 12  1  0
 12 13  2  0
 13 14  1  0
 14 15  1  0
 15 16  2  0
 15 17  2  0
 15 18  1  0
 18 19  2  0
 19 20  1  0
 20 21  2  0
 21 22  1  0
 22 23  1  0
 23 24  2  0
 23 25  1  0
 25 26  1  0
 26 27  2  0
 27 28  1  0
 13 29  1  0
 29 30  2  0
  6 31  1  0
 31 32  2  0
 32  3  1  0
 30 10  1  0
 28 18  1  0
 28 22  2  0
  1 33  1  0
  1 34  1  0
  1 35  1  0
  2 36  1  0
  2 37  1  0
  4 38  1  0
  5 39  1  0
 11 40  1  0
 12 41  1  0
 14 42  1  0
 19 43  1  0
 20 44  1  0
 21 45  1  0
 26 46  1  0
 29 47  1  0
 30 48  1  0
 31 49  1  0
 32 50  1  0
M  CHG  2   7  -1  25  -1
M  END
>  <UniqueID>  (64) 
57

>  <SMILES>  (64) 
CCc1ccc([N-]C(=O)c2ccc(NS(=O)(=O)c3cccc4c(=O)[n-]cnc34)cc2)cc1

>  <Energy>  (64) 
64.6702798973844

>  <Genealogy>  (64) 
CCc1ccc([N-]C(=O)c2ccc(NS(=O)(=O)c3cccc4c(=O)[n-]cnc34)cc2)cc1 (protonated)
CCc1ccc([N-]C(=O)c2ccc(NS(=O)(=O)c3cccc4c(=O)[n-]cnc34)cc2)cc1 (3D coordinates assigned)
CCc1ccc([N-]C(=O)c2ccc(NS(=O)(=O)c3cccc4c(=O)[n-]cnc34)cc2)cc1 (optimized conformer: 64.6702798973844 kcal/mol)

>  <smiles>  (64) 
CCc1ccc(NC(=O)c2ccc(NS(=O)(=O)c3cccc4c(=O)[nH]cnc34)cc2)cc1

>  <score_type>  (64) 
oracle

>  <origin>  (64) 
adg

>  <m_score__min__energy>  (64) 
-12.380000000000001

>  <m_primary>  (64) 
energy

$$$$
64:0
     RDKit          3D

 52 54  0  0  0  0  0  0  0  0999 V2000
   57.7820   28.4190   43.7300 C   0  0  0  0  0  0  0  0  0  0  0  0
   56.5570   29.5730   43.0430 S   0  0  0  0  0  0  0  0  0  0  0  0
   57.2510   30.9930   43.8860 C   0  0  0  0  0  0  0  0  0  0  0  0
   57.7800   32.0570   43.1590 C   0  0  0  0  0  0  0  0  0  0  0  0
   58.3070   33.1440   43.8540 C   0  0  0  0  0  0  0  0  0  0  0  0
   58.2980   33.1640   45.2220 N   0  0  0  0  0  0  0  0  0  0  0  0
   58.8680   34.3230   45.9300 C   0  0  0  0  0  0  0  0  0  0  0  0
   59.8780   33.9000   47.0100 C   0  0  0  0  0  0  0  0  0  0  0  0
   61.0380   33.0450   46.4690 C   0  0  0  0  0  0  0  0  0  0  0  0
   61.3800   31.9330   47.3720 N   0  0  0  0  0  0  0  0  0  0  0  0
   62.5310   32.0370   48.2740 C   0  0  0  0  0  0  0  0  0  0  0  0
   60.7310   30.6540   47.2390 C   0  0  0  0  0  0  0  0  0  0  0  0
   60.7800   29.9480   46.0260 C   0  0  0  0  0  0  0  0  0  0  0  0
   60.1530   28.7050   45.9050 C   0  0  0  0  0  0  0  0  0  0  0  0
   59.4530   28.1590   46.9900 C   0  0  0  0  0  0  0  0  0  0  0  0
   58.7730   26.8600   46.8450 C   0  0  0  0  0  0  0  0  0  0  0  0
   59.4380   25.8580   46.4740 O   0  0  0  0  0  0  0  0  0  0  0  0
   57.3650   26.7110   47.0740 N   0  0  0  0  0  0  0  0  0  0  0  0
   56.3360   26.7090   46.0350 C   0  0  0  0  0  0  0  0  0  0  0  0
   56.3360   25.4080   45.2940 C   0  0  0  0  0  0  0  0  0  0  0  0
   55.4660   24.3460   45.5060 C   0  0  0  0  0  0  0  0  0  0  0  0
   55.7370   23.2420   44.6880 C   0  0  0  0  0  0  0  0  0  0  0  0
   56.8140   23.4320   43.8320 C   0  0  0  0  0  0  0  0  0  0  0  0
   57.4290   24.9740   44.0940 S   0  0  0  0  0  0  0  0  0  0  0  0
   59.4150   28.8540   48.2080 C   0  0  0  0  0  0  0  0  0  0  0  0
   60.0530   30.0910   48.3310 C   0  0  0  0  0  0  0  0  0  0  0  0
   57.7870   32.0940   45.9120 C   0  0  0  0  0  0  0  0  0  0  0  0
   57.7950   32.0760   47.1730 O   0  0  0  0  0  0  0  0  0  0  0  0
   57.2720   31.0300   45.2420 N   0  0  0  0  0  0  0  0  0  0  0  0
   57.7438   28.4550   44.8287 H   0  0  0  0  0  0  0  0  0  0  0  0
   57.5559   27.3981   43.3885 H   0  0  0  0  0  0  0  0  0  0  0  0
   58.7876   28.7056   43.3885 H   0  0  0  0  0  0  0  0  0  0  0  0
   57.7817   32.0396   42.0591 H   0  0  0  0  0  0  0  0  0  0  0  0
   58.7334   33.9923   43.2985 H   0  0  0  0  0  0  0  0  0  0  0  0
   59.3783   34.9689   45.2003 H   0  0  0  0  0  0  0  0  0  0  0  0
   58.0439   34.8563   46.4264 H   0  0  0  0  0  0  0  0  0  0  0  0
   60.2989   34.8078   47.4669 H   0  0  0  0  0  0  0  0  0  0  0  0
   59.3322   33.2800   47.7364 H   0  0  0  0  0  0  0  0  0  0  0  0
   60.7470   32.6311   45.4923 H   0  0  0  0  0  0  0  0  0  0  0  0
   61.9226   33.6932   46.3827 H   0  0  0  0  0  0  0  0  0  0  0  0
   62.1834   32.0056   49.3172 H   0  0  0  0  0  0  0  0  0  0  0  0
   63.2175   31.1972   48.0908 H   0  0  0  0  0  0  0  0  0  0  0  0
   63.0558   32.9862   48.0908 H   0  0  0  0  0  0  0  0  0  0  0  0
   61.3153   30.3761   45.1657 H   0  0  0  0  0  0  0  0  0  0  0  0
   60.2089   28.1531   44.9551 H   0  0  0  0  0  0  0  0  0  0  0  0
   55.3512   26.8590   46.5016 H   0  0  0  0  0  0  0  0  0  0  0  0
   56.5488   27.5212   45.3244 H   0  0  0  0  0  0  0  0  0  0  0  0
   54.6480   24.3697   46.2411 H   0  0  0  0  0  0  0  0  0  0  0  0
   55.1515   22.3113   44.7205 H   0  0  0  0  0  0  0  0  0  0  0  0
   57.1984   22.6993   43.1072 H   0  0  0  0  0  0  0  0  0  0  0  0
   58.8815   28.4240   49.0685 H   0  0  0  0  0  0  0  0  0  0  0  0
   60.0236   30.6274   49.2909 H   0  0  0  0  0  0  0  0  0  0  0  0
  1  2  1  0
  2  3  1  0
  3  4  1  0
  4  5  2  0
  5  6  1  0
  6  7  1  0
  7  8  1  0
  8  9  1  0
  9 10  1  0
 10 11  1  0
 10 12  1  0
 12 13  2  0
 13 14  1  0
 14 15  2  0
 15 16  1  0
 16 17  2  0
 16 18  1  0
 18 19  1  0
 19 20  1  0
 20 21  2  0
 21 22  1  0
 22 23  2  0
 23 24  1  0
 15 25  1  0
 25 26  2  0
  6 27  1  0
 27 28  2  0
 27 29  1  0
 29  3  2  0
 26 12  1  0
 24 20  1  0
  1 30  1  0
  1 31  1  0
  1 32  1  0
  4 33  1  0
  5 34  1  0
  7 35  1  0
  7 36  1  0
  8 37  1  0
  8 38  1  0
  9 39  1  0
  9 40  1  0
 11 41  1  0
 11 42  1  0
 11 43  1  0
 13 44  1  0
 14 45  1  0
 19 46  1  0
 19 47  1  0
 21 48  1  0
 22 49  1  0
 23 50  1  0
 25 51  1  0
 26 52  1  0
M  CHG  1  18  -1
M  END
>  <UniqueID>  (65) 
58

>  <SMILES>  (65) 
CSc1ccn(CCCN(C)c2ccc(C(=O)[N-]Cc3cccs3)cc2)c(=O)n1

>  <Energy>  (65) 
74.77820055524617

>  <Genealogy>  (65) 
CSc1ccn(CCCN(C)c2ccc(C(=O)[N-]Cc3cccs3)cc2)c(=O)n1 (protonated)
CSc1ccn(CCCN(C)c2ccc(C(=O)[N-]Cc3cccs3)cc2)c(=O)n1 (3D coordinates assigned)
CSc1ccn(CCCN(C)c2ccc(C(=O)[N-]Cc3cccs3)cc2)c(=O)n1 (optimized conformer: 74.77820055524617 kcal/mol)

>  <smiles>  (65) 
CSc1ccn(CCCN(C)c2ccc(C(=O)NCc3cccs3)cc2)c(=O)n1

>  <score_type>  (65) 
oracle

>  <origin>  (65) 
adg

>  <m_score__min__energy>  (65) 
-10.609999999999999

>  <m_primary>  (65) 
energy

$$$$
65:0
     RDKit          3D

 54 57  0  0  0  0  0  0  0  0999 V2000
   56.6950   31.0510   44.7820 O   0  0  0  0  0  0  0  0  0  0  0  0
   57.9410   31.2440   44.7520 C   0  0  0  0  0  0  0  0  0  0  0  0
   58.4690   32.5650   44.2750 C   0  0  0  0  0  0  0  0  0  0  0  0
   57.7980   33.6920   44.9620 N   0  0  0  0  0  0  0  0  0  0  0  0
   58.5950   34.9460   44.8800 C   0  0  0  0  0  0  0  0  0  0  0  0
   59.3470   35.2990   46.1800 C   0  0  0  0  0  0  0  0  0  0  0  0
   59.6790   34.0830   46.9280 N   0  0  0  0  0  0  0  0  0  0  0  0
   61.0280   33.8170   47.3590 C   0  0  0  0  0  0  0  0  0  0  0  0
   62.0820   33.7930   46.4300 C   0  0  0  0  0  0  0  0  0  0  0  0
   63.3930   33.5460   46.8530 C   0  0  0  0  0  0  0  0  0  0  0  0
   63.6620   33.3310   48.2060 C   0  0  0  0  0  0  0  0  0  0  0  0
   64.9340   33.0940   48.6140 F   0  0  0  0  0  0  0  0  0  0  0  0
   62.6220   33.3650   49.1400 C   0  0  0  0  0  0  0  0  0  0  0  0
   61.3110   33.6080   48.7210 C   0  0  0  0  0  0  0  0  0  0  0  0
   58.5980   33.1540   47.2720 C   0  0  0  0  0  0  0  0  0  0  0  0
   57.3860   33.3700   46.3500 C   0  0  0  0  0  0  0  0  0  0  0  0
   58.8500   30.2350   45.2140 N   0  0  0  0  0  0  0  0  0  0  0  0
   58.5060   28.8470   45.3690 C   0  0  0  0  0  0  0  0  0  0  0  0
   58.4000   27.9870   44.2610 C   0  0  0  0  0  0  0  0  0  0  0  0
   58.0920   26.6350   44.4410 C   0  0  0  0  0  0  0  0  0  0  0  0
   57.8910   26.1210   45.7350 C   0  0  0  0  0  0  0  0  0  0  0  0
   57.5930   24.7680   45.9560 O   0  0  0  0  0  0  0  0  0  0  0  0
   57.3670   23.8150   44.9510 C   0  0  0  0  0  0  0  0  0  0  0  0
   56.3290   23.9560   44.0110 C   0  0  0  0  0  0  0  0  0  0  0  0
   56.1280   22.9760   43.0320 C   0  0  0  0  0  0  0  0  0  0  0  0
   56.9450   21.8440   42.9960 C   0  0  0  0  0  0  0  0  0  0  0  0
   57.9610   21.6870   43.9430 C   0  0  0  0  0  0  0  0  0  0  0  0
   58.1700   22.6680   44.9170 C   0  0  0  0  0  0  0  0  0  0  0  0
   58.0400   26.9670   46.8390 C   0  0  0  0  0  0  0  0  0  0  0  0
   58.3450   28.3200   46.6590 C   0  0  0  0  0  0  0  0  0  0  0  0
   59.5491   32.6136   44.4778 H   0  0  0  0  0  0  0  0  0  0  0  0
   58.2716   32.6488   43.1961 H   0  0  0  0  0  0  0  0  0  0  0  0
   59.3338   34.8339   44.0728 H   0  0  0  0  0  0  0  0  0  0  0  0
   57.8830   35.7633   44.6928 H   0  0  0  0  0  0  0  0  0  0  0  0
   60.2748   35.8333   45.9277 H   0  0  0  0  0  0  0  0  0  0  0  0
   58.7006   35.9344   46.8033 H   0  0  0  0  0  0  0  0  0  0  0  0
   61.8755   33.9694   45.3641 H   0  0  0  0  0  0  0  0  0  0  0  0
   64.2120   33.5212   46.1190 H   0  0  0  0  0  0  0  0  0  0  0  0
   62.8360   33.2002   50.2063 H   0  0  0  0  0  0  0  0  0  0  0  0
   60.4965   33.6360   49.4598 H   0  0  0  0  0  0  0  0  0  0  0  0
   58.9590   32.1211   47.1588 H   0  0  0  0  0  0  0  0  0  0  0  0
   58.2900   33.3371   48.3120 H   0  0  0  0  0  0  0  0  0  0  0  0
   56.7805   32.4517   46.3374 H   0  0  0  0  0  0  0  0  0  0  0  0
   56.8078   34.2206   46.7402 H   0  0  0  0  0  0  0  0  0  0  0  0
   59.8150   30.5360   45.4810 H   0  0  0  0  0  0  0  0  0  0  0  0
   58.5604   28.3806   43.2464 H   0  0  0  0  0  0  0  0  0  0  0  0
   58.0066   25.9712   43.5680 H   0  0  0  0  0  0  0  0  0  0  0  0
   55.6738   24.8389   44.0458 H   0  0  0  0  0  0  0  0  0  0  0  0
   55.3253   23.0977   42.2898 H   0  0  0  0  0  0  0  0  0  0  0  0
   56.7892   21.0768   42.2233 H   0  0  0  0  0  0  0  0  0  0  0  0
   58.5973   20.7900   43.9219 H   0  0  0  0  0  0  0  0  0  0  0  0
   58.9698   22.5382   45.6610 H   0  0  0  0  0  0  0  0  0  0  0  0
   57.9165   26.5654   47.8556 H   0  0  0  0  0  0  0  0  0  0  0  0
   58.4594   28.9754   47.5350 H   0  0  0  0  0  0  0  0  0  0  0  0
  1  2  2  0
  2  3  1  0
  3  4  1  0
  4  5  1  0
  5  6  1  0
  6  7  1  0
  7  8  1  0
  8  9  2  0
  9 10  1  0
 10 11  2  0
 11 12  1  0
 11 13  1  0
 13 14  2  0
  7 15  1  0
 15 16  1  0
  2 17  1  0
 17 18  1  0
 18 19  2  0
 19 20  1  0
 20 21  2  0
 21 22  1  0
 22 23  1  0
 23 24  2  0
 24 25  1  0
 25 26  2  0
 26 27  1  0
 27 28  2  0
 21 29  1  0
 29 30  2  0
 16  4  1  0
 30 18  1  0
 14  8  1  0
 28 23  1  0
  3 31  1  0
  3 32  1  0
  5 33  1  0
  5 34  1  0
  6 35  1  0
  6 36  1  0
  9 37  1  0
 10 38  1  0
 13 39  1  0
 14 40  1  0
 15 41  1  0
 15 42  1  0
 16 43  1  0
 16 44  1  0
 17 45  1  0
 19 46  1  0
 20 47  1  0
 24 48  1  0
 25 49  1  0
 26 50  1  0
 27 51  1  0
 28 52  1  0
 29 53  1  0
 30 54  1  0
M  END
>  <UniqueID>  (66) 
59

>  <SMILES>  (66) 
O=C(CN1CCN(c2ccc(F)cc2)CC1)Nc1ccc(Oc2ccccc2)cc1

>  <Energy>  (66) 
79.23994782128517

>  <Genealogy>  (66) 
O=C(CN1CCN(c2ccc(F)cc2)CC1)Nc1ccc(Oc2ccccc2)cc1 (3D coordinates assigned)
O=C(CN1CCN(c2ccc(F)cc2)CC1)Nc1ccc(Oc2ccccc2)cc1 (nonaromatic ring conformer: 79.23994782128517 kcal/mol)

>  <smiles>  (66) 
O=C(CN1CCN(c2ccc(F)cc2)CC1)Nc1ccc(Oc2ccccc2)cc1

>  <score_type>  (66) 
oracle

>  <origin>  (66) 
adg

>  <m_score__min__energy>  (66) 
-9.2300000000000004

>  <m_primary>  (66) 
energy

$$$$
66:0
     RDKit          3D

 62 64  0  0  0  0  0  0  0  0999 V2000
   55.3060   26.7060   45.9590 N   0  0  0  0  0  0  0  0  0  0  0  0
   56.9440   27.2520   46.0350 S   0  0  0  0  0  0  0  0  0  0  0  0
   57.3970   27.2450   47.4680 O   0  0  0  0  0  0  0  0  0  0  0  0
   57.7910   26.3000   45.2370 O   0  0  0  0  0  0  0  0  0  0  0  0
   57.0880   28.8880   45.3690 C   0  0  0  0  0  0  0  0  0  0  0  0
   56.2420   29.2740   44.3170 C   0  0  0  0  0  0  0  0  0  0  0  0
   56.3550   30.5420   43.7420 C   0  0  0  0  0  0  0  0  0  0  0  0
   57.3150   31.4390   44.2080 C   0  0  0  0  0  0  0  0  0  0  0  0
   58.1590   31.0760   45.2580 C   0  0  0  0  0  0  0  0  0  0  0  0
   58.0500   29.8080   45.8540 C   0  0  0  0  0  0  0  0  0  0  0  0
   58.9470   29.4850   46.9800 C   0  0  0  0  0  0  0  0  0  0  0  0
   59.8770   28.4420   46.8670 C   0  0  0  0  0  0  0  0  0  0  0  0
   60.7030   28.1150   47.9450 C   0  0  0  0  0  0  0  0  0  0  0  0
   60.6010   28.8220   49.1540 C   0  0  0  0  0  0  0  0  0  0  0  0
   61.4320   28.4290   50.3460 C   0  0  0  0  0  0  0  0  0  0  0  0
   61.8360   29.6340   51.0850 N   0  0  0  0  0  0  0  0  0  0  0  0
   62.1750   29.3350   52.4860 C   0  0  0  0  0  0  0  0  0  0  0  0
   61.1170   29.9250   53.4160 C   0  0  0  0  0  0  0  0  0  0  0  0
   61.0240   31.4120   53.2400 C   0  0  0  0  0  0  0  0  0  0  0  0
   60.9790   32.1530   54.2580 O   0  0  0  0  0  0  0  0  0  0  0  0
   60.9390   31.9810   51.9260 N   0  0  0  0  0  0  0  0  0  0  0  0
   60.7280   33.4140   51.7160 C   0  0  0  0  0  0  0  0  0  0  0  0
   59.6520   33.6670   50.6550 C   0  0  0  0  0  0  0  0  0  0  0  0
   60.2300   33.5810   49.2650 C   0  0  0  0  0  0  0  0  0  0  0  0
   61.4330   32.8900   49.0480 C   0  0  0  0  0  0  0  0  0  0  0  0
   61.9580   32.7730   47.7550 C   0  0  0  0  0  0  0  0  0  0  0  0
   63.1920   32.0830   47.5430 N   0  0  0  0  0  0  0  0  0  0  0  0
   61.2700   33.3360   46.6720 C   0  0  0  0  0  0  0  0  0  0  0  0
   60.0500   34.0020   46.8680 C   0  0  0  0  0  0  0  0  0  0  0  0
   59.3430   34.6350   45.6950 C   0  0  0  0  0  0  0  0  0  0  0  0
   57.9670   34.5730   45.8490 F   0  0  0  0  0  0  0  0  0  0  0  0
   59.6770   33.9800   44.5210 F   0  0  0  0  0  0  0  0  0  0  0  0
   59.7250   35.9610   45.5970 F   0  0  0  0  0  0  0  0  0  0  0  0
   59.5450   34.1390   48.1730 C   0  0  0  0  0  0  0  0  0  0  0  0
   59.6580   29.8560   49.2710 C   0  0  0  0  0  0  0  0  0  0  0  0
   58.8420   30.1900   48.1870 C   0  0  0  0  0  0  0  0  0  0  0  0
   54.8110   27.0910   46.7960 H   0  0  0  0  0  0  0  0  0  0  0  0
   55.4832   28.5714   43.9422 H   0  0  0  0  0  0  0  0  0  0  0  0
   55.6850   30.8334   42.9197 H   0  0  0  0  0  0  0  0  0  0  0  0
   57.4072   32.4337   43.7475 H   0  0  0  0  0  0  0  0  0  0  0  0
   58.9151   31.7873   45.6219 H   0  0  0  0  0  0  0  0  0  0  0  0
   59.9566   27.8788   45.9255 H   0  0  0  0  0  0  0  0  0  0  0  0
   61.4360   27.3007   47.8465 H   0  0  0  0  0  0  0  0  0  0  0  0
   60.8408   27.7764   51.0052 H   0  0  0  0  0  0  0  0  0  0  0  0
   62.3293   27.8921   50.0045 H   0  0  0  0  0  0  0  0  0  0  0  0
   62.6840   30.0360   50.6220 H   0  0  0  0  0  0  0  0  0  0  0  0
   62.2163   28.2448   52.6262 H   0  0  0  0  0  0  0  0  0  0  0  0
   63.1531   29.7787   52.7238 H   0  0  0  0  0  0  0  0  0  0  0  0
   60.1412   29.4726   53.1854 H   0  0  0  0  0  0  0  0  0  0  0  0
   61.4019   29.7098   54.4564 H   0  0  0  0  0  0  0  0  0  0  0  0
   60.8950   31.3360   51.1060 H   0  0  0  0  0  0  0  0  0  0  0  0
   60.4113   33.8726   52.6644 H   0  0  0  0  0  0  0  0  0  0  0  0
   61.6722   33.8571   51.3665 H   0  0  0  0  0  0  0  0  0  0  0  0
   58.8582   32.9130   50.7613 H   0  0  0  0  0  0  0  0  0  0  0  0
   59.2463   34.6787   50.8029 H   0  0  0  0  0  0  0  0  0  0  0  0
   61.9657   32.4383   49.8979 H   0  0  0  0  0  0  0  0  0  0  0  0
   64.0390   32.5930   47.2050 H   0  0  0  0  0  0  0  0  0  0  0  0
   63.2660   31.0560   47.7180 H   0  0  0  0  0  0  0  0  0  0  0  0
   61.6899   33.2553   45.6585 H   0  0  0  0  0  0  0  0  0  0  0  0
   58.6062   34.6874   48.3401 H   0  0  0  0  0  0  0  0  0  0  0  0
   59.5614   30.4049   50.2193 H   0  0  0  0  0  0  0  0  0  0  0  0
   58.1143   31.0095   48.2812 H   0  0  0  0  0  0  0  0  0  0  0  0
  1  2  1  0
  2  3  2  0
  2  4  2  0
  2  5  1  0
  5  6  2  0
  6  7  1  0
  7  8  2  0
  8  9  1  0
  9 10  2  0
 10 11  1  0
 11 12  2  0
 12 13  1  0
 13 14  2  0
 14 15  1  0
 15 16  1  0
 16 17  1  0
 17 18  1  0
 18 19  1  0
 19 20  2  0
 19 21  1  0
 21 22  1  0
 22 23  1  0
 23 24  1  0
 24 25  2  0
 25 26  1  0
 26 27  1  0
 26 28  2  0
 28 29  1  0
 29 30  1  0
 30 31  1  0
 30 32  1  0
 30 33  1  0
 29 34  2  0
 14 35  1  0
 35 36  2  0
 10  5  1  0
 36 11  1  0
 34 24  1  0
  1 37  1  0
  6 38  1  0
  7 39  1  0
  8 40  1  0
  9 41  1  0
 12 42  1  0
 13 43  1  0
 15 44  1  0
 15 45  1  0
 16 46  1  0
 17 47  1  0
 17 48  1  0
 18 49  1  0
 18 50  1  0
 21 51  1  0
 22 52  1  0
 22 53  1  0
 23 54  1  0
 23 55  1  0
 25 56  1  0
 27 57  1  0
 27 58  1  0
 28 59  1  0
 34 60  1  0
 35 61  1  0
 36 62  1  0
M  CHG  1   1  -1
M  END
>  <UniqueID>  (67) 
60

>  <SMILES>  (67) 
[NH-]S(=O)(=O)c1ccccc1-c1ccc(CNCCC(=O)NCCc2cc(N)cc(C(F)(F)F)c2)cc1

>  <Energy>  (67) 
61.13506863549689

>  <Genealogy>  (67) 
[NH-]S(=O)(=O)c1ccccc1-c1ccc(CNCCC(=O)NCCc2cc(N)cc(C(F)(F)F)c2)cc1 (protonated)
[NH-]S(=O)(=O)c1ccccc1-c1ccc(CNCCC(=O)NCCc2cc(N)cc(C(F)(F)F)c2)cc1 (3D coordinates assigned)
[NH-]S(=O)(=O)c1ccccc1-c1ccc(CNCCC(=O)NCCc2cc(N)cc(C(F)(F)F)c2)cc1 (optimized conformer: 61.13506863549689 kcal/mol)

>  <smiles>  (67) 
Nc1cc(CCNC(=O)CCNCc2ccc(-c3ccccc3S(N)(=O)=O)cc2)cc(C(F)(F)F)c1

>  <score_type>  (67) 
oracle

>  <origin>  (67) 
adg

>  <m_score__min__energy>  (67) 
-11.41

>  <m_primary>  (67) 
energy

$$$$
67:0
     RDKit          3D

 53 56  0  0  0  0  0  0  0  0999 V2000
   59.6350   28.8680   49.9510 C   0  0  0  0  0  0  0  0  0  0  0  0
   60.1180   29.1350   48.5410 C   0  0  0  0  0  0  0  0  0  0  0  0
   60.3820   30.4670   48.1540 C   0  0  0  0  0  0  0  0  0  0  0  0
   60.1570   31.5210   49.0450 O   0  0  0  0  0  0  0  0  0  0  0  0
   58.9440   32.2710   49.0370 C   0  0  0  0  0  0  0  0  0  0  0  0
   58.9410   33.2450   47.8830 C   0  0  0  0  0  0  0  0  0  0  0  0
   57.8780   33.2000   46.9650 C   0  0  0  0  0  0  0  0  0  0  0  0
   57.8700   34.0360   45.8470 C   0  0  0  0  0  0  0  0  0  0  0  0
   58.9220   34.9260   45.6300 C   0  0  0  0  0  0  0  0  0  0  0  0
   59.9870   34.9800   46.5310 C   0  0  0  0  0  0  0  0  0  0  0  0
   60.0140   34.1370   47.6490 C   0  0  0  0  0  0  0  0  0  0  0  0
   61.4120   34.2250   48.7150 Cl  0  0  0  0  0  0  0  0  0  0  0  0
   60.8550   30.7290   46.8640 C   0  0  0  0  0  0  0  0  0  0  0  0
   61.1370   31.9060   46.5150 O   0  0  0  0  0  0  0  0  0  0  0  0
   61.0130   29.6840   45.9610 C   0  0  0  0  0  0  0  0  0  0  0  0
   60.6740   28.3890   46.3440 C   0  0  0  0  0  0  0  0  0  0  0  0
   60.2150   28.1210   47.6070 N   0  0  0  0  0  0  0  0  0  0  0  0
   59.7620   26.7460   47.8990 C   0  0  0  0  0  0  0  0  0  0  0  0
   58.4850   26.4370   47.1560 C   0  0  0  0  0  0  0  0  0  0  0  0
   57.9730   25.1300   47.1300 C   0  0  0  0  0  0  0  0  0  0  0  0
   56.7610   24.8640   46.4890 C   0  0  0  0  0  0  0  0  0  0  0  0
   56.0600   25.8910   45.8570 C   0  0  0  0  0  0  0  0  0  0  0  0
   56.5800   27.1980   45.8420 C   0  0  0  0  0  0  0  0  0  0  0  0
   55.8960   28.2670   45.2430 O   0  0  0  0  0  0  0  0  0  0  0  0
   56.4910   29.3350   44.5580 C   0  0  0  0  0  0  0  0  0  0  0  0
   57.5320   30.0350   45.1810 C   0  0  0  0  0  0  0  0  0  0  0  0
   58.1580   31.1000   44.5260 C   0  0  0  0  0  0  0  0  0  0  0  0
   57.7560   31.4630   43.2370 C   0  0  0  0  0  0  0  0  0  0  0  0
   56.7340   30.7550   42.5990 C   0  0  0  0  0  0  0  0  0  0  0  0
   56.1060   29.6880   43.2530 C   0  0  0  0  0  0  0  0  0  0  0  0
   57.7880   27.4620   46.4960 C   0  0  0  0  0  0  0  0  0  0  0  0
   60.3632   29.2706   50.6704 H   0  0  0  0  0  0  0  0  0  0  0  0
   58.6609   29.3558   50.1034 H   0  0  0  0  0  0  0  0  0  0  0  0
   59.5299   27.7837   50.1034 H   0  0  0  0  0  0  0  0  0  0  0  0
   58.0920   31.5829   48.9340 H   0  0  0  0  0  0  0  0  0  0  0  0
   58.8621   32.8314   49.9800 H   0  0  0  0  0  0  0  0  0  0  0  0
   57.0452   32.5002   47.1287 H   0  0  0  0  0  0  0  0  0  0  0  0
   57.0322   33.9928   45.1355 H   0  0  0  0  0  0  0  0  0  0  0  0
   58.9124   35.5850   44.7493 H   0  0  0  0  0  0  0  0  0  0  0  0
   60.8104   35.6894   46.3617 H   0  0  0  0  0  0  0  0  0  0  0  0
   61.4031   29.8788   44.9511 H   0  0  0  0  0  0  0  0  0  0  0  0
   60.7764   27.5670   45.6203 H   0  0  0  0  0  0  0  0  0  0  0  0
   60.5418   26.0351   47.5883 H   0  0  0  0  0  0  0  0  0  0  0  0
   59.5736   26.6571   48.9791 H   0  0  0  0  0  0  0  0  0  0  0  0
   58.5277   24.3136   47.6156 H   0  0  0  0  0  0  0  0  0  0  0  0
   56.3577   23.8406   46.4825 H   0  0  0  0  0  0  0  0  0  0  0  0
   55.0975   25.6782   45.3688 H   0  0  0  0  0  0  0  0  0  0  0  0
   57.8587   29.7455   46.1907 H   0  0  0  0  0  0  0  0  0  0  0  0
   58.9675   31.6527   45.0253 H   0  0  0  0  0  0  0  0  0  0  0  0
   58.2440   32.3056   42.7253 H   0  0  0  0  0  0  0  0  0  0  0  0
   56.4226   31.0362   41.5821 H   0  0  0  0  0  0  0  0  0  0  0  0
   55.3096   29.1248   42.7444 H   0  0  0  0  0  0  0  0  0  0  0  0
   58.1963   28.4834   46.4933 H   0  0  0  0  0  0  0  0  0  0  0  0
  1  2  1  0
  2  3  2  0
  3  4  1  0
  4  5  1  0
  5  6  1  0
  6  7  2  0
  7  8  1  0
  8  9  2  0
  9 10  1  0
 10 11  2  0
 11 12  1  0
  3 13  1  0
 13 14  2  0
 13 15  1  0
 15 16  2  0
 16 17  1  0
 17 18  1  0
 18 19  1  0
 19 20  2  0
 20 21  1  0
 21 22  2  0
 22 23  1  0
 23 24  1  0
 24 25  1  0
 25 26  2  0
 26 27  1  0
 27 28  2  0
 28 29  1  0
 29 30  2  0
 23 31  2  0
 17  2  1  0
 31 19  1  0
 11  6  1  0
 30 25  1  0
  1 32  1  0
  1 33  1  0
  1 34  1  0
  5 35  1  0
  5 36  1  0
  7 37  1  0
  8 38  1  0
  9 39  1  0
 10 40  1  0
 15 41  1  0
 16 42  1  0
 18 43  1  0
 18 44  1  0
 20 45  1  0
 21 46  1  0
 22 47  1  0
 26 48  1  0
 27 49  1  0
 28 50  1  0
 29 51  1  0
 30 52  1  0
 31 53  1  0
M  END
>  <UniqueID>  (68) 
61

>  <SMILES>  (68) 
Cc1c(OCc2ccccc2Cl)c(=O)ccn1Cc1cccc(Oc2ccccc2)c1

>  <Energy>  (68) 
69.44842093738495

>  <Genealogy>  (68) 
Cc1c(OCc2ccccc2Cl)c(=O)ccn1Cc1cccc(Oc2ccccc2)c1 (3D coordinates assigned)
Cc1c(OCc2ccccc2Cl)c(=O)ccn1Cc1cccc(Oc2ccccc2)c1 (optimized conformer: 69.44842093738495 kcal/mol)

>  <smiles>  (68) 
Cc1c(OCc2ccccc2Cl)c(=O)ccn1Cc1cccc(Oc2ccccc2)c1

>  <score_type>  (68) 
oracle

>  <origin>  (68) 
adg

>  <m_score__min__energy>  (68) 
-9.0299999999999994

>  <m_primary>  (68) 
energy

$$$$
68:0
     RDKit          3D

 31 32  0  0  0  0  0  0  0  0999 V2000
   58.3860   32.9950   47.2330 C   0  0  0  0  0  0  0  0  0  0  0  0
   58.0150   32.4570   45.8780 C   0  0  0  0  0  0  0  0  0  0  0  0
   57.7730   31.0910   45.6920 C   0  0  0  0  0  0  0  0  0  0  0  0
   57.4570   30.5950   44.4580 N   0  0  0  0  0  0  0  0  0  0  0  0
   57.1900   29.1470   44.3230 C   0  0  1  0  0  0  0  0  0  0  0  0
   58.4520   28.3830   43.9410 C   0  0  0  0  0  0  0  0  0  0  0  0
   58.2590   27.0620   44.6360 C   0  0  2  0  0  0  0  0  0  0  0  0
   57.6500   26.1180   43.7820 O   0  0  0  0  0  0  0  0  0  0  0  0
   57.3810   27.4440   45.8340 C   0  0  2  0  0  0  0  0  0  0  0  0
   56.4210   26.3410   46.2960 C   0  0  0  0  0  0  0  0  0  0  0  0
   55.0990   26.6960   45.9940 O   0  0  0  0  0  0  0  0  0  0  0  0
   56.6570   28.6160   45.5200 O   0  0  0  0  0  0  0  0  0  0  0  0
   57.3520   31.4560   43.3910 C   0  0  0  0  0  0  0  0  0  0  0  0
   57.0250   31.0280   42.2500 O   0  0  0  0  0  0  0  0  0  0  0  0
   57.5920   32.7850   43.5530 N   0  0  0  0  0  0  0  0  0  0  0  0
   57.9250   33.2990   44.7650 C   0  0  0  0  0  0  0  0  0  0  0  0
   58.1470   34.5360   44.8790 O   0  0  0  0  0  0  0  0  0  0  0  0
   57.9461   32.3571   48.0138 H   0  0  0  0  0  0  0  0  0  0  0  0
   59.4810   33.0008   47.3380 H   0  0  0  0  0  0  0  0  0  0  0  0
   58.0022   34.0205   47.3380 H   0  0  0  0  0  0  0  0  0  0  0  0
   57.8380   30.4069   46.5510 H   0  0  0  0  0  0  0  0  0  0  0  0
   56.4500   29.0271   43.5180 H   0  0  0  0  0  0  0  0  0  0  0  0
   58.5222   28.2518   42.8511 H   0  0  0  0  0  0  0  0  0  0  0  0
   59.3798   28.8982   44.2304 H   0  0  0  0  0  0  0  0  0  0  0  0
   59.1955   26.5725   44.9416 H   0  0  0  0  0  0  0  0  0  0  0  0
   56.6840   26.3340   43.7160 H   0  0  0  0  0  0  0  0  0  0  0  0
   58.0633   27.6114   46.6805 H   0  0  0  0  0  0  0  0  0  0  0  0
   56.6719   25.4014   45.7821 H   0  0  0  0  0  0  0  0  0  0  0  0
   56.5193   26.2102   47.3838 H   0  0  0  0  0  0  0  0  0  0  0  0
   55.1570   27.4910   45.4030 H   0  0  0  0  0  0  0  0  0  0  0  0
   57.5160   33.4240   42.7290 H   0  0  0  0  0  0  0  0  0  0  0  0
  1  2  1  0
  2  3  2  0
  3  4  1  0
  4  5  1  0
  5  6  1  0
  6  7  1  0
  7  8  1  0
  7  9  1  0
  9 10  1  0
 10 11  1  0
  9 12  1  0
  4 13  1  0
 13 14  2  0
 13 15  1  0
 15 16  1  0
 16 17  2  0
 16  2  1  0
 12  5  1  0
  1 18  1  0
  1 19  1  0
  1 20  1  0
  3 21  1  0
  5 22  1  6
  6 23  1  0
  6 24  1  0
  7 25  1  1
  8 26  1  0
  9 27  1  1
 10 28  1  0
 10 29  1  0
 11 30  1  0
 15 31  1  0
M  END
>  <UniqueID>  (69) 
62

>  <SMILES>  (69) 
Cc1cn([C@H]2C[C@H](O)C(CO)O2)c(=O)[nH]c1=O

>  <Energy>  (69) 
36.03015025987919

>  <Genealogy>  (69) 
Cc1cn([C@H]2C[C@H](O)C(CO)O2)c(=O)[nH]c1=O (chirality)
Cc1cn([C@H]2C[C@H](O)C(CO)O2)c(=O)[nH]c1=O (3D coordinates assigned)
Cc1cn([C@H]2C[C@H](O)C(CO)O2)c(=O)[nH]c1=O (nonaromatic ring conformer: 36.03015025987919 kcal/mol)

>  <smiles>  (69) 
Cc1cn(C2CC(O)C(CO)O2)c(=O)[nH]c1=O

>  <score_type>  (69) 
oracle

>  <origin>  (69) 
adg

>  <m_score__min__energy>  (69) 
-7.1200000000000001

>  <m_primary>  (69) 
energy

$$$$
69:0
     RDKit          3D

 37 39  0  0  0  0  0  0  0  0999 V2000
   63.1620   33.7680   46.6630 C   0  0  0  0  0  0  0  0  0  0  0  0
   61.7320   33.8130   47.1010 C   0  0  0  0  0  0  0  0  0  0  0  0
   61.4050   33.7960   48.4610 C   0  0  0  0  0  0  0  0  0  0  0  0
   60.0560   33.8710   48.8250 C   0  0  0  0  0  0  0  0  0  0  0  0
   59.6560   33.8290   50.2660 C   0  0  0  0  0  0  0  0  0  0  0  0
   59.1030   33.9580   47.8600 N   0  0  0  0  0  0  0  0  0  0  0  0
   59.4400   33.9860   46.5450 C   0  0  0  0  0  0  0  0  0  0  0  0
   58.1640   34.1290   45.3000 S   0  0  0  0  0  0  0  0  0  0  0  0
   57.8400   32.3670   45.3140 C   0  0  0  0  0  0  0  0  0  0  0  0
   56.7990   31.8350   44.5450 C   0  0  0  0  0  0  0  0  0  0  0  0
   56.5610   30.4950   44.5510 N   0  0  0  0  0  0  0  0  0  0  0  0
   57.3120   29.6380   45.2930 C   0  0  0  0  0  0  0  0  0  0  0  0
   57.0380   28.2650   45.2720 C   0  0  0  0  0  0  0  0  0  0  0  0
   57.8160   27.3760   46.0380 C   0  0  0  0  0  0  0  0  0  0  0  0
   57.5750   25.9620   46.0500 N   0  0  0  0  0  0  0  0  0  0  0  0
   56.0340   25.1910   46.2430 S   0  0  0  0  0  0  0  0  0  0  0  0
   54.7630   26.3370   45.9930 N   0  0  0  0  0  0  0  0  0  0  0  0
   55.9340   24.6550   47.6420 O   0  0  0  0  0  0  0  0  0  0  0  0
   55.9000   24.0470   45.2770 O   0  0  0  0  0  0  0  0  0  0  0  0
   58.8660   27.8790   46.8180 C   0  0  0  0  0  0  0  0  0  0  0  0
   59.1440   29.2480   46.8450 C   0  0  0  0  0  0  0  0  0  0  0  0
   58.3700   30.1340   46.0850 C   0  0  0  0  0  0  0  0  0  0  0  0
   58.6270   31.5110   46.0900 C   0  0  0  0  0  0  0  0  0  0  0  0
   60.7440   33.9180   46.1740 N   0  0  0  0  0  0  0  0  0  0  0  0
   63.8159   33.7474   47.5473 H   0  0  0  0  0  0  0  0  0  0  0  0
   63.3325   32.8640   46.0598 H   0  0  0  0  0  0  0  0  0  0  0  0
   63.3890   34.6594   46.0598 H   0  0  0  0  0  0  0  0  0  0  0  0
   62.1910   33.7252   49.2273 H   0  0  0  0  0  0  0  0  0  0  0  0
   60.5514   33.9230   50.8980 H   0  0  0  0  0  0  0  0  0  0  0  0
   58.9674   34.6598   50.4798 H   0  0  0  0  0  0  0  0  0  0  0  0
   59.1550   32.8733   50.4798 H   0  0  0  0  0  0  0  0  0  0  0  0
   56.1718   32.5012   43.9344 H   0  0  0  0  0  0  0  0  0  0  0  0
   56.2126   27.8798   44.6553 H   0  0  0  0  0  0  0  0  0  0  0  0
   55.1460   27.2840   46.2060 H   0  0  0  0  0  0  0  0  0  0  0  0
   59.4784   27.1880   47.4159 H   0  0  0  0  0  0  0  0  0  0  0  0
   59.9702   29.6297   47.4628 H   0  0  0  0  0  0  0  0  0  0  0  0
   59.4453   31.9174   46.7025 H   0  0  0  0  0  0  0  0  0  0  0  0
  1  2  1  0
  2  3  2  0
  3  4  1  0
  4  5  1  0
  4  6  2  0
  6  7  1  0
  7  8  1  0
  8  9  1  0
  9 10  2  0
 10 11  1  0
 11 12  2  0
 12 13  1  0
 13 14  2  0
 14 15  1  0
 15 16  1  0
 16 17  1  0
 16 18  2  0
 16 19  2  0
 14 20  1  0
 20 21  2  0
 21 22  1  0
 22 23  2  0
  7 24  2  0
 24  2  1  0
 23  9  1  0
 22 12  1  0
  1 25  1  0
  1 26  1  0
  1 27  1  0
  3 28  1  0
  5 29  1  0
  5 30  1  0
  5 31  1  0
 10 32  1  0
 13 33  1  0
 17 34  1  0
 20 35  1  0
 21 36  1  0
 23 37  1  0
M  CHG  2  15  -1  17  -1
M  END
>  <UniqueID>  (70) 
63

>  <SMILES>  (70) 
Cc1cc(C)nc(Sc2cnc3cc([N-]S([NH-])(=O)=O)ccc3c2)n1

>  <Energy>  (70) 
37.94416247636226

>  <Genealogy>  (70) 
Cc1cc(C)nc(Sc2cnc3cc([N-]S([NH-])(=O)=O)ccc3c2)n1 (protonated)
Cc1cc(C)nc(Sc2cnc3cc([N-]S([NH-])(=O)=O)ccc3c2)n1 (3D coordinates assigned)
Cc1cc(C)nc(Sc2cnc3cc([N-]S([NH-])(=O)=O)ccc3c2)n1 (optimized conformer: 37.94416247636226 kcal/mol)

>  <smiles>  (70) 
Cc1cc(C)nc(Sc2cnc3cc(NS(N)(=O)=O)ccc3c2)n1

>  <score_type>  (70) 
oracle

>  <origin>  (70) 
adg

>  <m_score__min__energy>  (70) 
-13.74

>  <m_primary>  (70) 
energy

$$$$
70:0
     RDKit          3D

 32 33  0  0  0  0  0  0  0  0999 V2000
   55.9810   28.1500   45.2510 N   0  0  0  0  0  0  0  0  0  0  0  0
   56.9640   29.4320   44.6340 S   0  0  0  0  0  0  0  0  0  0  0  0
   56.1320   30.6740   44.4850 O   0  0  0  0  0  0  0  0  0  0  0  0
   57.4980   29.0250   43.2890 O   0  0  0  0  0  0  0  0  0  0  0  0
   58.2950   29.7490   45.7410 C   0  0  0  0  0  0  0  0  0  0  0  0
   58.1390   29.5380   47.1180 C   0  0  0  0  0  0  0  0  0  0  0  0
   59.2040   29.7790   47.9910 C   0  0  0  0  0  0  0  0  0  0  0  0
   60.4310   30.2450   47.5020 C   0  0  0  0  0  0  0  0  0  0  0  0
   61.5120   30.4400   48.4230 N   0  0  0  0  0  0  0  0  0  0  0  0
   62.4160   31.5520   48.4210 C   0  0  0  0  0  0  0  0  0  0  0  0
   63.4320   31.5480   49.1670 O   0  0  0  0  0  0  0  0  0  0  0  0
   62.1960   32.6980   47.4800 C   0  0  0  0  0  0  0  0  0  0  0  0
   61.5470   33.8200   48.1520 N   0  0  0  0  0  0  0  0  0  0  0  0
   60.1400   34.1030   48.2040 C   0  0  0  0  0  0  0  0  0  0  0  0
   59.6600   34.5510   49.2780 O   0  0  0  0  0  0  0  0  0  0  0  0
   59.2400   33.9330   47.0460 C   0  0  0  0  0  0  0  0  0  0  0  0
   59.4540   34.4800   45.7850 C   0  0  0  0  0  0  0  0  0  0  0  0
   58.4280   34.2010   44.8740 C   0  0  0  0  0  0  0  0  0  0  0  0
   57.3920   33.4520   45.4130 C   0  0  0  0  0  0  0  0  0  0  0  0
   57.7560   33.1380   47.0240 S   0  0  0  0  0  0  0  0  0  0  0  0
   60.5930   30.4310   46.1180 C   0  0  0  0  0  0  0  0  0  0  0  0
   59.5290   30.1870   45.2440 C   0  0  0  0  0  0  0  0  0  0  0  0
   55.1400   28.5910   45.6850 H   0  0  0  0  0  0  0  0  0  0  0  0
   57.1760   29.1818   47.5127 H   0  0  0  0  0  0  0  0  0  0  0  0
   59.0775   29.6015   49.0692 H   0  0  0  0  0  0  0  0  0  0  0  0
   63.1680   33.0299   47.0864 H   0  0  0  0  0  0  0  0  0  0  0  0
   61.5416   32.3565   46.6645 H   0  0  0  0  0  0  0  0  0  0  0  0
   60.3433   35.0743   45.5284 H   0  0  0  0  0  0  0  0  0  0  0  0
   58.4420   34.5436   43.8288 H   0  0  0  0  0  0  0  0  0  0  0  0
   56.4891   33.1210   44.8789 H   0  0  0  0  0  0  0  0  0  0  0  0
   61.5611   30.7700   45.7208 H   0  0  0  0  0  0  0  0  0  0  0  0
   59.6616   30.3396   44.1627 H   0  0  0  0  0  0  0  0  0  0  0  0
  1  2  1  0
  2  3  2  0
  2  4  2  0
  2  5  1  0
  5  6  2  0
  6  7  1  0
  7  8  2  0
  8  9  1  0
  9 10  1  0
 10 11  2  0
 10 12  1  0
 12 13  1  0
 13 14  1  0
 14 15  2  0
 14 16  1  0
 16 17  2  0
 17 18  1  0
 18 19  2  0
 19 20  1  0
  8 21  1  0
 21 22  2  0
 22  5  1  0
 20 16  1  0
  1 23  1  0
  6 24  1  0
  7 25  1  0
 12 26  1  0
 12 27  1  0
 17 28  1  0
 18 29  1  0
 19 30  1  0
 21 31  1  0
 22 32  1  0
M  CHG  3   1  -1   9  -1  13  -1
M  END
>  <UniqueID>  (71) 
64

>  <SMILES>  (71) 
[NH-]S(=O)(=O)c1ccc([N-]C(=O)C[N-]C(=O)c2cccs2)cc1

>  <Energy>  (71) 
61.218129897884445

>  <Genealogy>  (71) 
[NH-]S(=O)(=O)c1ccc([N-]C(=O)C[N-]C(=O)c2cccs2)cc1 (protonated)
[NH-]S(=O)(=O)c1ccc([N-]C(=O)C[N-]C(=O)c2cccs2)cc1 (3D coordinates assigned)
[NH-]S(=O)(=O)c1ccc([N-]C(=O)C[N-]C(=O)c2cccs2)cc1 (optimized conformer: 61.218129897884445 kcal/mol)

>  <smiles>  (71) 
NS(=O)(=O)c1ccc(NC(=O)CNC(=O)c2cccs2)cc1

>  <score_type>  (71) 
oracle

>  <origin>  (71) 
adg

>  <m_score__min__energy>  (71) 
-11.970000000000001

>  <m_primary>  (71) 
energy

$$$$
71:0
     RDKit          3D

 33 35  0  0  0  0  0  0  0  0999 V2000
   57.8450   32.1690   42.1250 C   0  0  0  0  0  0  0  0  0  0  0  0
   58.4350   33.0970   43.0820 N   0  0  0  0  0  0  0  0  0  0  0  0
   58.4720   32.9840   44.3840 C   0  0  0  0  0  0  0  0  0  0  0  0
   58.8920   34.0900   45.2900 C   0  0  0  0  0  0  0  0  0  0  0  0
   59.0560   35.2600   44.8470 O   0  0  0  0  0  0  0  0  0  0  0  0
   59.1130   33.8290   46.7280 C   0  0  0  0  0  0  0  0  0  0  0  0
   59.5420   34.8520   47.5920 C   0  0  0  0  0  0  0  0  0  0  0  0
   59.7430   34.5880   48.9460 C   0  0  0  0  0  0  0  0  0  0  0  0
   59.5190   33.3010   49.4320 C   0  0  0  0  0  0  0  0  0  0  0  0
   59.1020   32.3210   48.5900 N   0  0  0  0  0  0  0  0  0  0  0  0
   58.8920   32.5470   47.2630 C   0  0  0  0  0  0  0  0  0  0  0  0
   58.4030   31.4480   46.4140 C   0  0  0  0  0  0  0  0  0  0  0  0
   58.2680   30.2980   46.9140 O   0  0  0  0  0  0  0  0  0  0  0  0
   58.0490   31.6530   44.9640 C   0  0  1  0  0  0  0  0  0  0  0  0
   56.6280   31.3570   44.7140 N   0  0  0  0  0  0  0  0  0  0  0  0
   56.3000   29.7450   44.1200 S   0  0  0  0  0  0  0  0  0  0  0  0
   54.8920   29.3450   44.4600 O   0  0  0  0  0  0  0  0  0  0  0  0
   56.4400   29.7500   42.6250 O   0  0  0  0  0  0  0  0  0  0  0  0
   57.4190   28.5560   44.7660 C   0  0  0  0  0  0  0  0  0  0  0  0
   58.7750   28.4900   44.4900 C   0  0  0  0  0  0  0  0  0  0  0  0
   59.4100   27.4210   45.1330 C   0  0  0  0  0  0  0  0  0  0  0  0
   58.5510   26.6420   45.9000 C   0  0  0  0  0  0  0  0  0  0  0  0
   57.0000   27.2810   45.7770 S   0  0  0  0  0  0  0  0  0  0  0  0
   57.3313   31.3610   42.6666 H   0  0  0  0  0  0  0  0  0  0  0  0
   57.1213   32.7047   41.4931 H   0  0  0  0  0  0  0  0  0  0  0  0
   58.6372   31.7410   41.4931 H   0  0  0  0  0  0  0  0  0  0  0  0
   59.7196   35.8637   47.1983 H   0  0  0  0  0  0  0  0  0  0  0  0
   60.0752   35.3877   49.6243 H   0  0  0  0  0  0  0  0  0  0  0  0
   59.6800   33.0794   50.4973 H   0  0  0  0  0  0  0  0  0  0  0  0
   58.6562   30.9204   44.4121 H   0  0  0  0  0  0  0  0  0  0  0  0
   59.2975   29.2025   43.8347 H   0  0  0  0  0  0  0  0  0  0  0  0
   60.4869   27.2166   45.0402 H   0  0  0  0  0  0  0  0  0  0  0  0
   58.8373   25.7574   46.4878 H   0  0  0  0  0  0  0  0  0  0  0  0
  1  2  1  0
  2  3  2  3
  3  4  1  0
  4  5  2  0
  4  6  1  0
  6  7  2  0
  7  8  1  0
  8  9  2  0
  9 10  1  0
 10 11  2  0
 11 12  1  0
 12 13  2  0
 12 14  1  0
 14 15  1  0
 15 16  1  0
 16 17  2  0
 16 18  2  0
 16 19  1  0
 19 20  2  0
 20 21  1  0
 21 22  2  0
 22 23  1  0
 14  3  1  0
 23 19  1  0
 11  6  1  0
  1 24  1  0
  1 25  1  0
  1 26  1  0
  7 27  1  0
  8 28  1  0
  9 29  1  0
 14 30  1  6
 20 31  1  0
 21 32  1  0
 22 33  1  0
M  CHG  1  15  -1
M  END
>  <UniqueID>  (72) 
65

>  <SMILES>  (72) 
CN=C1C(=O)c2cccnc2C(=O)[C@H]1[N-]S(=O)(=O)c1cccs1

>  <Energy>  (72) 
66.60496526334896

>  <Genealogy>  (72) 
CN=C1C(=O)c2cccnc2C(=O)C1[N-]S(=O)(=O)c1cccs1 (protonated)
CN=C1C(=O)c2cccnc2C(=O)[C@H]1[N-]S(=O)(=O)c1cccs1 (chirality)
CN=C1C(=O)c2cccnc2C(=O)[C@H]1[N-]S(=O)(=O)c1cccs1 (3D coordinates assigned)
CN=C1C(=O)c2cccnc2C(=O)[C@H]1[N-]S(=O)(=O)c1cccs1 (nonaromatic ring conformer: 66.60496526334896 kcal/mol)

>  <smiles>  (72) 
CN=C1C(=O)c2cccnc2C(=O)C1NS(=O)(=O)c1cccs1

>  <score_type>  (72) 
oracle

>  <origin>  (72) 
adg

>  <m_score__min__energy>  (72) 
-9.8200000000000003

>  <m_primary>  (72) 
energy

$$$$
72:0
     RDKit          3D

 43 45  0  0  0  0  0  0  0  0999 V2000
   61.3190   30.0500   50.6670 C   0  0  0  0  0  0  0  0  0  0  0  0
   61.9010   30.7590   49.4740 C   0  0  0  0  0  0  0  0  0  0  0  0
   63.0790   31.5100   49.6260 C   0  0  0  0  0  0  0  0  0  0  0  0
   63.6400   32.1770   48.5350 C   0  0  0  0  0  0  0  0  0  0  0  0
   63.0270   32.1120   47.2850 C   0  0  0  0  0  0  0  0  0  0  0  0
   61.8500   31.3800   47.1200 C   0  0  0  0  0  0  0  0  0  0  0  0
   61.2760   30.6910   48.2040 C   0  0  0  0  0  0  0  0  0  0  0  0
   60.0430   29.9690   48.0300 N   0  0  0  0  0  0  0  0  0  0  0  0
   59.9810   28.6370   47.4920 C   0  0  0  0  0  0  0  0  0  0  0  0
   61.0160   27.9160   47.4930 O   0  0  0  0  0  0  0  0  0  0  0  0
   58.7050   28.0810   46.9770 C   0  0  0  0  0  0  0  0  0  0  0  0
   58.3390   26.7590   47.2810 C   0  0  0  0  0  0  0  0  0  0  0  0
   57.1340   26.2320   46.8100 C   0  0  0  0  0  0  0  0  0  0  0  0
   56.2860   27.0090   46.0180 C   0  0  0  0  0  0  0  0  0  0  0  0
   55.0630   26.4820   45.6210 O   0  0  0  0  0  0  0  0  0  0  0  0
   56.6630   28.3180   45.6600 C   0  0  0  0  0  0  0  0  0  0  0  0
   55.8300   29.1540   44.8440 N   0  0  0  0  0  0  0  0  0  0  0  0
   56.2560   30.3330   44.1490 C   0  0  0  0  0  0  0  0  0  0  0  0
   56.7570   30.2450   42.9970 O   0  0  0  0  0  0  0  0  0  0  0  0
   56.2180   31.6080   44.7960 N   0  0  0  0  0  0  0  0  0  0  0  0
   57.3640   32.3990   45.1360 C   0  0  0  0  0  0  0  0  0  0  0  0
   57.7920   32.4270   46.4700 C   0  0  0  0  0  0  0  0  0  0  0  0
   58.9130   33.1760   46.8380 C   0  0  0  0  0  0  0  0  0  0  0  0
   59.6270   33.8880   45.8710 C   0  0  0  0  0  0  0  0  0  0  0  0
   59.2290   33.8410   44.5330 C   0  0  0  0  0  0  0  0  0  0  0  0
   58.1070   33.0930   44.1580 C   0  0  0  0  0  0  0  0  0  0  0  0
   57.7870   33.0040   42.8430 F   0  0  0  0  0  0  0  0  0  0  0  0
   57.8560   28.8530   46.1640 C   0  0  0  0  0  0  0  0  0  0  0  0
   61.6988   30.5127   51.5898 H   0  0  0  0  0  0  0  0  0  0  0  0
   60.2222   30.1294   50.6416 H   0  0  0  0  0  0  0  0  0  0  0  0
   61.6106   28.9897   50.6416 H   0  0  0  0  0  0  0  0  0  0  0  0
   63.5628   31.5729   50.6119 H   0  0  0  0  0  0  0  0  0  0  0  0
   64.5674   32.7547   48.6623 H   0  0  0  0  0  0  0  0  0  0  0  0
   63.4713   32.6383   46.4273 H   0  0  0  0  0  0  0  0  0  0  0  0
   61.3665   31.3415   46.1327 H   0  0  0  0  0  0  0  0  0  0  0  0
   59.1600   30.3950   48.3900 H   0  0  0  0  0  0  0  0  0  0  0  0
   59.0058   26.1348   47.8940 H   0  0  0  0  0  0  0  0  0  0  0  0
   56.8517   25.1997   47.0643 H   0  0  0  0  0  0  0  0  0  0  0  0
   57.2421   31.8558   47.2324 H   0  0  0  0  0  0  0  0  0  0  0  0
   59.2334   33.2050   47.8899 H   0  0  0  0  0  0  0  0  0  0  0  0
   60.5029   34.4858   46.1635 H   0  0  0  0  0  0  0  0  0  0  0  0
   59.7991   34.3935   43.7716 H   0  0  0  0  0  0  0  0  0  0  0  0
   58.1319   29.8897   45.9207 H   0  0  0  0  0  0  0  0  0  0  0  0
  1  2  1  0
  2  3  2  0
  3  4  1  0
  4  5  2  0
  5  6  1  0
  6  7  2  0
  7  8  1  0
  8  9  1  0
  9 10  2  0
  9 11  1  0
 11 12  2  0
 12 13  1  0
 13 14  2  0
 14 15  1  0
 14 16  1  0
 16 17  1  0
 17 18  1  0
 18 19  2  0
 18 20  1  0
 20 21  1  0
 21 22  2  0
 22 23  1  0
 23 24  2  0
 24 25  1  0
 25 26  2  0
 26 27  1  0
 16 28  2  0
  7  2  1  0
 28 11  1  0
 26 21  1  0
  1 29  1  0
  1 30  1  0
  1 31  1  0
  3 32  1  0
  4 33  1  0
  5 34  1  0
  6 35  1  0
  8 36  1  0
 12 37  1  0
 13 38  1  0
 22 39  1  0
 23 40  1  0
 24 41  1  0
 25 42  1  0
 28 43  1  0
M  CHG  3  15  -1  17  -1  20  -1
M  END
>  <UniqueID>  (73) 
66

>  <SMILES>  (73) 
Cc1ccccc1NC(=O)c1ccc([O-])c([N-]C(=O)[N-]c2ccccc2F)c1

>  <Energy>  (73) 
62.40449840492201

>  <Genealogy>  (73) 
Cc1ccccc1NC(=O)c1ccc([O-])c([N-]C(=O)[N-]c2ccccc2F)c1 (protonated)
Cc1ccccc1NC(=O)c1ccc([O-])c([N-]C(=O)[N-]c2ccccc2F)c1 (3D coordinates assigned)
Cc1ccccc1NC(=O)c1ccc([O-])c([N-]C(=O)[N-]c2ccccc2F)c1 (optimized conformer: 62.40449840492201 kcal/mol)

>  <smiles>  (73) 
Cc1ccccc1NC(=O)c1ccc(O)c(NC(=O)Nc2ccccc2F)c1

>  <score_type>  (73) 
oracle

>  <origin>  (73) 
adg

>  <m_score__min__energy>  (73) 
-14.550000000000001

>  <m_primary>  (73) 
energy

$$$$
73:0
     RDKit          3D

 50 52  0  0  0  0  0  0  0  0999 V2000
   56.5910   27.6920   45.2600 O   0  0  0  0  0  0  0  0  0  0  0  0
   57.5960   28.4440   45.1330 C   0  0  0  0  0  0  0  0  0  0  0  0
   57.8420   29.0800   43.8700 N   0  0  0  0  0  0  0  0  0  0  0  0
   56.7810   29.3520   42.9010 C   0  0  0  0  0  0  0  0  0  0  0  0
   56.6350   30.8580   42.6620 C   0  0  0  0  0  0  0  0  0  0  0  0
   58.0390   31.7770   43.3930 S   0  0  0  0  0  0  0  0  0  0  0  0
   57.1510   32.3890   44.8660 C   0  0  0  0  0  0  0  0  0  0  0  0
   58.0640   33.2280   45.7200 C   0  0  0  0  0  0  0  0  0  0  0  0
   58.8170   34.2700   45.1540 C   0  0  0  0  0  0  0  0  0  0  0  0
   59.6520   35.0520   45.9560 C   0  0  0  0  0  0  0  0  0  0  0  0
   59.7420   34.8000   47.3270 C   0  0  0  0  0  0  0  0  0  0  0  0
   59.0050   33.7590   47.8980 C   0  0  0  0  0  0  0  0  0  0  0  0
   58.1680   32.9750   47.0980 C   0  0  0  0  0  0  0  0  0  0  0  0
   58.5040   28.6500   46.2910 C   0  0  0  0  0  0  0  0  0  0  0  0
   58.3060   29.7090   47.1970 C   0  0  0  0  0  0  0  0  0  0  0  0
   59.1510   29.8680   48.2980 C   0  0  0  0  0  0  0  0  0  0  0  0
   60.1940   28.9670   48.5310 C   0  0  0  0  0  0  0  0  0  0  0  0
   61.0120   29.1490   49.6950 N   0  0  0  0  0  0  0  0  0  0  0  0
   61.1630   30.6290   50.5850 S   0  0  0  0  0  0  0  0  0  0  0  0
   61.9940   30.3870   51.8120 O   0  0  0  0  0  0  0  0  0  0  0  0
   59.7980   31.0950   51.0070 O   0  0  0  0  0  0  0  0  0  0  0  0
   61.9630   31.8370   49.5860 C   0  0  0  0  0  0  0  0  0  0  0  0
   61.9390   33.1950   49.9410 C   0  0  0  0  0  0  0  0  0  0  0  0
   62.5480   34.1470   49.1180 C   0  0  0  0  0  0  0  0  0  0  0  0
   63.1860   33.7490   47.9380 C   0  0  0  0  0  0  0  0  0  0  0  0
   63.7720   34.6750   47.1400 F   0  0  0  0  0  0  0  0  0  0  0  0
   63.2190   32.3950   47.5830 C   0  0  0  0  0  0  0  0  0  0  0  0
   63.8330   32.0070   46.4370 F   0  0  0  0  0  0  0  0  0  0  0  0
   62.6110   31.4420   48.4070 C   0  0  0  0  0  0  0  0  0  0  0  0
   60.3970   27.9080   47.6320 C   0  0  0  0  0  0  0  0  0  0  0  0
   59.5600   27.7520   46.5250 C   0  0  0  0  0  0  0  0  0  0  0  0
   58.8210   29.3220   43.6000 H   0  0  0  0  0  0  0  0  0  0  0  0
   57.0266   28.8580   41.9493 H   0  0  0  0  0  0  0  0  0  0  0  0
   55.8318   28.9648   43.2998 H   0  0  0  0  0  0  0  0  0  0  0  0
   56.6047   31.0491   41.5792 H   0  0  0  0  0  0  0  0  0  0  0  0
   55.7052   31.2003   43.1398 H   0  0  0  0  0  0  0  0  0  0  0  0
   56.2938   32.9989   44.5447 H   0  0  0  0  0  0  0  0  0  0  0  0
   56.8033   31.5279   45.4556 H   0  0  0  0  0  0  0  0  0  0  0  0
   58.7490   34.4712   44.0747 H   0  0  0  0  0  0  0  0  0  0  0  0
   60.2391   35.8669   45.5074 H   0  0  0  0  0  0  0  0  0  0  0  0
   60.3939   35.4219   47.9581 H   0  0  0  0  0  0  0  0  0  0  0  0
   59.0833   33.5564   48.9763 H   0  0  0  0  0  0  0  0  0  0  0  0
   57.5884   32.1564   47.5497 H   0  0  0  0  0  0  0  0  0  0  0  0
   57.4794   30.4169   47.0368 H   0  0  0  0  0  0  0  0  0  0  0  0
   58.9941   30.7101   48.9881 H   0  0  0  0  0  0  0  0  0  0  0  0
   61.4398   33.5108   50.8690 H   0  0  0  0  0  0  0  0  0  0  0  0
   62.5256   35.2104   49.3985 H   0  0  0  0  0  0  0  0  0  0  0  0
   62.6414   30.3782   48.1288 H   0  0  0  0  0  0  0  0  0  0  0  0
   61.2196   27.1974   47.8004 H   0  0  0  0  0  0  0  0  0  0  0  0
   59.7289   26.9174   45.8286 H   0  0  0  0  0  0  0  0  0  0  0  0
  1  2  2  0
  2  3  1  0
  3  4  1  0
  4  5  1  0
  5  6  1  0
  6  7  1  0
  7  8  1  0
  8  9  2  0
  9 10  1  0
 10 11  2  0
 11 12  1  0
 12 13  2  0
  2 14  1  0
 14 15  2  0
 15 16  1  0
 16 17  2  0
 17 18  1  0
 18 19  1  0
 19 20  2  0
 19 21  2  0
 19 22  1  0
 22 23  2  0
 23 24  1  0
 24 25  2  0
 25 26  1  0
 25 27  1  0
 27 28  1  0
 27 29  2  0
 17 30  1  0
 30 31  2  0
 13  8  1  0
 31 14  1  0
 29 22  1  0
  3 32  1  0
  4 33  1  0
  4 34  1  0
  5 35  1  0
  5 36  1  0
  7 37  1  0
  7 38  1  0
  9 39  1  0
 10 40  1  0
 11 41  1  0
 12 42  1  0
 13 43  1  0
 15 44  1  0
 16 45  1  0
 23 46  1  0
 24 47  1  0
 29 48  1  0
 30 49  1  0
 31 50  1  0
M  CHG  1  18  -1
M  END
>  <UniqueID>  (74) 
67

>  <SMILES>  (74) 
O=C(NCCSCc1ccccc1)c1ccc([N-]S(=O)(=O)c2ccc(F)c(F)c2)cc1

>  <Energy>  (74) 
45.633940134108315

>  <Genealogy>  (74) 
O=C(NCCSCc1ccccc1)c1ccc([N-]S(=O)(=O)c2ccc(F)c(F)c2)cc1 (protonated)
O=C(NCCSCc1ccccc1)c1ccc([N-]S(=O)(=O)c2ccc(F)c(F)c2)cc1 (3D coordinates assigned)
O=C(NCCSCc1ccccc1)c1ccc([N-]S(=O)(=O)c2ccc(F)c(F)c2)cc1 (optimized conformer: 45.633940134108315 kcal/mol)

>  <smiles>  (74) 
O=C(NCCSCc1ccccc1)c1ccc(NS(=O)(=O)c2ccc(F)c(F)c2)cc1

>  <score_type>  (74) 
oracle

>  <origin>  (74) 
adg

>  <m_score__min__energy>  (74) 
-9.9000000000000004

>  <m_primary>  (74) 
energy

$$$$
74:0
     RDKit          3D

 36 38  0  0  0  0  0  0  0  0999 V2000
   55.2840   29.5860   44.5000 O   0  0  0  0  0  0  0  0  0  0  0  0
   56.7840   29.5810   44.5950 S   0  0  0  0  0  0  0  0  0  0  0  0
   57.3600   28.7820   43.4600 O   0  0  0  0  0  0  0  0  0  0  0  0
   57.2890   28.9040   46.1070 N   0  0  0  0  0  0  0  0  0  0  0  0
   58.3390   27.9440   46.2820 C   0  0  0  0  0  0  0  0  0  0  0  0
   59.3790   28.1580   47.2070 C   0  0  0  0  0  0  0  0  0  0  0  0
   60.3990   27.2170   47.3540 C   0  0  0  0  0  0  0  0  0  0  0  0
   60.3950   26.0540   46.5850 C   0  0  0  0  0  0  0  0  0  0  0  0
   59.3670   25.8240   45.6690 C   0  0  0  0  0  0  0  0  0  0  0  0
   58.3260   26.7580   45.5120 C   0  0  0  0  0  0  0  0  0  0  0  0
   57.2800   26.5120   44.5430 N   0  0  0  0  0  0  0  0  0  0  0  0
   56.7630   25.1740   44.6970 C   0  0  0  0  0  0  0  0  0  0  0  0
   55.9860   24.8370   45.8210 C   0  0  0  0  0  0  0  0  0  0  0  0
   55.4970   23.5360   45.9780 C   0  0  0  0  0  0  0  0  0  0  0  0
   55.7770   22.5620   45.0170 C   0  0  0  0  0  0  0  0  0  0  0  0
   56.5410   22.8860   43.8940 C   0  0  0  0  0  0  0  0  0  0  0  0
   57.0310   24.1860   43.7310 C   0  0  0  0  0  0  0  0  0  0  0  0
   57.3590   31.2340   44.5100 C   0  0  0  0  0  0  0  0  0  0  0  0
   57.4130   32.1200   45.5740 C   0  0  0  0  0  0  0  0  0  0  0  0
   57.9530   33.3620   45.2200 C   0  0  0  0  0  0  0  0  0  0  0  0
   58.3240   33.4480   43.8840 C   0  0  0  0  0  0  0  0  0  0  0  0
   57.9830   31.9770   43.1400 S   0  0  0  0  0  0  0  0  0  0  0  0
   59.3874   29.0729   47.8177 H   0  0  0  0  0  0  0  0  0  0  0  0
   61.2080   27.3932   48.0782 H   0  0  0  0  0  0  0  0  0  0  0  0
   61.2031   25.3166   46.7003 H   0  0  0  0  0  0  0  0  0  0  0  0
   59.3706   24.9048   45.0647 H   0  0  0  0  0  0  0  0  0  0  0  0
   56.4960   27.1950   44.6640 H   0  0  0  0  0  0  0  0  0  0  0  0
   57.6540   26.6620   43.5770 H   0  0  0  0  0  0  0  0  0  0  0  0
   55.7621   25.6009   46.5802 H   0  0  0  0  0  0  0  0  0  0  0  0
   54.8911   23.2796   46.8596 H   0  0  0  0  0  0  0  0  0  0  0  0
   55.3952   21.5384   45.1449 H   0  0  0  0  0  0  0  0  0  0  0  0
   56.7578   22.1182   43.1367 H   0  0  0  0  0  0  0  0  0  0  0  0
   57.6292   24.4376   42.8428 H   0  0  0  0  0  0  0  0  0  0  0  0
   57.0681   31.8735   46.5891 H   0  0  0  0  0  0  0  0  0  0  0  0
   58.0723   34.1916   45.9324 H   0  0  0  0  0  0  0  0  0  0  0  0
   58.7660   34.3286   43.3949 H   0  0  0  0  0  0  0  0  0  0  0  0
  1  2  2  0
  2  3  2  0
  2  4  1  0
  4  5  1  0
  5  6  2  0
  6  7  1  0
  7  8  2  0
  8  9  1  0
  9 10  2  0
 10 11  1  0
 11 12  1  0
 12 13  2  0
 13 14  1  0
 14 15  2  0
 15 16  1  0
 16 17  2  0
  2 18  1  0
 18 19  2  0
 19 20  1  0
 20 21  2  0
 21 22  1  0
 10  5  1  0
 17 12  1  0
 22 18  1  0
  6 23  1  0
  7 24  1  0
  8 25  1  0
  9 26  1  0
 11 27  1  0
 11 28  1  0
 13 29  1  0
 14 30  1  0
 15 31  1  0
 16 32  1  0
 17 33  1  0
 19 34  1  0
 20 35  1  0
 21 36  1  0
M  CHG  2   4  -1  11   1
M  END
>  <UniqueID>  (75) 
68

>  <SMILES>  (75) 
O=S(=O)([N-]c1ccccc1[NH2+]c1ccccc1)c1cccs1

>  <Energy>  (75) 
70.18907261652708

>  <Genealogy>  (75) 
O=S(=O)([N-]c1ccccc1[NH2+]c1ccccc1)c1cccs1 (protonated)
O=S(=O)([N-]c1ccccc1[NH2+]c1ccccc1)c1cccs1 (3D coordinates assigned)
O=S(=O)([N-]c1ccccc1[NH2+]c1ccccc1)c1cccs1 (optimized conformer: 70.18907261652708 kcal/mol)

>  <smiles>  (75) 
O=S(=O)(Nc1ccccc1Nc1ccccc1)c1cccs1

>  <score_type>  (75) 
oracle

>  <origin>  (75) 
adg

>  <m_score__min__energy>  (75) 
-8.3900000000000006

>  <m_primary>  (75) 
energy

$$$$
75:0
     RDKit          3D

 52 54  0  0  0  0  0  0  0  0999 V2000
   60.3910   34.5570   48.3110 C   0  0  0  0  0  0  0  0  0  0  0  0
   59.9140   35.0990   46.9690 C   0  0  0  0  0  0  0  0  0  0  0  0
   58.9740   34.1320   46.2960 C   0  0  0  0  0  0  0  0  0  0  0  0
   58.3930   34.4500   45.0580 C   0  0  0  0  0  0  0  0  0  0  0  0
   57.5000   33.5600   44.4480 C   0  0  0  0  0  0  0  0  0  0  0  0
   57.1950   32.3350   45.0610 C   0  0  0  0  0  0  0  0  0  0  0  0
   56.2180   31.4480   44.5020 N   0  0  0  0  0  0  0  0  0  0  0  0
   56.2310   30.0170   44.5880 C   0  0  0  0  0  0  0  0  0  0  0  0
   55.1350   29.4020   44.4880 O   0  0  0  0  0  0  0  0  0  0  0  0
   57.4990   29.2580   44.9350 C   0  0  1  0  0  0  0  0  0  0  0  0
   57.3830   28.6030   46.3330 C   0  0  0  0  0  0  0  0  0  0  0  0
   57.8550   27.1350   46.3830 C   0  0  0  0  0  0  0  0  0  0  0  0
   59.0890   26.8540   45.5990 N   0  0  2  0  0  0  0  0  0  0  0  0
   60.3130   27.0590   46.3570 C   0  0  0  0  0  0  0  0  0  0  0  0
   61.2310   26.1960   46.2880 O   0  0  0  0  0  0  0  0  0  0  0  0
   60.5470   28.2530   47.2050 C   0  0  0  0  0  0  0  0  0  0  0  0
   60.7730   29.5010   46.5990 C   0  0  0  0  0  0  0  0  0  0  0  0
   61.0060   30.6350   47.3790 C   0  0  0  0  0  0  0  0  0  0  0  0
   61.0430   30.5320   48.7690 C   0  0  0  0  0  0  0  0  0  0  0  0
   60.8560   29.2940   49.3850 C   0  0  0  0  0  0  0  0  0  0  0  0
   60.6040   28.1450   48.6160 C   0  0  0  0  0  0  0  0  0  0  0  0
   60.4640   26.8150   49.3100 C   0  0  0  0  0  0  0  0  0  0  0  0
   59.1610   27.5010   44.2600 C   0  0  0  0  0  0  0  0  0  0  0  0
   57.8700   28.2260   43.8600 C   0  0  0  0  0  0  0  0  0  0  0  0
   57.7750   32.0180   46.2940 C   0  0  0  0  0  0  0  0  0  0  0  0
   58.6730   32.9020   46.9010 C   0  0  0  0  0  0  0  0  0  0  0  0
   59.9024   35.1122   49.1253 H   0  0  0  0  0  0  0  0  0  0  0  0
   60.1332   33.4904   48.3882 H   0  0  0  0  0  0  0  0  0  0  0  0
   61.4817   34.6772   48.3882 H   0  0  0  0  0  0  0  0  0  0  0  0
   59.3915   36.0531   47.1322 H   0  0  0  0  0  0  0  0  0  0  0  0
   60.7900   35.2438   46.3196 H   0  0  0  0  0  0  0  0  0  0  0  0
   58.6401   35.4019   44.5652 H   0  0  0  0  0  0  0  0  0  0  0  0
   57.0363   33.8220   43.4855 H   0  0  0  0  0  0  0  0  0  0  0  0
   58.3204   29.9890   44.9665 H   0  0  0  0  0  0  0  0  0  0  0  0
   56.3284   28.6374   46.6440 H   0  0  0  0  0  0  0  0  0  0  0  0
   58.0433   29.1711   47.0048 H   0  0  0  0  0  0  0  0  0  0  0  0
   57.0467   26.5011   45.9896 H   0  0  0  0  0  0  0  0  0  0  0  0
   58.0980   26.9212   47.4343 H   0  0  0  0  0  0  0  0  0  0  0  0
   59.0490   25.8210   45.4190 H   0  0  0  0  0  0  0  0  0  0  0  0
   60.7662   29.5847   45.5022 H   0  0  0  0  0  0  0  0  0  0  0  0
   61.1606   31.6113   46.8963 H   0  0  0  0  0  0  0  0  0  0  0  0
   61.2200   31.4285   49.3813 H   0  0  0  0  0  0  0  0  0  0  0  0
   60.9062   29.2168   50.4811 H   0  0  0  0  0  0  0  0  0  0  0  0
   60.4799   26.9664   50.3994 H   0  0  0  0  0  0  0  0  0  0  0  0
   59.5117   26.3478   49.0186 H   0  0  0  0  0  0  0  0  0  0  0  0
   61.2981   26.1598   49.0186 H   0  0  0  0  0  0  0  0  0  0  0  0
   59.3713   26.7250   43.5093 H   0  0  0  0  0  0  0  0  0  0  0  0
   59.9558   28.2598   44.3099 H   0  0  0  0  0  0  0  0  0  0  0  0
   57.0555   27.4934   43.7604 H   0  0  0  0  0  0  0  0  0  0  0  0
   58.0247   28.7407   42.9002 H   0  0  0  0  0  0  0  0  0  0  0  0
   57.5234   31.0683   46.7888 H   0  0  0  0  0  0  0  0  0  0  0  0
   59.1455   32.6319   47.8569 H   0  0  0  0  0  0  0  0  0  0  0  0
  1  2  1  0
  2  3  1  0
  3  4  2  0
  4  5  1  0
  5  6  2  0
  6  7  1  0
  7  8  1  0
  8  9  2  0
  8 10  1  0
 10 11  1  0
 11 12  1  0
 12 13  1  0
 13 14  1  0
 14 15  2  0
 14 16  1  0
 16 17  2  0
 17 18  1  0
 18 19  2  0
 19 20  1  0
 20 21  2  0
 21 22  1  0
 13 23  1  0
 23 24  1  0
  6 25  1  0
 25 26  2  0
 26  3  1  0
 24 10  1  0
 21 16  1  0
  1 27  1  0
  1 28  1  0
  1 29  1  0
  2 30  1  0
  2 31  1  0
  4 32  1  0
  5 33  1  0
 10 34  1  1
 11 35  1  0
 11 36  1  0
 12 37  1  0
 12 38  1  0
 13 39  1  6
 17 40  1  0
 18 41  1  0
 19 42  1  0
 20 43  1  0
 22 44  1  0
 22 45  1  0
 22 46  1  0
 23 47  1  0
 23 48  1  0
 24 49  1  0
 24 50  1  0
 25 51  1  0
 26 52  1  0
M  CHG  2   7  -1  13   1
M  END
>  <UniqueID>  (76) 
69

>  <SMILES>  (76) 
CCc1ccc([N-]C(=O)C2CC[NH+](C(=O)c3ccccc3C)CC2)cc1

>  <Energy>  (76) 
74.0741781520687

>  <Genealogy>  (76) 
CCc1ccc([N-]C(=O)C2CC[NH+](C(=O)c3ccccc3C)CC2)cc1 (protonated)
CCc1ccc([N-]C(=O)C2CC[NH+](C(=O)c3ccccc3C)CC2)cc1 (3D coordinates assigned)
CCc1ccc([N-]C(=O)C2CC[NH+](C(=O)c3ccccc3C)CC2)cc1 (nonaromatic ring conformer: 74.0741781520687 kcal/mol)

>  <smiles>  (76) 
CCc1ccc(NC(=O)C2CCN(C(=O)c3ccccc3C)CC2)cc1

>  <score_type>  (76) 
oracle

>  <origin>  (76) 
adg

>  <m_score__min__energy>  (76) 
-8.6300000000000008

>  <m_primary>  (76) 
energy

$$$$
76:0
     RDKit          3D

 53 56  0  0  0  0  0  0  0  0999 V2000
   57.7720   31.9670   51.1720 C   0  0  0  0  0  0  0  0  0  0  0  0
   58.5920   31.7160   50.0360 O   0  0  0  0  0  0  0  0  0  0  0  0
   59.8330   32.3300   49.7910 C   0  0  0  0  0  0  0  0  0  0  0  0
   60.3310   33.3400   50.6330 C   0  0  0  0  0  0  0  0  0  0  0  0
   61.5600   33.9390   50.3650 C   0  0  0  0  0  0  0  0  0  0  0  0
   62.3160   33.5330   49.2680 C   0  0  0  0  0  0  0  0  0  0  0  0
   61.8480   32.5140   48.4160 C   0  0  0  0  0  0  0  0  0  0  0  0
   62.6200   32.0510   47.3370 O   0  0  0  0  0  0  0  0  0  0  0  0
   63.7050   32.7620   46.7510 C   0  0  0  0  0  0  0  0  0  0  0  0
   60.5870   31.9250   48.6670 C   0  0  0  0  0  0  0  0  0  0  0  0
   60.0620   30.8510   47.7910 C   0  0  0  0  0  0  0  0  0  0  0  0
   60.5800   29.5470   47.8380 C   0  0  0  0  0  0  0  0  0  0  0  0
   60.0450   28.5710   46.9960 C   0  0  0  0  0  0  0  0  0  0  0  0
   60.5020   27.3970   47.0410 O   0  0  0  0  0  0  0  0  0  0  0  0
   59.0090   28.9140   46.1110 C   0  0  0  0  0  0  0  0  0  0  0  0
   58.4220   27.9740   45.2510 C   0  0  0  0  0  0  0  0  0  0  0  0
   57.3890   28.3560   44.3950 C   0  0  0  0  0  0  0  0  0  0  0  0
   56.9360   29.6790   44.3770 C   0  0  0  0  0  0  0  0  0  0  0  0
   55.8970   30.0270   43.5200 O   0  0  0  0  0  0  0  0  0  0  0  0
   57.5250   30.6430   45.2170 C   0  0  0  0  0  0  0  0  0  0  0  0
   57.0210   32.0700   45.1990 C   0  0  0  0  0  0  0  0  0  0  0  0
   58.0920   33.0080   45.5940 N   0  0  0  0  0  0  0  0  0  0  0  0
   58.4100   33.9500   44.4910 C   0  0  0  0  0  0  0  0  0  0  0  0
   59.2760   35.1440   44.9540 C   0  0  0  0  0  0  0  0  0  0  0  0
   59.9520   34.8590   46.2950 C   0  0  0  0  0  0  0  0  0  0  0  0
   58.9100   34.5270   47.3750 C   0  0  0  0  0  0  0  0  0  0  0  0
   57.7060   33.7470   46.8120 C   0  0  0  0  0  0  0  0  0  0  0  0
   58.5540   30.2530   46.1000 C   0  0  0  0  0  0  0  0  0  0  0  0
   59.0920   31.1440   46.9290 O   0  0  0  0  0  0  0  0  0  0  0  0
   58.3522   31.7894   52.0895 H   0  0  0  0  0  0  0  0  0  0  0  0
   57.4279   33.0116   51.1522 H   0  0  0  0  0  0  0  0  0  0  0  0
   56.9021   31.2940   51.1522 H   0  0  0  0  0  0  0  0  0  0  0  0
   59.7467   33.6591   51.5086 H   0  0  0  0  0  0  0  0  0  0  0  0
   61.9351   34.7366   51.0231 H   0  0  0  0  0  0  0  0  0  0  0  0
   63.2855   34.0117   49.0656 H   0  0  0  0  0  0  0  0  0  0  0  0
   64.3416   33.1792   47.5452 H   0  0  0  0  0  0  0  0  0  0  0  0
   64.2982   32.0769   46.1275 H   0  0  0  0  0  0  0  0  0  0  0  0
   63.3137   33.5794   46.1275 H   0  0  0  0  0  0  0  0  0  0  0  0
   61.3977   29.2975   48.5302 H   0  0  0  0  0  0  0  0  0  0  0  0
   58.7772   26.9329   45.2517 H   0  0  0  0  0  0  0  0  0  0  0  0
   56.9275   27.6115   43.7296 H   0  0  0  0  0  0  0  0  0  0  0  0
   56.6792   32.3193   44.1836 H   0  0  0  0  0  0  0  0  0  0  0  0
   56.1905   32.1604   45.9146 H   0  0  0  0  0  0  0  0  0  0  0  0
   58.9555   33.4030   43.7079 H   0  0  0  0  0  0  0  0  0  0  0  0
   57.4584   34.3562   44.1176 H   0  0  0  0  0  0  0  0  0  0  0  0
   60.0505   35.3384   44.1975 H   0  0  0  0  0  0  0  0  0  0  0  0
   58.6204   36.0187   45.0770 H   0  0  0  0  0  0  0  0  0  0  0  0
   60.6355   34.0049   46.1794 H   0  0  0  0  0  0  0  0  0  0  0  0
   60.5072   35.7561   46.6063 H   0  0  0  0  0  0  0  0  0  0  0  0
   59.3914   33.9185   48.1547 H   0  0  0  0  0  0  0  0  0  0  0  0
   58.5331   35.4778   47.7799 H   0  0  0  0  0  0  0  0  0  0  0  0
   57.3500   33.0341   47.5703 H   0  0  0  0  0  0  0  0  0  0  0  0
   56.9081   34.4600   46.5574 H   0  0  0  0  0  0  0  0  0  0  0  0
  1  2  1  0
  2  3  1  0
  3  4  2  0
  4  5  1  0
  5  6  2  0
  6  7  1  0
  7  8  1  0
  8  9  1  0
  7 10  2  0
 10 11  1  0
 11 12  2  0
 12 13  1  0
 13 14  2  0
 13 15  1  0
 15 16  2  0
 16 17  1  0
 17 18  2  0
 18 19  1  0
 18 20  1  0
 20 21  1  0
 21 22  1  0
 22 23  1  0
 23 24  1  0
 24 25  1  0
 25 26  1  0
 26 27  1  0
 20 28  2  0
 28 29  1  0
 10  3  1  0
 29 11  1  0
 28 15  1  0
 27 22  1  0
  1 30  1  0
  1 31  1  0
  1 32  1  0
  4 33  1  0
  5 34  1  0
  6 35  1  0
  9 36  1  0
  9 37  1  0
  9 38  1  0
 12 39  1  0
 16 40  1  0
 17 41  1  0
 21 42  1  0
 21 43  1  0
 23 44  1  0
 23 45  1  0
 24 46  1  0
 24 47  1  0
 25 48  1  0
 25 49  1  0
 26 50  1  0
 26 51  1  0
 27 52  1  0
 27 53  1  0
M  CHG  1  19  -1
M  END
>  <UniqueID>  (77) 
70

>  <SMILES>  (77) 
COc1cccc(OC)c1-c1cc(=O)c2ccc([O-])c(CN3CCCCC3)c2o1

>  <Energy>  (77) 
70.88740507560935

>  <Genealogy>  (77) 
COc1cccc(OC)c1-c1cc(=O)c2ccc([O-])c(CN3CCCCC3)c2o1 (protonated)
COc1cccc(OC)c1-c1cc(=O)c2ccc([O-])c(CN3CCCCC3)c2o1 (3D coordinates assigned)
COc1cccc(OC)c1-c1cc(=O)c2ccc([O-])c(CN3CCCCC3)c2o1 (nonaromatic ring conformer: 70.88740507560935 kcal/mol)

>  <smiles>  (77) 
COc1cccc(OC)c1-c1cc(=O)c2ccc(O)c(CN3CCCCC3)c2o1

>  <score_type>  (77) 
oracle

>  <origin>  (77) 
adg

>  <m_score__min__energy>  (77) 
-9.7100000000000009

>  <m_primary>  (77) 
energy

$$$$
77:0
     RDKit          3D

 51 54  0  0  0  0  0  0  0  0999 V2000
   64.1340   33.1270   51.5910 C   0  0  0  0  0  0  0  0  0  0  0  0
   62.8490   33.9470   51.5610 C   0  0  0  0  0  0  0  0  0  0  0  0
   61.9750   33.4930   50.4730 N   0  0  0  0  0  0  0  0  0  0  0  0
   60.5400   33.5080   50.6340 C   0  0  0  0  0  0  0  0  0  0  0  0
   60.0160   32.9470   51.6350 O   0  0  0  0  0  0  0  0  0  0  0  0
   59.6500   34.2200   49.6480 C   0  0  0  0  0  0  0  0  0  0  0  0
   59.2430   33.3120   48.5630 N   0  0  0  0  0  0  0  0  0  0  0  0
   59.3080   31.9860   48.7720 N   0  0  0  0  0  0  0  0  0  0  0  0
   58.9280   31.0640   47.8300 C   0  0  0  0  0  0  0  0  0  0  0  0
   59.0450   29.6050   48.1700 C   0  0  0  0  0  0  0  0  0  0  0  0
   58.4390   31.5330   46.5860 C   0  0  0  0  0  0  0  0  0  0  0  0
   58.3640   32.9110   46.3990 C   0  0  0  0  0  0  0  0  0  0  0  0
   57.7500   33.2920   44.8780 S   0  0  0  0  0  0  0  0  0  0  0  0
   57.5670   31.6890   44.4180 C   0  0  0  0  0  0  0  0  0  0  0  0
   57.0780   31.2300   43.1970 C   0  0  0  0  0  0  0  0  0  0  0  0
   56.9980   29.8510   42.9860 C   0  0  0  0  0  0  0  0  0  0  0  0
   57.4070   28.9600   43.9900 C   0  0  0  0  0  0  0  0  0  0  0  0
   57.8980   29.4360   45.2160 C   0  0  0  0  0  0  0  0  0  0  0  0
   57.9810   30.8250   45.4380 C   0  0  0  0  0  0  0  0  0  0  0  0
   58.7570   33.8050   47.3820 C   0  0  0  0  0  0  0  0  0  0  0  0
   58.6610   35.0480   47.1820 O   0  0  0  0  0  0  0  0  0  0  0  0
   62.5680   33.1670   49.2030 C   0  0  0  0  0  0  0  0  0  0  0  0
   63.2880   34.1450   48.5020 C   0  0  0  0  0  0  0  0  0  0  0  0
   63.8760   33.8410   47.2740 C   0  0  0  0  0  0  0  0  0  0  0  0
   63.7490   32.5600   46.7360 C   0  0  0  0  0  0  0  0  0  0  0  0
   63.0280   31.5790   47.4220 C   0  0  0  0  0  0  0  0  0  0  0  0
   62.4260   31.8740   48.6610 C   0  0  0  0  0  0  0  0  0  0  0  0
   61.6790   30.9230   49.3730 O   0  0  0  0  0  0  0  0  0  0  0  0
   62.1750   30.1650   50.4700 C   0  0  0  0  0  0  0  0  0  0  0  0
   64.4258   32.9408   52.6351 H   0  0  0  0  0  0  0  0  0  0  0  0
   63.9685   32.1672   51.0798 H   0  0  0  0  0  0  0  0  0  0  0  0
   64.9348   33.6814   51.0798 H   0  0  0  0  0  0  0  0  0  0  0  0
   62.3231   33.8311   52.5202 H   0  0  0  0  0  0  0  0  0  0  0  0
   63.1050   35.0037   51.3943 H   0  0  0  0  0  0  0  0  0  0  0  0
   58.7526   34.5843   50.1695 H   0  0  0  0  0  0  0  0  0  0  0  0
   60.2077   35.0625   49.2131 H   0  0  0  0  0  0  0  0  0  0  0  0
   59.6600   31.6410   49.6940 H   0  0  0  0  0  0  0  0  0  0  0  0
   59.0548   29.4829   49.2632 H   0  0  0  0  0  0  0  0  0  0  0  0
   58.1877   29.0602   47.7479 H   0  0  0  0  0  0  0  0  0  0  0  0
   59.9782   29.2038   47.7479 H   0  0  0  0  0  0  0  0  0  0  0  0
   56.7618   31.9375   42.4163 H   0  0  0  0  0  0  0  0  0  0  0  0
   56.6137   29.4631   42.0311 H   0  0  0  0  0  0  0  0  0  0  0  0
   57.3421   27.8761   43.8143 H   0  0  0  0  0  0  0  0  0  0  0  0
   58.2155   28.7300   45.9975 H   0  0  0  0  0  0  0  0  0  0  0  0
   63.3896   35.1565   48.9223 H   0  0  0  0  0  0  0  0  0  0  0  0
   64.4404   34.6122   46.7293 H   0  0  0  0  0  0  0  0  0  0  0  0
   64.2175   32.3217   45.7697 H   0  0  0  0  0  0  0  0  0  0  0  0
   62.9300   30.5712   46.9923 H   0  0  0  0  0  0  0  0  0  0  0  0
   61.8650   30.6388   51.4131 H   0  0  0  0  0  0  0  0  0  0  0  0
   61.7702   29.1433   50.4226 H   0  0  0  0  0  0  0  0  0  0  0  0
   63.2733   30.1268   50.4226 H   0  0  0  0  0  0  0  0  0  0  0  0
  1  2  1  0
  2  3  1  0
  3  4  1  0
  4  5  2  0
  4  6  1  0
  6  7  1  0
  7  8  1  0
  8  9  2  0
  9 10  1  0
  9 11  1  0
 11 12  2  0
 12 13  1  0
 13 14  1  0
 14 15  2  0
 15 16  1  0
 16 17  2  0
 17 18  1  0
 18 19  2  0
 12 20  1  0
 20 21  2  0
  3 22  1  0
 22 23  2  0
 23 24  1  0
 24 25  2  0
 25 26  1  0
 26 27  2  0
 27 28  1  0
 28 29  1  0
 20  7  1  0
 27 22  1  0
 19 11  1  0
 19 14  1  0
  1 30  1  0
  1 31  1  0
  1 32  1  0
  2 33  1  0
  2 34  1  0
  6 35  1  0
  6 36  1  0
  8 37  1  0
 10 38  1  0
 10 39  1  0
 10 40  1  0
 15 41  1  0
 16 42  1  0
 17 43  1  0
 18 44  1  0
 23 45  1  0
 24 46  1  0
 25 47  1  0
 26 48  1  0
 29 49  1  0
 29 50  1  0
 29 51  1  0
M  CHG  1   8   1
M  END
>  <UniqueID>  (78) 
71

>  <SMILES>  (78) 
CCN(C(=O)Cn1[nH+]c(C)c2c(sc3ccccc32)c1=O)c1ccccc1OC

>  <Energy>  (78) 
101.00907852605695

>  <Genealogy>  (78) 
CCN(C(=O)Cn1[nH+]c(C)c2c(sc3ccccc32)c1=O)c1ccccc1OC (protonated)
CCN(C(=O)Cn1[nH+]c(C)c2c(sc3ccccc32)c1=O)c1ccccc1OC (3D coordinates assigned)
CCN(C(=O)Cn1[nH+]c(C)c2c(sc3ccccc32)c1=O)c1ccccc1OC (optimized conformer: 101.00907852605695 kcal/mol)

>  <smiles>  (78) 
CCN(C(=O)Cn1nc(C)c2c(sc3ccccc32)c1=O)c1ccccc1OC

>  <score_type>  (78) 
oracle

>  <origin>  (78) 
adg

>  <m_score__min__energy>  (78) 
-8.2200000000000006

>  <m_primary>  (78) 
energy

$$$$
78:0
     RDKit          3D

 29 31  0  0  0  0  0  0  0  0999 V2000
   57.3330   26.1610   46.3810 O   0  0  0  0  0  0  0  0  0  0  0  0
   56.5080   27.0270   45.9870 C   0  0  0  0  0  0  0  0  0  0  0  0
   55.1530   26.7170   45.9940 O   0  0  0  0  0  0  0  0  0  0  0  0
   56.9930   28.3480   45.5290 C   0  0  0  0  0  0  0  0  0  0  0  0
   56.6250   28.7790   44.2960 N   0  0  0  0  0  0  0  0  0  0  0  0
   57.0280   29.9740   43.8020 C   0  0  0  0  0  0  0  0  0  0  0  0
   56.6250   30.3690   42.5220 C   0  0  0  0  0  0  0  0  0  0  0  0
   57.0430   31.5950   42.0040 C   0  0  0  0  0  0  0  0  0  0  0  0
   57.8680   32.4300   42.7600 C   0  0  0  0  0  0  0  0  0  0  0  0
   58.2760   32.0450   44.0400 C   0  0  0  0  0  0  0  0  0  0  0  0
   57.8560   30.8090   44.5850 C   0  0  0  0  0  0  0  0  0  0  0  0
   58.2350   30.3910   45.8410 N   0  0  0  0  0  0  0  0  0  0  0  0
   59.0650   31.2170   46.6800 C   0  0  0  0  0  0  0  0  0  0  0  0
   60.4310   30.9300   46.8220 C   0  0  0  0  0  0  0  0  0  0  0  0
   61.2350   31.7350   47.6370 C   0  0  0  0  0  0  0  0  0  0  0  0
   60.6790   32.8280   48.3080 C   0  0  0  0  0  0  0  0  0  0  0  0
   59.3190   33.1200   48.1660 C   0  0  0  0  0  0  0  0  0  0  0  0
   58.5120   32.3170   47.3530 C   0  0  0  0  0  0  0  0  0  0  0  0
   57.8170   29.1740   46.3210 C   0  0  0  0  0  0  0  0  0  0  0  0
   58.1670   28.7970   47.4750 O   0  0  0  0  0  0  0  0  0  0  0  0
   55.9775   29.7118   41.9230 H   0  0  0  0  0  0  0  0  0  0  0  0
   56.7221   31.9043   40.9984 H   0  0  0  0  0  0  0  0  0  0  0  0
   58.1981   33.3944   42.3466 H   0  0  0  0  0  0  0  0  0  0  0  0
   58.9282   32.7077   44.6278 H   0  0  0  0  0  0  0  0  0  0  0  0
   60.8703   30.0718   46.2924 H   0  0  0  0  0  0  0  0  0  0  0  0
   62.3053   31.5074   47.7496 H   0  0  0  0  0  0  0  0  0  0  0  0
   61.3123   33.4593   48.9486 H   0  0  0  0  0  0  0  0  0  0  0  0
   58.8835   33.9813   48.6937 H   0  0  0  0  0  0  0  0  0  0  0  0
   57.4424   32.5483   47.2412 H   0  0  0  0  0  0  0  0  0  0  0  0
  1  2  2  0
  2  3  1  0
  2  4  1  0
  4  5  2  0
  5  6  1  0
  6  7  2  0
  7  8  1  0
  8  9  2  0
  9 10  1  0
 10 11  2  0
 11 12  1  0
 12 13  1  0
 13 14  2  0
 14 15  1  0
 15 16  2  0
 16 17  1  0
 17 18  2  0
 12 19  1  0
 19 20  2  0
 19  4  1  0
 11  6  1  0
 18 13  1  0
  7 21  1  0
  8 22  1  0
  9 23  1  0
 10 24  1  0
 14 25  1  0
 15 26  1  0
 16 27  1  0
 17 28  1  0
 18 29  1  0
M  CHG  1   3  -1
M  END
>  <UniqueID>  (79) 
72

>  <SMILES>  (79) 
O=C([O-])c1nc2ccccc2n(-c2ccccc2)c1=O

>  <Energy>  (79) 
49.13973237208705

>  <Genealogy>  (79) 
O=C([O-])c1nc2ccccc2n(-c2ccccc2)c1=O (protonated)
O=C([O-])c1nc2ccccc2n(-c2ccccc2)c1=O (3D coordinates assigned)
O=C([O-])c1nc2ccccc2n(-c2ccccc2)c1=O (optimized conformer: 49.13973237208705 kcal/mol)

>  <smiles>  (79) 
O=C(O)c1nc2ccccc2n(-c2ccccc2)c1=O

>  <score_type>  (79) 
oracle

>  <origin>  (79) 
adg

>  <m_score__min__energy>  (79) 
-9.1400000000000006

>  <m_primary>  (79) 
energy

$$$$
79:0
     RDKit          3D

 69 73  0  0  0  0  0  0  0  0999 V2000
   61.1608   34.2414   49.2180 H   0  0  0  0  0  0  0  0  0  0  0  0
   60.0640   34.1790   49.1620 C   0  0  0  0  0  0  0  0  0  0  0  0
   59.3840   34.1990   50.3200 C   0  0  0  0  0  0  0  0  0  0  0  0
   58.4051   34.7007   50.3233 H   0  0  0  0  0  0  0  0  0  0  0  0
   59.8580   33.5850   51.6240 C   0  0  0  0  0  0  0  0  0  0  0  0
   59.4389   34.1689   52.4567 H   0  0  0  0  0  0  0  0  0  0  0  0
   60.9577   33.6071   51.6118 H   0  0  0  0  0  0  0  0  0  0  0  0
   59.4510   32.1680   51.7920 N   0  0  1  0  0  0  0  0  0  0  0  0
   58.5500   32.2030   52.3270 H   0  0  0  0  0  0  0  0  0  0  0  0
   59.1250   31.5400   50.4870 C   0  0  0  0  0  0  0  0  0  0  0  0
   58.1706   31.9465   50.1212 H   0  0  0  0  0  0  0  0  0  0  0  0
   59.9371   31.7633   49.7794 H   0  0  0  0  0  0  0  0  0  0  0  0
   59.0020   30.0190   50.6220 C   0  0  0  0  0  0  0  0  0  0  0  0
   58.2474   29.7865   51.3878 H   0  0  0  0  0  0  0  0  0  0  0  0
   58.7048   29.6053   49.6471 H   0  0  0  0  0  0  0  0  0  0  0  0
   60.3530   29.3830   51.0340 C   0  0  1  0  0  0  0  0  0  0  0  0
   60.1306   28.5408   51.7057 H   0  0  0  0  0  0  0  0  0  0  0  0
   61.1000   28.8380   49.7980 C   0  0  0  0  0  0  0  0  0  0  0  0
   60.5970   27.9231   49.4517 H   0  0  0  0  0  0  0  0  0  0  0  0
   62.1399   28.6285   50.0892 H   0  0  0  0  0  0  0  0  0  0  0  0
   61.1180   29.8180   48.7000 N   0  0  0  0  0  0  0  0  0  0  0  0
   60.2990   29.8870   47.6080 C   0  0  0  0  0  0  0  0  0  0  0  0
   59.2300   28.9090   47.2790 C   0  0  0  0  0  0  0  0  0  0  0  0
   58.5720   28.3980   48.2260 O   0  0  0  0  0  0  0  0  0  0  0  0
   58.9360   28.5060   45.9200 N   0  0  0  0  0  0  0  0  0  0  0  0
   58.0990   29.2880   45.0550 C   0  0  0  0  0  0  0  0  0  0  0  0
   58.6390   30.3740   44.3490 C   0  0  0  0  0  0  0  0  0  0  0  0
   59.7072   30.6166   44.4493 H   0  0  0  0  0  0  0  0  0  0  0  0
   57.8230   31.1490   43.5180 C   0  0  0  0  0  0  0  0  0  0  0  0
   58.2498   32.0003   42.9674 H   0  0  0  0  0  0  0  0  0  0  0  0
   56.4650   30.8420   43.3870 C   0  0  0  0  0  0  0  0  0  0  0  0
   55.8221   31.4563   42.7394 H   0  0  0  0  0  0  0  0  0  0  0  0
   55.9240   29.7530   44.0800 C   0  0  0  0  0  0  0  0  0  0  0  0
   54.8565   29.5097   43.9739 H   0  0  0  0  0  0  0  0  0  0  0  0
   56.7390   28.9740   44.9070 C   0  0  0  0  0  0  0  0  0  0  0  0
   56.3133   28.1129   45.4430 H   0  0  0  0  0  0  0  0  0  0  0  0
   59.6120   27.3360   45.3570 C   0  0  0  0  0  0  0  0  0  0  0  0
   59.9809   26.6976   46.1733 H   0  0  0  0  0  0  0  0  0  0  0  0
   58.9039   26.7663   44.7373 H   0  0  0  0  0  0  0  0  0  0  0  0
   60.4592   27.6649   44.7373 H   0  0  0  0  0  0  0  0  0  0  0  0
   60.6500   30.9730   46.8060 C   0  0  0  0  0  0  0  0  0  0  0  0
   60.1905   31.2726   45.8525 H   0  0  0  0  0  0  0  0  0  0  0  0
   61.6910   31.5900   47.4580 C   0  0  0  0  0  0  0  0  0  0  0  0
   62.4240   32.7230   47.1080 C   0  0  0  0  0  0  0  0  0  0  0  0
   62.2001   33.2824   46.1877 H   0  0  0  0  0  0  0  0  0  0  0  0
   63.4580   33.1270   47.9690 C   0  0  0  0  0  0  0  0  0  0  0  0
   64.0572   34.0163   47.7238 H   0  0  0  0  0  0  0  0  0  0  0  0
   63.7330   32.3990   49.1470 C   0  0  0  0  0  0  0  0  0  0  0  0
   64.5438   32.7256   49.8148 H   0  0  0  0  0  0  0  0  0  0  0  0
   62.9760   31.2580   49.4720 C   0  0  0  0  0  0  0  0  0  0  0  0
   63.1828   30.6833   50.3868 H   0  0  0  0  0  0  0  0  0  0  0  0
   61.9530   30.8760   48.5980 C   0  0  0  0  0  0  0  0  0  0  0  0
   61.2410   30.3790   51.8210 C   0  0  0  0  0  0  0  0  0  0  0  0
   61.8848   29.8131   52.5104 H   0  0  0  0  0  0  0  0  0  0  0  0
   61.8401   30.9480   51.0949 H   0  0  0  0  0  0  0  0  0  0  0  0
   60.4020   31.3790   52.6330 C   0  0  0  0  0  0  0  0  0  0  0  0
   59.8242   30.8214   53.3849 H   0  0  0  0  0  0  0  0  0  0  0  0
   61.1001   32.0927   53.0948 H   0  0  0  0  0  0  0  0  0  0  0  0
   59.4570   34.0800   47.8200 C   0  0  0  0  0  0  0  0  0  0  0  0
   59.8630   34.9210   46.7720 C   0  0  0  0  0  0  0  0  0  0  0  0
   60.6731   35.6472   46.9346 H   0  0  0  0  0  0  0  0  0  0  0  0
   59.2410   34.8390   45.5210 C   0  0  0  0  0  0  0  0  0  0  0  0
   59.5771   35.4858   44.6972 H   0  0  0  0  0  0  0  0  0  0  0  0
   58.1950   33.9380   45.3170 C   0  0  0  0  0  0  0  0  0  0  0  0
   57.7205   33.8608   44.3276 H   0  0  0  0  0  0  0  0  0  0  0  0
   57.7500   33.1330   46.3710 C   0  0  0  0  0  0  0  0  0  0  0  0
   56.9094   32.4404   46.2172 H   0  0  0  0  0  0  0  0  0  0  0  0
   58.3740   33.2090   47.6200 C   0  0  0  0  0  0  0  0  0  0  0  0
   58.0146   32.5832   48.4502 H   0  0  0  0  0  0  0  0  0  0  0  0
  1  2  1  0
  2  3  2  0
  3  4  1  0
  3  5  1  0
  5  6  1  0
  5  7  1  0
  5  8  1  0
  8  9  1  1
  8 10  1  0
 10 11  1  0
 10 12  1  0
 10 13  1  0
 13 14  1  0
 13 15  1  0
 13 16  1  0
 16 17  1  1
 16 18  1  0
 18 19  1  0
 18 20  1  0
 18 21  1  0
 21 22  1  0
 22 23  1  0
 23 24  2  0
 23 25  1  0
 25 26  1  0
 26 27  2  0
 27 28  1  0
 27 29  1  0
 29 30  1  0
 29 31  2  0
 31 32  1  0
 31 33  1  0
 33 34  1  0
 33 35  2  0
 35 36  1  0
 25 37  1  0
 37 38  1  0
 37 39  1  0
 37 40  1  0
 22 41  2  0
 41 42  1  0
 41 43  1  0
 43 44  2  0
 44 45  1  0
 44 46  1  0
 46 47  1  0
 46 48  2  0
 48 49  1  0
 48 50  1  0
 50 51  1  0
 50 52  2  0
 16 53  1  0
 53 54  1  0
 53 55  1  0
 53 56  1  0
 56 57  1  0
 56 58  1  0
  2 59  1  0
 59 60  2  0
 60 61  1  0
 60 62  1  0
 62 63  1  0
 62 64  2  0
 64 65  1  0
 64 66  1  0
 66 67  1  0
 66 68  2  0
 68 69  1  0
 56  8  1  0
 68 59  1  0
 52 21  1  0
 35 26  1  0
 52 43  1  0
M  CHG  1   8   1
M  END
>  <UniqueID>  (80) 
73

>  <SMILES>  (80) 
CN(C(=O)c1cc2ccccc2n1CC1CC[NH+](C/C=C\c2ccccc2)CC1)c1ccccc1

>  <Energy>  (80) 
132.55401268168345

>  <Genealogy>  (80) 
CN(C(=O)c1cc2ccccc2n1CC1CC[NH+](CC=Cc2ccccc2)CC1)c1ccccc1 (protonated)
CN(C(=O)c1cc2ccccc2n1CC1CC[NH+](C/C=C\c2ccccc2)CC1)c1ccccc1 (cis-trans isomerization)
CN(C(=O)c1cc2ccccc2n1CC1CC[NH+](C/C=C\c2ccccc2)CC1)c1ccccc1 (3D coordinates assigned)
CN(C(=O)c1cc2ccccc2n1CC1CC[NH+](C/C=C\c2ccccc2)CC1)c1ccccc1 (nonaromatic ring conformer: 132.55401268168345 kcal/mol)

>  <smiles>  (80) 
CN(C(=O)c1cc2ccccc2n1CC1CCN(CC=Cc2ccccc2)CC1)c1ccccc1

>  <score_type>  (80) 
oracle

>  <origin>  (80) 
adg

>  <m_score__min__energy>  (80) 
-8.4600000000000009

>  <m_primary>  (80) 
energy

$$$$
80:0
     RDKit          3D

 51 53  0  0  0  0  0  0  0  0999 V2000
   60.0170   34.9590   47.2430 C   0  0  0  0  0  0  0  0  0  0  0  0
   59.4860   34.7670   45.9360 O   0  0  0  0  0  0  0  0  0  0  0  0
   58.7850   33.6230   45.5270 C   0  0  0  0  0  0  0  0  0  0  0  0
   58.4860   32.5650   46.4070 C   0  0  0  0  0  0  0  0  0  0  0  0
   57.7960   31.4400   45.9460 C   0  0  0  0  0  0  0  0  0  0  0  0
   57.3920   31.3610   44.6090 C   0  0  0  0  0  0  0  0  0  0  0  0
   56.5070   29.9160   44.0190 S   0  0  0  0  0  0  0  0  0  0  0  0
   57.7110   28.7740   44.7100 C   0  0  0  0  0  0  0  0  0  0  0  0
   59.0740   28.9920   44.4700 C   0  0  0  0  0  0  0  0  0  0  0  0
   60.0300   28.1210   44.9960 C   0  0  0  0  0  0  0  0  0  0  0  0
   59.6310   27.0310   45.7720 C   0  0  0  0  0  0  0  0  0  0  0  0
   60.8340   25.9420   46.4390 Cl  0  0  0  0  0  0  0  0  0  0  0  0
   58.2720   26.8050   46.0150 C   0  0  0  0  0  0  0  0  0  0  0  0
   57.3000   27.6600   45.4650 C   0  0  0  0  0  0  0  0  0  0  0  0
   55.9000   27.4350   45.6910 N   0  0  0  0  0  0  0  0  0  0  0  0
   55.2930   26.1730   45.9940 C   0  0  0  0  0  0  0  0  0  0  0  0
   54.1030   25.9680   45.6420 O   0  0  0  0  0  0  0  0  0  0  0  0
   56.0080   25.1320   46.6700 N   0  0  0  0  0  0  0  0  0  0  0  0
   56.2930   23.8120   46.1060 C   0  0  2  0  0  0  0  0  0  0  0  0
   55.0630   22.9180   46.2300 C   0  0  0  0  0  0  0  0  0  0  0  0
   55.2300   22.1200   47.5230 C   0  0  0  0  0  0  0  0  0  0  0  0
   56.6210   22.4500   48.0760 C   0  0  1  0  0  0  0  0  0  0  0  0
   57.3320   21.2410   48.5010 N   0  0  0  0  0  0  0  0  0  0  0  0
   57.7220   21.3190   50.1940 S   0  0  0  0  0  0  0  0  0  0  0  0
   56.4340   20.5180   51.1200 C   0  0  0  0  0  0  0  0  0  0  0  0
   59.0250   20.6150   50.4510 O   0  0  0  0  0  0  0  0  0  0  0  0
   57.8290   22.7520   50.6360 O   0  0  0  0  0  0  0  0  0  0  0  0
   57.3650   23.1220   46.9320 C   0  0  0  0  0  0  0  0  0  0  0  0
   57.6860   32.4110   43.7320 C   0  0  0  0  0  0  0  0  0  0  0  0
   58.3780   33.5350   44.1900 C   0  0  0  0  0  0  0  0  0  0  0  0
   59.2584   34.6847   47.9909 H   0  0  0  0  0  0  0  0  0  0  0  0
   60.9068   34.3257   47.3740 H   0  0  0  0  0  0  0  0  0  0  0  0
   60.2960   36.0149   47.3740 H   0  0  0  0  0  0  0  0  0  0  0  0
   58.7964   32.6240   47.4606 H   0  0  0  0  0  0  0  0  0  0  0  0
   57.5700   30.6143   46.6367 H   0  0  0  0  0  0  0  0  0  0  0  0
   59.3924   29.8533   43.8644 H   0  0  0  0  0  0  0  0  0  0  0  0
   61.0983   28.2936   44.7989 H   0  0  0  0  0  0  0  0  0  0  0  0
   57.9619   25.9542   46.6395 H   0  0  0  0  0  0  0  0  0  0  0  0
   56.5989   23.9552   45.0591 H   0  0  0  0  0  0  0  0  0  0  0  0
   54.1513   23.5317   46.2781 H   0  0  0  0  0  0  0  0  0  0  0  0
   54.9698   22.2497   45.3613 H   0  0  0  0  0  0  0  0  0  0  0  0
   54.4561   22.4103   48.2489 H   0  0  0  0  0  0  0  0  0  0  0  0
   55.1279   21.0411   47.3347 H   0  0  0  0  0  0  0  0  0  0  0  0
   56.5489   23.0956   48.9637 H   0  0  0  0  0  0  0  0  0  0  0  0
   56.6271   20.6381   52.1962 H   0  0  0  0  0  0  0  0  0  0  0  0
   55.4645   20.9727   50.8685 H   0  0  0  0  0  0  0  0  0  0  0  0
   56.4131   19.4473   50.8685 H   0  0  0  0  0  0  0  0  0  0  0  0
   58.0850   23.8574   47.3202 H   0  0  0  0  0  0  0  0  0  0  0  0
   57.9393   22.3980   46.3354 H   0  0  0  0  0  0  0  0  0  0  0  0
   57.3716   32.3513   42.6796 H   0  0  0  0  0  0  0  0  0  0  0  0
   58.6048   34.3570   43.4951 H   0  0  0  0  0  0  0  0  0  0  0  0
  1  2  1  0
  2  3  1  0
  3  4  2  0
  4  5  1  0
  5  6  2  0
  6  7  1  0
  7  8  1  0
  8  9  2  0
  9 10  1  0
 10 11  2  0
 11 12  1  0
 11 13  1  0
 13 14  2  0
 14 15  1  0
 15 16  1  0
 16 17  2  0
 16 18  1  0
 18 19  1  0
 19 20  1  0
 20 21  1  0
 21 22  1  0
 22 23  1  0
 23 24  1  0
 24 25  1  0
 24 26  2  0
 24 27  2  0
 22 28  1  0
  6 29  1  0
 29 30  2  0
 30  3  1  0
 14  8  1  0
 28 19  1  0
  1 31  1  0
  1 32  1  0
  1 33  1  0
  4 34  1  0
  5 35  1  0
  9 36  1  0
 10 37  1  0
 13 38  1  0
 19 39  1  6
 20 40  1  0
 20 41  1  0
 21 42  1  0
 21 43  1  0
 22 44  1  1
 25 45  1  0
 25 46  1  0
 25 47  1  0
 28 48  1  0
 28 49  1  0
 29 50  1  0
 30 51  1  0
M  CHG  3  15  -1  18  -1  23  -1
M  END
>  <UniqueID>  (81) 
74

>  <SMILES>  (81) 
COc1ccc(Sc2ccc(Cl)cc2[N-]C(=O)[N-][C@@H]2CC[C@@H]([N-]S(C)(=O)=O)C2)cc1

>  <Energy>  (81) 
48.30032066559486

>  <Genealogy>  (81) 
COc1ccc(Sc2ccc(Cl)cc2[N-]C(=O)[N-]C2CCC([N-]S(C)(=O)=O)C2)cc1 (protonated)
COc1ccc(Sc2ccc(Cl)cc2[N-]C(=O)[N-][C@@H]2CC[C@@H]([N-]S(C)(=O)=O)C2)cc1 (chirality)
COc1ccc(Sc2ccc(Cl)cc2[N-]C(=O)[N-][C@@H]2CC[C@@H]([N-]S(C)(=O)=O)C2)cc1 (3D coordinates assigned)
COc1ccc(Sc2ccc(Cl)cc2[N-]C(=O)[N-][C@@H]2CC[C@@H]([N-]S(C)(=O)=O)C2)cc1 (nonaromatic ring conformer: 48.30032066559486 kcal/mol)

>  <smiles>  (81) 
COc1ccc(Sc2ccc(Cl)cc2NC(=O)NC2CCC(NS(C)(=O)=O)C2)cc1

>  <score_type>  (81) 
oracle

>  <origin>  (81) 
adg

>  <m_score__min__energy>  (81) 
-14.65

>  <m_primary>  (81) 
energy

$$$$
81:0
     RDKit          3D

 36 38  0  0  0  0  0  0  0  0999 V2000
   57.2670   28.1470   44.8510 O   0  0  0  0  0  0  0  0  0  0  0  0
   56.5360   29.1700   44.8080 C   0  0  0  0  0  0  0  0  0  0  0  0
   55.1560   29.0140   44.8520 O   0  0  0  0  0  0  0  0  0  0  0  0
   57.1490   30.5060   44.6290 C   0  0  0  0  0  0  0  0  0  0  0  0
   57.8010   31.1880   45.5820 C   0  0  0  0  0  0  0  0  0  0  0  0
   58.1620   30.6120   46.9030 C   0  0  0  0  0  0  0  0  0  0  0  0
   58.2000   29.3610   47.0560 O   0  0  0  0  0  0  0  0  0  0  0  0
   58.5880   31.4760   47.9630 N   0  0  0  0  0  0  0  0  0  0  0  0
   59.9380   31.8680   48.2420 C   0  0  0  0  0  0  0  0  0  0  0  0
   60.9810   31.1100   47.6930 C   0  0  0  0  0  0  0  0  0  0  0  0
   62.3130   31.4630   47.9270 C   0  0  0  0  0  0  0  0  0  0  0  0
   62.6130   32.5890   48.6990 C   0  0  0  0  0  0  0  0  0  0  0  0
   64.2850   33.0330   48.9900 Cl  0  0  0  0  0  0  0  0  0  0  0  0
   61.5800   33.3690   49.2260 C   0  0  0  0  0  0  0  0  0  0  0  0
   60.2450   33.0190   48.9940 C   0  0  0  0  0  0  0  0  0  0  0  0
   59.2650   33.8390   49.4510 F   0  0  0  0  0  0  0  0  0  0  0  0
   58.1600   32.6120   45.2160 C   0  0  0  0  0  0  0  0  0  0  0  0
   57.3130   33.6440   45.9900 C   0  0  0  0  0  0  0  0  0  0  0  0
   58.2930   34.5940   46.6720 C   0  0  0  0  0  0  0  0  0  0  0  0
   59.6240   34.4050   45.9660 C   0  0  0  0  0  0  0  0  0  0  0  0
   59.6310   32.9580   45.5070 C   0  0  0  0  0  0  0  0  0  0  0  0
   57.8580   32.7960   43.4180 S   0  0  0  0  0  0  0  0  0  0  0  0
   56.9650   31.2200   43.3350 C   0  0  0  0  0  0  0  0  0  0  0  0
   60.7498   30.2309   47.0735 H   0  0  0  0  0  0  0  0  0  0  0  0
   63.1256   30.8544   47.5034 H   0  0  0  0  0  0  0  0  0  0  0  0
   61.8170   34.2607   49.8249 H   0  0  0  0  0  0  0  0  0  0  0  0
   56.6665   34.2008   45.2957 H   0  0  0  0  0  0  0  0  0  0  0  0
   56.6640   33.1492   46.7276 H   0  0  0  0  0  0  0  0  0  0  0  0
   57.9506   35.6343   46.5689 H   0  0  0  0  0  0  0  0  0  0  0  0
   58.3754   34.3815   47.7481 H   0  0  0  0  0  0  0  0  0  0  0  0
   59.7026   35.0833   45.1036 H   0  0  0  0  0  0  0  0  0  0  0  0
   60.4745   34.6303   46.6262 H   0  0  0  0  0  0  0  0  0  0  0  0
   60.2395   32.8461   44.5975 H   0  0  0  0  0  0  0  0  0  0  0  0
   60.0646   32.2909   46.2666 H   0  0  0  0  0  0  0  0  0  0  0  0
   55.8949   31.4081   43.1635 H   0  0  0  0  0  0  0  0  0  0  0  0
   57.3542   30.6085   42.5076 H   0  0  0  0  0  0  0  0  0  0  0  0
  1  2  2  0
  2  3  1  0
  2  4  1  0
  4  5  2  0
  5  6  1  0
  6  7  2  0
  6  8  1  0
  8  9  1  0
  9 10  2  0
 10 11  1  0
 11 12  2  0
 12 13  1  0
 12 14  1  0
 14 15  2  0
 15 16  1  0
  5 17  1  0
 17 18  1  0
 18 19  1  0
 19 20  1  0
 20 21  1  0
 17 22  1  0
 22 23  1  0
 23  4  1  0
 15  9  1  0
 21 17  1  0
 10 24  1  0
 11 25  1  0
 14 26  1  0
 18 27  1  0
 18 28  1  0
 19 29  1  0
 19 30  1  0
 20 31  1  0
 20 32  1  0
 21 33  1  0
 21 34  1  0
 23 35  1  0
 23 36  1  0
M  CHG  2   3  -1   8  -1
M  END
>  <UniqueID>  (82) 
75

>  <SMILES>  (82) 
O=C([O-])C1=C(C(=O)[N-]c2ccc(Cl)cc2F)C2(CCCC2)SC1

>  <Energy>  (82) 
48.30609191792404

>  <Genealogy>  (82) 
O=C([O-])C1=C(C(=O)[N-]c2ccc(Cl)cc2F)C2(CCCC2)SC1 (protonated)
O=C([O-])C1=C(C(=O)[N-]c2ccc(Cl)cc2F)C2(CCCC2)SC1 (3D coordinates assigned)
O=C([O-])C1=C(C(=O)[N-]c2ccc(Cl)cc2F)C2(CCCC2)SC1 (nonaromatic ring conformer: 48.30609191792404 kcal/mol)

>  <smiles>  (82) 
O=C(O)C1=C(C(=O)Nc2ccc(Cl)cc2F)C2(CCCC2)SC1

>  <score_type>  (82) 
oracle

>  <origin>  (82) 
adg

>  <m_score__min__energy>  (82) 
-11.69

>  <m_primary>  (82) 
energy

$$$$
82:0
     RDKit          3D

 46 49  0  0  1  0  0  0  0  0999 V2000
   58.1240   26.9760   42.7020 C   0  0  0  0  0  0  0  0  0  0  0  0
   57.9380   26.5740   44.1480 C   0  0  0  0  0  0  0  0  0  0  0  0
   58.6080   27.5560   45.0370 C   0  0  0  0  0  0  0  0  0  0  0  0
   58.2120   27.8010   46.3360 C   0  0  0  0  0  0  0  0  0  0  0  0
   58.8830   28.7410   47.1290 C   0  0  0  0  0  0  0  0  0  0  0  0
   59.9580   29.4360   46.6140 C   0  0  0  0  0  0  0  0  0  0  0  0
   60.7300   30.3630   47.3390 N   0  0  0  0  0  0  0  0  0  0  0  0
   60.8900   31.7350   47.1060 C   0  0  0  0  0  0  0  0  0  0  0  0
   59.7610   32.4890   46.7840 C   0  0  0  0  0  0  0  0  0  0  0  0
   59.8110   33.8350   46.5210 C   0  0  0  0  0  0  0  0  0  0  0  0
   58.7780   34.5520   46.2210 N   0  0  0  0  0  0  0  0  0  0  0  0
   58.1770   34.5550   44.9070 C   0  0  0  0  0  0  0  0  0  0  0  0
   57.7630   33.2050   44.4580 C   0  0  0  0  0  0  0  0  0  0  0  0
   58.1460   32.8050   43.1940 C   0  0  0  0  0  0  0  0  0  0  0  0
   57.7810   31.5510   42.7400 C   0  0  0  0  0  0  0  0  0  0  0  0
   57.0310   30.7140   43.5700 C   0  0  0  0  0  0  0  0  0  0  0  0
   56.6920   31.1590   44.7820 N   0  0  0  0  0  0  0  0  0  0  0  0
   57.0220   32.3650   45.2660 C   0  0  0  0  0  0  0  0  0  0  0  0
   60.9890   34.4560   46.5740 N   0  0  0  0  0  0  0  0  0  0  0  0
   62.0880   33.7500   46.8810 C   0  0  0  0  0  0  0  0  0  0  0  0
   63.3920   34.1960   46.9680 C   0  0  0  0  0  0  0  0  0  0  0  0
   64.1330   33.0840   47.2890 C   0  0  0  0  0  0  0  0  0  0  0  0
   63.2710   32.0390   47.3810 N   0  0  0  0  0  0  0  0  0  0  0  0
   62.0470   32.4110   47.1440 N   0  0  0  0  0  0  0  0  0  0  0  0
   60.3450   29.1710   45.2910 C   0  0  0  0  0  0  0  0  0  0  0  0
   59.6800   28.2460   44.5140 C   0  0  0  0  0  0  0  0  0  0  0  0
   58.5855   27.9734   42.6552 H   0  0  0  0  0  0  0  0  0  0  0  0
   58.7760   26.2463   42.1995 H   0  0  0  0  0  0  0  0  0  0  0  0
   57.1458   27.0006   42.1995 H   0  0  0  0  0  0  0  0  0  0  0  0
   56.8637   26.5436   44.3826 H   0  0  0  0  0  0  0  0  0  0  0  0
   58.3823   25.5803   44.3070 H   0  0  0  0  0  0  0  0  0  0  0  0
   57.3570   27.2502   46.7550 H   0  0  0  0  0  0  0  0  0  0  0  0
   58.5529   28.9250   48.1621 H   0  0  0  0  0  0  0  0  0  0  0  0
   61.2550   29.9520   48.1780 H   0  0  0  0  0  0  0  0  0  0  0  0
   58.7862   31.9813   46.7389 H   0  0  0  0  0  0  0  0  0  0  0  0
   57.2898   35.2049   44.9286 H   0  0  0  0  0  0  0  0  0  0  0  0
   58.9353   34.9198   44.1986 H   0  0  0  0  0  0  0  0  0  0  0  0
   58.7360   33.4773   42.5538 H   0  0  0  0  0  0  0  0  0  0  0  0
   58.0782   31.2157   41.7354 H   0  0  0  0  0  0  0  0  0  0  0  0
   56.7271   29.7121   43.2327 H   0  0  0  0  0  0  0  0  0  0  0  0
   56.7124   32.6756   46.2748 H   0  0  0  0  0  0  0  0  0  0  0  0
   63.7589   35.2214   46.8135 H   0  0  0  0  0  0  0  0  0  0  0  0
   65.2216   33.0474   47.4427 H   0  0  0  0  0  0  0  0  0  0  0  0
   63.6150   31.0830   47.5990 H   0  0  0  0  0  0  0  0  0  0  0  0
   61.2002   29.7148   44.8633 H   0  0  0  0  0  0  0  0  0  0  0  0
   60.0044   28.0595   43.4796 H   0  0  0  0  0  0  0  0  0  0  0  0
  1  2  1  0
  2  3  1  0
  3  4  2  0
  4  5  1  0
  5  6  2  0
  6  7  1  0
  7  8  1  0
  8  9  2  0
  9 10  1  0
 10 11  2  0
 11 12  1  0
 12 13  1  0
 13 14  2  0
 14 15  1  0
 15 16  2  0
 16 17  1  0
 17 18  2  0
 10 19  1  0
 19 20  2  0
 20 21  1  0
 21 22  2  0
 22 23  1  0
 23 24  1  0
  6 25  1  0
 25 26  2  0
 26  3  1  0
 24  8  1  0
 18 13  1  0
 24 20  1  0
  1 27  1  0
  1 28  1  0
  1 29  1  0
  2 30  1  0
  2 31  1  0
  4 32  1  0
  5 33  1  0
  7 34  1  0
  9 35  1  0
 12 36  1  0
 12 37  1  0
 14 38  1  0
 15 39  1  0
 16 40  1  0
 18 41  1  0
 21 42  1  0
 22 43  1  0
 23 44  1  0
 25 45  1  0
 26 46  1  0
M  END
>  <smiles>  (83) 
CCc1ccc(Nc2cc(=NCc3cccnc3)nc3cc[nH]n23)cc1

>  <score_type>  (83) 
oracle

>  <origin>  (83) 
adg

>  <m_score__min__energy>  (83) 
-7.9699999999999998

>  <m_primary>  (83) 
energy

$$$$
83:0
     RDKit          3D

 46 48  0  0  0  0  0  0  0  0999 V2000
   54.9660   26.3280   45.9920 N   0  0  0  0  0  0  0  0  0  0  0  0
   56.6790   26.1190   46.0940 S   0  0  0  0  0  0  0  0  0  0  0  0
   57.0490   25.6530   47.4740 O   0  0  0  0  0  0  0  0  0  0  0  0
   57.1190   25.0790   45.0990 O   0  0  0  0  0  0  0  0  0  0  0  0
   57.4820   27.6500   45.7500 C   0  0  0  0  0  0  0  0  0  0  0  0
   57.4250   28.2050   44.4650 C   0  0  0  0  0  0  0  0  0  0  0  0
   58.0690   29.4160   44.1950 C   0  0  0  0  0  0  0  0  0  0  0  0
   58.7590   30.0830   45.2100 C   0  0  0  0  0  0  0  0  0  0  0  0
   58.8070   29.5430   46.5010 C   0  0  0  0  0  0  0  0  0  0  0  0
   59.6650   30.3910   47.7870 S   0  0  0  0  0  0  0  0  0  0  0  0
   61.1240   30.5370   47.4460 O   0  0  0  0  0  0  0  0  0  0  0  0
   59.5380   29.5970   49.0570 O   0  0  0  0  0  0  0  0  0  0  0  0
   58.9740   31.9670   48.0240 N   0  0  0  0  0  0  0  0  0  0  0  0
   58.7880   32.9320   46.9660 C   0  0  0  0  0  0  0  0  0  0  0  0
   57.5770   33.0060   46.2490 C   0  0  0  0  0  0  0  0  0  0  0  0
   57.3950   33.9760   45.2600 C   0  0  0  0  0  0  0  0  0  0  0  0
   58.4150   34.8820   44.9670 C   0  0  0  0  0  0  0  0  0  0  0  0
   59.6240   34.8140   45.6580 C   0  0  0  0  0  0  0  0  0  0  0  0
   59.8230   33.8440   46.6490 C   0  0  0  0  0  0  0  0  0  0  0  0
   61.0770   33.8000   47.3410 N   0  0  0  0  0  0  0  0  0  0  0  0
   61.1370   34.1840   48.7550 C   0  0  0  0  0  0  0  0  0  0  0  0
   62.0290   33.2070   49.5390 C   0  0  0  0  0  0  0  0  0  0  0  0
   63.2530   32.6980   48.7400 C   0  0  0  0  0  0  0  0  0  0  0  0
   63.5390   33.5320   47.4870 C   0  0  0  0  0  0  0  0  0  0  0  0
   62.3080   33.5680   46.5740 C   0  0  0  0  0  0  0  0  0  0  0  0
   58.1760   28.3230   46.7660 C   0  0  0  0  0  0  0  0  0  0  0  0
   54.7100   27.0780   46.6750 H   0  0  0  0  0  0  0  0  0  0  0  0
   56.8726   27.6870   43.6672 H   0  0  0  0  0  0  0  0  0  0  0  0
   58.0324   29.8440   43.1824 H   0  0  0  0  0  0  0  0  0  0  0  0
   59.2660   31.0351   44.9945 H   0  0  0  0  0  0  0  0  0  0  0  0
   58.5710   32.1470   48.9730 H   0  0  0  0  0  0  0  0  0  0  0  0
   56.7681   32.2940   46.4699 H   0  0  0  0  0  0  0  0  0  0  0  0
   56.4436   34.0257   44.7100 H   0  0  0  0  0  0  0  0  0  0  0  0
   58.2655   35.6484   44.1923 H   0  0  0  0  0  0  0  0  0  0  0  0
   60.4277   35.5274   45.4233 H   0  0  0  0  0  0  0  0  0  0  0  0
   61.5520   35.1994   48.8374 H   0  0  0  0  0  0  0  0  0  0  0  0
   60.1210   34.1553   49.1757 H   0  0  0  0  0  0  0  0  0  0  0  0
   62.3931   33.7187   50.4421 H   0  0  0  0  0  0  0  0  0  0  0  0
   61.4114   32.3273   49.7727 H   0  0  0  0  0  0  0  0  0  0  0  0
   64.1372   32.7326   49.3935 H   0  0  0  0  0  0  0  0  0  0  0  0
   63.0269   31.6737   48.4089 H   0  0  0  0  0  0  0  0  0  0  0  0
   63.7978   34.5583   47.7865 H   0  0  0  0  0  0  0  0  0  0  0  0
   64.3757   33.0748   46.9385 H   0  0  0  0  0  0  0  0  0  0  0  0
   62.4304   34.3784   45.8404 H   0  0  0  0  0  0  0  0  0  0  0  0
   62.2228   32.5940   46.0700 H   0  0  0  0  0  0  0  0  0  0  0  0
   58.2244   27.8896   47.7758 H   0  0  0  0  0  0  0  0  0  0  0  0
  1  2  1  0
  2  3  2  0
  2  4  2  0
  2  5  1  0
  5  6  2  0
  6  7  1  0
  7  8  2  0
  8  9  1  0
  9 10  1  0
 10 11  2  0
 10 12  2  0
 10 13  1  0
 13 14  1  0
 14 15  2  0
 15 16  1  0
 16 17  2  0
 17 18  1  0
 18 19  2  0
 19 20  1  0
 20 21  1  0
 21 22  1  0
 22 23  1  0
 23 24  1  0
 24 25  1  0
  9 26  2  0
 26  5  1  0
 19 14  1  0
 25 20  1  0
  1 27  1  0
  6 28  1  0
  7 29  1  0
  8 30  1  0
 13 31  1  0
 15 32  1  0
 16 33  1  0
 17 34  1  0
 18 35  1  0
 21 36  1  0
 21 37  1  0
 22 38  1  0
 22 39  1  0
 23 40  1  0
 23 41  1  0
 24 42  1  0
 24 43  1  0
 25 44  1  0
 25 45  1  0
 26 46  1  0
M  CHG  1   1  -1
M  END
>  <UniqueID>  (84) 
76

>  <SMILES>  (84) 
[NH-]S(=O)(=O)c1cccc(S(=O)(=O)Nc2ccccc2N2CCCCC2)c1

>  <Energy>  (84) 
55.3591622680002

>  <Genealogy>  (84) 
[NH-]S(=O)(=O)c1cccc(S(=O)(=O)Nc2ccccc2N2CCCCC2)c1 (protonated)
[NH-]S(=O)(=O)c1cccc(S(=O)(=O)Nc2ccccc2N2CCCCC2)c1 (3D coordinates assigned)
[NH-]S(=O)(=O)c1cccc(S(=O)(=O)Nc2ccccc2N2CCCCC2)c1 (nonaromatic ring conformer: 55.3591622680002 kcal/mol)

>  <smiles>  (84) 
NS(=O)(=O)c1cccc(S(=O)(=O)Nc2ccccc2N2CCCCC2)c1

>  <score_type>  (84) 
oracle

>  <origin>  (84) 
adg

>  <m_score__min__energy>  (84) 
-12.16

>  <m_primary>  (84) 
energy

$$$$
84:0
     RDKit          3D

 84 88  0  0  0  0  0  0  0  0999 V2000
   67.6550   33.9940   51.4060 C   0  0  0  0  0  0  0  0  0  0  0  0
   66.6210   33.3630   50.5700 N   0  0  0  0  0  0  0  0  0  0  0  0
   66.8190   31.9070   50.5440 C   0  0  0  0  0  0  0  0  0  0  0  0
   65.0440   33.7210   51.2340 S   0  0  0  0  0  0  0  0  0  0  0  0
   64.6450   32.6520   52.2120 O   0  0  0  0  0  0  0  0  0  0  0  0
   65.0570   35.0420   51.9500 O   0  0  0  0  0  0  0  0  0  0  0  0
   63.8740   33.7740   49.9590 N   0  0  0  0  0  0  0  0  0  0  0  0
   62.6080   34.2290   50.0890 C   0  0  0  0  0  0  0  0  0  0  0  0
   62.0350   34.1730   48.8450 C   0  0  0  0  0  0  0  0  0  0  0  0
   60.7720   34.5400   48.3910 C   0  0  0  0  0  0  0  0  0  0  0  0
   60.4940   34.3960   47.0200 C   0  0  0  0  0  0  0  0  0  0  0  0
   59.2290   34.8040   46.5720 O   0  0  0  0  0  0  0  0  0  0  0  0
   58.8010   34.8950   45.2100 C   0  0  0  0  0  0  0  0  0  0  0  0
   58.7070   33.4970   44.5640 C   0  0  0  0  0  0  0  0  0  0  0  0
   57.4380   32.7290   44.9400 C   0  0  0  0  0  0  0  0  0  0  0  0
   57.7620   31.6570   45.8670 N   0  0  0  0  0  0  0  0  0  0  0  0
   58.5570   31.8390   47.0410 C   0  0  0  0  0  0  0  0  0  0  0  0
   58.1540   32.6150   47.9520 O   0  0  0  0  0  0  0  0  0  0  0  0
   59.8010   31.1230   47.1870 N   0  0  0  0  0  0  0  0  0  0  0  0
   60.6110   31.2790   48.4040 C   0  0  0  0  0  0  0  0  0  0  0  0
   59.7360   31.1260   49.6190 C   0  0  0  0  0  0  0  0  0  0  0  0
   59.1470   29.8860   49.9200 C   0  0  0  0  0  0  0  0  0  0  0  0
   58.2650   29.7650   50.9970 C   0  0  0  0  0  0  0  0  0  0  0  0
   57.9340   30.8940   51.7700 C   0  0  0  0  0  0  0  0  0  0  0  0
   57.0150   30.8350   52.8330 O   0  0  0  0  0  0  0  0  0  0  0  0
   55.6830   30.4020   52.7440 C   0  0  0  0  0  0  0  0  0  0  0  0
   54.7810   31.1660   51.9900 C   0  0  0  0  0  0  0  0  0  0  0  0
   53.4520   30.7540   51.8390 C   0  0  0  0  0  0  0  0  0  0  0  0
   53.0160   29.5720   52.4430 C   0  0  0  0  0  0  0  0  0  0  0  0
   53.9090   28.7930   53.1850 C   0  0  0  0  0  0  0  0  0  0  0  0
   55.2380   29.2040   53.3360 C   0  0  0  0  0  0  0  0  0  0  0  0
   58.5500   32.1210   51.4920 C   0  0  0  0  0  0  0  0  0  0  0  0
   59.4380   32.2420   50.4190 C   0  0  0  0  0  0  0  0  0  0  0  0
   60.1800   30.1030   46.1960 C   0  0  0  0  0  0  0  0  0  0  0  0
   59.1630   28.9970   46.1670 C   0  0  0  0  0  0  0  0  0  0  0  0
   58.3210   28.8260   45.0550 C   0  0  0  0  0  0  0  0  0  0  0  0
   57.4060   27.7710   45.0210 C   0  0  0  0  0  0  0  0  0  0  0  0
   57.3170   26.8760   46.0950 C   0  0  0  0  0  0  0  0  0  0  0  0
   56.1660   25.5430   46.0310 S   0  0  0  0  0  0  0  0  0  0  0  0
   56.5780   24.4610   44.6830 C   0  0  0  0  0  0  0  0  0  0  0  0
   56.2120   24.7760   47.3220 O   0  0  0  0  0  0  0  0  0  0  0  0
   54.7720   26.0750   45.8410 O   0  0  0  0  0  0  0  0  0  0  0  0
   58.1400   27.0560   47.2150 C   0  0  0  0  0  0  0  0  0  0  0  0
   59.0640   28.1070   47.2490 C   0  0  0  0  0  0  0  0  0  0  0  0
   61.4830   33.8390   46.1570 C   0  0  0  0  0  0  0  0  0  0  0  0
   62.7530   33.4780   46.6570 C   0  0  0  0  0  0  0  0  0  0  0  0
   62.9940   33.6690   48.0130 C   0  0  0  0  0  0  0  0  0  0  0  0
   64.1250   33.4270   48.6990 N   0  0  0  0  0  0  0  0  0  0  0  0
   67.4098   33.8443   52.4678 H   0  0  0  0  0  0  0  0  0  0  0  0
   68.6319   33.5380   51.1875 H   0  0  0  0  0  0  0  0  0  0  0  0
   67.6962   35.0713   51.1875 H   0  0  0  0  0  0  0  0  0  0  0  0
   66.8709   31.5256   51.5744 H   0  0  0  0  0  0  0  0  0  0  0  0
   65.9772   31.4318   50.0190 H   0  0  0  0  0  0  0  0  0  0  0  0
   67.7571   31.6738   50.0190 H   0  0  0  0  0  0  0  0  0  0  0  0
   62.1290   34.5776   51.0159 H   0  0  0  0  0  0  0  0  0  0  0  0
   60.0130   34.9314   49.0843 H   0  0  0  0  0  0  0  0  0  0  0  0
   57.8115   35.3743   45.1754 H   0  0  0  0  0  0  0  0  0  0  0  0
   59.5379   35.4901   44.6507 H   0  0  0  0  0  0  0  0  0  0  0  0
   58.7288   33.6175   43.4708 H   0  0  0  0  0  0  0  0  0  0  0  0
   59.5596   32.9119   44.9391 H   0  0  0  0  0  0  0  0  0  0  0  0
   56.7228   33.4171   45.4144 H   0  0  0  0  0  0  0  0  0  0  0  0
   56.9939   32.2981   44.0306 H   0  0  0  0  0  0  0  0  0  0  0  0
   61.3976   30.5102   48.4207 H   0  0  0  0  0  0  0  0  0  0  0  0
   61.0709   32.2782   48.4098 H   0  0  0  0  0  0  0  0  0  0  0  0
   59.3817   29.0054   49.3040 H   0  0  0  0  0  0  0  0  0  0  0  0
   57.8284   28.7854   51.2414 H   0  0  0  0  0  0  0  0  0  0  0  0
   55.1208   32.0972   51.5131 H   0  0  0  0  0  0  0  0  0  0  0  0
   52.7516   31.3600   51.2455 H   0  0  0  0  0  0  0  0  0  0  0  0
   51.9686   29.2538   52.3346 H   0  0  0  0  0  0  0  0  0  0  0  0
   53.5667   27.8568   53.6502 H   0  0  0  0  0  0  0  0  0  0  0  0
   55.9384   28.5886   53.9197 H   0  0  0  0  0  0  0  0  0  0  0  0
   58.3334   32.9958   52.1227 H   0  0  0  0  0  0  0  0  0  0  0  0
   59.9048   33.2138   50.2004 H   0  0  0  0  0  0  0  0  0  0  0  0
   60.2378   30.5683   45.2010 H   0  0  0  0  0  0  0  0  0  0  0  0
   61.1574   29.6816   46.4737 H   0  0  0  0  0  0  0  0  0  0  0  0
   58.3826   29.5254   44.2083 H   0  0  0  0  0  0  0  0  0  0  0  0
   56.7518   27.6423   44.1461 H   0  0  0  0  0  0  0  0  0  0  0  0
   56.9430   23.5025   45.0806 H   0  0  0  0  0  0  0  0  0  0  0  0
   55.6837   24.2857   44.0670 H   0  0  0  0  0  0  0  0  0  0  0  0
   57.3624   24.9250   44.0670 H   0  0  0  0  0  0  0  0  0  0  0  0
   58.0596   26.3690   48.0703 H   0  0  0  0  0  0  0  0  0  0  0  0
   59.7149   28.2363   48.1263 H   0  0  0  0  0  0  0  0  0  0  0  0
   61.2543   33.6891   45.0915 H   0  0  0  0  0  0  0  0  0  0  0  0
   63.5261   33.0595   45.9958 H   0  0  0  0  0  0  0  0  0  0  0  0
  1  2  1  0
  2  3  1  0
  2  4  1  0
  4  5  2  0
  4  6  2  0
  4  7  1  0
  7  8  1  0
  8  9  2  0
  9 10  1  0
 10 11  2  0
 11 12  1  0
 12 13  1  0
 13 14  1  0
 14 15  1  0
 15 16  1  0
 16 17  1  0
 17 18  2  0
 17 19  1  0
 19 20  1  0
 20 21  1  0
 21 22  2  0
 22 23  1  0
 23 24  2  0
 24 25  1  0
 25 26  1  0
 26 27  2  0
 27 28  1  0
 28 29  2  0
 29 30  1  0
 30 31  2  0
 24 32  1  0
 32 33  2  0
 19 34  1  0
 34 35  1  0
 35 36  2  0
 36 37  1  0
 37 38  2  0
 38 39  1  0
 39 40  1  0
 39 41  2  0
 39 42  2  0
 38 43  1  0
 43 44  2  0
 11 45  1  0
 45 46  2  0
 46 47  1  0
 47 48  2  0
 48  7  1  0
 47  9  1  0
 33 21  1  0
 44 35  1  0
 31 26  1  0
  1 49  1  0
  1 50  1  0
  1 51  1  0
  3 52  1  0
  3 53  1  0
  3 54  1  0
  8 55  1  0
 10 56  1  0
 13 57  1  0
 13 58  1  0
 14 59  1  0
 14 60  1  0
 15 61  1  0
 15 62  1  0
 20 63  1  0
 20 64  1  0
 22 65  1  0
 23 66  1  0
 27 67  1  0
 28 68  1  0
 29 69  1  0
 30 70  1  0
 31 71  1  0
 32 72  1  0
 33 73  1  0
 34 74  1  0
 34 75  1  0
 36 76  1  0
 37 77  1  0
 40 78  1  0
 40 79  1  0
 40 80  1  0
 43 81  1  0
 44 82  1  0
 45 83  1  0
 46 84  1  0
M  CHG  1  16  -1
M  END
>  <UniqueID>  (85) 
77

>  <SMILES>  (85) 
CN(C)S(=O)(=O)n1cc2cc(OCCC[N-]C(=O)N(Cc3ccc(Oc4ccccc4)cc3)Cc3ccc(S(C)(=O)=O)cc3)ccc2n1

>  <Energy>  (85) 
122.70971119077021

>  <Genealogy>  (85) 
CN(C)S(=O)(=O)n1cc2cc(OCCC[N-]C(=O)N(Cc3ccc(Oc4ccccc4)cc3)Cc3ccc(S(C)(=O)=O)cc3)ccc2n1 (protonated)
CN(C)S(=O)(=O)n1cc2cc(OCCC[N-]C(=O)N(Cc3ccc(Oc4ccccc4)cc3)Cc3ccc(S(C)(=O)=O)cc3)ccc2n1 (3D coordinates assigned)
CN(C)S(=O)(=O)n1cc2cc(OCCC[N-]C(=O)N(Cc3ccc(Oc4ccccc4)cc3)Cc3ccc(S(C)(=O)=O)cc3)ccc2n1 (optimized conformer: 122.70971119077021 kcal/mol)

>  <smiles>  (85) 
CN(C)S(=O)(=O)n1cc2cc(OCCCNC(=O)N(Cc3ccc(Oc4ccccc4)cc3)Cc3ccc(S(C)(=O)=O)cc3)ccc2n1

>  <score_type>  (85) 
oracle

>  <origin>  (85) 
adg

>  <m_score__min__energy>  (85) 
-12.65

>  <m_primary>  (85) 
energy

$$$$
85:0
     RDKit          3D

 42 44  0  0  0  0  0  0  0  0999 V2000
   59.2710   35.0610   46.9350 C   0  0  0  0  0  0  0  0  0  0  0  0
   59.4310   35.1360   45.5490 C   0  0  0  0  0  0  0  0  0  0  0  0
   58.8270   34.1850   44.7210 C   0  0  0  0  0  0  0  0  0  0  0  0
   58.0530   33.1530   45.2780 C   0  0  0  0  0  0  0  0  0  0  0  0
   57.4120   32.1150   44.3950 C   0  0  0  0  0  0  0  0  0  0  0  0
   57.1330   30.9390   45.1330 O   0  0  0  0  0  0  0  0  0  0  0  0
   58.1320   29.9580   44.9260 C   0  0  0  0  0  0  0  0  0  0  0  0
   59.0330   29.8590   46.1220 C   0  0  0  0  0  0  0  0  0  0  0  0
   58.9720   28.7480   46.9720 C   0  0  0  0  0  0  0  0  0  0  0  0
   59.8300   28.6800   48.0690 C   0  0  0  0  0  0  0  0  0  0  0  0
   60.7460   29.7080   48.3030 C   0  0  0  0  0  0  0  0  0  0  0  0
   60.8020   30.7980   47.4180 C   0  0  0  0  0  0  0  0  0  0  0  0
   61.7240   31.8850   47.6300 N   0  0  0  0  0  0  0  0  0  0  0  0
   62.5920   31.8630   48.8130 C   0  0  0  0  0  0  0  0  0  0  0  0
   63.6120   33.0080   48.7640 C   0  0  0  0  0  0  0  0  0  0  0  0
   64.1340   33.1690   47.4010 N   0  0  0  0  0  0  0  0  0  0  0  0
   63.0900   33.5750   46.4380 C   0  0  0  0  0  0  0  0  0  0  0  0
   61.6690   33.1090   46.8200 C   0  0  0  0  0  0  0  0  0  0  0  0
   59.9380   30.8450   46.3650 N   0  0  0  0  0  0  0  0  0  0  0  0
   57.8990   33.0820   46.6720 C   0  0  0  0  0  0  0  0  0  0  0  0
   58.5060   34.0350   47.4970 C   0  0  0  0  0  0  0  0  0  0  0  0
   59.7475   35.8101   47.5845 H   0  0  0  0  0  0  0  0  0  0  0  0
   60.0331   35.9445   45.1086 H   0  0  0  0  0  0  0  0  0  0  0  0
   58.9581   34.2449   43.6305 H   0  0  0  0  0  0  0  0  0  0  0  0
   56.4732   32.5172   43.9866 H   0  0  0  0  0  0  0  0  0  0  0  0
   58.1054   31.8660   43.5782 H   0  0  0  0  0  0  0  0  0  0  0  0
   57.6513   28.9836   44.7542 H   0  0  0  0  0  0  0  0  0  0  0  0
   58.7345   30.2453   44.0517 H   0  0  0  0  0  0  0  0  0  0  0  0
   58.2547   27.9373   46.7764 H   0  0  0  0  0  0  0  0  0  0  0  0
   59.7855   27.8171   48.7498 H   0  0  0  0  0  0  0  0  0  0  0  0
   61.4180   29.6647   49.1728 H   0  0  0  0  0  0  0  0  0  0  0  0
   61.9731   31.9702   49.7160 H   0  0  0  0  0  0  0  0  0  0  0  0
   63.1365   30.9074   48.8321 H   0  0  0  0  0  0  0  0  0  0  0  0
   63.1238   33.9423   49.0781 H   0  0  0  0  0  0  0  0  0  0  0  0
   64.4466   32.7723   49.4407 H   0  0  0  0  0  0  0  0  0  0  0  0
   64.5420   32.2550   47.0920 H   0  0  0  0  0  0  0  0  0  0  0  0
   63.0881   34.6730   46.3723 H   0  0  0  0  0  0  0  0  0  0  0  0
   63.3361   33.0940   45.4798 H   0  0  0  0  0  0  0  0  0  0  0  0
   61.1720   33.9022   47.3977 H   0  0  0  0  0  0  0  0  0  0  0  0
   61.1064   32.8982   45.8986 H   0  0  0  0  0  0  0  0  0  0  0  0
   57.2991   32.2744   47.1168 H   0  0  0  0  0  0  0  0  0  0  0  0
   58.3812   33.9768   48.5883 H   0  0  0  0  0  0  0  0  0  0  0  0
  1  2  2  0
  2  3  1  0
  3  4  2  0
  4  5  1  0
  5  6  1  0
  6  7  1  0
  7  8  1  0
  8  9  2  0
  9 10  1  0
 10 11  2  0
 11 12  1  0
 12 13  1  0
 13 14  1  0
 14 15  1  0
 15 16  1  0
 16 17  1  0
 17 18  1  0
 12 19  2  0
  4 20  1  0
 20 21  2  0
 21  1  1  0
 19  8  1  0
 18 13  1  0
  1 22  1  0
  2 23  1  0
  3 24  1  0
  5 25  1  0
  5 26  1  0
  7 27  1  0
  7 28  1  0
  9 29  1  0
 10 30  1  0
 11 31  1  0
 14 32  1  0
 14 33  1  0
 15 34  1  0
 15 35  1  0
 16 36  1  0
 17 37  1  0
 17 38  1  0
 18 39  1  0
 18 40  1  0
 20 41  1  0
 21 42  1  0
M  END
>  <UniqueID>  (86) 
78

>  <SMILES>  (86) 
c1ccc(COCc2cccc(N3CCNCC3)n2)cc1

>  <Energy>  (86) 
52.81030362883718

>  <Genealogy>  (86) 
c1ccc(COCc2cccc(N3CCNCC3)n2)cc1 (3D coordinates assigned)
c1ccc(COCc2cccc(N3CCNCC3)n2)cc1 (nonaromatic ring conformer: 52.81030362883718 kcal/mol)

>  <smiles>  (86) 
c1ccc(COCc2cccc(N3CCNCC3)n2)cc1

>  <score_type>  (86) 
oracle

>  <origin>  (86) 
adg

>  <m_score__min__energy>  (86) 
-7.5899999999999999

>  <m_primary>  (86) 
energy

$$$$
86:0
     RDKit          3D

 48 50  0  0  0  0  0  0  0  0999 V2000
   55.1430   29.6270   43.3220 O   0  0  0  0  0  0  0  0  0  0  0  0
   55.7880   29.7160   44.4030 C   0  0  0  0  0  0  0  0  0  0  0  0
   56.2960   30.9810   44.8360 N   0  0  0  0  0  0  0  0  0  0  0  0
   57.6520   31.1810   45.3340 C   0  0  0  0  0  0  0  0  0  0  0  0
   57.9740   32.6450   45.4340 C   0  0  0  0  0  0  0  0  0  0  0  0
   57.6980   33.5940   44.4730 C   0  0  0  0  0  0  0  0  0  0  0  0
   58.1660   34.7910   44.8800 N   0  0  0  0  0  0  0  0  0  0  0  0
   58.7190   34.5460   46.0870 C   0  0  0  0  0  0  0  0  0  0  0  0
   58.6140   33.2520   46.4540 N   0  0  0  0  0  0  0  0  0  0  0  0
   59.1510   32.6580   47.6790 C   0  0  0  0  0  0  0  0  0  0  0  0
   60.6550   32.7250   47.6830 C   0  0  0  0  0  0  0  0  0  0  0  0
   61.4090   31.6220   47.2480 C   0  0  0  0  0  0  0  0  0  0  0  0
   62.8060   31.6750   47.2590 C   0  0  0  0  0  0  0  0  0  0  0  0
   63.4590   32.8280   47.7050 C   0  0  0  0  0  0  0  0  0  0  0  0
   62.7160   33.9290   48.1380 C   0  0  0  0  0  0  0  0  0  0  0  0
   61.3190   33.8790   48.1280 C   0  0  0  0  0  0  0  0  0  0  0  0
   55.9720   28.5720   45.2430 N   0  0  0  0  0  0  0  0  0  0  0  0
   57.1940   27.8420   45.4420 C   0  0  0  0  0  0  0  0  0  0  0  0
   58.4340   28.4380   45.1470 C   0  0  0  0  0  0  0  0  0  0  0  0
   59.6260   27.7530   45.3850 C   0  0  0  0  0  0  0  0  0  0  0  0
   59.5980   26.4750   45.9360 C   0  0  0  0  0  0  0  0  0  0  0  0
   58.3790   25.8760   46.2570 C   0  0  0  0  0  0  0  0  0  0  0  0
   57.1620   26.5440   46.0190 C   0  0  0  0  0  0  0  0  0  0  0  0
   55.8840   25.8580   46.3580 C   0  0  0  0  0  0  0  0  0  0  0  0
   54.7780   26.3350   45.9830 O   0  0  0  0  0  0  0  0  0  0  0  0
   55.9030   24.6420   47.1170 N   0  0  0  0  0  0  0  0  0  0  0  0
   55.7560   23.3130   46.5350 C   0  0  0  0  0  0  0  0  0  0  0  0
   54.2840   22.9780   46.3040 C   0  0  0  0  0  0  0  0  0  0  0  0
   53.6250   22.9410   47.5170 F   0  0  0  0  0  0  0  0  0  0  0  0
   54.1720   21.7410   45.6920 F   0  0  0  0  0  0  0  0  0  0  0  0
   53.6910   23.9380   45.5040 F   0  0  0  0  0  0  0  0  0  0  0  0
   57.7413   30.7234   46.3303 H   0  0  0  0  0  0  0  0  0  0  0  0
   58.3576   30.7123   44.6323 H   0  0  0  0  0  0  0  0  0  0  0  0
   57.1774   33.4043   43.5228 H   0  0  0  0  0  0  0  0  0  0  0  0
   59.2026   35.3176   46.7041 H   0  0  0  0  0  0  0  0  0  0  0  0
   58.7620   33.2080   48.5486 H   0  0  0  0  0  0  0  0  0  0  0  0
   58.8421   31.6034   47.7277 H   0  0  0  0  0  0  0  0  0  0  0  0
   60.8980   30.7132   46.8974 H   0  0  0  0  0  0  0  0  0  0  0  0
   63.3917   30.8091   46.9166 H   0  0  0  0  0  0  0  0  0  0  0  0
   64.5582   32.8683   47.7150 H   0  0  0  0  0  0  0  0  0  0  0  0
   63.2308   34.8362   48.4872 H   0  0  0  0  0  0  0  0  0  0  0  0
   60.7375   34.7477   48.4703 H   0  0  0  0  0  0  0  0  0  0  0  0
   58.4639   29.4533   44.7249 H   0  0  0  0  0  0  0  0  0  0  0  0
   60.5889   28.2234   45.1369 H   0  0  0  0  0  0  0  0  0  0  0  0
   60.5392   25.9358   46.1189 H   0  0  0  0  0  0  0  0  0  0  0  0
   58.3685   24.8698   46.7013 H   0  0  0  0  0  0  0  0  0  0  0  0
   56.2879   23.2806   45.5727 H   0  0  0  0  0  0  0  0  0  0  0  0
   56.1786   22.5753   47.2331 H   0  0  0  0  0  0  0  0  0  0  0  0
  1  2  2  0
  2  3  1  0
  3  4  1  0
  4  5  1  0
  5  6  2  0
  6  7  1  0
  7  8  2  0
  8  9  1  0
  9 10  1  0
 10 11  1  0
 11 12  2  0
 12 13  1  0
 13 14  2  0
 14 15  1  0
 15 16  2  0
  2 17  1  0
 17 18  1  0
 18 19  2  0
 19 20  1  0
 20 21  2  0
 21 22  1  0
 22 23  2  0
 23 24  1  0
 24 25  2  0
 24 26  1  0
 26 27  1  0
 27 28  1  0
 28 29  1  0
 28 30  1  0
 28 31  1  0
  9  5  1  0
 16 11  1  0
 23 18  1  0
  4 32  1  0
  4 33  1  0
  6 34  1  0
  8 35  1  0
 10 36  1  0
 10 37  1  0
 12 38  1  0
 13 39  1  0
 14 40  1  0
 15 41  1  0
 16 42  1  0
 19 43  1  0
 20 44  1  0
 21 45  1  0
 22 46  1  0
 27 47  1  0
 27 48  1  0
M  CHG  3   3  -1  17  -1  26  -1
M  END
>  <UniqueID>  (87) 
79

>  <SMILES>  (87) 
O=C([N-]Cc1cncn1Cc1ccccc1)[N-]c1ccccc1C(=O)[N-]CC(F)(F)F

>  <Energy>  (87) 
78.45580966030843

>  <Genealogy>  (87) 
O=C([N-]Cc1cncn1Cc1ccccc1)[N-]c1ccccc1C(=O)[N-]CC(F)(F)F (protonated)
O=C([N-]Cc1cncn1Cc1ccccc1)[N-]c1ccccc1C(=O)[N-]CC(F)(F)F (3D coordinates assigned)
O=C([N-]Cc1cncn1Cc1ccccc1)[N-]c1ccccc1C(=O)[N-]CC(F)(F)F (optimized conformer: 78.45580966030843 kcal/mol)

>  <smiles>  (87) 
O=C(NCc1cncn1Cc1ccccc1)Nc1ccccc1C(=O)NCC(F)(F)F

>  <score_type>  (87) 
oracle

>  <origin>  (87) 
adg

>  <m_score__min__energy>  (87) 
-14.140000000000001

>  <m_primary>  (87) 
energy

$$$$
87:0
     RDKit          3D

 47 49  0  0  0  0  0  0  0  0999 V2000
   57.6171   33.4521   50.4936 H   0  0  0  0  0  0  0  0  0  0  0  0
   57.8210   32.3730   50.4300 C   0  0  0  0  0  0  0  0  0  0  0  0
   57.3240   31.5340   51.3740 N   0  0  0  0  0  0  0  0  0  0  0  0
   57.5540   30.1940   51.3150 C   0  0  0  0  0  0  0  0  0  0  0  0
   57.0790   29.3920   52.2220 N   0  0  0  0  0  0  0  0  0  0  0  0
   56.0740   29.7580   53.2200 C   0  0  0  0  0  0  0  0  0  0  0  0
   56.4508   29.5053   54.2221 H   0  0  0  0  0  0  0  0  0  0  0  0
   55.8795   30.8383   53.1480 H   0  0  0  0  0  0  0  0  0  0  0  0
   54.7660   29.0030   52.9690 C   0  0  0  0  0  0  0  0  0  0  0  0
   54.9120   28.2912   52.1432 H   0  0  0  0  0  0  0  0  0  0  0  0
   54.4835   28.4670   53.8871 H   0  0  0  0  0  0  0  0  0  0  0  0
   53.6630   29.9620   52.6070 C   0  0  0  0  0  0  0  0  0  0  0  0
   53.5880   30.5000   51.3110 C   0  0  0  0  0  0  0  0  0  0  0  0
   54.3241   30.2011   50.5502 H   0  0  0  0  0  0  0  0  0  0  0  0
   52.5810   31.4140   50.9850 C   0  0  0  0  0  0  0  0  0  0  0  0
   52.5199   31.8243   49.9662 H   0  0  0  0  0  0  0  0  0  0  0  0
   51.6510   31.8070   51.9540 C   0  0  0  0  0  0  0  0  0  0  0  0
   50.6530   32.7170   51.6280 O   0  0  0  0  0  0  0  0  0  0  0  0
   51.7290   31.2860   53.2480 C   0  0  0  0  0  0  0  0  0  0  0  0
   50.9987   31.5961   54.0099 H   0  0  0  0  0  0  0  0  0  0  0  0
   52.7340   30.3710   53.5760 C   0  0  0  0  0  0  0  0  0  0  0  0
   52.7968   29.9699   54.5983 H   0  0  0  0  0  0  0  0  0  0  0  0
   58.2830   29.6820   50.2910 N   0  0  0  0  0  0  0  0  0  0  0  0
   58.8040   30.4750   49.3160 C   0  0  0  0  0  0  0  0  0  0  0  0
   59.5850   29.8250   48.2040 C   0  0  0  0  0  0  0  0  0  0  0  0
   60.0181   28.8822   48.5694 H   0  0  0  0  0  0  0  0  0  0  0  0
   60.3829   30.5107   47.8829 H   0  0  0  0  0  0  0  0  0  0  0  0
   58.7440   29.5530   47.0980 O   0  0  0  0  0  0  0  0  0  0  0  0
   59.2370   30.1530   45.9130 C   0  0  0  0  0  0  0  0  0  0  0  0
   59.7399   29.3894   45.3015 H   0  0  0  0  0  0  0  0  0  0  0  0
   59.9484   30.9474   46.1828 H   0  0  0  0  0  0  0  0  0  0  0  0
   58.0910   30.7630   45.1140 C   0  0  0  0  0  0  0  0  0  0  0  0
   57.3355   31.1651   45.8050 H   0  0  0  0  0  0  0  0  0  0  0  0
   58.4773   31.5748   44.4802 H   0  0  0  0  0  0  0  0  0  0  0  0
   57.6333   29.9892   44.4802 H   0  0  0  0  0  0  0  0  0  0  0  0
   58.5920   31.8700   49.3760 C   0  0  0  0  0  0  0  0  0  0  0  0
   59.1310   32.8010   48.3650 C   0  0  0  0  0  0  0  0  0  0  0  0
   60.5080   33.0740   48.3250 C   0  0  0  0  0  0  0  0  0  0  0  0
   61.1831   32.5991   49.0521 H   0  0  0  0  0  0  0  0  0  0  0  0
   61.0230   33.9490   47.3620 C   0  0  0  0  0  0  0  0  0  0  0  0
   62.1013   34.1647   47.3363 H   0  0  0  0  0  0  0  0  0  0  0  0
   60.1690   34.5490   46.4330 C   0  0  0  0  0  0  0  0  0  0  0  0
   60.5748   35.2405   45.6799 H   0  0  0  0  0  0  0  0  0  0  0  0
   58.7990   34.2710   46.4600 C   0  0  0  0  0  0  0  0  0  0  0  0
   58.1285   34.7409   45.7254 H   0  0  0  0  0  0  0  0  0  0  0  0
   58.2800   33.3960   47.4200 C   0  0  0  0  0  0  0  0  0  0  0  0
   57.2028   33.1736   47.4346 H   0  0  0  0  0  0  0  0  0  0  0  0
  1  2  1  0
  2  3  1  0
  3  4  1  0
  4  5  2  0
  5  6  1  0
  6  7  1  0
  6  8  1  0
  6  9  1  0
  9 10  1  0
  9 11  1  0
  9 12  1  0
 12 13  2  0
 13 14  1  0
 13 15  1  0
 15 16  1  0
 15 17  2  0
 17 18  1  0
 17 19  1  0
 19 20  1  0
 19 21  2  0
 21 22  1  0
  4 23  1  0
 23 24  2  0
 24 25  1  0
 25 26  1  0
 25 27  1  0
 25 28  1  0
 28 29  1  0
 29 30  1  0
 29 31  1  0
 29 32  1  0
 32 33  1  0
 32 34  1  0
 32 35  1  0
 24 36  1  0
 36 37  1  0
 37 38  2  0
 38 39  1  0
 38 40  1  0
 40 41  1  0
 40 42  2  0
 42 43  1  0
 42 44  1  0
 44 45  1  0
 44 46  2  0
 46 47  1  0
 36  2  2  0
 46 37  1  0
 21 12  1  0
M  CHG  2   3  -1  18  -1
M  END
>  <UniqueID>  (88) 
80

>  <SMILES>  (88) 
CCOCc1n/c(=N/CCc2ccc([O-])cc2)[n-]cc1-c1ccccc1

>  <Energy>  (88) 
55.31987418994007

>  <Genealogy>  (88) 
CCOCc1nc(=NCCc2ccc([O-])cc2)[n-]cc1-c1ccccc1 (protonated)
CCOCc1n/c(=N/CCc2ccc([O-])cc2)[n-]cc1-c1ccccc1 (cis-trans isomerization)
CCOCc1n/c(=N/CCc2ccc([O-])cc2)[n-]cc1-c1ccccc1 (3D coordinates assigned)
CCOCc1n/c(=N/CCc2ccc([O-])cc2)[n-]cc1-c1ccccc1 (optimized conformer: 55.31987418994007 kcal/mol)

>  <smiles>  (88) 
CCOCc1nc(=NCCc2ccc(O)cc2)[nH]cc1-c1ccccc1

>  <score_type>  (88) 
oracle

>  <origin>  (88) 
adg

>  <m_score__min__energy>  (88) 
-12.76

>  <m_primary>  (88) 
energy

$$$$
88:0
     RDKit          3D

 23 24  0  0  0  0  0  0  0  0999 V2000
   59.8331   35.8097   46.1792 H   0  0  0  0  0  0  0  0  0  0  0  0
   59.3030   34.8890   45.8940 C   0  0  0  0  0  0  0  0  0  0  0  0
   58.7220   34.0850   46.8760 C   0  0  0  0  0  0  0  0  0  0  0  0
   58.7949   34.3735   47.9350 H   0  0  0  0  0  0  0  0  0  0  0  0
   58.0470   32.9130   46.5170 C   0  0  0  0  0  0  0  0  0  0  0  0
   57.5917   32.2839   47.2960 H   0  0  0  0  0  0  0  0  0  0  0  0
   57.9470   32.5340   45.1640 C   0  0  0  0  0  0  0  0  0  0  0  0
   57.2360   31.2970   44.7590 C   0  0  0  0  0  0  0  0  0  0  0  0
   57.0210   30.2530   45.5890 N   0  0  0  0  0  0  0  0  0  0  0  0
   56.3530   29.3640   44.8230 C   0  0  0  0  0  0  0  0  0  0  0  0
   55.9500   28.2050   45.2480 N   0  0  0  0  0  0  0  0  0  0  0  0
   56.8550   27.1650   45.7220 C   0  0  0  0  0  0  0  0  0  0  0  0
   56.8613   27.1578   46.8220 H   0  0  0  0  0  0  0  0  0  0  0  0
   56.5158   26.1867   45.3508 H   0  0  0  0  0  0  0  0  0  0  0  0
   57.8708   27.3658   45.3508 H   0  0  0  0  0  0  0  0  0  0  0  0
   56.1380   29.7920   43.5660 N   0  0  0  0  0  0  0  0  0  0  0  0
   55.6480   29.2880   42.7940 H   0  0  0  0  0  0  0  0  0  0  0  0
   56.6930   31.0130   43.5160 C   0  0  0  0  0  0  0  0  0  0  0  0
   56.7134   31.6754   42.6380 H   0  0  0  0  0  0  0  0  0  0  0  0
   58.5380   33.3540   44.1840 C   0  0  0  0  0  0  0  0  0  0  0  0
   58.4699   33.0724   43.1228 H   0  0  0  0  0  0  0  0  0  0  0  0
   59.2110   34.5240   44.5500 C   0  0  0  0  0  0  0  0  0  0  0  0
   59.6690   35.1582   43.7767 H   0  0  0  0  0  0  0  0  0  0  0  0
  1  2  1  0
  2  3  2  0
  3  4  1  0
  3  5  1  0
  5  6  1  0
  5  7  2  0
  7  8  1  0
  8  9  1  0
  9 10  1  0
 10 11  2  0
 11 12  1  0
 12 13  1  0
 12 14  1  0
 12 15  1  0
 10 16  1  0
 16 17  1  0
 16 18  1  0
 18 19  1  0
  7 20  1  0
 20 21  1  0
 20 22  2  0
 22 23  1  0
 22  2  1  0
 18  8  2  0
M  CHG  1   9  -1
M  END
>  <UniqueID>  (89) 
81

>  <SMILES>  (89) 
C/N=c1\[n-]c(-c2ccccc2)c[nH]1

>  <Energy>  (89) 
52.511556108477954

>  <Genealogy>  (89) 
CN=c1[n-]c(-c2ccccc2)c[nH]1 (protonated)
C/N=c1\[n-]c(-c2ccccc2)c[nH]1 (cis-trans isomerization)
C/N=c1\[n-]c(-c2ccccc2)c[nH]1 (3D coordinates assigned)
C/N=c1\[n-]c(-c2ccccc2)c[nH]1 (optimized conformer: 52.511556108477954 kcal/mol)

>  <smiles>  (89) 
CN=c1[nH]cc(-c2ccccc2)[nH]1

>  <score_type>  (89) 
oracle

>  <origin>  (89) 
adg

>  <m_score__min__energy>  (89) 
-7.6200000000000001

>  <m_primary>  (89) 
energy

$$$$
89:0
     RDKit          3D

 53 55  0  0  0  0  0  0  0  0999 V2000
   60.0810   28.3590   46.4100 H   0  0  0  0  0  0  0  0  0  0  0  0
   59.9580   28.7300   45.4740 O   0  0  0  0  0  0  0  0  0  0  0  0
   58.8130   29.4410   45.1150 C   0  0  0  0  0  0  0  0  0  0  0  0
   58.9110   30.8030   44.8030 C   0  0  0  0  0  0  0  0  0  0  0  0
   59.8960   31.2928   44.8017 H   0  0  0  0  0  0  0  0  0  0  0  0
   57.7630   31.5480   44.4920 C   0  0  0  0  0  0  0  0  0  0  0  0
   57.8570   32.9820   44.1560 C   0  0  0  0  0  0  0  0  0  0  0  0
   57.8154   33.2654   43.0939 H   0  0  0  0  0  0  0  0  0  0  0  0
   57.9900   33.9630   45.0630 C   0  0  0  0  0  0  0  0  0  0  0  0
   57.2719   34.7951   45.0198 H   0  0  0  0  0  0  0  0  0  0  0  0
   59.0300   34.0110   46.1180 C   0  0  0  0  0  0  0  0  0  0  0  0
   58.6960   33.9330   47.4810 C   0  0  0  0  0  0  0  0  0  0  0  0
   57.6388   33.8728   47.7790 H   0  0  0  0  0  0  0  0  0  0  0  0
   59.6950   33.9310   48.4660 C   0  0  0  0  0  0  0  0  0  0  0  0
   59.3130   33.8060   49.9150 C   0  0  0  0  0  0  0  0  0  0  0  0
   60.1697   34.0863   50.5455 H   0  0  0  0  0  0  0  0  0  0  0  0
   58.4656   34.4737   50.1297 H   0  0  0  0  0  0  0  0  0  0  0  0
   59.0243   32.7665   50.1297 H   0  0  0  0  0  0  0  0  0  0  0  0
   61.0470   33.9560   48.0790 C   0  0  0  0  0  0  0  0  0  0  0  0
   62.0480   33.8910   49.0470 O   0  0  0  0  0  0  0  0  0  0  0  0
   61.3940   34.0340   46.7170 C   0  0  0  0  0  0  0  0  0  0  0  0
   62.8380   34.0500   46.2980 C   0  0  0  0  0  0  0  0  0  0  0  0
   63.4791   34.0571   47.1918 H   0  0  0  0  0  0  0  0  0  0  0  0
   63.0556   33.1542   45.6978 H   0  0  0  0  0  0  0  0  0  0  0  0
   63.0357   34.9504   45.6978 H   0  0  0  0  0  0  0  0  0  0  0  0
   60.3810   34.0410   45.7430 C   0  0  0  0  0  0  0  0  0  0  0  0
   60.6502   34.0703   44.6768 H   0  0  0  0  0  0  0  0  0  0  0  0
   56.5070   30.9310   44.5450 C   0  0  0  0  0  0  0  0  0  0  0  0
   55.5984   31.5244   44.3653 H   0  0  0  0  0  0  0  0  0  0  0  0
   56.4010   29.5650   44.8250 C   0  0  0  0  0  0  0  0  0  0  0  0
   55.1440   28.9680   44.8330 O   0  0  0  0  0  0  0  0  0  0  0  0
   57.5550   28.8010   45.0800 C   0  0  0  0  0  0  0  0  0  0  0  0
   57.4160   27.3590   45.3790 C   0  0  0  0  0  0  0  0  0  0  0  0
   56.9500   26.7240   44.6111 H   0  0  0  0  0  0  0  0  0  0  0  0
   57.8150   26.7650   46.5160 C   0  0  0  0  0  0  0  0  0  0  0  0
   57.4201   25.7601   46.7263 H   0  0  0  0  0  0  0  0  0  0  0  0
   58.7390   27.3500   47.5050 C   0  0  0  0  0  0  0  0  0  0  0  0
   59.7250   26.6960   47.9420 O   0  0  0  0  0  0  0  0  0  0  0  0
   58.4860   28.6740   47.9850 N   0  0  0  0  0  0  0  0  0  0  0  0
   59.0340   29.1900   49.2370 C   0  0  0  0  0  0  0  0  0  0  0  0
   58.3174   29.8962   49.6817 H   0  0  0  0  0  0  0  0  0  0  0  0
   59.2111   28.3471   49.9213 H   0  0  0  0  0  0  0  0  0  0  0  0
   60.3420   29.9000   48.9900 C   0  0  0  0  0  0  0  0  0  0  0  0
   61.1960   30.2110   50.0620 C   0  0  0  0  0  0  0  0  0  0  0  0
   60.9093   29.9379   51.0883 H   0  0  0  0  0  0  0  0  0  0  0  0
   62.4100   30.8670   49.8280 C   0  0  0  0  0  0  0  0  0  0  0  0
   63.0753   31.1070   50.6705 H   0  0  0  0  0  0  0  0  0  0  0  0
   62.7790   31.2180   48.5260 C   0  0  0  0  0  0  0  0  0  0  0  0
   63.9620   31.8420   48.3020 F   0  0  0  0  0  0  0  0  0  0  0  0
   61.9280   30.9260   47.4550 C   0  0  0  0  0  0  0  0  0  0  0  0
   62.2159   31.2080   46.4315 H   0  0  0  0  0  0  0  0  0  0  0  0
   60.7100   30.2750   47.6850 C   0  0  0  0  0  0  0  0  0  0  0  0
   60.0382   30.0559   46.8420 H   0  0  0  0  0  0  0  0  0  0  0  0
  1  2  1  0
  2  3  1  0
  3  4  2  0
  4  5  1  0
  4  6  1  0
  6  7  1  0
  7  8  1  0
  7  9  2  3
  9 10  1  0
  9 11  1  0
 11 12  2  0
 12 13  1  0
 12 14  1  0
 14 15  1  0
 15 16  1  0
 15 17  1  0
 15 18  1  0
 14 19  2  0
 19 20  1  0
 19 21  1  0
 21 22  1  0
 22 23  1  0
 22 24  1  0
 22 25  1  0
 21 26  2  0
 26 27  1  0
  6 28  2  0
 28 29  1  0
 28 30  1  0
 30 31  1  0
 30 32  2  0
 32 33  1  0
 33 34  1  0
 33 35  2  0
 35 36  1  0
 35 37  1  0
 37 38  2  0
 37 39  1  0
 39 40  1  0
 40 41  1  0
 40 42  1  0
 40 43  1  0
 43 44  2  0
 44 45  1  0
 44 46  1  0
 46 47  1  0
 46 48  2  0
 48 49  1  0
 48 50  1  0
 50 51  1  0
 50 52  2  0
 52 53  1  0
 32  3  1  0
 52 43  1  0
 26 11  1  0
M  CHG  3  20  -1  31  -1  39  -1
M  END
>  <UniqueID>  (90) 
82

>  <SMILES>  (90) 
Cc1cc(C=Cc2cc([O-])c(/C=C\C(=O)[N-]Cc3ccc(F)cc3)c(O)c2)cc(C)c1[O-]

>  <Energy>  (90) 
66.184424177641

>  <Genealogy>  (90) 
Cc1cc(C=Cc2cc([O-])c(C=CC(=O)[N-]Cc3ccc(F)cc3)c(O)c2)cc(C)c1[O-] (protonated)
Cc1cc(C=Cc2cc([O-])c(/C=C\C(=O)[N-]Cc3ccc(F)cc3)c(O)c2)cc(C)c1[O-] (cis-trans isomerization)
Cc1cc(C=Cc2cc([O-])c(/C=C\C(=O)[N-]Cc3ccc(F)cc3)c(O)c2)cc(C)c1[O-] (3D coordinates assigned)
Cc1cc(C=Cc2cc([O-])c(/C=C\C(=O)[N-]Cc3ccc(F)cc3)c(O)c2)cc(C)c1[O-] (optimized conformer: 66.184424177641 kcal/mol)

>  <smiles>  (90) 
Cc1cc(C=Cc2cc(O)c(C=CC(=O)NCc3ccc(F)cc3)c(O)c2)cc(C)c1O

>  <score_type>  (90) 
oracle

>  <origin>  (90) 
adg

>  <m_score__min__energy>  (90) 
-15.539999999999999

>  <m_primary>  (90) 
energy

$$$$
90:0
     RDKit          3D

 44 45  0  0  1  0  0  0  0  0999 V2000
   58.5510   32.4010   47.6140 C   0  0  0  0  0  0  0  0  0  0  0  0
   58.8500   31.6810   46.3500 C   0  0  0  0  0  0  0  0  0  0  0  0
   57.9550   31.7790   45.2860 N   0  0  0  0  0  0  0  0  0  0  0  0
   57.0090   32.8570   45.2850 C   0  0  0  0  0  0  0  0  0  0  0  0
   57.6330   34.1740   44.8740 C   0  0  0  0  0  0  0  0  0  0  0  0
   58.0750   31.0100   44.1270 C   0  0  0  0  0  0  0  0  0  0  0  0
   56.7850   30.3480   43.6970 C   0  0  0  0  0  0  0  0  0  0  0  0
   56.1950   29.6930   44.8680 N   0  0  0  0  0  0  0  0  0  0  0  0
   56.8100   28.7170   45.4290 C   0  0  0  0  0  0  0  0  0  0  0  0
   58.0800   28.7610   45.8620 N   0  0  0  0  0  0  0  0  0  0  0  0
   58.7080   27.7200   46.4350 C   0  0  0  0  0  0  0  0  0  0  0  0
   58.0150   26.5340   46.5920 C   0  0  0  0  0  0  0  0  0  0  0  0
   56.6960   26.4630   46.1530 C   0  0  0  0  0  0  0  0  0  0  0  0
   56.0470   25.3460   46.2940 N   0  0  0  0  0  0  0  0  0  0  0  0
   56.2990   24.3100   45.3520 C   0  0  0  0  0  0  0  0  0  0  0  0
   57.4460   23.5440   45.5680 C   0  0  0  0  0  0  0  0  0  0  0  0
   57.7960   22.5110   44.7210 C   0  0  0  0  0  0  0  0  0  0  0  0
   56.9780   22.2520   43.6430 C   0  0  0  0  0  0  0  0  0  0  0  0
   55.8490   23.0180   43.4450 C   0  0  0  0  0  0  0  0  0  0  0  0
   55.4800   24.0490   44.2720 C   0  0  0  0  0  0  0  0  0  0  0  0
   56.1480   27.5570   45.5890 N   0  0  0  0  0  0  0  0  0  0  0  0
   58.8157   31.7636   48.4705 H   0  0  0  0  0  0  0  0  0  0  0  0
   59.1374   33.3308   47.6539 H   0  0  0  0  0  0  0  0  0  0  0  0
   57.4784   32.6419   47.6539 H   0  0  0  0  0  0  0  0  0  0  0  0
   59.8204   32.0529   45.9896 H   0  0  0  0  0  0  0  0  0  0  0  0
   58.8039   30.6196   46.6351 H   0  0  0  0  0  0  0  0  0  0  0  0
   56.1991   32.6152   44.5811 H   0  0  0  0  0  0  0  0  0  0  0  0
   56.6309   32.9716   46.3116 H   0  0  0  0  0  0  0  0  0  0  0  0
   57.9046   34.7473   45.7726 H   0  0  0  0  0  0  0  0  0  0  0  0
   58.5355   33.9812   44.2754 H   0  0  0  0  0  0  0  0  0  0  0  0
   56.9122   34.7503   44.2754 H   0  0  0  0  0  0  0  0  0  0  0  0
   58.4181   31.6634   43.3113 H   0  0  0  0  0  0  0  0  0  0  0  0
   58.7897   30.2041   44.3500 H   0  0  0  0  0  0  0  0  0  0  0  0
   56.0905   31.1053   43.3044 H   0  0  0  0  0  0  0  0  0  0  0  0
   56.9819   29.6087   42.9066 H   0  0  0  0  0  0  0  0  0  0  0  0
   58.6080   29.6330   45.7510 H   0  0  0  0  0  0  0  0  0  0  0  0
   59.7513   27.8097   46.7719 H   0  0  0  0  0  0  0  0  0  0  0  0
   58.4978   25.6613   47.0560 H   0  0  0  0  0  0  0  0  0  0  0  0
   58.0864   23.7687   46.4337 H   0  0  0  0  0  0  0  0  0  0  0  0
   58.7011   21.9126   44.9016 H   0  0  0  0  0  0  0  0  0  0  0  0
   57.2243   21.4388   42.9444 H   0  0  0  0  0  0  0  0  0  0  0  0
   55.2104   22.7908   42.5786 H   0  0  0  0  0  0  0  0  0  0  0  0
   54.5723   24.6409   44.0828 H   0  0  0  0  0  0  0  0  0  0  0  0
   55.1450   27.5030   45.2550 H   0  0  0  0  0  0  0  0  0  0  0  0
  1  2  1  0
  2  3  1  0
  3  4  1  0
  4  5  1  0
  3  6  1  0
  6  7  1  0
  7  8  1  0
  8  9  2  0
  9 10  1  0
 10 11  1  0
 11 12  2  0
 12 13  1  0
 13 14  2  0
 14 15  1  0
 15 16  2  0
 16 17  1  0
 17 18  2  0
 18 19  1  0
 19 20  2  0
 13 21  1  0
 21  9  1  0
 20 15  1  0
  1 22  1  0
  1 23  1  0
  1 24  1  0
  2 25  1  0
  2 26  1  0
  4 27  1  0
  4 28  1  0
  5 29  1  0
  5 30  1  0
  5 31  1  0
  6 32  1  0
  6 33  1  0
  7 34  1  0
  7 35  1  0
 10 36  1  0
 11 37  1  0
 12 38  1  0
 16 39  1  0
 17 40  1  0
 18 41  1  0
 19 42  1  0
 20 43  1  0
 21 44  1  0
M  END
>  <smiles>  (91) 
CCN(CC)CCN=c1[nH]ccc(=Nc2ccccc2)[nH]1

>  <score_type>  (91) 
oracle

>  <origin>  (91) 
adg

>  <m_score__min__energy>  (91) 
-6.6799999999999997

>  <m_primary>  (91) 
energy

$$$$
91:0
     RDKit          3D

 56 59  0  0  0  0  0  0  0  0999 V2000
   63.7990   32.9830   47.8020 O   0  0  0  0  0  0  0  0  0  0  0  0
   62.5610   32.8100   47.9500 C   0  0  0  0  0  0  0  0  0  0  0  0
   61.6500   33.8890   47.7010 N   0  0  0  0  0  0  0  0  0  0  0  0
   61.2110   34.2930   46.3710 C   0  0  0  0  0  0  0  0  0  0  0  0
   59.7530   33.9710   46.1770 C   0  0  0  0  0  0  0  0  0  0  0  0
   59.1830   33.9670   44.8920 C   0  0  0  0  0  0  0  0  0  0  0  0
   57.8180   33.7070   44.7260 C   0  0  0  0  0  0  0  0  0  0  0  0
   57.0150   33.4430   45.8390 C   0  0  0  0  0  0  0  0  0  0  0  0
   57.5720   33.4480   47.1230 C   0  0  0  0  0  0  0  0  0  0  0  0
   58.9360   33.7130   47.2930 C   0  0  0  0  0  0  0  0  0  0  0  0
   62.0450   31.4420   48.3540 C   0  0  2  0  0  0  0  0  0  0  0  0
   61.1510   30.8660   47.2190 C   0  0  0  0  0  0  0  0  0  0  0  0
   60.0310   30.0920   47.7650 N   0  0  0  0  0  0  0  0  0  0  0  0
   59.7630   28.7650   47.2840 C   0  0  0  0  0  0  0  0  0  0  0  0
   60.3900   27.6840   47.9230 C   0  0  0  0  0  0  0  0  0  0  0  0
   60.2080   26.3820   47.4560 C   0  0  0  0  0  0  0  0  0  0  0  0
   59.4050   26.1460   46.3410 C   0  0  0  0  0  0  0  0  0  0  0  0
   58.7620   27.2080   45.7020 C   0  0  0  0  0  0  0  0  0  0  0  0
   58.9050   28.5280   46.1780 C   0  0  0  0  0  0  0  0  0  0  0  0
   58.1930   29.6540   45.4570 C   0  0  0  0  0  0  0  0  0  0  0  0
   57.0760   29.1840   44.7870 F   0  0  0  0  0  0  0  0  0  0  0  0
   57.7660   30.6200   46.3500 F   0  0  0  0  0  0  0  0  0  0  0  0
   59.0510   30.2290   44.5390 F   0  0  0  0  0  0  0  0  0  0  0  0
   59.1760   30.6730   48.8090 C   0  0  0  0  0  0  0  0  0  0  0  0
   59.9300   31.7660   49.5830 C   0  0  0  0  0  0  0  0  0  0  0  0
   61.3610   31.4160   49.6830 N   0  0  2  0  0  0  0  0  0  0  0  0
   62.1570   32.3850   50.9100 S   0  0  0  0  0  0  0  0  0  0  0  0
   61.8440   33.8410   50.6920 O   0  0  0  0  0  0  0  0  0  0  0  0
   61.6840   31.9690   52.2750 O   0  0  0  0  0  0  0  0  0  0  0  0
   63.9020   32.1820   50.8430 C   0  0  0  0  0  0  0  0  0  0  0  0
   64.6110   30.9990   51.0350 C   0  0  0  0  0  0  0  0  0  0  0  0
   65.9930   31.1620   50.8800 C   0  0  0  0  0  0  0  0  0  0  0  0
   66.3720   32.4640   50.5650 C   0  0  0  0  0  0  0  0  0  0  0  0
   64.9860   33.4150   50.4780 S   0  0  0  0  0  0  0  0  0  0  0  0
   61.3613   35.3763   46.2536 H   0  0  0  0  0  0  0  0  0  0  0  0
   61.7995   33.7452   45.6202 H   0  0  0  0  0  0  0  0  0  0  0  0
   59.8127   34.1691   44.0130 H   0  0  0  0  0  0  0  0  0  0  0  0
   57.3766   33.7104   43.7185 H   0  0  0  0  0  0  0  0  0  0  0  0
   55.9439   33.2310   45.7057 H   0  0  0  0  0  0  0  0  0  0  0  0
   56.9380   33.2437   47.9984 H   0  0  0  0  0  0  0  0  0  0  0  0
   59.3709   33.7195   48.3034 H   0  0  0  0  0  0  0  0  0  0  0  0
   62.9213   30.7911   48.4895 H   0  0  0  0  0  0  0  0  0  0  0  0
   60.7532   31.6977   46.6189 H   0  0  0  0  0  0  0  0  0  0  0  0
   61.7654   30.1976   46.5979 H   0  0  0  0  0  0  0  0  0  0  0  0
   61.0301   27.8648   48.7991 H   0  0  0  0  0  0  0  0  0  0  0  0
   60.6985   25.5410   47.9679 H   0  0  0  0  0  0  0  0  0  0  0  0
   59.2777   25.1206   45.9637 H   0  0  0  0  0  0  0  0  0  0  0  0
   58.1372   27.0131   44.8179 H   0  0  0  0  0  0  0  0  0  0  0  0
   58.2829   31.1128   48.3410 H   0  0  0  0  0  0  0  0  0  0  0  0
   58.8863   29.8779   49.5118 H   0  0  0  0  0  0  0  0  0  0  0  0
   59.8253   32.7251   49.0546 H   0  0  0  0  0  0  0  0  0  0  0  0
   59.5066   31.8503   50.5948 H   0  0  0  0  0  0  0  0  0  0  0  0
   61.4240   30.4300   50.0320 H   0  0  0  0  0  0  0  0  0  0  0  0
   64.1357   30.0383   51.2822 H   0  0  0  0  0  0  0  0  0  0  0  0
   66.7123   30.3380   50.9963 H   0  0  0  0  0  0  0  0  0  0  0  0
   67.4024   32.8122   50.4008 H   0  0  0  0  0  0  0  0  0  0  0  0
  1  2  2  0
  2  3  1  0
  3  4  1  0
  4  5  1  0
  5  6  2  0
  6  7  1  0
  7  8  2  0
  8  9  1  0
  9 10  2  0
  2 11  1  0
 11 12  1  0
 12 13  1  0
 13 14  1  0
 14 15  2  0
 15 16  1  0
 16 17  2  0
 17 18  1  0
 18 19  2  0
 19 20  1  0
 20 21  1  0
 20 22  1  0
 20 23  1  0
 13 24  1  0
 24 25  1  0
 25 26  1  0
 26 27  1  0
 27 28  2  0
 27 29  2  0
 27 30  1  0
 30 31  2  0
 31 32  1  0
 32 33  2  0
 33 34  1  0
 10  5  1  0
 26 11  1  0
 34 30  1  0
 19 14  1  0
  4 35  1  0
  4 36  1  0
  6 37  1  0
  7 38  1  0
  8 39  1  0
  9 40  1  0
 10 41  1  0
 11 42  1  1
 12 43  1  0
 12 44  1  0
 15 45  1  0
 16 46  1  0
 17 47  1  0
 18 48  1  0
 24 49  1  0
 24 50  1  0
 25 51  1  0
 25 52  1  0
 26 53  1  1
 31 54  1  0
 32 55  1  0
 33 56  1  0
M  CHG  2   3  -1  26   1
M  END
>  <UniqueID>  (92) 
83

>  <SMILES>  (92) 
O=C([N-]Cc1ccccc1)[C@@H]1CN(c2ccccc2C(F)(F)F)CC[N@@H+]1S(=O)(=O)c1cccs1

>  <Energy>  (92) 
99.73298745634268

>  <Genealogy>  (92) 
O=C([N-]Cc1ccccc1)C1CN(c2ccccc2C(F)(F)F)CC[NH+]1S(=O)(=O)c1cccs1 (protonated)
O=C([N-]Cc1ccccc1)[C@@H]1CN(c2ccccc2C(F)(F)F)CC[N@@H+]1S(=O)(=O)c1cccs1 (chirality)
O=C([N-]Cc1ccccc1)[C@@H]1CN(c2ccccc2C(F)(F)F)CC[N@@H+]1S(=O)(=O)c1cccs1 (3D coordinates assigned)
O=C([N-]Cc1ccccc1)[C@@H]1CN(c2ccccc2C(F)(F)F)CC[N@@H+]1S(=O)(=O)c1cccs1 (nonaromatic ring conformer: 99.73298745634268 kcal/mol)

>  <smiles>  (92) 
O=C(NCc1ccccc1)C1CN(c2ccccc2C(F)(F)F)CCN1S(=O)(=O)c1cccs1

>  <score_type>  (92) 
oracle

>  <origin>  (92) 
adg

>  <m_score__min__energy>  (92) 
-8

>  <m_primary>  (92) 
energy

$$$$
92:0
     RDKit          3D

 60 63  0  0  0  0  0  0  0  0999 V2000
   62.3090   33.8750   46.5190 C   0  0  0  0  0  0  0  0  0  0  0  0
   60.8310   33.6950   46.7070 C   0  0  0  0  0  0  0  0  0  0  0  0
   60.2380   33.9600   47.9540 C   0  0  0  0  0  0  0  0  0  0  0  0
   58.8610   33.8020   48.1280 C   0  0  0  0  0  0  0  0  0  0  0  0
   58.0610   33.3920   47.0580 C   0  0  0  0  0  0  0  0  0  0  0  0
   58.6320   33.1550   45.7960 C   0  0  0  0  0  0  0  0  0  0  0  0
   57.7790   32.6980   44.6480 C   0  0  0  0  0  0  0  0  0  0  0  0
   56.7240   31.8170   45.1510 N   0  0  0  0  0  0  0  0  0  0  0  0
   56.5570   30.4230   44.1280 S   0  0  0  0  0  0  0  0  0  0  0  0
   55.1330   29.9400   44.1560 O   0  0  0  0  0  0  0  0  0  0  0  0
   56.9250   30.7860   42.7150 O   0  0  0  0  0  0  0  0  0  0  0  0
   57.6080   29.1540   44.7470 C   0  0  0  0  0  0  0  0  0  0  0  0
   58.0000   28.0790   43.9400 C   0  0  0  0  0  0  0  0  0  0  0  0
   58.9080   27.1350   44.4260 C   0  0  0  0  0  0  0  0  0  0  0  0
   59.4470   27.2740   45.7080 C   0  0  0  0  0  0  0  0  0  0  0  0
   59.0800   28.3580   46.5210 C   0  0  0  0  0  0  0  0  0  0  0  0
   59.6550   28.4890   47.8340 N   0  0  0  0  0  0  0  0  0  0  0  0
   59.9090   29.7540   48.4760 C   0  0  0  0  0  0  0  0  0  0  0  0
   59.9450   30.8120   47.7910 O   0  0  0  0  0  0  0  0  0  0  0  0
   60.1720   29.8650   49.9660 C   0  0  1  0  0  0  0  0  0  0  0  0
   61.2710   28.9330   50.4930 C   0  0  0  0  0  0  0  0  0  0  0  0
   60.4460   31.2730   50.3800 N   0  0  0  0  0  0  0  0  0  0  0  0
   59.4830   31.9720   51.0880 C   0  0  0  0  0  0  0  0  0  0  0  0
   58.3590   31.4490   51.3300 O   0  0  0  0  0  0  0  0  0  0  0  0
   59.7350   33.2750   51.5470 C   0  0  0  0  0  0  0  0  0  0  0  0
   58.7260   34.0270   52.3620 C   0  0  0  0  0  0  0  0  0  0  0  0
   60.9370   33.8430   51.3080 N   0  0  0  0  0  0  0  0  0  0  0  0
   61.8870   33.2100   50.5830 C   0  0  0  0  0  0  0  0  0  0  0  0
   63.1010   33.8630   50.3400 C   0  0  0  0  0  0  0  0  0  0  0  0
   64.0740   33.2560   49.5480 C   0  0  0  0  0  0  0  0  0  0  0  0
   63.8220   32.0220   48.9560 C   0  0  0  0  0  0  0  0  0  0  0  0
   62.6120   31.3630   49.1870 C   0  0  0  0  0  0  0  0  0  0  0  0
   61.6340   31.9170   50.0560 C   0  0  0  0  0  0  0  0  0  0  0  0
   58.1270   29.2750   46.0400 C   0  0  0  0  0  0  0  0  0  0  0  0
   60.0220   33.3000   45.6290 C   0  0  0  0  0  0  0  0  0  0  0  0
   62.7991   33.9347   47.5020 H   0  0  0  0  0  0  0  0  0  0  0  0
   62.7142   33.0196   45.9586 H   0  0  0  0  0  0  0  0  0  0  0  0
   62.4970   34.8027   45.9586 H   0  0  0  0  0  0  0  0  0  0  0  0
   60.8614   34.2934   48.7967 H   0  0  0  0  0  0  0  0  0  0  0  0
   58.4054   34.0007   49.1093 H   0  0  0  0  0  0  0  0  0  0  0  0
   56.9795   33.2542   47.2043 H   0  0  0  0  0  0  0  0  0  0  0  0
   57.3254   33.5714   44.1566 H   0  0  0  0  0  0  0  0  0  0  0  0
   58.3995   32.1529   43.9215 H   0  0  0  0  0  0  0  0  0  0  0  0
   57.5929   27.9777   42.9231 H   0  0  0  0  0  0  0  0  0  0  0  0
   59.1995   26.2802   43.7981 H   0  0  0  0  0  0  0  0  0  0  0  0
   60.1640   26.5286   46.0827 H   0  0  0  0  0  0  0  0  0  0  0  0
   59.9840   27.6160   48.3000 H   0  0  0  0  0  0  0  0  0  0  0  0
   59.2349   29.5264   50.4321 H   0  0  0  0  0  0  0  0  0  0  0  0
   61.2620   28.9407   51.5929 H   0  0  0  0  0  0  0  0  0  0  0  0
   61.0886   27.9101   50.1319 H   0  0  0  0  0  0  0  0  0  0  0  0
   62.2504   29.2801   50.1319 H   0  0  0  0  0  0  0  0  0  0  0  0
   58.9313   33.8740   53.4318 H   0  0  0  0  0  0  0  0  0  0  0  0
   58.7899   35.0995   52.1261 H   0  0  0  0  0  0  0  0  0  0  0  0
   57.7165   33.6592   52.1261 H   0  0  0  0  0  0  0  0  0  0  0  0
   63.2873   34.8562   50.7746 H   0  0  0  0  0  0  0  0  0  0  0  0
   65.0426   33.7531   49.3906 H   0  0  0  0  0  0  0  0  0  0  0  0
   64.5792   31.5633   48.3031 H   0  0  0  0  0  0  0  0  0  0  0  0
   62.4138   30.4022   48.6894 H   0  0  0  0  0  0  0  0  0  0  0  0
   57.7866   30.0960   46.6882 H   0  0  0  0  0  0  0  0  0  0  0  0
   60.4778   33.1026   44.6475 H   0  0  0  0  0  0  0  0  0  0  0  0
  1  2  1  0
  2  3  2  0
  3  4  1  0
  4  5  2  0
  5  6  1  0
  6  7  1  0
  7  8  1  0
  8  9  1  0
  9 10  2  0
  9 11  2  0
  9 12  1  0
 12 13  2  0
 13 14  1  0
 14 15  2  0
 15 16  1  0
 16 17  1  0
 17 18  1  0
 18 19  2  0
 18 20  1  0
 20 21  1  0
 20 22  1  0
 22 23  1  0
 23 24  2  0
 23 25  1  0
 25 26  1  0
 25 27  2  0
 27 28  1  0
 28 29  2  0
 29 30  1  0
 30 31  2  0
 31 32  1  0
 32 33  2  0
 16 34  2  0
  6 35  2  0
 35  2  1  0
 34 12  1  0
 33 22  1  0
 33 28  1  0
  1 36  1  0
  1 37  1  0
  1 38  1  0
  3 39  1  0
  4 40  1  0
  5 41  1  0
  7 42  1  0
  7 43  1  0
 13 44  1  0
 14 45  1  0
 15 46  1  0
 17 47  1  0
 20 48  1  1
 21 49  1  0
 21 50  1  0
 21 51  1  0
 26 52  1  0
 26 53  1  0
 26 54  1  0
 29 55  1  0
 30 56  1  0
 31 57  1  0
 32 58  1  0
 34 59  1  0
 35 60  1  0
M  CHG  1   8  -1
M  END
>  <UniqueID>  (93) 
84

>  <SMILES>  (93) 
Cc1cccc(C[N-]S(=O)(=O)c2cccc(NC(=O)[C@@H](C)n3c(=O)c(C)nc4ccccc43)c2)c1

>  <Energy>  (93) 
77.78709186086618

>  <Genealogy>  (93) 
Cc1cccc(C[N-]S(=O)(=O)c2cccc(NC(=O)C(C)n3c(=O)c(C)nc4ccccc43)c2)c1 (protonated)
Cc1cccc(C[N-]S(=O)(=O)c2cccc(NC(=O)[C@@H](C)n3c(=O)c(C)nc4ccccc43)c2)c1 (chirality)
Cc1cccc(C[N-]S(=O)(=O)c2cccc(NC(=O)[C@@H](C)n3c(=O)c(C)nc4ccccc43)c2)c1 (3D coordinates assigned)
Cc1cccc(C[N-]S(=O)(=O)c2cccc(NC(=O)[C@@H](C)n3c(=O)c(C)nc4ccccc43)c2)c1 (optimized conformer: 77.78709186086618 kcal/mol)

>  <smiles>  (93) 
Cc1cccc(CNS(=O)(=O)c2cccc(NC(=O)C(C)n3c(=O)c(C)nc4ccccc43)c2)c1

>  <score_type>  (93) 
oracle

>  <origin>  (93) 
adg

>  <m_score__min__energy>  (93) 
-11.31

>  <m_primary>  (93) 
energy

$$$$
93:0
     RDKit          3D

 43 46  0  0  0  0  0  0  0  0999 V2000
   60.3830   26.4220   46.3940 C   0  0  0  0  0  0  0  0  0  0  0  0
   59.1620   27.2090   46.0060 C   0  0  0  0  0  0  0  0  0  0  0  0
   57.9050   26.8440   46.4880 C   0  0  0  0  0  0  0  0  0  0  0  0
   56.8070   27.5330   46.1030 N   0  0  0  0  0  0  0  0  0  0  0  0
   56.8920   28.5850   45.2470 C   0  0  0  0  0  0  0  0  0  0  0  0
   58.1110   28.9830   44.7590 N   0  0  0  0  0  0  0  0  0  0  0  0
   59.2410   28.2850   45.1070 C   0  0  0  0  0  0  0  0  0  0  0  0
   60.3620   28.6020   44.6200 O   0  0  0  0  0  0  0  0  0  0  0  0
   58.1990   30.0840   43.7780 C   0  0  0  0  0  0  0  0  0  0  0  0
   57.0570   31.1060   43.9240 C   0  0  2  0  0  0  0  0  0  0  0  0
   57.2470   31.9650   45.1610 C   0  0  0  0  0  0  0  0  0  0  0  0
   56.8540   33.1620   45.1550 O   0  0  0  0  0  0  0  0  0  0  0  0
   57.7500   31.4180   46.3880 N   0  0  0  0  0  0  0  0  0  0  0  0
   59.0460   31.6470   46.9570 C   0  0  0  0  0  0  0  0  0  0  0  0
   59.6860   32.8910   46.8510 C   0  0  0  0  0  0  0  0  0  0  0  0
   60.9350   33.0950   47.4440 C   0  0  0  0  0  0  0  0  0  0  0  0
   61.5610   32.0640   48.1700 C   0  0  0  0  0  0  0  0  0  0  0  0
   62.8900   32.2880   48.7940 C   0  0  0  0  0  0  0  0  0  0  0  0
   63.4380   31.5920   49.8740 C   0  0  0  0  0  0  0  0  0  0  0  0
   64.7200   32.0300   50.2330 C   0  0  0  0  0  0  0  0  0  0  0  0
   65.1980   33.0680   49.4470 C   0  0  0  0  0  0  0  0  0  0  0  0
   64.0240   33.4380   48.3050 S   0  0  0  0  0  0  0  0  0  0  0  0
   60.8950   30.8310   48.3010 C   0  0  0  0  0  0  0  0  0  0  0  0
   59.6460   30.6300   47.7060 C   0  0  0  0  0  0  0  0  0  0  0  0
   55.7040   30.3830   43.9300 C   0  0  0  0  0  0  0  0  0  0  0  0
   55.6960   29.2940   44.8990 N   0  0  0  0  0  0  0  0  0  0  0  0
   60.4558   26.3751   47.4906 H   0  0  0  0  0  0  0  0  0  0  0  0
   60.3066   25.4027   45.9876 H   0  0  0  0  0  0  0  0  0  0  0  0
   61.2798   26.9125   45.9876 H   0  0  0  0  0  0  0  0  0  0  0  0
   57.8069   25.9957   47.1813 H   0  0  0  0  0  0  0  0  0  0  0  0
   59.1573   30.6052   43.9197 H   0  0  0  0  0  0  0  0  0  0  0  0
   58.1201   29.6404   42.7745 H   0  0  0  0  0  0  0  0  0  0  0  0
   57.0749   31.7858   43.0594 H   0  0  0  0  0  0  0  0  0  0  0  0
   59.2023   33.7099   46.2984 H   0  0  0  0  0  0  0  0  0  0  0  0
   61.4336   34.0703   47.3425 H   0  0  0  0  0  0  0  0  0  0  0  0
   62.9129   30.7770   50.3937 H   0  0  0  0  0  0  0  0  0  0  0  0
   65.2944   31.5909   51.0620 H   0  0  0  0  0  0  0  0  0  0  0  0
   66.1750   33.5622   49.5532 H   0  0  0  0  0  0  0  0  0  0  0  0
   61.3615   30.0181   48.8768 H   0  0  0  0  0  0  0  0  0  0  0  0
   59.1318   29.6653   47.8279 H   0  0  0  0  0  0  0  0  0  0  0  0
   54.9134   31.1020   44.1909 H   0  0  0  0  0  0  0  0  0  0  0  0
   55.5281   29.9618   42.9292 H   0  0  0  0  0  0  0  0  0  0  0  0
   54.7800   28.9650   45.2760 H   0  0  0  0  0  0  0  0  0  0  0  0
  1  2  1  0
  2  3  2  0
  3  4  1  0
  4  5  2  0
  5  6  1  0
  6  7  1  0
  7  8  2  0
  6  9  1  0
  9 10  1  0
 10 11  1  0
 11 12  2  0
 11 13  1  0
 13 14  1  0
 14 15  2  0
 15 16  1  0
 16 17  2  0
 17 18  1  0
 18 19  2  0
 19 20  1  0
 20 21  2  0
 21 22  1  0
 17 23  1  0
 23 24  2  0
 10 25  1  0
 25 26  1  0
  7  2  1  0
 24 14  1  0
 26  5  1  0
 22 18  1  0
  1 27  1  0
  1 28  1  0
  1 29  1  0
  3 30  1  0
  9 31  1  0
  9 32  1  0
 10 33  1  6
 15 34  1  0
 16 35  1  0
 19 36  1  0
 20 37  1  0
 21 38  1  0
 23 39  1  0
 24 40  1  0
 25 41  1  0
 25 42  1  0
 26 43  1  0
M  CHG  1  13  -1
M  END
>  <UniqueID>  (94) 
85

>  <SMILES>  (94) 
Cc1cnc2n(c1=O)C[C@H](C(=O)[N-]c1ccc(-c3cccs3)cc1)CN2

>  <Energy>  (94) 
83.47129887673408

>  <Genealogy>  (94) 
Cc1cnc2n(c1=O)CC(C(=O)[N-]c1ccc(-c3cccs3)cc1)CN2 (protonated)
Cc1cnc2n(c1=O)C[C@H](C(=O)[N-]c1ccc(-c3cccs3)cc1)CN2 (chirality)
Cc1cnc2n(c1=O)C[C@H](C(=O)[N-]c1ccc(-c3cccs3)cc1)CN2 (3D coordinates assigned)
Cc1cnc2n(c1=O)C[C@H](C(=O)[N-]c1ccc(-c3cccs3)cc1)CN2 (nonaromatic ring conformer: 83.47129887673408 kcal/mol)

>  <smiles>  (94) 
Cc1cnc2n(c1=O)CC(C(=O)Nc1ccc(-c3cccs3)cc1)CN2

>  <score_type>  (94) 
oracle

>  <origin>  (94) 
adg

>  <m_score__min__energy>  (94) 
-10.449999999999999

>  <m_primary>  (94) 
energy

$$$$
94:0
     RDKit          3D

 66 70  0  0  0  0  0  0  0  0999 V2000
   64.1680   34.1500   50.9270 C   0  0  0  0  0  0  0  0  0  0  0  0
   62.7630   33.9480   51.0470 O   0  0  0  0  0  0  0  0  0  0  0  0
   61.8800   33.8500   49.9620 C   0  0  0  0  0  0  0  0  0  0  0  0
   62.3250   33.7830   48.6320 C   0  0  0  0  0  0  0  0  0  0  0  0
   61.4080   33.6930   47.5810 C   0  0  0  0  0  0  0  0  0  0  0  0
   60.0120   33.6720   47.8240 C   0  0  0  0  0  0  0  0  0  0  0  0
   59.0490   33.5880   46.7250 N   0  0  0  0  0  0  0  0  0  0  0  0
   59.5680   33.4370   45.3400 C   0  0  0  0  0  0  0  0  0  0  0  0
   58.4980   33.4690   44.2490 C   0  0  0  0  0  0  0  0  0  0  0  0
   57.2920   32.8090   44.7300 N   0  0  0  0  0  0  0  0  0  0  0  0
   56.9600   31.4380   44.4090 C   0  0  0  0  0  0  0  0  0  0  0  0
   55.8890   30.9350   44.8490 O   0  0  0  0  0  0  0  0  0  0  0  0
   57.8620   30.5940   43.5530 C   0  0  0  0  0  0  0  0  0  0  0  0
   58.4660   29.5610   44.3310 O   0  0  0  0  0  0  0  0  0  0  0  0
   59.0390   29.7550   45.5960 C   0  0  0  0  0  0  0  0  0  0  0  0
   58.2700   29.8200   46.7720 C   0  0  0  0  0  0  0  0  0  0  0  0
   58.8870   30.0050   48.0120 C   0  0  0  0  0  0  0  0  0  0  0  0
   60.2840   30.1390   48.1040 C   0  0  0  0  0  0  0  0  0  0  0  0
   60.9430   30.3380   49.4230 C   0  0  0  0  0  0  0  0  0  0  0  0
   60.2940   30.3510   50.6610 C   0  0  0  0  0  0  0  0  0  0  0  0
   61.2960   30.5700   51.5860 C   0  0  0  0  0  0  0  0  0  0  0  0
   62.4650   30.6770   50.9100 C   0  0  0  0  0  0  0  0  0  0  0  0
   62.2770   30.5400   49.5870 N   0  0  0  0  0  0  0  0  0  0  0  0
   63.6500   30.9040   51.5930 C   0  0  0  0  0  0  0  0  0  0  0  0
   64.7340   31.0220   50.9570 O   0  0  0  0  0  0  0  0  0  0  0  0
   63.6080   30.9990   52.9650 N   0  0  0  0  0  0  0  0  0  0  0  0
   64.8420   31.2690   53.7230 C   0  0  0  0  0  0  0  0  0  0  0  0
   62.3970   30.9120   53.6340 C   0  0  0  0  0  0  0  0  0  0  0  0
   62.3670   31.0420   54.8900 O   0  0  0  0  0  0  0  0  0  0  0  0
   61.2240   30.6880   52.9420 N   0  0  0  0  0  0  0  0  0  0  0  0
   59.9230   30.5670   53.6180 C   0  0  0  0  0  0  0  0  0  0  0  0
   61.0460   30.0760   46.9240 C   0  0  0  0  0  0  0  0  0  0  0  0
   60.4280   29.8840   45.6860 C   0  0  0  0  0  0  0  0  0  0  0  0
   56.6590   33.4990   45.8450 C   0  0  0  0  0  0  0  0  0  0  0  0
   57.6010   33.5010   47.0520 C   0  0  0  0  0  0  0  0  0  0  0  0
   59.5870   33.7250   49.1740 C   0  0  0  0  0  0  0  0  0  0  0  0
   60.5100   33.8160   50.2200 C   0  0  0  0  0  0  0  0  0  0  0  0
   64.6161   34.2144   51.9295 H   0  0  0  0  0  0  0  0  0  0  0  0
   64.6142   33.3068   50.3794 H   0  0  0  0  0  0  0  0  0  0  0  0
   64.3586   35.0848   50.3794 H   0  0  0  0  0  0  0  0  0  0  0  0
   63.4033   33.8015   48.4156 H   0  0  0  0  0  0  0  0  0  0  0  0
   61.7767   33.6374   46.5461 H   0  0  0  0  0  0  0  0  0  0  0  0
   60.2768   34.2562   45.1487 H   0  0  0  0  0  0  0  0  0  0  0  0
   60.0328   32.4413   45.2897 H   0  0  0  0  0  0  0  0  0  0  0  0
   58.2668   34.5135   43.9931 H   0  0  0  0  0  0  0  0  0  0  0  0
   58.8702   32.9457   43.3559 H   0  0  0  0  0  0  0  0  0  0  0  0
   57.2719   30.1396   42.7435 H   0  0  0  0  0  0  0  0  0  0  0  0
   58.6534   31.2321   43.1329 H   0  0  0  0  0  0  0  0  0  0  0  0
   57.1756   29.7246   46.7151 H   0  0  0  0  0  0  0  0  0  0  0  0
   58.2744   30.0462   48.9247 H   0  0  0  0  0  0  0  0  0  0  0  0
   59.2198   30.2162   50.8559 H   0  0  0  0  0  0  0  0  0  0  0  0
   63.0180   30.5650   48.8520 H   0  0  0  0  0  0  0  0  0  0  0  0
   64.6278   31.2221   54.8009 H   0  0  0  0  0  0  0  0  0  0  0  0
   65.6018   30.5158   53.4670 H   0  0  0  0  0  0  0  0  0  0  0  0
   65.2178   32.2706   53.4670 H   0  0  0  0  0  0  0  0  0  0  0  0
   60.0732   30.5810   54.7076 H   0  0  0  0  0  0  0  0  0  0  0  0
   59.2783   31.4091   53.3259 H   0  0  0  0  0  0  0  0  0  0  0  0
   59.4447   29.6205   53.3259 H   0  0  0  0  0  0  0  0  0  0  0  0
   62.1399   30.1790   46.9762 H   0  0  0  0  0  0  0  0  0  0  0  0
   61.0401   29.8339   44.7734 H   0  0  0  0  0  0  0  0  0  0  0  0
   56.4354   34.5359   45.5539 H   0  0  0  0  0  0  0  0  0  0  0  0
   55.7260   32.9810   46.1118 H   0  0  0  0  0  0  0  0  0  0  0  0
   57.3425   34.3634   47.6840 H   0  0  0  0  0  0  0  0  0  0  0  0
   57.4587   32.5315   47.5518 H   0  0  0  0  0  0  0  0  0  0  0  0
   58.5117   33.6940   49.4035 H   0  0  0  0  0  0  0  0  0  0  0  0
   60.1513   33.8613   51.2589 H   0  0  0  0  0  0  0  0  0  0  0  0
  1  2  1  0
  2  3  1  0
  3  4  2  0
  4  5  1  0
  5  6  2  0
  6  7  1  0
  7  8  1  0
  8  9  1  0
  9 10  1  0
 10 11  1  0
 11 12  2  0
 11 13  1  0
 13 14  1  0
 14 15  1  0
 15 16  2  0
 16 17  1  0
 17 18  2  0
 18 19  1  0
 19 20  2  0
 20 21  1  0
 21 22  2  0
 22 23  1  0
 22 24  1  0
 24 25  2  0
 24 26  1  0
 26 27  1  0
 26 28  1  0
 28 29  2  0
 28 30  1  0
 30 31  1  0
 18 32  1  0
 32 33  2  0
 10 34  1  0
 34 35  1  0
  6 36  1  0
 36 37  2  0
 37  3  1  0
 35  7  1  0
 33 15  1  0
 23 19  1  0
 30 21  1  0
  1 38  1  0
  1 39  1  0
  1 40  1  0
  4 41  1  0
  5 42  1  0
  8 43  1  0
  8 44  1  0
  9 45  1  0
  9 46  1  0
 13 47  1  0
 13 48  1  0
 16 49  1  0
 17 50  1  0
 20 51  1  0
 23 52  1  0
 27 53  1  0
 27 54  1  0
 27 55  1  0
 31 56  1  0
 31 57  1  0
 31 58  1  0
 32 59  1  0
 33 60  1  0
 34 61  1  0
 34 62  1  0
 35 63  1  0
 35 64  1  0
 36 65  1  0
 37 66  1  0
M  END
>  <UniqueID>  (95) 
86

>  <SMILES>  (95) 
COc1ccc(N2CCN(C(=O)COc3ccc(-c4cc5c([nH]4)c(=O)n(C)c(=O)n5C)cc3)CC2)cc1

>  <Energy>  (95) 
124.09889649739068

>  <Genealogy>  (95) 
COc1ccc(N2CCN(C(=O)COc3ccc(-c4cc5c([nH]4)c(=O)n(C)c(=O)n5C)cc3)CC2)cc1 (3D coordinates assigned)
COc1ccc(N2CCN(C(=O)COc3ccc(-c4cc5c([nH]4)c(=O)n(C)c(=O)n5C)cc3)CC2)cc1 (nonaromatic ring conformer: 124.09889649739068 kcal/mol)

>  <smiles>  (95) 
COc1ccc(N2CCN(C(=O)COc3ccc(-c4cc5c([nH]4)c(=O)n(C)c(=O)n5C)cc3)CC2)cc1

>  <score_type>  (95) 
oracle

>  <origin>  (95) 
adg

>  <m_score__min__energy>  (95) 
-8.6600000000000001

>  <m_primary>  (95) 
energy

$$$$
95:0
     RDKit          3D

 34 36  0  0  0  0  0  0  0  0999 V2000
   56.3160   20.8200   42.9170 N   0  0  0  0  0  0  0  0  0  0  0  0
   56.6660   21.7920   43.6780 C   0  0  0  0  0  0  0  0  0  0  0  0
   56.8840   21.6880   44.9950 N   0  0  0  0  0  0  0  0  0  0  0  0
   57.2520   22.7260   45.7710 C   0  0  0  0  0  0  0  0  0  0  0  0
   57.4480   22.5870   47.0100 O   0  0  0  0  0  0  0  0  0  0  0  0
   57.4210   23.9740   45.2140 C   0  0  0  0  0  0  0  0  0  0  0  0
   57.7660   25.1840   45.6640 N   0  0  0  0  0  0  0  0  0  0  0  0
   57.7710   26.0650   44.6480 C   0  0  0  0  0  0  0  0  0  0  0  0
   58.0980   27.5170   44.7100 C   0  0  0  0  0  0  0  0  0  0  0  0
   57.6420   28.2050   43.5270 N   0  0  0  0  0  0  0  0  0  0  0  0
   56.6100   29.5410   43.9090 S   0  0  0  0  0  0  0  0  0  0  0  0
   55.9520   29.9550   42.6200 O   0  0  0  0  0  0  0  0  0  0  0  0
   55.4980   29.1350   44.8480 O   0  0  0  0  0  0  0  0  0  0  0  0
   57.4930   30.9090   44.5150 C   0  0  0  0  0  0  0  0  0  0  0  0
   58.1480   30.9160   45.7370 C   0  0  0  0  0  0  0  0  0  0  0  0
   58.8210   32.0590   46.1210 C   0  0  0  0  0  0  0  0  0  0  0  0
   58.8680   33.1940   45.3400 C   0  0  0  0  0  0  0  0  0  0  0  0
   58.2180   33.1910   44.1210 C   0  0  0  0  0  0  0  0  0  0  0  0
   57.5310   32.0510   43.7080 C   0  0  0  0  0  0  0  0  0  0  0  0
   57.4210   25.3840   43.5450 N   0  0  0  0  0  0  0  0  0  0  0  0
   57.1950   24.0810   43.8520 C   0  0  0  0  0  0  0  0  0  0  0  0
   56.8260   23.0060   43.1100 N   0  0  0  0  0  0  0  0  0  0  0  0
   56.8550   19.9340   42.9880 H   0  0  0  0  0  0  0  0  0  0  0  0
   56.7540   20.7330   45.4190 H   0  0  0  0  0  0  0  0  0  0  0  0
   57.9970   25.4180   46.6470 H   0  0  0  0  0  0  0  0  0  0  0  0
   57.6099   27.9575   45.5919 H   0  0  0  0  0  0  0  0  0  0  0  0
   59.1906   27.6256   44.7769 H   0  0  0  0  0  0  0  0  0  0  0  0
   57.0200   27.5310   42.9930 H   0  0  0  0  0  0  0  0  0  0  0  0
   58.1319   30.0290   46.3874 H   0  0  0  0  0  0  0  0  0  0  0  0
   59.3412   32.0640   47.0902 H   0  0  0  0  0  0  0  0  0  0  0  0
   59.4134   34.0862   45.6814 H   0  0  0  0  0  0  0  0  0  0  0  0
   58.2426   34.0842   43.4794 H   0  0  0  0  0  0  0  0  0  0  0  0
   57.0133   32.0492   42.7374 H   0  0  0  0  0  0  0  0  0  0  0  0
   56.6790   23.1870   42.0970 H   0  0  0  0  0  0  0  0  0  0  0  0
  1  2  2  3
  2  3  1  0
  3  4  1  0
  4  5  2  0
  4  6  1  0
  6  7  1  0
  7  8  1  0
  8  9  1  0
  9 10  1  0
 10 11  1  0
 11 12  2  0
 11 13  2  0
 11 14  1  0
 14 15  2  0
 15 16  1  0
 16 17  2  0
 17 18  1  0
 18 19  2  0
  8 20  2  0
 20 21  1  0
 21 22  1  0
 22  2  1  0
 21  6  2  0
 19 14  1  0
  1 23  1  0
  3 24  1  0
  7 25  1  0
  9 26  1  0
  9 27  1  0
 10 28  1  0
 15 29  1  0
 16 30  1  0
 17 31  1  0
 18 32  1  0
 19 33  1  0
 22 34  1  0
M  END
>  <smiles>  (96) 
N=c1[nH]c(=O)c2[nH]c(CNS(=O)(=O)c3ccccc3)nc2[nH]1

>  <score_type>  (96) 
oracle

>  <origin>  (96) 
adg

>  <m_score__min__energy>  (96) 
-8.6400000000000006

>  <m_primary>  (96) 
energy

$$$$
