0:0
     RDKit          3D

 57 60  0  0  0  0  0  0  0  0999 V2000
   59.8685   34.5290   47.1579 H   0  0  0  0  0  0  0  0  0  0  0  0
   59.2000   33.8270   46.6380 C   0  0  0  0  0  0  0  0  0  0  0  0
   59.0170   32.5750   47.1270 N   0  0  0  0  0  0  0  0  0  0  0  0
   58.2060   31.6600   46.5290 C   0  0  0  0  0  0  0  0  0  0  0  0
   58.1150   30.4830   47.0870 N   0  0  0  0  0  0  0  0  0  0  0  0
   59.0160   29.8740   48.0170 C   0  0  0  0  0  0  0  0  0  0  0  0
   59.3040   28.6550   47.8860 O   0  0  0  0  0  0  0  0  0  0  0  0
   59.5270   30.6310   49.1270 N   0  0  0  0  0  0  0  0  0  0  0  0
   59.3560   31.6610   49.1420 H   0  0  0  0  0  0  0  0  0  0  0  0
   60.4500   30.0840   50.0790 C   0  0  0  0  0  0  0  0  0  0  0  0
   60.0250   29.0310   50.9010 C   0  0  0  0  0  0  0  0  0  0  0  0
   59.0163   28.6113   50.7727 H   0  0  0  0  0  0  0  0  0  0  0  0
   60.8720   28.5110   51.8810 C   0  0  0  0  0  0  0  0  0  0  0  0
   60.4430   27.5040   52.6830 F   0  0  0  0  0  0  0  0  0  0  0  0
   62.1570   29.0280   52.0390 C   0  0  0  0  0  0  0  0  0  0  0  0
   62.8172   28.6284   52.8228 H   0  0  0  0  0  0  0  0  0  0  0  0
   62.6070   30.0520   51.2040 C   0  0  0  0  0  0  0  0  0  0  0  0
   63.6251   30.4494   51.3289 H   0  0  0  0  0  0  0  0  0  0  0  0
   61.7710   30.5800   50.2050 C   0  0  0  0  0  0  0  0  0  0  0  0
   62.2920   31.5630   49.2900 N   0  0  0  0  0  0  0  0  0  0  0  0
   63.0600   32.7060   49.7960 C   0  0  0  0  0  0  0  0  0  0  0  0
   64.0798   32.3779   50.0460 H   0  0  0  0  0  0  0  0  0  0  0  0
   62.5659   33.1042   50.6945 H   0  0  0  0  0  0  0  0  0  0  0  0
   63.1270   33.8030   48.7310 C   0  0  0  0  0  0  0  0  0  0  0  0
   63.7336   34.6359   49.1162 H   0  0  0  0  0  0  0  0  0  0  0  0
   62.0993   34.1286   48.5122 H   0  0  0  0  0  0  0  0  0  0  0  0
   63.7320   33.3130   47.4690 N   0  0  0  0  0  0  0  0  0  0  0  0
   63.3990   34.2200   46.3600 C   0  0  0  0  0  0  0  0  0  0  0  0
   63.0465   35.1801   46.7648 H   0  0  0  0  0  0  0  0  0  0  0  0
   64.2939   34.3886   45.7429 H   0  0  0  0  0  0  0  0  0  0  0  0
   62.6076   33.7695   45.7429 H   0  0  0  0  0  0  0  0  0  0  0  0
   63.4090   31.9010   47.1280 C   0  0  0  0  0  0  0  0  0  0  0  0
   64.2630   31.2689   47.4128 H   0  0  0  0  0  0  0  0  0  0  0  0
   63.2086   31.8644   46.0470 H   0  0  0  0  0  0  0  0  0  0  0  0
   62.1550   31.3760   47.8410 C   0  0  0  0  0  0  0  0  0  0  0  0
   62.0312   30.3053   47.6211 H   0  0  0  0  0  0  0  0  0  0  0  0
   61.2752   31.9318   47.4847 H   0  0  0  0  0  0  0  0  0  0  0  0
   57.4760   32.0390   45.3680 C   0  0  0  0  0  0  0  0  0  0  0  0
   56.5480   31.1560   44.7880 O   0  0  0  0  0  0  0  0  0  0  0  0
   56.8480   30.1320   43.8390 C   0  0  0  0  0  0  0  0  0  0  0  0
   55.9148   29.7947   43.3643 H   0  0  0  0  0  0  0  0  0  0  0  0
   57.5344   30.5403   43.0827 H   0  0  0  0  0  0  0  0  0  0  0  0
   57.5110   28.9610   44.5130 C   0  0  0  0  0  0  0  0  0  0  0  0
   58.8920   28.7550   44.3640 C   0  0  0  0  0  0  0  0  0  0  0  0
   59.4878   29.4539   43.7586 H   0  0  0  0  0  0  0  0  0  0  0  0
   59.5130   27.6650   44.9820 C   0  0  0  0  0  0  0  0  0  0  0  0
   60.5965   27.5129   44.8688 H   0  0  0  0  0  0  0  0  0  0  0  0
   58.7570   26.7680   45.7440 C   0  0  0  0  0  0  0  0  0  0  0  0
   59.2459   25.9110   46.2304 H   0  0  0  0  0  0  0  0  0  0  0  0
   57.3810   26.9610   45.8870 C   0  0  0  0  0  0  0  0  0  0  0  0
   56.7873   26.2545   46.4857 H   0  0  0  0  0  0  0  0  0  0  0  0
   56.7560   28.0500   45.2710 C   0  0  0  0  0  0  0  0  0  0  0  0
   55.6709   28.1937   45.3801 H   0  0  0  0  0  0  0  0  0  0  0  0
   57.6810   33.3300   44.8440 C   0  0  0  0  0  0  0  0  0  0  0  0
   57.1573   33.6359   43.9263 H   0  0  0  0  0  0  0  0  0  0  0  0
   58.5410   34.2220   45.4780 C   0  0  0  0  0  0  0  0  0  0  0  0
   58.6982   35.2297   45.0659 H   0  0  0  0  0  0  0  0  0  0  0  0
  1  2  1  0
  2  3  1  0
  3  4  1  0
  4  5  2  0
  5  6  1  0
  6  7  2  0
  6  8  1  0
  8  9  1  0
  8 10  1  0
 10 11  2  0
 11 12  1  0
 11 13  1  0
 13 14  1  0
 13 15  2  0
 15 16  1  0
 15 17  1  0
 17 18  1  0
 17 19  2  0
 19 20  1  0
 20 21  1  0
 21 22  1  0
 21 23  1  0
 21 24  1  0
 24 25  1  0
 24 26  1  0
 24 27  1  0
 27 28  1  0
 28 29  1  0
 28 30  1  0
 28 31  1  0
 27 32  1  0
 32 33  1  0
 32 34  1  0
 32 35  1  0
 35 36  1  0
 35 37  1  0
  4 38  1  0
 38 39  1  0
 39 40  1  0
 40 41  1  0
 40 42  1  0
 40 43  1  0
 43 44  2  0
 44 45  1  0
 44 46  1  0
 46 47  1  0
 46 48  2  0
 48 49  1  0
 48 50  1  0
 50 51  1  0
 50 52  2  0
 52 53  1  0
 38 54  2  0
 54 55  1  0
 54 56  1  0
 56 57  1  0
 56  2  2  0
 19 10  1  0
 35 20  1  0
 52 43  1  0
M  CHG  1   3  -1
M  END
>  <UniqueID>  (1) 
1

>  <SMILES>  (1) 
CN1CCN(c2ccc(F)cc2NC(=O)/N=c2/[n-]cccc2OCc2ccccc2)CC1

>  <Energy>  (1) 
87.29245908910728

>  <Genealogy>  (1) 
CN1CCN(c2ccc(F)cc2NC(=O)N=c2[n-]cccc2OCc2ccccc2)CC1 (protonated)
CN1CCN(c2ccc(F)cc2NC(=O)/N=c2/[n-]cccc2OCc2ccccc2)CC1 (cis-trans isomerization)
CN1CCN(c2ccc(F)cc2NC(=O)/N=c2/[n-]cccc2OCc2ccccc2)CC1 (3D coordinates assigned)
CN1CCN(c2ccc(F)cc2NC(=O)/N=c2/[n-]cccc2OCc2ccccc2)CC1 (nonaromatic ring conformer: 87.29245908910728 kcal/mol)

>  <smiles>  (1) 
CN1CCN(c2ccc(F)cc2NC(=O)N=c2[nH]cccc2OCc2ccccc2)CC1

>  <score_type>  (1) 
oracle

>  <origin>  (1) 
adg

>  <m_score__min__energy>  (1) 
-9.1999999999999993

>  <m_primary>  (1) 
energy

$$$$
1:0
     RDKit          3D

 60 63  0  0  0  0  0  0  0  0999 V2000
   58.0800   27.8900   53.9020 C   0  0  0  0  0  0  0  0  0  0  0  0
   57.7660   29.0580   53.1500 O   0  0  0  0  0  0  0  0  0  0  0  0
   56.4630   29.4810   52.8360 C   0  0  0  0  0  0  0  0  0  0  0  0
   55.3720   28.5880   52.8600 C   0  0  0  0  0  0  0  0  0  0  0  0
   54.0890   29.0270   52.5240 C   0  0  0  0  0  0  0  0  0  0  0  0
   53.8770   30.3570   52.1590 C   0  0  0  0  0  0  0  0  0  0  0  0
   52.2660   30.9020   51.7320 Cl  0  0  0  0  0  0  0  0  0  0  0  0
   54.9480   31.2530   52.1360 C   0  0  0  0  0  0  0  0  0  0  0  0
   56.2430   30.8320   52.4830 C   0  0  0  0  0  0  0  0  0  0  0  0
   57.3740   31.8400   52.4660 C   0  0  0  0  0  0  0  0  0  0  0  0
   57.8890   32.1250   51.0310 C   0  0  2  0  0  0  0  0  0  0  0  0
   58.2480   30.8090   50.3140 C   0  0  0  0  0  0  0  0  0  0  0  0
   59.1510   29.9710   51.1100 N   0  0  0  0  0  0  0  0  0  0  0  0
   60.2040   30.4820   51.9390 C   0  0  0  0  0  0  0  0  0  0  0  0
   60.4240   29.9400   53.0550 O   0  0  0  0  0  0  0  0  0  0  0  0
   61.1190   31.5780   51.4600 C   0  0  0  0  0  0  0  0  0  0  0  0
   60.3970   32.5250   50.6020 N   0  0  0  0  0  0  0  0  0  0  0  0
   61.0420   33.0280   49.4130 C   0  0  0  0  0  0  0  0  0  0  0  0
   61.0920   34.2690   49.2050 O   0  0  0  0  0  0  0  0  0  0  0  0
   61.6470   32.1210   48.4800 N   0  0  0  0  0  0  0  0  0  0  0  0
   61.0900   31.7140   47.1870 C   0  0  0  0  0  0  0  0  0  0  0  0
   60.7280   30.2380   47.2470 C   0  0  0  0  0  0  0  0  0  0  0  0
   60.7310   29.5200   48.4590 C   0  0  0  0  0  0  0  0  0  0  0  0
   60.4550   28.1480   48.4720 C   0  0  0  0  0  0  0  0  0  0  0  0
   60.1900   27.4760   47.2770 C   0  0  0  0  0  0  0  0  0  0  0  0
   60.2010   28.1720   46.0660 C   0  0  0  0  0  0  0  0  0  0  0  0
   60.4800   29.5430   46.0450 C   0  0  0  0  0  0  0  0  0  0  0  0
   59.9670   32.6290   46.7050 C   0  0  0  0  0  0  0  0  0  0  0  0
   58.6200   32.2360   46.8580 C   0  0  0  0  0  0  0  0  0  0  0  0
   57.5850   33.0360   46.3640 C   0  0  0  0  0  0  0  0  0  0  0  0
   57.8750   34.2150   45.6760 C   0  0  0  0  0  0  0  0  0  0  0  0
   59.2020   34.5880   45.4670 C   0  0  0  0  0  0  0  0  0  0  0  0
   60.2420   33.7950   45.9600 C   0  0  0  0  0  0  0  0  0  0  0  0
   59.1070   33.0330   51.0110 C   0  0  0  0  0  0  0  0  0  0  0  0
   59.0130   34.2050   51.4660 O   0  0  0  0  0  0  0  0  0  0  0  0
   58.0187   28.1181   54.9763 H   0  0  0  0  0  0  0  0  0  0  0  0
   57.3646   27.0917   53.6552 H   0  0  0  0  0  0  0  0  0  0  0  0
   59.0993   27.5581   53.6552 H   0  0  0  0  0  0  0  0  0  0  0  0
   55.5323   27.5378   53.1454 H   0  0  0  0  0  0  0  0  0  0  0  0
   53.2443   28.3228   52.5472 H   0  0  0  0  0  0  0  0  0  0  0  0
   54.7761   32.2993   51.8432 H   0  0  0  0  0  0  0  0  0  0  0  0
   57.0147   32.7819   52.9061 H   0  0  0  0  0  0  0  0  0  0  0  0
   58.2088   31.4179   53.0448 H   0  0  0  0  0  0  0  0  0  0  0  0
   57.0684   32.6390   50.5092 H   0  0  0  0  0  0  0  0  0  0  0  0
   57.3222   30.2473   50.1207 H   0  0  0  0  0  0  0  0  0  0  0  0
   58.7645   31.0656   49.3773 H   0  0  0  0  0  0  0  0  0  0  0  0
   58.8830   28.9720   51.2350 H   0  0  0  0  0  0  0  0  0  0  0  0
   61.5229   32.1161   52.3302 H   0  0  0  0  0  0  0  0  0  0  0  0
   61.9340   31.1255   50.8761 H   0  0  0  0  0  0  0  0  0  0  0  0
   61.8551   31.8344   46.4059 H   0  0  0  0  0  0  0  0  0  0  0  0
   60.9519   30.0415   49.4020 H   0  0  0  0  0  0  0  0  0  0  0  0
   60.4468   27.5983   49.4248 H   0  0  0  0  0  0  0  0  0  0  0  0
   59.9724   26.3978   47.2893 H   0  0  0  0  0  0  0  0  0  0  0  0
   59.9897   27.6408   45.1262 H   0  0  0  0  0  0  0  0  0  0  0  0
   60.5060   30.0815   45.0862 H   0  0  0  0  0  0  0  0  0  0  0  0
   58.3824   31.2921   47.3704 H   0  0  0  0  0  0  0  0  0  0  0  0
   56.5383   32.7349   46.5183 H   0  0  0  0  0  0  0  0  0  0  0  0
   57.0584   34.8486   45.2994 H   0  0  0  0  0  0  0  0  0  0  0  0
   59.4313   35.5097   44.9121 H   0  0  0  0  0  0  0  0  0  0  0  0
   61.2856   34.0830   45.7651 H   0  0  0  0  0  0  0  0  0  0  0  0
  1  2  1  0
  2  3  1  0
  3  4  2  0
  4  5  1  0
  5  6  2  0
  6  7  1  0
  6  8  1  0
  8  9  2  0
  9 10  1  0
 10 11  1  0
 11 12  1  0
 12 13  1  0
 13 14  1  0
 14 15  2  0
 14 16  1  0
 16 17  1  0
 17 18  1  0
 18 19  2  0
 18 20  1  0
 20 21  1  0
 21 22  1  0
 22 23  2  0
 23 24  1  0
 24 25  2  0
 25 26  1  0
 26 27  2  0
 21 28  1  0
 28 29  2  0
 29 30  1  0
 30 31  2  0
 31 32  1  0
 32 33  2  0
 17 34  1  0
 34 35  2  0
  9  3  1  0
 34 11  1  0
 27 22  1  0
 33 28  1  0
  1 36  1  0
  1 37  1  0
  1 38  1  0
  4 39  1  0
  5 40  1  0
  8 41  1  0
 10 42  1  0
 10 43  1  0
 11 44  1  6
 12 45  1  0
 12 46  1  0
 13 47  1  0
 16 48  1  0
 16 49  1  0
 21 50  1  0
 23 51  1  0
 24 52  1  0
 25 53  1  0
 26 54  1  0
 27 55  1  0
 29 56  1  0
 30 57  1  0
 31 58  1  0
 32 59  1  0
 33 60  1  0
M  CHG  1  20  -1
M  END
>  <UniqueID>  (2) 
2

>  <SMILES>  (2) 
COc1ccc(Cl)cc1C[C@@H]1CNC(=O)CN(C(=O)[N-]C(c2ccccc2)c2ccccc2)C1=O

>  <Energy>  (2) 
75.85549271726403

>  <Genealogy>  (2) 
COc1ccc(Cl)cc1CC1CNC(=O)CN(C(=O)[N-]C(c2ccccc2)c2ccccc2)C1=O (protonated)
COc1ccc(Cl)cc1C[C@@H]1CNC(=O)CN(C(=O)[N-]C(c2ccccc2)c2ccccc2)C1=O (chirality)
COc1ccc(Cl)cc1C[C@@H]1CNC(=O)CN(C(=O)[N-]C(c2ccccc2)c2ccccc2)C1=O (3D coordinates assigned)
COc1ccc(Cl)cc1C[C@@H]1CNC(=O)CN(C(=O)[N-]C(c2ccccc2)c2ccccc2)C1=O (nonaromatic ring conformer: 75.85549271726403 kcal/mol)

>  <smiles>  (2) 
COc1ccc(Cl)cc1CC1CNC(=O)CN(C(=O)NC(c2ccccc2)c2ccccc2)C1=O

>  <score_type>  (2) 
oracle

>  <origin>  (2) 
adg

>  <m_score__min__energy>  (2) 
-8.7899999999999991

>  <m_primary>  (2) 
energy

$$$$
2:0
     RDKit          3D

 35 36  0  0  0  0  0  0  0  0999 V2000
   63.2880   33.8370   46.4940 C   0  0  0  0  0  0  0  0  0  0  0  0
   62.5730   32.9180   47.4780 C   0  0  0  0  0  0  0  0  0  0  0  0
   61.2550   33.3940   47.7480 O   0  0  0  0  0  0  0  0  0  0  0  0
   60.2430   33.5890   46.7920 C   0  0  0  0  0  0  0  0  0  0  0  0
   60.0210   34.8280   46.1610 C   0  0  0  0  0  0  0  0  0  0  0  0
   58.9940   34.9640   45.2250 C   0  0  0  0  0  0  0  0  0  0  0  0
   58.1860   33.8720   44.9030 C   0  0  0  0  0  0  0  0  0  0  0  0
   58.4030   32.6230   45.5070 C   0  0  0  0  0  0  0  0  0  0  0  0
   57.5370   31.4700   45.1590 C   0  0  0  0  0  0  0  0  0  0  0  0
   56.3360   31.6810   44.8350 O   0  0  0  0  0  0  0  0  0  0  0  0
   58.0550   30.1260   45.1710 N   0  0  0  0  0  0  0  0  0  0  0  0
   57.2350   28.9520   45.0370 C   0  0  0  0  0  0  0  0  0  0  0  0
   56.0230   29.0610   44.7020 O   0  0  0  0  0  0  0  0  0  0  0  0
   57.8020   27.6020   45.2690 C   0  0  0  0  0  0  0  0  0  0  0  0
   58.8030   27.4170   46.2390 C   0  0  0  0  0  0  0  0  0  0  0  0
   59.3310   26.1440   46.4510 C   0  0  0  0  0  0  0  0  0  0  0  0
   58.8720   25.0670   45.6960 C   0  0  0  0  0  0  0  0  0  0  0  0
   57.8870   25.2820   44.7310 C   0  0  0  0  0  0  0  0  0  0  0  0
   57.3780   26.5290   44.5330 N   0  0  0  0  0  0  0  0  0  0  0  0
   59.4320   32.4970   46.4580 C   0  0  0  0  0  0  0  0  0  0  0  0
   63.8710   34.5864   47.0494 H   0  0  0  0  0  0  0  0  0  0  0  0
   63.9633   33.2424   45.8613 H   0  0  0  0  0  0  0  0  0  0  0  0
   62.5456   34.3454   45.8613 H   0  0  0  0  0  0  0  0  0  0  0  0
   62.5107   31.9074   47.0480 H   0  0  0  0  0  0  0  0  0  0  0  0
   63.1412   32.8983   48.4197 H   0  0  0  0  0  0  0  0  0  0  0  0
   60.6581   35.6906   46.4060 H   0  0  0  0  0  0  0  0  0  0  0  0
   58.8208   35.9356   44.7392 H   0  0  0  0  0  0  0  0  0  0  0  0
   57.3736   33.9908   44.1710 H   0  0  0  0  0  0  0  0  0  0  0  0
   59.0890   30.0000   45.2070 H   0  0  0  0  0  0  0  0  0  0  0  0
   59.1676   28.2719   46.8274 H   0  0  0  0  0  0  0  0  0  0  0  0
   60.1089   25.9904   47.2134 H   0  0  0  0  0  0  0  0  0  0  0  0
   59.2811   24.0589   45.8585 H   0  0  0  0  0  0  0  0  0  0  0  0
   57.5199   24.4392   44.1270 H   0  0  0  0  0  0  0  0  0  0  0  0
   56.6680   26.6500   43.7780 H   0  0  0  0  0  0  0  0  0  0  0  0
   59.6022   31.5263   46.9466 H   0  0  0  0  0  0  0  0  0  0  0  0
  1  2  1  0
  2  3  1  0
  3  4  1  0
  4  5  2  0
  5  6  1  0
  6  7  2  0
  7  8  1  0
  8  9  1  0
  9 10  2  0
  9 11  1  0
 11 12  1  0
 12 13  2  0
 12 14  1  0
 14 15  2  0
 15 16  1  0
 16 17  2  0
 17 18  1  0
 18 19  2  0
  8 20  2  0
 20  4  1  0
 19 14  1  0
  1 21  1  0
  1 22  1  0
  1 23  1  0
  2 24  1  0
  2 25  1  0
  5 26  1  0
  6 27  1  0
  7 28  1  0
 11 29  1  0
 15 30  1  0
 16 31  1  0
 17 32  1  0
 18 33  1  0
 19 34  1  0
 20 35  1  0
M  CHG  1  19   1
M  END
>  <UniqueID>  (3) 
3

>  <SMILES>  (3) 
CCOc1cccc(C(=O)NC(=O)c2cccc[nH+]2)c1

>  <Energy>  (3) 
39.05764108376915

>  <Genealogy>  (3) 
CCOc1cccc(C(=O)NC(=O)c2cccc[nH+]2)c1 (protonated)
CCOc1cccc(C(=O)NC(=O)c2cccc[nH+]2)c1 (3D coordinates assigned)
CCOc1cccc(C(=O)NC(=O)c2cccc[nH+]2)c1 (optimized conformer: 39.05764108376915 kcal/mol)

>  <smiles>  (3) 
CCOc1cccc(C(=O)NC(=O)c2ccccn2)c1

>  <score_type>  (3) 
oracle

>  <origin>  (3) 
adg

>  <m_score__min__energy>  (3) 
-5.8499999999999996

>  <m_primary>  (3) 
energy

$$$$
3:0
     RDKit          3D

 46 48  0  0  0  0  0  0  0  0999 V2000
   66.5940   35.8080   52.8250 C   0  0  0  0  0  0  0  0  0  0  0  0
   65.7960   34.5280   53.0390 C   0  0  0  0  0  0  0  0  0  0  0  0
   65.5330   33.8770   51.7590 N   0  0  0  0  0  0  0  0  0  0  0  0
   66.2010   32.8210   51.2570 C   0  0  0  0  0  0  0  0  0  0  0  0
   65.6160   32.4650   50.0600 C   0  0  0  0  0  0  0  0  0  0  0  0
   64.5720   33.3620   49.9050 C   0  0  0  0  0  0  0  0  0  0  0  0
   63.6240   33.4250   48.7800 C   0  0  0  0  0  0  0  0  0  0  0  0
   63.9670   32.9430   47.6660 O   0  0  0  0  0  0  0  0  0  0  0  0
   62.3450   34.0650   48.9280 N   0  0  0  0  0  0  0  0  0  0  0  0
   61.2530   33.8900   48.0080 C   0  0  0  0  0  0  0  0  0  0  0  0
   59.9860   33.5440   48.5010 C   0  0  0  0  0  0  0  0  0  0  0  0
   58.9150   33.3460   47.6260 C   0  0  0  0  0  0  0  0  0  0  0  0
   59.0990   33.4800   46.2450 C   0  0  0  0  0  0  0  0  0  0  0  0
   57.7630   33.2010   45.1290 S   0  0  0  0  0  0  0  0  0  0  0  0
   56.6310   34.1410   45.4410 O   0  0  0  0  0  0  0  0  0  0  0  0
   58.2390   33.4740   43.7290 O   0  0  0  0  0  0  0  0  0  0  0  0
   57.2190   31.5470   45.2530 N   0  0  0  0  0  0  0  0  0  0  0  0
   56.6310   31.1120   43.9670 C   0  0  0  0  0  0  0  0  0  0  0  0
   56.5910   29.5820   43.8690 C   0  0  0  0  0  0  0  0  0  0  0  0
   57.9380   28.9810   43.9390 N   0  0  0  0  0  0  0  0  0  0  0  0
   58.9350   29.8290   44.6150 C   0  0  0  0  0  0  0  0  0  0  0  0
   58.3050   30.6630   45.7400 C   0  0  0  0  0  0  0  0  0  0  0  0
   60.3680   33.7960   45.7440 C   0  0  0  0  0  0  0  0  0  0  0  0
   61.4400   33.9970   46.6190 C   0  0  0  0  0  0  0  0  0  0  0  0
   64.5380   34.2090   50.9540 N   0  0  0  0  0  0  0  0  0  0  0  0
   66.8631   36.2397   53.8003 H   0  0  0  0  0  0  0  0  0  0  0  0
   67.5097   35.5791   52.2601 H   0  0  0  0  0  0  0  0  0  0  0  0
   65.9854   36.5294   52.2601 H   0  0  0  0  0  0  0  0  0  0  0  0
   66.3703   33.8453   53.6825 H   0  0  0  0  0  0  0  0  0  0  0  0
   64.8377   34.7786   53.5174 H   0  0  0  0  0  0  0  0  0  0  0  0
   67.0662   32.3264   51.7226 H   0  0  0  0  0  0  0  0  0  0  0  0
   65.9119   31.6517   49.3811 H   0  0  0  0  0  0  0  0  0  0  0  0
   62.2310   34.7700   49.6890 H   0  0  0  0  0  0  0  0  0  0  0  0
   59.8347   33.4278   49.5843 H   0  0  0  0  0  0  0  0  0  0  0  0
   57.9235   33.0838   48.0239 H   0  0  0  0  0  0  0  0  0  0  0  0
   55.6062   31.5041   43.8894 H   0  0  0  0  0  0  0  0  0  0  0  0
   57.2554   31.4988   43.1482 H   0  0  0  0  0  0  0  0  0  0  0  0
   55.9851   29.1900   44.6992 H   0  0  0  0  0  0  0  0  0  0  0  0
   56.1549   29.3183   42.8942 H   0  0  0  0  0  0  0  0  0  0  0  0
   58.2750   28.8020   42.9640 H   0  0  0  0  0  0  0  0  0  0  0  0
   59.7175   29.1857   45.0440 H   0  0  0  0  0  0  0  0  0  0  0  0
   59.3562   30.5211   43.8710 H   0  0  0  0  0  0  0  0  0  0  0  0
   57.8910   29.9796   46.4960 H   0  0  0  0  0  0  0  0  0  0  0  0
   59.0932   31.3040   46.1618 H   0  0  0  0  0  0  0  0  0  0  0  0
   60.5219   33.8864   44.6586 H   0  0  0  0  0  0  0  0  0  0  0  0
   62.4351   34.2402   46.2182 H   0  0  0  0  0  0  0  0  0  0  0  0
  1  2  1  0
  2  3  1  0
  3  4  1  0
  4  5  2  0
  5  6  1  0
  6  7  1  0
  7  8  2  0
  7  9  1  0
  9 10  1  0
 10 11  2  0
 11 12  1  0
 12 13  2  0
 13 14  1  0
 14 15  2  0
 14 16  2  0
 14 17  1  0
 17 18  1  0
 18 19  1  0
 19 20  1  0
 20 21  1  0
 21 22  1  0
 13 23  1  0
 23 24  2  0
  6 25  2  0
 25  3  1  0
 24 10  1  0
 22 17  1  0
  1 26  1  0
  1 27  1  0
  1 28  1  0
  2 29  1  0
  2 30  1  0
  4 31  1  0
  5 32  1  0
  9 33  1  0
 11 34  1  0
 12 35  1  0
 18 36  1  0
 18 37  1  0
 19 38  1  0
 19 39  1  0
 20 40  1  0
 21 41  1  0
 21 42  1  0
 22 43  1  0
 22 44  1  0
 23 45  1  0
 24 46  1  0
M  END
>  <UniqueID>  (4) 
4

>  <SMILES>  (4) 
CCn1ccc(C(=O)Nc2ccc(S(=O)(=O)N3CCNCC3)cc2)n1

>  <Energy>  (4) 
83.91813786836607

>  <Genealogy>  (4) 
CCn1ccc(C(=O)Nc2ccc(S(=O)(=O)N3CCNCC3)cc2)n1 (3D coordinates assigned)
CCn1ccc(C(=O)Nc2ccc(S(=O)(=O)N3CCNCC3)cc2)n1 (nonaromatic ring conformer: 83.91813786836607 kcal/mol)

>  <smiles>  (4) 
CCn1ccc(C(=O)Nc2ccc(S(=O)(=O)N3CCNCC3)cc2)n1

>  <score_type>  (4) 
oracle

>  <origin>  (4) 
adg

>  <m_score__min__energy>  (4) 
-8.5600000000000005

>  <m_primary>  (4) 
energy

$$$$
4:0
     RDKit          3D

 61 64  0  0  0  0  0  0  0  0999 V2000
   61.3640   33.8180   47.5500 C   0  0  0  0  0  0  0  0  0  0  0  0
   60.5460   33.5290   46.2960 C   0  0  0  0  0  0  0  0  0  0  0  0
   59.2640   34.2700   46.3470 N   0  0  0  0  0  0  0  0  0  0  0  0
   58.2410   33.5720   47.1490 C   0  0  0  0  0  0  0  0  0  0  0  0
   57.7690   32.2580   46.4880 C   0  0  0  0  0  0  0  0  0  0  0  0
   58.1200   32.2090   45.0570 N   0  0  0  0  0  0  0  0  0  0  0  0
   57.2700   30.9080   44.2590 S   0  0  0  0  0  0  0  0  0  0  0  0
   57.3690   31.0980   42.7720 O   0  0  0  0  0  0  0  0  0  0  0  0
   55.8160   30.9560   44.6360 O   0  0  0  0  0  0  0  0  0  0  0  0
   57.9260   29.3270   44.6850 C   0  0  0  0  0  0  0  0  0  0  0  0
   57.9460   28.2910   43.7420 C   0  0  0  0  0  0  0  0  0  0  0  0
   58.4640   27.0380   44.0850 C   0  0  0  0  0  0  0  0  0  0  0  0
   58.9380   26.8060   45.3790 C   0  0  0  0  0  0  0  0  0  0  0  0
   58.8810   27.8240   46.3430 C   0  0  0  0  0  0  0  0  0  0  0  0
   59.2960   27.5730   47.7380 C   0  0  0  0  0  0  0  0  0  0  0  0
   59.3030   26.3820   48.1480 O   0  0  0  0  0  0  0  0  0  0  0  0
   59.6990   28.6540   48.6190 N   0  0  0  0  0  0  0  0  0  0  0  0
   59.7720   30.0340   48.1050 C   0  0  0  0  0  0  0  0  0  0  0  0
   60.4570   30.9820   49.0920 C   0  0  0  0  0  0  0  0  0  0  0  0
   59.9380   30.7520   50.4460 N   0  0  0  0  0  0  0  0  0  0  0  0
   59.7070   31.8720   51.3190 C   0  0  0  0  0  0  0  0  0  0  0  0
   58.4190   32.4250   51.4250 C   0  0  0  0  0  0  0  0  0  0  0  0
   58.1750   33.4880   52.2980 C   0  0  0  0  0  0  0  0  0  0  0  0
   59.2160   34.0100   53.0710 C   0  0  0  0  0  0  0  0  0  0  0  0
   60.5000   33.4670   52.9750 C   0  0  0  0  0  0  0  0  0  0  0  0
   60.7490   32.4010   52.1040 C   0  0  0  0  0  0  0  0  0  0  0  0
   61.9880   31.8490   52.0720 F   0  0  0  0  0  0  0  0  0  0  0  0
   59.8690   29.3810   50.9790 C   0  0  0  0  0  0  0  0  0  0  0  0
   60.2930   28.3430   49.9330 C   0  0  0  0  0  0  0  0  0  0  0  0
   58.4100   29.0930   45.9800 C   0  0  0  0  0  0  0  0  0  0  0  0
   57.8430   33.4940   44.4040 C   0  0  0  0  0  0  0  0  0  0  0  0
   58.7440   34.6010   44.9980 C   0  0  0  0  0  0  0  0  0  0  0  0
   60.7565   33.6034   48.4416 H   0  0  0  0  0  0  0  0  0  0  0  0
   62.2620   33.1827   47.5565 H   0  0  0  0  0  0  0  0  0  0  0  0
   61.6636   34.8764   47.5565 H   0  0  0  0  0  0  0  0  0  0  0  0
   61.1146   33.8450   45.4090 H   0  0  0  0  0  0  0  0  0  0  0  0
   60.3383   32.4502   46.2403 H   0  0  0  0  0  0  0  0  0  0  0  0
   58.6655   33.3379   48.1364 H   0  0  0  0  0  0  0  0  0  0  0  0
   57.3690   34.2373   47.2322 H   0  0  0  0  0  0  0  0  0  0  0  0
   58.2460   31.4099   47.0010 H   0  0  0  0  0  0  0  0  0  0  0  0
   56.6736   32.2061   46.5737 H   0  0  0  0  0  0  0  0  0  0  0  0
   57.5532   28.4636   42.7291 H   0  0  0  0  0  0  0  0  0  0  0  0
   58.4984   26.2339   43.3351 H   0  0  0  0  0  0  0  0  0  0  0  0
   59.3566   25.8234   45.6423 H   0  0  0  0  0  0  0  0  0  0  0  0
   60.3403   30.0318   47.1632 H   0  0  0  0  0  0  0  0  0  0  0  0
   58.7435   30.3921   47.9506 H   0  0  0  0  0  0  0  0  0  0  0  0
   61.5416   30.7990   49.0809 H   0  0  0  0  0  0  0  0  0  0  0  0
   60.2530   32.0219   48.7972 H   0  0  0  0  0  0  0  0  0  0  0  0
   57.5979   32.0181   50.8166 H   0  0  0  0  0  0  0  0  0  0  0  0
   57.1639   33.9141   52.3770 H   0  0  0  0  0  0  0  0  0  0  0  0
   59.0243   34.8493   53.7557 H   0  0  0  0  0  0  0  0  0  0  0  0
   61.3169   33.8788   53.5858 H   0  0  0  0  0  0  0  0  0  0  0  0
   60.5370   29.3031   51.8495 H   0  0  0  0  0  0  0  0  0  0  0  0
   58.8261   29.1757   51.2622 H   0  0  0  0  0  0  0  0  0  0  0  0
   61.3894   28.3474   49.8438 H   0  0  0  0  0  0  0  0  0  0  0  0
   59.9402   27.3521   50.2549 H   0  0  0  0  0  0  0  0  0  0  0  0
   58.4201   29.9107   46.7157 H   0  0  0  0  0  0  0  0  0  0  0  0
   58.0415   33.4037   43.3258 H   0  0  0  0  0  0  0  0  0  0  0  0
   56.7892   33.7613   44.5712 H   0  0  0  0  0  0  0  0  0  0  0  0
   59.5982   34.7565   44.3225 H   0  0  0  0  0  0  0  0  0  0  0  0
   58.1267   35.5059   45.0986 H   0  0  0  0  0  0  0  0  0  0  0  0
  1  2  1  0
  2  3  1  0
  3  4  1  0
  4  5  1  0
  5  6  1  0
  6  7  1  0
  7  8  2  0
  7  9  2  0
  7 10  1  0
 10 11  2  0
 11 12  1  0
 12 13  2  0
 13 14  1  0
 14 15  1  0
 15 16  2  0
 15 17  1  0
 17 18  1  0
 18 19  1  0
 19 20  1  0
 20 21  1  0
 21 22  2  0
 22 23  1  0
 23 24  2  0
 24 25  1  0
 25 26  2  0
 26 27  1  0
 20 28  1  0
 28 29  1  0
 14 30  2  0
  6 31  1  0
 31 32  1  0
 32  3  1  0
 30 10  1  0
 29 17  1  0
 26 21  1  0
  1 33  1  0
  1 34  1  0
  1 35  1  0
  2 36  1  0
  2 37  1  0
  4 38  1  0
  4 39  1  0
  5 40  1  0
  5 41  1  0
 11 42  1  0
 12 43  1  0
 13 44  1  0
 18 45  1  0
 18 46  1  0
 19 47  1  0
 19 48  1  0
 22 49  1  0
 23 50  1  0
 24 51  1  0
 25 52  1  0
 28 53  1  0
 28 54  1  0
 29 55  1  0
 29 56  1  0
 30 57  1  0
 31 58  1  0
 31 59  1  0
 32 60  1  0
 32 61  1  0
M  END
>  <UniqueID>  (5) 
5

>  <SMILES>  (5) 
CCN1CCN(S(=O)(=O)c2cccc(C(=O)N3CCN(c4ccccc4F)CC3)c2)CC1

>  <Energy>  (5) 
82.80233279173243

>  <Genealogy>  (5) 
CCN1CCN(S(=O)(=O)c2cccc(C(=O)N3CCN(c4ccccc4F)CC3)c2)CC1 (3D coordinates assigned)
CCN1CCN(S(=O)(=O)c2cccc(C(=O)N3CCN(c4ccccc4F)CC3)c2)CC1 (nonaromatic ring conformer: 82.80233279173243 kcal/mol)

>  <smiles>  (5) 
CCN1CCN(S(=O)(=O)c2cccc(C(=O)N3CCN(c4ccccc4F)CC3)c2)CC1

>  <score_type>  (5) 
oracle

>  <origin>  (5) 
adg

>  <m_score__min__energy>  (5) 
-9.3100000000000005

>  <m_primary>  (5) 
energy

$$$$
5:0
     RDKit          3D

 57 59  0  0  0  0  0  0  0  0999 V2000
   56.3370   22.3960   42.8960 C   0  0  0  0  0  0  0  0  0  0  0  0
   57.1230   23.2100   43.8830 C   0  0  0  0  0  0  0  0  0  0  0  0
   58.0980   22.6010   44.6850 C   0  0  0  0  0  0  0  0  0  0  0  0
   58.8170   23.3550   45.6150 C   0  0  0  0  0  0  0  0  0  0  0  0
   58.5460   24.7160   45.7740 C   0  0  0  0  0  0  0  0  0  0  0  0
   57.5410   25.3330   45.0120 C   0  0  0  0  0  0  0  0  0  0  0  0
   57.2340   26.7680   45.2200 C   0  0  0  0  0  0  0  0  0  0  0  0
   56.4310   27.0980   46.1330 O   0  0  0  0  0  0  0  0  0  0  0  0
   57.8280   27.8040   44.4230 N   0  0  0  0  0  0  0  0  0  0  0  0
   57.7280   29.2180   44.6630 C   0  0  0  0  0  0  0  0  0  0  0  0
   56.4950   29.9040   44.6750 C   0  0  0  0  0  0  0  0  0  0  0  0
   55.2460   29.2140   44.5940 N   0  0  0  0  0  0  0  0  0  0  0  0
   56.4850   31.2560   44.8220 N   0  0  0  0  0  0  0  0  0  0  0  0
   57.6350   31.9550   44.9920 C   0  0  0  0  0  0  0  0  0  0  0  0
   57.5840   33.7350   45.1760 S   0  0  0  0  0  0  0  0  0  0  0  0
   59.3880   33.9260   45.3840 C   0  0  0  0  0  0  0  0  0  0  0  0
   59.7390   34.2850   46.8010 C   0  0  0  0  0  0  0  0  0  0  0  0
   58.8140   34.6000   47.5970 O   0  0  0  0  0  0  0  0  0  0  0  0
   61.0840   34.2310   47.2950 N   0  0  0  0  0  0  0  0  0  0  0  0
   62.2460   33.7480   46.5530 C   0  0  0  0  0  0  0  0  0  0  0  0
   62.8960   32.5650   47.2850 C   0  0  0  0  0  0  0  0  0  0  0  0
   62.4480   32.4970   48.7490 C   0  0  0  0  0  0  0  0  0  0  0  0
   61.3620   31.4990   48.8890 N   0  0  0  0  0  0  0  0  0  0  0  0
   61.1350   30.7410   47.6460 C   0  0  0  0  0  0  0  0  0  0  0  0
   60.0460   29.6690   47.8710 C   0  0  0  0  0  0  0  0  0  0  0  0
   59.4760   29.7550   49.1680 O   0  0  0  0  0  0  0  0  0  0  0  0
   58.9700   31.0570   49.3800 C   0  0  0  0  0  0  0  0  0  0  0  0
   60.1010   32.1090   49.3540 C   0  0  0  0  0  0  0  0  0  0  0  0
   58.8260   31.3070   45.0290 N   0  0  0  0  0  0  0  0  0  0  0  0
   58.8960   29.9620   44.8770 C   0  0  0  0  0  0  0  0  0  0  0  0
   60.0190   29.3940   44.9070 O   0  0  0  0  0  0  0  0  0  0  0  0
   56.8430   24.5760   44.0550 C   0  0  0  0  0  0  0  0  0  0  0  0
   55.6715   21.7068   43.4365 H   0  0  0  0  0  0  0  0  0  0  0  0
   55.7357   23.0663   42.2642 H   0  0  0  0  0  0  0  0  0  0  0  0
   57.0279   21.8186   42.2642 H   0  0  0  0  0  0  0  0  0  0  0  0
   58.2977   21.5243   44.5814 H   0  0  0  0  0  0  0  0  0  0  0  0
   59.5983   22.8761   46.2235 H   0  0  0  0  0  0  0  0  0  0  0  0
   59.1230   25.3076   46.5000 H   0  0  0  0  0  0  0  0  0  0  0  0
   54.3750   29.7410   44.3620 H   0  0  0  0  0  0  0  0  0  0  0  0
   55.1520   28.2090   44.8600 H   0  0  0  0  0  0  0  0  0  0  0  0
   59.8813   32.9785   45.1216 H   0  0  0  0  0  0  0  0  0  0  0  0
   59.7296   34.7379   44.7251 H   0  0  0  0  0  0  0  0  0  0  0  0
   61.9270   33.4233   45.5516 H   0  0  0  0  0  0  0  0  0  0  0  0
   62.9802   34.5630   46.4707 H   0  0  0  0  0  0  0  0  0  0  0  0
   62.6097   31.6308   46.7797 H   0  0  0  0  0  0  0  0  0  0  0  0
   63.9871   32.7027   47.2636 H   0  0  0  0  0  0  0  0  0  0  0  0
   63.2999   32.2024   49.3795 H   0  0  0  0  0  0  0  0  0  0  0  0
   62.0807   33.4844   49.0655 H   0  0  0  0  0  0  0  0  0  0  0  0
   60.8088   31.4306   46.8535 H   0  0  0  0  0  0  0  0  0  0  0  0
   62.0717   30.2467   47.3489 H   0  0  0  0  0  0  0  0  0  0  0  0
   59.2509   29.8079   47.1236 H   0  0  0  0  0  0  0  0  0  0  0  0
   60.5168   28.6799   47.7714 H   0  0  0  0  0  0  0  0  0  0  0  0
   58.2432   31.2924   48.5886 H   0  0  0  0  0  0  0  0  0  0  0  0
   58.4905   31.0866   50.3695 H   0  0  0  0  0  0  0  0  0  0  0  0
   59.8206   32.9255   48.6723 H   0  0  0  0  0  0  0  0  0  0  0  0
   60.2481   32.4993   50.3719 H   0  0  0  0  0  0  0  0  0  0  0  0
   56.0714   25.0570   43.4359 H   0  0  0  0  0  0  0  0  0  0  0  0
  1  2  1  0
  2  3  2  0
  3  4  1  0
  4  5  2  0
  5  6  1  0
  6  7  1  0
  7  8  2  0
  7  9  1  0
  9 10  1  0
 10 11  2  0
 11 12  1  0
 11 13  1  0
 13 14  1  0
 14 15  1  0
 15 16  1  0
 16 17  1  0
 17 18  2  0
 17 19  1  0
 19 20  1  0
 20 21  1  0
 21 22  1  0
 22 23  1  0
 23 24  1  0
 24 25  1  0
 25 26  1  0
 26 27  1  0
 27 28  1  0
 14 29  2  0
 29 30  1  0
 30 31  2  0
  6 32  2  0
 32  2  1  0
 30 10  1  0
 28 23  1  0
  1 33  1  0
  1 34  1  0
  1 35  1  0
  3 36  1  0
  4 37  1  0
  5 38  1  0
 12 39  1  0
 12 40  1  0
 16 41  1  0
 16 42  1  0
 20 43  1  0
 20 44  1  0
 21 45  1  0
 21 46  1  0
 22 47  1  0
 22 48  1  0
 24 49  1  0
 24 50  1  0
 25 51  1  0
 25 52  1  0
 27 53  1  0
 27 54  1  0
 28 55  1  0
 28 56  1  0
 32 57  1  0
M  CHG  3   9  -1  13  -1  19  -1
M  END
>  <UniqueID>  (6) 
6

>  <SMILES>  (6) 
Cc1cccc(C(=O)[N-]c2c(N)[n-]c(SCC(=O)[N-]CCCN3CCOCC3)nc2=O)c1

>  <Energy>  (6) 
68.92726052121698

>  <Genealogy>  (6) 
Cc1cccc(C(=O)[N-]c2c(N)[n-]c(SCC(=O)[N-]CCCN3CCOCC3)nc2=O)c1 (protonated)
Cc1cccc(C(=O)[N-]c2c(N)[n-]c(SCC(=O)[N-]CCCN3CCOCC3)nc2=O)c1 (3D coordinates assigned)
Cc1cccc(C(=O)[N-]c2c(N)[n-]c(SCC(=O)[N-]CCCN3CCOCC3)nc2=O)c1 (nonaromatic ring conformer: 68.92726052121698 kcal/mol)

>  <smiles>  (6) 
Cc1cccc(C(=O)Nc2c(N)[nH]c(SCC(=O)NCCCN3CCOCC3)nc2=O)c1

>  <score_type>  (6) 
oracle

>  <origin>  (6) 
adg

>  <m_score__min__energy>  (6) 
-13.65

>  <m_primary>  (6) 
energy

$$$$
6:0
     RDKit          3D

 54 56  0  0  0  0  0  0  0  0999 V2000
   56.8900   21.7460   42.9020 C   0  0  0  0  0  0  0  0  0  0  0  0
   55.8680   22.4070   43.6430 O   0  0  0  0  0  0  0  0  0  0  0  0
   56.0910   23.1810   44.7930 C   0  0  0  0  0  0  0  0  0  0  0  0
   55.8090   24.5570   44.8270 C   0  0  0  0  0  0  0  0  0  0  0  0
   56.0260   25.2970   45.9910 C   0  0  0  0  0  0  0  0  0  0  0  0
   55.7120   26.6930   45.9940 N   0  0  0  0  0  0  0  0  0  0  0  0
   56.7160   27.9160   45.2810 S   0  0  0  0  0  0  0  0  0  0  0  0
   57.4020   27.3480   44.0720 O   0  0  0  0  0  0  0  0  0  0  0  0
   55.8470   29.0620   44.8460 O   0  0  0  0  0  0  0  0  0  0  0  0
   57.9230   28.5180   46.4160 C   0  0  0  0  0  0  0  0  0  0  0  0
   58.1820   29.8890   46.5230 C   0  0  0  0  0  0  0  0  0  0  0  0
   59.1830   30.3500   47.3800 C   0  0  0  0  0  0  0  0  0  0  0  0
   59.9540   29.4480   48.1380 C   0  0  0  0  0  0  0  0  0  0  0  0
   61.0120   29.9930   49.0420 C   0  0  0  0  0  0  0  0  0  0  0  0
   61.2530   29.3590   50.1070 O   0  0  0  0  0  0  0  0  0  0  0  0
   61.7910   31.1880   48.7640 N   0  0  0  0  0  0  0  0  0  0  0  0
   62.3010   31.2550   47.3780 C   0  0  0  0  0  0  0  0  0  0  0  0
   63.0920   32.5660   47.1440 C   0  0  0  0  0  0  0  0  0  0  0  0
   63.4010   33.2530   48.3420 O   0  0  0  0  0  0  0  0  0  0  0  0
   63.9370   32.3550   49.2870 C   0  0  0  0  0  0  0  0  0  0  0  0
   62.8420   31.3970   49.7880 C   0  0  0  0  0  0  0  0  0  0  0  0
   59.6620   28.0720   48.0450 C   0  0  0  0  0  0  0  0  0  0  0  0
   58.6600   27.6150   47.1880 C   0  0  0  0  0  0  0  0  0  0  0  0
   56.5800   24.6760   47.1180 C   0  0  0  0  0  0  0  0  0  0  0  0
   56.8520   23.2940   47.1170 C   0  0  0  0  0  0  0  0  0  0  0  0
   57.3600   22.6600   48.2630 O   0  0  0  0  0  0  0  0  0  0  0  0
   56.5850   21.9040   49.1870 C   0  0  0  0  0  0  0  0  0  0  0  0
   56.6090   22.5410   45.9340 C   0  0  0  0  0  0  0  0  0  0  0  0
   56.8760   21.1640   45.8180 O   0  0  0  0  0  0  0  0  0  0  0  0
   55.9240   20.1050   45.8570 C   0  0  0  0  0  0  0  0  0  0  0  0
   57.6058   21.2830   43.5972 H   0  0  0  0  0  0  0  0  0  0  0  0
   56.4388   20.9682   42.2684 H   0  0  0  0  0  0  0  0  0  0  0  0
   57.4143   22.4765   42.2684 H   0  0  0  0  0  0  0  0  0  0  0  0
   55.4141   25.0553   43.9294 H   0  0  0  0  0  0  0  0  0  0  0  0
   57.5950   30.6058   45.9300 H   0  0  0  0  0  0  0  0  0  0  0  0
   59.3716   31.4304   47.4641 H   0  0  0  0  0  0  0  0  0  0  0  0
   61.1290   31.9960   48.8520 H   0  0  0  0  0  0  0  0  0  0  0  0
   62.9644   30.3966   47.1963 H   0  0  0  0  0  0  0  0  0  0  0  0
   61.4456   31.2320   46.6868 H   0  0  0  0  0  0  0  0  0  0  0  0
   64.0327   32.3195   46.6299 H   0  0  0  0  0  0  0  0  0  0  0  0
   62.4535   33.2296   46.5425 H   0  0  0  0  0  0  0  0  0  0  0  0
   64.7434   31.7721   48.8181 H   0  0  0  0  0  0  0  0  0  0  0  0
   64.3338   32.9251   50.1400 H   0  0  0  0  0  0  0  0  0  0  0  0
   63.3003   30.4274   50.0325 H   0  0  0  0  0  0  0  0  0  0  0  0
   62.3730   31.8445   50.6767 H   0  0  0  0  0  0  0  0  0  0  0  0
   60.2291   27.3521   48.6534 H   0  0  0  0  0  0  0  0  0  0  0  0
   58.4487   26.5377   47.1194 H   0  0  0  0  0  0  0  0  0  0  0  0
   56.8050   25.2741   48.0133 H   0  0  0  0  0  0  0  0  0  0  0  0
   56.8673   22.1794   50.2139 H   0  0  0  0  0  0  0  0  0  0  0  0
   55.5172   22.1171   49.0306 H   0  0  0  0  0  0  0  0  0  0  0  0
   56.7715   20.8313   49.0306 H   0  0  0  0  0  0  0  0  0  0  0  0
   55.6979   19.8535   46.9037 H   0  0  0  0  0  0  0  0  0  0  0  0
   55.0015   20.4223   45.3487 H   0  0  0  0  0  0  0  0  0  0  0  0
   56.3374   19.2214   45.3487 H   0  0  0  0  0  0  0  0  0  0  0  0
  1  2  1  0
  2  3  1  0
  3  4  2  0
  4  5  1  0
  5  6  1  0
  6  7  1  0
  7  8  2  0
  7  9  2  0
  7 10  1  0
 10 11  2  0
 11 12  1  0
 12 13  2  0
 13 14  1  0
 14 15  2  0
 14 16  1  0
 16 17  1  0
 17 18  1  0
 18 19  1  0
 19 20  1  0
 20 21  1  0
 13 22  1  0
 22 23  2  0
  5 24  2  0
 24 25  1  0
 25 26  1  0
 26 27  1  0
 25 28  2  0
 28 29  1  0
 29 30  1  0
 28  3  1  0
 23 10  1  0
 21 16  1  0
  1 31  1  0
  1 32  1  0
  1 33  1  0
  4 34  1  0
 11 35  1  0
 12 36  1  0
 16 37  1  0
 17 38  1  0
 17 39  1  0
 18 40  1  0
 18 41  1  0
 20 42  1  0
 20 43  1  0
 21 44  1  0
 21 45  1  0
 22 46  1  0
 23 47  1  0
 24 48  1  0
 27 49  1  0
 27 50  1  0
 27 51  1  0
 30 52  1  0
 30 53  1  0
 30 54  1  0
M  CHG  2   6  -1  16   1
M  END
>  <UniqueID>  (7) 
7

>  <SMILES>  (7) 
COc1cc([N-]S(=O)(=O)c2ccc(C(=O)[NH+]3CCOCC3)cc2)cc(OC)c1OC

>  <Energy>  (7) 
80.77002300809187

>  <Genealogy>  (7) 
COc1cc([N-]S(=O)(=O)c2ccc(C(=O)[NH+]3CCOCC3)cc2)cc(OC)c1OC (protonated)
COc1cc([N-]S(=O)(=O)c2ccc(C(=O)[NH+]3CCOCC3)cc2)cc(OC)c1OC (3D coordinates assigned)
COc1cc([N-]S(=O)(=O)c2ccc(C(=O)[NH+]3CCOCC3)cc2)cc(OC)c1OC (nonaromatic ring conformer: 80.77002300809187 kcal/mol)

>  <smiles>  (7) 
COc1cc(NS(=O)(=O)c2ccc(C(=O)N3CCOCC3)cc2)cc(OC)c1OC

>  <score_type>  (7) 
oracle

>  <origin>  (7) 
adg

>  <m_score__min__energy>  (7) 
-8.0999999999999996

>  <m_primary>  (7) 
energy

$$$$
7:0
     RDKit          3D

 43 46  0  0  0  0  0  0  0  0999 V2000
   55.9730   21.8720   42.7900 O   0  0  0  0  0  0  0  0  0  0  0  0
   56.3420   22.8630   43.4760 C   0  0  0  0  0  0  0  0  0  0  0  0
   56.0910   22.8900   44.9560 C   0  0  0  0  0  0  0  0  0  0  0  0
   57.2020   23.6600   45.6830 C   0  0  0  0  0  0  0  0  0  0  0  0
   57.5020   24.9830   45.0190 C   0  0  0  0  0  0  0  0  0  0  0  0
   57.9810   26.0630   45.7770 C   0  0  0  0  0  0  0  0  0  0  0  0
   58.3420   27.2720   45.1550 C   0  0  0  0  0  0  0  0  0  0  0  0
   58.8390   28.4170   45.9610 C   0  0  0  0  0  0  0  0  0  0  0  0
   59.5780   29.4490   45.3570 C   0  0  0  0  0  0  0  0  0  0  0  0
   60.0440   30.5270   46.1160 C   0  0  0  0  0  0  0  0  0  0  0  0
   59.7760   30.5940   47.4950 C   0  0  0  0  0  0  0  0  0  0  0  0
   60.2170   31.6540   48.3030 O   0  0  0  0  0  0  0  0  0  0  0  0
   59.5040   32.8700   48.5300 C   0  0  0  0  0  0  0  0  0  0  0  0
   58.9800   33.4330   47.2360 C   0  0  0  0  0  0  0  0  0  0  0  0
   59.7720   34.2790   46.4450 C   0  0  0  0  0  0  0  0  0  0  0  0
   59.2630   34.8000   45.2540 C   0  0  0  0  0  0  0  0  0  0  0  0
   57.9620   34.4780   44.8680 C   0  0  0  0  0  0  0  0  0  0  0  0
   57.1990   33.6680   45.6500 N   0  0  0  0  0  0  0  0  0  0  0  0
   57.6720   33.1470   46.8140 C   0  0  0  0  0  0  0  0  0  0  0  0
   59.0450   29.5640   48.0970 C   0  0  0  0  0  0  0  0  0  0  0  0
   58.5780   28.4860   47.3400 C   0  0  0  0  0  0  0  0  0  0  0  0
   58.2350   27.3780   43.7570 C   0  0  0  0  0  0  0  0  0  0  0  0
   57.7780   26.3000   42.9960 C   0  0  0  0  0  0  0  0  0  0  0  0
   57.4110   25.1010   43.6190 C   0  0  0  0  0  0  0  0  0  0  0  0
   56.9320   23.9970   42.8370 N   0  0  0  0  0  0  0  0  0  0  0  0
   55.1259   23.3811   45.1493 H   0  0  0  0  0  0  0  0  0  0  0  0
   56.0758   21.8557   45.3301 H   0  0  0  0  0  0  0  0  0  0  0  0
   56.8847   23.8469   46.7195 H   0  0  0  0  0  0  0  0  0  0  0  0
   58.1160   23.0488   45.6504 H   0  0  0  0  0  0  0  0  0  0  0  0
   58.0750   25.9629   46.8684 H   0  0  0  0  0  0  0  0  0  0  0  0
   59.7914   29.4082   44.2787 H   0  0  0  0  0  0  0  0  0  0  0  0
   60.6234   31.3270   45.6319 H   0  0  0  0  0  0  0  0  0  0  0  0
   58.6587   32.6715   49.2053 H   0  0  0  0  0  0  0  0  0  0  0  0
   60.1906   33.6021   48.9802 H   0  0  0  0  0  0  0  0  0  0  0  0
   60.7941   34.5318   46.7633 H   0  0  0  0  0  0  0  0  0  0  0  0
   59.8819   35.4579   44.6262 H   0  0  0  0  0  0  0  0  0  0  0  0
   57.5523   34.8798   43.9295 H   0  0  0  0  0  0  0  0  0  0  0  0
   57.0275   32.4995   47.4267 H   0  0  0  0  0  0  0  0  0  0  0  0
   58.8359   29.6031   49.1762 H   0  0  0  0  0  0  0  0  0  0  0  0
   58.0019   27.6856   47.8273 H   0  0  0  0  0  0  0  0  0  0  0  0
   58.5137   28.3181   43.2585 H   0  0  0  0  0  0  0  0  0  0  0  0
   57.7060   26.3932   41.9023 H   0  0  0  0  0  0  0  0  0  0  0  0
   56.9880   24.0280   41.7940 H   0  0  0  0  0  0  0  0  0  0  0  0
  1  2  2  0
  2  3  1  0
  3  4  1  0
  4  5  1  0
  5  6  2  0
  6  7  1  0
  7  8  1  0
  8  9  2  0
  9 10  1  0
 10 11  2  0
 11 12  1  0
 12 13  1  0
 13 14  1  0
 14 15  2  0
 15 16  1  0
 16 17  2  0
 17 18  1  0
 18 19  2  0
 11 20  1  0
 20 21  2  0
  7 22  2  0
 22 23  1  0
 23 24  2  0
 24 25  1  0
 25  2  1  0
 24  5  1  0
 21  8  1  0
 19 14  1  0
  3 26  1  0
  3 27  1  0
  4 28  1  0
  4 29  1  0
  6 30  1  0
  9 31  1  0
 10 32  1  0
 13 33  1  0
 13 34  1  0
 15 35  1  0
 16 36  1  0
 17 37  1  0
 19 38  1  0
 20 39  1  0
 21 40  1  0
 22 41  1  0
 23 42  1  0
 25 43  1  0
M  END
>  <UniqueID>  (8) 
8

>  <SMILES>  (8) 
O=C1CCc2cc(-c3ccc(OCc4cccnc4)cc3)ccc2N1

>  <Energy>  (8) 
52.8694717531247

>  <Genealogy>  (8) 
O=C1CCc2cc(-c3ccc(OCc4cccnc4)cc3)ccc2N1 (3D coordinates assigned)
O=C1CCc2cc(-c3ccc(OCc4cccnc4)cc3)ccc2N1 (nonaromatic ring conformer: 52.8694717531247 kcal/mol)

>  <smiles>  (8) 
O=C1CCc2cc(-c3ccc(OCc4cccnc4)cc3)ccc2N1

>  <score_type>  (8) 
oracle

>  <origin>  (8) 
adg

>  <m_score__min__energy>  (8) 
-8.0800000000000001

>  <m_primary>  (8) 
energy

$$$$
8:0
     RDKit          3D

 57 60  0  0  1  0  0  0  0  0999 V2000
   62.7810   33.8580   46.3950 C   0  0  0  0  0  0  0  0  0  0  0  0
   62.1540   34.2120   47.5900 O   0  0  0  0  0  0  0  0  0  0  0  0
   62.2980   33.6140   48.8140 C   0  0  0  0  0  0  0  0  0  0  0  0
   63.4370   32.9660   49.2430 C   0  0  0  0  0  0  0  0  0  0  0  0
   63.5410   32.3720   50.4920 C   0  0  0  0  0  0  0  0  0  0  0  0
   64.7420   31.7150   50.8850 N   0  0  0  0  0  0  0  0  0  0  0  0
   65.9850   32.2890   50.4000 C   0  0  0  0  0  0  0  0  0  0  0  0
   67.1990   31.5720   50.8950 C   0  0  0  0  0  0  0  0  0  0  0  0
   66.9690   30.7350   51.9810 O   0  0  0  0  0  0  0  0  0  0  0  0
   65.9960   29.8150   51.6100 C   0  0  0  0  0  0  0  0  0  0  0  0
   64.6590   30.5520   51.7170 C   0  0  0  0  0  0  0  0  0  0  0  0
   62.4300   32.4610   51.3060 C   0  0  0  0  0  0  0  0  0  0  0  0
   59.9180   30.1930   46.3480 C   0  0  0  0  0  0  0  0  0  0  0  0
   58.6340   30.3990   45.8830 C   0  0  0  0  0  0  0  0  0  0  0  0
   57.8760   31.4800   46.4250 N   0  0  0  0  0  0  0  0  0  0  0  0
   58.4230   32.6340   46.6450 C   0  0  0  0  0  0  0  0  0  0  0  0
   59.5750   35.0740   47.1020 N   0  0  0  0  0  0  0  0  0  0  0  0
   59.0710   34.8340   45.8710 C   0  0  0  0  0  0  0  0  0  0  0  0
   58.4910   33.5970   45.6540 C   0  0  0  0  0  0  0  0  0  0  0  0
   57.8370   33.2760   44.0710 Cl  0  0  0  0  0  0  0  0  0  0  0  0
   59.5140   34.1370   48.0830 C   0  0  0  0  0  0  0  0  0  0  0  0
   59.9890   34.3480   49.2610 N   0  0  0  0  0  0  0  0  0  0  0  0
   61.1970   33.6770   49.6760 C   0  0  0  0  0  0  0  0  0  0  0  0
   61.2640   33.1000   50.9250 C   0  0  0  0  0  0  0  0  0  0  0  0
   60.6620   29.1530   45.8330 C   0  0  0  0  0  0  0  0  0  0  0  0
   60.1050   28.3340   44.8590 C   0  0  0  0  0  0  0  0  0  0  0  0
   58.8300   28.5390   44.3980 C   0  0  0  0  0  0  0  0  0  0  0  0
   58.0650   29.5920   44.9130 C   0  0  0  0  0  0  0  0  0  0  0  0
   56.4500   29.8960   44.3650 S   0  0  0  0  0  0  0  0  0  0  0  0
   56.2650   29.6720   42.6200 C   0  0  0  0  0  0  0  0  0  0  0  0
   55.5320   28.8720   45.0180 O   0  0  0  0  0  0  0  0  0  0  0  0
   55.9560   31.2440   44.8320 O   0  0  0  0  0  0  0  0  0  0  0  0
   58.9470   32.9350   47.8600 N   0  0  0  0  0  0  0  0  0  0  0  0
   63.7193   33.3282   46.6162 H   0  0  0  0  0  0  0  0  0  0  0  0
   62.1174   33.2012   45.8133 H   0  0  0  0  0  0  0  0  0  0  0  0
   63.0006   34.7654   45.8133 H   0  0  0  0  0  0  0  0  0  0  0  0
   64.3015   32.9180   48.5645 H   0  0  0  0  0  0  0  0  0  0  0  0
   65.9814   32.2518   49.3006 H   0  0  0  0  0  0  0  0  0  0  0  0
   66.0379   33.3202   50.7793 H   0  0  0  0  0  0  0  0  0  0  0  0
   67.5993   30.9637   50.0706 H   0  0  0  0  0  0  0  0  0  0  0  0
   67.9021   32.3453   51.2381 H   0  0  0  0  0  0  0  0  0  0  0  0
   66.1642   29.4757   50.5772 H   0  0  0  0  0  0  0  0  0  0  0  0
   66.0178   28.9228   52.2530 H   0  0  0  0  0  0  0  0  0  0  0  0
   63.8423   29.9008   51.3722 H   0  0  0  0  0  0  0  0  0  0  0  0
   64.4544   30.8350   52.7601 H   0  0  0  0  0  0  0  0  0  0  0  0
   62.4739   32.0021   52.3048 H   0  0  0  0  0  0  0  0  0  0  0  0
   60.3422   30.8513   47.1205 H   0  0  0  0  0  0  0  0  0  0  0  0
   60.0200   35.9730   47.3310 H   0  0  0  0  0  0  0  0  0  0  0  0
   59.1200   35.5911   45.0745 H   0  0  0  0  0  0  0  0  0  0  0  0
   60.4036   33.1467   51.6087 H   0  0  0  0  0  0  0  0  0  0  0  0
   61.6869   28.9734   46.1899 H   0  0  0  0  0  0  0  0  0  0  0  0
   60.6990   27.5039   44.4491 H   0  0  0  0  0  0  0  0  0  0  0  0
   58.4096   27.8779   43.6258 H   0  0  0  0  0  0  0  0  0  0  0  0
   55.5752   28.8368   42.4286 H   0  0  0  0  0  0  0  0  0  0  0  0
   55.8599   30.5919   42.1732 H   0  0  0  0  0  0  0  0  0  0  0  0
   57.2449   29.4480   42.1732 H   0  0  0  0  0  0  0  0  0  0  0  0
   58.8990   32.2260   48.5970 H   0  0  0  0  0  0  0  0  0  0  0  0
  1  2  1  0
  2  3  1  0
  3  4  2  0
  4  5  1  0
  5  6  1  0
  6  7  1  0
  7  8  1  0
  8  9  1  0
  9 10  1  0
 10 11  1  0
  5 12  2  0
 12 13  1  0
 13 14  2  0
 14 15  1  0
 15 16  2  0
 16 17  1  0
 17 18  1  0
 18 19  2  0
 19 20  1  0
 19 21  1  0
 21 22  2  0
 22 23  1  0
 23 24  2  0
 24 25  1  0
 25 26  2  0
 26 27  1  0
 27 28  2  0
 28 29  1  0
 29 30  1  0
 29 31  2  0
 29 32  2  0
 21 33  1  0
 14  3  1  0
 33 16  1  0
 11  6  1  0
 28 23  1  0
  1 34  1  0
  1 35  1  0
  1 36  1  0
  4 37  1  0
  7 38  1  0
  7 39  1  0
  8 40  1  0
  8 41  1  0
 10 42  1  0
 10 43  1  0
 11 44  1  0
 11 45  1  0
 12 46  1  0
 13 47  1  0
 17 48  1  0
 18 49  1  0
 24 50  1  0
 25 51  1  0
 26 52  1  0
 27 53  1  0
 30 54  1  0
 30 55  1  0
 30 56  1  0
 33 57  1  0
M  END
>  <smiles>  (9) 
COc1cc(N2CCOCC2)ccc1N=c1[nH]cc(Cl)c(=Nc2ccccc2S(C)(=O)=O)[nH]1

>  <score_type>  (9) 
oracle

>  <origin>  (9) 
adg

>  <m_score__min__energy>  (9) 
-9.4399999999999995

>  <m_primary>  (9) 
energy

$$$$
9:0
     RDKit          3D

 59 62  0  0  0  0  0  0  0  0999 V2000
   67.2974   34.8128   52.2045 H   0  0  0  0  0  0  0  0  0  0  0  0
   66.5540   34.2130   51.6590 C   0  0  0  0  0  0  0  0  0  0  0  0
   65.1910   34.4860   51.8050 C   0  0  0  0  0  0  0  0  0  0  0  0
   64.8621   35.2983   52.4698 H   0  0  0  0  0  0  0  0  0  0  0  0
   64.2450   33.7290   51.1080 C   0  0  0  0  0  0  0  0  0  0  0  0
   63.1728   33.9396   51.2350 H   0  0  0  0  0  0  0  0  0  0  0  0
   64.6600   32.6980   50.2440 C   0  0  0  0  0  0  0  0  0  0  0  0
   63.7090   31.9150   49.5050 N   0  0  0  0  0  0  0  0  0  0  0  0
   64.0640   31.1280   48.9170 H   0  0  0  0  0  0  0  0  0  0  0  0
   62.2840   32.0940   49.5950 C   0  0  0  0  0  0  0  0  0  0  0  0
   61.7280   33.2660   49.4130 N   0  0  0  0  0  0  0  0  0  0  0  0
   61.9320   34.0430   50.0810 H   0  0  0  0  0  0  0  0  0  0  0  0
   60.8510   33.5800   48.3200 C   0  0  0  0  0  0  0  0  0  0  0  0
   59.4650   33.5740   48.5360 C   0  0  0  0  0  0  0  0  0  0  0  0
   59.0670   33.3081   49.5264 H   0  0  0  0  0  0  0  0  0  0  0  0
   58.5870   33.9040   47.5000 C   0  0  0  0  0  0  0  0  0  0  0  0
   57.5022   33.9157   47.6817 H   0  0  0  0  0  0  0  0  0  0  0  0
   59.0860   34.2190   46.2340 C   0  0  0  0  0  0  0  0  0  0  0  0
   58.3944   34.4902   45.4227 H   0  0  0  0  0  0  0  0  0  0  0  0
   60.4630   34.1900   45.9970 C   0  0  0  0  0  0  0  0  0  0  0  0
   60.8517   34.4264   44.9955 H   0  0  0  0  0  0  0  0  0  0  0  0
   61.3500   33.8610   47.0300 C   0  0  0  0  0  0  0  0  0  0  0  0
   63.0680   33.7570   46.6650 Cl  0  0  0  0  0  0  0  0  0  0  0  0
   61.4250   30.8660   49.8190 C   0  0  1  0  0  0  0  0  0  0  0  0
   60.4946   31.2190   50.2877 H   0  0  0  0  0  0  0  0  0  0  0  0
   61.0620   30.1700   48.5350 C   0  0  0  0  0  0  0  0  0  0  0  0
   61.0580   30.7920   47.4360 O   0  0  0  0  0  0  0  0  0  0  0  0
   60.6710   28.7900   48.5960 N   0  0  0  0  0  0  0  0  0  0  0  0
   60.5610   27.9750   47.3810 C   0  0  0  0  0  0  0  0  0  0  0  0
   60.6366   26.9111   47.6501 H   0  0  0  0  0  0  0  0  0  0  0  0
   61.3738   28.2493   46.6924 H   0  0  0  0  0  0  0  0  0  0  0  0
   59.2420   28.2220   46.7020 C   0  0  0  0  0  0  0  0  0  0  0  0
   58.9240   29.4930   46.1980 C   0  0  0  0  0  0  0  0  0  0  0  0
   59.6528   30.3128   46.2809 H   0  0  0  0  0  0  0  0  0  0  0  0
   57.6850   29.7220   45.5910 C   0  0  0  0  0  0  0  0  0  0  0  0
   57.4475   30.7205   45.1953 H   0  0  0  0  0  0  0  0  0  0  0  0
   56.7450   28.6910   45.4830 C   0  0  0  0  0  0  0  0  0  0  0  0
   55.5160   28.9720   44.8670 O   0  0  0  0  0  0  0  0  0  0  0  0
   55.3720   29.7210   43.6640 C   0  0  0  0  0  0  0  0  0  0  0  0
   55.1696   30.7739   43.9097 H   0  0  0  0  0  0  0  0  0  0  0  0
   56.2996   29.6533   43.0767 H   0  0  0  0  0  0  0  0  0  0  0  0
   54.5356   29.3142   43.0767 H   0  0  0  0  0  0  0  0  0  0  0  0
   57.0600   27.4170   45.9910 C   0  0  0  0  0  0  0  0  0  0  0  0
   56.3291   26.5988   45.9114 H   0  0  0  0  0  0  0  0  0  0  0  0
   58.3000   27.1880   46.5970 C   0  0  0  0  0  0  0  0  0  0  0  0
   58.5379   26.1901   46.9939 H   0  0  0  0  0  0  0  0  0  0  0  0
   60.2840   28.2530   49.9050 C   0  0  0  0  0  0  0  0  0  0  0  0
   59.3285   28.7057   50.2085 H   0  0  0  0  0  0  0  0  0  0  0  0
   60.1896   27.1608   49.8150 H   0  0  0  0  0  0  0  0  0  0  0  0
   61.3470   28.5590   50.9800 C   0  0  0  0  0  0  0  0  0  0  0  0
   60.8390   28.6354   51.9527 H   0  0  0  0  0  0  0  0  0  0  0  0
   62.0779   27.7380   50.9377 H   0  0  0  0  0  0  0  0  0  0  0  0
   62.1430   29.8670   50.7470 C   0  0  0  0  0  0  0  0  0  0  0  0
   62.3079   30.3524   51.7202 H   0  0  0  0  0  0  0  0  0  0  0  0
   63.0865   29.5885   50.2548 H   0  0  0  0  0  0  0  0  0  0  0  0
   66.0300   32.4190   50.1200 C   0  0  0  0  0  0  0  0  0  0  0  0
   66.3641   31.5983   49.4682 H   0  0  0  0  0  0  0  0  0  0  0  0
   66.9710   33.1770   50.8190 C   0  0  0  0  0  0  0  0  0  0  0  0
   68.0433   32.9583   50.7083 H   0  0  0  0  0  0  0  0  0  0  0  0
  1  2  1  0
  2  3  2  0
  3  4  1  0
  3  5  1  0
  5  6  1  0
  5  7  2  0
  7  8  1  0
  8  9  1  0
  8 10  1  0
 10 11  2  0
 11 12  1  0
 11 13  1  0
 13 14  2  0
 14 15  1  0
 14 16  1  0
 16 17  1  0
 16 18  2  0
 18 19  1  0
 18 20  1  0
 20 21  1  0
 20 22  2  0
 22 23  1  0
 10 24  1  0
 24 25  1  1
 24 26  1  0
 26 27  2  0
 26 28  1  0
 28 29  1  0
 29 30  1  0
 29 31  1  0
 29 32  1  0
 32 33  2  0
 33 34  1  0
 33 35  1  0
 35 36  1  0
 35 37  2  0
 37 38  1  0
 38 39  1  0
 39 40  1  0
 39 41  1  0
 39 42  1  0
 37 43  1  0
 43 44  1  0
 43 45  2  0
 45 46  1  0
 28 47  1  0
 47 48  1  0
 47 49  1  0
 47 50  1  0
 50 51  1  0
 50 52  1  0
 50 53  1  0
 53 54  1  0
 53 55  1  0
  7 56  1  0
 56 57  1  0
 56 58  2  0
 58 59  1  0
 58  2  1  0
 22 13  1  0
 53 24  1  0
 45 32  1  0
M  CHG  1  11   1
M  END
>  <UniqueID>  (10) 
9

>  <SMILES>  (10) 
COc1ccc(CN2CCC[C@@H](/C(Nc3ccccc3)=[NH+]/c3ccccc3Cl)C2=O)cc1

>  <Energy>  (10) 
74.7146322548446

>  <Genealogy>  (10) 
COc1ccc(CN2CCCC(C(Nc3ccccc3)=[NH+]c3ccccc3Cl)C2=O)cc1 (protonated)
COc1ccc(CN2CCC[C@@H](C(Nc3ccccc3)=[NH+]c3ccccc3Cl)C2=O)cc1 (chirality)
COc1ccc(CN2CCC[C@@H](/C(Nc3ccccc3)=[NH+]/c3ccccc3Cl)C2=O)cc1 (cis-trans isomerization)
COc1ccc(CN2CCC[C@@H](/C(Nc3ccccc3)=[NH+]/c3ccccc3Cl)C2=O)cc1 (3D coordinates assigned)
COc1ccc(CN2CCC[C@@H](/C(Nc3ccccc3)=[NH+]/c3ccccc3Cl)C2=O)cc1 (nonaromatic ring conformer: 74.7146322548446 kcal/mol)

>  <smiles>  (10) 
COc1ccc(CN2CCCC(C(=Nc3ccccc3Cl)Nc3ccccc3)C2=O)cc1

>  <score_type>  (10) 
oracle

>  <origin>  (10) 
adg

>  <m_score__min__energy>  (10) 
-7.6399999999999997

>  <m_primary>  (10) 
energy

$$$$
10:0
     RDKit          3D

 26 28  0  0  0  0  0  0  0  0999 V2000
   57.6240   32.2000   42.1430 O   0  0  0  0  0  0  0  0  0  0  0  0
   57.7060   32.4370   43.3760 C   0  0  0  0  0  0  0  0  0  0  0  0
   57.6230   31.3470   44.3650 C   0  0  0  0  0  0  0  0  0  0  0  0
   56.5940   30.3770   44.3220 C   0  0  0  0  0  0  0  0  0  0  0  0
   56.5400   29.3420   45.2840 C   0  0  0  0  0  0  0  0  0  0  0  0
   55.5230   28.3980   45.2270 O   0  0  0  0  0  0  0  0  0  0  0  0
   57.5110   29.2620   46.2990 C   0  0  0  0  0  0  0  0  0  0  0  0
   58.5110   30.2310   46.3160 C   0  0  0  0  0  0  0  0  0  0  0  0
   59.5240   30.3430   47.1850 N   0  0  0  0  0  0  0  0  0  0  0  0
   60.1820   31.4480   46.7390 C   0  0  0  0  0  0  0  0  0  0  0  0
   61.3980   31.9790   47.3920 C   0  0  0  0  0  0  0  0  0  0  0  0
   61.9610   31.3170   48.5000 C   0  0  0  0  0  0  0  0  0  0  0  0
   63.1110   31.8230   49.1150 C   0  0  0  0  0  0  0  0  0  0  0  0
   63.7090   32.9890   48.6330 C   0  0  0  0  0  0  0  0  0  0  0  0
   63.1590   33.6530   47.5350 C   0  0  0  0  0  0  0  0  0  0  0  0
   62.0090   33.1530   46.9160 C   0  0  0  0  0  0  0  0  0  0  0  0
   59.6230   32.0200   45.6390 N   0  0  0  0  0  0  0  0  0  0  0  0
   58.5670   31.2300   45.3920 C   0  0  0  0  0  0  0  0  0  0  0  0
   57.8416   33.4727   43.7210 H   0  0  0  0  0  0  0  0  0  0  0  0
   55.8291   30.4284   43.5332 H   0  0  0  0  0  0  0  0  0  0  0  0
   57.4813   28.4617   47.0531 H   0  0  0  0  0  0  0  0  0  0  0  0
   61.4943   30.3978   48.8837 H   0  0  0  0  0  0  0  0  0  0  0  0
   63.5452   31.3010   49.9804 H   0  0  0  0  0  0  0  0  0  0  0  0
   64.6135   33.3844   49.1184 H   0  0  0  0  0  0  0  0  0  0  0  0
   63.6312   34.5714   47.1560 H   0  0  0  0  0  0  0  0  0  0  0  0
   61.5798   33.6810   46.0517 H   0  0  0  0  0  0  0  0  0  0  0  0
  1  2  2  0
  2  3  1  0
  3  4  2  0
  4  5  1  0
  5  6  1  0
  5  7  2  0
  7  8  1  0
  8  9  1  0
  9 10  1  0
 10 11  1  0
 11 12  2  0
 12 13  1  0
 13 14  2  0
 14 15  1  0
 15 16  2  0
 10 17  2  0
 17 18  1  0
 18  3  1  0
 18  8  2  0
 16 11  1  0
  2 19  1  0
  4 20  1  0
  7 21  1  0
 12 22  1  0
 13 23  1  0
 14 24  1  0
 15 25  1  0
 16 26  1  0
M  CHG  2   6  -1   9  -1
M  END
>  <UniqueID>  (11) 
10

>  <SMILES>  (11) 
O=Cc1cc([O-])cc2[n-]c(-c3ccccc3)nc12

>  <Energy>  (11) 
64.23261762280019

>  <Genealogy>  (11) 
O=Cc1cc([O-])cc2[n-]c(-c3ccccc3)nc12 (protonated)
O=Cc1cc([O-])cc2[n-]c(-c3ccccc3)nc12 (3D coordinates assigned)
O=Cc1cc([O-])cc2[n-]c(-c3ccccc3)nc12 (optimized conformer: 64.23261762280019 kcal/mol)

>  <smiles>  (11) 
O=Cc1cc(O)cc2[nH]c(-c3ccccc3)nc12

>  <score_type>  (11) 
oracle

>  <origin>  (11) 
adg

>  <m_score__min__energy>  (11) 
-9.9800000000000004

>  <m_primary>  (11) 
energy

$$$$
11:0
     RDKit          3D

 38 40  0  0  0  0  0  0  0  0999 V2000
   54.5790   29.5300   45.2950 H   0  0  0  0  0  0  0  0  0  0  0  0
   55.4330   29.3600   44.7170 N   0  0  0  0  0  0  0  0  0  0  0  0
   56.2040   30.3200   44.3180 C   0  0  0  0  0  0  0  0  0  0  0  0
   56.6590   31.2310   45.2200 N   0  0  0  0  0  0  0  0  0  0  0  0
   57.4780   32.2610   44.8650 C   0  0  0  0  0  0  0  0  0  0  0  0
   57.9270   33.2600   45.9080 C   0  0  1  0  0  0  0  0  0  0  0  0
   57.0541   33.8489   46.2263 H   0  0  0  0  0  0  0  0  0  0  0  0
   58.4830   32.5200   47.1450 C   0  0  0  0  0  0  0  0  0  0  0  0
   59.0282   31.6233   46.8154 H   0  0  0  0  0  0  0  0  0  0  0  0
   57.6433   32.2359   47.7963 H   0  0  0  0  0  0  0  0  0  0  0  0
   59.4360   33.4290   47.9330 C   0  0  0  0  0  0  0  0  0  0  0  0
   59.7728   32.8916   48.8318 H   0  0  0  0  0  0  0  0  0  0  0  0
   58.8851   34.3455   48.1909 H   0  0  0  0  0  0  0  0  0  0  0  0
   60.6340   33.8300   47.1390 N   0  0  1  0  0  0  0  0  0  0  0  0
   60.8880   34.8020   47.4440 H   0  0  0  0  0  0  0  0  0  0  0  0
   61.7870   32.9530   47.4610 C   0  0  0  0  0  0  0  0  0  0  0  0
   61.4205   31.9287   47.6237 H   0  0  0  0  0  0  0  0  0  0  0  0
   62.4917   32.9919   46.6173 H   0  0  0  0  0  0  0  0  0  0  0  0
   62.5110   33.4120   48.6950 C   0  0  0  0  0  0  0  0  0  0  0  0
   62.1870   34.4830   49.3810 O   0  0  0  0  0  0  0  0  0  0  0  0
   63.0300   34.6090   50.3810 C   0  0  0  0  0  0  0  0  0  0  0  0
   63.0078   35.4140   51.1303 H   0  0  0  0  0  0  0  0  0  0  0  0
   63.9470   33.5790   50.3490 C   0  0  0  0  0  0  0  0  0  0  0  0
   64.7761   33.4103   51.0519 H   0  0  0  0  0  0  0  0  0  0  0  0
   63.6150   32.8040   49.2590 C   0  0  0  0  0  0  0  0  0  0  0  0
   64.1229   31.8924   48.9112 H   0  0  0  0  0  0  0  0  0  0  0  0
   60.3890   33.8690   45.6680 C   0  0  0  0  0  0  0  0  0  0  0  0
   60.5857   32.8707   45.2501 H   0  0  0  0  0  0  0  0  0  0  0  0
   61.0603   34.6252   45.2351 H   0  0  0  0  0  0  0  0  0  0  0  0
   58.9480   34.2710   45.3280 C   0  0  0  0  0  0  0  0  0  0  0  0
   58.8349   34.3063   44.2344 H   0  0  0  0  0  0  0  0  0  0  0  0
   58.7496   35.2572   45.7731 H   0  0  0  0  0  0  0  0  0  0  0  0
   57.8550   32.4090   43.5210 C   0  0  0  0  0  0  0  0  0  0  0  0
   58.5024   33.2440   43.2150 H   0  0  0  0  0  0  0  0  0  0  0  0
   57.4010   31.4870   42.5760 C   0  0  0  0  0  0  0  0  0  0  0  0
   57.6959   31.5898   41.5212 H   0  0  0  0  0  0  0  0  0  0  0  0
   56.5730   30.4350   42.9700 C   0  0  0  0  0  0  0  0  0  0  0  0
   56.2136   29.7037   42.2310 H   0  0  0  0  0  0  0  0  0  0  0  0
  1  2  1  0
  2  3  2  0
  3  4  1  0
  4  5  1  0
  5  6  1  0
  6  7  1  6
  6  8  1  0
  8  9  1  0
  8 10  1  0
  8 11  1  0
 11 12  1  0
 11 13  1  0
 11 14  1  0
 14 15  1  6
 14 16  1  0
 16 17  1  0
 16 18  1  0
 16 19  1  0
 19 20  1  0
 20 21  1  0
 21 22  1  0
 21 23  2  0
 23 24  1  0
 23 25  1  0
 25 26  1  0
 14 27  1  0
 27 28  1  0
 27 29  1  0
 27 30  1  0
 30 31  1  0
 30 32  1  0
  5 33  2  0
 33 34  1  0
 33 35  1  0
 35 36  1  0
 35 37  2  0
 37 38  1  0
 37  3  1  0
 30  6  1  0
 25 19  2  0
M  CHG  2   4  -1  14   1
M  END
>  <UniqueID>  (12) 
11

>  <SMILES>  (12) 
[H]/N=c1\cccc(C2CC[NH+](Cc3ccco3)CC2)[n-]1

>  <Energy>  (12) 
74.43528670177315

>  <Genealogy>  (12) 
N=c1cccc(C2CC[NH+](Cc3ccco3)CC2)[n-]1 (protonated)
[H]/N=c1\cccc(C2CC[NH+](Cc3ccco3)CC2)[n-]1 (cis-trans isomerization)
[H]/N=c1\cccc(C2CC[NH+](Cc3ccco3)CC2)[n-]1 (3D coordinates assigned)
[H]/N=c1\cccc(C2CC[NH+](Cc3ccco3)CC2)[n-]1 (nonaromatic ring conformer: 74.43528670177315 kcal/mol)

>  <smiles>  (12) 
N=c1cccc(C2CCN(Cc3ccco3)CC2)[nH]1

>  <score_type>  (12) 
oracle

>  <origin>  (12) 
adg

>  <m_score__min__energy>  (12) 
-8.3499999999999996

>  <m_primary>  (12) 
energy

$$$$
12:0
     RDKit          3D

 63 67  0  0  0  0  0  0  0  0999 V2000
   58.2860   32.3150   49.8770 C   0  0  0  0  0  0  0  0  0  0  0  0
   59.6840   32.2100   49.4430 N   0  0  0  0  0  0  0  0  0  0  0  0
   60.6670   31.7400   50.3910 C   0  0  0  0  0  0  0  0  0  0  0  0
   60.3020   31.3290   51.5270 O   0  0  0  0  0  0  0  0  0  0  0  0
   62.0570   31.7070   50.0270 N   0  0  0  0  0  0  0  0  0  0  0  0
   63.0390   31.1710   50.9280 C   0  0  0  0  0  0  0  0  0  0  0  0
   63.8850   32.0300   51.6430 C   0  0  0  0  0  0  0  0  0  0  0  0
   64.8390   31.5110   52.5240 C   0  0  0  0  0  0  0  0  0  0  0  0
   64.9600   30.1180   52.6980 C   0  0  0  0  0  0  0  0  0  0  0  0
   65.8990   29.5410   53.5680 O   0  0  0  0  0  0  0  0  0  0  0  0
   66.9730   28.6910   53.1740 C   0  0  0  0  0  0  0  0  0  0  0  0
   66.6100   27.3760   53.4010 F   0  0  0  0  0  0  0  0  0  0  0  0
   68.1040   28.9750   53.9190 F   0  0  0  0  0  0  0  0  0  0  0  0
   67.2420   28.8530   51.8270 F   0  0  0  0  0  0  0  0  0  0  0  0
   64.1150   29.2650   51.9780 C   0  0  0  0  0  0  0  0  0  0  0  0
   63.1610   29.7850   51.0990 C   0  0  0  0  0  0  0  0  0  0  0  0
   62.4410   32.2130   48.7410 C   0  0  0  0  0  0  0  0  0  0  0  0
   61.5590   32.6450   47.8600 C   0  0  0  0  0  0  0  0  0  0  0  0
   62.2630   33.2910   46.7760 C   0  0  0  0  0  0  0  0  0  0  0  0
   61.7060   33.8560   45.7990 O   0  0  0  0  0  0  0  0  0  0  0  0
   63.7300   33.2700   47.0110 C   0  0  0  0  0  0  0  0  0  0  0  0
   63.8600   32.4690   48.3150 C   0  0  0  0  0  0  0  0  0  0  0  0
   60.0710   32.7070   48.1050 C   0  0  1  0  0  0  0  0  0  0  0  0
   59.2750   32.0020   47.0070 C   0  0  0  0  0  0  0  0  0  0  0  0
   58.8790   32.7720   45.8940 C   0  0  0  0  0  0  0  0  0  0  0  0
   58.0310   32.2470   44.9200 C   0  0  0  0  0  0  0  0  0  0  0  0
   57.5370   30.9500   45.0480 C   0  0  0  0  0  0  0  0  0  0  0  0
   56.6300   30.4230   44.0610 C   0  0  0  0  0  0  0  0  0  0  0  0
   55.9020   30.0000   43.2680 N   0  0  0  0  0  0  0  0  0  0  0  0
   57.9280   30.1600   46.1320 C   0  0  0  0  0  0  0  0  0  0  0  0
   58.8360   30.6470   47.0870 C   0  0  0  0  0  0  0  0  0  0  0  0
   59.2620   29.7320   48.1670 C   0  0  0  0  0  0  0  0  0  0  0  0
   58.4900   29.5280   49.1380 O   0  0  0  0  0  0  0  0  0  0  0  0
   60.5110   29.0260   48.1310 N   0  0  0  0  0  0  0  0  0  0  0  0
   60.7710   27.6580   48.5790 C   0  0  0  0  0  0  0  0  0  0  0  0
   60.7420   27.5430   50.0790 C   0  0  0  0  0  0  0  0  0  0  0  0
   61.2210   26.3800   50.6990 C   0  0  0  0  0  0  0  0  0  0  0  0
   61.2820   26.3190   52.0920 C   0  0  0  0  0  0  0  0  0  0  0  0
   60.8420   27.4010   52.8540 C   0  0  0  0  0  0  0  0  0  0  0  0
   60.8850   27.3480   54.2070 F   0  0  0  0  0  0  0  0  0  0  0  0
   60.3610   28.5410   52.2070 C   0  0  0  0  0  0  0  0  0  0  0  0
   60.3320   28.5950   50.8470 N   0  0  0  0  0  0  0  0  0  0  0  0
   58.2426   32.3183   50.9761 H   0  0  0  0  0  0  0  0  0  0  0  0
   57.8511   33.2483   49.4901 H   0  0  0  0  0  0  0  0  0  0  0  0
   57.7165   31.4571   49.4901 H   0  0  0  0  0  0  0  0  0  0  0  0
   63.7980   33.1185   51.5104 H   0  0  0  0  0  0  0  0  0  0  0  0
   65.4971   32.1925   53.0830 H   0  0  0  0  0  0  0  0  0  0  0  0
   64.2027   28.1759   52.1053 H   0  0  0  0  0  0  0  0  0  0  0  0
   62.5032   29.1040   50.5391 H   0  0  0  0  0  0  0  0  0  0  0  0
   64.2555   32.7685   46.1850 H   0  0  0  0  0  0  0  0  0  0  0  0
   64.1732   34.2748   47.0737 H   0  0  0  0  0  0  0  0  0  0  0  0
   64.3901   31.5215   48.1384 H   0  0  0  0  0  0  0  0  0  0  0  0
   64.4368   33.0074   49.0815 H   0  0  0  0  0  0  0  0  0  0  0  0
   59.8117   33.7756   48.0743 H   0  0  0  0  0  0  0  0  0  0  0  0
   59.2454   33.8042   45.7926 H   0  0  0  0  0  0  0  0  0  0  0  0
   57.7512   32.8575   44.0488 H   0  0  0  0  0  0  0  0  0  0  0  0
   57.5198   29.1441   46.2390 H   0  0  0  0  0  0  0  0  0  0  0  0
   60.0028   26.9936   48.1566 H   0  0  0  0  0  0  0  0  0  0  0  0
   61.7759   27.3721   48.2349 H   0  0  0  0  0  0  0  0  0  0  0  0
   61.5462   25.5222   50.0920 H   0  0  0  0  0  0  0  0  0  0  0  0
   61.6762   25.4196   52.5877 H   0  0  0  0  0  0  0  0  0  0  0  0
   60.0046   29.3977   52.7977 H   0  0  0  0  0  0  0  0  0  0  0  0
   60.0070   29.4790   50.3970 H   0  0  0  0  0  0  0  0  0  0  0  0
  1  2  1  0
  2  3  1  0
  3  4  2  0
  3  5  1  0
  5  6  1  0
  6  7  2  0
  7  8  1  0
  8  9  2  0
  9 10  1  0
 10 11  1  0
 11 12  1  0
 11 13  1  0
 11 14  1  0
  9 15  1  0
 15 16  2  0
  5 17  1  0
 17 18  2  0
 18 19  1  0
 19 20  2  0
 19 21  1  0
 21 22  1  0
 18 23  1  0
 23 24  1  0
 24 25  2  0
 25 26  1  0
 26 27  2  0
 27 28  1  0
 28 29  3  0
 27 30  1  0
 30 31  2  0
 31 32  1  0
 32 33  2  0
 32 34  1  0
 34 35  1  0
 35 36  1  0
 36 37  2  0
 37 38  1  0
 38 39  2  0
 39 40  1  0
 39 41  1  0
 41 42  2  0
 23  2  1  0
 31 24  1  0
 42 36  1  0
 16  6  1  0
 22 17  1  0
  1 43  1  0
  1 44  1  0
  1 45  1  0
  7 46  1  0
  8 47  1  0
 15 48  1  0
 16 49  1  0
 21 50  1  0
 21 51  1  0
 22 52  1  0
 22 53  1  0
 23 54  1  1
 25 55  1  0
 26 56  1  0
 30 57  1  0
 35 58  1  0
 35 59  1  0
 37 60  1  0
 38 61  1  0
 41 62  1  0
 42 63  1  0
M  CHG  2  34  -1  42   1
M  END
>  <UniqueID>  (13) 
12

>  <SMILES>  (13) 
CN1C(=O)N(c2ccc(OC(F)(F)F)cc2)C2=C(C(=O)CC2)[C@H]1c1ccc(C#N)cc1C(=O)[N-]Cc1ccc(F)c[nH+]1

>  <Energy>  (13) 
89.29316343081551

>  <Genealogy>  (13) 
CN1C(=O)N(c2ccc(OC(F)(F)F)cc2)C2=C(C(=O)CC2)C1c1ccc(C#N)cc1C(=O)[N-]Cc1ccc(F)c[nH+]1 (protonated)
CN1C(=O)N(c2ccc(OC(F)(F)F)cc2)C2=C(C(=O)CC2)[C@H]1c1ccc(C#N)cc1C(=O)[N-]Cc1ccc(F)c[nH+]1 (chirality)
CN1C(=O)N(c2ccc(OC(F)(F)F)cc2)C2=C(C(=O)CC2)[C@H]1c1ccc(C#N)cc1C(=O)[N-]Cc1ccc(F)c[nH+]1 (3D coordinates assigned)
CN1C(=O)N(c2ccc(OC(F)(F)F)cc2)C2=C(C(=O)CC2)[C@H]1c1ccc(C#N)cc1C(=O)[N-]Cc1ccc(F)c[nH+]1 (nonaromatic ring conformer: 89.29316343081551 kcal/mol)

>  <smiles>  (13) 
CN1C(=O)N(c2ccc(OC(F)(F)F)cc2)C2=C(C(=O)CC2)C1c1ccc(C#N)cc1C(=O)NCc1ccc(F)cn1

>  <score_type>  (13) 
oracle

>  <origin>  (13) 
adg

>  <m_score__min__energy>  (13) 
-6.9100000000000001

>  <m_primary>  (13) 
energy

$$$$
13:0
     RDKit          3D

 39 42  0  0  0  0  0  0  0  0999 V2000
   58.3806   33.2405   42.6281 H   0  0  0  0  0  0  0  0  0  0  0  0
   58.1770   33.0930   43.6990 C   0  0  0  0  0  0  0  0  0  0  0  0
   58.4830   34.0620   44.5160 N   0  0  0  0  0  0  0  0  0  0  0  0
   59.2230   33.9670   45.7420 C   0  0  0  0  0  0  0  0  0  0  0  0
   58.5840   34.1030   47.0030 C   0  0  0  0  0  0  0  0  0  0  0  0
   57.4963   34.2609   47.0475 H   0  0  0  0  0  0  0  0  0  0  0  0
   59.3260   34.0380   48.1940 C   0  0  0  0  0  0  0  0  0  0  0  0
   58.8319   34.1261   49.1728 H   0  0  0  0  0  0  0  0  0  0  0  0
   60.7040   33.8590   48.1020 C   0  0  0  0  0  0  0  0  0  0  0  0
   61.3360   33.7580   46.8760 C   0  0  0  0  0  0  0  0  0  0  0  0
   60.6230   33.8200   45.6810 C   0  0  0  0  0  0  0  0  0  0  0  0
   61.1407   33.7557   44.7126 H   0  0  0  0  0  0  0  0  0  0  0  0
   62.7690   33.5970   47.1070 C   0  0  0  0  0  0  0  0  0  0  0  0
   63.6660   33.4740   46.2320 O   0  0  0  0  0  0  0  0  0  0  0  0
   62.9560   33.6080   48.5550 C   0  0  0  0  0  0  0  0  0  0  0  0
   64.1210   33.4900   49.3120 C   0  0  0  0  0  0  0  0  0  0  0  0
   65.1003   33.3652   48.8269 H   0  0  0  0  0  0  0  0  0  0  0  0
   64.0090   33.5350   50.7120 C   0  0  0  0  0  0  0  0  0  0  0  0
   64.9106   33.4442   51.3356 H   0  0  0  0  0  0  0  0  0  0  0  0
   62.7470   33.6960   51.3230 C   0  0  0  0  0  0  0  0  0  0  0  0
   62.6726   33.7302   52.4199 H   0  0  0  0  0  0  0  0  0  0  0  0
   61.5850   33.8130   50.5420 C   0  0  0  0  0  0  0  0  0  0  0  0
   60.5982   33.9381   51.0116 H   0  0  0  0  0  0  0  0  0  0  0  0
   61.7180   33.7660   49.1540 C   0  0  0  0  0  0  0  0  0  0  0  0
   57.5740   31.8080   44.1170 C   0  0  0  0  0  0  0  0  0  0  0  0
   57.9690   31.1630   45.3010 C   0  0  0  0  0  0  0  0  0  0  0  0
   58.7277   31.6257   45.9493 H   0  0  0  0  0  0  0  0  0  0  0  0
   57.4030   29.9370   45.6590 C   0  0  0  0  0  0  0  0  0  0  0  0
   57.7084   29.4484   46.5961 H   0  0  0  0  0  0  0  0  0  0  0  0
   56.4510   29.3250   44.8360 C   0  0  0  0  0  0  0  0  0  0  0  0
   55.9080   28.0970   45.2420 O   0  0  0  0  0  0  0  0  0  0  0  0
   56.6800   26.9770   45.6650 C   0  0  0  0  0  0  0  0  0  0  0  0
   56.7039   26.9423   46.7642 H   0  0  0  0  0  0  0  0  0  0  0  0
   56.2266   26.0522   45.2787 H   0  0  0  0  0  0  0  0  0  0  0  0
   57.7056   27.0717   45.2787 H   0  0  0  0  0  0  0  0  0  0  0  0
   56.0760   29.9570   43.6340 C   0  0  0  0  0  0  0  0  0  0  0  0
   55.3338   29.4834   42.9746 H   0  0  0  0  0  0  0  0  0  0  0  0
   56.6430   31.1830   43.2760 C   0  0  0  0  0  0  0  0  0  0  0  0
   56.3567   31.6609   42.3275 H   0  0  0  0  0  0  0  0  0  0  0  0
  1  2  1  0
  2  3  2  0
  3  4  1  0
  4  5  2  0
  5  6  1  0
  5  7  1  0
  7  8  1  0
  7  9  2  0
  9 10  1  0
 10 11  2  0
 11 12  1  0
 10 13  1  0
 13 14  2  0
 13 15  1  0
 15 16  2  0
 16 17  1  0
 16 18  1  0
 18 19  1  0
 18 20  2  0
 20 21  1  0
 20 22  1  0
 22 23  1  0
 22 24  2  0
  2 25  1  0
 25 26  2  0
 26 27  1  0
 26 28  1  0
 28 29  1  0
 28 30  2  0
 30 31  1  0
 31 32  1  0
 32 33  1  0
 32 34  1  0
 32 35  1  0
 30 36  1  0
 36 37  1  0
 36 38  2  0
 38 39  1  0
 11  4  1  0
 24 15  1  0
 38 25  1  0
 24  9  1  0
M  END
>  <UniqueID>  (14) 
13

>  <SMILES>  (14) 
COc1ccc(/C=N\c2ccc3c(c2)C(=O)c2ccccc2-3)cc1

>  <Energy>  (14) 
87.8255030326843

>  <Genealogy>  (14) 
COc1ccc(/C=N\c2ccc3c(c2)C(=O)c2ccccc2-3)cc1 (cis-trans isomerization)
COc1ccc(/C=N\c2ccc3c(c2)C(=O)c2ccccc2-3)cc1 (3D coordinates assigned)
COc1ccc(/C=N\c2ccc3c(c2)C(=O)c2ccccc2-3)cc1 (nonaromatic ring conformer: 87.8255030326843 kcal/mol)

>  <smiles>  (14) 
COc1ccc(C=Nc2ccc3c(c2)C(=O)c2ccccc2-3)cc1

>  <score_type>  (14) 
oracle

>  <origin>  (14) 
adg

>  <m_score__min__energy>  (14) 
-8.5500000000000007

>  <m_primary>  (14) 
energy

$$$$
14:0
     RDKit          3D

 19 19  0  0  0  0  0  0  0  0999 V2000
   55.5670   29.9910   44.0640 C   0  0  0  0  0  0  0  0  0  0  0  0
   55.5430   28.9090   44.9900 O   0  0  0  0  0  0  0  0  0  0  0  0
   56.6510   28.1050   45.3020 C   0  0  0  0  0  0  0  0  0  0  0  0
   57.9660   28.4880   44.9740 C   0  0  0  0  0  0  0  0  0  0  0  0
   59.0460   27.6610   45.2990 C   0  0  0  0  0  0  0  0  0  0  0  0
   58.8340   26.4420   45.9560 C   0  0  0  0  0  0  0  0  0  0  0  0
   59.9870   25.5860   46.2900 C   0  0  0  0  0  0  0  0  0  0  0  0
   60.0110   24.3700   45.9610 O   0  0  0  0  0  0  0  0  0  0  0  0
   57.5230   26.0580   46.2830 C   0  0  0  0  0  0  0  0  0  0  0  0
   56.4380   26.8800   45.9600 C   0  0  0  0  0  0  0  0  0  0  0  0
   55.1520   26.4620   46.3040 O   0  0  0  0  0  0  0  0  0  0  0  0
   55.5881   30.9436   44.6136 H   0  0  0  0  0  0  0  0  0  0  0  0
   56.4636   29.9126   43.4316 H   0  0  0  0  0  0  0  0  0  0  0  0
   54.6678   29.9524   43.4316 H   0  0  0  0  0  0  0  0  0  0  0  0
   58.1447   29.4434   44.4590 H   0  0  0  0  0  0  0  0  0  0  0  0
   60.0687   27.9698   45.0370 H   0  0  0  0  0  0  0  0  0  0  0  0
   60.8401   26.0159   46.8353 H   0  0  0  0  0  0  0  0  0  0  0  0
   57.3478   25.1019   46.7979 H   0  0  0  0  0  0  0  0  0  0  0  0
   54.3740   27.1070   46.3660 H   0  0  0  0  0  0  0  0  0  0  0  0
  1  2  1  0
  2  3  1  0
  3  4  2  0
  4  5  1  0
  5  6  2  0
  6  7  1  0
  7  8  2  0
  6  9  1  0
  9 10  2  0
 10 11  1  0
 10  3  1  0
  1 12  1  0
  1 13  1  0
  1 14  1  0
  4 15  1  0
  5 16  1  0
  7 17  1  0
  9 18  1  0
 11 19  1  0
M  END
>  <UniqueID>  (15) 
14

>  <SMILES>  (15) 
COc1ccc(C=O)cc1O

>  <Energy>  (15) 
16.954153971180723

>  <Genealogy>  (15) 
COc1ccc(C=O)cc1O (3D coordinates assigned)
COc1ccc(C=O)cc1O (optimized conformer: 16.954153971180723 kcal/mol)

>  <smiles>  (15) 
COc1ccc(C=O)cc1O

>  <score_type>  (15) 
oracle

>  <origin>  (15) 
adg

>  <m_score__min__energy>  (15) 
-5.7599999999999998

>  <m_primary>  (15) 
energy

$$$$
15:0
     RDKit          3D

 58 60  0  0  0  0  0  0  0  0999 V2000
   64.4876   32.8769   49.0168 H   0  0  0  0  0  0  0  0  0  0  0  0
   63.6070   33.2510   48.4740 C   0  0  0  0  0  0  0  0  0  0  0  0
   63.5900   33.2370   47.0780 C   0  0  0  0  0  0  0  0  0  0  0  0
   64.4568   32.8500   46.5223 H   0  0  0  0  0  0  0  0  0  0  0  0
   62.4730   33.7140   46.3850 C   0  0  0  0  0  0  0  0  0  0  0  0
   62.4605   33.6945   45.2852 H   0  0  0  0  0  0  0  0  0  0  0  0
   61.3670   34.2180   47.0890 C   0  0  0  0  0  0  0  0  0  0  0  0
   60.1520   34.7050   46.3470 C   0  0  0  0  0  0  0  0  0  0  0  0
   60.4720   35.2857   45.4693 H   0  0  0  0  0  0  0  0  0  0  0  0
   59.5524   35.3358   47.0197 H   0  0  0  0  0  0  0  0  0  0  0  0
   59.3120   33.5400   45.8920 C   0  0  0  0  0  0  0  0  0  0  0  0
   59.6300   32.2410   46.3170 C   0  0  0  0  0  0  0  0  0  0  0  0
   60.5046   32.0771   46.9636 H   0  0  0  0  0  0  0  0  0  0  0  0
   58.8970   29.0620   48.5170 C   0  0  0  0  0  0  0  0  0  0  0  0
   58.0927   28.3428   48.3031 H   0  0  0  0  0  0  0  0  0  0  0  0
   60.1340   28.9470   47.8500 C   0  0  0  0  0  0  0  0  0  0  0  0
   60.3730   27.8710   46.8510 C   0  0  0  0  0  0  0  0  0  0  0  0
   60.3890   26.6350   47.2520 N   0  0  0  0  0  0  0  0  0  0  0  0
   59.4460   25.7110   46.8550 O   0  0  0  0  0  0  0  0  0  0  0  0
   58.0690   25.9080   47.1460 C   0  0  0  0  0  0  0  0  0  0  0  0
   57.7249   25.1083   47.8184 H   0  0  0  0  0  0  0  0  0  0  0  0
   57.9479   26.8909   47.6247 H   0  0  0  0  0  0  0  0  0  0  0  0
   57.2310   25.8810   45.8650 C   0  0  0  0  0  0  0  0  0  0  0  0
   57.5430   25.0217   45.2533 H   0  0  0  0  0  0  0  0  0  0  0  0
   56.1719   25.7987   46.1505 H   0  0  0  0  0  0  0  0  0  0  0  0
   57.4050   27.1600   45.0470 C   0  0  0  0  0  0  0  0  0  0  0  0
   58.3131   27.6860   45.3768 H   0  0  0  0  0  0  0  0  0  0  0  0
   57.4971   26.9049   43.9810 H   0  0  0  0  0  0  0  0  0  0  0  0
   56.2770   27.9980   45.2380 O   0  0  0  0  0  0  0  0  0  0  0  0
   56.4400   29.3340   45.5320 N   0  0  0  0  0  0  0  0  0  0  0  0
   56.8930   30.1920   44.6670 C   0  0  0  0  0  0  0  0  0  0  0  0
   57.7290   31.3460   45.0920 C   0  0  0  0  0  0  0  0  0  0  0  0
   58.8440   31.1540   45.9250 C   0  0  0  0  0  0  0  0  0  0  0  0
   59.0999   30.1416   46.2708 H   0  0  0  0  0  0  0  0  0  0  0  0
   58.6850   30.0830   49.4480 C   0  0  0  0  0  0  0  0  0  0  0  0
   57.7172   30.1613   49.9649 H   0  0  0  0  0  0  0  0  0  0  0  0
   59.6980   31.0040   49.7240 C   0  0  0  0  0  0  0  0  0  0  0  0
   59.4250   32.2880   50.8860 Cl  0  0  0  0  0  0  0  0  0  0  0  0
   60.9270   30.9050   49.0660 C   0  0  0  0  0  0  0  0  0  0  0  0
   61.7247   31.6313   49.2811 H   0  0  0  0  0  0  0  0  0  0  0  0
   57.4000   32.6490   44.6830 C   0  0  0  0  0  0  0  0  0  0  0  0
   56.5200   32.8139   44.0439 H   0  0  0  0  0  0  0  0  0  0  0  0
   56.6490   29.9280   43.2070 C   0  0  0  0  0  0  0  0  0  0  0  0
   61.3590   29.0500   45.3584 H   0  0  0  0  0  0  0  0  0  0  0  0
   61.0930   27.3319   44.9065 H   0  0  0  0  0  0  0  0  0  0  0  0
   59.7150   28.4843   44.9065 H   0  0  0  0  0  0  0  0  0  0  0  0
   60.6540   28.2070   45.4080 C   0  0  0  0  0  0  0  0  0  0  0  0
   57.3650   28.8210   42.7880 F   0  0  0  0  0  0  0  0  0  0  0  0
   57.0460   31.0190   42.4550 F   0  0  0  0  0  0  0  0  0  0  0  0
   55.3010   29.7050   42.9970 F   0  0  0  0  0  0  0  0  0  0  0  0
   61.1450   29.8850   48.1350 C   0  0  0  0  0  0  0  0  0  0  0  0
   62.1148   29.8145   47.6206 H   0  0  0  0  0  0  0  0  0  0  0  0
   58.1810   33.7380   45.0810 C   0  0  0  0  0  0  0  0  0  0  0  0
   57.8370   34.9830   44.6650 F   0  0  0  0  0  0  0  0  0  0  0  0
   61.3880   34.2200   48.4940 C   0  0  0  0  0  0  0  0  0  0  0  0
   60.5214   34.6007   49.0545 H   0  0  0  0  0  0  0  0  0  0  0  0
   62.5060   33.7400   49.1820 C   0  0  0  0  0  0  0  0  0  0  0  0
   62.5192   33.7472   50.2819 H   0  0  0  0  0  0  0  0  0  0  0  0
  1  2  1  0
  2  3  2  0
  3  4  1  0
  3  5  1  0
  5  6  1  0
  5  7  2  0
  7  8  1  0
  8  9  1  0
  8 10  1  0
  8 11  1  0
 11 12  2  0
 12 13  1  0
 12 14  1  0
 14 15  1  0
 14 16  2  0
 16 17  1  0
 17 18  2  0
 18 19  1  0
 19 20  1  0
 20 21  1  0
 20 22  1  0
 20 23  1  0
 23 24  1  0
 23 25  1  0
 23 26  1  0
 26 27  1  0
 26 28  1  0
 26 29  1  0
 29 30  1  0
 30 31  2  0
 31 32  1  0
 32 33  2  0
 33 34  1  0
 33 35  1  0
 35 36  1  0
 35 37  2  0
 37 38  1  0
 37 39  1  0
 39 40  1  0
 39 41  2  0
 41 42  1  0
 31 43  1  0
 43 44  1  0
 43 45  1  0
 43 46  1  0
 17 47  1  0
 47 48  1  0
 47 49  1  0
 47 50  1  0
 16 51  1  0
 51 52  1  0
 51 53  2  0
 53 54  1  0
  7 55  1  0
 55 56  1  0
 55 57  2  0
 57 58  1  0
 57  2  1  0
 53 11  1  0
 41 32  1  0
M  END
>  <UniqueID>  (16) 
15

>  <SMILES>  (16) 
C/C(=N\OCCCO/N=C(\c1ccc(Cc2ccccc2)c(F)c1)C(F)(F)F)c1ccc(Cl)cc1

>  <Energy>  (16) 
54.783665028671685

>  <Genealogy>  (16) 
C/C(=N\OCCCO/N=C(\c1ccc(Cc2ccccc2)c(F)c1)C(F)(F)F)c1ccc(Cl)cc1 (cis-trans isomerization)
C/C(=N\OCCCO/N=C(\c1ccc(Cc2ccccc2)c(F)c1)C(F)(F)F)c1ccc(Cl)cc1 (3D coordinates assigned)
C/C(=N\OCCCO/N=C(\c1ccc(Cc2ccccc2)c(F)c1)C(F)(F)F)c1ccc(Cl)cc1 (optimized conformer: 54.783665028671685 kcal/mol)

>  <smiles>  (16) 
CC(=NOCCCON=C(c1ccc(Cc2ccccc2)c(F)c1)C(F)(F)F)c1ccc(Cl)cc1

>  <score_type>  (16) 
oracle

>  <origin>  (16) 
adg

>  <m_score__min__energy>  (16) 
-8.8499999999999996

>  <m_primary>  (16) 
energy

$$$$
16:0
     RDKit          3D

 41 44  0  0  0  0  0  0  0  0999 V2000
   56.1490   28.3670   45.4060 N   0  0  0  0  0  0  0  0  0  0  0  0
   56.8970   29.8060   44.8100 S   0  0  0  0  0  0  0  0  0  0  0  0
   57.5300   29.5250   43.4770 O   0  0  0  0  0  0  0  0  0  0  0  0
   55.8570   30.8770   44.6340 O   0  0  0  0  0  0  0  0  0  0  0  0
   58.1240   30.3440   45.9510 C   0  0  0  0  0  0  0  0  0  0  0  0
   58.8960   29.4070   46.6500 C   0  0  0  0  0  0  0  0  0  0  0  0
   59.8560   29.8350   47.5710 C   0  0  0  0  0  0  0  0  0  0  0  0
   60.0470   31.2050   47.8120 C   0  0  0  0  0  0  0  0  0  0  0  0
   61.0190   31.6440   48.7830 N   0  0  0  0  0  0  0  0  0  0  0  0
   60.7190   31.6550   50.1280 C   0  0  0  0  0  0  0  0  0  0  0  0
   59.3690   31.3250   50.6410 C   0  0  0  0  0  0  0  0  0  0  0  0
   59.0820   30.0160   51.0590 C   0  0  0  0  0  0  0  0  0  0  0  0
   57.8110   29.6940   51.5460 C   0  0  0  0  0  0  0  0  0  0  0  0
   56.8220   30.6790   51.6300 C   0  0  0  0  0  0  0  0  0  0  0  0
   55.2280   30.2730   52.2390 Cl  0  0  0  0  0  0  0  0  0  0  0  0
   57.1070   31.9900   51.2360 C   0  0  0  0  0  0  0  0  0  0  0  0
   58.3780   32.3150   50.7510 C   0  0  0  0  0  0  0  0  0  0  0  0
   61.6750   31.9840   51.0350 N   0  0  0  0  0  0  0  0  0  0  0  0
   62.9280   32.3320   50.6580 C   0  0  0  0  0  0  0  0  0  0  0  0
   63.8820   32.6700   51.6240 C   0  0  0  0  0  0  0  0  0  0  0  0
   65.1730   33.0360   51.2350 C   0  0  0  0  0  0  0  0  0  0  0  0
   65.5150   33.0630   49.8790 C   0  0  0  0  0  0  0  0  0  0  0  0
   64.5680   32.7250   48.9080 C   0  0  0  0  0  0  0  0  0  0  0  0
   63.2640   32.3570   49.2920 C   0  0  0  0  0  0  0  0  0  0  0  0
   62.2770   31.9970   48.3580 C   0  0  0  0  0  0  0  0  0  0  0  0
   62.5580   31.9810   47.1260 O   0  0  0  0  0  0  0  0  0  0  0  0
   59.2740   32.1410   47.1080 C   0  0  0  0  0  0  0  0  0  0  0  0
   58.3140   31.7130   46.1870 C   0  0  0  0  0  0  0  0  0  0  0  0
   55.1550   28.6060   45.6200 H   0  0  0  0  0  0  0  0  0  0  0  0
   58.7462   28.3316   46.4735 H   0  0  0  0  0  0  0  0  0  0  0  0
   60.4653   29.0946   48.1100 H   0  0  0  0  0  0  0  0  0  0  0  0
   59.8599   29.2403   51.0033 H   0  0  0  0  0  0  0  0  0  0  0  0
   57.5891   28.6644   51.8634 H   0  0  0  0  0  0  0  0  0  0  0  0
   56.3310   32.7663   51.3075 H   0  0  0  0  0  0  0  0  0  0  0  0
   58.6027   33.3501   50.4544 H   0  0  0  0  0  0  0  0  0  0  0  0
   63.6153   32.6475   52.6909 H   0  0  0  0  0  0  0  0  0  0  0  0
   65.9212   33.3032   51.9958 H   0  0  0  0  0  0  0  0  0  0  0  0
   66.5324   33.3511   49.5758 H   0  0  0  0  0  0  0  0  0  0  0  0
   64.8416   32.7465   47.8428 H   0  0  0  0  0  0  0  0  0  0  0  0
   59.4244   33.2167   47.2819 H   0  0  0  0  0  0  0  0  0  0  0  0
   57.7056   32.4524   45.6456 H   0  0  0  0  0  0  0  0  0  0  0  0
  1  2  1  0
  2  3  2  0
  2  4  2  0
  2  5  1  0
  5  6  2  0
  6  7  1  0
  7  8  2  0
  8  9  1  0
  9 10  1  0
 10 11  1  0
 11 12  2  0
 12 13  1  0
 13 14  2  0
 14 15  1  0
 14 16  1  0
 16 17  2  0
 10 18  2  0
 18 19  1  0
 19 20  2  0
 20 21  1  0
 21 22  2  0
 22 23  1  0
 23 24  2  0
 24 25  1  0
 25 26  2  0
  8 27  1  0
 27 28  2  0
 28  5  1  0
 25  9  1  0
 17 11  1  0
 24 19  1  0
  1 29  1  0
  6 30  1  0
  7 31  1  0
 12 32  1  0
 13 33  1  0
 16 34  1  0
 17 35  1  0
 20 36  1  0
 21 37  1  0
 22 38  1  0
 23 39  1  0
 27 40  1  0
 28 41  1  0
M  CHG  1   1  -1
M  END
>  <UniqueID>  (17) 
16

>  <SMILES>  (17) 
[NH-]S(=O)(=O)c1ccc(-n2c(-c3ccc(Cl)cc3)nc3ccccc3c2=O)cc1

>  <Energy>  (17) 
65.1780282429776

>  <Genealogy>  (17) 
[NH-]S(=O)(=O)c1ccc(-n2c(-c3ccc(Cl)cc3)nc3ccccc3c2=O)cc1 (protonated)
[NH-]S(=O)(=O)c1ccc(-n2c(-c3ccc(Cl)cc3)nc3ccccc3c2=O)cc1 (3D coordinates assigned)
[NH-]S(=O)(=O)c1ccc(-n2c(-c3ccc(Cl)cc3)nc3ccccc3c2=O)cc1 (optimized conformer: 65.1780282429776 kcal/mol)

>  <smiles>  (17) 
NS(=O)(=O)c1ccc(-n2c(-c3ccc(Cl)cc3)nc3ccccc3c2=O)cc1

>  <score_type>  (17) 
oracle

>  <origin>  (17) 
adg

>  <m_score__min__energy>  (17) 
-10.42

>  <m_primary>  (17) 
energy

$$$$
17:0
     RDKit          3D

 33 34  0  0  0  0  0  0  0  0999 V2000
   57.6370   26.3690   46.8480 O   0  0  0  0  0  0  0  0  0  0  0  0
   57.2960   27.4210   46.2470 C   0  0  0  0  0  0  0  0  0  0  0  0
   58.1470   28.5240   46.2170 C   0  0  0  0  0  0  0  0  0  0  0  0
   57.7510   29.6810   45.5370 C   0  0  0  0  0  0  0  0  0  0  0  0
   58.6810   30.8700   45.4810 C   0  0  0  0  0  0  0  0  0  0  0  0
   57.9490   32.2080   45.6890 C   0  0  0  0  0  0  0  0  0  0  0  0
   58.2130   33.2440   44.5750 C   0  0  0  0  0  0  0  0  0  0  0  0
   58.8400   34.5590   45.0740 C   0  0  0  0  0  0  0  0  0  0  0  0
   59.7050   34.3570   46.2930 C   0  0  0  0  0  0  0  0  0  0  0  0
   59.2250   34.6910   47.5710 C   0  0  0  0  0  0  0  0  0  0  0  0
   60.0360   34.5140   48.6960 C   0  0  0  0  0  0  0  0  0  0  0  0
   61.3280   34.0040   48.5560 C   0  0  0  0  0  0  0  0  0  0  0  0
   61.8130   33.6670   47.2880 C   0  0  0  0  0  0  0  0  0  0  0  0
   61.0060   33.8430   46.1600 C   0  0  0  0  0  0  0  0  0  0  0  0
   56.4930   29.6890   44.9060 C   0  0  0  0  0  0  0  0  0  0  0  0
   56.0930   30.7060   44.2760 O   0  0  0  0  0  0  0  0  0  0  0  0
   55.7020   28.5830   44.9720 N   0  0  0  0  0  0  0  0  0  0  0  0
   56.0930   27.4860   45.6200 N   0  0  0  0  0  0  0  0  0  0  0  0
   59.1225   28.4855   46.7239 H   0  0  0  0  0  0  0  0  0  0  0  0
   59.4416   30.7591   46.2679 H   0  0  0  0  0  0  0  0  0  0  0  0
   59.1327   30.8912   44.4782 H   0  0  0  0  0  0  0  0  0  0  0  0
   56.8678   32.0091   45.7282 H   0  0  0  0  0  0  0  0  0  0  0  0
   58.3325   32.6402   46.6250 H   0  0  0  0  0  0  0  0  0  0  0  0
   58.8954   32.7935   43.8392 H   0  0  0  0  0  0  0  0  0  0  0  0
   57.2343   33.5029   44.1447 H   0  0  0  0  0  0  0  0  0  0  0  0
   59.4576   34.9837   44.2689 H   0  0  0  0  0  0  0  0  0  0  0  0
   58.0200   35.2370   45.3531 H   0  0  0  0  0  0  0  0  0  0  0  0
   58.2077   35.0931   47.6865 H   0  0  0  0  0  0  0  0  0  0  0  0
   59.6552   34.7772   49.6938 H   0  0  0  0  0  0  0  0  0  0  0  0
   61.9645   33.8672   49.4427 H   0  0  0  0  0  0  0  0  0  0  0  0
   62.8303   33.2631   47.1783 H   0  0  0  0  0  0  0  0  0  0  0  0
   61.3911   33.5780   45.1643 H   0  0  0  0  0  0  0  0  0  0  0  0
   54.7670   28.5860   44.5040 H   0  0  0  0  0  0  0  0  0  0  0  0
  1  2  2  0
  2  3  1  0
  3  4  2  0
  4  5  1  0
  5  6  1  0
  6  7  1  0
  7  8  1  0
  8  9  1  0
  9 10  2  0
 10 11  1  0
 11 12  2  0
 12 13  1  0
 13 14  2  0
  4 15  1  0
 15 16  2  0
 15 17  1  0
 17 18  1  0
 18  2  1  0
 14  9  1  0
  3 19  1  0
  5 20  1  0
  5 21  1  0
  6 22  1  0
  6 23  1  0
  7 24  1  0
  7 25  1  0
  8 26  1  0
  8 27  1  0
 10 28  1  0
 11 29  1  0
 12 30  1  0
 13 31  1  0
 14 32  1  0
 17 33  1  0
M  CHG  1  18  -1
M  END
>  <UniqueID>  (18) 
17

>  <SMILES>  (18) 
O=c1cc(CCCCc2ccccc2)c(=O)[nH][n-]1

>  <Energy>  (18) 
30.23765484064042

>  <Genealogy>  (18) 
O=c1cc(CCCCc2ccccc2)c(=O)[nH][n-]1 (protonated)
O=c1cc(CCCCc2ccccc2)c(=O)[nH][n-]1 (3D coordinates assigned)
O=c1cc(CCCCc2ccccc2)c(=O)[nH][n-]1 (optimized conformer: 30.23765484064042 kcal/mol)

>  <smiles>  (18) 
O=c1cc(CCCCc2ccccc2)c(=O)[nH][nH]1

>  <score_type>  (18) 
oracle

>  <origin>  (18) 
adg

>  <m_score__min__energy>  (18) 
-9.3200000000000003

>  <m_primary>  (18) 
energy

$$$$
18:0
     RDKit          3D

 47 49  0  0  0  0  0  0  0  0999 V2000
   58.7070   29.5160   48.5600 N   0  0  0  0  0  0  0  0  0  0  0  0
   59.3150   29.6510   47.3010 N   0  0  0  0  0  0  0  0  0  0  0  0
   58.9230   29.0860   46.1460 C   0  0  0  0  0  0  0  0  0  0  0  0
   57.4590   28.0670   45.9320 S   0  0  0  0  0  0  0  0  0  0  0  0
   57.1920   28.5890   44.2030 C   0  0  0  0  0  0  0  0  0  0  0  0
   57.0100   30.0700   44.1650 C   0  0  0  0  0  0  0  0  0  0  0  0
   55.9000   30.5750   44.4950 O   0  0  0  0  0  0  0  0  0  0  0  0
   58.0840   30.9110   43.7290 N   0  0  0  0  0  0  0  0  0  0  0  0
   57.9170   32.3490   43.5040 C   0  0  0  0  0  0  0  0  0  0  0  0
   58.2930   33.1170   44.7460 C   0  0  0  0  0  0  0  0  0  0  0  0
   59.2130   34.1840   44.6870 C   0  0  0  0  0  0  0  0  0  0  0  0
   59.5800   34.8660   45.8540 C   0  0  0  0  0  0  0  0  0  0  0  0
   59.0280   34.4910   47.0830 C   0  0  0  0  0  0  0  0  0  0  0  0
   58.1060   33.4410   47.1500 C   0  0  0  0  0  0  0  0  0  0  0  0
   57.7360   32.7560   45.9850 C   0  0  0  0  0  0  0  0  0  0  0  0
   59.8070   29.3320   45.1620 N   0  0  0  0  0  0  0  0  0  0  0  0
   60.7790   30.0670   45.6900 N   0  0  0  0  0  0  0  0  0  0  0  0
   60.4700   30.2710   46.9900 C   0  0  0  0  0  0  0  0  0  0  0  0
   61.3830   30.9540   47.9830 C   0  0  0  0  0  0  0  0  0  0  0  0
   62.6220   31.5530   47.2610 C   0  0  0  0  0  0  0  0  0  0  0  0
   62.4620   33.0580   46.9970 C   0  0  0  0  0  0  0  0  0  0  0  0
   62.2810   33.8500   48.3090 C   0  0  0  0  0  0  0  0  0  0  0  0
   61.5760   33.0450   49.4210 C   0  0  0  0  0  0  0  0  0  0  0  0
   60.6150   32.0030   48.8330 C   0  0  0  0  0  0  0  0  0  0  0  0
   58.9100   30.1870   49.3310 H   0  0  0  0  0  0  0  0  0  0  0  0
   58.0950   28.7000   48.7680 H   0  0  0  0  0  0  0  0  0  0  0  0
   58.0644   28.3089   43.5943 H   0  0  0  0  0  0  0  0  0  0  0  0
   56.2963   28.0941   43.7995 H   0  0  0  0  0  0  0  0  0  0  0  0
   59.0030   30.4750   43.4910 H   0  0  0  0  0  0  0  0  0  0  0  0
   58.5638   32.6642   42.6720 H   0  0  0  0  0  0  0  0  0  0  0  0
   56.8643   32.5544   43.2596 H   0  0  0  0  0  0  0  0  0  0  0  0
   59.6444   34.4821   43.7200 H   0  0  0  0  0  0  0  0  0  0  0  0
   60.3011   35.6951   45.8039 H   0  0  0  0  0  0  0  0  0  0  0  0
   59.3198   35.0235   48.0002 H   0  0  0  0  0  0  0  0  0  0  0  0
   57.6710   33.1528   48.1184 H   0  0  0  0  0  0  0  0  0  0  0  0
   57.0077   31.9335   46.0402 H   0  0  0  0  0  0  0  0  0  0  0  0
   61.7553   30.2008   48.6930 H   0  0  0  0  0  0  0  0  0  0  0  0
   63.5104   31.3952   47.8901 H   0  0  0  0  0  0  0  0  0  0  0  0
   62.7273   31.0469   46.2900 H   0  0  0  0  0  0  0  0  0  0  0  0
   63.3594   33.4267   46.4786 H   0  0  0  0  0  0  0  0  0  0  0  0
   61.5631   33.2049   46.3802 H   0  0  0  0  0  0  0  0  0  0  0  0
   63.2740   34.1516   48.6736 H   0  0  0  0  0  0  0  0  0  0  0  0
   61.6408   34.7146   48.0796 H   0  0  0  0  0  0  0  0  0  0  0  0
   62.3360   32.5297   50.0267 H   0  0  0  0  0  0  0  0  0  0  0  0
   60.9934   33.7442   50.0389 H   0  0  0  0  0  0  0  0  0  0  0  0
   60.0951   31.4890   49.6549 H   0  0  0  0  0  0  0  0  0  0  0  0
   59.8930   32.5195   48.1834 H   0  0  0  0  0  0  0  0  0  0  0  0
  1  2  1  0
  2  3  1  0
  3  4  1  0
  4  5  1  0
  5  6  1  0
  6  7  2  0
  6  8  1  0
  8  9  1  0
  9 10  1  0
 10 11  2  0
 11 12  1  0
 12 13  2  0
 13 14  1  0
 14 15  2  0
  3 16  2  0
 16 17  1  0
 17 18  2  0
 18 19  1  0
 19 20  1  0
 20 21  1  0
 21 22  1  0
 22 23  1  0
 23 24  1  0
 18  2  1  0
 24 19  1  0
 15 10  1  0
  1 25  1  0
  1 26  1  0
  5 27  1  0
  5 28  1  0
  8 29  1  0
  9 30  1  0
  9 31  1  0
 11 32  1  0
 12 33  1  0
 13 34  1  0
 14 35  1  0
 15 36  1  0
 19 37  1  0
 20 38  1  0
 20 39  1  0
 21 40  1  0
 21 41  1  0
 22 42  1  0
 22 43  1  0
 23 44  1  0
 23 45  1  0
 24 46  1  0
 24 47  1  0
M  END
>  <UniqueID>  (19) 
18

>  <SMILES>  (19) 
Nn1c(SCC(=O)NCc2ccccc2)nnc1C1CCCCC1

>  <Energy>  (19) 
78.6632396219715

>  <Genealogy>  (19) 
Nn1c(SCC(=O)NCc2ccccc2)nnc1C1CCCCC1 (3D coordinates assigned)
Nn1c(SCC(=O)NCc2ccccc2)nnc1C1CCCCC1 (nonaromatic ring conformer: 78.6632396219715 kcal/mol)

>  <smiles>  (19) 
Nn1c(SCC(=O)NCc2ccccc2)nnc1C1CCCCC1

>  <score_type>  (19) 
oracle

>  <origin>  (19) 
adg

>  <m_score__min__energy>  (19) 
-8.1099999999999994

>  <m_primary>  (19) 
energy

$$$$
19:0
     RDKit          3D

 35 37  0  0  0  0  0  0  0  0999 V2000
   55.8150   29.6900   43.2110 O   0  0  0  0  0  0  0  0  0  0  0  0
   56.3460   29.7160   44.3530 C   0  0  0  0  0  0  0  0  0  0  0  0
   56.1260   28.6140   45.2440 N   0  0  0  0  0  0  0  0  0  0  0  0
   57.1670   27.8390   45.9230 C   0  0  2  0  0  0  0  0  0  0  0  0
   58.4730   27.9410   45.1180 C   0  0  0  0  0  0  0  0  0  0  0  0
   59.6280   27.0890   45.7030 C   0  0  0  0  0  0  0  0  0  0  0  0
   59.2020   26.0590   46.7710 C   0  0  0  0  0  0  0  0  0  0  0  0
   57.8310   25.4970   46.4930 C   0  0  0  0  0  0  0  0  0  0  0  0
   57.5570   24.1370   46.6970 C   0  0  0  0  0  0  0  0  0  0  0  0
   56.2730   23.6390   46.4690 C   0  0  0  0  0  0  0  0  0  0  0  0
   55.2560   24.4960   46.0440 C   0  0  0  0  0  0  0  0  0  0  0  0
   55.5150   25.8560   45.8520 C   0  0  0  0  0  0  0  0  0  0  0  0
   56.8060   26.3720   46.0820 C   0  0  0  0  0  0  0  0  0  0  0  0
   57.1360   30.8970   44.7470 C   0  0  0  0  0  0  0  0  0  0  0  0
   57.3010   31.9590   43.8450 C   0  0  0  0  0  0  0  0  0  0  0  0
   58.0570   33.0790   44.2070 C   0  0  0  0  0  0  0  0  0  0  0  0
   58.6660   33.1370   45.4650 C   0  0  0  0  0  0  0  0  0  0  0  0
   59.6970   34.6650   45.9580 Br  0  0  0  0  0  0  0  0  0  0  0  0
   58.5230   32.0700   46.3590 C   0  0  0  0  0  0  0  0  0  0  0  0
   57.7670   30.9490   45.9990 C   0  0  0  0  0  0  0  0  0  0  0  0
   57.2801   28.2623   46.9320 H   0  0  0  0  0  0  0  0  0  0  0  0
   58.2760   27.6017   44.0904 H   0  0  0  0  0  0  0  0  0  0  0  0
   58.7951   28.9921   45.1558 H   0  0  0  0  0  0  0  0  0  0  0  0
   60.1040   26.5444   44.8743 H   0  0  0  0  0  0  0  0  0  0  0  0
   60.3049   27.7938   46.2080 H   0  0  0  0  0  0  0  0  0  0  0  0
   59.9296   25.2341   46.7800 H   0  0  0  0  0  0  0  0  0  0  0  0
   59.1706   26.5699   47.7447 H   0  0  0  0  0  0  0  0  0  0  0  0
   58.3554   23.4612   47.0374 H   0  0  0  0  0  0  0  0  0  0  0  0
   56.0623   22.5706   46.6243 H   0  0  0  0  0  0  0  0  0  0  0  0
   54.2468   24.0992   45.8595 H   0  0  0  0  0  0  0  0  0  0  0  0
   54.7082   26.5260   45.5202 H   0  0  0  0  0  0  0  0  0  0  0  0
   56.8344   31.9108   42.8500 H   0  0  0  0  0  0  0  0  0  0  0  0
   58.1727   33.9151   43.5016 H   0  0  0  0  0  0  0  0  0  0  0  0
   59.0058   32.1126   47.3465 H   0  0  0  0  0  0  0  0  0  0  0  0
   57.6672   30.1065   46.6992 H   0  0  0  0  0  0  0  0  0  0  0  0
  1  2  2  0
  2  3  1  0
  3  4  1  0
  4  5  1  0
  5  6  1  0
  6  7  1  0
  7  8  1  0
  8  9  2  0
  9 10  1  0
 10 11  2  0
 11 12  1  0
 12 13  2  0
  2 14  1  0
 14 15  2  0
 15 16  1  0
 16 17  2  0
 17 18  1  0
 17 19  1  0
 19 20  2  0
 13  4  1  0
 20 14  1  0
 13  8  1  0
  4 21  1  1
  5 22  1  0
  5 23  1  0
  6 24  1  0
  6 25  1  0
  7 26  1  0
  7 27  1  0
  9 28  1  0
 10 29  1  0
 11 30  1  0
 12 31  1  0
 15 32  1  0
 16 33  1  0
 19 34  1  0
 20 35  1  0
M  CHG  1   3  -1
M  END
>  <UniqueID>  (20) 
19

>  <SMILES>  (20) 
O=C([N-][C@@H]1CCCc2ccccc21)c1ccc(Br)cc1

>  <Energy>  (20) 
48.199253669052915

>  <Genealogy>  (20) 
O=C([N-]C1CCCc2ccccc21)c1ccc(Br)cc1 (protonated)
O=C([N-][C@@H]1CCCc2ccccc21)c1ccc(Br)cc1 (chirality)
O=C([N-][C@@H]1CCCc2ccccc21)c1ccc(Br)cc1 (3D coordinates assigned)
O=C([N-][C@@H]1CCCc2ccccc21)c1ccc(Br)cc1 (nonaromatic ring conformer: 48.199253669052915 kcal/mol)

>  <smiles>  (20) 
O=C(NC1CCCc2ccccc21)c1ccc(Br)cc1

>  <score_type>  (20) 
oracle

>  <origin>  (20) 
adg

>  <m_score__min__energy>  (20) 
-9.1699999999999999

>  <m_primary>  (20) 
energy

$$$$
20:0
     RDKit          3D

 52 55  0  0  0  0  0  0  0  0999 V2000
   56.9390   25.8350   44.3220 H   0  0  0  0  0  0  0  0  0  0  0  0
   57.5780   26.4610   44.8580 N   0  0  0  0  0  0  0  0  0  0  0  0
   57.6370   27.7430   44.6740 C   0  0  0  0  0  0  0  0  0  0  0  0
   57.3260   28.3200   43.4850 N   0  0  0  0  0  0  0  0  0  0  0  0
   57.0160   27.8540   42.6020 H   0  0  0  0  0  0  0  0  0  0  0  0
   57.4680   29.6350   43.7210 C   0  0  0  0  0  0  0  0  0  0  0  0
   57.2260   30.7090   42.8750 C   0  0  0  0  0  0  0  0  0  0  0  0
   56.9172   30.5565   41.8303 H   0  0  0  0  0  0  0  0  0  0  0  0
   57.3920   32.0020   43.4090 C   0  0  0  0  0  0  0  0  0  0  0  0
   57.2171   32.8843   42.7758 H   0  0  0  0  0  0  0  0  0  0  0  0
   57.7870   32.1690   44.7710 C   0  0  0  0  0  0  0  0  0  0  0  0
   57.9050   33.4810   45.3730 N   0  0  0  0  0  0  0  0  0  0  0  0
   58.7770   33.6590   46.5030 C   0  0  0  0  0  0  0  0  0  0  0  0
   58.3660   33.2620   47.7830 C   0  0  0  0  0  0  0  0  0  0  0  0
   57.3541   32.8574   47.9323 H   0  0  0  0  0  0  0  0  0  0  0  0
   59.2360   33.3780   48.8700 C   0  0  0  0  0  0  0  0  0  0  0  0
   58.9045   33.0611   49.8698 H   0  0  0  0  0  0  0  0  0  0  0  0
   60.5260   33.8940   48.6980 C   0  0  0  0  0  0  0  0  0  0  0  0
   61.3670   33.9750   49.8170 O   0  0  0  0  0  0  0  0  0  0  0  0
   62.6510   34.5910   49.8140 C   0  0  0  0  0  0  0  0  0  0  0  0
   62.9836   34.7505   50.8503 H   0  0  0  0  0  0  0  0  0  0  0  0
   63.3691   33.9394   49.2947 H   0  0  0  0  0  0  0  0  0  0  0  0
   62.5921   35.5589   49.2947 H   0  0  0  0  0  0  0  0  0  0  0  0
   60.9350   34.3040   47.4150 C   0  0  0  0  0  0  0  0  0  0  0  0
   61.9428   34.7199   47.2684 H   0  0  0  0  0  0  0  0  0  0  0  0
   60.0660   34.1850   46.3260 C   0  0  0  0  0  0  0  0  0  0  0  0
   60.3942   34.5051   45.3261 H   0  0  0  0  0  0  0  0  0  0  0  0
   57.0370   34.5920   44.9710 C   0  0  0  0  0  0  0  0  0  0  0  0
   56.6448   35.0940   45.8678 H   0  0  0  0  0  0  0  0  0  0  0  0
   57.6152   35.3108   44.3718 H   0  0  0  0  0  0  0  0  0  0  0  0
   56.1997   34.2049   44.3718 H   0  0  0  0  0  0  0  0  0  0  0  0
   58.0100   31.0590   45.5430 N   0  0  0  0  0  0  0  0  0  0  0  0
   57.8590   29.8260   45.0050 C   0  0  0  0  0  0  0  0  0  0  0  0
   57.9870   28.6460   45.6370 N   0  0  0  0  0  0  0  0  0  0  0  0
   58.3140   28.4430   47.0510 C   0  0  0  0  0  0  0  0  0  0  0  0
   57.4581   28.7502   47.6699 H   0  0  0  0  0  0  0  0  0  0  0  0
   58.5357   27.3788   47.2196 H   0  0  0  0  0  0  0  0  0  0  0  0
   59.5190   29.2620   47.4270 C   0  0  0  0  0  0  0  0  0  0  0  0
   59.7060   29.6790   48.7530 C   0  0  0  0  0  0  0  0  0  0  0  0
   58.9855   29.3796   49.5284 H   0  0  0  0  0  0  0  0  0  0  0  0
   60.8050   30.4740   49.0930 C   0  0  0  0  0  0  0  0  0  0  0  0
   60.9484   30.7881   50.1374 H   0  0  0  0  0  0  0  0  0  0  0  0
   61.7250   30.8740   48.1150 C   0  0  0  0  0  0  0  0  0  0  0  0
   62.8090   31.6720   48.5070 O   0  0  0  0  0  0  0  0  0  0  0  0
   63.7050   32.3100   47.6030 C   0  0  0  0  0  0  0  0  0  0  0  0
   64.4722   32.8563   48.1714 H   0  0  0  0  0  0  0  0  0  0  0  0
   64.1885   31.5517   46.9696 H   0  0  0  0  0  0  0  0  0  0  0  0
   63.1466   33.0150   46.9696 H   0  0  0  0  0  0  0  0  0  0  0  0
   61.5320   30.4640   46.7820 C   0  0  0  0  0  0  0  0  0  0  0  0
   62.2457   30.7739   46.0045 H   0  0  0  0  0  0  0  0  0  0  0  0
   60.4360   29.6640   46.4430 C   0  0  0  0  0  0  0  0  0  0  0  0
   60.2917   29.3480   45.3993 H   0  0  0  0  0  0  0  0  0  0  0  0
  1  2  1  0
  2  3  2  0
  3  4  1  0
  4  5  1  0
  4  6  1  0
  6  7  2  0
  7  8  1  0
  7  9  1  0
  9 10  1  0
  9 11  2  0
 11 12  1  0
 12 13  1  0
 13 14  2  0
 14 15  1  0
 14 16  1  0
 16 17  1  0
 16 18  2  0
 18 19  1  0
 19 20  1  0
 20 21  1  0
 20 22  1  0
 20 23  1  0
 18 24  1  0
 24 25  1  0
 24 26  2  0
 26 27  1  0
 12 28  1  0
 28 29  1  0
 28 30  1  0
 28 31  1  0
 11 32  1  0
 32 33  2  0
 33 34  1  0
 34 35  1  0
 35 36  1  0
 35 37  1  0
 35 38  1  0
 38 39  2  0
 39 40  1  0
 39 41  1  0
 41 42  1  0
 41 43  2  0
 43 44  1  0
 44 45  1  0
 45 46  1  0
 45 47  1  0
 45 48  1  0
 43 49  1  0
 49 50  1  0
 49 51  2  0
 51 52  1  0
 34  3  1  0
 51 38  1  0
 33  6  1  0
 26 13  1  0
M  END
>  <UniqueID>  (21) 
20

>  <SMILES>  (21) 
[H]/N=c1/[nH]c2ccc(N(C)c3ccc(OC)cc3)nc2n1Cc1ccc(OC)cc1

>  <Energy>  (21) 
101.16033887051526

>  <Genealogy>  (21) 
[H]/N=c1/[nH]c2ccc(N(C)c3ccc(OC)cc3)nc2n1Cc1ccc(OC)cc1 (cis-trans isomerization)
[H]/N=c1/[nH]c2ccc(N(C)c3ccc(OC)cc3)nc2n1Cc1ccc(OC)cc1 (3D coordinates assigned)
[H]/N=c1/[nH]c2ccc(N(C)c3ccc(OC)cc3)nc2n1Cc1ccc(OC)cc1 (optimized conformer: 101.16033887051526 kcal/mol)

>  <smiles>  (21) 
COc1ccc(Cn2c(=N)[nH]c3ccc(N(C)c4ccc(OC)cc4)nc32)cc1

>  <score_type>  (21) 
oracle

>  <origin>  (21) 
adg

>  <m_score__min__energy>  (21) 
-7.5099999999999998

>  <m_primary>  (21) 
energy

$$$$
21:0
     RDKit          3D

 19 20  0  0  0  0  0  0  0  0999 V2000
   56.1200   28.3440   44.0940 H   0  0  0  0  0  0  0  0  0  0  0  0
   55.9270   29.2590   44.5570 N   0  0  0  0  0  0  0  0  0  0  0  0
   56.5890   30.3260   44.2450 C   0  0  0  0  0  0  0  0  0  0  0  0
   56.9180   30.8050   42.6740 S   0  0  0  0  0  0  0  0  0  0  0  0
   57.7640   32.1760   43.1670 C   0  0  0  0  0  0  0  0  0  0  0  0
   58.2390   32.9116   42.5012 H   0  0  0  0  0  0  0  0  0  0  0  0
   57.7610   32.2220   44.5660 C   0  0  0  0  0  0  0  0  0  0  0  0
   58.4120   33.3010   45.3490 C   0  0  0  0  0  0  0  0  0  0  0  0
   59.0450   34.3810   44.7070 C   0  0  0  0  0  0  0  0  0  0  0  0
   59.0598   34.4319   43.6083 H   0  0  0  0  0  0  0  0  0  0  0  0
   59.6390   35.3630   45.4380 N   0  0  0  0  0  0  0  0  0  0  0  0
   59.6400   35.3430   46.7960 C   0  0  0  0  0  0  0  0  0  0  0  0
   60.1271   36.1541   47.3571 H   0  0  0  0  0  0  0  0  0  0  0  0
   59.0240   34.2950   47.4800 C   0  0  0  0  0  0  0  0  0  0  0  0
   59.0226   34.2745   48.5798 H   0  0  0  0  0  0  0  0  0  0  0  0
   58.4090   33.2720   46.7550 C   0  0  0  0  0  0  0  0  0  0  0  0
   57.9208   32.4411   47.2853 H   0  0  0  0  0  0  0  0  0  0  0  0
   57.1030   31.1820   45.1550 N   0  0  0  0  0  0  0  0  0  0  0  0
   57.0200   31.0410   46.1860 H   0  0  0  0  0  0  0  0  0  0  0  0
  1  2  1  0
  2  3  2  0
  3  4  1  0
  4  5  1  0
  5  6  1  0
  5  7  2  0
  7  8  1  0
  8  9  2  0
  9 10  1  0
  9 11  1  0
 11 12  2  0
 12 13  1  0
 12 14  1  0
 14 15  1  0
 14 16  2  0
 16 17  1  0
  7 18  1  0
 18 19  1  0
 18  3  1  0
 16  8  1  0
M  END
>  <UniqueID>  (22) 
21

>  <SMILES>  (22) 
[H]/N=c1\[nH]c(-c2cccnc2)cs1

>  <Energy>  (22) 
53.62329379189832

>  <Genealogy>  (22) 
[H]/N=c1\[nH]c(-c2cccnc2)cs1 (cis-trans isomerization)
[H]/N=c1\[nH]c(-c2cccnc2)cs1 (3D coordinates assigned)
[H]/N=c1\[nH]c(-c2cccnc2)cs1 (optimized conformer: 53.62329379189832 kcal/mol)

>  <smiles>  (22) 
N=c1[nH]c(-c2cccnc2)cs1

>  <score_type>  (22) 
oracle

>  <origin>  (22) 
adg

>  <m_score__min__energy>  (22) 
-5.5800000000000001

>  <m_primary>  (22) 
energy

$$$$
22:0
     RDKit          3D

 46 48  0  0  0  0  0  0  0  0999 V2000
   63.7430   30.2060   52.3340 O   0  0  0  0  0  0  0  0  0  0  0  0
   64.5170   30.9980   51.7320 C   0  0  0  0  0  0  0  0  0  0  0  0
   64.0040   31.9540   50.7890 N   0  0  0  0  0  0  0  0  0  0  0  0
   64.9290   32.8810   50.1240 C   0  0  0  0  0  0  0  0  0  0  0  0
   64.5410   33.0570   48.6500 C   0  0  0  0  0  0  0  0  0  0  0  0
   63.0890   33.2380   48.4810 N   0  0  0  0  0  0  0  0  0  0  0  0
   62.5750   33.5810   47.1770 C   0  0  0  0  0  0  0  0  0  0  0  0
   63.3040   34.2220   46.3700 O   0  0  0  0  0  0  0  0  0  0  0  0
   61.2100   33.2020   46.7540 C   0  0  0  0  0  0  0  0  0  0  0  0
   60.7120   31.9230   47.0490 C   0  0  0  0  0  0  0  0  0  0  0  0
   59.4350   31.5490   46.6240 C   0  0  0  0  0  0  0  0  0  0  0  0
   58.6270   32.4570   45.9150 C   0  0  0  0  0  0  0  0  0  0  0  0
   57.3260   32.1010   45.4300 N   0  0  0  0  0  0  0  0  0  0  0  0
   57.0120   30.8830   44.2360 S   0  0  0  0  0  0  0  0  0  0  0  0
   55.5420   30.8570   43.9310 O   0  0  0  0  0  0  0  0  0  0  0  0
   57.7560   31.2260   42.9770 O   0  0  0  0  0  0  0  0  0  0  0  0
   57.5050   29.3030   44.8400 C   0  0  0  0  0  0  0  0  0  0  0  0
   58.8590   28.9500   44.8400 C   0  0  0  0  0  0  0  0  0  0  0  0
   59.2580   27.6990   45.3140 C   0  0  0  0  0  0  0  0  0  0  0  0
   58.3070   26.7900   45.7880 C   0  0  0  0  0  0  0  0  0  0  0  0
   56.9440   27.1280   45.7960 C   0  0  0  0  0  0  0  0  0  0  0  0
   55.9390   26.1670   46.3040 C   0  0  0  0  0  0  0  0  0  0  0  0
   54.7230   26.2830   45.9910 O   0  0  0  0  0  0  0  0  0  0  0  0
   56.3210   25.1260   47.1410 O   0  0  0  0  0  0  0  0  0  0  0  0
   56.5520   28.3940   45.3210 C   0  0  0  0  0  0  0  0  0  0  0  0
   59.1080   33.7460   45.6650 C   0  0  0  0  0  0  0  0  0  0  0  0
   60.3910   34.1160   46.0760 C   0  0  0  0  0  0  0  0  0  0  0  0
   62.2170   33.2530   49.6640 C   0  0  0  0  0  0  0  0  0  0  0  0
   62.5550   32.0710   50.5750 C   0  0  0  0  0  0  0  0  0  0  0  0
   65.5981   30.9571   51.9306 H   0  0  0  0  0  0  0  0  0  0  0  0
   64.8888   33.8576   50.6286 H   0  0  0  0  0  0  0  0  0  0  0  0
   65.9477   32.4695   50.1785 H   0  0  0  0  0  0  0  0  0  0  0  0
   65.0584   33.9412   48.2494 H   0  0  0  0  0  0  0  0  0  0  0  0
   64.8357   32.1456   48.1092 H   0  0  0  0  0  0  0  0  0  0  0  0
   61.3301   31.2123   47.6173 H   0  0  0  0  0  0  0  0  0  0  0  0
   59.0590   30.5391   46.8448 H   0  0  0  0  0  0  0  0  0  0  0  0
   59.6110   29.6601   44.4655 H   0  0  0  0  0  0  0  0  0  0  0  0
   60.3240   27.4274   45.3146 H   0  0  0  0  0  0  0  0  0  0  0  0
   58.6283   25.8047   46.1567 H   0  0  0  0  0  0  0  0  0  0  0  0
   55.4879   28.6727   45.3273 H   0  0  0  0  0  0  0  0  0  0  0  0
   58.4715   34.4741   45.1408 H   0  0  0  0  0  0  0  0  0  0  0  0
   60.7609   35.1305   45.8664 H   0  0  0  0  0  0  0  0  0  0  0  0
   62.3665   34.1930   50.2155 H   0  0  0  0  0  0  0  0  0  0  0  0
   61.1682   33.1737   49.3419 H   0  0  0  0  0  0  0  0  0  0  0  0
   62.0606   32.2158   51.5469 H   0  0  0  0  0  0  0  0  0  0  0  0
   62.2019   31.1490   50.0899 H   0  0  0  0  0  0  0  0  0  0  0  0
  1  2  2  0
  2  3  1  0
  3  4  1  0
  4  5  1  0
  5  6  1  0
  6  7  1  0
  7  8  2  0
  7  9  1  0
  9 10  2  0
 10 11  1  0
 11 12  2  0
 12 13  1  0
 13 14  1  0
 14 15  2  0
 14 16  2  0
 14 17  1  0
 17 18  2  0
 18 19  1  0
 19 20  2  0
 20 21  1  0
 21 22  1  0
 22 23  2  0
 22 24  1  0
 21 25  2  0
 12 26  1  0
 26 27  2  0
  6 28  1  0
 28 29  1  0
 29  3  1  0
 27  9  1  0
 25 17  1  0
  2 30  1  0
  4 31  1  0
  4 32  1  0
  5 33  1  0
  5 34  1  0
 10 35  1  0
 11 36  1  0
 18 37  1  0
 19 38  1  0
 20 39  1  0
 25 40  1  0
 26 41  1  0
 27 42  1  0
 28 43  1  0
 28 44  1  0
 29 45  1  0
 29 46  1  0
M  CHG  2  13  -1  24  -1
M  END
>  <UniqueID>  (23) 
22

>  <SMILES>  (23) 
O=CN1CCN(C(=O)c2ccc([N-]S(=O)(=O)c3cccc(C(=O)[O-])c3)cc2)CC1

>  <Energy>  (23) 
55.699327354350835

>  <Genealogy>  (23) 
O=CN1CCN(C(=O)c2ccc([N-]S(=O)(=O)c3cccc(C(=O)[O-])c3)cc2)CC1 (protonated)
O=CN1CCN(C(=O)c2ccc([N-]S(=O)(=O)c3cccc(C(=O)[O-])c3)cc2)CC1 (3D coordinates assigned)
O=CN1CCN(C(=O)c2ccc([N-]S(=O)(=O)c3cccc(C(=O)[O-])c3)cc2)CC1 (nonaromatic ring conformer: 55.699327354350835 kcal/mol)

>  <smiles>  (23) 
O=CN1CCN(C(=O)c2ccc(NS(=O)(=O)c3cccc(C(=O)O)c3)cc2)CC1

>  <score_type>  (23) 
oracle

>  <origin>  (23) 
adg

>  <m_score__min__energy>  (23) 
-12.99

>  <m_primary>  (23) 
energy

$$$$
23:0
     RDKit          3D

 39 41  0  0  0  0  0  0  0  0999 V2000
   56.5122   29.5799   41.5409 H   0  0  0  0  0  0  0  0  0  0  0  0
   56.6690   29.7170   42.6210 C   0  0  0  0  0  0  0  0  0  0  0  0
   56.5110   30.9430   43.1790 N   0  0  0  0  0  0  0  0  0  0  0  0
   56.6990   31.1380   44.5120 C   0  0  0  0  0  0  0  0  0  0  0  0
   56.5490   32.3120   45.0530 N   0  0  0  0  0  0  0  0  0  0  0  0
   57.5950   33.2910   45.3790 C   0  0  0  0  0  0  0  0  0  0  0  0
   57.1011   34.2637   45.5201 H   0  0  0  0  0  0  0  0  0  0  0  0
   58.5920   33.4590   44.2260 C   0  0  0  0  0  0  0  0  0  0  0  0
   59.5993   33.6287   44.6341 H   0  0  0  0  0  0  0  0  0  0  0  0
   58.5952   32.5487   43.6084 H   0  0  0  0  0  0  0  0  0  0  0  0
   58.2967   34.3200   43.6084 H   0  0  0  0  0  0  0  0  0  0  0  0
   58.2970   32.9490   46.6990 C   0  0  0  0  0  0  0  0  0  0  0  0
   57.6624   33.2582   47.5426 H   0  0  0  0  0  0  0  0  0  0  0  0
   58.4727   31.8643   46.7506 H   0  0  0  0  0  0  0  0  0  0  0  0
   59.2594   33.4792   46.7506 H   0  0  0  0  0  0  0  0  0  0  0  0
   57.0530   30.0880   45.2990 N   0  0  0  0  0  0  0  0  0  0  0  0
   57.2250   28.8380   44.7900 C   0  0  0  0  0  0  0  0  0  0  0  0
   57.6080   27.7550   45.6610 N   0  0  0  0  0  0  0  0  0  0  0  0
   56.7480   26.7620   46.1900 C   0  0  0  0  0  0  0  0  0  0  0  0
   55.5030   26.7350   46.0040 O   0  0  0  0  0  0  0  0  0  0  0  0
   57.4200   25.8160   46.9270 O   0  0  0  0  0  0  0  0  0  0  0  0
   58.8110   26.1100   46.9330 C   0  0  0  0  0  0  0  0  0  0  0  0
   59.1678   26.2587   47.9629 H   0  0  0  0  0  0  0  0  0  0  0  0
   59.4029   25.2883   46.5035 H   0  0  0  0  0  0  0  0  0  0  0  0
   58.9640   27.4220   46.1100 C   0  0  2  0  0  0  0  0  0  0  0  0
   59.6559   27.2911   45.2650 H   0  0  0  0  0  0  0  0  0  0  0  0
   59.5480   28.5380   46.9520 C   0  0  0  0  0  0  0  0  0  0  0  0
   59.2680   28.6000   48.3290 C   0  0  0  0  0  0  0  0  0  0  0  0
   58.6330   27.8313   48.7936 H   0  0  0  0  0  0  0  0  0  0  0  0
   59.7930   29.6340   49.1100 C   0  0  0  0  0  0  0  0  0  0  0  0
   59.5755   29.6726   50.1876 H   0  0  0  0  0  0  0  0  0  0  0  0
   60.5930   30.6180   48.5250 C   0  0  0  0  0  0  0  0  0  0  0  0
   61.0076   31.4282   49.1427 H   0  0  0  0  0  0  0  0  0  0  0  0
   60.8670   30.5740   47.1560 C   0  0  0  0  0  0  0  0  0  0  0  0
   61.4945   31.3515   46.6958 H   0  0  0  0  0  0  0  0  0  0  0  0
   60.3440   29.5420   46.3700 C   0  0  0  0  0  0  0  0  0  0  0  0
   60.5561   29.5150   45.2910 H   0  0  0  0  0  0  0  0  0  0  0  0
   57.0300   28.6310   43.4160 C   0  0  0  0  0  0  0  0  0  0  0  0
   57.1595   27.6315   42.9753 H   0  0  0  0  0  0  0  0  0  0  0  0
  1  2  1  0
  2  3  1  0
  3  4  1  0
  4  5  2  0
  5  6  1  0
  6  7  1  0
  6  8  1  0
  8  9  1  0
  8 10  1  0
  8 11  1  0
  6 12  1  0
 12 13  1  0
 12 14  1  0
 12 15  1  0
  4 16  1  0
 16 17  2  0
 17 18  1  0
 18 19  1  0
 19 20  2  0
 19 21  1  0
 21 22  1  0
 22 23  1  0
 22 24  1  0
 22 25  1  0
 25 26  1  6
 25 27  1  0
 27 28  2  0
 28 29  1  0
 28 30  1  0
 30 31  1  0
 30 32  2  0
 32 33  1  0
 32 34  1  0
 34 35  1  0
 34 36  2  0
 36 37  1  0
 17 38  1  0
 38 39  1  0
 38  2  2  0
 25 18  1  0
 36 27  1  0
M  CHG  1   3  -1
M  END
>  <UniqueID>  (24) 
23

>  <SMILES>  (24) 
CC(C)/N=c1/nc(N2C(=O)OC[C@@H]2c2ccccc2)cc[n-]1

>  <Energy>  (24) 
55.507544653128434

>  <Genealogy>  (24) 
CC(C)N=c1nc(N2C(=O)OCC2c2ccccc2)cc[n-]1 (protonated)
CC(C)N=c1nc(N2C(=O)OC[C@@H]2c2ccccc2)cc[n-]1 (chirality)
CC(C)/N=c1/nc(N2C(=O)OC[C@@H]2c2ccccc2)cc[n-]1 (cis-trans isomerization)
CC(C)/N=c1/nc(N2C(=O)OC[C@@H]2c2ccccc2)cc[n-]1 (3D coordinates assigned)
CC(C)/N=c1/nc(N2C(=O)OC[C@@H]2c2ccccc2)cc[n-]1 (nonaromatic ring conformer: 55.507544653128434 kcal/mol)

>  <smiles>  (24) 
CC(C)N=c1nc(N2C(=O)OCC2c2ccccc2)cc[nH]1

>  <score_type>  (24) 
oracle

>  <origin>  (24) 
adg

>  <m_score__min__energy>  (24) 
-8.5199999999999996

>  <m_primary>  (24) 
energy

$$$$
24:0
     RDKit          3D

 36 37  0  0  0  0  0  0  0  0999 V2000
   58.1660   21.8930   44.7950 C   0  0  0  0  0  0  0  0  0  0  0  0
   57.4760   22.9650   46.0370 S   0  0  0  0  0  0  0  0  0  0  0  0
   56.0990   23.3790   45.6050 O   0  0  0  0  0  0  0  0  0  0  0  0
   57.3740   22.2460   47.3540 O   0  0  0  0  0  0  0  0  0  0  0  0
   58.4560   24.3850   46.2120 N   0  0  0  0  0  0  0  0  0  0  0  0
   58.1160   25.7020   45.7560 C   0  0  0  0  0  0  0  0  0  0  0  0
   58.1380   26.0560   44.3960 C   0  0  0  0  0  0  0  0  0  0  0  0
   57.7970   27.3520   43.9990 C   0  0  0  0  0  0  0  0  0  0  0  0
   57.4360   28.3220   44.9520 C   0  0  0  0  0  0  0  0  0  0  0  0
   57.0730   29.6910   44.5130 C   0  0  0  0  0  0  0  0  0  0  0  0
   55.9370   30.1540   44.8130 O   0  0  0  0  0  0  0  0  0  0  0  0
   57.9830   30.4910   43.7400 N   0  0  0  0  0  0  0  0  0  0  0  0
   57.6820   31.8690   43.3620 C   0  0  0  0  0  0  0  0  0  0  0  0
   58.0180   32.8060   44.4900 C   0  0  0  0  0  0  0  0  0  0  0  0
   57.4280   32.6240   45.7520 C   0  0  0  0  0  0  0  0  0  0  0  0
   57.7510   33.4800   46.8100 C   0  0  0  0  0  0  0  0  0  0  0  0
   58.6660   34.5180   46.6170 C   0  0  0  0  0  0  0  0  0  0  0  0
   59.2600   34.7030   45.3660 C   0  0  0  0  0  0  0  0  0  0  0  0
   58.9400   33.8500   44.3040 C   0  0  0  0  0  0  0  0  0  0  0  0
   57.4060   27.9590   46.3100 C   0  0  0  0  0  0  0  0  0  0  0  0
   57.7470   26.6620   46.7050 C   0  0  0  0  0  0  0  0  0  0  0  0
   58.6998   21.0636   45.2820 H   0  0  0  0  0  0  0  0  0  0  0  0
   57.3571   21.4903   44.1677 H   0  0  0  0  0  0  0  0  0  0  0  0
   58.8675   22.4625   44.1677 H   0  0  0  0  0  0  0  0  0  0  0  0
   58.4249   25.3097   43.6406 H   0  0  0  0  0  0  0  0  0  0  0  0
   57.8110   27.6161   42.9313 H   0  0  0  0  0  0  0  0  0  0  0  0
   58.8640   30.0690   43.3710 H   0  0  0  0  0  0  0  0  0  0  0  0
   58.2754   32.1400   42.4763 H   0  0  0  0  0  0  0  0  0  0  0  0
   56.6085   31.9515   43.1365 H   0  0  0  0  0  0  0  0  0  0  0  0
   56.7097   31.8057   45.9085 H   0  0  0  0  0  0  0  0  0  0  0  0
   57.2839   33.3357   47.7954 H   0  0  0  0  0  0  0  0  0  0  0  0
   58.9189   35.1899   47.4504 H   0  0  0  0  0  0  0  0  0  0  0  0
   59.9804   35.5206   45.2157 H   0  0  0  0  0  0  0  0  0  0  0  0
   59.4114   33.9970   43.3210 H   0  0  0  0  0  0  0  0  0  0  0  0
   57.1121   28.7009   47.0671 H   0  0  0  0  0  0  0  0  0  0  0  0
   57.7251   26.3936   47.7715 H   0  0  0  0  0  0  0  0  0  0  0  0
  1  2  1  0
  2  3  2  0
  2  4  2  0
  2  5  1  0
  5  6  1  0
  6  7  2  0
  7  8  1  0
  8  9  2  0
  9 10  1  0
 10 11  2  0
 10 12  1  0
 12 13  1  0
 13 14  1  0
 14 15  2  0
 15 16  1  0
 16 17  2  0
 17 18  1  0
 18 19  2  0
  9 20  1  0
 20 21  2  0
 21  6  1  0
 19 14  1  0
  1 22  1  0
  1 23  1  0
  1 24  1  0
  7 25  1  0
  8 26  1  0
 12 27  1  0
 13 28  1  0
 13 29  1  0
 15 30  1  0
 16 31  1  0
 17 32  1  0
 18 33  1  0
 19 34  1  0
 20 35  1  0
 21 36  1  0
M  CHG  1   5  -1
M  END
>  <UniqueID>  (25) 
24

>  <SMILES>  (25) 
CS(=O)(=O)[N-]c1ccc(C(=O)NCc2ccccc2)cc1

>  <Energy>  (25) 
35.54575596757319

>  <Genealogy>  (25) 
CS(=O)(=O)[N-]c1ccc(C(=O)NCc2ccccc2)cc1 (protonated)
CS(=O)(=O)[N-]c1ccc(C(=O)NCc2ccccc2)cc1 (3D coordinates assigned)
CS(=O)(=O)[N-]c1ccc(C(=O)NCc2ccccc2)cc1 (optimized conformer: 35.54575596757319 kcal/mol)

>  <smiles>  (25) 
CS(=O)(=O)Nc1ccc(C(=O)NCc2ccccc2)cc1

>  <score_type>  (25) 
oracle

>  <origin>  (25) 
adg

>  <m_score__min__energy>  (25) 
-9.1899999999999995

>  <m_primary>  (25) 
energy

$$$$
25:0
     RDKit          3D

 55 58  0  0  0  0  0  0  0  0999 V2000
   57.2929   33.5477   42.7307 H   0  0  0  0  0  0  0  0  0  0  0  0
   57.7450   33.1020   43.6290 C   0  0  0  0  0  0  0  0  0  0  0  0
   58.3390   33.9000   44.5530 N   0  0  0  0  0  0  0  0  0  0  0  0
   58.8910   33.3820   45.6780 C   0  0  0  0  0  0  0  0  0  0  0  0
   59.4810   34.1790   46.5210 N   0  0  0  0  0  0  0  0  0  0  0  0
   60.5820   33.8550   47.3880 C   0  0  0  0  0  0  0  0  0  0  0  0
   60.3700   33.8520   48.7700 C   0  0  0  0  0  0  0  0  0  0  0  0
   59.3794   34.1142   49.1699 H   0  0  0  0  0  0  0  0  0  0  0  0
   61.4050   33.5190   49.6480 C   0  0  0  0  0  0  0  0  0  0  0  0
   61.2283   33.5409   50.7335 H   0  0  0  0  0  0  0  0  0  0  0  0
   62.6710   33.1560   49.1540 C   0  0  0  0  0  0  0  0  0  0  0  0
   63.7680   32.8150   50.0930 C   0  0  0  0  0  0  0  0  0  0  0  0
   63.5790   32.9280   51.3350 O   0  0  0  0  0  0  0  0  0  0  0  0
   65.0250   32.3140   49.6070 N   0  0  0  0  0  0  0  0  0  0  0  0
   65.0280   31.7890   48.7040 H   0  0  0  0  0  0  0  0  0  0  0  0
   66.2490   32.3590   50.3610 C   0  0  0  0  0  0  0  0  0  0  0  0
   66.5860   31.3420   51.2750 C   0  0  0  0  0  0  0  0  0  0  0  0
   65.9142   30.4814   51.4094 H   0  0  0  0  0  0  0  0  0  0  0  0
   67.7710   31.4220   52.0120 C   0  0  0  0  0  0  0  0  0  0  0  0
   68.0337   30.6198   52.7172 H   0  0  0  0  0  0  0  0  0  0  0  0
   68.6230   32.5190   51.8550 C   0  0  0  0  0  0  0  0  0  0  0  0
   69.5589   32.5759   52.4302 H   0  0  0  0  0  0  0  0  0  0  0  0
   68.2850   33.5430   50.9670 C   0  0  0  0  0  0  0  0  0  0  0  0
   69.1060   34.6130   50.8240 F   0  0  0  0  0  0  0  0  0  0  0  0
   67.1000   33.4670   50.2280 C   0  0  0  0  0  0  0  0  0  0  0  0
   66.8333   34.2811   49.5380 H   0  0  0  0  0  0  0  0  0  0  0  0
   62.8760   33.1350   47.7630 C   0  0  0  0  0  0  0  0  0  0  0  0
   63.8604   32.8537   47.3607 H   0  0  0  0  0  0  0  0  0  0  0  0
   61.8380   33.4690   46.8870 C   0  0  0  0  0  0  0  0  0  0  0  0
   62.0050   33.4295   45.8005 H   0  0  0  0  0  0  0  0  0  0  0  0
   58.8540   32.0380   45.8850 N   0  0  0  0  0  0  0  0  0  0  0  0
   58.2590   31.1910   45.0030 C   0  0  0  0  0  0  0  0  0  0  0  0
   58.2430   29.7490   45.3310 C   0  0  0  0  0  0  0  0  0  0  0  0
   57.0470   29.0270   45.2270 C   0  0  0  0  0  0  0  0  0  0  0  0
   56.1230   29.5413   44.9243 H   0  0  0  0  0  0  0  0  0  0  0  0
   57.0200   27.6590   45.5050 C   0  0  0  0  0  0  0  0  0  0  0  0
   56.0721   27.1059   45.4302 H   0  0  0  0  0  0  0  0  0  0  0  0
   58.1950   26.9820   45.8800 C   0  0  0  0  0  0  0  0  0  0  0  0
   58.2060   25.6070   46.1720 O   0  0  0  0  0  0  0  0  0  0  0  0
   57.1860   24.9010   46.8740 C   0  0  0  0  0  0  0  0  0  0  0  0
   57.4710   24.9270   48.2260 F   0  0  0  0  0  0  0  0  0  0  0  0
   57.1400   23.5840   46.4550 F   0  0  0  0  0  0  0  0  0  0  0  0
   55.9580   25.5070   46.6670 F   0  0  0  0  0  0  0  0  0  0  0  0
   59.4050   27.7000   45.9640 C   0  0  0  0  0  0  0  0  0  0  0  0
   60.6750   26.9950   46.3500 C   0  0  0  0  0  0  0  0  0  0  0  0
   60.7520   26.9523   47.4465 H   0  0  0  0  0  0  0  0  0  0  0  0
   60.6654   25.9731   45.9430 H   0  0  0  0  0  0  0  0  0  0  0  0
   61.5372   27.5436   45.9430 H   0  0  0  0  0  0  0  0  0  0  0  0
   59.4230   29.0760   45.6820 C   0  0  0  0  0  0  0  0  0  0  0  0
   60.3711   29.6311   45.7369 H   0  0  0  0  0  0  0  0  0  0  0  0
   57.7050   31.7130   43.8140 C   0  0  0  0  0  0  0  0  0  0  0  0
   57.0800   30.8450   42.7530 C   0  0  0  0  0  0  0  0  0  0  0  0
   56.5011   30.0410   43.2311 H   0  0  0  0  0  0  0  0  0  0  0  0
   56.4124   31.4549   42.1266 H   0  0  0  0  0  0  0  0  0  0  0  0
   57.8701   30.4053   42.1266 H   0  0  0  0  0  0  0  0  0  0  0  0
  1  2  1  0
  2  3  1  0
  3  4  1  0
  4  5  2  0
  5  6  1  0
  6  7  2  0
  7  8  1  0
  7  9  1  0
  9 10  1  0
  9 11  2  0
 11 12  1  0
 12 13  2  0
 12 14  1  0
 14 15  1  0
 14 16  1  0
 16 17  2  0
 17 18  1  0
 17 19  1  0
 19 20  1  0
 19 21  2  0
 21 22  1  0
 21 23  1  0
 23 24  1  0
 23 25  2  0
 25 26  1  0
 11 27  1  0
 27 28  1  0
 27 29  2  0
 29 30  1  0
  4 31  1  0
 31 32  2  0
 32 33  1  0
 33 34  2  0
 34 35  1  0
 34 36  1  0
 36 37  1  0
 36 38  2  0
 38 39  1  0
 39 40  1  0
 40 41  1  0
 40 42  1  0
 40 43  1  0
 38 44  1  0
 44 45  1  0
 45 46  1  0
 45 47  1  0
 45 48  1  0
 44 49  2  0
 49 50  1  0
 32 51  1  0
 51 52  1  0
 52 53  1  0
 52 54  1  0
 52 55  1  0
 51  2  2  0
 29  6  1  0
 49 33  1  0
 25 16  1  0
M  CHG  1   3  -1
M  END
>  <UniqueID>  (26) 
25

>  <SMILES>  (26) 
Cc1cc(-c2n/c(=N\c3ccc(C(=O)Nc4cccc(F)c4)cc3)[n-]cc2C)ccc1OC(F)(F)F

>  <Energy>  (26) 
78.68238175096108

>  <Genealogy>  (26) 
Cc1cc(-c2nc(=Nc3ccc(C(=O)Nc4cccc(F)c4)cc3)[n-]cc2C)ccc1OC(F)(F)F (protonated)
Cc1cc(-c2n/c(=N\c3ccc(C(=O)Nc4cccc(F)c4)cc3)[n-]cc2C)ccc1OC(F)(F)F (cis-trans isomerization)
Cc1cc(-c2n/c(=N\c3ccc(C(=O)Nc4cccc(F)c4)cc3)[n-]cc2C)ccc1OC(F)(F)F (3D coordinates assigned)
Cc1cc(-c2n/c(=N\c3ccc(C(=O)Nc4cccc(F)c4)cc3)[n-]cc2C)ccc1OC(F)(F)F (optimized conformer: 78.68238175096108 kcal/mol)

>  <smiles>  (26) 
Cc1cc(-c2nc(=Nc3ccc(C(=O)Nc4cccc(F)c4)cc3)[nH]cc2C)ccc1OC(F)(F)F

>  <score_type>  (26) 
oracle

>  <origin>  (26) 
adg

>  <m_score__min__energy>  (26) 
-9.5099999999999998

>  <m_primary>  (26) 
energy

$$$$
26:0
     RDKit          3D

 33 34  0  0  0  0  0  0  0  0999 V2000
   58.7860   26.7570   47.1030 C   0  0  0  0  0  0  0  0  0  0  0  0
   58.5840   26.2800   45.8720 C   0  0  0  0  0  0  0  0  0  0  0  0
   57.3870   26.6810   45.0640 C   0  0  0  0  0  0  0  0  0  0  0  0
   56.7820   27.8750   45.6410 N   0  0  0  0  0  0  0  0  0  0  0  0
   56.3750   29.0280   44.8940 C   0  0  0  0  0  0  0  0  0  0  0  0
   55.1540   29.3420   44.8870 O   0  0  0  0  0  0  0  0  0  0  0  0
   57.3500   29.8260   44.0650 C   0  0  0  0  0  0  0  0  0  0  0  0
   57.8270   31.0520   44.8050 C   0  0  0  0  0  0  0  0  0  0  0  0
   57.1670   32.2200   44.5900 N   0  0  0  0  0  0  0  0  0  0  0  0
   57.4960   33.3620   45.1980 N   0  0  0  0  0  0  0  0  0  0  0  0
   56.7190   34.5640   44.8910 C   0  0  0  0  0  0  0  0  0  0  0  0
   58.5340   33.4080   46.0850 C   0  0  0  0  0  0  0  0  0  0  0  0
   58.8350   34.4980   46.6510 O   0  0  0  0  0  0  0  0  0  0  0  0
   59.2610   32.2390   46.3670 C   0  0  0  0  0  0  0  0  0  0  0  0
   60.3330   32.2470   47.2810 C   0  0  0  0  0  0  0  0  0  0  0  0
   61.0390   31.0730   47.5520 C   0  0  0  0  0  0  0  0  0  0  0  0
   60.6870   29.8830   46.9170 C   0  0  0  0  0  0  0  0  0  0  0  0
   59.6280   29.8570   46.0080 C   0  0  0  0  0  0  0  0  0  0  0  0
   58.9040   31.0320   45.7190 C   0  0  0  0  0  0  0  0  0  0  0  0
   59.6730   26.4463   47.6745 H   0  0  0  0  0  0  0  0  0  0  0  0
   58.0654   27.4606   47.5453 H   0  0  0  0  0  0  0  0  0  0  0  0
   59.3124   25.5771   45.4415 H   0  0  0  0  0  0  0  0  0  0  0  0
   57.6978   26.8918   44.0301 H   0  0  0  0  0  0  0  0  0  0  0  0
   56.6529   25.8618   45.0695 H   0  0  0  0  0  0  0  0  0  0  0  0
   58.2170   29.1932   43.8243 H   0  0  0  0  0  0  0  0  0  0  0  0
   56.8385   30.1524   43.1475 H   0  0  0  0  0  0  0  0  0  0  0  0
   56.4063   35.0477   45.8281 H   0  0  0  0  0  0  0  0  0  0  0  0
   57.3377   35.2613   44.3071 H   0  0  0  0  0  0  0  0  0  0  0  0
   55.8291   34.2862   44.3071 H   0  0  0  0  0  0  0  0  0  0  0  0
   60.6156   33.1835   47.7841 H   0  0  0  0  0  0  0  0  0  0  0  0
   61.8742   31.0873   48.2677 H   0  0  0  0  0  0  0  0  0  0  0  0
   61.2461   28.9607   47.1331 H   0  0  0  0  0  0  0  0  0  0  0  0
   59.3562   28.9128   45.5134 H   0  0  0  0  0  0  0  0  0  0  0  0
  1  2  2  0
  2  3  1  0
  3  4  1  0
  4  5  1  0
  5  6  2  0
  5  7  1  0
  7  8  1  0
  8  9  2  0
  9 10  1  0
 10 11  1  0
 10 12  1  0
 12 13  2  0
 12 14  1  0
 14 15  2  0
 15 16  1  0
 16 17  2  0
 17 18  1  0
 18 19  2  0
 19  8  1  0
 19 14  1  0
  1 20  1  0
  1 21  1  0
  2 22  1  0
  3 23  1  0
  3 24  1  0
  7 25  1  0
  7 26  1  0
 11 27  1  0
 11 28  1  0
 11 29  1  0
 15 30  1  0
 16 31  1  0
 17 32  1  0
 18 33  1  0
M  CHG  1   4  -1
M  END
>  <UniqueID>  (27) 
26

>  <SMILES>  (27) 
C=CC[N-]C(=O)Cc1nn(C)c(=O)c2ccccc12

>  <Energy>  (27) 
34.64346144207581

>  <Genealogy>  (27) 
C=CC[N-]C(=O)Cc1nn(C)c(=O)c2ccccc12 (protonated)
C=CC[N-]C(=O)Cc1nn(C)c(=O)c2ccccc12 (3D coordinates assigned)
C=CC[N-]C(=O)Cc1nn(C)c(=O)c2ccccc12 (optimized conformer: 34.64346144207581 kcal/mol)

>  <smiles>  (27) 
C=CCNC(=O)Cc1nn(C)c(=O)c2ccccc12

>  <score_type>  (27) 
oracle

>  <origin>  (27) 
adg

>  <m_score__min__energy>  (27) 
-8.4499999999999993

>  <m_primary>  (27) 
energy

$$$$
27:0
     RDKit          3D

 47 50  0  0  0  0  0  0  0  0999 V2000
   61.1930   30.0820   48.8390 O   0  0  0  0  0  0  0  0  0  0  0  0
   61.8500   31.2040   48.3320 C   0  0  0  0  0  0  0  0  0  0  0  0
   63.0620   31.5860   48.9180 C   0  0  0  0  0  0  0  0  0  0  0  0
   63.7760   32.6800   48.4220 C   0  0  0  0  0  0  0  0  0  0  0  0
   63.2790   33.4040   47.3370 C   0  0  0  0  0  0  0  0  0  0  0  0
   62.0650   33.0410   46.7500 C   0  0  0  0  0  0  0  0  0  0  0  0
   61.3390   31.9410   47.2370 C   0  0  0  0  0  0  0  0  0  0  0  0
   60.0390   31.6040   46.6180 C   0  0  0  0  0  0  0  0  0  0  0  0
   59.8530   30.3220   46.0820 C   0  0  0  0  0  0  0  0  0  0  0  0
   58.6200   29.9750   45.5030 C   0  0  0  0  0  0  0  0  0  0  0  0
   58.3980   28.6640   44.9390 N   0  0  0  0  0  0  0  0  0  0  0  0
   58.9040   27.4720   45.6300 C   0  0  0  0  0  0  0  0  0  0  0  0
   57.9850   26.2770   45.3450 C   0  0  0  0  0  0  0  0  0  0  0  0
   57.7870   26.0170   43.9030 N   0  0  0  0  0  0  0  0  0  0  0  0
   58.1220   27.1420   43.0130 C   0  0  0  0  0  0  0  0  0  0  0  0
   57.7620   28.5020   43.6240 C   0  0  0  0  0  0  0  0  0  0  0  0
   57.6200   30.8990   45.4740 N   0  0  0  0  0  0  0  0  0  0  0  0
   57.7680   32.1470   45.9880 C   0  0  0  0  0  0  0  0  0  0  0  0
   58.9800   32.5320   46.5690 C   0  0  0  0  0  0  0  0  0  0  0  0
   59.1340   34.2050   47.2180 S   0  0  0  0  0  0  0  0  0  0  0  0
   59.4070   33.6450   48.9000 C   0  0  0  0  0  0  0  0  0  0  0  0
   60.4330   34.2040   49.6720 C   0  0  0  0  0  0  0  0  0  0  0  0
   60.6480   33.7570   50.9790 C   0  0  0  0  0  0  0  0  0  0  0  0
   59.8340   32.7580   51.5210 C   0  0  0  0  0  0  0  0  0  0  0  0
   58.7990   32.2090   50.7570 C   0  0  0  0  0  0  0  0  0  0  0  0
   58.5820   32.6540   49.4500 C   0  0  0  0  0  0  0  0  0  0  0  0
   61.5430   29.5490   49.6260 H   0  0  0  0  0  0  0  0  0  0  0  0
   63.4557   31.0208   49.7756 H   0  0  0  0  0  0  0  0  0  0  0  0
   64.7298   32.9707   48.8866 H   0  0  0  0  0  0  0  0  0  0  0  0
   63.8444   34.2617   46.9438 H   0  0  0  0  0  0  0  0  0  0  0  0
   61.6744   33.6203   45.9004 H   0  0  0  0  0  0  0  0  0  0  0  0
   60.6716   29.5879   46.1145 H   0  0  0  0  0  0  0  0  0  0  0  0
   59.9191   27.2456   45.2719 H   0  0  0  0  0  0  0  0  0  0  0  0
   58.9270   27.6624   46.7132 H   0  0  0  0  0  0  0  0  0  0  0  0
   58.4276   25.3802   45.8031 H   0  0  0  0  0  0  0  0  0  0  0  0
   56.9991   26.5182   45.7690 H   0  0  0  0  0  0  0  0  0  0  0  0
   56.7820   25.7630   43.7490 H   0  0  0  0  0  0  0  0  0  0  0  0
   59.2029   27.1215   42.8101 H   0  0  0  0  0  0  0  0  0  0  0  0
   57.5349   27.0243   42.0903 H   0  0  0  0  0  0  0  0  0  0  0  0
   58.1088   29.3024   42.9538 H   0  0  0  0  0  0  0  0  0  0  0  0
   56.6705   28.5562   43.7493 H   0  0  0  0  0  0  0  0  0  0  0  0
   56.9302   32.8586   45.9471 H   0  0  0  0  0  0  0  0  0  0  0  0
   61.0700   34.9952   49.2498 H   0  0  0  0  0  0  0  0  0  0  0  0
   61.4588   34.1920   51.5818 H   0  0  0  0  0  0  0  0  0  0  0  0
   60.0074   32.4038   52.5479 H   0  0  0  0  0  0  0  0  0  0  0  0
   58.1553   31.4264   51.1851 H   0  0  0  0  0  0  0  0  0  0  0  0
   57.7634   32.2264   48.8525 H   0  0  0  0  0  0  0  0  0  0  0  0
  1  2  1  0
  2  3  2  0
  3  4  1  0
  4  5  2  0
  5  6  1  0
  6  7  2  0
  7  8  1  0
  8  9  2  0
  9 10  1  0
 10 11  1  0
 11 12  1  0
 12 13  1  0
 13 14  1  0
 14 15  1  0
 15 16  1  0
 10 17  2  0
 17 18  1  0
 18 19  2  0
 19 20  1  0
 20 21  1  0
 21 22  2  0
 22 23  1  0
 23 24  2  0
 24 25  1  0
 25 26  2  0
  7  2  1  0
 19  8  1  0
 26 21  1  0
 16 11  1  0
  1 27  1  0
  3 28  1  0
  4 29  1  0
  5 30  1  0
  6 31  1  0
  9 32  1  0
 12 33  1  0
 12 34  1  0
 13 35  1  0
 13 36  1  0
 14 37  1  0
 15 38  1  0
 15 39  1  0
 16 40  1  0
 16 41  1  0
 18 42  1  0
 22 43  1  0
 23 44  1  0
 24 45  1  0
 25 46  1  0
 26 47  1  0
M  END
>  <UniqueID>  (28) 
27

>  <SMILES>  (28) 
Oc1ccccc1-c1cc(N2CCNCC2)ncc1Sc1ccccc1

>  <Energy>  (28) 
60.2244401243966

>  <Genealogy>  (28) 
Oc1ccccc1-c1cc(N2CCNCC2)ncc1Sc1ccccc1 (3D coordinates assigned)
Oc1ccccc1-c1cc(N2CCNCC2)ncc1Sc1ccccc1 (nonaromatic ring conformer: 60.2244401243966 kcal/mol)

>  <smiles>  (28) 
Oc1ccccc1-c1cc(N2CCNCC2)ncc1Sc1ccccc1

>  <score_type>  (28) 
oracle

>  <origin>  (28) 
adg

>  <m_score__min__energy>  (28) 
-7.46

>  <m_primary>  (28) 
energy

$$$$
28:0
     RDKit          3D

 64 68  0  0  0  0  0  0  0  0999 V2000
   66.7130   31.9170   50.7390 C   0  0  0  0  0  0  0  0  0  0  0  0
   66.6540   30.4870   51.2710 C   0  0  0  0  0  0  0  0  0  0  0  0
   66.0170   30.4500   52.6070 N   0  0  0  0  0  0  0  0  0  0  0  0
   65.4940   29.1250   52.9540 C   0  0  0  0  0  0  0  0  0  0  0  0
   64.3620   28.6800   52.0230 C   0  0  0  0  0  0  0  0  0  0  0  0
   63.4250   29.7560   51.6410 N   0  0  0  0  0  0  0  0  0  0  0  0
   62.2480   29.4140   50.8430 C   0  0  0  0  0  0  0  0  0  0  0  0
   61.5030   28.2180   51.0960 C   0  0  0  0  0  0  0  0  0  0  0  0
   60.3780   27.8780   50.3220 C   0  0  0  0  0  0  0  0  0  0  0  0
   60.0050   28.7450   49.3040 C   0  0  0  0  0  0  0  0  0  0  0  0
   58.9910   28.6050   48.4390 N   0  0  0  0  0  0  0  0  0  0  0  0
   59.1060   29.7180   47.6650 C   0  0  0  0  0  0  0  0  0  0  0  0
   58.2100   29.9950   46.5150 C   0  0  0  0  0  0  0  0  0  0  0  0
   58.1160   31.2900   45.9430 C   0  0  0  0  0  0  0  0  0  0  0  0
   58.9530   32.3770   46.3700 N   0  0  0  0  0  0  0  0  0  0  0  0
   58.9830   33.6470   45.7010 C   0  0  0  0  0  0  0  0  0  0  0  0
   58.1660   33.8930   44.7720 O   0  0  0  0  0  0  0  0  0  0  0  0
   60.0450   34.6510   46.0540 C   0  0  0  0  0  0  0  0  0  0  0  0
   61.1340   34.0350   46.8980 C   0  0  0  0  0  0  0  0  0  0  0  0
   62.4150   33.8440   46.3500 C   0  0  0  0  0  0  0  0  0  0  0  0
   63.4370   33.2880   47.1220 C   0  0  0  0  0  0  0  0  0  0  0  0
   63.1950   32.9270   48.4480 C   0  0  0  0  0  0  0  0  0  0  0  0
   61.9300   33.1220   49.0080 C   0  0  0  0  0  0  0  0  0  0  0  0
   60.8890   33.6810   48.2410 C   0  0  0  0  0  0  0  0  0  0  0  0
   59.6090   33.9010   48.7770 O   0  0  0  0  0  0  0  0  0  0  0  0
   58.9530   33.0230   49.6870 C   0  0  0  0  0  0  0  0  0  0  0  0
   57.1850   31.5290   44.9260 C   0  0  0  0  0  0  0  0  0  0  0  0
   56.3940   30.4840   44.4520 C   0  0  0  0  0  0  0  0  0  0  0  0
   56.5200   29.2420   44.9820 N   0  0  0  0  0  0  0  0  0  0  0  0
   57.3920   28.9710   45.9880 C   0  0  0  0  0  0  0  0  0  0  0  0
   57.4430   27.8010   46.4510 O   0  0  0  0  0  0  0  0  0  0  0  0
   60.1320   30.5380   48.0190 N   0  0  0  0  0  0  0  0  0  0  0  0
   60.6840   29.8900   49.0550 C   0  0  0  0  0  0  0  0  0  0  0  0
   61.8020   30.2660   49.7910 C   0  0  0  0  0  0  0  0  0  0  0  0
   63.7110   31.1830   51.9170 C   0  0  0  0  0  0  0  0  0  0  0  0
   64.9520   31.4480   52.7850 C   0  0  0  0  0  0  0  0  0  0  0  0
   66.7421   32.6214   51.5834 H   0  0  0  0  0  0  0  0  0  0  0  0
   67.6171   32.0429   50.1252 H   0  0  0  0  0  0  0  0  0  0  0  0
   65.8223   32.1169   50.1252 H   0  0  0  0  0  0  0  0  0  0  0  0
   66.0695   29.8670   50.5753 H   0  0  0  0  0  0  0  0  0  0  0  0
   67.6800   30.1002   51.3583 H   0  0  0  0  0  0  0  0  0  0  0  0
   66.3132   28.3939   52.8881 H   0  0  0  0  0  0  0  0  0  0  0  0
   65.0854   29.1830   53.9737 H   0  0  0  0  0  0  0  0  0  0  0  0
   64.8117   28.2739   51.1049 H   0  0  0  0  0  0  0  0  0  0  0  0
   63.7736   27.9354   52.5792 H   0  0  0  0  0  0  0  0  0  0  0  0
   61.8165   27.5509   51.9125 H   0  0  0  0  0  0  0  0  0  0  0  0
   59.8124   26.9550   50.5173 H   0  0  0  0  0  0  0  0  0  0  0  0
   59.4350   32.2920   47.2920 H   0  0  0  0  0  0  0  0  0  0  0  0
   60.4898   35.0410   45.1266 H   0  0  0  0  0  0  0  0  0  0  0  0
   59.5753   35.4586   46.6346 H   0  0  0  0  0  0  0  0  0  0  0  0
   62.6129   34.1342   45.3076 H   0  0  0  0  0  0  0  0  0  0  0  0
   64.4344   33.1343   46.6843 H   0  0  0  0  0  0  0  0  0  0  0  0
   64.0017   32.4881   49.0535 H   0  0  0  0  0  0  0  0  0  0  0  0
   61.7457   32.8373   50.0544 H   0  0  0  0  0  0  0  0  0  0  0  0
   59.1807   33.3277   50.7191 H   0  0  0  0  0  0  0  0  0  0  0  0
   57.8664   33.0692   49.5223 H   0  0  0  0  0  0  0  0  0  0  0  0
   59.3054   31.9941   49.5223 H   0  0  0  0  0  0  0  0  0  0  0  0
   57.0778   32.5383   44.5021 H   0  0  0  0  0  0  0  0  0  0  0  0
   55.6668   30.6668   43.6472 H   0  0  0  0  0  0  0  0  0  0  0  0
   62.3322   31.2031   49.5657 H   0  0  0  0  0  0  0  0  0  0  0  0
   63.8550   31.6934   50.9533 H   0  0  0  0  0  0  0  0  0  0  0  0
   62.8518   31.5601   52.4912 H   0  0  0  0  0  0  0  0  0  0  0  0
   65.3550   32.4375   52.5232 H   0  0  0  0  0  0  0  0  0  0  0  0
   64.6296   31.3929   53.8353 H   0  0  0  0  0  0  0  0  0  0  0  0
  1  2  1  0
  2  3  1  0
  3  4  1  0
  4  5  1  0
  5  6  1  0
  6  7  1  0
  7  8  2  0
  8  9  1  0
  9 10  2  0
 10 11  1  0
 11 12  1  0
 12 13  1  0
 13 14  2  0
 14 15  1  0
 15 16  1  0
 16 17  2  0
 16 18  1  0
 18 19  1  0
 19 20  2  0
 20 21  1  0
 21 22  2  0
 22 23  1  0
 23 24  2  0
 24 25  1  0
 25 26  1  0
 14 27  1  0
 27 28  2  0
 28 29  1  0
 29 30  1  0
 30 31  2  0
 12 32  2  0
 32 33  1  0
 33 34  2  0
  6 35  1  0
 35 36  1  0
 36  3  1  0
 34  7  1  0
 33 10  1  0
 30 13  1  0
 24 19  1  0
  1 37  1  0
  1 38  1  0
  1 39  1  0
  2 40  1  0
  2 41  1  0
  4 42  1  0
  4 43  1  0
  5 44  1  0
  5 45  1  0
  8 46  1  0
  9 47  1  0
 15 48  1  0
 18 49  1  0
 18 50  1  0
 20 51  1  0
 21 52  1  0
 22 53  1  0
 23 54  1  0
 26 55  1  0
 26 56  1  0
 26 57  1  0
 27 58  1  0
 28 59  1  0
 34 60  1  0
 35 61  1  0
 35 62  1  0
 36 63  1  0
 36 64  1  0
M  CHG  2  11  -1  29  -1
M  END
>  <UniqueID>  (29) 
28

>  <SMILES>  (29) 
CCN1CCN(c2ccc3[n-]c(-c4c(NC(=O)Cc5ccccc5OC)cc[n-]c4=O)nc3c2)CC1

>  <Energy>  (29) 
122.70933179048009

>  <Genealogy>  (29) 
CCN1CCN(c2ccc3[n-]c(-c4c(NC(=O)Cc5ccccc5OC)cc[n-]c4=O)nc3c2)CC1 (protonated)
CCN1CCN(c2ccc3[n-]c(-c4c(NC(=O)Cc5ccccc5OC)cc[n-]c4=O)nc3c2)CC1 (3D coordinates assigned)
CCN1CCN(c2ccc3[n-]c(-c4c(NC(=O)Cc5ccccc5OC)cc[n-]c4=O)nc3c2)CC1 (nonaromatic ring conformer: 122.70933179048009 kcal/mol)

>  <smiles>  (29) 
CCN1CCN(c2ccc3[nH]c(-c4c(NC(=O)Cc5ccccc5OC)cc[nH]c4=O)nc3c2)CC1

>  <score_type>  (29) 
oracle

>  <origin>  (29) 
adg

>  <m_score__min__energy>  (29) 
-10.529999999999999

>  <m_primary>  (29) 
energy

$$$$
29:0
     RDKit          3D

 39 40  0  0  0  0  0  0  0  0999 V2000
   57.0150   24.5760   44.5820 C   0  0  0  0  0  0  0  0  0  0  0  0
   57.4770   25.9410   44.3440 N   0  0  0  0  0  0  0  0  0  0  0  0
   56.9650   26.9710   45.6480 S   0  0  0  0  0  0  0  0  0  0  0  0
   55.5180   26.7070   45.9630 O   0  0  0  0  0  0  0  0  0  0  0  0
   57.7810   26.6620   46.8710 O   0  0  0  0  0  0  0  0  0  0  0  0
   57.1940   28.6640   45.2200 C   0  0  0  0  0  0  0  0  0  0  0  0
   58.3110   29.3580   45.7000 C   0  0  0  0  0  0  0  0  0  0  0  0
   58.5050   30.6990   45.3630 C   0  0  0  0  0  0  0  0  0  0  0  0
   57.5760   31.3680   44.5490 C   0  0  0  0  0  0  0  0  0  0  0  0
   57.7500   32.8300   44.2310 C   0  0  0  0  0  0  0  0  0  0  0  0
   58.0470   33.6000   45.4400 N   0  0  0  0  0  0  0  0  0  0  0  0
   59.1680   34.4780   45.6220 C   0  0  0  0  0  0  0  0  0  0  0  0
   59.2820   35.4810   44.8710 O   0  0  0  0  0  0  0  0  0  0  0  0
   60.1530   34.2740   46.7000 C   0  0  0  0  0  0  0  0  0  0  0  0
   59.7780   34.4550   48.0340 C   0  0  0  0  0  0  0  0  0  0  0  0
   60.6950   34.2060   49.0520 C   0  0  0  0  0  0  0  0  0  0  0  0
   61.9890   33.7900   48.7290 C   0  0  0  0  0  0  0  0  0  0  0  0
   62.8070   33.5530   49.6600 O   0  0  0  0  0  0  0  0  0  0  0  0
   62.3640   33.6440   47.4170 N   0  0  0  0  0  0  0  0  0  0  0  0
   63.7200   33.1900   47.0870 C   0  0  0  0  0  0  0  0  0  0  0  0
   61.4670   33.8810   46.4100 C   0  0  0  0  0  0  0  0  0  0  0  0
   56.4690   30.6630   44.0490 C   0  0  0  0  0  0  0  0  0  0  0  0
   56.2790   29.3190   44.3830 C   0  0  0  0  0  0  0  0  0  0  0  0
   56.9532   24.3934   45.6650 H   0  0  0  0  0  0  0  0  0  0  0  0
   56.0212   24.4412   44.1301 H   0  0  0  0  0  0  0  0  0  0  0  0
   57.7227   23.8653   44.1301 H   0  0  0  0  0  0  0  0  0  0  0  0
   57.0110   26.2900   43.4760 H   0  0  0  0  0  0  0  0  0  0  0  0
   59.0390   28.8447   46.3454 H   0  0  0  0  0  0  0  0  0  0  0  0
   59.3901   31.2345   45.7369 H   0  0  0  0  0  0  0  0  0  0  0  0
   58.5795   32.9464   43.5180 H   0  0  0  0  0  0  0  0  0  0  0  0
   56.8121   33.2076   43.7976 H   0  0  0  0  0  0  0  0  0  0  0  0
   58.7605   34.7935   48.2794 H   0  0  0  0  0  0  0  0  0  0  0  0
   60.4022   34.3361   50.1043 H   0  0  0  0  0  0  0  0  0  0  0  0
   64.2799   33.0025   48.0151 H   0  0  0  0  0  0  0  0  0  0  0  0
   63.6631   32.2619   46.4993 H   0  0  0  0  0  0  0  0  0  0  0  0
   64.2334   33.9653   46.4993 H   0  0  0  0  0  0  0  0  0  0  0  0
   61.7808   33.7618   45.3625 H   0  0  0  0  0  0  0  0  0  0  0  0
   55.7481   31.1708   43.3915 H   0  0  0  0  0  0  0  0  0  0  0  0
   55.4092   28.7735   43.9882 H   0  0  0  0  0  0  0  0  0  0  0  0
  1  2  1  0
  2  3  1  0
  3  4  2  0
  3  5  2  0
  3  6  1  0
  6  7  2  0
  7  8  1  0
  8  9  2  0
  9 10  1  0
 10 11  1  0
 11 12  1  0
 12 13  2  0
 12 14  1  0
 14 15  1  0
 15 16  2  0
 16 17  1  0
 17 18  2  0
 17 19  1  0
 19 20  1  0
 19 21  1  0
  9 22  1  0
 22 23  2  0
 23  6  1  0
 21 14  2  0
  1 24  1  0
  1 25  1  0
  1 26  1  0
  2 27  1  0
  7 28  1  0
  8 29  1  0
 10 30  1  0
 10 31  1  0
 15 32  1  0
 16 33  1  0
 20 34  1  0
 20 35  1  0
 20 36  1  0
 21 37  1  0
 22 38  1  0
 23 39  1  0
M  CHG  1  11  -1
M  END
>  <UniqueID>  (30) 
29

>  <SMILES>  (30) 
CNS(=O)(=O)c1ccc(C[N-]C(=O)c2ccc(=O)n(C)c2)cc1

>  <Energy>  (30) 
39.956545219136736

>  <Genealogy>  (30) 
CNS(=O)(=O)c1ccc(C[N-]C(=O)c2ccc(=O)n(C)c2)cc1 (protonated)
CNS(=O)(=O)c1ccc(C[N-]C(=O)c2ccc(=O)n(C)c2)cc1 (3D coordinates assigned)
CNS(=O)(=O)c1ccc(C[N-]C(=O)c2ccc(=O)n(C)c2)cc1 (optimized conformer: 39.956545219136736 kcal/mol)

>  <smiles>  (30) 
CNS(=O)(=O)c1ccc(CNC(=O)c2ccc(=O)n(C)c2)cc1

>  <score_type>  (30) 
oracle

>  <origin>  (30) 
adg

>  <m_score__min__energy>  (30) 
-9.5199999999999996

>  <m_primary>  (30) 
energy

$$$$
30:0
     RDKit          3D

 58 62  0  0  0  0  0  0  0  0999 V2000
   54.8630   29.7990   53.0590 C   0  0  0  0  0  0  0  0  0  0  0  0
   55.7290   30.0790   51.9640 O   0  0  0  0  0  0  0  0  0  0  0  0
   56.9560   30.7510   52.0760 C   0  0  0  0  0  0  0  0  0  0  0  0
   57.0480   32.0880   52.5070 C   0  0  0  0  0  0  0  0  0  0  0  0
   58.2940   32.7110   52.6000 C   0  0  0  0  0  0  0  0  0  0  0  0
   59.4570   32.0130   52.2660 C   0  0  0  0  0  0  0  0  0  0  0  0
   59.3820   30.6810   51.8300 C   0  0  0  0  0  0  0  0  0  0  0  0
   60.6330   29.9280   51.4560 C   0  0  0  0  0  0  0  0  0  0  0  0
   61.2090   30.4670   50.2170 N   0  0  0  0  0  0  0  0  0  0  0  0
   62.3170   31.2510   50.1310 C   0  0  0  0  0  0  0  0  0  0  0  0
   63.1570   31.6710   51.1680 C   0  0  0  0  0  0  0  0  0  0  0  0
   64.2510   32.4940   50.8430 C   0  0  0  0  0  0  0  0  0  0  0  0
   64.4870   32.8810   49.5060 C   0  0  0  0  0  0  0  0  0  0  0  0
   63.6300   32.4510   48.4790 C   0  0  0  0  0  0  0  0  0  0  0  0
   62.5550   31.6360   48.8290 C   0  0  0  0  0  0  0  0  0  0  0  0
   61.5540   31.0760   48.0750 C   0  0  0  0  0  0  0  0  0  0  0  0
   61.2810   31.1400   46.7220 C   0  0  0  0  0  0  0  0  0  0  0  0
   60.1860   30.4740   46.2600 N   0  0  0  0  0  0  0  0  0  0  0  0
   59.3820   29.7580   47.0730 N   0  0  0  0  0  0  0  0  0  0  0  0
   58.2280   29.0610   46.4780 C   0  0  0  0  0  0  0  0  0  0  0  0
   57.4230   29.9980   45.6170 C   0  0  0  0  0  0  0  0  0  0  0  0
   56.2650   29.6590   45.2570 O   0  0  0  0  0  0  0  0  0  0  0  0
   57.9240   31.2780   45.2120 N   0  0  0  0  0  0  0  0  0  0  0  0
   57.3720   32.5570   45.6390 C   0  0  0  0  0  0  0  0  0  0  0  0
   58.2060   33.1090   46.7640 C   0  0  0  0  0  0  0  0  0  0  0  0
   58.1400   32.5100   48.0340 C   0  0  0  0  0  0  0  0  0  0  0  0
   58.9230   32.9930   49.0860 C   0  0  0  0  0  0  0  0  0  0  0  0
   59.7870   34.0690   48.8790 C   0  0  0  0  0  0  0  0  0  0  0  0
   59.8730   34.6640   47.6180 C   0  0  0  0  0  0  0  0  0  0  0  0
   59.0940   34.1890   46.5560 C   0  0  0  0  0  0  0  0  0  0  0  0
   59.2580   34.9630   44.9830 Cl  0  0  0  0  0  0  0  0  0  0  0  0
   59.6230   29.7060   48.4310 C   0  0  0  0  0  0  0  0  0  0  0  0
   58.8530   29.0670   49.1970 O   0  0  0  0  0  0  0  0  0  0  0  0
   60.7460   30.3760   48.9370 C   0  0  0  0  0  0  0  0  0  0  0  0
   58.1260   30.0580   51.7410 C   0  0  0  0  0  0  0  0  0  0  0  0
   55.3989   29.9723   54.0039 H   0  0  0  0  0  0  0  0  0  0  0  0
   53.9842   30.4588   53.0095 H   0  0  0  0  0  0  0  0  0  0  0  0
   54.5369   28.7496   53.0095 H   0  0  0  0  0  0  0  0  0  0  0  0
   56.1359   32.6433   52.7712 H   0  0  0  0  0  0  0  0  0  0  0  0
   58.3601   33.7558   52.9377 H   0  0  0  0  0  0  0  0  0  0  0  0
   60.4355   32.5093   52.3450 H   0  0  0  0  0  0  0  0  0  0  0  0
   61.3688   30.0231   52.2682 H   0  0  0  0  0  0  0  0  0  0  0  0
   60.3765   28.8702   51.2974 H   0  0  0  0  0  0  0  0  0  0  0  0
   62.9676   31.3665   52.2079 H   0  0  0  0  0  0  0  0  0  0  0  0
   64.9285   32.8390   51.6379 H   0  0  0  0  0  0  0  0  0  0  0  0
   65.3473   33.5233   49.2668 H   0  0  0  0  0  0  0  0  0  0  0  0
   63.8018   32.7477   47.4338 H   0  0  0  0  0  0  0  0  0  0  0  0
   61.9276   31.7108   46.0393 H   0  0  0  0  0  0  0  0  0  0  0  0
   59.9790   30.5320   45.2370 H   0  0  0  0  0  0  0  0  0  0  0  0
   58.5903   28.2256   45.8608 H   0  0  0  0  0  0  0  0  0  0  0  0
   57.5854   28.6875   47.2889 H   0  0  0  0  0  0  0  0  0  0  0  0
   57.3819   33.2617   44.7944 H   0  0  0  0  0  0  0  0  0  0  0  0
   56.3371   32.4147   45.9835 H   0  0  0  0  0  0  0  0  0  0  0  0
   57.4677   31.6555   48.2008 H   0  0  0  0  0  0  0  0  0  0  0  0
   58.8581   32.5241   50.0789 H   0  0  0  0  0  0  0  0  0  0  0  0
   60.4007   34.4489   49.7091 H   0  0  0  0  0  0  0  0  0  0  0  0
   60.5568   35.5107   47.4585 H   0  0  0  0  0  0  0  0  0  0  0  0
   58.0607   29.0129   51.4040 H   0  0  0  0  0  0  0  0  0  0  0  0
  1  2  1  0
  2  3  1  0
  3  4  2  0
  4  5  1  0
  5  6  2  0
  6  7  1  0
  7  8  1  0
  8  9  1  0
  9 10  1  0
 10 11  2  0
 11 12  1  0
 12 13  2  0
 13 14  1  0
 14 15  2  0
 15 16  1  0
 16 17  1  0
 17 18  2  0
 18 19  1  0
 19 20  1  0
 20 21  1  0
 21 22  2  0
 21 23  1  0
 23 24  1  0
 24 25  1  0
 25 26  2  0
 26 27  1  0
 27 28  2  0
 28 29  1  0
 29 30  2  0
 30 31  1  0
 19 32  1  0
 32 33  2  0
 32 34  1  0
  7 35  2  0
 35  3  1  0
 34  9  1  0
 15 10  1  0
 34 16  2  0
 30 25  1  0
  1 36  1  0
  1 37  1  0
  1 38  1  0
  4 39  1  0
  5 40  1  0
  6 41  1  0
  8 42  1  0
  8 43  1  0
 11 44  1  0
 12 45  1  0
 13 46  1  0
 14 47  1  0
 17 48  1  0
 18 49  1  0
 20 50  1  0
 20 51  1  0
 24 52  1  0
 24 53  1  0
 26 54  1  0
 27 55  1  0
 28 56  1  0
 29 57  1  0
 35 58  1  0
M  CHG  2  18   1  23  -1
M  END
>  <UniqueID>  (31) 
30

>  <SMILES>  (31) 
COc1cccc(Cn2c3ccccc3c3c[nH+]n(CC(=O)[N-]Cc4ccccc4Cl)c(=O)c32)c1

>  <Energy>  (31) 
107.20118259305033

>  <Genealogy>  (31) 
COc1cccc(Cn2c3ccccc3c3c[nH+]n(CC(=O)[N-]Cc4ccccc4Cl)c(=O)c32)c1 (protonated)
COc1cccc(Cn2c3ccccc3c3c[nH+]n(CC(=O)[N-]Cc4ccccc4Cl)c(=O)c32)c1 (3D coordinates assigned)
COc1cccc(Cn2c3ccccc3c3c[nH+]n(CC(=O)[N-]Cc4ccccc4Cl)c(=O)c32)c1 (optimized conformer: 107.20118259305033 kcal/mol)

>  <smiles>  (31) 
COc1cccc(Cn2c3ccccc3c3cnn(CC(=O)NCc4ccccc4Cl)c(=O)c32)c1

>  <score_type>  (31) 
oracle

>  <origin>  (31) 
adg

>  <m_score__min__energy>  (31) 
-11.23

>  <m_primary>  (31) 
energy

$$$$
31:0
     RDKit          3D

 76 79  0  0  0  0  0  0  0  0999 V2000
   55.1420   26.4170   46.0060 O   0  0  0  0  0  0  0  0  0  0  0  0
   56.2180   25.8570   46.3340 C   0  0  0  0  0  0  0  0  0  0  0  0
   57.3030   26.6380   46.8310 N   0  0  0  0  0  0  0  0  0  0  0  0
   58.6720   26.4450   46.3660 C   0  0  1  0  0  0  0  0  0  0  0  0
   58.7910   26.8690   44.8890 C   0  0  0  0  0  0  0  0  0  0  0  0
   58.3490   28.2930   44.6760 C   0  0  0  0  0  0  0  0  0  0  0  0
   56.9970   28.5940   44.4300 C   0  0  0  0  0  0  0  0  0  0  0  0
   56.6000   29.9190   44.2240 C   0  0  0  0  0  0  0  0  0  0  0  0
   57.5410   30.9510   44.2770 C   0  0  0  0  0  0  0  0  0  0  0  0
   58.8820   30.6640   44.5430 C   0  0  0  0  0  0  0  0  0  0  0  0
   59.2860   29.3400   44.7440 C   0  0  0  0  0  0  0  0  0  0  0  0
   59.6040   27.2510   47.2290 C   0  0  0  0  0  0  0  0  0  0  0  0
   60.8310   26.9590   47.2630 O   0  0  0  0  0  0  0  0  0  0  0  0
   59.0980   28.3210   48.0420 N   0  0  0  0  0  0  0  0  0  0  0  0
   59.9900   29.2880   48.6900 C   0  0  2  0  0  0  0  0  0  0  0  0
   59.8270   29.2560   50.2210 C   0  0  0  0  0  0  0  0  0  0  0  0
   59.3000   30.5630   50.7590 C   0  0  0  0  0  0  0  0  0  0  0  0
   60.1830   31.5570   51.2180 C   0  0  0  0  0  0  0  0  0  0  0  0
   59.6860   32.7430   51.7650 C   0  0  0  0  0  0  0  0  0  0  0  0
   58.3060   32.9550   51.8390 C   0  0  0  0  0  0  0  0  0  0  0  0
   57.4200   31.9820   51.3650 C   0  0  0  0  0  0  0  0  0  0  0  0
   57.9130   30.7880   50.8300 C   0  0  0  0  0  0  0  0  0  0  0  0
   59.6870   30.6710   48.1880 C   0  0  0  0  0  0  0  0  0  0  0  0
   58.6070   30.8960   47.5780 O   0  0  0  0  0  0  0  0  0  0  0  0
   60.6520   31.7170   48.3610 N   0  0  0  0  0  0  0  0  0  0  0  0
   61.6610   32.0770   47.3660 C   0  0  2  0  0  0  0  0  0  0  0  0
   62.9890   31.3720   47.6880 C   0  0  0  0  0  0  0  0  0  0  0  0
   63.6170   31.8550   48.9750 C   0  0  0  0  0  0  0  0  0  0  0  0
   64.5060   32.9430   48.9680 C   0  0  0  0  0  0  0  0  0  0  0  0
   65.0940   33.3820   50.1580 C   0  0  0  0  0  0  0  0  0  0  0  0
   64.7960   32.7420   51.3630 C   0  0  0  0  0  0  0  0  0  0  0  0
   63.8960   31.6710   51.3840 C   0  0  0  0  0  0  0  0  0  0  0  0
   63.3050   31.2290   50.1960 C   0  0  0  0  0  0  0  0  0  0  0  0
   61.8390   33.5700   47.2880 C   0  0  0  0  0  0  0  0  0  0  0  0
   62.4680   34.0710   46.3170 O   0  0  0  0  0  0  0  0  0  0  0  0
   61.3270   34.4140   48.3250 N   0  0  0  0  0  0  0  0  0  0  0  0
   59.9000   34.5590   48.5840 C   0  0  0  0  0  0  0  0  0  0  0  0
   59.1460   34.4540   47.2910 C   0  0  0  0  0  0  0  0  0  0  0  0
   57.9910   33.6600   47.1960 C   0  0  0  0  0  0  0  0  0  0  0  0
   57.3130   33.5490   45.9790 C   0  0  0  0  0  0  0  0  0  0  0  0
   57.7920   34.2150   44.8450 C   0  0  0  0  0  0  0  0  0  0  0  0
   58.9490   34.9940   44.9300 C   0  0  0  0  0  0  0  0  0  0  0  0
   59.6240   35.1170   46.1480 C   0  0  0  0  0  0  0  0  0  0  0  0
   56.3229   24.7662   46.2380 H   0  0  0  0  0  0  0  0  0  0  0  0
   58.9445   25.3819   46.4402 H   0  0  0  0  0  0  0  0  0  0  0  0
   59.8406   26.7716   44.5745 H   0  0  0  0  0  0  0  0  0  0  0  0
   58.1363   26.2161   44.2931 H   0  0  0  0  0  0  0  0  0  0  0  0
   56.2511   27.7861   44.3996 H   0  0  0  0  0  0  0  0  0  0  0  0
   55.5440   30.1496   44.0197 H   0  0  0  0  0  0  0  0  0  0  0  0
   57.2251   31.9912   44.1089 H   0  0  0  0  0  0  0  0  0  0  0  0
   59.6196   31.4785   44.5943 H   0  0  0  0  0  0  0  0  0  0  0  0
   60.3419   29.1164   44.9563 H   0  0  0  0  0  0  0  0  0  0  0  0
   58.0650   28.4860   48.0670 H   0  0  0  0  0  0  0  0  0  0  0  0
   61.0268   29.0157   48.4431 H   0  0  0  0  0  0  0  0  0  0  0  0
   59.1240   28.4529   50.4869 H   0  0  0  0  0  0  0  0  0  0  0  0
   60.8177   29.0797   50.6653 H   0  0  0  0  0  0  0  0  0  0  0  0
   61.2694   31.4001   51.1461 H   0  0  0  0  0  0  0  0  0  0  0  0
   60.3808   33.5101   52.1375 H   0  0  0  0  0  0  0  0  0  0  0  0
   57.9164   33.8887   52.2708 H   0  0  0  0  0  0  0  0  0  0  0  0
   56.3350   32.1562   51.4132 H   0  0  0  0  0  0  0  0  0  0  0  0
   57.2140   30.0219   50.4633 H   0  0  0  0  0  0  0  0  0  0  0  0
   61.3169   31.7386   46.3775 H   0  0  0  0  0  0  0  0  0  0  0  0
   62.8006   30.2917   47.7738 H   0  0  0  0  0  0  0  0  0  0  0  0
   63.6903   31.6030   46.8727 H   0  0  0  0  0  0  0  0  0  0  0  0
   64.7405   33.4520   48.0214 H   0  0  0  0  0  0  0  0  0  0  0  0
   65.7919   34.2322   50.1452 H   0  0  0  0  0  0  0  0  0  0  0  0
   65.2694   33.0803   52.2965 H   0  0  0  0  0  0  0  0  0  0  0  0
   63.6530   31.1761   52.3359 H   0  0  0  0  0  0  0  0  0  0  0  0
   62.5943   30.3897   50.2162 H   0  0  0  0  0  0  0  0  0  0  0  0
   59.5684   33.7638   49.2679 H   0  0  0  0  0  0  0  0  0  0  0  0
   59.7075   35.5399   49.0431 H   0  0  0  0  0  0  0  0  0  0  0  0
   57.6193   33.1242   48.0819 H   0  0  0  0  0  0  0  0  0  0  0  0
   56.4013   32.9371   45.9122 H   0  0  0  0  0  0  0  0  0  0  0  0
   57.2580   34.1253   43.8875 H   0  0  0  0  0  0  0  0  0  0  0  0
   59.3293   35.5114   44.0369 H   0  0  0  0  0  0  0  0  0  0  0  0
   60.5320   35.7346   46.2118 H   0  0  0  0  0  0  0  0  0  0  0  0
  1  2  2  0
  2  3  1  0
  3  4  1  0
  4  5  1  0
  5  6  1  0
  6  7  2  0
  7  8  1  0
  8  9  2  0
  9 10  1  0
 10 11  2  0
  4 12  1  0
 12 13  2  0
 12 14  1  0
 14 15  1  0
 15 16  1  0
 16 17  1  0
 17 18  2  0
 18 19  1  0
 19 20  2  0
 20 21  1  0
 21 22  2  0
 15 23  1  0
 23 24  2  0
 23 25  1  0
 25 26  1  0
 26 27  1  0
 27 28  1  0
 28 29  2  0
 29 30  1  0
 30 31  2  0
 31 32  1  0
 32 33  2  0
 26 34  1  0
 34 35  2  0
 34 36  1  0
 36 37  1  0
 37 38  1  0
 38 39  2  0
 39 40  1  0
 40 41  2  0
 41 42  1  0
 42 43  2  0
 11  6  1  0
 22 17  1  0
 33 28  1  0
 43 38  1  0
  2 44  1  0
  4 45  1  6
  5 46  1  0
  5 47  1  0
  7 48  1  0
  8 49  1  0
  9 50  1  0
 10 51  1  0
 11 52  1  0
 14 53  1  0
 15 54  1  1
 16 55  1  0
 16 56  1  0
 18 57  1  0
 19 58  1  0
 20 59  1  0
 21 60  1  0
 22 61  1  0
 26 62  1  6
 27 63  1  0
 27 64  1  0
 29 65  1  0
 30 66  1  0
 31 67  1  0
 32 68  1  0
 33 69  1  0
 37 70  1  0
 37 71  1  0
 39 72  1  0
 40 73  1  0
 41 74  1  0
 42 75  1  0
 43 76  1  0
M  CHG  3   3  -1  25  -1  36  -1
M  END
>  <UniqueID>  (32) 
31

>  <SMILES>  (32) 
O=C[N-][C@@H](Cc1ccccc1)C(=O)N[C@H](Cc1ccccc1)C(=O)[N-]C(Cc1ccccc1)C(=O)[N-]Cc1ccccc1

>  <Energy>  (32) 
51.571161132074096

>  <Genealogy>  (32) 
O=C[N-]C(Cc1ccccc1)C(=O)NC(Cc1ccccc1)C(=O)[N-]C(Cc1ccccc1)C(=O)[N-]Cc1ccccc1 (protonated)
O=C[N-][C@@H](Cc1ccccc1)C(=O)N[C@H](Cc1ccccc1)C(=O)[N-]C(Cc1ccccc1)C(=O)[N-]Cc1ccccc1 (chirality)
O=C[N-][C@@H](Cc1ccccc1)C(=O)N[C@H](Cc1ccccc1)C(=O)[N-]C(Cc1ccccc1)C(=O)[N-]Cc1ccccc1 (3D coordinates assigned)
O=C[N-][C@@H](Cc1ccccc1)C(=O)N[C@H](Cc1ccccc1)C(=O)[N-]C(Cc1ccccc1)C(=O)[N-]Cc1ccccc1 (optimized conformer: 51.571161132074096 kcal/mol)

>  <smiles>  (32) 
O=CNC(Cc1ccccc1)C(=O)NC(Cc1ccccc1)C(=O)NC(Cc1ccccc1)C(=O)NCc1ccccc1

>  <score_type>  (32) 
oracle

>  <origin>  (32) 
adg

>  <m_score__min__energy>  (32) 
-15.76

>  <m_primary>  (32) 
energy

$$$$
32:0
     RDKit          3D

 56 59  0  0  0  0  0  0  0  0999 V2000
   57.2910   31.1920   51.8030 C   0  0  0  0  0  0  0  0  0  0  0  0
   57.6660   30.1230   50.9620 O   0  0  0  0  0  0  0  0  0  0  0  0
   58.5140   30.5810   49.9250 C   0  0  0  0  0  0  0  0  0  0  0  0
   59.3060   29.4050   49.3200 C   0  0  2  0  0  0  0  0  0  0  0  0
   60.8040   29.4720   49.6390 C   0  0  0  0  0  0  0  0  0  0  0  0
   59.0740   29.2910   47.8640 N   0  0  0  0  0  0  0  0  0  0  0  0
   59.3650   30.2270   46.9110 C   0  0  0  0  0  0  0  0  0  0  0  0
   59.8450   31.5960   47.1840 C   0  0  0  0  0  0  0  0  0  0  0  0
   58.9500   32.6040   47.5670 C   0  0  0  0  0  0  0  0  0  0  0  0
   59.4120   33.8990   47.8070 C   0  0  0  0  0  0  0  0  0  0  0  0
   60.7660   34.2020   47.6470 C   0  0  0  0  0  0  0  0  0  0  0  0
   61.6750   33.2130   47.2280 C   0  0  0  0  0  0  0  0  0  0  0  0
   63.1090   33.5510   47.0550 C   0  0  0  0  0  0  0  0  0  0  0  0
   64.1420   32.7420   47.6230 N   0  0  0  0  0  0  0  0  0  0  0  0
   63.4330   34.5670   46.3820 O   0  0  0  0  0  0  0  0  0  0  0  0
   61.2010   31.9070   46.9990 C   0  0  0  0  0  0  0  0  0  0  0  0
   59.1730   29.7870   45.6430 N   0  0  0  0  0  0  0  0  0  0  0  0
   58.7290   28.5310   45.8160 C   0  0  0  0  0  0  0  0  0  0  0  0
   58.3870   27.6190   44.8250 C   0  0  0  0  0  0  0  0  0  0  0  0
   58.4750   27.9540   43.5100 N   0  0  0  0  0  0  0  0  0  0  0  0
   58.1530   27.0720   42.5290 C   0  0  0  0  0  0  0  0  0  0  0  0
   57.7230   25.7850   42.8560 C   0  0  0  0  0  0  0  0  0  0  0  0
   57.6220   25.4090   44.1960 C   0  0  0  0  0  0  0  0  0  0  0  0
   57.9490   26.3240   45.2170 C   0  0  0  0  0  0  0  0  0  0  0  0
   57.8640   25.9980   46.6080 C   0  0  0  0  0  0  0  0  0  0  0  0
   57.4110   24.6400   47.0850 C   0  0  0  0  0  0  0  0  0  0  0  0
   55.9540   24.5820   47.0770 N   0  0  0  0  0  0  0  0  0  0  0  0
   55.1440   25.0140   45.9790 C   0  0  0  0  0  0  0  0  0  0  0  0
   54.7260   24.0670   44.8960 C   0  0  0  0  0  0  0  0  0  0  0  0
   54.7740   26.2160   45.9270 O   0  0  0  0  0  0  0  0  0  0  0  0
   58.2380   26.9610   47.5740 C   0  0  0  0  0  0  0  0  0  0  0  0
   58.6630   28.2220   47.1420 C   0  0  0  0  0  0  0  0  0  0  0  0
   57.3982   30.8865   52.8543 H   0  0  0  0  0  0  0  0  0  0  0  0
   57.9387   32.0588   51.6052 H   0  0  0  0  0  0  0  0  0  0  0  0
   56.2437   31.4642   51.6052 H   0  0  0  0  0  0  0  0  0  0  0  0
   57.9043   31.0501   49.1387 H   0  0  0  0  0  0  0  0  0  0  0  0
   59.2228   31.3125   50.3404 H   0  0  0  0  0  0  0  0  0  0  0  0
   58.9227   28.4926   49.8003 H   0  0  0  0  0  0  0  0  0  0  0  0
   60.9467   29.4784   50.7297 H   0  0  0  0  0  0  0  0  0  0  0  0
   61.3102   28.5956   49.2081 H   0  0  0  0  0  0  0  0  0  0  0  0
   61.2299   30.3901   49.2081 H   0  0  0  0  0  0  0  0  0  0  0  0
   57.8802   32.3739   47.6788 H   0  0  0  0  0  0  0  0  0  0  0  0
   58.7080   34.6829   48.1229 H   0  0  0  0  0  0  0  0  0  0  0  0
   61.1246   35.2219   47.8501 H   0  0  0  0  0  0  0  0  0  0  0  0
   63.9400   31.8110   48.0490 H   0  0  0  0  0  0  0  0  0  0  0  0
   65.1400   33.0370   47.5370 H   0  0  0  0  0  0  0  0  0  0  0  0
   61.9001   31.1232   46.6720 H   0  0  0  0  0  0  0  0  0  0  0  0
   58.2313   27.3726   41.4738 H   0  0  0  0  0  0  0  0  0  0  0  0
   57.4648   25.0702   42.0608 H   0  0  0  0  0  0  0  0  0  0  0  0
   57.2859   24.3945   44.4565 H   0  0  0  0  0  0  0  0  0  0  0  0
   57.8123   23.8641   46.4165 H   0  0  0  0  0  0  0  0  0  0  0  0
   57.7787   24.4696   48.1076 H   0  0  0  0  0  0  0  0  0  0  0  0
   54.3210   23.1494   45.3475 H   0  0  0  0  0  0  0  0  0  0  0  0
   53.9534   24.5408   44.2726 H   0  0  0  0  0  0  0  0  0  0  0  0
   55.5967   23.8155   44.2726 H   0  0  0  0  0  0  0  0  0  0  0  0
   58.1954   26.7225   48.6470 H   0  0  0  0  0  0  0  0  0  0  0  0
  1  2  1  0
  2  3  1  0
  3  4  1  0
  4  5  1  0
  4  6  1  0
  6  7  1  0
  7  8  1  0
  8  9  2  0
  9 10  1  0
 10 11  2  0
 11 12  1  0
 12 13  1  0
 13 14  1  0
 13 15  2  0
 12 16  2  0
  7 17  2  0
 17 18  1  0
 18 19  2  0
 19 20  1  0
 20 21  2  0
 21 22  1  0
 22 23  2  0
 23 24  1  0
 24 25  2  0
 25 26  1  0
 26 27  1  0
 27 28  1  0
 28 29  1  0
 28 30  2  0
 25 31  1  0
 31 32  2  0
 32  6  1  0
 16  8  1  0
 32 18  1  0
 24 19  1  0
  1 33  1  0
  1 34  1  0
  1 35  1  0
  3 36  1  0
  3 37  1  0
  4 38  1  1
  5 39  1  0
  5 40  1  0
  5 41  1  0
  9 42  1  0
 10 43  1  0
 11 44  1  0
 14 45  1  0
 14 46  1  0
 16 47  1  0
 21 48  1  0
 22 49  1  0
 23 50  1  0
 26 51  1  0
 26 52  1  0
 29 53  1  0
 29 54  1  0
 29 55  1  0
 31 56  1  0
M  CHG  1  27  -1
M  END
>  <UniqueID>  (33) 
32

>  <SMILES>  (33) 
COC[C@H](C)n1c(-c2cccc(C(N)=O)c2)nc2c3ncccc3c(C[N-]C(C)=O)cc21

>  <Energy>  (33) 
106.28908962268805

>  <Genealogy>  (33) 
COCC(C)n1c(-c2cccc(C(N)=O)c2)nc2c3ncccc3c(C[N-]C(C)=O)cc21 (protonated)
COC[C@H](C)n1c(-c2cccc(C(N)=O)c2)nc2c3ncccc3c(C[N-]C(C)=O)cc21 (chirality)
COC[C@H](C)n1c(-c2cccc(C(N)=O)c2)nc2c3ncccc3c(C[N-]C(C)=O)cc21 (3D coordinates assigned)
COC[C@H](C)n1c(-c2cccc(C(N)=O)c2)nc2c3ncccc3c(C[N-]C(C)=O)cc21 (optimized conformer: 106.28908962268805 kcal/mol)

>  <smiles>  (33) 
COCC(C)n1c(-c2cccc(C(N)=O)c2)nc2c3ncccc3c(CNC(C)=O)cc21

>  <score_type>  (33) 
oracle

>  <origin>  (33) 
adg

>  <m_score__min__energy>  (33) 
-10.76

>  <m_primary>  (33) 
energy

$$$$
33:0
     RDKit          3D

 42 45  0  0  0  0  0  0  0  0999 V2000
   52.7830   31.2100   51.2350 C   0  0  0  0  0  0  0  0  0  0  0  0
   53.9310   31.0990   51.9090 C   0  0  0  0  0  0  0  0  0  0  0  0
   54.6860   29.8010   51.9820 C   0  0  0  0  0  0  0  0  0  0  0  0
   56.1850   29.9920   53.0040 S   0  0  0  0  0  0  0  0  0  0  0  0
   57.1950   30.6100   51.6580 C   0  0  0  0  0  0  0  0  0  0  0  0
   58.1430   29.8200   51.1080 N   0  0  0  0  0  0  0  0  0  0  0  0
   58.9100   30.2310   50.0660 C   0  0  0  0  0  0  0  0  0  0  0  0
   58.7130   31.5480   49.5530 C   0  0  0  0  0  0  0  0  0  0  0  0
   57.7450   32.3000   50.1550 N   0  0  0  0  0  0  0  0  0  0  0  0
   57.0050   31.8560   51.1690 N   0  0  0  0  0  0  0  0  0  0  0  0
   59.4830   32.2190   48.4500 C   0  0  0  0  0  0  0  0  0  0  0  0
   58.9210   33.3810   47.8670 C   0  0  0  0  0  0  0  0  0  0  0  0
   59.6430   34.1660   46.9670 C   0  0  0  0  0  0  0  0  0  0  0  0
   60.9450   33.8200   46.6280 C   0  0  0  0  0  0  0  0  0  0  0  0
   61.5160   32.6670   47.1610 C   0  0  0  0  0  0  0  0  0  0  0  0
   60.7910   31.8480   48.0430 C   0  0  0  0  0  0  0  0  0  0  0  0
   61.3710   30.5970   48.4110 N   0  0  0  0  0  0  0  0  0  0  0  0
   60.5900   29.3700   48.3890 C   0  0  2  0  0  0  0  0  0  0  0  0
   59.7480   29.2330   47.1290 C   0  0  0  0  0  0  0  0  0  0  0  0
   60.3320   29.4790   45.8720 C   0  0  0  0  0  0  0  0  0  0  0  0
   59.5840   29.3370   44.6990 C   0  0  0  0  0  0  0  0  0  0  0  0
   58.2520   28.9220   44.7660 C   0  0  0  0  0  0  0  0  0  0  0  0
   57.6710   28.6370   46.0040 C   0  0  0  0  0  0  0  0  0  0  0  0
   58.4150   28.7790   47.1780 C   0  0  0  0  0  0  0  0  0  0  0  0
   59.8210   29.2890   49.5770 O   0  0  0  0  0  0  0  0  0  0  0  0
   52.2558   32.1749   51.2017 H   0  0  0  0  0  0  0  0  0  0  0  0
   52.3649   30.3365   50.7133 H   0  0  0  0  0  0  0  0  0  0  0  0
   54.3353   31.9822   52.4252 H   0  0  0  0  0  0  0  0  0  0  0  0
   54.0396   29.0305   52.4276 H   0  0  0  0  0  0  0  0  0  0  0  0
   54.9834   29.5042   50.9654 H   0  0  0  0  0  0  0  0  0  0  0  0
   56.2750   32.4780   51.5820 H   0  0  0  0  0  0  0  0  0  0  0  0
   57.8929   33.6711   48.1294 H   0  0  0  0  0  0  0  0  0  0  0  0
   59.1801   35.0607   46.5251 H   0  0  0  0  0  0  0  0  0  0  0  0
   61.5233   34.4549   45.9406 H   0  0  0  0  0  0  0  0  0  0  0  0
   62.5462   32.3944   46.8884 H   0  0  0  0  0  0  0  0  0  0  0  0
   62.4130   30.5130   48.4370 H   0  0  0  0  0  0  0  0  0  0  0  0
   61.2783   28.5125   48.3580 H   0  0  0  0  0  0  0  0  0  0  0  0
   61.3866   29.7858   45.8119 H   0  0  0  0  0  0  0  0  0  0  0  0
   60.0446   29.5521   43.7235 H   0  0  0  0  0  0  0  0  0  0  0  0
   57.6606   28.8196   43.8441 H   0  0  0  0  0  0  0  0  0  0  0  0
   56.6251   28.2999   46.0547 H   0  0  0  0  0  0  0  0  0  0  0  0
   57.9568   28.5346   48.1477 H   0  0  0  0  0  0  0  0  0  0  0  0
  1  2  2  0
  2  3  1  0
  3  4  1  0
  4  5  1  0
  5  6  2  0
  6  7  1  0
  7  8  2  0
  8  9  1  0
  9 10  2  0
  8 11  1  0
 11 12  2  0
 12 13  1  0
 13 14  2  0
 14 15  1  0
 15 16  2  0
 16 17  1  0
 17 18  1  0
 18 19  1  0
 19 20  2  0
 20 21  1  0
 21 22  2  0
 22 23  1  0
 23 24  2  0
 18 25  1  0
 10  5  1  0
 16 11  1  0
 24 19  1  0
 25  7  1  0
  1 26  1  0
  1 27  1  0
  2 28  1  0
  3 29  1  0
  3 30  1  0
 10 31  1  0
 12 32  1  0
 13 33  1  0
 14 34  1  0
 15 35  1  0
 17 36  1  0
 18 37  1  1
 20 38  1  0
 21 39  1  0
 22 40  1  0
 23 41  1  0
 24 42  1  0
M  CHG  1  10   1
M  END
>  <UniqueID>  (34) 
33

>  <SMILES>  (34) 
C=CCSc1nc2c(n[nH+]1)-c1ccccc1N[C@H](c1ccccc1)O2

>  <Energy>  (34) 
59.32574479337817

>  <Genealogy>  (34) 
C=CCSc1nc2c(n[nH+]1)-c1ccccc1NC(c1ccccc1)O2 (protonated)
C=CCSc1nc2c(n[nH+]1)-c1ccccc1N[C@H](c1ccccc1)O2 (chirality)
C=CCSc1nc2c(n[nH+]1)-c1ccccc1N[C@H](c1ccccc1)O2 (3D coordinates assigned)
C=CCSc1nc2c(n[nH+]1)-c1ccccc1N[C@H](c1ccccc1)O2 (nonaromatic ring conformer: 59.32574479337817 kcal/mol)

>  <smiles>  (34) 
C=CCSc1nnc2c(n1)OC(c1ccccc1)Nc1ccccc1-2

>  <score_type>  (34) 
oracle

>  <origin>  (34) 
adg

>  <m_score__min__energy>  (34) 
-6.4000000000000004

>  <m_primary>  (34) 
energy

$$$$
34:0
     RDKit          3D

 29 31  0  0  0  0  0  0  0  0999 V2000
   54.4750   29.6800   45.5950 H   0  0  0  0  0  0  0  0  0  0  0  0
   55.1560   29.3370   44.8820 N   0  0  0  0  0  0  0  0  0  0  0  0
   55.9650   30.1490   44.2850 C   0  0  0  0  0  0  0  0  0  0  0  0
   56.3800   31.3060   44.8360 N   0  0  0  0  0  0  0  0  0  0  0  0
   57.2210   31.9760   44.0010 C   0  0  0  0  0  0  0  0  0  0  0  0
   57.8590   33.2700   44.4000 C   0  0  0  0  0  0  0  0  0  0  0  0
   58.7499   33.4446   43.7788 H   0  0  0  0  0  0  0  0  0  0  0  0
   57.1394   34.0893   44.2552 H   0  0  0  0  0  0  0  0  0  0  0  0
   58.2600   33.2150   45.8370 C   0  0  0  0  0  0  0  0  0  0  0  0
   58.4960   34.2990   46.6000 N   0  0  0  0  0  0  0  0  0  0  0  0
   58.8520   33.8440   47.7910 N   0  0  0  0  0  0  0  0  0  0  0  0
   58.8210   32.5020   47.7030 C   0  0  0  0  0  0  0  0  0  0  0  0
   59.2230   31.3990   49.0530 S   0  0  0  0  0  0  0  0  0  0  0  0
   60.6510   30.6770   48.1840 C   0  0  0  0  0  0  0  0  0  0  0  0
   61.1191   29.9111   48.8199 H   0  0  0  0  0  0  0  0  0  0  0  0
   60.3150   30.2151   47.2439 H   0  0  0  0  0  0  0  0  0  0  0  0
   61.6430   31.7520   47.8860 C   0  0  0  0  0  0  0  0  0  0  0  0
   62.8150   31.7870   48.4280 N   0  0  0  0  0  0  0  0  0  0  0  0
   63.4220   32.9770   47.9430 C   0  0  0  0  0  0  0  0  0  0  0  0
   64.5860   33.3360   48.2580 O   0  0  0  0  0  0  0  0  0  0  0  0
   62.5180   33.7300   47.0380 C   0  0  0  0  0  0  0  0  0  0  0  0
   62.2867   34.7292   47.4356 H   0  0  0  0  0  0  0  0  0  0  0  0
   62.9331   33.9275   46.0386 H   0  0  0  0  0  0  0  0  0  0  0  0
   61.3510   32.8680   47.0460 N   0  0  0  0  0  0  0  0  0  0  0  0
   60.4550   33.0390   46.5390 H   0  0  0  0  0  0  0  0  0  0  0  0
   58.4620   32.1060   46.5070 O   0  0  0  0  0  0  0  0  0  0  0  0
   57.4860   31.3390   42.7900 C   0  0  0  0  0  0  0  0  0  0  0  0
   58.1447   31.7152   41.9934 H   0  0  0  0  0  0  0  0  0  0  0  0
   56.6230   29.8940   42.7580 S   0  0  0  0  0  0  0  0  0  0  0  0
  1  2  1  0
  2  3  2  0
  3  4  1  0
  4  5  1  0
  5  6  1  0
  6  7  1  0
  6  8  1  0
  6  9  1  0
  9 10  2  0
 10 11  1  0
 11 12  2  0
 12 13  1  0
 13 14  1  0
 14 15  1  0
 14 16  1  0
 14 17  1  0
 17 18  2  0
 18 19  1  0
 19 20  2  0
 19 21  1  0
 21 22  1  0
 21 23  1  0
 21 24  1  0
 24 25  1  0
 12 26  1  0
  5 27  2  0
 27 28  1  0
 27 29  1  0
 29  3  1  0
 26  9  1  0
 24 17  1  0
M  CHG  1   4  -1
M  END
>  <UniqueID>  (35) 
34

>  <SMILES>  (35) 
[H]/N=c1/[n-]c(Cc2nnc(SCC3=NC(=O)CN3)o2)cs1

>  <Energy>  (35) 
104.44276182626015

>  <Genealogy>  (35) 
N=c1[n-]c(Cc2nnc(SCC3=NC(=O)CN3)o2)cs1 (protonated)
[H]/N=c1/[n-]c(Cc2nnc(SCC3=NC(=O)CN3)o2)cs1 (cis-trans isomerization)
[H]/N=c1/[n-]c(Cc2nnc(SCC3=NC(=O)CN3)o2)cs1 (3D coordinates assigned)
[H]/N=c1/[n-]c(Cc2nnc(SCC3=NC(=O)CN3)o2)cs1 (nonaromatic ring conformer: 104.44276182626015 kcal/mol)

>  <smiles>  (35) 
N=c1[nH]c(Cc2nnc(SCC3=NC(=O)CN3)o2)cs1

>  <score_type>  (35) 
oracle

>  <origin>  (35) 
adg

>  <m_score__min__energy>  (35) 
-9.5600000000000005

>  <m_primary>  (35) 
energy

$$$$
35:0
     RDKit          3D

 58 63  0  0  0  0  0  0  0  0999 V2000
   61.5533   29.2025   46.2420 H   0  0  0  0  0  0  0  0  0  0  0  0
   60.6200   29.4760   46.7560 C   0  0  0  0  0  0  0  0  0  0  0  0
   59.4850   28.8800   46.3690 C   0  0  0  0  0  0  0  0  0  0  0  0
   58.9990   27.5230   46.6610 C   0  0  0  0  0  0  0  0  0  0  0  0
   59.5950   26.6590   47.3590 O   0  0  0  0  0  0  0  0  0  0  0  0
   57.7580   27.2820   45.9970 N   0  0  0  0  0  0  0  0  0  0  0  0
   56.6650   25.9680   46.2950 S   0  0  0  0  0  0  0  0  0  0  0  0
   56.7490   25.5450   47.7350 O   0  0  0  0  0  0  0  0  0  0  0  0
   55.2650   26.4270   45.9960 O   0  0  0  0  0  0  0  0  0  0  0  0
   57.0940   24.5980   45.2750 C   0  0  0  0  0  0  0  0  0  0  0  0
   58.2200   23.8160   45.5730 C   0  0  0  0  0  0  0  0  0  0  0  0
   58.8462   24.0641   46.4427 H   0  0  0  0  0  0  0  0  0  0  0  0
   58.5480   22.7210   44.7660 C   0  0  0  0  0  0  0  0  0  0  0  0
   59.4292   22.1073   45.0044 H   0  0  0  0  0  0  0  0  0  0  0  0
   57.7570   22.4060   43.6570 C   0  0  0  0  0  0  0  0  0  0  0  0
   58.0162   21.5452   43.0231 H   0  0  0  0  0  0  0  0  0  0  0  0
   56.6370   23.1850   43.3540 C   0  0  0  0  0  0  0  0  0  0  0  0
   56.0154   22.9368   42.4811 H   0  0  0  0  0  0  0  0  0  0  0  0
   56.3050   24.2800   44.1590 C   0  0  0  0  0  0  0  0  0  0  0  0
   55.4241   24.8926   43.9167 H   0  0  0  0  0  0  0  0  0  0  0  0
   57.4630   28.4960   45.3080 C   0  0  0  0  0  0  0  0  0  0  0  0
   56.3270   28.7750   44.5420 C   0  0  0  0  0  0  0  0  0  0  0  0
   55.5379   28.0204   44.4080 H   0  0  0  0  0  0  0  0  0  0  0  0
   56.2190   30.0430   43.9480 C   0  0  0  0  0  0  0  0  0  0  0  0
   55.3382   30.2857   43.3354 H   0  0  0  0  0  0  0  0  0  0  0  0
   57.2310   31.0070   44.1310 C   0  0  0  0  0  0  0  0  0  0  0  0
   57.1345   31.9966   43.6605 H   0  0  0  0  0  0  0  0  0  0  0  0
   58.3630   30.7120   44.9110 C   0  0  0  0  0  0  0  0  0  0  0  0
   59.1538   31.4613   45.0634 H   0  0  0  0  0  0  0  0  0  0  0  0
   58.4580   29.4420   45.4880 C   0  0  0  0  0  0  0  0  0  0  0  0
   60.6850   30.4770   47.8320 C   0  0  0  0  0  0  0  0  0  0  0  0
   60.6820   30.2480   49.2070 C   0  0  0  0  0  0  0  0  0  0  0  0
   60.6290   28.6600   49.9680 Cl  0  0  0  0  0  0  0  0  0  0  0  0
   60.6140   31.4220   49.8850 N   0  0  0  0  0  0  0  0  0  0  0  0
   60.5140   31.5770   51.3400 C   0  0  0  0  0  0  0  0  0  0  0  0
   61.0462   30.7482   51.8298 H   0  0  0  0  0  0  0  0  0  0  0  0
   60.9639   32.5389   51.6271 H   0  0  0  0  0  0  0  0  0  0  0  0
   59.0710   31.5650   51.7740 C   0  0  0  0  0  0  0  0  0  0  0  0
   58.3760   32.7720   51.9590 C   0  0  0  0  0  0  0  0  0  0  0  0
   58.8914   33.7304   51.7985 H   0  0  0  0  0  0  0  0  0  0  0  0
   57.0330   32.7610   52.3460 C   0  0  0  0  0  0  0  0  0  0  0  0
   56.4942   33.7096   52.4870 H   0  0  0  0  0  0  0  0  0  0  0  0
   56.3740   31.5470   52.5540 C   0  0  0  0  0  0  0  0  0  0  0  0
   55.3166   31.5401   52.8571 H   0  0  0  0  0  0  0  0  0  0  0  0
   57.0580   30.3410   52.3770 C   0  0  0  0  0  0  0  0  0  0  0  0
   56.5388   29.3854   52.5424 H   0  0  0  0  0  0  0  0  0  0  0  0
   58.4010   30.3480   51.9900 C   0  0  0  0  0  0  0  0  0  0  0  0
   58.9363   29.3968   51.8538 H   0  0  0  0  0  0  0  0  0  0  0  0
   60.5490   32.3920   48.9440 C   0  0  0  0  0  0  0  0  0  0  0  0
   60.4320   33.7760   49.1260 C   0  0  0  0  0  0  0  0  0  0  0  0
   60.4013   34.2137   50.1347 H   0  0  0  0  0  0  0  0  0  0  0  0
   60.3550   34.5890   47.9820 C   0  0  0  0  0  0  0  0  0  0  0  0
   60.2674   35.6798   48.0936 H   0  0  0  0  0  0  0  0  0  0  0  0
   60.3890   34.0190   46.6920 C   0  0  0  0  0  0  0  0  0  0  0  0
   60.3291   34.6677   45.8057 H   0  0  0  0  0  0  0  0  0  0  0  0
   60.4990   32.6270   46.5330 C   0  0  0  0  0  0  0  0  0  0  0  0
   60.5213   32.1704   45.5325 H   0  0  0  0  0  0  0  0  0  0  0  0
   60.5790   31.8430   47.6830 C   0  0  0  0  0  0  0  0  0  0  0  0
  1  2  1  0
  2  3  2  0
  3  4  1  0
  4  5  2  0
  4  6  1  0
  6  7  1  0
  7  8  2  0
  7  9  2  0
  7 10  1  0
 10 11  2  0
 11 12  1  0
 11 13  1  0
 13 14  1  0
 13 15  2  0
 15 16  1  0
 15 17  1  0
 17 18  1  0
 17 19  2  0
 19 20  1  0
  6 21  1  0
 21 22  2  0
 22 23  1  0
 22 24  1  0
 24 25  1  0
 24 26  2  0
 26 27  1  0
 26 28  1  0
 28 29  1  0
 28 30  2  0
  2 31  1  0
 31 32  2  0
 32 33  1  0
 32 34  1  0
 34 35  1  0
 35 36  1  0
 35 37  1  0
 35 38  1  0
 38 39  2  0
 39 40  1  0
 39 41  1  0
 41 42  1  0
 41 43  2  0
 43 44  1  0
 43 45  1  0
 45 46  1  0
 45 47  2  0
 47 48  1  0
 34 49  1  0
 49 50  2  0
 50 51  1  0
 50 52  1  0
 52 53  1  0
 52 54  2  0
 54 55  1  0
 54 56  1  0
 56 57  1  0
 56 58  2  0
 30  3  1  0
 58 31  1  0
 19 10  1  0
 30 21  1  0
 47 38  1  0
 58 49  1  0
M  END
>  <UniqueID>  (36) 
35

>  <SMILES>  (36) 
O=C1/C(=C\c2c(Cl)n(Cc3ccccc3)c3ccccc23)c2ccccc2N1S(=O)(=O)c1ccccc1

>  <Energy>  (36) 
139.43931932835017

>  <Genealogy>  (36) 
O=C1/C(=C\c2c(Cl)n(Cc3ccccc3)c3ccccc23)c2ccccc2N1S(=O)(=O)c1ccccc1 (cis-trans isomerization)
O=C1/C(=C\c2c(Cl)n(Cc3ccccc3)c3ccccc23)c2ccccc2N1S(=O)(=O)c1ccccc1 (3D coordinates assigned)
O=C1/C(=C\c2c(Cl)n(Cc3ccccc3)c3ccccc23)c2ccccc2N1S(=O)(=O)c1ccccc1 (nonaromatic ring conformer: 139.43931932835017 kcal/mol)

>  <smiles>  (36) 
O=C1C(=Cc2c(Cl)n(Cc3ccccc3)c3ccccc23)c2ccccc2N1S(=O)(=O)c1ccccc1

>  <score_type>  (36) 
oracle

>  <origin>  (36) 
adg

>  <m_score__min__energy>  (36) 
-11.1

>  <m_primary>  (36) 
energy

$$$$
36:0
     RDKit          3D

 73 76  0  0  0  0  0  0  0  0999 V2000
   57.7600   31.6280   42.9530 C   0  0  0  0  0  0  0  0  0  0  0  0
   57.6050   32.9450   43.4820 O   0  0  0  0  0  0  0  0  0  0  0  0
   58.1390   33.3770   44.7060 C   0  0  0  0  0  0  0  0  0  0  0  0
   57.5240   32.9420   45.8870 C   0  0  0  0  0  0  0  0  0  0  0  0
   58.0150   33.3460   47.1340 C   0  0  0  0  0  0  0  0  0  0  0  0
   59.1150   34.2100   47.2150 C   0  0  0  0  0  0  0  0  0  0  0  0
   59.6410   34.6040   48.5350 C   0  0  0  0  0  0  0  0  0  0  0  0
   60.7440   34.1000   49.1140 C   0  0  0  0  0  0  0  0  0  0  0  0
   61.6410   33.0650   48.5260 C   0  0  0  0  0  0  0  0  0  0  0  0
   62.8710   33.2960   48.3990 O   0  0  0  0  0  0  0  0  0  0  0  0
   61.1240   31.7730   48.1330 N   0  0  0  0  0  0  0  0  0  0  0  0
   61.9240   30.9200   47.2370 C   0  0  0  0  0  0  0  0  0  0  0  0
   61.0210   30.0470   46.3550 C   0  0  0  0  0  0  0  0  0  0  0  0
   59.9430   29.4200   47.1280 N   0  0  0  0  0  0  0  0  0  0  0  0
   59.1780   28.3580   46.5340 C   0  0  0  0  0  0  0  0  0  0  0  0
   59.5770   27.0230   46.7030 C   0  0  0  0  0  0  0  0  0  0  0  0
   58.8320   25.9850   46.1310 C   0  0  0  0  0  0  0  0  0  0  0  0
   57.6660   26.2730   45.4100 C   0  0  0  0  0  0  0  0  0  0  0  0
   56.8900   25.2060   44.8490 N   0  0  0  0  0  0  0  0  0  0  0  0
   57.4250   24.0740   44.1010 C   0  0  0  0  0  0  0  0  0  0  0  0
   56.2360   23.0730   43.9820 C   0  0  1  0  0  0  0  0  0  0  0  0
   56.5750   21.6600   44.4700 C   0  0  0  0  0  0  0  0  0  0  0  0
   55.9880   21.4320   45.7480 O   0  0  0  0  0  0  0  0  0  0  0  0
   56.6480   21.6500   46.9670 C   0  0  0  0  0  0  0  0  0  0  0  0
   57.7520   21.0830   47.2040 O   0  0  0  0  0  0  0  0  0  0  0  0
   56.0400   22.5670   48.0100 C   0  0  0  0  0  0  0  0  0  0  0  0
   54.5610   22.8620   47.6830 C   0  0  0  0  0  0  0  0  0  0  0  0
   56.8230   23.8920   48.0370 C   0  0  0  0  0  0  0  0  0  0  0  0
   56.1210   21.8820   49.3850 C   0  0  0  0  0  0  0  0  0  0  0  0
   55.1910   23.6300   44.7740 O   0  0  0  0  0  0  0  0  0  0  0  0
   55.5760   24.8680   45.2410 C   0  0  0  0  0  0  0  0  0  0  0  0
   54.8350   25.6110   45.9340 O   0  0  0  0  0  0  0  0  0  0  0  0
   57.2650   27.6040   45.2400 C   0  0  0  0  0  0  0  0  0  0  0  0
   58.0190   28.6450   45.7930 C   0  0  0  0  0  0  0  0  0  0  0  0
   57.5980   29.9280   45.6400 F   0  0  0  0  0  0  0  0  0  0  0  0
   59.7780   29.7270   48.5510 C   0  0  0  0  0  0  0  0  0  0  0  0
   59.9120   31.2350   48.7740 C   0  0  0  0  0  0  0  0  0  0  0  0
   59.7480   34.6360   46.0350 C   0  0  0  0  0  0  0  0  0  0  0  0
   59.2620   34.2250   44.7880 C   0  0  0  0  0  0  0  0  0  0  0  0
   57.8447   30.9081   43.7804 H   0  0  0  0  0  0  0  0  0  0  0  0
   56.8854   31.3756   42.3355 H   0  0  0  0  0  0  0  0  0  0  0  0
   58.6693   31.5856   42.3355 H   0  0  0  0  0  0  0  0  0  0  0  0
   56.6486   32.2780   45.8341 H   0  0  0  0  0  0  0  0  0  0  0  0
   57.5349   32.9834   48.0549 H   0  0  0  0  0  0  0  0  0  0  0  0
   59.0852   35.3732   49.0911 H   0  0  0  0  0  0  0  0  0  0  0  0
   61.0082   34.4853   50.1099 H   0  0  0  0  0  0  0  0  0  0  0  0
   62.5461   31.5590   46.5931 H   0  0  0  0  0  0  0  0  0  0  0  0
   62.5546   30.2612   47.8521 H   0  0  0  0  0  0  0  0  0  0  0  0
   60.5762   30.6754   45.5693 H   0  0  0  0  0  0  0  0  0  0  0  0
   61.6388   29.2473   45.9205 H   0  0  0  0  0  0  0  0  0  0  0  0
   60.4794   26.7913   47.2877 H   0  0  0  0  0  0  0  0  0  0  0  0
   59.1625   24.9423   46.2478 H   0  0  0  0  0  0  0  0  0  0  0  0
   57.7627   24.3938   43.1042 H   0  0  0  0  0  0  0  0  0  0  0  0
   58.2966   23.6239   44.5987 H   0  0  0  0  0  0  0  0  0  0  0  0
   55.9576   22.9492   42.9250 H   0  0  0  0  0  0  0  0  0  0  0  0
   56.1839   20.9233   43.7528 H   0  0  0  0  0  0  0  0  0  0  0  0
   57.6673   21.5583   44.5510 H   0  0  0  0  0  0  0  0  0  0  0  0
   53.9941   22.9751   48.6188 H   0  0  0  0  0  0  0  0  0  0  0  0
   54.4930   23.7914   47.0985 H   0  0  0  0  0  0  0  0  0  0  0  0
   54.1417   22.0298   47.0985 H   0  0  0  0  0  0  0  0  0  0  0  0
   57.0003   24.1920   49.0804 H   0  0  0  0  0  0  0  0  0  0  0  0
   57.7874   23.7585   47.5250 H   0  0  0  0  0  0  0  0  0  0  0  0
   56.2409   24.6724   47.5250 H   0  0  0  0  0  0  0  0  0  0  0  0
   56.0315   22.6393   50.1778 H   0  0  0  0  0  0  0  0  0  0  0  0
   55.3028   21.1530   49.4802 H   0  0  0  0  0  0  0  0  0  0  0  0
   57.0867   21.3639   49.4802 H   0  0  0  0  0  0  0  0  0  0  0  0
   56.3529   27.8322   44.6690 H   0  0  0  0  0  0  0  0  0  0  0  0
   58.7832   29.3955   48.8833 H   0  0  0  0  0  0  0  0  0  0  0  0
   60.5545   29.2037   49.1282 H   0  0  0  0  0  0  0  0  0  0  0  0
   59.0306   31.7382   48.3497 H   0  0  0  0  0  0  0  0  0  0  0  0
   59.9858   31.4172   49.8563 H   0  0  0  0  0  0  0  0  0  0  0  0
   60.6276   35.2941   46.0912 H   0  0  0  0  0  0  0  0  0  0  0  0
   59.7590   34.5655   43.8676 H   0  0  0  0  0  0  0  0  0  0  0  0
  1  2  1  0
  2  3  1  0
  3  4  2  0
  4  5  1  0
  5  6  2  0
  6  7  1  0
  7  8  2  3
  8  9  1  0
  9 10  2  0
  9 11  1  0
 11 12  1  0
 12 13  1  0
 13 14  1  0
 14 15  1  0
 15 16  2  0
 16 17  1  0
 17 18  2  0
 18 19  1  0
 19 20  1  0
 20 21  1  0
 21 22  1  0
 22 23  1  0
 23 24  1  0
 24 25  2  0
 24 26  1  0
 26 27  1  0
 26 28  1  0
 26 29  1  0
 21 30  1  0
 30 31  1  0
 31 32  2  0
 18 33  1  0
 33 34  2  0
 34 35  1  0
 14 36  1  0
 36 37  1  0
  6 38  1  0
 38 39  2  0
 39  3  1  0
 37 11  1  0
 34 15  1  0
 31 19  1  0
  1 40  1  0
  1 41  1  0
  1 42  1  0
  4 43  1  0
  5 44  1  0
  7 45  1  0
  8 46  1  0
 12 47  1  0
 12 48  1  0
 13 49  1  0
 13 50  1  0
 16 51  1  0
 17 52  1  0
 20 53  1  0
 20 54  1  0
 21 55  1  6
 22 56  1  0
 22 57  1  0
 27 58  1  0
 27 59  1  0
 27 60  1  0
 28 61  1  0
 28 62  1  0
 28 63  1  0
 29 64  1  0
 29 65  1  0
 29 66  1  0
 33 67  1  0
 36 68  1  0
 36 69  1  0
 37 70  1  0
 37 71  1  0
 38 72  1  0
 39 73  1  0
M  END
>  <UniqueID>  (37) 
36

>  <SMILES>  (37) 
COc1ccc(C=CC(=O)N2CCN(c3ccc(N4C[C@@H](COC(=O)C(C)(C)C)OC4=O)cc3F)CC2)cc1

>  <Energy>  (37) 
104.56059422245471

>  <Genealogy>  (37) 
COc1ccc(C=CC(=O)N2CCN(c3ccc(N4C[C@@H](COC(=O)C(C)(C)C)OC4=O)cc3F)CC2)cc1 (chirality)
COc1ccc(C=CC(=O)N2CCN(c3ccc(N4C[C@@H](COC(=O)C(C)(C)C)OC4=O)cc3F)CC2)cc1 (3D coordinates assigned)
COc1ccc(C=CC(=O)N2CCN(c3ccc(N4C[C@@H](COC(=O)C(C)(C)C)OC4=O)cc3F)CC2)cc1 (nonaromatic ring conformer: 104.56059422245471 kcal/mol)

>  <smiles>  (37) 
COc1ccc(C=CC(=O)N2CCN(c3ccc(N4CC(COC(=O)C(C)(C)C)OC4=O)cc3F)CC2)cc1

>  <score_type>  (37) 
oracle

>  <origin>  (37) 
adg

>  <m_score__min__energy>  (37) 
-10.199999999999999

>  <m_primary>  (37) 
energy

$$$$
37:0
     RDKit          3D

 44 46  0  0  0  0  0  0  0  0999 V2000
   55.8630   29.7310   43.1930 O   0  0  0  0  0  0  0  0  0  0  0  0
   56.2260   29.7300   44.4020 C   0  0  0  0  0  0  0  0  0  0  0  0
   55.9040   28.6280   45.2520 N   0  0  0  0  0  0  0  0  0  0  0  0
   56.6640   27.3810   45.3010 C   0  0  0  0  0  0  0  0  0  0  0  0
   57.6670   27.3830   46.4570 C   0  0  0  0  0  0  0  0  0  0  0  0
   58.9310   28.6490   46.2730 S   0  0  0  0  0  0  0  0  0  0  0  0
   59.2730   28.8740   44.8260 O   0  0  0  0  0  0  0  0  0  0  0  0
   60.1700   28.1920   46.9910 O   0  0  0  0  0  0  0  0  0  0  0  0
   58.3930   30.1390   46.9890 N   0  0  0  0  0  0  0  0  0  0  0  0
   59.0250   30.3260   48.2970 C   0  0  0  0  0  0  0  0  0  0  0  0
   60.2690   31.1400   48.1410 C   0  0  0  0  0  0  0  0  0  0  0  0
   60.4690   31.9710   47.0820 N   0  0  0  0  0  0  0  0  0  0  0  0
   61.6690   32.4990   47.3580 C   0  0  0  0  0  0  0  0  0  0  0  0
   62.4070   33.4090   46.6090 C   0  0  0  0  0  0  0  0  0  0  0  0
   63.6610   33.7920   47.1180 C   0  0  0  0  0  0  0  0  0  0  0  0
   64.1160   33.2490   48.3440 C   0  0  0  0  0  0  0  0  0  0  0  0
   63.3460   32.3550   49.0350 N   0  0  0  0  0  0  0  0  0  0  0  0
   62.1400   32.0010   48.5260 C   0  0  0  0  0  0  0  0  0  0  0  0
   61.2720   31.1330   49.0610 N   0  0  0  0  0  0  0  0  0  0  0  0
   56.9600   30.7970   44.9270 O   0  0  0  0  0  0  0  0  0  0  0  0
   57.4410   31.8840   44.1380 C   0  0  0  0  0  0  0  0  0  0  0  0
   58.0220   32.9570   45.0190 C   0  0  0  0  0  0  0  0  0  0  0  0
   57.6080   33.0670   46.3560 C   0  0  0  0  0  0  0  0  0  0  0  0
   58.1670   34.0420   47.1890 C   0  0  0  0  0  0  0  0  0  0  0  0
   59.1330   34.9190   46.6880 C   0  0  0  0  0  0  0  0  0  0  0  0
   59.5280   34.8360   45.3510 C   0  0  0  0  0  0  0  0  0  0  0  0
   58.9740   33.8580   44.5160 C   0  0  0  0  0  0  0  0  0  0  0  0
   55.9659   26.5415   45.4344 H   0  0  0  0  0  0  0  0  0  0  0  0
   57.2222   27.2787   44.3587 H   0  0  0  0  0  0  0  0  0  0  0  0
   57.1224   27.5626   47.3957 H   0  0  0  0  0  0  0  0  0  0  0  0
   58.1721   26.4058   46.4618 H   0  0  0  0  0  0  0  0  0  0  0  0
   58.7120   30.9080   46.3540 H   0  0  0  0  0  0  0  0  0  0  0  0
   58.3279   30.8478   48.9691 H   0  0  0  0  0  0  0  0  0  0  0  0
   59.2816   29.3446   48.7224 H   0  0  0  0  0  0  0  0  0  0  0  0
   62.0263   33.8121   45.6590 H   0  0  0  0  0  0  0  0  0  0  0  0
   64.2854   34.5101   46.5662 H   0  0  0  0  0  0  0  0  0  0  0  0
   65.0961   33.5486   48.7435 H   0  0  0  0  0  0  0  0  0  0  0  0
   58.2193   31.5174   43.4525 H   0  0  0  0  0  0  0  0  0  0  0  0
   56.6021   32.3079   43.5666 H   0  0  0  0  0  0  0  0  0  0  0  0
   56.8411   32.3839   46.7501 H   0  0  0  0  0  0  0  0  0  0  0  0
   57.8462   34.1184   48.2384 H   0  0  0  0  0  0  0  0  0  0  0  0
   59.5828   35.6757   47.3476 H   0  0  0  0  0  0  0  0  0  0  0  0
   60.2747   35.5393   44.9537 H   0  0  0  0  0  0  0  0  0  0  0  0
   59.2856   33.7954   43.4629 H   0  0  0  0  0  0  0  0  0  0  0  0
  1  2  2  0
  2  3  1  0
  3  4  1  0
  4  5  1  0
  5  6  1  0
  6  7  2  0
  6  8  2  0
  6  9  1  0
  9 10  1  0
 10 11  1  0
 11 12  2  0
 12 13  1  0
 13 14  2  0
 14 15  1  0
 15 16  2  0
 16 17  1  0
 17 18  2  0
 18 19  1  0
  2 20  1  0
 20 21  1  0
 21 22  1  0
 22 23  2  0
 23 24  1  0
 24 25  2  0
 25 26  1  0
 26 27  2  0
 19 11  1  0
 27 22  1  0
 18 13  1  0
  4 28  1  0
  4 29  1  0
  5 30  1  0
  5 31  1  0
  9 32  1  0
 10 33  1  0
 10 34  1  0
 14 35  1  0
 15 36  1  0
 16 37  1  0
 21 38  1  0
 21 39  1  0
 23 40  1  0
 24 41  1  0
 25 42  1  0
 26 43  1  0
 27 44  1  0
M  CHG  2   3  -1  19  -1
M  END
>  <UniqueID>  (38) 
37

>  <SMILES>  (38) 
O=C([N-]CCS(=O)(=O)NCc1nc2cccnc2[n-]1)OCc1ccccc1

>  <Energy>  (38) 
66.52155451789923

>  <Genealogy>  (38) 
O=C([N-]CCS(=O)(=O)NCc1nc2cccnc2[n-]1)OCc1ccccc1 (protonated)
O=C([N-]CCS(=O)(=O)NCc1nc2cccnc2[n-]1)OCc1ccccc1 (3D coordinates assigned)
O=C([N-]CCS(=O)(=O)NCc1nc2cccnc2[n-]1)OCc1ccccc1 (optimized conformer: 66.52155451789923 kcal/mol)

>  <smiles>  (38) 
O=C(NCCS(=O)(=O)NCc1nc2cccnc2[nH]1)OCc1ccccc1

>  <score_type>  (38) 
oracle

>  <origin>  (38) 
adg

>  <m_score__min__energy>  (38) 
-11.289999999999999

>  <m_primary>  (38) 
energy

$$$$
38:0
     RDKit          3D

 31 33  0  0  0  0  0  0  0  0999 V2000
   55.5300   29.7270   42.9870 O   0  0  0  0  0  0  0  0  0  0  0  0
   56.3660   29.8480   43.9220 C   0  0  0  0  0  0  0  0  0  0  0  0
   56.9160   31.0950   44.2130 C   0  0  0  0  0  0  0  0  0  0  0  0
   57.8370   31.2210   45.2600 C   0  0  0  0  0  0  0  0  0  0  0  0
   58.3390   32.5700   45.6170 C   0  0  0  0  0  0  0  0  0  0  0  0
   58.8100   33.4370   44.6150 C   0  0  0  0  0  0  0  0  0  0  0  0
   59.2850   34.7090   44.9500 C   0  0  0  0  0  0  0  0  0  0  0  0
   59.2860   35.1280   46.2830 C   0  0  0  0  0  0  0  0  0  0  0  0
   58.8080   34.2770   47.2840 C   0  0  0  0  0  0  0  0  0  0  0  0
   58.3320   33.0040   46.9540 C   0  0  0  0  0  0  0  0  0  0  0  0
   58.2040   30.0550   45.9740 C   0  0  0  0  0  0  0  0  0  0  0  0
   59.2230   30.0570   47.0490 C   0  0  0  0  0  0  0  0  0  0  0  0
   58.8990   29.5510   48.3180 C   0  0  0  0  0  0  0  0  0  0  0  0
   59.8560   29.5380   49.3380 C   0  0  0  0  0  0  0  0  0  0  0  0
   61.1460   30.0170   49.0940 C   0  0  0  0  0  0  0  0  0  0  0  0
   61.4840   30.5040   47.8290 C   0  0  0  0  0  0  0  0  0  0  0  0
   60.5300   30.5170   46.8060 C   0  0  0  0  0  0  0  0  0  0  0  0
   57.6200   28.8700   45.6450 N   0  0  0  0  0  0  0  0  0  0  0  0
   56.7290   28.7670   44.6580 N   0  0  0  0  0  0  0  0  0  0  0  0
   56.6276   31.9770   43.6223 H   0  0  0  0  0  0  0  0  0  0  0  0
   58.8048   33.1135   43.5637 H   0  0  0  0  0  0  0  0  0  0  0  0
   59.6584   35.3806   44.1629 H   0  0  0  0  0  0  0  0  0  0  0  0
   59.6630   36.1277   46.5449 H   0  0  0  0  0  0  0  0  0  0  0  0
   58.8063   34.6092   48.3326 H   0  0  0  0  0  0  0  0  0  0  0  0
   57.9507   32.3399   47.7437 H   0  0  0  0  0  0  0  0  0  0  0  0
   57.8879   29.1630   48.5109 H   0  0  0  0  0  0  0  0  0  0  0  0
   59.5930   29.1503   50.3333 H   0  0  0  0  0  0  0  0  0  0  0  0
   61.8959   30.0106   49.8987 H   0  0  0  0  0  0  0  0  0  0  0  0
   62.5008   30.8774   47.6373 H   0  0  0  0  0  0  0  0  0  0  0  0
   60.8030   30.8885   45.8073 H   0  0  0  0  0  0  0  0  0  0  0  0
   56.3140   27.8310   44.4490 H   0  0  0  0  0  0  0  0  0  0  0  0
  1  2  2  0
  2  3  1  0
  3  4  2  0
  4  5  1  0
  5  6  2  0
  6  7  1  0
  7  8  2  0
  8  9  1  0
  9 10  2  0
  4 11  1  0
 11 12  1  0
 12 13  2  0
 13 14  1  0
 14 15  2  0
 15 16  1  0
 16 17  2  0
 11 18  2  0
 18 19  1  0
 19  2  1  0
 10  5  1  0
 17 12  1  0
  3 20  1  0
  6 21  1  0
  7 22  1  0
  8 23  1  0
  9 24  1  0
 10 25  1  0
 13 26  1  0
 14 27  1  0
 15 28  1  0
 16 29  1  0
 17 30  1  0
 19 31  1  0
M  END
>  <UniqueID>  (39) 
38

>  <SMILES>  (39) 
O=c1cc(-c2ccccc2)c(-c2ccccc2)n[nH]1

>  <Energy>  (39) 
46.74042553977728

>  <Genealogy>  (39) 
O=c1cc(-c2ccccc2)c(-c2ccccc2)n[nH]1 (3D coordinates assigned)
O=c1cc(-c2ccccc2)c(-c2ccccc2)n[nH]1 (optimized conformer: 46.74042553977728 kcal/mol)

>  <smiles>  (39) 
O=c1cc(-c2ccccc2)c(-c2ccccc2)n[nH]1

>  <score_type>  (39) 
oracle

>  <origin>  (39) 
adg

>  <m_score__min__energy>  (39) 
-7.0199999999999996

>  <m_primary>  (39) 
energy

$$$$
39:0
     RDKit          3D

 48 50  0  0  0  0  0  0  0  0999 V2000
   62.8640   32.0200   47.8860 C   0  0  0  0  0  0  0  0  0  0  0  0
   62.4930   33.7420   47.6240 S   0  0  0  0  0  0  0  0  0  0  0  0
   63.0290   34.5350   48.7840 O   0  0  0  0  0  0  0  0  0  0  0  0
   63.1480   34.2310   46.3630 O   0  0  0  0  0  0  0  0  0  0  0  0
   60.7780   33.9680   47.5400 N   0  0  0  0  0  0  0  0  0  0  0  0
   59.8760   33.2180   46.7160 C   0  0  0  0  0  0  0  0  0  0  0  0
   59.5890   31.8930   47.0710 C   0  0  0  0  0  0  0  0  0  0  0  0
   58.7340   31.1170   46.2840 C   0  0  0  0  0  0  0  0  0  0  0  0
   58.1470   31.6610   45.1350 C   0  0  0  0  0  0  0  0  0  0  0  0
   57.1170   30.6670   44.1100 S   0  0  0  0  0  0  0  0  0  0  0  0
   56.8500   31.4070   42.8300 O   0  0  0  0  0  0  0  0  0  0  0  0
   55.8120   30.3850   44.7980 O   0  0  0  0  0  0  0  0  0  0  0  0
   57.9000   29.1600   43.7480 N   0  0  0  0  0  0  0  0  0  0  0  0
   58.4690   28.2920   44.7450 C   0  0  0  0  0  0  0  0  0  0  0  0
   59.8390   28.3840   45.0300 C   0  0  0  0  0  0  0  0  0  0  0  0
   60.4190   27.5570   45.9940 C   0  0  0  0  0  0  0  0  0  0  0  0
   59.6370   26.6300   46.6870 C   0  0  0  0  0  0  0  0  0  0  0  0
   58.2630   26.5220   46.4160 C   0  0  0  0  0  0  0  0  0  0  0  0
   57.4220   25.5800   47.0950 N   0  0  0  0  0  0  0  0  0  0  0  0
   55.9630   24.8960   46.4550 S   0  0  0  0  0  0  0  0  0  0  0  0
   55.0650   26.0090   45.9890 O   0  0  0  0  0  0  0  0  0  0  0  0
   55.2620   24.1270   47.5370 O   0  0  0  0  0  0  0  0  0  0  0  0
   56.3420   23.8020   45.1310 C   0  0  0  0  0  0  0  0  0  0  0  0
   55.5790   23.8150   43.9550 C   0  0  0  0  0  0  0  0  0  0  0  0
   55.9070   22.9640   42.8940 C   0  0  0  0  0  0  0  0  0  0  0  0
   56.9930   22.0910   43.0100 C   0  0  0  0  0  0  0  0  0  0  0  0
   57.7510   22.0670   44.1850 C   0  0  0  0  0  0  0  0  0  0  0  0
   57.4290   22.9220   45.2440 C   0  0  0  0  0  0  0  0  0  0  0  0
   57.6890   27.3480   45.4400 C   0  0  0  0  0  0  0  0  0  0  0  0
   58.4050   32.9960   44.7950 C   0  0  0  0  0  0  0  0  0  0  0  0
   59.2690   33.7700   45.5740 C   0  0  0  0  0  0  0  0  0  0  0  0
   62.9082   31.8146   48.9658 H   0  0  0  0  0  0  0  0  0  0  0  0
   62.0785   31.4017   47.4270 H   0  0  0  0  0  0  0  0  0  0  0  0
   63.8344   31.7800   47.4270 H   0  0  0  0  0  0  0  0  0  0  0  0
   60.0403   31.4605   47.9762 H   0  0  0  0  0  0  0  0  0  0  0  0
   58.5215   30.0757   46.5679 H   0  0  0  0  0  0  0  0  0  0  0  0
   58.0310   28.9280   42.7390 H   0  0  0  0  0  0  0  0  0  0  0  0
   60.4612   29.1130   44.4902 H   0  0  0  0  0  0  0  0  0  0  0  0
   61.4950   27.6357   46.2084 H   0  0  0  0  0  0  0  0  0  0  0  0
   60.0985   25.9827   47.4472 H   0  0  0  0  0  0  0  0  0  0  0  0
   54.7199   24.4963   43.8662 H   0  0  0  0  0  0  0  0  0  0  0  0
   55.3111   22.9817   41.9695 H   0  0  0  0  0  0  0  0  0  0  0  0
   57.2515   21.4221   42.1759 H   0  0  0  0  0  0  0  0  0  0  0  0
   58.6012   21.3751   44.2764 H   0  0  0  0  0  0  0  0  0  0  0  0
   58.0284   22.9045   46.1662 H   0  0  0  0  0  0  0  0  0  0  0  0
   56.6162   27.2577   45.2142 H   0  0  0  0  0  0  0  0  0  0  0  0
   57.9243   33.4372   43.9094 H   0  0  0  0  0  0  0  0  0  0  0  0
   59.4748   34.8135   45.2933 H   0  0  0  0  0  0  0  0  0  0  0  0
  1  2  1  0
  2  3  2  0
  2  4  2  0
  2  5  1  0
  5  6  1  0
  6  7  2  0
  7  8  1  0
  8  9  2  0
  9 10  1  0
 10 11  2  0
 10 12  2  0
 10 13  1  0
 13 14  1  0
 14 15  2  0
 15 16  1  0
 16 17  2  0
 17 18  1  0
 18 19  1  0
 19 20  1  0
 20 21  2  0
 20 22  2  0
 20 23  1  0
 23 24  2  0
 24 25  1  0
 25 26  2  0
 26 27  1  0
 27 28  2  0
 18 29  2  0
  9 30  1  0
 30 31  2  0
 31  6  1  0
 29 14  1  0
 28 23  1  0
  1 32  1  0
  1 33  1  0
  1 34  1  0
  7 35  1  0
  8 36  1  0
 13 37  1  0
 15 38  1  0
 16 39  1  0
 17 40  1  0
 24 41  1  0
 25 42  1  0
 26 43  1  0
 27 44  1  0
 28 45  1  0
 29 46  1  0
 30 47  1  0
 31 48  1  0
M  CHG  2   5  -1  19  -1
M  END
>  <UniqueID>  (40) 
39

>  <SMILES>  (40) 
CS(=O)(=O)[N-]c1ccc(S(=O)(=O)Nc2cccc([N-]S(=O)(=O)c3ccccc3)c2)cc1

>  <Energy>  (40) 
53.5969729121445

>  <Genealogy>  (40) 
CS(=O)(=O)[N-]c1ccc(S(=O)(=O)Nc2cccc([N-]S(=O)(=O)c3ccccc3)c2)cc1 (protonated)
CS(=O)(=O)[N-]c1ccc(S(=O)(=O)Nc2cccc([N-]S(=O)(=O)c3ccccc3)c2)cc1 (3D coordinates assigned)
CS(=O)(=O)[N-]c1ccc(S(=O)(=O)Nc2cccc([N-]S(=O)(=O)c3ccccc3)c2)cc1 (optimized conformer: 53.5969729121445 kcal/mol)

>  <smiles>  (40) 
CS(=O)(=O)Nc1ccc(S(=O)(=O)Nc2cccc(NS(=O)(=O)c3ccccc3)c2)cc1

>  <score_type>  (40) 
oracle

>  <origin>  (40) 
adg

>  <m_score__min__energy>  (40) 
-13.18

>  <m_primary>  (40) 
energy

$$$$
40:0
     RDKit          3D

 38 40  0  0  0  0  0  0  0  0999 V2000
   55.2970   26.4230   45.9950 N   0  0  0  0  0  0  0  0  0  0  0  0
   57.0050   26.1660   46.0500 S   0  0  0  0  0  0  0  0  0  0  0  0
   57.4140   25.7310   47.4280 O   0  0  0  0  0  0  0  0  0  0  0  0
   57.3660   25.0900   45.0630 O   0  0  0  0  0  0  0  0  0  0  0  0
   57.8330   27.6640   45.6450 C   0  0  0  0  0  0  0  0  0  0  0  0
   59.2300   27.6990   45.5300 C   0  0  0  0  0  0  0  0  0  0  0  0
   59.8760   28.8900   45.1900 C   0  0  0  0  0  0  0  0  0  0  0  0
   59.1330   30.0540   44.9790 C   0  0  0  0  0  0  0  0  0  0  0  0
   57.7410   30.0410   45.1280 C   0  0  0  0  0  0  0  0  0  0  0  0
   57.0040   31.2420   44.8690 N   0  0  0  0  0  0  0  0  0  0  0  0
   57.3600   32.5680   45.2830 C   0  0  0  0  0  0  0  0  0  0  0  0
   56.5260   33.2290   45.9550 O   0  0  0  0  0  0  0  0  0  0  0  0
   58.6060   33.2470   44.7770 C   0  0  0  0  0  0  0  0  0  0  0  0
   59.1550   34.5750   45.9060 S   0  0  0  0  0  0  0  0  0  0  0  0
   60.4680   33.6090   46.6570 C   0  0  0  0  0  0  0  0  0  0  0  0
   61.7710   33.9020   46.3820 N   0  0  0  0  0  0  0  0  0  0  0  0
   62.7880   33.1580   46.9080 C   0  0  0  0  0  0  0  0  0  0  0  0
   63.9820   33.4540   46.6450 O   0  0  0  0  0  0  0  0  0  0  0  0
   62.5130   32.0910   47.7100 N   0  0  0  0  0  0  0  0  0  0  0  0
   61.2210   31.7870   47.9930 C   0  0  0  0  0  0  0  0  0  0  0  0
   60.1900   32.5260   47.4910 C   0  0  0  0  0  0  0  0  0  0  0  0
   58.8720   32.0010   47.9180 C   0  0  0  0  0  0  0  0  0  0  0  0
   59.2250   30.7730   48.7830 C   0  0  0  0  0  0  0  0  0  0  0  0
   60.7610   30.6450   48.8100 C   0  0  0  0  0  0  0  0  0  0  0  0
   57.0910   28.8350   45.4370 C   0  0  0  0  0  0  0  0  0  0  0  0
   55.1430   27.4560   46.0110 H   0  0  0  0  0  0  0  0  0  0  0  0
   59.8184   26.7868   45.7079 H   0  0  0  0  0  0  0  0  0  0  0  0
   60.9711   28.9113   45.0883 H   0  0  0  0  0  0  0  0  0  0  0  0
   59.6442   30.9855   44.6944 H   0  0  0  0  0  0  0  0  0  0  0  0
   59.4084   32.4999   44.6879 H   0  0  0  0  0  0  0  0  0  0  0  0
   58.3789   33.6984   43.7999 H   0  0  0  0  0  0  0  0  0  0  0  0
   58.3243   32.7508   48.5077 H   0  0  0  0  0  0  0  0  0  0  0  0
   58.2202   31.7487   47.0686 H   0  0  0  0  0  0  0  0  0  0  0  0
   58.8426   30.9121   49.8050 H   0  0  0  0  0  0  0  0  0  0  0  0
   58.7698   29.8632   48.3646 H   0  0  0  0  0  0  0  0  0  0  0  0
   61.1430   30.7194   49.8389 H   0  0  0  0  0  0  0  0  0  0  0  0
   61.1153   29.6765   48.4274 H   0  0  0  0  0  0  0  0  0  0  0  0
   55.9942   28.8092   45.5162 H   0  0  0  0  0  0  0  0  0  0  0  0
  1  2  1  0
  2  3  2  0
  2  4  2  0
  2  5  1  0
  5  6  2  0
  6  7  1  0
  7  8  2  0
  8  9  1  0
  9 10  1  0
 10 11  1  0
 11 12  2  0
 11 13  1  0
 13 14  1  0
 14 15  1  0
 15 16  1  0
 16 17  1  0
 17 18  2  0
 17 19  1  0
 19 20  2  0
 20 21  1  0
 21 22  1  0
 22 23  1  0
 23 24  1  0
  9 25  2  0
 25  5  1  0
 21 15  2  0
 24 20  1  0
  1 26  1  0
  6 27  1  0
  7 28  1  0
  8 29  1  0
 13 30  1  0
 13 31  1  0
 22 32  1  0
 22 33  1  0
 23 34  1  0
 23 35  1  0
 24 36  1  0
 24 37  1  0
 25 38  1  0
M  CHG  3   1  -1  10  -1  16  -1
M  END
>  <UniqueID>  (41) 
40

>  <SMILES>  (41) 
[NH-]S(=O)(=O)c1cccc([N-]C(=O)CSc2[n-]c(=O)nc3c2CCC3)c1

>  <Energy>  (41) 
46.91768600239642

>  <Genealogy>  (41) 
[NH-]S(=O)(=O)c1cccc([N-]C(=O)CSc2[n-]c(=O)nc3c2CCC3)c1 (protonated)
[NH-]S(=O)(=O)c1cccc([N-]C(=O)CSc2[n-]c(=O)nc3c2CCC3)c1 (3D coordinates assigned)
[NH-]S(=O)(=O)c1cccc([N-]C(=O)CSc2[n-]c(=O)nc3c2CCC3)c1 (nonaromatic ring conformer: 46.91768600239642 kcal/mol)

>  <smiles>  (41) 
NS(=O)(=O)c1cccc(NC(=O)CSc2[nH]c(=O)nc3c2CCC3)c1

>  <score_type>  (41) 
oracle

>  <origin>  (41) 
adg

>  <m_score__min__energy>  (41) 
-13.890000000000001

>  <m_primary>  (41) 
energy

$$$$
41:0
     RDKit          3D

 41 44  0  0  0  0  0  0  0  0999 V2000
   52.4610   24.2920   45.0070 C   0  0  0  0  0  0  0  0  0  0  0  0
   52.9080   22.9450   44.9040 O   0  0  0  0  0  0  0  0  0  0  0  0
   53.5750   22.2480   45.9240 C   0  0  0  0  0  0  0  0  0  0  0  0
   52.8810   21.4950   46.8920 C   0  0  0  0  0  0  0  0  0  0  0  0
   53.5780   20.8350   47.9060 C   0  0  0  0  0  0  0  0  0  0  0  0
   54.9700   20.9210   47.9710 C   0  0  0  0  0  0  0  0  0  0  0  0
   55.6700   21.6610   47.0160 C   0  0  0  0  0  0  0  0  0  0  0  0
   54.9820   22.3150   45.9830 C   0  0  0  0  0  0  0  0  0  0  0  0
   55.7180   23.0750   45.0100 N   0  0  0  0  0  0  0  0  0  0  0  0
   56.1410   24.3560   45.0830 C   0  0  0  0  0  0  0  0  0  0  0  0
   55.8410   25.3030   46.1790 C   0  0  0  0  0  0  0  0  0  0  0  0
   54.8770   26.3380   45.9970 N   0  0  0  0  0  0  0  0  0  0  0  0
   56.4390   25.2050   47.2830 O   0  0  0  0  0  0  0  0  0  0  0  0
   56.8740   24.6180   43.9350 C   0  0  0  0  0  0  0  0  0  0  0  0
   57.4200   25.8900   43.5540 N   0  0  0  0  0  0  0  0  0  0  0  0
   58.0920   26.7720   44.4700 C   0  0  0  0  0  0  0  0  0  0  0  0
   58.9510   26.2240   45.4510 C   0  0  0  0  0  0  0  0  0  0  0  0
   59.6400   27.0560   46.3500 C   0  0  0  0  0  0  0  0  0  0  0  0
   59.4730   28.4380   46.2520 C   0  0  0  0  0  0  0  0  0  0  0  0
   60.0850   29.4040   47.0570 C   0  0  0  0  0  0  0  0  0  0  0  0
   59.7270   30.7030   46.7040 C   0  0  0  0  0  0  0  0  0  0  0  0
   58.6580   30.6460   45.3940 S   0  0  0  0  0  0  0  0  0  0  0  0
   58.6450   28.9720   45.2800 C   0  0  0  0  0  0  0  0  0  0  0  0
   57.9510   28.1730   44.3750 C   0  0  0  0  0  0  0  0  0  0  0  0
   56.8990   23.5280   43.1380 N   0  0  0  0  0  0  0  0  0  0  0  0
   56.1930   22.6150   43.8320 C   0  0  0  0  0  0  0  0  0  0  0  0
   56.0060   21.4400   43.4180 O   0  0  0  0  0  0  0  0  0  0  0  0
   52.3695   24.5678   46.0679 H   0  0  0  0  0  0  0  0  0  0  0  0
   53.1864   24.9576   44.5164 H   0  0  0  0  0  0  0  0  0  0  0  0
   51.4816   24.3918   44.5164 H   0  0  0  0  0  0  0  0  0  0  0  0
   51.7840   21.4268   46.8486 H   0  0  0  0  0  0  0  0  0  0  0  0
   53.0291   20.2459   48.6554 H   0  0  0  0  0  0  0  0  0  0  0  0
   55.5156   20.4055   48.7751 H   0  0  0  0  0  0  0  0  0  0  0  0
   56.7662   21.7315   47.0739 H   0  0  0  0  0  0  0  0  0  0  0  0
   55.1620   27.3420   46.0010 H   0  0  0  0  0  0  0  0  0  0  0  0
   57.4280   26.1410   42.5400 H   0  0  0  0  0  0  0  0  0  0  0  0
   59.0814   25.1334   45.5110 H   0  0  0  0  0  0  0  0  0  0  0  0
   60.2996   26.6252   47.1177 H   0  0  0  0  0  0  0  0  0  0  0  0
   60.7744   29.1640   47.8798 H   0  0  0  0  0  0  0  0  0  0  0  0
   60.0825   31.6193   47.1980 H   0  0  0  0  0  0  0  0  0  0  0  0
   57.3081   28.6232   43.6043 H   0  0  0  0  0  0  0  0  0  0  0  0
  1  2  1  0
  2  3  1  0
  3  4  2  0
  4  5  1  0
  5  6  2  0
  6  7  1  0
  7  8  2  0
  8  9  1  0
  9 10  1  0
 10 11  1  0
 11 12  1  0
 11 13  2  0
 10 14  2  0
 14 15  1  0
 15 16  1  0
 16 17  2  0
 17 18  1  0
 18 19  2  0
 19 20  1  0
 20 21  2  0
 21 22  1  0
 22 23  1  0
 23 24  2  0
 14 25  1  0
 25 26  1  0
 26 27  2  0
  8  3  1  0
 26  9  1  0
 24 16  1  0
 23 19  1  0
  1 28  1  0
  1 29  1  0
  1 30  1  0
  4 31  1  0
  5 32  1  0
  6 33  1  0
  7 34  1  0
 12 35  1  0
 15 36  1  0
 17 37  1  0
 18 38  1  0
 20 39  1  0
 21 40  1  0
 24 41  1  0
M  CHG  2  12  -1  25  -1
M  END
>  <UniqueID>  (42) 
41

>  <SMILES>  (42) 
COc1ccccc1-n1c(C([NH-])=O)c(Nc2ccc3ccsc3c2)[n-]c1=O

>  <Energy>  (42) 
118.82275790656996

>  <Genealogy>  (42) 
COc1ccccc1-n1c(C([NH-])=O)c(Nc2ccc3ccsc3c2)[n-]c1=O (protonated)
COc1ccccc1-n1c(C([NH-])=O)c(Nc2ccc3ccsc3c2)[n-]c1=O (3D coordinates assigned)
COc1ccccc1-n1c(C([NH-])=O)c(Nc2ccc3ccsc3c2)[n-]c1=O (optimized conformer: 118.82275790656996 kcal/mol)

>  <smiles>  (42) 
COc1ccccc1-n1c(C(N)=O)c(Nc2ccc3ccsc3c2)[nH]c1=O

>  <score_type>  (42) 
oracle

>  <origin>  (42) 
adg

>  <m_score__min__energy>  (42) 
-13.33

>  <m_primary>  (42) 
energy

$$$$
42:0
     RDKit          3D

 32 34  0  0  0  0  0  0  0  0999 V2000
   57.1640   26.7520   54.3340 C   0  0  0  0  0  0  0  0  0  0  0  0
   55.8070   26.8400   54.7600 O   0  0  0  0  0  0  0  0  0  0  0  0
   54.8860   27.7900   54.2930 C   0  0  0  0  0  0  0  0  0  0  0  0
   55.1440   28.5900   53.1680 C   0  0  0  0  0  0  0  0  0  0  0  0
   54.2070   29.5290   52.7300 C   0  0  0  0  0  0  0  0  0  0  0  0
   54.4710   30.2550   51.6150 N   0  0  0  0  0  0  0  0  0  0  0  0
   53.5920   31.1610   51.1200 C   0  0  0  0  0  0  0  0  0  0  0  0
   52.3760   31.3930   51.7720 C   0  0  0  0  0  0  0  0  0  0  0  0
   52.0770   30.6970   52.9670 C   0  0  0  0  0  0  0  0  0  0  0  0
   52.9880   29.7070   53.4270 C   0  0  0  0  0  0  0  0  0  0  0  0
   52.7240   28.8790   54.5400 C   0  0  0  0  0  0  0  0  0  0  0  0
   53.6700   27.9290   54.9760 C   0  0  0  0  0  0  0  0  0  0  0  0
   53.4370   27.1000   56.0860 O   0  0  0  0  0  0  0  0  0  0  0  0
   52.9990   25.7480   56.0110 C   0  0  0  0  0  0  0  0  0  0  0  0
   50.7460   30.9620   53.6640 C   0  0  0  0  0  0  0  0  0  0  0  0
   50.2250   32.3840   53.4190 C   0  0  0  0  0  0  0  0  0  0  0  0
   50.2610   32.7100   52.0000 N   0  0  0  0  0  0  0  0  0  0  0  0
   51.3960   32.3500   51.2180 C   0  0  0  0  0  0  0  0  0  0  0  0
   51.5330   32.8300   50.0620 O   0  0  0  0  0  0  0  0  0  0  0  0
   57.8225   26.7093   55.2141 H   0  0  0  0  0  0  0  0  0  0  0  0
   57.3004   25.8431   53.7296 H   0  0  0  0  0  0  0  0  0  0  0  0
   57.4166   27.6357   53.7296 H   0  0  0  0  0  0  0  0  0  0  0  0
   56.0943   28.4760   52.6258 H   0  0  0  0  0  0  0  0  0  0  0  0
   53.8359   31.7159   50.2021 H   0  0  0  0  0  0  0  0  0  0  0  0
   51.7673   28.9766   55.0740 H   0  0  0  0  0  0  0  0  0  0  0  0
   52.8693   25.3477   57.0273 H   0  0  0  0  0  0  0  0  0  0  0  0
   52.0401   25.7025   55.4739 H   0  0  0  0  0  0  0  0  0  0  0  0
   53.7490   25.1489   55.4739 H   0  0  0  0  0  0  0  0  0  0  0  0
   50.0021   30.2444   53.2876 H   0  0  0  0  0  0  0  0  0  0  0  0
   50.9079   30.8481   54.7460 H   0  0  0  0  0  0  0  0  0  0  0  0
   49.1882   32.4554   53.7794 H   0  0  0  0  0  0  0  0  0  0  0  0
   50.8679   33.0935   53.9605 H   0  0  0  0  0  0  0  0  0  0  0  0
  1  2  1  0
  2  3  1  0
  3  4  2  0
  4  5  1  0
  5  6  2  0
  6  7  1  0
  7  8  2  0
  8  9  1  0
  9 10  2  0
 10 11  1  0
 11 12  2  0
 12 13  1  0
 13 14  1  0
  9 15  1  0
 15 16  1  0
 16 17  1  0
 17 18  1  0
 18 19  2  0
 12  3  1  0
 10  5  1  0
 18  8  1  0
  1 20  1  0
  1 21  1  0
  1 22  1  0
  4 23  1  0
  7 24  1  0
 11 25  1  0
 14 26  1  0
 14 27  1  0
 14 28  1  0
 15 29  1  0
 15 30  1  0
 16 31  1  0
 16 32  1  0
M  CHG  1  17  -1
M  END
>  <UniqueID>  (43) 
42

>  <SMILES>  (43) 
COc1cc2ncc3c(c2cc1OC)CC[N-]C3=O

>  <Energy>  (43) 
40.947440716794475

>  <Genealogy>  (43) 
COc1cc2ncc3c(c2cc1OC)CC[N-]C3=O (protonated)
COc1cc2ncc3c(c2cc1OC)CC[N-]C3=O (3D coordinates assigned)
COc1cc2ncc3c(c2cc1OC)CC[N-]C3=O (nonaromatic ring conformer: 40.947440716794475 kcal/mol)

>  <smiles>  (43) 
COc1cc2ncc3c(c2cc1OC)CCNC3=O

>  <score_type>  (43) 
oracle

>  <origin>  (43) 
adg

>  <m_score__min__energy>  (43) 
-8.1500000000000004

>  <m_primary>  (43) 
energy

$$$$
43:0
     RDKit          3D

 29 30  0  0  0  0  0  0  0  0999 V2000
   58.2450   30.3810   46.3080 C   0  0  0  0  0  0  0  0  0  0  0  0
   57.7400   30.8800   45.0200 N   0  0  0  0  0  0  0  0  0  0  0  0
   57.0250   32.1590   45.1910 C   0  0  0  0  0  0  0  0  0  0  0  0
   57.9670   33.2280   45.6880 C   0  0  0  0  0  0  0  0  0  0  0  0
   58.7410   33.9630   44.7690 C   0  0  0  0  0  0  0  0  0  0  0  0
   58.6360   33.7270   43.4370 F   0  0  0  0  0  0  0  0  0  0  0  0
   59.6280   34.9430   45.2230 C   0  0  0  0  0  0  0  0  0  0  0  0
   59.7560   35.1960   46.5900 C   0  0  0  0  0  0  0  0  0  0  0  0
   58.9990   34.4680   47.5100 C   0  0  0  0  0  0  0  0  0  0  0  0
   58.1070   33.4860   47.0660 C   0  0  0  0  0  0  0  0  0  0  0  0
   57.3900   32.7830   47.9800 F   0  0  0  0  0  0  0  0  0  0  0  0
   56.6620   29.6910   44.3280 S   0  0  0  0  0  0  0  0  0  0  0  0
   56.9210   29.5710   42.8530 O   0  0  0  0  0  0  0  0  0  0  0  0
   55.2360   30.1280   44.5220 O   0  0  0  0  0  0  0  0  0  0  0  0
   56.8860   28.1180   45.0760 C   0  0  0  0  0  0  0  0  0  0  0  0
   58.0730   27.4370   45.1810 C   0  0  0  0  0  0  0  0  0  0  0  0
   57.8440   26.2670   45.8000 N   0  0  0  0  0  0  0  0  0  0  0  0
   56.5170   26.2790   46.0510 C   0  0  0  0  0  0  0  0  0  0  0  0
   55.8940   27.3960   45.6220 N   0  0  0  0  0  0  0  0  0  0  0  0
   57.7248   30.8950   47.1297 H   0  0  0  0  0  0  0  0  0  0  0  0
   58.0627   29.2985   46.3788 H   0  0  0  0  0  0  0  0  0  0  0  0
   59.3252   30.5763   46.3788 H   0  0  0  0  0  0  0  0  0  0  0  0
   56.6024   32.4697   44.2241 H   0  0  0  0  0  0  0  0  0  0  0  0
   56.2211   32.0216   45.9292 H   0  0  0  0  0  0  0  0  0  0  0  0
   60.2273   35.5169   44.5008 H   0  0  0  0  0  0  0  0  0  0  0  0
   60.4539   35.9697   46.9426 H   0  0  0  0  0  0  0  0  0  0  0  0
   59.1042   34.6671   48.5867 H   0  0  0  0  0  0  0  0  0  0  0  0
   59.0495   27.7905   44.8185 H   0  0  0  0  0  0  0  0  0  0  0  0
   55.9932   25.4551   46.5578 H   0  0  0  0  0  0  0  0  0  0  0  0
  1  2  1  0
  2  3  1  0
  3  4  1  0
  4  5  2  0
  5  6  1  0
  5  7  1  0
  7  8  2  0
  8  9  1  0
  9 10  2  0
 10 11  1  0
  2 12  1  0
 12 13  2  0
 12 14  2  0
 12 15  1  0
 15 16  2  0
 16 17  1  0
 17 18  1  0
 18 19  2  0
 10  4  1  0
 19 15  1  0
  1 20  1  0
  1 21  1  0
  1 22  1  0
  3 23  1  0
  3 24  1  0
  7 25  1  0
  8 26  1  0
  9 27  1  0
 16 28  1  0
 18 29  1  0
M  CHG  1  17  -1
M  END
>  <UniqueID>  (44) 
43

>  <SMILES>  (44) 
CN(Cc1c(F)cccc1F)S(=O)(=O)c1c[n-]cn1

>  <Energy>  (44) 
56.0071292863789

>  <Genealogy>  (44) 
CN(Cc1c(F)cccc1F)S(=O)(=O)c1c[n-]cn1 (protonated)
CN(Cc1c(F)cccc1F)S(=O)(=O)c1c[n-]cn1 (3D coordinates assigned)
CN(Cc1c(F)cccc1F)S(=O)(=O)c1c[n-]cn1 (optimized conformer: 56.0071292863789 kcal/mol)

>  <smiles>  (44) 
CN(Cc1c(F)cccc1F)S(=O)(=O)c1c[nH]cn1

>  <score_type>  (44) 
oracle

>  <origin>  (44) 
adg

>  <m_score__min__energy>  (44) 
-8.0999999999999996

>  <m_primary>  (44) 
energy

$$$$
44:0
     RDKit          3D

 71 73  0  0  0  0  0  0  0  0999 V2000
   63.3910   34.0330   46.4130 C   0  0  0  0  0  0  0  0  0  0  0  0
   63.1110   32.7130   47.1230 C   0  0  0  0  0  0  0  0  0  0  0  0
   61.6800   32.4060   47.1090 N   0  0  0  0  0  0  0  0  0  0  0  0
   61.1130   31.3010   47.8380 C   0  0  0  0  0  0  0  0  0  0  0  0
   60.8280   30.0830   47.1910 C   0  0  0  0  0  0  0  0  0  0  0  0
   60.3570   28.9790   47.9070 C   0  0  0  0  0  0  0  0  0  0  0  0
   60.1210   27.7860   47.2070 O   0  0  0  0  0  0  0  0  0  0  0  0
   58.9610   26.9640   47.3460 C   0  0  0  0  0  0  0  0  0  0  0  0
   58.4690   26.4910   45.9660 C   0  0  0  0  0  0  0  0  0  0  0  0
   59.1200   27.2110   44.8600 N   0  0  0  0  0  0  0  0  0  0  0  0
   58.3630   28.3710   44.4500 C   0  0  0  0  0  0  0  0  0  0  0  0
   57.4000   28.2660   43.4300 C   0  0  0  0  0  0  0  0  0  0  0  0
   56.6880   29.3930   43.0160 C   0  0  0  0  0  0  0  0  0  0  0  0
   56.9170   30.6320   43.6200 C   0  0  0  0  0  0  0  0  0  0  0  0
   57.8720   30.7570   44.6430 C   0  0  0  0  0  0  0  0  0  0  0  0
   58.1120   32.0380   45.2570 N   0  0  0  0  0  0  0  0  0  0  0  0
   58.5460   33.1780   44.4460 C   0  0  0  0  0  0  0  0  0  0  0  0
   57.9650   34.4830   45.0100 C   0  0  0  0  0  0  0  0  0  0  0  0
   58.1760   34.6250   46.4650 N   0  0  0  0  0  0  0  0  0  0  0  0
   59.5690   34.9580   46.8040 C   0  0  0  0  0  0  0  0  0  0  0  0
   57.6780   33.4540   47.2170 C   0  0  0  0  0  0  0  0  0  0  0  0
   58.2750   32.1340   46.7090 C   0  0  0  0  0  0  0  0  0  0  0  0
   58.5980   29.6230   45.0450 C   0  0  0  0  0  0  0  0  0  0  0  0
   60.1410   29.1030   49.2910 C   0  0  0  0  0  0  0  0  0  0  0  0
   60.3880   30.3110   49.9370 C   0  0  0  0  0  0  0  0  0  0  0  0
   60.8790   31.4130   49.2260 C   0  0  0  0  0  0  0  0  0  0  0  0
   61.1000   32.6540   49.9180 N   0  0  0  0  0  0  0  0  0  0  0  0
   62.4450   32.9470   50.4380 C   0  0  0  0  0  0  0  0  0  0  0  0
   63.4130   31.7720   50.2750 C   0  0  0  0  0  0  0  0  0  0  0  0
   65.0970   32.3250   50.0910 Cl  0  0  0  0  0  0  0  0  0  0  0  0
   59.9770   33.6010   50.0540 C   0  0  0  0  0  0  0  0  0  0  0  0
   59.2660   33.4720   51.4040 C   0  0  0  0  0  0  0  0  0  0  0  0
   57.9040   32.3320   51.2590 Cl  0  0  0  0  0  0  0  0  0  0  0  0
   63.5585   34.8228   47.1601 H   0  0  0  0  0  0  0  0  0  0  0  0
   64.2868   33.9279   45.7834 H   0  0  0  0  0  0  0  0  0  0  0  0
   62.5296   34.3006   45.7834 H   0  0  0  0  0  0  0  0  0  0  0  0
   63.6575   31.9064   46.6124 H   0  0  0  0  0  0  0  0  0  0  0  0
   63.4419   32.7991   48.1685 H   0  0  0  0  0  0  0  0  0  0  0  0
   61.0400   33.0090   46.5450 H   0  0  0  0  0  0  0  0  0  0  0  0
   60.9785   29.9992   46.1046 H   0  0  0  0  0  0  0  0  0  0  0  0
   59.2099   26.0873   47.9620 H   0  0  0  0  0  0  0  0  0  0  0  0
   58.1641   27.5503   47.8269 H   0  0  0  0  0  0  0  0  0  0  0  0
   58.6844   25.4172   45.8634 H   0  0  0  0  0  0  0  0  0  0  0  0
   57.3894   26.6935   45.9079 H   0  0  0  0  0  0  0  0  0  0  0  0
   59.2610   26.5540   44.0560 H   0  0  0  0  0  0  0  0  0  0  0  0
   60.0700   27.5220   45.1750 H   0  0  0  0  0  0  0  0  0  0  0  0
   57.2073   27.2919   42.9567 H   0  0  0  0  0  0  0  0  0  0  0  0
   55.9436   29.3054   42.2109 H   0  0  0  0  0  0  0  0  0  0  0  0
   56.3468   31.5140   43.2930 H   0  0  0  0  0  0  0  0  0  0  0  0
   59.6445   33.2347   44.4575 H   0  0  0  0  0  0  0  0  0  0  0  0
   58.1873   33.0419   43.4151 H   0  0  0  0  0  0  0  0  0  0  0  0
   58.4473   35.3306   44.5011 H   0  0  0  0  0  0  0  0  0  0  0  0
   56.8793   34.4638   44.8344 H   0  0  0  0  0  0  0  0  0  0  0  0
   59.6837   34.9854   47.8977 H   0  0  0  0  0  0  0  0  0  0  0  0
   60.2410   34.1952   46.3839 H   0  0  0  0  0  0  0  0  0  0  0  0
   59.8234   35.9423   46.3839 H   0  0  0  0  0  0  0  0  0  0  0  0
   57.9433   33.5765   48.2775 H   0  0  0  0  0  0  0  0  0  0  0  0
   56.5881   33.4046   47.0768 H   0  0  0  0  0  0  0  0  0  0  0  0
   59.3457   32.0982   46.9587 H   0  0  0  0  0  0  0  0  0  0  0  0
   57.7525   31.2928   47.1879 H   0  0  0  0  0  0  0  0  0  0  0  0
   59.3587   29.7159   45.8341 H   0  0  0  0  0  0  0  0  0  0  0  0
   59.7746   28.2402   49.8666 H   0  0  0  0  0  0  0  0  0  0  0  0
   60.1957   30.4008   51.0163 H   0  0  0  0  0  0  0  0  0  0  0  0
   62.8503   33.8141   49.8958 H   0  0  0  0  0  0  0  0  0  0  0  0
   62.3471   33.1486   51.5149 H   0  0  0  0  0  0  0  0  0  0  0  0
   63.3446   31.1279   51.1641 H   0  0  0  0  0  0  0  0  0  0  0  0
   63.1322   31.2204   49.3657 H   0  0  0  0  0  0  0  0  0  0  0  0
   60.3648   34.6256   49.9553 H   0  0  0  0  0  0  0  0  0  0  0  0
   59.2454   33.3697   49.2658 H   0  0  0  0  0  0  0  0  0  0  0  0
   59.9760   33.0995   52.1571 H   0  0  0  0  0  0  0  0  0  0  0  0
   58.8852   34.4573   51.7108 H   0  0  0  0  0  0  0  0  0  0  0  0
  1  2  1  0
  2  3  1  0
  3  4  1  0
  4  5  2  0
  5  6  1  0
  6  7  1  0
  7  8  1  0
  8  9  1  0
  9 10  1  0
 10 11  1  0
 11 12  2  0
 12 13  1  0
 13 14  2  0
 14 15  1  0
 15 16  1  0
 16 17  1  0
 17 18  1  0
 18 19  1  0
 19 20  1  0
 19 21  1  0
 21 22  1  0
 15 23  2  0
  6 24  2  0
 24 25  1  0
 25 26  2  0
 26 27  1  0
 27 28  1  0
 28 29  1  0
 29 30  1  0
 27 31  1  0
 31 32  1  0
 32 33  1  0
 26  4  1  0
 23 11  1  0
 22 16  1  0
  1 34  1  0
  1 35  1  0
  1 36  1  0
  2 37  1  0
  2 38  1  0
  3 39  1  0
  5 40  1  0
  8 41  1  0
  8 42  1  0
  9 43  1  0
  9 44  1  0
 10 45  1  0
 10 46  1  0
 12 47  1  0
 13 48  1  0
 14 49  1  0
 17 50  1  0
 17 51  1  0
 18 52  1  0
 18 53  1  0
 20 54  1  0
 20 55  1  0
 20 56  1  0
 21 57  1  0
 21 58  1  0
 22 59  1  0
 22 60  1  0
 23 61  1  0
 24 62  1  0
 25 63  1  0
 28 64  1  0
 28 65  1  0
 29 66  1  0
 29 67  1  0
 31 68  1  0
 31 69  1  0
 32 70  1  0
 32 71  1  0
M  CHG  1  10   1
M  END
>  <UniqueID>  (45) 
44

>  <SMILES>  (45) 
CCNc1cc(OCC[NH2+]c2cccc(N3CCN(C)CC3)c2)ccc1N(CCCl)CCCl

>  <Energy>  (45) 
77.69765355952642

>  <Genealogy>  (45) 
CCNc1cc(OCC[NH2+]c2cccc(N3CCN(C)CC3)c2)ccc1N(CCCl)CCCl (protonated)
CCNc1cc(OCC[NH2+]c2cccc(N3CCN(C)CC3)c2)ccc1N(CCCl)CCCl (3D coordinates assigned)
CCNc1cc(OCC[NH2+]c2cccc(N3CCN(C)CC3)c2)ccc1N(CCCl)CCCl (nonaromatic ring conformer: 77.69765355952642 kcal/mol)

>  <smiles>  (45) 
CCNc1cc(OCCNc2cccc(N3CCN(C)CC3)c2)ccc1N(CCCl)CCCl

>  <score_type>  (45) 
oracle

>  <origin>  (45) 
adg

>  <m_score__min__energy>  (45) 
-6.5599999999999996

>  <m_primary>  (45) 
energy

$$$$
45:0
     RDKit          3D

 57 60  0  0  0  0  0  0  0  0999 V2000
   57.0340   22.3320   44.8790 C   0  0  0  0  0  0  0  0  0  0  0  0
   56.9580   23.8050   45.1590 C   0  0  0  0  0  0  0  0  0  0  0  0
   57.7760   24.6940   44.4450 C   0  0  0  0  0  0  0  0  0  0  0  0
   57.6880   26.0720   44.6730 C   0  0  0  0  0  0  0  0  0  0  0  0
   56.7620   26.5780   45.5970 C   0  0  0  0  0  0  0  0  0  0  0  0
   56.7010   27.9930   45.8200 N   0  0  0  0  0  0  0  0  0  0  0  0
   56.2920   28.9800   44.8640 C   0  0  0  0  0  0  0  0  0  0  0  0
   55.1560   29.5090   44.9830 O   0  0  0  0  0  0  0  0  0  0  0  0
   57.2150   29.4640   43.7840 C   0  0  0  0  0  0  0  0  0  0  0  0
   58.9500   29.2040   44.2920 S   0  0  0  0  0  0  0  0  0  0  0  0
   58.9430   30.4420   45.5930 C   0  0  0  0  0  0  0  0  0  0  0  0
   59.4420   30.1410   46.8190 N   0  0  0  0  0  0  0  0  0  0  0  0
   59.5020   31.0720   47.8160 C   0  0  0  0  0  0  0  0  0  0  0  0
   59.9670   30.7310   48.9420 O   0  0  0  0  0  0  0  0  0  0  0  0
   59.0820   32.3630   47.5890 N   0  0  0  0  0  0  0  0  0  0  0  0
   59.1760   33.3870   48.6460 C   0  0  0  0  0  0  0  0  0  0  0  0
   60.0860   34.5480   48.1920 C   0  0  0  0  0  0  0  0  0  0  0  0
   61.5230   34.2020   48.1190 N   0  0  0  0  0  0  0  0  0  0  0  0
   61.9520   33.2190   49.1280 C   0  0  0  0  0  0  0  0  0  0  0  0
   63.4900   33.0900   49.1060 C   0  0  0  0  0  0  0  0  0  0  0  0
   64.0740   33.4570   47.8680 O   0  0  0  0  0  0  0  0  0  0  0  0
   63.2780   33.0360   46.7840 C   0  0  0  0  0  0  0  0  0  0  0  0
   61.9630   33.8400   46.7500 C   0  0  0  0  0  0  0  0  0  0  0  0
   58.5610   32.6710   46.3570 C   0  0  0  0  0  0  0  0  0  0  0  0
   58.4730   31.7330   45.3640 C   0  0  0  0  0  0  0  0  0  0  0  0
   57.9540   32.2980   44.0980 C   0  0  0  0  0  0  0  0  0  0  0  0
   57.5590   33.7390   44.4710 C   0  0  0  0  0  0  0  0  0  0  0  0
   58.0810   34.0010   45.8960 C   0  0  0  0  0  0  0  0  0  0  0  0
   55.9410   25.6890   46.3110 C   0  0  0  0  0  0  0  0  0  0  0  0
   56.0350   24.3110   46.0890 C   0  0  0  0  0  0  0  0  0  0  0  0
   57.0625   21.7791   45.8295 H   0  0  0  0  0  0  0  0  0  0  0  0
   56.1506   22.0225   44.3012 H   0  0  0  0  0  0  0  0  0  0  0  0
   57.9445   22.1151   44.3012 H   0  0  0  0  0  0  0  0  0  0  0  0
   58.4894   24.3061   43.7030 H   0  0  0  0  0  0  0  0  0  0  0  0
   58.3477   26.7611   44.1253 H   0  0  0  0  0  0  0  0  0  0  0  0
   57.0179   28.9050   42.8574 H   0  0  0  0  0  0  0  0  0  0  0  0
   57.0432   30.5369   43.6127 H   0  0  0  0  0  0  0  0  0  0  0  0
   58.1708   33.7778   48.8623 H   0  0  0  0  0  0  0  0  0  0  0  0
   59.6062   32.9290   49.5489 H   0  0  0  0  0  0  0  0  0  0  0  0
   59.7585   34.8723   47.1932 H   0  0  0  0  0  0  0  0  0  0  0  0
   59.9903   35.3388   48.9506 H   0  0  0  0  0  0  0  0  0  0  0  0
   61.6270   33.5522   50.1247 H   0  0  0  0  0  0  0  0  0  0  0  0
   61.5007   32.2420   48.9004 H   0  0  0  0  0  0  0  0  0  0  0  0
   63.9044   33.7390   49.8916 H   0  0  0  0  0  0  0  0  0  0  0  0
   63.7263   32.0285   49.2712 H   0  0  0  0  0  0  0  0  0  0  0  0
   63.8275   33.1970   45.8448 H   0  0  0  0  0  0  0  0  0  0  0  0
   63.0443   31.9676   46.9019 H   0  0  0  0  0  0  0  0  0  0  0  0
   62.1195   34.7601   46.1679 H   0  0  0  0  0  0  0  0  0  0  0  0
   61.1843   33.2167   46.2862 H   0  0  0  0  0  0  0  0  0  0  0  0
   58.7314   32.2941   43.3198 H   0  0  0  0  0  0  0  0  0  0  0  0
   57.1127   31.7197   43.6884 H   0  0  0  0  0  0  0  0  0  0  0  0
   58.0157   34.4492   43.7660 H   0  0  0  0  0  0  0  0  0  0  0  0
   56.4676   33.8685   44.4254 H   0  0  0  0  0  0  0  0  0  0  0  0
   58.9046   34.7301   45.8822 H   0  0  0  0  0  0  0  0  0  0  0  0
   57.3100   34.4238   46.5569 H   0  0  0  0  0  0  0  0  0  0  0  0
   55.2219   26.0779   47.0470 H   0  0  0  0  0  0  0  0  0  0  0  0
   55.3834   23.6209   46.6450 H   0  0  0  0  0  0  0  0  0  0  0  0
  1  2  1  0
  2  3  2  0
  3  4  1  0
  4  5  2  0
  5  6  1  0
  6  7  1  0
  7  8  2  0
  7  9  1  0
  9 10  1  0
 10 11  1  0
 11 12  2  0
 12 13  1  0
 13 14  2  0
 13 15  1  0
 15 16  1  0
 16 17  1  0
 17 18  1  0
 18 19  1  0
 19 20  1  0
 20 21  1  0
 21 22  1  0
 22 23  1  0
 15 24  1  0
 24 25  2  0
 25 26  1  0
 26 27  1  0
 27 28  1  0
  5 29  1  0
 29 30  2  0
 30  2  1  0
 25 11  1  0
 23 18  1  0
 28 24  1  0
  1 31  1  0
  1 32  1  0
  1 33  1  0
  3 34  1  0
  4 35  1  0
  9 36  1  0
  9 37  1  0
 16 38  1  0
 16 39  1  0
 17 40  1  0
 17 41  1  0
 19 42  1  0
 19 43  1  0
 20 44  1  0
 20 45  1  0
 22 46  1  0
 22 47  1  0
 23 48  1  0
 23 49  1  0
 26 50  1  0
 26 51  1  0
 27 52  1  0
 27 53  1  0
 28 54  1  0
 28 55  1  0
 29 56  1  0
 30 57  1  0
M  CHG  1   6  -1
M  END
>  <UniqueID>  (46) 
45

>  <SMILES>  (46) 
Cc1ccc([N-]C(=O)CSc2nc(=O)n(CCN3CCOCC3)c3c2CCC3)cc1

>  <Energy>  (46) 
82.92737784274466

>  <Genealogy>  (46) 
Cc1ccc([N-]C(=O)CSc2nc(=O)n(CCN3CCOCC3)c3c2CCC3)cc1 (protonated)
Cc1ccc([N-]C(=O)CSc2nc(=O)n(CCN3CCOCC3)c3c2CCC3)cc1 (3D coordinates assigned)
Cc1ccc([N-]C(=O)CSc2nc(=O)n(CCN3CCOCC3)c3c2CCC3)cc1 (nonaromatic ring conformer: 82.92737784274466 kcal/mol)

>  <smiles>  (46) 
Cc1ccc(NC(=O)CSc2nc(=O)n(CCN3CCOCC3)c3c2CCC3)cc1

>  <score_type>  (46) 
oracle

>  <origin>  (46) 
adg

>  <m_score__min__energy>  (46) 
-10.65

>  <m_primary>  (46) 
energy

$$$$
46:0
     RDKit          3D

 35 36  0  0  0  0  0  0  0  0999 V2000
   54.6071   30.6976   53.4990 H   0  0  0  0  0  0  0  0  0  0  0  0
   54.7090   29.8430   52.8140 C   0  0  0  0  0  0  0  0  0  0  0  0
   56.0510   29.2630   52.6010 C   0  0  0  0  0  0  0  0  0  0  0  0
   56.4000   28.2830   53.3100 O   0  0  0  0  0  0  0  0  0  0  0  0
   56.9770   29.7710   51.6280 N   0  0  0  0  0  0  0  0  0  0  0  0
   57.5540   31.0870   51.6150 C   0  0  0  0  0  0  0  0  0  0  0  0
   57.1650   31.9760   52.6220 C   0  0  0  0  0  0  0  0  0  0  0  0
   56.3943   31.6752   53.3470 H   0  0  0  0  0  0  0  0  0  0  0  0
   57.7450   33.2390   52.7150 C   0  0  0  0  0  0  0  0  0  0  0  0
   57.4295   33.9309   53.5098 H   0  0  0  0  0  0  0  0  0  0  0  0
   58.7230   33.6270   51.8040 C   0  0  0  0  0  0  0  0  0  0  0  0
   59.1928   34.6171   51.8985 H   0  0  0  0  0  0  0  0  0  0  0  0
   59.1160   32.7680   50.7660 C   0  0  0  0  0  0  0  0  0  0  0  0
   60.1690   33.2390   49.7950 C   0  0  0  0  0  0  0  0  0  0  0  0
   61.0347   33.6262   50.3523 H   0  0  0  0  0  0  0  0  0  0  0  0
   60.4870   32.3973   49.1622 H   0  0  0  0  0  0  0  0  0  0  0  0
   59.7535   34.0371   49.1622 H   0  0  0  0  0  0  0  0  0  0  0  0
   58.4870   31.5030   50.6280 C   0  0  0  0  0  0  0  0  0  0  0  0
   58.8060   30.6190   49.4430 C   0  0  0  0  0  0  0  0  0  0  0  0
   59.1592   29.6404   49.8001 H   0  0  0  0  0  0  0  0  0  0  0  0
   57.9006   30.4820   48.8335 H   0  0  0  0  0  0  0  0  0  0  0  0
   59.5903   31.0917   48.8335 H   0  0  0  0  0  0  0  0  0  0  0  0
   53.6110   29.3720   52.2080 C   0  0  0  0  0  0  0  0  0  0  0  0
   53.3604   28.3093   52.3419 H   0  0  0  0  0  0  0  0  0  0  0  0
   52.7140   30.2010   51.3670 C   0  0  0  0  0  0  0  0  0  0  0  0
   52.2930   29.8010   50.0820 C   0  0  0  0  0  0  0  0  0  0  0  0
   52.6295   28.8380   49.6705 H   0  0  0  0  0  0  0  0  0  0  0  0
   51.4500   30.6230   49.3290 C   0  0  0  0  0  0  0  0  0  0  0  0
   51.1219   30.3017   48.3294 H   0  0  0  0  0  0  0  0  0  0  0  0
   51.0220   31.8510   49.8400 C   0  0  0  0  0  0  0  0  0  0  0  0
   50.1820   32.6610   49.0860 O   0  0  0  0  0  0  0  0  0  0  0  0
   51.4440   32.2620   51.1090 C   0  0  0  0  0  0  0  0  0  0  0  0
   51.0250   33.4850   51.6220 O   0  0  0  0  0  0  0  0  0  0  0  0
   52.2900   31.4440   51.8660 C   0  0  0  0  0  0  0  0  0  0  0  0
   52.6256   31.7767   52.8593 H   0  0  0  0  0  0  0  0  0  0  0  0
  1  2  1  0
  2  3  1  0
  3  4  2  0
  3  5  1  0
  5  6  1  0
  6  7  2  0
  7  8  1  0
  7  9  1  0
  9 10  1  0
  9 11  2  0
 11 12  1  0
 11 13  1  0
 13 14  1  0
 14 15  1  0
 14 16  1  0
 14 17  1  0
 13 18  2  0
 18 19  1  0
 19 20  1  0
 19 21  1  0
 19 22  1  0
  2 23  2  0
 23 24  1  0
 23 25  1  0
 25 26  2  0
 26 27  1  0
 26 28  1  0
 28 29  1  0
 28 30  2  0
 30 31  1  0
 30 32  1  0
 32 33  1  0
 32 34  2  0
 34 35  1  0
 18  6  1  0
 34 25  1  0
M  CHG  3   5  -1  31  -1  33  -1
M  END
>  <UniqueID>  (47) 
46

>  <SMILES>  (47) 
Cc1cccc([N-]C(=O)/C=C/c2ccc([O-])c([O-])c2)c1C

>  <Energy>  (47) 
47.78457117507375

>  <Genealogy>  (47) 
Cc1cccc([N-]C(=O)C=Cc2ccc([O-])c([O-])c2)c1C (protonated)
Cc1cccc([N-]C(=O)/C=C/c2ccc([O-])c([O-])c2)c1C (cis-trans isomerization)
Cc1cccc([N-]C(=O)/C=C/c2ccc([O-])c([O-])c2)c1C (3D coordinates assigned)
Cc1cccc([N-]C(=O)/C=C/c2ccc([O-])c([O-])c2)c1C (optimized conformer: 47.78457117507375 kcal/mol)

>  <smiles>  (47) 
Cc1cccc(NC(=O)C=Cc2ccc(O)c(O)c2)c1C

>  <score_type>  (47) 
oracle

>  <origin>  (47) 
adg

>  <m_score__min__energy>  (47) 
-16.739999999999998

>  <m_primary>  (47) 
energy

$$$$
47:0
     RDKit          3D

 29 30  0  0  0  0  0  0  0  0999 V2000
   55.5730   29.4480   44.8420 O   0  0  0  0  0  0  0  0  0  0  0  0
   56.2230   28.4450   45.2380 C   0  0  0  0  0  0  0  0  0  0  0  0
   55.5330   27.3040   45.6260 O   0  0  0  0  0  0  0  0  0  0  0  0
   57.7020   28.4410   45.2170 C   0  0  0  0  0  0  0  0  0  0  0  0
   58.3580   27.4340   45.9460 C   0  0  0  0  0  0  0  0  0  0  0  0
   59.7580   27.3390   45.9590 C   0  0  0  0  0  0  0  0  0  0  0  0
   60.4120   26.2950   46.7030 N   0  0  0  0  0  0  0  0  0  0  0  0
   60.6790   25.2000   46.1650 O   0  0  0  0  0  0  0  0  0  0  0  0
   60.7560   26.4840   48.0220 O   0  0  0  0  0  0  0  0  0  0  0  0
   60.5090   28.2770   45.2360 C   0  0  0  0  0  0  0  0  0  0  0  0
   59.8750   29.2950   44.5260 C   0  0  0  0  0  0  0  0  0  0  0  0
   58.4720   29.4030   44.5040 C   0  0  0  0  0  0  0  0  0  0  0  0
   57.8700   30.5440   43.8450 N   0  0  0  0  0  0  0  0  0  0  0  0
   58.0180   31.7290   44.6570 C   0  0  0  0  0  0  0  0  0  0  0  0
   58.1100   31.6340   46.0580 C   0  0  0  0  0  0  0  0  0  0  0  0
   58.2580   32.7860   46.8380 C   0  0  0  0  0  0  0  0  0  0  0  0
   58.3100   34.0420   46.2300 C   0  0  0  0  0  0  0  0  0  0  0  0
   58.2080   34.1510   44.8410 C   0  0  0  0  0  0  0  0  0  0  0  0
   58.0600   33.0020   44.0570 C   0  0  0  0  0  0  0  0  0  0  0  0
   57.7626   26.7065   46.5172 H   0  0  0  0  0  0  0  0  0  0  0  0
   61.6069   28.2088   45.2292 H   0  0  0  0  0  0  0  0  0  0  0  0
   60.4820   30.0270   43.9730 H   0  0  0  0  0  0  0  0  0  0  0  0
   58.3330   30.7190   42.9220 H   0  0  0  0  0  0  0  0  0  0  0  0
   56.8690   30.3560   43.6190 H   0  0  0  0  0  0  0  0  0  0  0  0
   58.0653   30.6477   46.5430 H   0  0  0  0  0  0  0  0  0  0  0  0
   58.3335   32.7022   47.9322 H   0  0  0  0  0  0  0  0  0  0  0  0
   58.4313   34.9459   46.8450 H   0  0  0  0  0  0  0  0  0  0  0  0
   58.2441   35.1412   44.3634 H   0  0  0  0  0  0  0  0  0  0  0  0
   57.9758   33.0937   42.9641 H   0  0  0  0  0  0  0  0  0  0  0  0
  1  2  2  0
  2  3  1  0
  2  4  1  0
  4  5  2  0
  5  6  1  0
  6  7  1  0
  7  8  2  0
  7  9  1  0
  6 10  2  0
 10 11  1  0
 11 12  2  0
 12 13  1  0
 13 14  1  0
 14 15  2  0
 15 16  1  0
 16 17  2  0
 17 18  1  0
 18 19  2  0
 12  4  1  0
 19 14  1  0
  5 20  1  0
 10 21  1  0
 11 22  1  0
 13 23  1  0
 13 24  1  0
 15 25  1  0
 16 26  1  0
 17 27  1  0
 18 28  1  0
 19 29  1  0
M  CHG  4   3  -1   7   1   9  -1  13   1
M  END
>  <UniqueID>  (48) 
47

>  <SMILES>  (48) 
O=C([O-])c1cc([N+](=O)[O-])ccc1[NH2+]c1ccccc1

>  <Energy>  (48) 
40.36314227959221

>  <Genealogy>  (48) 
O=C([O-])c1cc([N+](=O)[O-])ccc1[NH2+]c1ccccc1 (protonated)
O=C([O-])c1cc([N+](=O)[O-])ccc1[NH2+]c1ccccc1 (3D coordinates assigned)
O=C([O-])c1cc([N+](=O)[O-])ccc1[NH2+]c1ccccc1 (optimized conformer: 40.36314227959221 kcal/mol)

>  <smiles>  (48) 
O=C(O)c1cc([N+](=O)[O-])ccc1Nc1ccccc1

>  <score_type>  (48) 
oracle

>  <origin>  (48) 
adg

>  <m_score__min__energy>  (48) 
-8.0099999999999998

>  <m_primary>  (48) 
energy

$$$$
48:0
     RDKit          3D

 34 36  0  0  0  0  0  0  0  0999 V2000
   57.5979   31.8073   42.4417 H   0  0  0  0  0  0  0  0  0  0  0  0
   57.2850   31.1360   43.2550 C   0  0  0  0  0  0  0  0  0  0  0  0
   56.5040   29.6570   43.0700 S   0  0  0  0  0  0  0  0  0  0  0  0
   56.4580   29.3600   44.7190 C   0  0  0  0  0  0  0  0  0  0  0  0
   55.9060   28.3080   45.2430 N   0  0  0  0  0  0  0  0  0  0  0  0
   56.5880   27.1660   45.7830 C   0  0  0  0  0  0  0  0  0  0  0  0
   55.9100   26.2770   46.3620 O   0  0  0  0  0  0  0  0  0  0  0  0
   58.0630   26.9340   45.5640 C   0  0  0  0  0  0  0  0  0  0  0  0
   58.3331   25.9651   46.0092 H   0  0  0  0  0  0  0  0  0  0  0  0
   58.2368   26.9565   44.4780 H   0  0  0  0  0  0  0  0  0  0  0  0
   58.9380   28.0030   46.1770 C   0  0  0  0  0  0  0  0  0  0  0  0
   58.7020   28.4160   47.5010 C   0  0  0  0  0  0  0  0  0  0  0  0
   57.9254   27.9161   48.0985 H   0  0  0  0  0  0  0  0  0  0  0  0
   59.4470   29.4570   48.0630 C   0  0  0  0  0  0  0  0  0  0  0  0
   59.2572   29.7708   49.1001 H   0  0  0  0  0  0  0  0  0  0  0  0
   60.4320   30.0990   47.3090 C   0  0  0  0  0  0  0  0  0  0  0  0
   61.0271   30.9088   47.7564 H   0  0  0  0  0  0  0  0  0  0  0  0
   60.6610   29.7120   45.9860 C   0  0  0  0  0  0  0  0  0  0  0  0
   61.4345   30.2203   45.3916 H   0  0  0  0  0  0  0  0  0  0  0  0
   59.9090   28.6800   45.4160 C   0  0  0  0  0  0  0  0  0  0  0  0
   60.0774   28.3958   44.3668 H   0  0  0  0  0  0  0  0  0  0  0  0
   57.0030   30.3710   45.4310 N   0  0  0  0  0  0  0  0  0  0  0  0
   57.4670   31.3630   44.6230 C   0  0  0  0  0  0  0  0  0  0  0  0
   58.0700   32.5950   45.1750 C   0  0  0  0  0  0  0  0  0  0  0  0
   58.1460   32.7720   46.5670 C   0  0  0  0  0  0  0  0  0  0  0  0
   57.7465   31.9982   47.2390 H   0  0  0  0  0  0  0  0  0  0  0  0
   58.7260   33.9250   47.1030 C   0  0  0  0  0  0  0  0  0  0  0  0
   58.7847   34.0535   48.1939 H   0  0  0  0  0  0  0  0  0  0  0  0
   59.2310   34.9140   46.2570 C   0  0  0  0  0  0  0  0  0  0  0  0
   59.7930   36.0320   46.7790 F   0  0  0  0  0  0  0  0  0  0  0  0
   59.1550   34.7520   44.8710 C   0  0  0  0  0  0  0  0  0  0  0  0
   59.5505   35.5328   44.2047 H   0  0  0  0  0  0  0  0  0  0  0  0
   58.5770   33.5990   44.3290 C   0  0  0  0  0  0  0  0  0  0  0  0
   58.5186   33.4767   43.2374 H   0  0  0  0  0  0  0  0  0  0  0  0
  1  2  1  0
  2  3  1  0
  3  4  1  0
  4  5  2  0
  5  6  1  0
  6  7  2  0
  6  8  1  0
  8  9  1  0
  8 10  1  0
  8 11  1  0
 11 12  2  0
 12 13  1  0
 12 14  1  0
 14 15  1  0
 14 16  2  0
 16 17  1  0
 16 18  1  0
 18 19  1  0
 18 20  2  0
 20 21  1  0
  4 22  1  0
 22 23  1  0
 23 24  1  0
 24 25  2  0
 25 26  1  0
 25 27  1  0
 27 28  1  0
 27 29  2  0
 29 30  1  0
 29 31  1  0
 31 32  1  0
 31 33  2  0
 33 34  1  0
 23  2  2  0
 33 24  1  0
 20 11  1  0
M  CHG  1  22  -1
M  END
>  <UniqueID>  (49) 
48

>  <SMILES>  (49) 
O=C(Cc1ccccc1)/N=c1\[n-]c(-c2ccc(F)cc2)cs1

>  <Energy>  (49) 
71.97974282137456

>  <Genealogy>  (49) 
O=C(Cc1ccccc1)N=c1[n-]c(-c2ccc(F)cc2)cs1 (protonated)
O=C(Cc1ccccc1)/N=c1\[n-]c(-c2ccc(F)cc2)cs1 (cis-trans isomerization)
O=C(Cc1ccccc1)/N=c1\[n-]c(-c2ccc(F)cc2)cs1 (3D coordinates assigned)
O=C(Cc1ccccc1)/N=c1\[n-]c(-c2ccc(F)cc2)cs1 (optimized conformer: 71.97974282137456 kcal/mol)

>  <smiles>  (49) 
O=C(Cc1ccccc1)N=c1[nH]c(-c2ccc(F)cc2)cs1

>  <score_type>  (49) 
oracle

>  <origin>  (49) 
adg

>  <m_score__min__energy>  (49) 
-10.029999999999999

>  <m_primary>  (49) 
energy

$$$$
49:0
     RDKit          3D

 53 55  0  0  0  0  0  0  0  0999 V2000
   60.6020   30.0530   47.3080 C   0  0  0  0  0  0  0  0  0  0  0  0
   60.3250   30.9970   46.2790 O   0  0  0  0  0  0  0  0  0  0  0  0
   59.9120   32.3200   46.5030 C   0  0  0  0  0  0  0  0  0  0  0  0
   60.4020   33.0760   47.5870 C   0  0  0  0  0  0  0  0  0  0  0  0
   59.9810   34.3930   47.7820 C   0  0  0  0  0  0  0  0  0  0  0  0
   59.0690   34.9740   46.9020 C   0  0  0  0  0  0  0  0  0  0  0  0
   58.5720   34.2380   45.8250 C   0  0  0  0  0  0  0  0  0  0  0  0
   58.9840   32.9120   45.6150 C   0  0  0  0  0  0  0  0  0  0  0  0
   58.4040   32.1430   44.4540 C   0  0  0  0  0  0  0  0  0  0  0  0
   58.4410   30.7080   44.7270 N   0  0  0  0  0  0  0  0  0  0  0  0
   57.2610   29.8900   44.7130 C   0  0  0  0  0  0  0  0  0  0  0  0
   56.1310   30.4140   44.5200 O   0  0  0  0  0  0  0  0  0  0  0  0
   57.3580   28.4390   44.9190 C   0  0  0  0  0  0  0  0  0  0  0  0
   57.0880   27.8270   46.0930 N   0  0  0  0  0  0  0  0  0  0  0  0
   57.2620   26.4800   46.0210 C   0  0  0  0  0  0  0  0  0  0  0  0
   57.6730   26.0060   44.7720 C   0  0  0  0  0  0  0  0  0  0  0  0
   57.8310   27.3290   43.7450 S   0  0  0  0  0  0  0  0  0  0  0  0
   57.9790   24.5850   44.3730 C   0  0  0  0  0  0  0  0  0  0  0  0
   56.7890   23.6110   44.4720 C   0  0  0  0  0  0  0  0  0  0  0  0
   56.1700   23.6630   45.8200 N   0  0  0  0  0  0  0  0  0  0  0  0
   55.5500   22.3670   46.1780 C   0  0  0  0  0  0  0  0  0  0  0  0
   54.2040   22.5540   46.9110 C   0  0  0  0  0  0  0  0  0  0  0  0
   53.0020   22.2680   45.9960 C   0  0  0  0  0  0  0  0  0  0  0  0
   52.4370   23.5460   45.3730 C   0  0  0  0  0  0  0  0  0  0  0  0
   52.2730   23.3850   44.0080 F   0  0  0  0  0  0  0  0  0  0  0  0
   51.2080   23.8260   45.9390 F   0  0  0  0  0  0  0  0  0  0  0  0
   53.2890   24.6090   45.6090 F   0  0  0  0  0  0  0  0  0  0  0  0
   57.1430   24.0990   46.8570 C   0  0  0  0  0  0  0  0  0  0  0  0
   57.0460   25.5970   47.2130 C   0  0  0  0  0  0  0  0  0  0  0  0
   60.4623   30.5292   48.2897 H   0  0  0  0  0  0  0  0  0  0  0  0
   59.9171   29.1973   47.2147 H   0  0  0  0  0  0  0  0  0  0  0  0
   61.6407   29.7031   47.2147 H   0  0  0  0  0  0  0  0  0  0  0  0
   61.1222   32.6247   48.2853 H   0  0  0  0  0  0  0  0  0  0  0  0
   60.3697   34.9733   48.6318 H   0  0  0  0  0  0  0  0  0  0  0  0
   58.7410   36.0126   47.0564 H   0  0  0  0  0  0  0  0  0  0  0  0
   57.8513   34.7007   45.1347 H   0  0  0  0  0  0  0  0  0  0  0  0
   57.3612   32.4556   44.2964 H   0  0  0  0  0  0  0  0  0  0  0  0
   59.0001   32.3513   43.5533 H   0  0  0  0  0  0  0  0  0  0  0  0
   59.3660   30.2690   44.9340 H   0  0  0  0  0  0  0  0  0  0  0  0
   58.3293   24.5911   43.3303 H   0  0  0  0  0  0  0  0  0  0  0  0
   58.7345   24.2213   45.0850 H   0  0  0  0  0  0  0  0  0  0  0  0
   56.0355   23.8860   43.7193 H   0  0  0  0  0  0  0  0  0  0  0  0
   57.1564   22.5895   44.2942 H   0  0  0  0  0  0  0  0  0  0  0  0
   55.3763   21.7899   45.2578 H   0  0  0  0  0  0  0  0  0  0  0  0
   56.2358   21.8374   46.8556 H   0  0  0  0  0  0  0  0  0  0  0  0
   54.1686   21.8659   47.7685 H   0  0  0  0  0  0  0  0  0  0  0  0
   54.1391   23.6025   47.2374 H   0  0  0  0  0  0  0  0  0  0  0  0
   53.3228   21.5920   45.1897 H   0  0  0  0  0  0  0  0  0  0  0  0
   52.2108   21.8109   46.6085 H   0  0  0  0  0  0  0  0  0  0  0  0
   56.9619   23.5133   47.7703 H   0  0  0  0  0  0  0  0  0  0  0  0
   58.1482   23.9333   46.4422 H   0  0  0  0  0  0  0  0  0  0  0  0
   56.0466   25.7985   47.6261 H   0  0  0  0  0  0  0  0  0  0  0  0
   57.8358   25.8208   47.9452 H   0  0  0  0  0  0  0  0  0  0  0  0
  1  2  1  0
  2  3  1  0
  3  4  2  0
  4  5  1  0
  5  6  2  0
  6  7  1  0
  7  8  2  0
  8  9  1  0
  9 10  1  0
 10 11  1  0
 11 12  2  0
 11 13  1  0
 13 14  2  0
 14 15  1  0
 15 16  2  0
 16 17  1  0
 16 18  1  0
 18 19  1  0
 19 20  1  0
 20 21  1  0
 21 22  1  0
 22 23  1  0
 23 24  1  0
 24 25  1  0
 24 26  1  0
 24 27  1  0
 20 28  1  0
 28 29  1  0
  8  3  1  0
 17 13  1  0
 29 15  1  0
  1 30  1  0
  1 31  1  0
  1 32  1  0
  4 33  1  0
  5 34  1  0
  6 35  1  0
  7 36  1  0
  9 37  1  0
  9 38  1  0
 10 39  1  0
 18 40  1  0
 18 41  1  0
 19 42  1  0
 19 43  1  0
 21 44  1  0
 21 45  1  0
 22 46  1  0
 22 47  1  0
 23 48  1  0
 23 49  1  0
 28 50  1  0
 28 51  1  0
 29 52  1  0
 29 53  1  0
M  END
>  <UniqueID>  (50) 
49

>  <SMILES>  (50) 
COc1ccccc1CNC(=O)c1nc2c(s1)CCN(CCCC(F)(F)F)CC2

>  <Energy>  (50) 
86.43885567012667

>  <Genealogy>  (50) 
COc1ccccc1CNC(=O)c1nc2c(s1)CCN(CCCC(F)(F)F)CC2 (3D coordinates assigned)
COc1ccccc1CNC(=O)c1nc2c(s1)CCN(CCCC(F)(F)F)CC2 (nonaromatic ring conformer: 86.43885567012667 kcal/mol)

>  <smiles>  (50) 
COc1ccccc1CNC(=O)c1nc2c(s1)CCN(CCCC(F)(F)F)CC2

>  <score_type>  (50) 
oracle

>  <origin>  (50) 
adg

>  <m_score__min__energy>  (50) 
-4.4100000000000001

>  <m_primary>  (50) 
energy

$$$$
50:0
     RDKit          3D

 50 53  0  0  0  0  0  0  0  0999 V2000
   57.2842   20.9453   43.1772 H   0  0  0  0  0  0  0  0  0  0  0  0
   56.9480   21.8580   43.6910 C   0  0  0  0  0  0  0  0  0  0  0  0
   55.6470   21.9880   44.0590 N   0  0  0  0  0  0  0  0  0  0  0  0
   55.1840   23.1060   44.6880 C   0  0  0  0  0  0  0  0  0  0  0  0
   53.9340   23.2180   45.0360 N   0  0  0  0  0  0  0  0  0  0  0  0
   53.1970   24.4380   45.2120 C   0  0  0  0  0  0  0  0  0  0  0  0
   53.7610   25.4890   45.6310 O   0  0  0  0  0  0  0  0  0  0  0  0
   51.7510   24.4690   44.8120 C   0  0  0  0  0  0  0  0  0  0  0  0
   51.5237   25.4268   45.3029 H   0  0  0  0  0  0  0  0  0  0  0  0
   51.4720   23.8330   43.4570 C   0  0  0  0  0  0  0  0  0  0  0  0
   50.7168   24.2724   42.7887 H   0  0  0  0  0  0  0  0  0  0  0  0
   52.0854   23.5604   42.5856 H   0  0  0  0  0  0  0  0  0  0  0  0
   51.0390   23.1230   44.7300 C   0  0  0  0  0  0  0  0  0  0  0  0
   49.9709   23.0495   44.9827 H   0  0  0  0  0  0  0  0  0  0  0  0
   51.2096   22.1253   45.1607 H   0  0  0  0  0  0  0  0  0  0  0  0
   56.0690   24.1560   44.9700 C   0  0  0  0  0  0  0  0  0  0  0  0
   55.7006   25.0728   45.4535 H   0  0  0  0  0  0  0  0  0  0  0  0
   57.4220   24.0350   44.6350 C   0  0  0  0  0  0  0  0  0  0  0  0
   58.2950   25.0900   44.9460 O   0  0  0  0  0  0  0  0  0  0  0  0
   57.9530   26.4520   44.9430 C   0  0  0  0  0  0  0  0  0  0  0  0
   57.7260   27.1640   46.1330 C   0  0  0  0  0  0  0  0  0  0  0  0
   57.8076   26.6500   47.1021 H   0  0  0  0  0  0  0  0  0  0  0  0
   57.3970   28.5220   46.0920 C   0  0  0  0  0  0  0  0  0  0  0  0
   57.2546   29.0789   47.0299 H   0  0  0  0  0  0  0  0  0  0  0  0
   57.2480   29.1760   44.8660 C   0  0  0  0  0  0  0  0  0  0  0  0
   56.9640   30.5800   44.8580 N   0  0  0  0  0  0  0  0  0  0  0  0
   57.7230   31.5890   45.5350 C   0  0  0  0  0  0  0  0  0  0  0  0
   57.4960   32.7990   45.2650 O   0  0  0  0  0  0  0  0  0  0  0  0
   58.7490   31.2310   46.4790 N   0  0  0  0  0  0  0  0  0  0  0  0
   58.8350   30.2320   46.7700 H   0  0  0  0  0  0  0  0  0  0  0  0
   59.6610   32.1720   47.0710 C   0  0  0  0  0  0  0  0  0  0  0  0
   59.1750   33.1160   47.9860 C   0  0  0  0  0  0  0  0  0  0  0  0
   58.0991   33.1539   48.2119 H   0  0  0  0  0  0  0  0  0  0  0  0
   60.0470   34.0090   48.6130 C   0  0  0  0  0  0  0  0  0  0  0  0
   59.5690   34.9020   49.5100 F   0  0  0  0  0  0  0  0  0  0  0  0
   61.4150   33.9690   48.3310 C   0  0  0  0  0  0  0  0  0  0  0  0
   62.0972   34.6736   48.8292 H   0  0  0  0  0  0  0  0  0  0  0  0
   61.9240   33.0330   47.4140 C   0  0  0  0  0  0  0  0  0  0  0  0
   63.4060   32.9350   47.1550 C   0  0  0  0  0  0  0  0  0  0  0  0
   63.8060   31.6120   47.0630 F   0  0  0  0  0  0  0  0  0  0  0  0
   63.7060   33.5820   45.9690 F   0  0  0  0  0  0  0  0  0  0  0  0
   64.1150   33.5290   48.1880 F   0  0  0  0  0  0  0  0  0  0  0  0
   61.0440   32.1120   46.8160 C   0  0  0  0  0  0  0  0  0  0  0  0
   61.4407   31.3378   46.1428 H   0  0  0  0  0  0  0  0  0  0  0  0
   57.4570   28.4630   43.6730 C   0  0  0  0  0  0  0  0  0  0  0  0
   57.3546   28.9739   42.7042 H   0  0  0  0  0  0  0  0  0  0  0  0
   57.7950   27.1050   43.7130 C   0  0  0  0  0  0  0  0  0  0  0  0
   57.9920   26.4300   42.5550 F   0  0  0  0  0  0  0  0  0  0  0  0
   57.8590   22.8790   43.9630 C   0  0  0  0  0  0  0  0  0  0  0  0
   58.9103   22.7809   43.6545 H   0  0  0  0  0  0  0  0  0  0  0  0
  1  2  1  0
  2  3  1  0
  3  4  1  0
  4  5  2  0
  5  6  1  0
  6  7  2  0
  6  8  1  0
  8  9  1  0
  8 10  1  0
 10 11  1  0
 10 12  1  0
 10 13  1  0
 13 14  1  0
 13 15  1  0
  4 16  1  0
 16 17  1  0
 16 18  2  0
 18 19  1  0
 19 20  1  0
 20 21  2  0
 21 22  1  0
 21 23  1  0
 23 24  1  0
 23 25  2  0
 25 26  1  0
 26 27  1  0
 27 28  2  0
 27 29  1  0
 29 30  1  0
 29 31  1  0
 31 32  2  0
 32 33  1  0
 32 34  1  0
 34 35  1  0
 34 36  2  0
 36 37  1  0
 36 38  1  0
 38 39  1  0
 39 40  1  0
 39 41  1  0
 39 42  1  0
 38 43  2  0
 43 44  1  0
 25 45  1  0
 45 46  1  0
 45 47  2  0
 47 48  1  0
 18 49  1  0
 49 50  1  0
 49  2  2  0
 13  8  1  0
 47 20  1  0
 43 31  1  0
M  CHG  2   3  -1  26  -1
M  END
>  <UniqueID>  (51) 
50

>  <SMILES>  (51) 
O=C([N-]c1ccc(Oc2cc[n-]/c(=N\C(=O)C3CC3)c2)c(F)c1)Nc1cc(F)cc(C(F)(F)F)c1

>  <Energy>  (51) 
336.32063888148474

>  <Genealogy>  (51) 
O=C([N-]c1ccc(Oc2cc[n-]c(=NC(=O)C3CC3)c2)c(F)c1)Nc1cc(F)cc(C(F)(F)F)c1 (protonated)
O=C([N-]c1ccc(Oc2cc[n-]/c(=N\C(=O)C3CC3)c2)c(F)c1)Nc1cc(F)cc(C(F)(F)F)c1 (cis-trans isomerization)
O=C([N-]c1ccc(Oc2cc[n-]/c(=N\C(=O)C3CC3)c2)c(F)c1)Nc1cc(F)cc(C(F)(F)F)c1 (3D coordinates assigned)
O=C([N-]c1ccc(Oc2cc[n-]/c(=N\C(=O)C3CC3)c2)c(F)c1)Nc1cc(F)cc(C(F)(F)F)c1 (nonaromatic ring conformer: 336.32063888148474 kcal/mol)

>  <smiles>  (51) 
O=C(Nc1cc(F)cc(C(F)(F)F)c1)Nc1ccc(Oc2cc[nH]c(=NC(=O)C3CC3)c2)c(F)c1

>  <score_type>  (51) 
oracle

>  <origin>  (51) 
adg

>  <m_score__min__energy>  (51) 
-11.06

>  <m_primary>  (51) 
energy

$$$$
51:0
     RDKit          3D

 45 47  0  0  0  0  0  0  0  0999 V2000
   57.2218   25.8165   47.2968 H   0  0  0  0  0  0  0  0  0  0  0  0
   57.3920   26.7350   46.7160 C   0  0  0  0  0  0  0  0  0  0  0  0
   58.6570   27.3310   46.7060 C   0  0  0  0  0  0  0  0  0  0  0  0
   59.4766   26.8833   47.2872 H   0  0  0  0  0  0  0  0  0  0  0  0
   58.8870   28.4940   45.9610 C   0  0  0  0  0  0  0  0  0  0  0  0
   60.1650   29.0710   45.9900 O   0  0  0  0  0  0  0  0  0  0  0  0
   60.6740   29.8710   47.0240 C   0  0  0  0  0  0  0  0  0  0  0  0
   61.6910   30.8160   46.8000 C   0  0  0  0  0  0  0  0  0  0  0  0
   62.1043   30.9481   45.7892 H   0  0  0  0  0  0  0  0  0  0  0  0
   62.1780   31.5880   47.8590 C   0  0  0  0  0  0  0  0  0  0  0  0
   62.9748   32.3240   47.6762 H   0  0  0  0  0  0  0  0  0  0  0  0
   61.6600   31.4320   49.1500 C   0  0  0  0  0  0  0  0  0  0  0  0
   62.2070   32.2330   50.2090 N   0  0  0  0  0  0  0  0  0  0  0  0
   61.6630   33.4460   50.7460 C   0  0  0  0  0  0  0  0  0  0  0  0
   61.9500   33.8050   51.9180 O   0  0  0  0  0  0  0  0  0  0  0  0
   60.7810   34.2740   49.9730 N   0  0  0  0  0  0  0  0  0  0  0  0
   59.9560   33.9230   49.0280 C   0  0  0  0  0  0  0  0  0  0  0  0
   58.9130   33.1050   49.2580 N   0  0  0  0  0  0  0  0  0  0  0  0
   58.3100   32.9360   48.1180 O   0  0  0  0  0  0  0  0  0  0  0  0
   58.9100   33.6010   47.1540 C   0  0  0  0  0  0  0  0  0  0  0  0
   58.4690   33.6110   45.7030 C   0  0  0  0  0  0  0  0  0  0  0  0
   58.5990   32.1900   45.1200 C   0  0  0  0  0  0  0  0  0  0  0  0
   58.6657   31.4614   45.9414 H   0  0  0  0  0  0  0  0  0  0  0  0
   57.7176   31.9655   44.5013 H   0  0  0  0  0  0  0  0  0  0  0  0
   59.5065   32.1291   44.5013 H   0  0  0  0  0  0  0  0  0  0  0  0
   57.0050   34.0770   45.6140 C   0  0  0  0  0  0  0  0  0  0  0  0
   56.5990   34.2062   46.6281 H   0  0  0  0  0  0  0  0  0  0  0  0
   56.9572   35.0348   45.0751 H   0  0  0  0  0  0  0  0  0  0  0  0
   56.4123   33.3231   45.0751 H   0  0  0  0  0  0  0  0  0  0  0  0
   59.3560   34.5720   44.8860 C   0  0  0  0  0  0  0  0  0  0  0  0
   59.9396   35.2043   45.5713 H   0  0  0  0  0  0  0  0  0  0  0  0
   60.0406   33.9895   44.2519 H   0  0  0  0  0  0  0  0  0  0  0  0
   58.7206   35.2078   44.2519 H   0  0  0  0  0  0  0  0  0  0  0  0
   60.0000   34.2670   47.6870 C   0  0  0  0  0  0  0  0  0  0  0  0
   60.7254   34.9129   47.1707 H   0  0  0  0  0  0  0  0  0  0  0  0
   60.6790   30.4520   49.3820 C   0  0  0  0  0  0  0  0  0  0  0  0
   60.2943   30.2915   50.4000 H   0  0  0  0  0  0  0  0  0  0  0  0
   60.1910   29.6810   48.3230 C   0  0  0  0  0  0  0  0  0  0  0  0
   59.4210   28.9187   48.5127 H   0  0  0  0  0  0  0  0  0  0  0  0
   57.8230   29.0750   45.2460 C   0  0  0  0  0  0  0  0  0  0  0  0
   57.9864   30.0031   44.6787 H   0  0  0  0  0  0  0  0  0  0  0  0
   56.5590   28.4770   45.2540 C   0  0  0  0  0  0  0  0  0  0  0  0
   55.7341   28.9277   44.6828 H   0  0  0  0  0  0  0  0  0  0  0  0
   56.3430   27.3060   45.9880 C   0  0  0  0  0  0  0  0  0  0  0  0
   55.0870   26.7120   45.9960 O   0  0  0  0  0  0  0  0  0  0  0  0
  1  2  1  0
  2  3  2  0
  3  4  1  0
  3  5  1  0
  5  6  1  0
  6  7  1  0
  7  8  2  0
  8  9  1  0
  8 10  1  0
 10 11  1  0
 10 12  2  0
 12 13  1  0
 13 14  1  0
 14 15  2  0
 14 16  1  0
 16 17  2  0
 17 18  1  0
 18 19  1  0
 19 20  1  0
 20 21  1  0
 21 22  1  0
 22 23  1  0
 22 24  1  0
 22 25  1  0
 21 26  1  0
 26 27  1  0
 26 28  1  0
 26 29  1  0
 21 30  1  0
 30 31  1  0
 30 32  1  0
 30 33  1  0
 20 34  2  0
 34 35  1  0
 12 36  1  0
 36 37  1  0
 36 38  2  0
 38 39  1  0
  5 40  2  0
 40 41  1  0
 40 42  1  0
 42 43  1  0
 42 44  2  0
 44 45  1  0
 44  2  1  0
 38  7  1  0
 34 17  1  0
M  CHG  3  13  -1  18  -1  45  -1
M  END
>  <UniqueID>  (52) 
51

>  <SMILES>  (52) 
CC(C)(C)c1c/c(=N\C(=O)[N-]c2ccc(Oc3ccc([O-])cc3)cc2)[n-]o1

>  <Energy>  (52) 
88.13431455496702

>  <Genealogy>  (52) 
CC(C)(C)c1cc(=NC(=O)[N-]c2ccc(Oc3ccc([O-])cc3)cc2)[n-]o1 (protonated)
CC(C)(C)c1c/c(=N\C(=O)[N-]c2ccc(Oc3ccc([O-])cc3)cc2)[n-]o1 (cis-trans isomerization)
CC(C)(C)c1c/c(=N\C(=O)[N-]c2ccc(Oc3ccc([O-])cc3)cc2)[n-]o1 (3D coordinates assigned)
CC(C)(C)c1c/c(=N\C(=O)[N-]c2ccc(Oc3ccc([O-])cc3)cc2)[n-]o1 (optimized conformer: 88.13431455496702 kcal/mol)

>  <smiles>  (52) 
CC(C)(C)c1cc(=NC(=O)Nc2ccc(Oc3ccc(O)cc3)cc2)[nH]o1

>  <score_type>  (52) 
oracle

>  <origin>  (52) 
adg

>  <m_score__min__energy>  (52) 
-12.550000000000001

>  <m_primary>  (52) 
energy

$$$$
52:0
     RDKit          3D

 47 48  0  0  0  0  0  0  0  0999 V2000
   59.2480   34.2980   53.7520 C   0  0  0  0  0  0  0  0  0  0  0  0
   58.6640   34.4960   52.3530 C   0  0  0  0  0  0  0  0  0  0  0  0
   58.2480   33.2020   51.7780 N   0  0  0  0  0  0  0  0  0  0  0  0
   57.6760   32.2740   52.7850 C   0  0  0  0  0  0  0  0  0  0  0  0
   57.7680   30.8230   52.2990 C   0  0  0  0  0  0  0  0  0  0  0  0
   56.7890   29.9170   53.0470 C   0  0  0  0  0  0  0  0  0  0  0  0
   55.7960   29.3880   52.1180 N   0  0  0  0  0  0  0  0  0  0  0  0
   54.2270   29.4120   52.8640 S   0  0  0  0  0  0  0  0  0  0  0  0
   53.7580   27.9990   53.0680 O   0  0  0  0  0  0  0  0  0  0  0  0
   54.3170   30.0810   54.2080 O   0  0  0  0  0  0  0  0  0  0  0  0
   53.0690   30.2680   51.8460 C   0  0  0  0  0  0  0  0  0  0  0  0
   52.5900   31.5300   52.2280 C   0  0  0  0  0  0  0  0  0  0  0  0
   51.7040   32.2250   51.4000 C   0  0  0  0  0  0  0  0  0  0  0  0
   51.2920   31.6650   50.1860 C   0  0  0  0  0  0  0  0  0  0  0  0
   50.4100   32.3630   49.3690 O   0  0  0  0  0  0  0  0  0  0  0  0
   51.7680   30.4070   49.7960 C   0  0  0  0  0  0  0  0  0  0  0  0
   51.3560   29.8560   48.5840 O   0  0  0  0  0  0  0  0  0  0  0  0
   52.6600   29.7120   50.6260 C   0  0  0  0  0  0  0  0  0  0  0  0
   59.2850   32.5840   50.9140 C   0  0  0  0  0  0  0  0  0  0  0  0
   59.2750   33.0810   49.4820 C   0  0  0  0  0  0  0  0  0  0  0  0
   60.1080   34.1480   49.0960 C   0  0  0  0  0  0  0  0  0  0  0  0
   60.1070   34.6040   47.7750 C   0  0  0  0  0  0  0  0  0  0  0  0
   59.2860   33.9950   46.8230 C   0  0  0  0  0  0  0  0  0  0  0  0
   58.4700   32.9220   47.1900 C   0  0  0  0  0  0  0  0  0  0  0  0
   58.4670   32.4630   48.5120 C   0  0  0  0  0  0  0  0  0  0  0  0
   58.4893   34.5552   54.5058 H   0  0  0  0  0  0  0  0  0  0  0  0
   59.5491   33.2476   53.8784 H   0  0  0  0  0  0  0  0  0  0  0  0
   60.1258   34.9487   53.8784 H   0  0  0  0  0  0  0  0  0  0  0  0
   57.7904   35.1614   52.4164 H   0  0  0  0  0  0  0  0  0  0  0  0
   59.4341   34.9413   51.7060 H   0  0  0  0  0  0  0  0  0  0  0  0
   58.2342   32.3752   53.7274 H   0  0  0  0  0  0  0  0  0  0  0  0
   56.6171   32.5287   52.9393 H   0  0  0  0  0  0  0  0  0  0  0  0
   57.5349   30.7907   51.2245 H   0  0  0  0  0  0  0  0  0  0  0  0
   58.7885   30.4596   52.4900 H   0  0  0  0  0  0  0  0  0  0  0  0
   57.3407   29.0831   53.5055 H   0  0  0  0  0  0  0  0  0  0  0  0
   56.2803   30.4997   53.8291 H   0  0  0  0  0  0  0  0  0  0  0  0
   52.9125   31.9737   53.1815 H   0  0  0  0  0  0  0  0  0  0  0  0
   51.3300   33.2140   51.7034 H   0  0  0  0  0  0  0  0  0  0  0  0
   50.6610   30.3120   48.0040 H   0  0  0  0  0  0  0  0  0  0  0  0
   53.0401   28.7267   50.3182 H   0  0  0  0  0  0  0  0  0  0  0  0
   60.2716   32.8026   51.3485 H   0  0  0  0  0  0  0  0  0  0  0  0
   59.0659   31.5067   50.8771 H   0  0  0  0  0  0  0  0  0  0  0  0
   60.7638   34.6258   49.8387 H   0  0  0  0  0  0  0  0  0  0  0  0
   60.7543   35.4445   47.4842 H   0  0  0  0  0  0  0  0  0  0  0  0
   59.2820   34.3599   45.7853 H   0  0  0  0  0  0  0  0  0  0  0  0
   57.8290   32.4373   46.4388 H   0  0  0  0  0  0  0  0  0  0  0  0
   57.8282   31.6130   48.7939 H   0  0  0  0  0  0  0  0  0  0  0  0
  1  2  1  0
  2  3  1  0
  3  4  1  0
  4  5  1  0
  5  6  1  0
  6  7  1  0
  7  8  1  0
  8  9  2  0
  8 10  2  0
  8 11  1  0
 11 12  2  0
 12 13  1  0
 13 14  2  0
 14 15  1  0
 14 16  1  0
 16 17  1  0
 16 18  2  0
  3 19  1  0
 19 20  1  0
 20 21  2  0
 21 22  1  0
 22 23  2  0
 23 24  1  0
 24 25  2  0
 18 11  1  0
 25 20  1  0
  1 26  1  0
  1 27  1  0
  1 28  1  0
  2 29  1  0
  2 30  1  0
  4 31  1  0
  4 32  1  0
  5 33  1  0
  5 34  1  0
  6 35  1  0
  6 36  1  0
 12 37  1  0
 13 38  1  0
 17 39  1  0
 18 40  1  0
 19 41  1  0
 19 42  1  0
 21 43  1  0
 22 44  1  0
 23 45  1  0
 24 46  1  0
 25 47  1  0
M  CHG  2   7  -1  15  -1
M  END
>  <UniqueID>  (53) 
52

>  <SMILES>  (53) 
CCN(CCC[N-]S(=O)(=O)c1ccc([O-])c(O)c1)Cc1ccccc1

>  <Energy>  (53) 
43.69229506253732

>  <Genealogy>  (53) 
CCN(CCC[N-]S(=O)(=O)c1ccc([O-])c(O)c1)Cc1ccccc1 (protonated)
CCN(CCC[N-]S(=O)(=O)c1ccc([O-])c(O)c1)Cc1ccccc1 (3D coordinates assigned)
CCN(CCC[N-]S(=O)(=O)c1ccc([O-])c(O)c1)Cc1ccccc1 (optimized conformer: 43.69229506253732 kcal/mol)

>  <smiles>  (53) 
CCN(CCCNS(=O)(=O)c1ccc(O)c(O)c1)Cc1ccccc1

>  <score_type>  (53) 
oracle

>  <origin>  (53) 
adg

>  <m_score__min__energy>  (53) 
-12.75

>  <m_primary>  (53) 
energy

$$$$
53:0
     RDKit          3D

 35 36  0  0  0  0  0  0  0  0999 V2000
   59.2620   34.3800   47.8460 C   0  0  0  0  0  0  0  0  0  0  0  0
   59.7250   33.9200   46.5230 N   0  0  0  0  0  0  0  0  0  0  0  0
   58.9410   34.5770   45.4460 C   0  0  0  0  0  0  0  0  0  0  0  0
   58.8540   33.7240   44.1760 C   0  0  0  0  0  0  0  0  0  0  0  0
   58.2610   32.4210   44.4930 N   0  0  0  0  0  0  0  0  0  0  0  0
   57.4080   31.7410   43.5430 C   0  0  0  0  0  0  0  0  0  0  0  0
   57.5810   31.9680   41.9360 S   0  0  0  0  0  0  0  0  0  0  0  0
   56.1810   30.5450   44.1010 S   0  0  0  0  0  0  0  0  0  0  0  0
   57.0860   29.0740   43.4790 C   0  0  0  0  0  0  0  0  0  0  0  0
   57.9660   28.4550   44.5380 C   0  0  0  0  0  0  0  0  0  0  0  0
   59.3570   28.6490   44.5000 C   0  0  0  0  0  0  0  0  0  0  0  0
   60.1670   28.1060   45.5060 C   0  0  0  0  0  0  0  0  0  0  0  0
   59.5940   27.3750   46.5570 C   0  0  0  0  0  0  0  0  0  0  0  0
   60.6130   26.7120   47.8140 Cl  0  0  0  0  0  0  0  0  0  0  0  0
   58.2110   27.1730   46.5970 C   0  0  0  0  0  0  0  0  0  0  0  0
   57.4000   27.7030   45.5880 C   0  0  0  0  0  0  0  0  0  0  0  0
   58.5030   31.8340   45.8160 C   0  0  0  0  0  0  0  0  0  0  0  0
   59.7630   32.4390   46.4520 C   0  0  0  0  0  0  0  0  0  0  0  0
   59.8067   33.8388   48.6337 H   0  0  0  0  0  0  0  0  0  0  0  0
   59.4500   35.4592   47.9454 H   0  0  0  0  0  0  0  0  0  0  0  0
   58.1840   34.1850   47.9454 H   0  0  0  0  0  0  0  0  0  0  0  0
   57.9219   34.7633   45.8157 H   0  0  0  0  0  0  0  0  0  0  0  0
   59.4551   35.5134   45.1837 H   0  0  0  0  0  0  0  0  0  0  0  0
   58.2281   34.2389   43.4323 H   0  0  0  0  0  0  0  0  0  0  0  0
   59.8649   33.5739   43.7692 H   0  0  0  0  0  0  0  0  0  0  0  0
   56.3546   28.3240   43.1436 H   0  0  0  0  0  0  0  0  0  0  0  0
   57.7329   29.4009   42.6516 H   0  0  0  0  0  0  0  0  0  0  0  0
   59.8099   29.2269   43.6809 H   0  0  0  0  0  0  0  0  0  0  0  0
   61.2565   28.2535   45.4714 H   0  0  0  0  0  0  0  0  0  0  0  0
   57.7616   26.5984   47.4203 H   0  0  0  0  0  0  0  0  0  0  0  0
   56.3137   27.5320   45.6138 H   0  0  0  0  0  0  0  0  0  0  0  0
   57.6379   32.0354   46.4649 H   0  0  0  0  0  0  0  0  0  0  0  0
   58.6482   30.7496   45.7023 H   0  0  0  0  0  0  0  0  0  0  0  0
   59.8650   32.0421   47.4728 H   0  0  0  0  0  0  0  0  0  0  0  0
   60.6166   32.1629   45.8156 H   0  0  0  0  0  0  0  0  0  0  0  0
  1  2  1  0
  2  3  1  0
  3  4  1  0
  4  5  1  0
  5  6  1  0
  6  7  2  0
  6  8  1  0
  8  9  1  0
  9 10  1  0
 10 11  2  0
 11 12  1  0
 12 13  2  0
 13 14  1  0
 13 15  1  0
 15 16  2  0
  5 17  1  0
 17 18  1  0
 18  2  1  0
 16 10  1  0
  1 19  1  0
  1 20  1  0
  1 21  1  0
  3 22  1  0
  3 23  1  0
  4 24  1  0
  4 25  1  0
  9 26  1  0
  9 27  1  0
 11 28  1  0
 12 29  1  0
 15 30  1  0
 16 31  1  0
 17 32  1  0
 17 33  1  0
 18 34  1  0
 18 35  1  0
M  END
>  <UniqueID>  (54) 
53

>  <SMILES>  (54) 
CN1CCN(C(=S)SCc2ccc(Cl)cc2)CC1

>  <Energy>  (54) 
37.01258039987128

>  <Genealogy>  (54) 
CN1CCN(C(=S)SCc2ccc(Cl)cc2)CC1 (3D coordinates assigned)
CN1CCN(C(=S)SCc2ccc(Cl)cc2)CC1 (nonaromatic ring conformer: 37.01258039987128 kcal/mol)

>  <smiles>  (54) 
CN1CCN(C(=S)SCc2ccc(Cl)cc2)CC1

>  <score_type>  (54) 
oracle

>  <origin>  (54) 
adg

>  <m_score__min__energy>  (54) 
-6.8399999999999999

>  <m_primary>  (54) 
energy

$$$$
54:0
     RDKit          3D

 57 60  0  0  0  0  0  0  0  0999 V2000
   56.6760   27.7510   43.1120 H   0  0  0  0  0  0  0  0  0  0  0  0
   56.6520   28.6010   43.6590 O   0  0  0  0  0  0  0  0  0  0  0  0
   57.5230   28.8570   44.7230 C   0  0  0  0  0  0  0  0  0  0  0  0
   57.6420   27.8970   45.7480 C   0  0  0  0  0  0  0  0  0  0  0  0
   56.7810   26.6930   45.7060 C   0  0  0  0  0  0  0  0  0  0  0  0
   55.5620   26.8160   46.0060 O   0  0  0  0  0  0  0  0  0  0  0  0
   57.3130   25.3620   45.3160 C   0  0  0  0  0  0  0  0  0  0  0  0
   58.4490   24.8190   45.9510 C   0  0  0  0  0  0  0  0  0  0  0  0
   58.9540   25.3875   46.7459 H   0  0  0  0  0  0  0  0  0  0  0  0
   58.9380   23.5640   45.5780 C   0  0  0  0  0  0  0  0  0  0  0  0
   59.8275   23.1512   46.0765 H   0  0  0  0  0  0  0  0  0  0  0  0
   58.3000   22.8330   44.5740 C   0  0  0  0  0  0  0  0  0  0  0  0
   58.6879   21.8463   44.2808 H   0  0  0  0  0  0  0  0  0  0  0  0
   57.1690   23.3550   43.9420 C   0  0  0  0  0  0  0  0  0  0  0  0
   56.5480   22.6440   42.9690 F   0  0  0  0  0  0  0  0  0  0  0  0
   56.6760   24.6100   44.3110 C   0  0  0  0  0  0  0  0  0  0  0  0
   55.7827   25.0133   43.8117 H   0  0  0  0  0  0  0  0  0  0  0  0
   58.5560   28.0960   46.8100 C   0  0  0  0  0  0  0  0  0  0  0  0
   58.6640   27.1250   47.8670 N   0  0  0  0  0  0  0  0  0  0  0  0
   59.4960   27.0900   48.4960 H   0  0  0  0  0  0  0  0  0  0  0  0
   57.9060   26.4340   48.0600 H   0  0  0  0  0  0  0  0  0  0  0  0
   59.3610   29.2580   46.8240 C   0  0  0  0  0  0  0  0  0  0  0  0
   60.3920   29.4800   47.8620 C   0  0  0  0  0  0  0  0  0  0  0  0
   60.7450   28.5050   48.5820 O   0  0  0  0  0  0  0  0  0  0  0  0
   61.0390   30.8030   48.0540 C   0  0  0  0  0  0  0  0  0  0  0  0
   62.1040   31.2160   47.2340 C   0  0  0  0  0  0  0  0  0  0  0  0
   62.4712   30.5496   46.4396 H   0  0  0  0  0  0  0  0  0  0  0  0
   62.6990   32.4650   47.4200 C   0  0  0  0  0  0  0  0  0  0  0  0
   63.5352   32.7749   46.7760 H   0  0  0  0  0  0  0  0  0  0  0  0
   62.2370   33.3220   48.4200 C   0  0  0  0  0  0  0  0  0  0  0  0
   62.7122   34.3036   48.5637 H   0  0  0  0  0  0  0  0  0  0  0  0
   61.1650   32.9340   49.2450 C   0  0  0  0  0  0  0  0  0  0  0  0
   60.6610   33.7600   50.2610 O   0  0  0  0  0  0  0  0  0  0  0  0
   59.4450   33.5220   50.9610 C   0  0  0  0  0  0  0  0  0  0  0  0
   59.6323   33.5587   52.0443 H   0  0  0  0  0  0  0  0  0  0  0  0
   58.7089   34.2931   50.6899 H   0  0  0  0  0  0  0  0  0  0  0  0
   59.0539   32.5303   50.6899 H   0  0  0  0  0  0  0  0  0  0  0  0
   60.5720   31.6790   49.0530 C   0  0  0  0  0  0  0  0  0  0  0  0
   59.7299   31.3737   49.6915 H   0  0  0  0  0  0  0  0  0  0  0  0
   59.2230   30.2100   45.8050 C   0  0  0  0  0  0  0  0  0  0  0  0
   59.8582   31.1080   45.8157 H   0  0  0  0  0  0  0  0  0  0  0  0
   58.2940   30.0400   44.7760 C   0  0  0  0  0  0  0  0  0  0  0  0
   58.1670   31.1210   43.7760 C   0  0  0  0  0  0  0  0  0  0  0  0
   58.5094   30.9419   42.7461 H   0  0  0  0  0  0  0  0  0  0  0  0
   57.6450   32.3140   44.0930 C   0  0  0  0  0  0  0  0  0  0  0  0
   56.7438   32.6427   43.5547 H   0  0  0  0  0  0  0  0  0  0  0  0
   58.2080   33.2180   45.1250 C   0  0  0  0  0  0  0  0  0  0  0  0
   59.1250   34.2460   44.8210 C   0  0  0  0  0  0  0  0  0  0  0  0
   59.4428   34.4056   43.7801 H   0  0  0  0  0  0  0  0  0  0  0  0
   59.6320   35.0630   45.8360 C   0  0  0  0  0  0  0  0  0  0  0  0
   60.3417   35.8665   45.5895 H   0  0  0  0  0  0  0  0  0  0  0  0
   59.2410   34.8630   47.1610 C   0  0  0  0  0  0  0  0  0  0  0  0
   59.6381   35.5111   47.9561 H   0  0  0  0  0  0  0  0  0  0  0  0
   58.3450   33.8390   47.4760 C   0  0  0  0  0  0  0  0  0  0  0  0
   58.0393   33.6792   48.5205 H   0  0  0  0  0  0  0  0  0  0  0  0
   57.8360   33.0170   46.4670 C   0  0  0  0  0  0  0  0  0  0  0  0
   57.1387   32.2060   46.7241 H   0  0  0  0  0  0  0  0  0  0  0  0
  1  2  1  0
  2  3  1  0
  3  4  2  0
  4  5  1  0
  5  6  2  0
  5  7  1  0
  7  8  2  0
  8  9  1  0
  8 10  1  0
 10 11  1  0
 10 12  2  0
 12 13  1  0
 12 14  1  0
 14 15  1  0
 14 16  2  0
 16 17  1  0
  4 18  1  0
 18 19  1  0
 19 20  1  0
 19 21  1  0
 18 22  2  0
 22 23  1  0
 23 24  2  0
 23 25  1  0
 25 26  2  0
 26 27  1  0
 26 28  1  0
 28 29  1  0
 28 30  2  0
 30 31  1  0
 30 32  1  0
 32 33  1  0
 33 34  1  0
 34 35  1  0
 34 36  1  0
 34 37  1  0
 32 38  2  0
 38 39  1  0
 22 40  1  0
 40 41  1  0
 40 42  2  0
 42 43  1  0
 43 44  1  0
 43 45  2  0
 45 46  1  0
 45 47  1  0
 47 48  2  0
 48 49  1  0
 48 50  1  0
 50 51  1  0
 50 52  2  0
 52 53  1  0
 52 54  1  0
 54 55  1  0
 54 56  2  0
 56 57  1  0
 42  3  1  0
 56 47  1  0
 16  7  1  0
 38 25  1  0
M  END
>  <UniqueID>  (55) 
54

>  <SMILES>  (55) 
COc1cccc(C(=O)c2cc(/C=C/c3ccccc3)c(O)c(C(=O)c3cccc(F)c3)c2N)c1

>  <Energy>  (55) 
88.75591657745005

>  <Genealogy>  (55) 
COc1cccc(C(=O)c2cc(/C=C/c3ccccc3)c(O)c(C(=O)c3cccc(F)c3)c2N)c1 (cis-trans isomerization)
COc1cccc(C(=O)c2cc(/C=C/c3ccccc3)c(O)c(C(=O)c3cccc(F)c3)c2N)c1 (3D coordinates assigned)
COc1cccc(C(=O)c2cc(/C=C/c3ccccc3)c(O)c(C(=O)c3cccc(F)c3)c2N)c1 (optimized conformer: 88.75591657745005 kcal/mol)

>  <smiles>  (55) 
COc1cccc(C(=O)c2cc(C=Cc3ccccc3)c(O)c(C(=O)c3cccc(F)c3)c2N)c1

>  <score_type>  (55) 
oracle

>  <origin>  (55) 
adg

>  <m_score__min__energy>  (55) 
-10.34

>  <m_primary>  (55) 
energy

$$$$
55:0
     RDKit          3D

 38 41  0  0  0  0  0  0  0  0999 V2000
   64.5650   32.3060   49.3820 N   0  0  0  0  0  0  0  0  0  0  0  0
   63.7480   32.8020   48.5130 C   0  0  0  0  0  0  0  0  0  0  0  0
   64.1420   33.1910   47.2860 N   0  0  0  0  0  0  0  0  0  0  0  0
   63.3040   33.7080   46.3690 C   0  0  0  0  0  0  0  0  0  0  0  0
   61.9910   33.8450   46.6990 N   0  0  0  0  0  0  0  0  0  0  0  0
   61.5710   33.4700   47.9040 C   0  0  0  0  0  0  0  0  0  0  0  0
   62.4230   32.9300   48.8740 C   0  0  0  0  0  0  0  0  0  0  0  0
   61.6800   32.6650   49.9610 N   0  0  0  0  0  0  0  0  0  0  0  0
   60.3840   33.0190   49.7120 C   0  0  0  0  0  0  0  0  0  0  0  0
   59.2570   32.8950   50.6310 C   0  0  0  0  0  0  0  0  0  0  0  0
   59.0340   33.8040   51.6450 C   0  0  0  0  0  0  0  0  0  0  0  0
   58.0030   33.7140   52.5050 N   0  0  0  0  0  0  0  0  0  0  0  0
   57.1280   32.7030   52.4030 C   0  0  0  0  0  0  0  0  0  0  0  0
   57.3220   31.7810   51.4050 C   0  0  0  0  0  0  0  0  0  0  0  0
   58.3610   31.8670   50.5330 N   0  0  0  0  0  0  0  0  0  0  0  0
   60.3390   33.5110   48.4450 N   0  0  0  0  0  0  0  0  0  0  0  0
   59.1050   33.9880   47.8420 C   0  0  0  0  0  0  0  0  0  0  0  0
   58.7300   33.2390   46.6160 C   0  0  0  0  0  0  0  0  0  0  0  0
   58.5320   33.9530   45.4650 C   0  0  0  0  0  0  0  0  0  0  0  0
   58.1820   33.2590   44.3220 C   0  0  0  0  0  0  0  0  0  0  0  0
   58.0390   31.8930   44.3450 C   0  0  0  0  0  0  0  0  0  0  0  0
   57.6870   31.2170   43.1830 O   0  0  0  0  0  0  0  0  0  0  0  0
   58.2490   31.2080   45.5320 C   0  0  0  0  0  0  0  0  0  0  0  0
   58.5990   31.8610   46.6960 C   0  0  0  0  0  0  0  0  0  0  0  0
   58.8070   31.1620   47.8830 O   0  0  0  0  0  0  0  0  0  0  0  0
   64.3440   32.0190   50.3390 H   0  0  0  0  0  0  0  0  0  0  0  0
   65.1430   33.0960   47.0050 H   0  0  0  0  0  0  0  0  0  0  0  0
   63.6710   34.0122   45.3777 H   0  0  0  0  0  0  0  0  0  0  0  0
   59.7346   34.6448   51.7559 H   0  0  0  0  0  0  0  0  0  0  0  0
   56.2802   32.6152   53.0983 H   0  0  0  0  0  0  0  0  0  0  0  0
   56.6135   30.9452   51.3077 H   0  0  0  0  0  0  0  0  0  0  0  0
   58.2933   33.8855   48.5773 H   0  0  0  0  0  0  0  0  0  0  0  0
   59.2655   35.0364   47.5504 H   0  0  0  0  0  0  0  0  0  0  0  0
   58.6480   35.0468   45.4501 H   0  0  0  0  0  0  0  0  0  0  0  0
   58.0160   33.8071   43.3828 H   0  0  0  0  0  0  0  0  0  0  0  0
   58.2190   30.4070   42.8900 H   0  0  0  0  0  0  0  0  0  0  0  0
   58.1334   30.1142   45.5462 H   0  0  0  0  0  0  0  0  0  0  0  0
   58.4780   31.5360   48.7720 H   0  0  0  0  0  0  0  0  0  0  0  0
  1  2  2  3
  2  3  1  0
  3  4  1  0
  4  5  2  0
  5  6  1  0
  6  7  2  0
  7  8  1  0
  8  9  2  0
  9 10  1  0
 10 11  2  0
 11 12  1  0
 12 13  2  0
 13 14  1  0
 14 15  2  0
  9 16  1  0
 16 17  1  0
 17 18  1  0
 18 19  2  0
 19 20  1  0
 20 21  2  0
 21 22  1  0
 21 23  1  0
 23 24  2  0
 24 25  1  0
  7  2  1  0
 15 10  1  0
 24 18  1  0
 16  6  1  0
  1 26  1  0
  3 27  1  0
  4 28  1  0
 11 29  1  0
 13 30  1  0
 14 31  1  0
 17 32  1  0
 17 33  1  0
 19 34  1  0
 20 35  1  0
 22 36  1  0
 23 37  1  0
 25 38  1  0
M  END
>  <smiles>  (56) 
N=c1[nH]cnc2c1nc(-c1cnccn1)n2Cc1ccc(O)cc1O

>  <score_type>  (56) 
oracle

>  <origin>  (56) 
adg

>  <m_score__min__energy>  (56) 
-6.1500000000000004

>  <m_primary>  (56) 
energy

$$$$
56:0
     RDKit          3D

 51 55  0  0  1  0  0  0  0  0999 V2000
   63.5210   34.1300   51.5980 S   0  0  0  0  0  0  0  0  0  0  0  0
   63.5640   33.2320   50.2140 C   0  0  0  0  0  0  0  0  0  0  0  0
   64.5040   32.2530   50.0810 N   0  0  0  0  0  0  0  0  0  0  0  0
   65.6590   32.1380   50.5030 C   0  0  0  0  0  0  0  0  0  0  0  0
   66.5380   33.1440   50.2520 N   0  0  0  0  0  0  0  0  0  0  0  0
   67.8130   33.1290   50.6650 C   0  0  0  0  0  0  0  0  0  0  0  0
   68.8580   34.3480   50.3530 S   0  0  0  0  0  0  0  0  0  0  0  0
   68.2440   32.0680   51.3620 N   0  0  0  0  0  0  0  0  0  0  0  0
   67.3940   31.0560   51.6230 C   0  0  0  0  0  0  0  0  0  0  0  0
   67.8730   29.9980   52.3310 C   0  0  0  0  0  0  0  0  0  0  0  0
   67.0390   28.9630   52.6090 C   0  0  0  0  0  0  0  0  0  0  0  0
   65.7310   28.9080   52.2220 C   0  0  0  0  0  0  0  0  0  0  0  0
   65.2440   30.0060   51.4910 C   0  0  0  0  0  0  0  0  0  0  0  0
   66.0710   31.0520   51.2060 C   0  0  0  0  0  0  0  0  0  0  0  0
   62.6810   33.5580   49.1080 N   0  0  0  0  0  0  0  0  0  0  0  0
   62.8120   32.8240   47.8400 C   0  0  0  0  0  0  0  0  0  0  0  0
   62.0710   33.6400   46.7550 C   0  0  0  0  0  0  0  0  0  0  0  0
   60.6640   33.7280   47.1650 N   0  0  0  0  0  0  0  0  0  0  0  0
   59.5900   33.4060   46.3080 C   0  0  0  0  0  0  0  0  0  0  0  0
   58.8880   34.4740   45.7380 C   0  0  0  0  0  0  0  0  0  0  0  0
   57.8160   34.2430   44.8860 C   0  0  0  0  0  0  0  0  0  0  0  0
   57.4360   32.9400   44.5970 C   0  0  0  0  0  0  0  0  0  0  0  0
   58.1200   31.8700   45.1500 C   0  0  0  0  0  0  0  0  0  0  0  0
   57.7350   30.5570   44.8550 C   0  0  0  0  0  0  0  0  0  0  0  0
   58.4190   29.4930   45.4080 C   0  0  0  0  0  0  0  0  0  0  0  0
   59.4720   29.7730   46.2440 C   0  0  0  0  0  0  0  0  0  0  0  0
   59.8420   31.0510   46.5280 C   0  0  0  0  0  0  0  0  0  0  0  0
   59.1850   32.1330   45.9960 C   0  0  0  0  0  0  0  0  0  0  0  0
   60.4090   34.1630   48.5220 C   0  0  0  0  0  0  0  0  0  0  0  0
   61.6740   34.5900   49.2150 C   0  0  0  0  0  0  0  0  0  0  0  0
   66.2370   33.9880   49.7120 H   0  0  0  0  0  0  0  0  0  0  0  0
   69.2340   32.0320   51.6960 H   0  0  0  0  0  0  0  0  0  0  0  0
   68.9185   29.9810   52.6727 H   0  0  0  0  0  0  0  0  0  0  0  0
   67.4429   28.1154   53.1822 H   0  0  0  0  0  0  0  0  0  0  0  0
   65.0907   28.0485   52.4694 H   0  0  0  0  0  0  0  0  0  0  0  0
   64.1983   30.0211   51.1499 H   0  0  0  0  0  0  0  0  0  0  0  0
   63.8742   32.7209   47.5731 H   0  0  0  0  0  0  0  0  0  0  0  0
   62.3823   31.8153   47.9288 H   0  0  0  0  0  0  0  0  0  0  0  0
   62.5053   34.6478   46.6787 H   0  0  0  0  0  0  0  0  0  0  0  0
   62.1621   33.1560   45.7714 H   0  0  0  0  0  0  0  0  0  0  0  0
   59.1884   35.5071   45.9672 H   0  0  0  0  0  0  0  0  0  0  0  0
   57.2706   35.0890   44.4423 H   0  0  0  0  0  0  0  0  0  0  0  0
   56.5856   32.7556   43.9240 H   0  0  0  0  0  0  0  0  0  0  0  0
   56.8855   30.3725   44.1810 H   0  0  0  0  0  0  0  0  0  0  0  0
   58.1301   28.4550   45.1863 H   0  0  0  0  0  0  0  0  0  0  0  0
   60.0316   28.9411   46.6964 H   0  0  0  0  0  0  0  0  0  0  0  0
   60.6927   31.2226   47.2039 H   0  0  0  0  0  0  0  0  0  0  0  0
   59.7106   35.0126   48.4990 H   0  0  0  0  0  0  0  0  0  0  0  0
   59.9810   33.3167   49.0793 H   0  0  0  0  0  0  0  0  0  0  0  0
   62.0494   35.5124   48.7479 H   0  0  0  0  0  0  0  0  0  0  0  0
   61.4558   34.7664   50.2786 H   0  0  0  0  0  0  0  0  0  0  0  0
  1  2  2  0
  2  3  1  0
  3  4  2  0
  4  5  1  0
  5  6  1  0
  6  7  2  0
  6  8  1  0
  8  9  1  0
  9 10  2  0
 10 11  1  0
 11 12  2  0
 12 13  1  0
 13 14  2  0
  2 15  1  0
 15 16  1  0
 16 17  1  0
 17 18  1  0
 18 19  1  0
 19 20  2  0
 20 21  1  0
 21 22  2  0
 22 23  1  0
 23 24  2  0
 24 25  1  0
 25 26  2  0
 26 27  1  0
 27 28  2  0
 18 29  1  0
 29 30  1  0
 14  4  1  0
 30 15  1  0
 14  9  1  0
 28 19  1  0
 28 23  1  0
  5 31  1  0
  8 32  1  0
 10 33  1  0
 11 34  1  0
 12 35  1  0
 13 36  1  0
 16 37  1  0
 16 38  1  0
 17 39  1  0
 17 40  1  0
 20 41  1  0
 21 42  1  0
 22 43  1  0
 24 44  1  0
 25 45  1  0
 26 46  1  0
 27 47  1  0
 29 48  1  0
 29 49  1  0
 30 50  1  0
 30 51  1  0
M  END
>  <smiles>  (57) 
S=C(N=c1[nH]c(=S)[nH]c2ccccc12)N1CCN(c2cccc3ccccc23)CC1

>  <score_type>  (57) 
oracle

>  <origin>  (57) 
adg

>  <m_score__min__energy>  (57) 
-9.1699999999999999

>  <m_primary>  (57) 
energy

$$$$
57:0
     RDKit          3D

 72 75  0  0  0  0  0  0  0  0999 V2000
   58.6550   34.6810   52.7930 C   0  0  0  0  0  0  0  0  0  0  0  0
   58.2870   33.5110   51.9790 N   0  0  0  0  0  0  0  0  0  0  0  0
   57.3320   32.6680   52.7330 C   0  0  0  0  0  0  0  0  0  0  0  0
   56.6950   31.5550   51.8810 C   0  0  0  0  0  0  0  0  0  0  0  0
   57.4400   30.2130   51.9790 C   0  0  0  0  0  0  0  0  0  0  0  0
   58.8960   30.3420   51.7910 N   0  0  0  0  0  0  0  0  0  0  0  0
   59.5800   29.3540   51.0020 C   0  0  0  0  0  0  0  0  0  0  0  0
   59.7280   29.5330   49.6220 C   0  0  0  0  0  0  0  0  0  0  0  0
   60.4270   28.5780   48.8720 C   0  0  0  0  0  0  0  0  0  0  0  0
   60.6110   28.7490   47.4220 C   0  0  0  0  0  0  0  0  0  0  0  0
   60.9000   29.8870   46.9670 O   0  0  0  0  0  0  0  0  0  0  0  0
   60.4420   27.6570   46.5100 N   0  0  0  0  0  0  0  0  0  0  0  0
   59.1600   27.2810   45.9110 C   0  0  1  0  0  0  0  0  0  0  0  0
   58.0850   27.1720   47.0190 C   0  0  0  0  0  0  0  0  0  0  0  0
   57.0050   26.1160   46.7280 C   0  0  0  0  0  0  0  0  0  0  0  0
   55.8120   26.6870   46.0310 C   0  0  0  0  0  0  0  0  0  0  0  0
   55.8660   27.8400   45.5260 O   0  0  0  0  0  0  0  0  0  0  0  0
   54.6420   25.9450   45.9300 O   0  0  0  0  0  0  0  0  0  0  0  0
   58.7970   28.3000   44.8130 C   0  0  0  0  0  0  0  0  0  0  0  0
   59.0530   29.6750   45.2520 N   0  0  0  0  0  0  0  0  0  0  0  0
   58.0310   30.6860   45.3050 C   0  0  0  0  0  0  0  0  0  0  0  0
   56.8400   30.3880   45.0220 O   0  0  0  0  0  0  0  0  0  0  0  0
   58.3510   32.0770   45.7080 C   0  0  0  0  0  0  0  0  0  0  0  0
   58.7070   32.3890   47.0340 C   0  0  0  0  0  0  0  0  0  0  0  0
   59.0050   33.7060   47.3960 C   0  0  0  0  0  0  0  0  0  0  0  0
   58.9580   34.7240   46.4400 C   0  0  0  0  0  0  0  0  0  0  0  0
   58.6190   34.4250   45.1180 C   0  0  0  0  0  0  0  0  0  0  0  0
   58.3210   33.1090   44.7520 C   0  0  0  0  0  0  0  0  0  0  0  0
   60.9730   27.5010   49.4960 N   0  0  0  0  0  0  0  0  0  0  0  0
   60.8360   27.2820   50.8340 C   0  0  0  0  0  0  0  0  0  0  0  0
   61.4540   26.0760   51.4390 C   0  0  0  0  0  0  0  0  0  0  0  0
   60.6420   25.0000   51.8450 C   0  0  0  0  0  0  0  0  0  0  0  0
   61.2100   23.8600   52.4230 C   0  0  0  0  0  0  0  0  0  0  0  0
   62.5920   23.7830   52.6100 C   0  0  0  0  0  0  0  0  0  0  0  0
   63.4080   24.8480   52.2220 C   0  0  0  0  0  0  0  0  0  0  0  0
   62.8470   25.9900   51.6430 C   0  0  0  0  0  0  0  0  0  0  0  0
   60.1290   28.2170   51.6110 C   0  0  0  0  0  0  0  0  0  0  0  0
   59.6660   31.4510   52.3820 C   0  0  0  0  0  0  0  0  0  0  0  0
   59.5050   32.7670   51.5910 C   0  0  0  0  0  0  0  0  0  0  0  0
   58.5746   34.4254   53.8599 H   0  0  0  0  0  0  0  0  0  0  0  0
   59.6895   34.9765   52.5637 H   0  0  0  0  0  0  0  0  0  0  0  0
   57.9759   35.5154   52.5637 H   0  0  0  0  0  0  0  0  0  0  0  0
   57.8668   32.2012   53.5733 H   0  0  0  0  0  0  0  0  0  0  0  0
   56.5170   33.3242   53.0724 H   0  0  0  0  0  0  0  0  0  0  0  0
   55.6593   31.4051   52.2200 H   0  0  0  0  0  0  0  0  0  0  0  0
   56.7443   31.8794   50.8311 H   0  0  0  0  0  0  0  0  0  0  0  0
   57.2528   29.7810   52.9732 H   0  0  0  0  0  0  0  0  0  0  0  0
   57.0619   29.5695   51.1709 H   0  0  0  0  0  0  0  0  0  0  0  0
   59.2984   30.4177   49.1293 H   0  0  0  0  0  0  0  0  0  0  0  0
   59.2235   26.2937   45.4302 H   0  0  0  0  0  0  0  0  0  0  0  0
   58.5842   26.9078   47.9629 H   0  0  0  0  0  0  0  0  0  0  0  0
   57.5772   28.1463   47.0725 H   0  0  0  0  0  0  0  0  0  0  0  0
   57.4420   25.3318   46.0923 H   0  0  0  0  0  0  0  0  0  0  0  0
   56.6646   25.7144   47.6938 H   0  0  0  0  0  0  0  0  0  0  0  0
   59.4016   28.0919   43.9179 H   0  0  0  0  0  0  0  0  0  0  0  0
   57.7240   28.2020   44.5915 H   0  0  0  0  0  0  0  0  0  0  0  0
   60.0130   29.8970   45.5980 H   0  0  0  0  0  0  0  0  0  0  0  0
   58.7509   31.5912   47.7901 H   0  0  0  0  0  0  0  0  0  0  0  0
   59.2770   33.9414   48.4355 H   0  0  0  0  0  0  0  0  0  0  0  0
   59.1878   35.7604   46.7281 H   0  0  0  0  0  0  0  0  0  0  0  0
   58.5865   35.2257   44.3645 H   0  0  0  0  0  0  0  0  0  0  0  0
   58.0610   32.8785   43.7083 H   0  0  0  0  0  0  0  0  0  0  0  0
   59.5522   25.0563   51.7066 H   0  0  0  0  0  0  0  0  0  0  0  0
   60.5670   23.0223   52.7309 H   0  0  0  0  0  0  0  0  0  0  0  0
   63.0372   22.8846   53.0624 H   0  0  0  0  0  0  0  0  0  0  0  0
   64.4960   24.7879   52.3726 H   0  0  0  0  0  0  0  0  0  0  0  0
   63.4959   26.8266   51.3447 H   0  0  0  0  0  0  0  0  0  0  0  0
   60.0073   28.0567   52.6924 H   0  0  0  0  0  0  0  0  0  0  0  0
   59.3172   31.6134   53.4125 H   0  0  0  0  0  0  0  0  0  0  0  0
   60.7297   31.1720   52.3556 H   0  0  0  0  0  0  0  0  0  0  0  0
   60.3827   33.4026   51.7798 H   0  0  0  0  0  0  0  0  0  0  0  0
   59.4164   32.5097   50.5252 H   0  0  0  0  0  0  0  0  0  0  0  0
  1  2  1  0
  2  3  1  0
  3  4  1  0
  4  5  1  0
  5  6  1  0
  6  7  1  0
  7  8  2  0
  8  9  1  0
  9 10  1  0
 10 11  2  0
 10 12  1  0
 12 13  1  0
 13 14  1  0
 14 15  1  0
 15 16  1  0
 16 17  2  0
 16 18  1  0
 13 19  1  0
 19 20  1  0
 20 21  1  0
 21 22  2  0
 21 23  1  0
 23 24  2  0
 24 25  1  0
 25 26  2  0
 26 27  1  0
 27 28  2  0
  9 29  2  0
 29 30  1  0
 30 31  1  0
 31 32  2  0
 32 33  1  0
 33 34  2  0
 34 35  1  0
 35 36  2  0
 30 37  2  0
  6 38  1  0
 38 39  1  0
 39  2  1  0
 37  7  1  0
 28 23  1  0
 36 31  1  0
  1 40  1  0
  1 41  1  0
  1 42  1  0
  3 43  1  0
  3 44  1  0
  4 45  1  0
  4 46  1  0
  5 47  1  0
  5 48  1  0
  8 49  1  0
 13 50  1  6
 14 51  1  0
 14 52  1  0
 15 53  1  0
 15 54  1  0
 19 55  1  0
 19 56  1  0
 20 57  1  0
 24 58  1  0
 25 59  1  0
 26 60  1  0
 27 61  1  0
 28 62  1  0
 32 63  1  0
 33 64  1  0
 34 65  1  0
 35 66  1  0
 36 67  1  0
 37 68  1  0
 38 69  1  0
 38 70  1  0
 39 71  1  0
 39 72  1  0
M  CHG  2  12  -1  18  -1
M  END
>  <UniqueID>  (58) 
55

>  <SMILES>  (58) 
CN1CCCN(c2cc(C(=O)[N-][C@@H](CCC(=O)[O-])CNC(=O)c3ccccc3)nc(-c3ccccc3)c2)CC1

>  <Energy>  (58) 
92.31949821973562

>  <Genealogy>  (58) 
CN1CCCN(c2cc(C(=O)[N-]C(CCC(=O)[O-])CNC(=O)c3ccccc3)nc(-c3ccccc3)c2)CC1 (protonated)
CN1CCCN(c2cc(C(=O)[N-][C@@H](CCC(=O)[O-])CNC(=O)c3ccccc3)nc(-c3ccccc3)c2)CC1 (chirality)
CN1CCCN(c2cc(C(=O)[N-][C@@H](CCC(=O)[O-])CNC(=O)c3ccccc3)nc(-c3ccccc3)c2)CC1 (3D coordinates assigned)
CN1CCCN(c2cc(C(=O)[N-][C@@H](CCC(=O)[O-])CNC(=O)c3ccccc3)nc(-c3ccccc3)c2)CC1 (nonaromatic ring conformer: 92.31949821973562 kcal/mol)

>  <smiles>  (58) 
CN1CCCN(c2cc(C(=O)NC(CCC(=O)O)CNC(=O)c3ccccc3)nc(-c3ccccc3)c2)CC1

>  <score_type>  (58) 
oracle

>  <origin>  (58) 
adg

>  <m_score__min__energy>  (58) 
-12.35

>  <m_primary>  (58) 
energy

$$$$
58:0
     RDKit          3D

 39 42  0  0  0  0  0  0  0  0999 V2000
   57.0480   33.8730   44.8730 C   0  0  0  0  0  0  0  0  0  0  0  0
   58.0900   33.2920   45.4710 C   0  0  0  0  0  0  0  0  0  0  0  0
   58.8140   33.9090   46.4300 N   0  0  0  0  0  0  0  0  0  0  0  0
   59.7740   33.0840   46.8190 N   0  0  0  0  0  0  0  0  0  0  0  0
   60.7260   33.4120   47.8500 C   0  0  0  0  0  0  0  0  0  0  0  0
   62.0900   33.5340   47.5290 C   0  0  0  0  0  0  0  0  0  0  0  0
   63.0260   33.8410   48.5210 C   0  0  0  0  0  0  0  0  0  0  0  0
   62.6130   34.0190   49.8430 C   0  0  0  0  0  0  0  0  0  0  0  0
   61.2640   33.8840   50.1770 C   0  0  0  0  0  0  0  0  0  0  0  0
   60.3230   33.5780   49.1880 C   0  0  0  0  0  0  0  0  0  0  0  0
   59.6630   31.9290   46.1290 C   0  0  0  0  0  0  0  0  0  0  0  0
   60.3780   30.9100   46.3340 O   0  0  0  0  0  0  0  0  0  0  0  0
   58.6050   32.0160   45.2360 C   0  0  0  0  0  0  0  0  0  0  0  0
   58.1460   31.0860   44.3770 C   0  0  0  0  0  0  0  0  0  0  0  0
   57.7090   29.7330   44.7870 C   0  0  0  0  0  0  0  0  0  0  0  0
   58.6430   28.7020   44.9970 C   0  0  0  0  0  0  0  0  0  0  0  0
   60.0010   28.9870   44.8060 O   0  0  0  0  0  0  0  0  0  0  0  0
   58.1780   27.4200   45.3740 C   0  0  0  0  0  0  0  0  0  0  0  0
   59.0350   26.3330   45.6440 C   0  0  0  0  0  0  0  0  0  0  0  0
   58.5080   25.0910   46.0100 C   0  0  0  0  0  0  0  0  0  0  0  0
   57.1270   24.9140   46.1130 C   0  0  0  0  0  0  0  0  0  0  0  0
   56.2660   25.9790   45.8530 C   0  0  0  0  0  0  0  0  0  0  0  0
   56.7790   27.2290   45.4860 C   0  0  0  0  0  0  0  0  0  0  0  0
   55.9370   28.2260   45.2440 O   0  0  0  0  0  0  0  0  0  0  0  0
   56.3400   29.4420   44.9010 C   0  0  0  0  0  0  0  0  0  0  0  0
   55.4780   30.3360   44.6870 O   0  0  0  0  0  0  0  0  0  0  0  0
   56.4874   33.3318   44.0966 H   0  0  0  0  0  0  0  0  0  0  0  0
   56.7497   34.8931   45.1565 H   0  0  0  0  0  0  0  0  0  0  0  0
   62.4224   33.3869   46.4908 H   0  0  0  0  0  0  0  0  0  0  0  0
   64.0897   33.9425   48.2597 H   0  0  0  0  0  0  0  0  0  0  0  0
   63.3503   34.2655   50.6212 H   0  0  0  0  0  0  0  0  0  0  0  0
   60.9405   34.0185   51.2197 H   0  0  0  0  0  0  0  0  0  0  0  0
   59.2624   33.4666   49.4577 H   0  0  0  0  0  0  0  0  0  0  0  0
   58.0929   31.3470   43.3097 H   0  0  0  0  0  0  0  0  0  0  0  0
   60.5560   29.5660   45.4180 H   0  0  0  0  0  0  0  0  0  0  0  0
   60.1245   26.4632   45.5661 H   0  0  0  0  0  0  0  0  0  0  0  0
   59.1847   24.2491   46.2178 H   0  0  0  0  0  0  0  0  0  0  0  0
   56.7182   23.9338   46.3994 H   0  0  0  0  0  0  0  0  0  0  0  0
   55.1784   25.8367   45.9366 H   0  0  0  0  0  0  0  0  0  0  0  0
  1  2  2  0
  2  3  1  0
  3  4  1  0
  4  5  1  0
  5  6  2  0
  6  7  1  0
  7  8  2  0
  8  9  1  0
  9 10  2  0
  4 11  1  0
 11 12  2  0
 11 13  1  0
 13 14  2  3
 14 15  1  0
 15 16  2  0
 16 17  1  0
 16 18  1  0
 18 19  2  0
 19 20  1  0
 20 21  2  0
 21 22  1  0
 22 23  2  0
 23 24  1  0
 24 25  1  0
 25 26  2  0
 13  2  1  0
 25 15  1  0
 10  5  1  0
 23 18  1  0
  1 27  1  0
  1 28  1  0
  6 29  1  0
  7 30  1  0
  8 31  1  0
  9 32  1  0
 10 33  1  0
 14 34  1  0
 17 35  1  0
 19 36  1  0
 20 37  1  0
 21 38  1  0
 22 39  1  0
M  CHG  1   3  -1
M  END
>  <UniqueID>  (59) 
56

>  <SMILES>  (59) 
C=c1[n-]n(-c2ccccc2)c(=O)c1=Cc1c(O)c2ccccc2oc1=O

>  <Energy>  (59) 
98.77679097103463

>  <Genealogy>  (59) 
C=c1[n-]n(-c2ccccc2)c(=O)c1=Cc1c(O)c2ccccc2oc1=O (protonated)
C=c1[n-]n(-c2ccccc2)c(=O)c1=Cc1c(O)c2ccccc2oc1=O (3D coordinates assigned)
C=c1[n-]n(-c2ccccc2)c(=O)c1=Cc1c(O)c2ccccc2oc1=O (optimized conformer: 98.77679097103463 kcal/mol)

>  <smiles>  (59) 
C=c1[nH]n(-c2ccccc2)c(=O)c1=Cc1c(O)c2ccccc2oc1=O

>  <score_type>  (59) 
oracle

>  <origin>  (59) 
adg

>  <m_score__min__energy>  (59) 
-9.6400000000000006

>  <m_primary>  (59) 
energy

$$$$
59:0
     RDKit          3D

 36 38  0  0  0  0  0  0  0  0999 V2000
   55.1877   29.4589   44.0699 H   0  0  0  0  0  0  0  0  0  0  0  0
   56.1790   29.6470   44.5080 C   0  0  0  0  0  0  0  0  0  0  0  0
   56.6560   30.9160   44.5910 N   0  0  0  0  0  0  0  0  0  0  0  0
   57.8780   31.2050   45.1250 C   0  0  0  0  0  0  0  0  0  0  0  0
   58.2810   32.4420   45.1990 N   0  0  0  0  0  0  0  0  0  0  0  0
   57.6890   33.4690   46.0530 C   0  0  0  0  0  0  0  0  0  0  0  0
   57.6624   34.4232   45.5063 H   0  0  0  0  0  0  0  0  0  0  0  0
   56.6693   33.1599   46.3263 H   0  0  0  0  0  0  0  0  0  0  0  0
   58.4950   33.6400   47.3040 C   0  0  0  0  0  0  0  0  0  0  0  0
   58.5040   32.5810   48.6110 S   0  0  0  0  0  0  0  0  0  0  0  0
   59.6310   33.4330   49.5240 C   0  0  0  0  0  0  0  0  0  0  0  0
   60.0015   33.1470   50.5194 H   0  0  0  0  0  0  0  0  0  0  0  0
   60.0140   34.5590   48.8070 C   0  0  0  0  0  0  0  0  0  0  0  0
   60.7456   35.2903   49.1811 H   0  0  0  0  0  0  0  0  0  0  0  0
   59.3820   34.6760   47.5640 C   0  0  0  0  0  0  0  0  0  0  0  0
   59.5688   35.5041   46.8644 H   0  0  0  0  0  0  0  0  0  0  0  0
   58.6920   30.1540   45.6140 C   0  0  0  0  0  0  0  0  0  0  0  0
   60.0380   30.3990   46.1950 C   0  0  0  0  0  0  0  0  0  0  0  0
   60.7730   29.4240   46.5120 O   0  0  0  0  0  0  0  0  0  0  0  0
   60.5230   31.7410   46.3710 N   0  0  0  0  0  0  0  0  0  0  0  0
   60.1310   32.4890   45.7580 H   0  0  0  0  0  0  0  0  0  0  0  0
   61.6600   32.0680   47.1860 C   0  0  0  0  0  0  0  0  0  0  0  0
   61.9400   31.2870   48.3170 C   0  0  0  0  0  0  0  0  0  0  0  0
   61.2829   30.4433   48.5746 H   0  0  0  0  0  0  0  0  0  0  0  0
   63.0500   31.5740   49.1200 C   0  0  0  0  0  0  0  0  0  0  0  0
   63.3050   30.8230   50.2190 F   0  0  0  0  0  0  0  0  0  0  0  0
   63.8960   32.6360   48.7880 C   0  0  0  0  0  0  0  0  0  0  0  0
   64.7628   32.8681   49.4243 H   0  0  0  0  0  0  0  0  0  0  0  0
   63.6410   33.4030   47.6480 C   0  0  0  0  0  0  0  0  0  0  0  0
   64.3139   34.2319   47.3830 H   0  0  0  0  0  0  0  0  0  0  0  0
   62.5330   33.1200   46.8430 C   0  0  0  0  0  0  0  0  0  0  0  0
   62.3420   33.8410   45.7090 F   0  0  0  0  0  0  0  0  0  0  0  0
   58.2020   28.8390   45.5290 C   0  0  0  0  0  0  0  0  0  0  0  0
   58.8140   28.0037   45.9000 H   0  0  0  0  0  0  0  0  0  0  0  0
   56.9460   28.5850   44.9780 C   0  0  0  0  0  0  0  0  0  0  0  0
   56.5652   27.5549   44.9155 H   0  0  0  0  0  0  0  0  0  0  0  0
  1  2  1  0
  2  3  1  0
  3  4  1  0
  4  5  2  0
  5  6  1  0
  6  7  1  0
  6  8  1  0
  6  9  1  0
  9 10  1  0
 10 11  1  0
 11 12  1  0
 11 13  2  0
 13 14  1  0
 13 15  1  0
 15 16  1  0
  4 17  1  0
 17 18  1  0
 18 19  2  0
 18 20  1  0
 20 21  1  0
 20 22  1  0
 22 23  2  0
 23 24  1  0
 23 25  1  0
 25 26  1  0
 25 27  2  0
 27 28  1  0
 27 29  1  0
 29 30  1  0
 29 31  2  0
 31 32  1  0
 17 33  2  0
 33 34  1  0
 33 35  1  0
 35 36  1  0
 35  2  2  0
 15  9  2  0
 31 22  1  0
M  CHG  1   3  -1
M  END
>  <UniqueID>  (60) 
57

>  <SMILES>  (60) 
O=C(Nc1cc(F)ccc1F)c1ccc[n-]/c1=N\Cc1cccs1

>  <Energy>  (60) 
72.66496720143869

>  <Genealogy>  (60) 
O=C(Nc1cc(F)ccc1F)c1ccc[n-]c1=NCc1cccs1 (protonated)
O=C(Nc1cc(F)ccc1F)c1ccc[n-]/c1=N\Cc1cccs1 (cis-trans isomerization)
O=C(Nc1cc(F)ccc1F)c1ccc[n-]/c1=N\Cc1cccs1 (3D coordinates assigned)
O=C(Nc1cc(F)ccc1F)c1ccc[n-]/c1=N\Cc1cccs1 (optimized conformer: 72.66496720143869 kcal/mol)

>  <smiles>  (60) 
O=C(Nc1cc(F)ccc1F)c1ccc[nH]c1=NCc1cccs1

>  <score_type>  (60) 
oracle

>  <origin>  (60) 
adg

>  <m_score__min__energy>  (60) 
-8.9199999999999999

>  <m_primary>  (60) 
energy

$$$$
60:0
     RDKit          3D

 31 32  0  0  0  0  0  0  0  0999 V2000
   59.3530   34.5730   47.7190 C   0  0  0  0  0  0  0  0  0  0  0  0
   59.8490   34.4960   46.2790 C   0  0  0  0  0  0  0  0  0  0  0  0
   58.9160   33.7150   45.4710 N   0  0  0  0  0  0  0  0  0  0  0  0
   57.9270   32.9260   45.9430 C   0  0  0  0  0  0  0  0  0  0  0  0
   57.3400   32.2980   44.8590 C   0  0  0  0  0  0  0  0  0  0  0  0
   56.2550   31.3660   44.8630 N   0  0  0  0  0  0  0  0  0  0  0  0
   56.3880   29.7630   44.2250 S   0  0  0  0  0  0  0  0  0  0  0  0
   56.4560   29.8250   42.7250 O   0  0  0  0  0  0  0  0  0  0  0  0
   55.1740   28.9700   44.6160 O   0  0  0  0  0  0  0  0  0  0  0  0
   57.8210   28.9880   44.8930 C   0  0  0  0  0  0  0  0  0  0  0  0
   57.7070   27.9180   45.7960 C   0  0  0  0  0  0  0  0  0  0  0  0
   58.8560   27.3040   46.3020 C   0  0  0  0  0  0  0  0  0  0  0  0
   60.1240   27.7550   45.9120 C   0  0  0  0  0  0  0  0  0  0  0  0
   60.2410   28.8150   45.0090 C   0  0  0  0  0  0  0  0  0  0  0  0
   59.0940   29.4290   44.4980 C   0  0  0  0  0  0  0  0  0  0  0  0
   58.0310   32.7410   43.7490 C   0  0  0  0  0  0  0  0  0  0  0  0
   57.8130   32.3380   42.3860 C   0  0  0  0  0  0  0  0  0  0  0  0
   57.6360   32.0200   41.2880 N   0  0  0  0  0  0  0  0  0  0  0  0
   58.9870   33.5990   44.1510 N   0  0  0  0  0  0  0  0  0  0  0  0
   60.2015   34.4413   48.4066 H   0  0  0  0  0  0  0  0  0  0  0  0
   58.8877   35.5541   47.8946 H   0  0  0  0  0  0  0  0  0  0  0  0
   58.6121   33.7791   47.8946 H   0  0  0  0  0  0  0  0  0  0  0  0
   59.9267   35.5124   45.8655 H   0  0  0  0  0  0  0  0  0  0  0  0
   60.8358   34.0103   46.2622 H   0  0  0  0  0  0  0  0  0  0  0  0
   57.6401   32.8046   46.9980 H   0  0  0  0  0  0  0  0  0  0  0  0
   56.7127   27.5632   46.1051 H   0  0  0  0  0  0  0  0  0  0  0  0
   58.7647   26.4652   47.0077 H   0  0  0  0  0  0  0  0  0  0  0  0
   61.0271   27.2747   46.3166 H   0  0  0  0  0  0  0  0  0  0  0  0
   61.2365   29.1665   44.7001 H   0  0  0  0  0  0  0  0  0  0  0  0
   59.1891   30.2604   43.7841 H   0  0  0  0  0  0  0  0  0  0  0  0
   59.6820   34.0910   43.5410 H   0  0  0  0  0  0  0  0  0  0  0  0
  1  2  1  0
  2  3  1  0
  3  4  1  0
  4  5  2  0
  5  6  1  0
  6  7  1  0
  7  8  2  0
  7  9  2  0
  7 10  1  0
 10 11  2  0
 11 12  1  0
 12 13  2  0
 13 14  1  0
 14 15  2  0
  5 16  1  0
 16 17  1  0
 17 18  3  0
 16 19  2  0
 19  3  1  0
 15 10  1  0
  1 20  1  0
  1 21  1  0
  1 22  1  0
  2 23  1  0
  2 24  1  0
  4 25  1  0
 11 26  1  0
 12 27  1  0
 13 28  1  0
 14 29  1  0
 15 30  1  0
 19 31  1  0
M  CHG  2   6  -1  19   1
M  END
>  <UniqueID>  (61) 
58

>  <SMILES>  (61) 
CCn1cc([N-]S(=O)(=O)c2ccccc2)c(C#N)[nH+]1

>  <Energy>  (61) 
60.87609870968538

>  <Genealogy>  (61) 
CCn1cc([N-]S(=O)(=O)c2ccccc2)c(C#N)[nH+]1 (protonated)
CCn1cc([N-]S(=O)(=O)c2ccccc2)c(C#N)[nH+]1 (3D coordinates assigned)
CCn1cc([N-]S(=O)(=O)c2ccccc2)c(C#N)[nH+]1 (optimized conformer: 60.87609870968538 kcal/mol)

>  <smiles>  (61) 
CCn1cc(NS(=O)(=O)c2ccccc2)c(C#N)n1

>  <score_type>  (61) 
oracle

>  <origin>  (61) 
adg

>  <m_score__min__energy>  (61) 
-7.4400000000000004

>  <m_primary>  (61) 
energy

$$$$
61:0
     RDKit          3D

 43 45  0  0  0  0  0  0  0  0999 V2000
   54.8160   26.7110   46.3160 O   0  0  0  0  0  0  0  0  0  0  0  0
   55.8320   26.1230   45.8630 C   0  0  0  0  0  0  0  0  0  0  0  0
   55.6700   24.8560   45.2150 N   0  0  0  0  0  0  0  0  0  0  0  0
   55.6420   23.5750   45.9130 C   0  0  0  0  0  0  0  0  0  0  0  0
   54.2890   23.3750   46.5990 C   0  0  0  0  0  0  0  0  0  0  0  0
   53.1230   23.5020   45.6110 C   0  0  0  0  0  0  0  0  0  0  0  0
   52.8840   24.8510   45.3180 O   0  0  0  0  0  0  0  0  0  0  0  0
   57.1550   26.7600   46.0010 C   0  0  0  0  0  0  0  0  0  0  0  0
   58.2640   26.0230   46.4680 C   0  0  0  0  0  0  0  0  0  0  0  0
   59.5270   26.6360   46.6170 C   0  0  0  0  0  0  0  0  0  0  0  0
   59.7030   27.9950   46.3050 C   0  0  0  0  0  0  0  0  0  0  0  0
   58.5930   28.7080   45.8530 C   0  0  0  0  0  0  0  0  0  0  0  0
   58.4620   30.0240   45.4520 C   0  0  0  0  0  0  0  0  0  0  0  0
   59.4750   30.9810   45.4230 O   0  0  0  0  0  0  0  0  0  0  0  0
   57.1870   30.2630   45.0690 N   0  0  0  0  0  0  0  0  0  0  0  0
   56.6640   31.5040   44.5000 C   0  0  0  0  0  0  0  0  0  0  0  0
   57.4740   32.6740   44.9880 C   0  0  0  0  0  0  0  0  0  0  0  0
   57.3050   33.1570   46.2960 C   0  0  0  0  0  0  0  0  0  0  0  0
   58.0890   34.2180   46.7620 C   0  0  0  0  0  0  0  0  0  0  0  0
   59.0520   34.7960   45.9290 C   0  0  0  0  0  0  0  0  0  0  0  0
   59.2330   34.3130   44.6300 C   0  0  0  0  0  0  0  0  0  0  0  0
   58.4510   33.2530   44.1610 C   0  0  0  0  0  0  0  0  0  0  0  0
   56.5140   29.0960   45.2110 C   0  0  0  0  0  0  0  0  0  0  0  0
   55.1750   28.9240   44.8780 O   0  0  0  0  0  0  0  0  0  0  0  0
   57.3590   28.1160   45.7070 C   0  0  0  0  0  0  0  0  0  0  0  0
   55.8055   22.7633   45.1889 H   0  0  0  0  0  0  0  0  0  0  0  0
   56.4352   23.5647   46.6751 H   0  0  0  0  0  0  0  0  0  0  0  0
   54.2643   22.3726   47.0514 H   0  0  0  0  0  0  0  0  0  0  0  0
   54.1751   24.1578   47.3634 H   0  0  0  0  0  0  0  0  0  0  0  0
   53.3728   22.9670   44.6829 H   0  0  0  0  0  0  0  0  0  0  0  0
   52.2196   23.0666   46.0629 H   0  0  0  0  0  0  0  0  0  0  0  0
   53.7640   25.2560   45.1000 H   0  0  0  0  0  0  0  0  0  0  0  0
   58.1431   24.9588   46.7188 H   0  0  0  0  0  0  0  0  0  0  0  0
   60.3806   26.0449   46.9804 H   0  0  0  0  0  0  0  0  0  0  0  0
   60.6841   28.4803   46.4138 H   0  0  0  0  0  0  0  0  0  0  0  0
   60.4290   30.7470   45.6650 H   0  0  0  0  0  0  0  0  0  0  0  0
   56.7205   31.4540   43.4026 H   0  0  0  0  0  0  0  0  0  0  0  0
   55.6176   31.6327   44.8137 H   0  0  0  0  0  0  0  0  0  0  0  0
   56.5536   32.6995   46.9564 H   0  0  0  0  0  0  0  0  0  0  0  0
   57.9477   34.5978   47.7846 H   0  0  0  0  0  0  0  0  0  0  0  0
   59.6671   35.6308   46.2961 H   0  0  0  0  0  0  0  0  0  0  0  0
   59.9916   34.7674   43.9758 H   0  0  0  0  0  0  0  0  0  0  0  0
   58.6014   32.8709   43.1405 H   0  0  0  0  0  0  0  0  0  0  0  0
  1  2  2  0
  2  3  1  0
  3  4  1  0
  4  5  1  0
  5  6  1  0
  6  7  1  0
  2  8  1  0
  8  9  2  0
  9 10  1  0
 10 11  2  0
 11 12  1  0
 12 13  2  0
 13 14  1  0
 13 15  1  0
 15 16  1  0
 16 17  1  0
 17 18  2  0
 18 19  1  0
 19 20  2  0
 20 21  1  0
 21 22  2  0
 15 23  1  0
 23 24  1  0
 23 25  2  0
 25  8  1  0
 25 12  1  0
 22 17  1  0
  4 26  1  0
  4 27  1  0
  5 28  1  0
  5 29  1  0
  6 30  1  0
  6 31  1  0
  7 32  1  0
  9 33  1  0
 10 34  1  0
 11 35  1  0
 14 36  1  0
 16 37  1  0
 16 38  1  0
 18 39  1  0
 19 40  1  0
 20 41  1  0
 21 42  1  0
 22 43  1  0
M  CHG  2   3  -1  24  -1
M  END
>  <UniqueID>  (62) 
59

>  <SMILES>  (62) 
O=C([N-]CCCO)c1cccc2c(O)n(Cc3ccccc3)c([O-])c12

>  <Energy>  (62) 
79.86438864021613

>  <Genealogy>  (62) 
O=C([N-]CCCO)c1cccc2c(O)n(Cc3ccccc3)c([O-])c12 (protonated)
O=C([N-]CCCO)c1cccc2c(O)n(Cc3ccccc3)c([O-])c12 (3D coordinates assigned)
O=C([N-]CCCO)c1cccc2c(O)n(Cc3ccccc3)c([O-])c12 (optimized conformer: 79.86438864021613 kcal/mol)

>  <smiles>  (62) 
O=C(NCCCO)c1cccc2c(O)n(Cc3ccccc3)c(O)c12

>  <score_type>  (62) 
oracle

>  <origin>  (62) 
adg

>  <m_score__min__energy>  (62) 
-13.539999999999999

>  <m_primary>  (62) 
energy

$$$$
62:0
     RDKit          3D

 35 37  0  0  0  0  0  0  0  0999 V2000
   64.6020   32.3370   49.3720 C   0  0  0  0  0  0  0  0  0  0  0  0
   63.3310   32.5620   48.6080 C   0  0  0  0  0  0  0  0  0  0  0  0
   62.8690   33.8640   48.3750 C   0  0  0  0  0  0  0  0  0  0  0  0
   61.7100   34.0810   47.6250 C   0  0  0  0  0  0  0  0  0  0  0  0
   60.9980   32.9960   47.0760 C   0  0  0  0  0  0  0  0  0  0  0  0
   61.4520   31.6840   47.3320 C   0  0  0  0  0  0  0  0  0  0  0  0
   62.6280   31.4760   48.0700 C   0  0  0  0  0  0  0  0  0  0  0  0
   60.7160   30.5080   46.7480 C   0  0  0  0  0  0  0  0  0  0  0  0
   59.2050   30.7620   46.7350 C   0  0  0  0  0  0  0  0  0  0  0  0
   58.8790   32.0870   46.0810 C   0  0  0  0  0  0  0  0  0  0  0  0
   57.6800   32.2480   45.3530 C   0  0  0  0  0  0  0  0  0  0  0  0
   56.8070   31.1530   45.2400 O   0  0  0  0  0  0  0  0  0  0  0  0
   56.5490   30.2220   43.8260 S   0  0  0  0  0  0  0  0  0  0  0  0
   57.6890   28.9220   43.7540 N   0  0  0  0  0  0  0  0  0  0  0  0
   55.1610   29.6480   43.8750 O   0  0  0  0  0  0  0  0  0  0  0  0
   56.6740   31.0880   42.6030 O   0  0  0  0  0  0  0  0  0  0  0  0
   57.3910   33.4960   44.7730 C   0  0  0  0  0  0  0  0  0  0  0  0
   58.2760   34.5620   44.9140 C   0  0  0  0  0  0  0  0  0  0  0  0
   59.4500   34.4140   45.6500 C   0  0  0  0  0  0  0  0  0  0  0  0
   59.7540   33.1850   46.2670 C   0  0  0  0  0  0  0  0  0  0  0  0
   64.3925   32.3741   50.4512 H   0  0  0  0  0  0  0  0  0  0  0  0
   65.0162   31.3516   49.1125 H   0  0  0  0  0  0  0  0  0  0  0  0
   65.3293   33.1204   49.1125 H   0  0  0  0  0  0  0  0  0  0  0  0
   63.4225   34.7215   48.7853 H   0  0  0  0  0  0  0  0  0  0  0  0
   61.3504   35.1077   47.4618 H   0  0  0  0  0  0  0  0  0  0  0  0
   63.0003   30.4529   48.2270 H   0  0  0  0  0  0  0  0  0  0  0  0
   61.0624   30.3418   45.7173 H   0  0  0  0  0  0  0  0  0  0  0  0
   60.9188   29.6225   47.3683 H   0  0  0  0  0  0  0  0  0  0  0  0
   58.7101   29.9543   46.1758 H   0  0  0  0  0  0  0  0  0  0  0  0
   58.8472   30.7892   47.7748 H   0  0  0  0  0  0  0  0  0  0  0  0
   58.1590   28.9800   42.8240 H   0  0  0  0  0  0  0  0  0  0  0  0
   58.4250   29.1040   44.4720 H   0  0  0  0  0  0  0  0  0  0  0  0
   56.4594   33.6312   44.2039 H   0  0  0  0  0  0  0  0  0  0  0  0
   58.0466   35.5282   44.4408 H   0  0  0  0  0  0  0  0  0  0  0  0
   60.1434   35.2621   45.7497 H   0  0  0  0  0  0  0  0  0  0  0  0
  1  2  1  0
  2  3  2  0
  3  4  1  0
  4  5  2  0
  5  6  1  0
  6  7  2  0
  6  8  1  0
  8  9  1  0
  9 10  1  0
 10 11  2  0
 11 12  1  0
 12 13  1  0
 13 14  1  0
 13 15  2  0
 13 16  2  0
 11 17  1  0
 17 18  2  0
 18 19  1  0
 19 20  2  0
  7  2  1  0
 20 10  1  0
 20  5  1  0
  1 21  1  0
  1 22  1  0
  1 23  1  0
  3 24  1  0
  4 25  1  0
  7 26  1  0
  8 27  1  0
  8 28  1  0
  9 29  1  0
  9 30  1  0
 14 31  1  0
 14 32  1  0
 17 33  1  0
 18 34  1  0
 19 35  1  0
M  END
>  <UniqueID>  (63) 
60

>  <SMILES>  (63) 
Cc1ccc2c(c1)CCc1c(OS(N)(=O)=O)cccc1-2

>  <Energy>  (63) 
40.29255394580819

>  <Genealogy>  (63) 
Cc1ccc2c(c1)CCc1c(OS(N)(=O)=O)cccc1-2 (3D coordinates assigned)
Cc1ccc2c(c1)CCc1c(OS(N)(=O)=O)cccc1-2 (nonaromatic ring conformer: 40.29255394580819 kcal/mol)

>  <smiles>  (63) 
Cc1ccc2c(c1)CCc1c(OS(N)(=O)=O)cccc1-2

>  <score_type>  (63) 
oracle

>  <origin>  (63) 
adg

>  <m_score__min__energy>  (63) 
-9.1899999999999995

>  <m_primary>  (63) 
energy

$$$$
63:0
     RDKit          3D

 40 41  0  0  0  0  0  0  0  0999 V2000
   58.7380   29.2030   44.5020 C   0  0  0  0  0  0  0  0  0  0  0  0
   57.3820   30.3500   44.4150 S   0  0  0  0  0  0  0  0  0  0  0  0
   56.9770   30.5430   42.9810 O   0  0  0  0  0  0  0  0  0  0  0  0
   56.2070   29.8010   45.1760 O   0  0  0  0  0  0  0  0  0  0  0  0
   57.8730   31.8900   45.1120 C   0  0  0  0  0  0  0  0  0  0  0  0
   57.0200   32.9980   45.0500 C   0  0  0  0  0  0  0  0  0  0  0  0
   57.4210   34.2230   45.5880 C   0  0  0  0  0  0  0  0  0  0  0  0
   58.6720   34.3450   46.1980 C   0  0  0  0  0  0  0  0  0  0  0  0
   59.5330   33.2400   46.2800 C   0  0  0  0  0  0  0  0  0  0  0  0
   60.8160   33.3920   46.9150 N   0  0  0  0  0  0  0  0  0  0  0  0
   61.5810   32.3020   47.4560 C   0  0  0  0  0  0  0  0  0  0  0  0
   63.2140   32.3520   47.3630 S   0  0  0  0  0  0  0  0  0  0  0  0
   60.9490   31.1750   48.0830 N   0  0  0  0  0  0  0  0  0  0  0  0
   59.7340   31.2720   48.8400 C   0  0  0  0  0  0  0  0  0  0  0  0
   59.2660   32.3990   49.1580 O   0  0  0  0  0  0  0  0  0  0  0  0
   59.0130   30.0280   49.2630 C   0  0  0  0  0  0  0  0  0  0  0  0
   59.7880   28.8680   48.9640 O   0  0  0  0  0  0  0  0  0  0  0  0
   59.4940   27.9310   47.9600 C   0  0  0  0  0  0  0  0  0  0  0  0
   60.5590   27.2490   47.3590 C   0  0  0  0  0  0  0  0  0  0  0  0
   60.3230   26.3020   46.3570 C   0  0  0  0  0  0  0  0  0  0  0  0
   59.0150   26.0300   45.9460 C   0  0  0  0  0  0  0  0  0  0  0  0
   57.9420   26.7070   46.5350 C   0  0  0  0  0  0  0  0  0  0  0  0
   56.3010   26.3670   46.0170 Cl  0  0  0  0  0  0  0  0  0  0  0  0
   58.1780   27.6570   47.5370 C   0  0  0  0  0  0  0  0  0  0  0  0
   59.1340   32.0170   45.7090 C   0  0  0  0  0  0  0  0  0  0  0  0
   58.9789   28.9993   45.5558 H   0  0  0  0  0  0  0  0  0  0  0  0
   58.4569   28.2644   44.0020 H   0  0  0  0  0  0  0  0  0  0  0  0
   59.6170   29.6358   44.0020 H   0  0  0  0  0  0  0  0  0  0  0  0
   56.0316   32.9038   44.5765 H   0  0  0  0  0  0  0  0  0  0  0  0
   56.7506   35.0933   45.5313 H   0  0  0  0  0  0  0  0  0  0  0  0
   58.9839   35.3132   46.6166 H   0  0  0  0  0  0  0  0  0  0  0  0
   61.2430   34.3450   46.9390 H   0  0  0  0  0  0  0  0  0  0  0  0
   61.4420   30.2550   48.0520 H   0  0  0  0  0  0  0  0  0  0  0  0
   58.8280   30.0689   50.3466 H   0  0  0  0  0  0  0  0  0  0  0  0
   58.0613   29.9678   48.7147 H   0  0  0  0  0  0  0  0  0  0  0  0
   61.5905   27.4598   47.6777 H   0  0  0  0  0  0  0  0  0  0  0  0
   61.1670   25.7712   45.8923 H   0  0  0  0  0  0  0  0  0  0  0  0
   58.8295   25.2837   45.1595 H   0  0  0  0  0  0  0  0  0  0  0  0
   57.3328   28.1912   47.9955 H   0  0  0  0  0  0  0  0  0  0  0  0
   59.8170   31.1550   45.7316 H   0  0  0  0  0  0  0  0  0  0  0  0
  1  2  1  0
  2  3  2  0
  2  4  2  0
  2  5  1  0
  5  6  2  0
  6  7  1  0
  7  8  2  0
  8  9  1  0
  9 10  1  0
 10 11  1  0
 11 12  2  0
 11 13  1  0
 13 14  1  0
 14 15  2  0
 14 16  1  0
 16 17  1  0
 17 18  1  0
 18 19  2  0
 19 20  1  0
 20 21  2  0
 21 22  1  0
 22 23  1  0
 22 24  2  0
  9 25  2  0
 25  5  1  0
 24 18  1  0
  1 26  1  0
  1 27  1  0
  1 28  1  0
  6 29  1  0
  7 30  1  0
  8 31  1  0
 10 32  1  0
 13 33  1  0
 16 34  1  0
 16 35  1  0
 19 36  1  0
 20 37  1  0
 21 38  1  0
 24 39  1  0
 25 40  1  0
M  END
>  <UniqueID>  (64) 
61

>  <SMILES>  (64) 
CS(=O)(=O)c1cccc(NC(=S)NC(=O)COc2cccc(Cl)c2)c1

>  <Energy>  (64) 
41.09738516559977

>  <Genealogy>  (64) 
CS(=O)(=O)c1cccc(NC(=S)NC(=O)COc2cccc(Cl)c2)c1 (3D coordinates assigned)
CS(=O)(=O)c1cccc(NC(=S)NC(=O)COc2cccc(Cl)c2)c1 (optimized conformer: 41.09738516559977 kcal/mol)

>  <smiles>  (64) 
CS(=O)(=O)c1cccc(NC(=S)NC(=O)COc2cccc(Cl)c2)c1

>  <score_type>  (64) 
oracle

>  <origin>  (64) 
adg

>  <m_score__min__energy>  (64) 
-8.9800000000000004

>  <m_primary>  (64) 
energy

$$$$
64:0
     RDKit          3D

 39 42  0  0  0  0  0  0  0  0999 V2000
   54.2640   22.0320   46.9910 C   0  0  0  0  0  0  0  0  0  0  0  0
   54.8780   22.5360   45.8090 O   0  0  0  0  0  0  0  0  0  0  0  0
   56.1660   23.0900   45.7420 C   0  0  0  0  0  0  0  0  0  0  0  0
   57.2940   22.2670   45.5550 C   0  0  0  0  0  0  0  0  0  0  0  0
   58.5710   22.8160   45.4830 C   0  0  0  0  0  0  0  0  0  0  0  0
   58.7500   24.1890   45.6090 C   0  0  0  0  0  0  0  0  0  0  0  0
   57.6520   25.0340   45.8160 C   0  0  0  0  0  0  0  0  0  0  0  0
   57.8900   26.4890   45.9610 C   0  0  0  0  0  0  0  0  0  0  0  0
   58.9570   26.9180   46.6940 N   0  0  0  0  0  0  0  0  0  0  0  0
   59.1750   28.2460   46.8290 C   0  0  0  0  0  0  0  0  0  0  0  0
   60.3980   28.9700   47.7130 S   0  0  0  0  0  0  0  0  0  0  0  0
   59.9040   30.5480   47.3660 C   0  0  0  0  0  0  0  0  0  0  0  0
   58.7780   30.5160   46.5370 C   0  0  0  0  0  0  0  0  0  0  0  0
   58.1700   31.7530   46.0150 C   0  0  0  0  0  0  0  0  0  0  0  0
   57.9570   32.0640   44.6770 C   0  0  0  0  0  0  0  0  0  0  0  0
   57.4540   33.3570   44.4820 C   0  0  0  0  0  0  0  0  0  0  0  0
   57.2910   34.0740   45.6600 C   0  0  0  0  0  0  0  0  0  0  0  0
   57.7800   33.1020   46.9410 S   0  0  0  0  0  0  0  0  0  0  0  0
   58.3570   29.1970   46.2530 C   0  0  0  0  0  0  0  0  0  0  0  0
   57.2300   28.7470   45.5500 C   0  0  0  0  0  0  0  0  0  0  0  0
   56.3870   29.5560   45.0770 O   0  0  0  0  0  0  0  0  0  0  0  0
   57.0280   27.4040   45.4120 N   0  0  0  0  0  0  0  0  0  0  0  0
   56.3440   24.4960   45.8600 C   0  0  0  0  0  0  0  0  0  0  0  0
   55.2710   25.4010   45.9960 O   0  0  0  0  0  0  0  0  0  0  0  0
   53.9170   25.1830   45.6180 C   0  0  0  0  0  0  0  0  0  0  0  0
   54.7712   22.4484   47.8738 H   0  0  0  0  0  0  0  0  0  0  0  0
   53.2034   22.3234   47.0061 H   0  0  0  0  0  0  0  0  0  0  0  0
   54.3431   20.9350   47.0061 H   0  0  0  0  0  0  0  0  0  0  0  0
   57.1641   21.1784   45.4649 H   0  0  0  0  0  0  0  0  0  0  0  0
   59.4412   22.1617   45.3260 H   0  0  0  0  0  0  0  0  0  0  0  0
   59.7621   24.6153   45.5456 H   0  0  0  0  0  0  0  0  0  0  0  0
   60.3933   31.4612   47.7357 H   0  0  0  0  0  0  0  0  0  0  0  0
   58.1629   31.3646   43.8533 H   0  0  0  0  0  0  0  0  0  0  0  0
   57.2112   33.7655   43.4899 H   0  0  0  0  0  0  0  0  0  0  0  0
   56.9076   35.1018   45.7409 H   0  0  0  0  0  0  0  0  0  0  0  0
   56.1720   27.0740   44.9090 H   0  0  0  0  0  0  0  0  0  0  0  0
   53.2959   25.0830   46.5204 H   0  0  0  0  0  0  0  0  0  0  0  0
   53.5613   26.0354   45.0207 H   0  0  0  0  0  0  0  0  0  0  0  0
   53.8468   24.2620   45.0207 H   0  0  0  0  0  0  0  0  0  0  0  0
  1  2  1  0
  2  3  1  0
  3  4  2  0
  4  5  1  0
  5  6  2  0
  6  7  1  0
  7  8  1  0
  8  9  2  0
  9 10  1  0
 10 11  1  0
 11 12  1  0
 12 13  2  0
 13 14  1  0
 14 15  2  0
 15 16  1  0
 16 17  2  0
 17 18  1  0
 13 19  1  0
 19 20  1  0
 20 21  2  0
 20 22  1  0
  7 23  2  0
 23 24  1  0
 24 25  1  0
 23  3  1  0
 22  8  1  0
 19 10  2  0
 18 14  1  0
  1 26  1  0
  1 27  1  0
  1 28  1  0
  4 29  1  0
  5 30  1  0
  6 31  1  0
 12 32  1  0
 15 33  1  0
 16 34  1  0
 17 35  1  0
 22 36  1  0
 25 37  1  0
 25 38  1  0
 25 39  1  0
M  END
>  <UniqueID>  (65) 
62

>  <SMILES>  (65) 
COc1cccc(-c2nc3scc(-c4cccs4)c3c(=O)[nH]2)c1OC

>  <Energy>  (65) 
116.7245552398849

>  <Genealogy>  (65) 
COc1cccc(-c2nc3scc(-c4cccs4)c3c(=O)[nH]2)c1OC (3D coordinates assigned)
COc1cccc(-c2nc3scc(-c4cccs4)c3c(=O)[nH]2)c1OC (optimized conformer: 116.7245552398849 kcal/mol)

>  <smiles>  (65) 
COc1cccc(-c2nc3scc(-c4cccs4)c3c(=O)[nH]2)c1OC

>  <score_type>  (65) 
oracle

>  <origin>  (65) 
adg

>  <m_score__min__energy>  (65) 
-7.1299999999999999

>  <m_primary>  (65) 
energy

$$$$
65:0
     RDKit          3D

 64 68  0  0  0  0  0  0  0  0999 V2000
   62.8300   34.9400   49.5030 O   0  0  0  0  0  0  0  0  0  0  0  0
   62.8890   33.7100   49.2320 C   0  0  0  0  0  0  0  0  0  0  0  0
   61.9140   33.1210   48.3520 N   0  0  0  0  0  0  0  0  0  0  0  0
   60.6610   33.7420   48.0240 C   0  0  0  0  0  0  0  0  0  0  0  0
   60.4000   34.9130   48.4090 O   0  0  0  0  0  0  0  0  0  0  0  0
   59.6710   33.0180   47.2000 C   0  0  0  0  0  0  0  0  0  0  0  0
   59.1400   33.6620   46.0720 C   0  0  0  0  0  0  0  0  0  0  0  0
   59.6420   35.2920   45.6170 Cl  0  0  0  0  0  0  0  0  0  0  0  0
   58.2490   33.0140   45.2850 N   0  0  0  0  0  0  0  0  0  0  0  0
   57.8100   31.7590   45.5670 C   0  0  0  0  0  0  0  0  0  0  0  0
   56.9670   31.2170   44.7250 N   0  0  0  0  0  0  0  0  0  0  0  0
   57.1410   30.6740   43.3740 C   0  0  0  0  0  0  0  0  0  0  0  0
   57.0250   29.1450   43.3750 C   0  0  0  0  0  0  0  0  0  0  0  0
   57.9300   28.4880   44.3820 C   0  0  0  0  0  0  0  0  0  0  0  0
   59.2790   28.8740   44.4820 C   0  0  0  0  0  0  0  0  0  0  0  0
   60.1130   28.2860   45.4360 C   0  0  0  0  0  0  0  0  0  0  0  0
   59.6060   27.3170   46.3050 C   0  0  0  0  0  0  0  0  0  0  0  0
   58.2700   26.9160   46.2050 C   0  0  0  0  0  0  0  0  0  0  0  0
   57.4350   27.4930   45.2410 C   0  0  0  0  0  0  0  0  0  0  0  0
   58.3040   31.1190   46.7360 C   0  0  0  0  0  0  0  0  0  0  0  0
   57.8730   29.9840   47.0730 O   0  0  0  0  0  0  0  0  0  0  0  0
   59.2600   31.7390   47.5110 N   0  0  0  0  0  0  0  0  0  0  0  0
   59.8350   31.0220   48.6760 C   0  0  0  0  0  0  0  0  0  0  0  0
   59.4930   31.7110   49.9730 C   0  0  0  0  0  0  0  0  0  0  0  0
   58.1510   31.9160   50.3260 C   0  0  0  0  0  0  0  0  0  0  0  0
   57.8210   32.5390   51.5330 C   0  0  0  0  0  0  0  0  0  0  0  0
   58.8320   32.9770   52.3990 C   0  0  0  0  0  0  0  0  0  0  0  0
   58.5120   33.6150   53.6080 C   0  0  0  0  0  0  0  0  0  0  0  0
   59.5290   34.0440   54.4660 C   0  0  0  0  0  0  0  0  0  0  0  0
   60.8690   33.8380   54.1260 C   0  0  0  0  0  0  0  0  0  0  0  0
   61.2010   33.2030   52.9260 C   0  0  0  0  0  0  0  0  0  0  0  0
   60.1880   32.7690   52.0550 C   0  0  0  0  0  0  0  0  0  0  0  0
   60.5090   32.1260   50.8500 C   0  0  0  0  0  0  0  0  0  0  0  0
   63.9790   32.8910   49.8110 C   0  0  0  0  0  0  0  0  0  0  0  0
   63.6890   31.6500   50.4090 C   0  0  0  0  0  0  0  0  0  0  0  0
   64.7130   30.8700   50.9550 C   0  0  0  0  0  0  0  0  0  0  0  0
   66.0360   31.3140   50.9020 C   0  0  0  0  0  0  0  0  0  0  0  0
   66.3390   32.5360   50.2990 C   0  0  0  0  0  0  0  0  0  0  0  0
   65.3180   33.3220   49.7530 C   0  0  0  0  0  0  0  0  0  0  0  0
   62.1190   32.1920   47.9230 H   0  0  0  0  0  0  0  0  0  0  0  0
   57.8890   33.5040   44.4350 H   0  0  0  0  0  0  0  0  0  0  0  0
   56.3655   31.0928   42.7158 H   0  0  0  0  0  0  0  0  0  0  0  0
   58.1433   30.9483   43.0134 H   0  0  0  0  0  0  0  0  0  0  0  0
   55.9850   28.8724   43.6077 H   0  0  0  0  0  0  0  0  0  0  0  0
   57.3288   28.7910   42.3788 H   0  0  0  0  0  0  0  0  0  0  0  0
   59.6794   29.6432   43.8052 H   0  0  0  0  0  0  0  0  0  0  0  0
   61.1692   28.5861   45.5029 H   0  0  0  0  0  0  0  0  0  0  0  0
   60.2584   26.8688   47.0689 H   0  0  0  0  0  0  0  0  0  0  0  0
   57.8749   26.1465   46.8845 H   0  0  0  0  0  0  0  0  0  0  0  0
   56.3881   27.1662   45.1559 H   0  0  0  0  0  0  0  0  0  0  0  0
   59.4341   29.9979   48.6988 H   0  0  0  0  0  0  0  0  0  0  0  0
   60.9297   31.0118   48.5689 H   0  0  0  0  0  0  0  0  0  0  0  0
   57.3516   31.5837   49.6473 H   0  0  0  0  0  0  0  0  0  0  0  0
   56.7650   32.6858   51.8038 H   0  0  0  0  0  0  0  0  0  0  0  0
   57.4588   33.7777   53.8807 H   0  0  0  0  0  0  0  0  0  0  0  0
   59.2739   34.5451   55.4114 H   0  0  0  0  0  0  0  0  0  0  0  0
   61.6651   34.1769   54.8053 H   0  0  0  0  0  0  0  0  0  0  0  0
   62.2571   33.0429   52.6633 H   0  0  0  0  0  0  0  0  0  0  0  0
   61.5626   31.9457   50.5904 H   0  0  0  0  0  0  0  0  0  0  0  0
   62.6498   31.2915   50.4470 H   0  0  0  0  0  0  0  0  0  0  0  0
   64.4761   29.9051   51.4271 H   0  0  0  0  0  0  0  0  0  0  0  0
   66.8396   30.7006   51.3356 H   0  0  0  0  0  0  0  0  0  0  0  0
   67.3822   32.8817   50.2529 H   0  0  0  0  0  0  0  0  0  0  0  0
   65.5631   34.2823   49.2757 H   0  0  0  0  0  0  0  0  0  0  0  0
  1  2  2  0
  2  3  1  0
  3  4  1  0
  4  5  2  0
  4  6  1  0
  6  7  2  0
  7  8  1  0
  7  9  1  0
  9 10  1  0
 10 11  2  3
 11 12  1  0
 12 13  1  0
 13 14  1  0
 14 15  2  0
 15 16  1  0
 16 17  2  0
 17 18  1  0
 18 19  2  0
 10 20  1  0
 20 21  2  0
 20 22  1  0
 22 23  1  0
 23 24  1  0
 24 25  2  0
 25 26  1  0
 26 27  2  0
 27 28  1  0
 28 29  2  0
 29 30  1  0
 30 31  2  0
 31 32  1  0
 32 33  2  0
  2 34  1  0
 34 35  2  0
 35 36  1  0
 36 37  2  0
 37 38  1  0
 38 39  2  0
 22  6  1  0
 33 24  1  0
 39 34  1  0
 19 14  1  0
 32 27  1  0
  3 40  1  0
  9 41  1  0
 12 42  1  0
 12 43  1  0
 13 44  1  0
 13 45  1  0
 15 46  1  0
 16 47  1  0
 17 48  1  0
 18 49  1  0
 19 50  1  0
 23 51  1  0
 23 52  1  0
 25 53  1  0
 26 54  1  0
 28 55  1  0
 29 56  1  0
 30 57  1  0
 31 58  1  0
 33 59  1  0
 35 60  1  0
 36 61  1  0
 37 62  1  0
 38 63  1  0
 39 64  1  0
M  END
>  <UniqueID>  (66) 
63

>  <SMILES>  (66) 
O=C(NC(=O)c1c(Cl)[nH]c(=NCCc2ccccc2)c(=O)n1Cc1ccc2ccccc2c1)c1ccccc1

>  <Energy>  (66) 
92.66247053017096

>  <Genealogy>  (66) 
O=C(NC(=O)c1c(Cl)[nH]c(=NCCc2ccccc2)c(=O)n1Cc1ccc2ccccc2c1)c1ccccc1 (3D coordinates assigned)
O=C(NC(=O)c1c(Cl)[nH]c(=NCCc2ccccc2)c(=O)n1Cc1ccc2ccccc2c1)c1ccccc1 (optimized conformer: 92.66247053017096 kcal/mol)

>  <smiles>  (66) 
O=C(NC(=O)c1c(Cl)[nH]c(=NCCc2ccccc2)c(=O)n1Cc1ccc2ccccc2c1)c1ccccc1

>  <score_type>  (66) 
oracle

>  <origin>  (66) 
adg

>  <m_score__min__energy>  (66) 
-10.279999999999999

>  <m_primary>  (66) 
energy

$$$$
66:0
     RDKit          3D

 37 39  0  0  0  0  0  0  0  0999 V2000
   56.0720   31.1920   44.4920 O   0  0  0  0  0  0  0  0  0  0  0  0
   57.4600   31.5320   44.0260 S   0  0  0  0  0  0  0  0  0  0  0  0
   57.3960   31.9970   42.5990 O   0  0  0  0  0  0  0  0  0  0  0  0
   58.4580   30.1150   44.1170 N   0  0  0  0  0  0  0  0  0  0  0  0
   58.6860   29.3670   45.3250 C   0  0  0  0  0  0  0  0  0  0  0  0
   59.6700   29.7430   46.2590 C   0  0  0  0  0  0  0  0  0  0  0  0
   59.8460   29.0070   47.4340 C   0  0  0  0  0  0  0  0  0  0  0  0
   59.0570   27.8820   47.6820 C   0  0  0  0  0  0  0  0  0  0  0  0
   58.1050   27.4680   46.7460 C   0  0  0  0  0  0  0  0  0  0  0  0
   57.2720   26.3380   47.0500 N   0  0  0  0  0  0  0  0  0  0  0  0
   56.5740   25.6170   46.2160 C   0  0  0  0  0  0  0  0  0  0  0  0
   57.1690   24.8360   45.2010 C   0  0  0  0  0  0  0  0  0  0  0  0
   56.3570   24.0790   44.3540 C   0  0  0  0  0  0  0  0  0  0  0  0
   54.9730   24.0890   44.5220 C   0  0  0  0  0  0  0  0  0  0  0  0
   54.1780   23.3540   43.7070 F   0  0  0  0  0  0  0  0  0  0  0  0
   54.4170   24.8550   45.5470 C   0  0  0  0  0  0  0  0  0  0  0  0
   55.2210   25.5890   46.3620 N   0  0  0  0  0  0  0  0  0  0  0  0
   57.9040   28.2300   45.5830 C   0  0  0  0  0  0  0  0  0  0  0  0
   58.1110   32.7970   45.0640 C   0  0  0  0  0  0  0  0  0  0  0  0
   58.7650   33.9000   44.4970 C   0  0  0  0  0  0  0  0  0  0  0  0
   59.2760   34.9110   45.3170 C   0  0  0  0  0  0  0  0  0  0  0  0
   59.1390   34.8230   46.7050 C   0  0  0  0  0  0  0  0  0  0  0  0
   58.4930   33.7220   47.2760 C   0  0  0  0  0  0  0  0  0  0  0  0
   57.9810   32.7100   46.4580 C   0  0  0  0  0  0  0  0  0  0  0  0
   58.8540   29.7600   43.2180 H   0  0  0  0  0  0  0  0  0  0  0  0
   60.3036   30.6206   46.0630 H   0  0  0  0  0  0  0  0  0  0  0  0
   60.6080   29.3148   48.1652 H   0  0  0  0  0  0  0  0  0  0  0  0
   59.1852   27.3190   48.6182 H   0  0  0  0  0  0  0  0  0  0  0  0
   58.2621   24.8241   45.0787 H   0  0  0  0  0  0  0  0  0  0  0  0
   56.8094   23.4746   43.5540 H   0  0  0  0  0  0  0  0  0  0  0  0
   53.3272   24.8652   45.6961 H   0  0  0  0  0  0  0  0  0  0  0  0
   57.1247   27.9322   44.8661 H   0  0  0  0  0  0  0  0  0  0  0  0
   58.8764   33.9703   43.4049 H   0  0  0  0  0  0  0  0  0  0  0  0
   59.7863   35.7764   44.8690 H   0  0  0  0  0  0  0  0  0  0  0  0
   59.5395   35.6201   47.3486 H   0  0  0  0  0  0  0  0  0  0  0  0
   58.3876   33.6520   48.3687 H   0  0  0  0  0  0  0  0  0  0  0  0
   57.4750   31.8435   46.9088 H   0  0  0  0  0  0  0  0  0  0  0  0
  1  2  2  0
  2  3  2  0
  2  4  1  0
  4  5  1  0
  5  6  2  0
  6  7  1  0
  7  8  2  0
  8  9  1  0
  9 10  1  0
 10 11  2  3
 11 12  1  0
 12 13  2  0
 13 14  1  0
 14 15  1  0
 14 16  2  0
 16 17  1  0
  9 18  2  0
  2 19  1  0
 19 20  2  0
 20 21  1  0
 21 22  2  0
 22 23  1  0
 23 24  2  0
 18  5  1  0
 24 19  1  0
 17 11  1  0
  4 25  1  0
  6 26  1  0
  7 27  1  0
  8 28  1  0
 12 29  1  0
 13 30  1  0
 16 31  1  0
 18 32  1  0
 20 33  1  0
 21 34  1  0
 22 35  1  0
 23 36  1  0
 24 37  1  0
M  CHG  1  17  -1
M  END
>  <UniqueID>  (67) 
64

>  <SMILES>  (67) 
O=S(=O)(Nc1cccc(N=c2ccc(F)c[n-]2)c1)c1ccccc1

>  <Energy>  (67) 
52.80143386192303

>  <Genealogy>  (67) 
O=S(=O)(Nc1cccc(N=c2ccc(F)c[n-]2)c1)c1ccccc1 (protonated)
O=S(=O)(Nc1cccc(N=c2ccc(F)c[n-]2)c1)c1ccccc1 (3D coordinates assigned)
O=S(=O)(Nc1cccc(N=c2ccc(F)c[n-]2)c1)c1ccccc1 (optimized conformer: 52.80143386192303 kcal/mol)

>  <smiles>  (67) 
O=S(=O)(Nc1cccc(N=c2ccc(F)c[nH]2)c1)c1ccccc1

>  <score_type>  (67) 
oracle

>  <origin>  (67) 
adg

>  <m_score__min__energy>  (67) 
-10.91

>  <m_primary>  (67) 
energy

$$$$
67:0
     RDKit          3D

 46 48  0  0  0  0  0  0  0  0999 V2000
   55.5530   29.8430   44.8540 O   0  0  0  0  0  0  0  0  0  0  0  0
   56.6620   29.3470   44.5170 C   0  0  0  0  0  0  0  0  0  0  0  0
   57.1460   28.1050   45.2040 C   0  0  0  0  0  0  0  0  0  0  0  0
   58.5690   28.1350   45.3340 O   0  0  0  0  0  0  0  0  0  0  0  0
   59.3150   29.1360   45.9790 C   0  0  0  0  0  0  0  0  0  0  0  0
   60.6830   29.3540   45.7280 C   0  0  0  0  0  0  0  0  0  0  0  0
   61.3710   30.3690   46.3970 C   0  0  0  0  0  0  0  0  0  0  0  0
   60.7080   31.1940   47.3220 C   0  0  0  0  0  0  0  0  0  0  0  0
   61.4480   32.2580   48.0450 C   0  0  0  0  0  0  0  0  0  0  0  0
   60.7990   33.0480   49.0110 C   0  0  0  0  0  0  0  0  0  0  0  0
   61.4910   34.0650   49.6730 C   0  0  0  0  0  0  0  0  0  0  0  0
   62.8350   34.3090   49.3770 C   0  0  0  0  0  0  0  0  0  0  0  0
   63.4900   33.5300   48.4250 C   0  0  0  0  0  0  0  0  0  0  0  0
   62.8050   32.5060   47.7630 C   0  0  0  0  0  0  0  0  0  0  0  0
   59.3390   30.9810   47.5610 C   0  0  0  0  0  0  0  0  0  0  0  0
   58.6530   29.9620   46.8940 C   0  0  0  0  0  0  0  0  0  0  0  0
   57.4280   29.9420   43.4600 N   0  0  0  0  0  0  0  0  0  0  0  0
   57.0280   31.1830   42.7940 C   0  0  0  0  0  0  0  0  0  0  0  0
   58.1400   32.2380   42.8510 C   0  0  0  0  0  0  0  0  0  0  0  0
   58.1960   32.9290   44.1900 C   0  0  0  0  0  0  0  0  0  0  0  0
   59.2150   33.8570   44.4630 C   0  0  0  0  0  0  0  0  0  0  0  0
   59.2700   34.4990   45.7040 C   0  0  0  0  0  0  0  0  0  0  0  0
   58.3170   34.2080   46.6850 C   0  0  0  0  0  0  0  0  0  0  0  0
   57.3090   33.2770   46.4250 C   0  0  0  0  0  0  0  0  0  0  0  0
   57.2350   32.6540   45.1770 C   0  0  0  0  0  0  0  0  0  0  0  0
   56.6911   28.0420   46.2036 H   0  0  0  0  0  0  0  0  0  0  0  0
   56.8589   27.2284   44.6046 H   0  0  0  0  0  0  0  0  0  0  0  0
   61.2131   28.7214   45.0009 H   0  0  0  0  0  0  0  0  0  0  0  0
   62.4417   30.5242   46.1981 H   0  0  0  0  0  0  0  0  0  0  0  0
   59.7404   32.8639   49.2465 H   0  0  0  0  0  0  0  0  0  0  0  0
   60.9766   34.6757   50.4296 H   0  0  0  0  0  0  0  0  0  0  0  0
   63.3752   35.1151   49.8950 H   0  0  0  0  0  0  0  0  0  0  0  0
   64.5483   33.7210   48.1937 H   0  0  0  0  0  0  0  0  0  0  0  0
   63.3297   31.8905   47.0174 H   0  0  0  0  0  0  0  0  0  0  0  0
   58.8039   31.6209   48.2781 H   0  0  0  0  0  0  0  0  0  0  0  0
   57.5817   29.8079   47.0905 H   0  0  0  0  0  0  0  0  0  0  0  0
   58.3530   29.5310   43.2090 H   0  0  0  0  0  0  0  0  0  0  0  0
   56.7968   30.9646   41.7410 H   0  0  0  0  0  0  0  0  0  0  0  0
   56.1460   31.5842   43.3147 H   0  0  0  0  0  0  0  0  0  0  0  0
   59.1060   31.7460   42.6648 H   0  0  0  0  0  0  0  0  0  0  0  0
   57.9261   32.9983   42.0854 H   0  0  0  0  0  0  0  0  0  0  0  0
   59.9727   34.0794   43.6972 H   0  0  0  0  0  0  0  0  0  0  0  0
   60.0632   35.2332   45.9086 H   0  0  0  0  0  0  0  0  0  0  0  0
   58.3613   34.7124   47.6615 H   0  0  0  0  0  0  0  0  0  0  0  0
   56.5719   33.0339   47.2045 H   0  0  0  0  0  0  0  0  0  0  0  0
   56.4208   31.9451   44.9662 H   0  0  0  0  0  0  0  0  0  0  0  0
  1  2  2  0
  2  3  1  0
  3  4  1  0
  4  5  1  0
  5  6  2  0
  6  7  1  0
  7  8  2  0
  8  9  1  0
  9 10  2  0
 10 11  1  0
 11 12  2  0
 12 13  1  0
 13 14  2  0
  8 15  1  0
 15 16  2  0
  2 17  1  0
 17 18  1  0
 18 19  1  0
 19 20  1  0
 20 21  2  0
 21 22  1  0
 22 23  2  0
 23 24  1  0
 24 25  2  0
 16  5  1  0
 25 20  1  0
 14  9  1  0
  3 26  1  0
  3 27  1  0
  6 28  1  0
  7 29  1  0
 10 30  1  0
 11 31  1  0
 12 32  1  0
 13 33  1  0
 14 34  1  0
 15 35  1  0
 16 36  1  0
 17 37  1  0
 18 38  1  0
 18 39  1  0
 19 40  1  0
 19 41  1  0
 21 42  1  0
 22 43  1  0
 23 44  1  0
 24 45  1  0
 25 46  1  0
M  END
>  <UniqueID>  (68) 
65

>  <SMILES>  (68) 
O=C(COc1ccc(-c2ccccc2)cc1)NCCc1ccccc1

>  <Energy>  (68) 
44.05239809703543

>  <Genealogy>  (68) 
O=C(COc1ccc(-c2ccccc2)cc1)NCCc1ccccc1 (3D coordinates assigned)
O=C(COc1ccc(-c2ccccc2)cc1)NCCc1ccccc1 (optimized conformer: 44.05239809703543 kcal/mol)

>  <smiles>  (68) 
O=C(COc1ccc(-c2ccccc2)cc1)NCCc1ccccc1

>  <score_type>  (68) 
oracle

>  <origin>  (68) 
adg

>  <m_score__min__energy>  (68) 
-8.4299999999999997

>  <m_primary>  (68) 
energy

$$$$
68:0
     RDKit          3D

 49 51  0  0  0  0  0  0  0  0999 V2000
   56.4560   29.4280   42.8670 C   0  0  0  0  0  0  0  0  0  0  0  0
   55.9710   29.9810   44.1640 C   0  0  0  0  0  0  0  0  0  0  0  0
   55.1450   29.3220   44.8500 O   0  0  0  0  0  0  0  0  0  0  0  0
   56.3680   31.3000   44.5590 N   0  0  0  0  0  0  0  0  0  0  0  0
   57.5880   31.6620   45.2230 C   0  0  0  0  0  0  0  0  0  0  0  0
   58.3340   30.7350   45.9740 C   0  0  0  0  0  0  0  0  0  0  0  0
   59.5280   31.1250   46.5860 C   0  0  0  0  0  0  0  0  0  0  0  0
   60.0010   32.4360   46.4470 C   0  0  0  0  0  0  0  0  0  0  0  0
   61.4850   32.9220   47.2610 S   0  0  0  0  0  0  0  0  0  0  0  0
   62.5040   31.8310   47.0910 O   0  0  0  0  0  0  0  0  0  0  0  0
   62.0320   34.1870   46.6590 O   0  0  0  0  0  0  0  0  0  0  0  0
   61.1810   33.1630   48.9510 N   0  0  0  0  0  0  0  0  0  0  0  0
   59.9700   33.7810   49.4160 C   0  0  0  0  0  0  0  0  0  0  0  0
   59.6270   34.9630   48.9870 N   0  0  0  0  0  0  0  0  0  0  0  0
   59.6550   35.2710   47.6460 O   0  0  0  0  0  0  0  0  0  0  0  0
   59.1200   33.0510   50.3920 C   0  0  0  0  0  0  0  0  0  0  0  0
   58.5700   31.8050   50.0450 C   0  0  0  0  0  0  0  0  0  0  0  0
   57.7620   31.1100   50.9490 C   0  0  0  0  0  0  0  0  0  0  0  0
   57.4870   31.6430   52.2110 C   0  0  0  0  0  0  0  0  0  0  0  0
   56.6830   30.9070   53.0940 O   0  0  0  0  0  0  0  0  0  0  0  0
   55.3870   30.4470   52.8210 C   0  0  0  0  0  0  0  0  0  0  0  0
   54.5610   31.2160   51.9900 C   0  0  0  0  0  0  0  0  0  0  0  0
   53.2570   30.7970   51.7070 C   0  0  0  0  0  0  0  0  0  0  0  0
   52.7650   29.6140   52.2640 C   0  0  0  0  0  0  0  0  0  0  0  0
   53.5740   28.8520   53.1110 C   0  0  0  0  0  0  0  0  0  0  0  0
   54.8790   29.2670   53.3950 C   0  0  0  0  0  0  0  0  0  0  0  0
   58.0650   32.8710   52.5780 C   0  0  0  0  0  0  0  0  0  0  0  0
   58.8720   33.5690   51.6770 C   0  0  0  0  0  0  0  0  0  0  0  0
   59.2720   33.3540   45.6790 C   0  0  0  0  0  0  0  0  0  0  0  0
   58.0780   32.9650   45.0650 C   0  0  0  0  0  0  0  0  0  0  0  0
   57.1701   28.6138   43.0597 H   0  0  0  0  0  0  0  0  0  0  0  0
   55.6026   29.0389   42.2922 H   0  0  0  0  0  0  0  0  0  0  0  0
   56.9531   30.2233   42.2922 H   0  0  0  0  0  0  0  0  0  0  0  0
   57.9761   29.7002   46.0796 H   0  0  0  0  0  0  0  0  0  0  0  0
   60.1002   30.3978   47.1808 H   0  0  0  0  0  0  0  0  0  0  0  0
   61.7270   32.5770   49.6200 H   0  0  0  0  0  0  0  0  0  0  0  0
   59.3370   35.7130   49.6550 H   0  0  0  0  0  0  0  0  0  0  0  0
   60.5340   35.2950   47.1430 H   0  0  0  0  0  0  0  0  0  0  0  0
   58.7771   31.3737   49.0545 H   0  0  0  0  0  0  0  0  0  0  0  0
   57.3390   30.1352   50.6647 H   0  0  0  0  0  0  0  0  0  0  0  0
   54.9402   32.1539   51.5581 H   0  0  0  0  0  0  0  0  0  0  0  0
   52.6179   31.3997   51.0450 H   0  0  0  0  0  0  0  0  0  0  0  0
   51.7412   29.2826   52.0359 H   0  0  0  0  0  0  0  0  0  0  0  0
   53.1838   27.9243   53.5551 H   0  0  0  0  0  0  0  0  0  0  0  0
   55.5101   28.6692   54.0690 H   0  0  0  0  0  0  0  0  0  0  0  0
   57.8805   33.2843   53.5806 H   0  0  0  0  0  0  0  0  0  0  0  0
   59.3169   34.5303   51.9736 H   0  0  0  0  0  0  0  0  0  0  0  0
   59.6404   34.3835   45.5590 H   0  0  0  0  0  0  0  0  0  0  0  0
   57.5186   33.6877   44.4528 H   0  0  0  0  0  0  0  0  0  0  0  0
  1  2  1  0
  2  3  2  0
  2  4  1  0
  4  5  1  0
  5  6  2  0
  6  7  1  0
  7  8  2  0
  8  9  1  0
  9 10  2  0
  9 11  2  0
  9 12  1  0
 12 13  1  0
 13 14  2  3
 14 15  1  0
 13 16  1  0
 16 17  2  0
 17 18  1  0
 18 19  2  0
 19 20  1  0
 20 21  1  0
 21 22  2  0
 22 23  1  0
 23 24  2  0
 24 25  1  0
 25 26  2  0
 19 27  1  0
 27 28  2  0
  8 29  1  0
 29 30  2  0
 30  5  1  0
 28 16  1  0
 26 21  1  0
  1 31  1  0
  1 32  1  0
  1 33  1  0
  6 34  1  0
  7 35  1  0
 12 36  1  0
 14 37  1  0
 15 38  1  0
 17 39  1  0
 18 40  1  0
 22 41  1  0
 23 42  1  0
 24 43  1  0
 25 44  1  0
 26 45  1  0
 27 46  1  0
 28 47  1  0
 29 48  1  0
 30 49  1  0
M  CHG  2   4  -1  14   1
M  END
>  <UniqueID>  (69) 
66

>  <SMILES>  (69) 
CC(=O)[N-]c1ccc(S(=O)(=O)NC(=[NH+]O)c2ccc(Oc3ccccc3)cc2)cc1

>  <Energy>  (69) 
66.86584663075067

>  <Genealogy>  (69) 
CC(=O)[N-]c1ccc(S(=O)(=O)NC(=[NH+]O)c2ccc(Oc3ccccc3)cc2)cc1 (protonated)
CC(=O)[N-]c1ccc(S(=O)(=O)NC(=[NH+]O)c2ccc(Oc3ccccc3)cc2)cc1 (3D coordinates assigned)
CC(=O)[N-]c1ccc(S(=O)(=O)NC(=[NH+]O)c2ccc(Oc3ccccc3)cc2)cc1 (optimized conformer: 66.86584663075067 kcal/mol)

>  <smiles>  (69) 
CC(=O)Nc1ccc(S(=O)(=O)NC(=NO)c2ccc(Oc3ccccc3)cc2)cc1

>  <score_type>  (69) 
oracle

>  <origin>  (69) 
adg

>  <m_score__min__energy>  (69) 
-9.3800000000000008

>  <m_primary>  (69) 
energy

$$$$
69:0
     RDKit          3D

 32 34  0  0  0  0  0  0  0  0999 V2000
   60.0390   34.5040   49.2730 C   0  0  0  0  0  0  0  0  0  0  0  0
   59.5760   34.9850   48.0150 O   0  0  0  0  0  0  0  0  0  0  0  0
   59.1620   34.1640   46.9570 C   0  0  0  0  0  0  0  0  0  0  0  0
   58.5890   32.9240   47.2610 C   0  0  0  0  0  0  0  0  0  0  0  0
   58.1610   32.0690   46.2430 C   0  0  0  0  0  0  0  0  0  0  0  0
   58.2960   32.4460   44.8970 C   0  0  0  0  0  0  0  0  0  0  0  0
   57.8710   31.5140   43.7940 C   0  0  0  0  0  0  0  0  0  0  0  0
   57.4290   30.2360   44.3550 N   0  0  0  0  0  0  0  0  0  0  0  0
   56.1580   29.7800   44.4930 C   0  0  0  0  0  0  0  0  0  0  0  0
   55.1370   30.4580   44.2010 O   0  0  0  0  0  0  0  0  0  0  0  0
   56.0960   28.5460   44.9620 O   0  0  0  0  0  0  0  0  0  0  0  0
   57.3430   28.1720   45.1300 C   0  0  0  0  0  0  0  0  0  0  0  0
   57.8270   26.9530   45.5980 C   0  0  0  0  0  0  0  0  0  0  0  0
   59.2240   26.7960   45.6810 C   0  0  0  0  0  0  0  0  0  0  0  0
   60.0870   27.8480   45.2990 C   0  0  0  0  0  0  0  0  0  0  0  0
   59.5650   29.0690   44.8310 C   0  0  0  0  0  0  0  0  0  0  0  0
   58.1760   29.1920   44.7610 C   0  0  0  0  0  0  0  0  0  0  0  0
   58.8750   33.6860   44.5880 C   0  0  0  0  0  0  0  0  0  0  0  0
   59.3020   34.5410   45.6070 C   0  0  0  0  0  0  0  0  0  0  0  0
   59.5229   35.0402   50.0830 H   0  0  0  0  0  0  0  0  0  0  0  0
   59.8288   33.4273   49.3538 H   0  0  0  0  0  0  0  0  0  0  0  0
   61.1229   34.6730   49.3538 H   0  0  0  0  0  0  0  0  0  0  0  0
   58.4746   32.6198   48.3119 H   0  0  0  0  0  0  0  0  0  0  0  0
   57.7160   31.0956   46.4968 H   0  0  0  0  0  0  0  0  0  0  0  0
   57.0428   31.9700   43.2318 H   0  0  0  0  0  0  0  0  0  0  0  0
   58.7257   31.3361   43.1248 H   0  0  0  0  0  0  0  0  0  0  0  0
   57.1435   26.1428   45.8919 H   0  0  0  0  0  0  0  0  0  0  0  0
   59.6464   25.8481   46.0457 H   0  0  0  0  0  0  0  0  0  0  0  0
   61.1763   27.7116   45.3679 H   0  0  0  0  0  0  0  0  0  0  0  0
   60.2268   29.8951   44.5317 H   0  0  0  0  0  0  0  0  0  0  0  0
   58.9935   33.9870   43.5366 H   0  0  0  0  0  0  0  0  0  0  0  0
   59.7497   35.5134   45.3539 H   0  0  0  0  0  0  0  0  0  0  0  0
  1  2  1  0
  2  3  1  0
  3  4  2  0
  4  5  1  0
  5  6  2  0
  6  7  1  0
  7  8  1  0
  8  9  1  0
  9 10  2  0
  9 11  1  0
 11 12  1  0
 12 13  2  0
 13 14  1  0
 14 15  2  0
 15 16  1  0
 16 17  2  0
  6 18  1  0
 18 19  2  0
 19  3  1  0
 17  8  1  0
 17 12  1  0
  1 20  1  0
  1 21  1  0
  1 22  1  0
  4 23  1  0
  5 24  1  0
  7 25  1  0
  7 26  1  0
 13 27  1  0
 14 28  1  0
 15 29  1  0
 16 30  1  0
 18 31  1  0
 19 32  1  0
M  END
>  <UniqueID>  (70) 
67

>  <SMILES>  (70) 
COc1ccc(Cn2c(=O)oc3ccccc32)cc1

>  <Energy>  (70) 
73.93803937308572

>  <Genealogy>  (70) 
COc1ccc(Cn2c(=O)oc3ccccc32)cc1 (3D coordinates assigned)
COc1ccc(Cn2c(=O)oc3ccccc32)cc1 (optimized conformer: 73.93803937308572 kcal/mol)

>  <smiles>  (70) 
COc1ccc(Cn2c(=O)oc3ccccc32)cc1

>  <score_type>  (70) 
oracle

>  <origin>  (70) 
adg

>  <m_score__min__energy>  (70) 
-6.7199999999999998

>  <m_primary>  (70) 
energy

$$$$
70:0
     RDKit          3D

 60 63  0  0  1  0  0  0  0  0999 V2000
   64.5130   32.0140   49.3930 C   0  0  0  0  0  0  0  0  0  0  0  0
   62.7640   32.2270   49.1860 S   0  0  0  0  0  0  0  0  0  0  0  0
   62.1100   31.0380   49.8300 O   0  0  0  0  0  0  0  0  0  0  0  0
   62.3880   32.2150   47.7320 O   0  0  0  0  0  0  0  0  0  0  0  0
   62.2000   33.6210   49.9590 O   0  0  0  0  0  0  0  0  0  0  0  0
   61.1570   33.6380   50.8560 C   0  0  0  0  0  0  0  0  0  0  0  0
   61.5060   33.8040   52.2000 C   0  0  0  0  0  0  0  0  0  0  0  0
   60.5510   33.8350   53.1920 C   0  0  0  0  0  0  0  0  0  0  0  0
   59.2390   33.6940   52.7980 C   0  0  0  0  0  0  0  0  0  0  0  0
   58.8950   33.5300   51.4740 C   0  0  0  0  0  0  0  0  0  0  0  0
   59.8450   33.4950   50.4520 C   0  0  0  0  0  0  0  0  0  0  0  0
   59.4410   33.3480   49.1080 N   0  0  0  0  0  0  0  0  0  0  0  0
   58.4420   32.3380   48.8170 C   0  0  0  0  0  0  0  0  0  0  0  0
   58.6060   31.8170   47.4050 C   0  0  0  0  0  0  0  0  0  0  0  0
   58.6000   32.9060   46.4430 N   0  0  0  0  0  0  0  0  0  0  0  0
   58.4260   32.7250   45.0500 C   0  0  0  0  0  0  0  0  0  0  0  0
   58.4290   33.7400   44.2760 O   0  0  0  0  0  0  0  0  0  0  0  0
   58.2320   31.4000   44.4050 C   0  0  2  0  0  0  0  0  0  0  0  0
   57.8970   31.6280   42.9590 C   0  0  0  0  0  0  0  0  0  0  0  0
   56.6480   30.8390   42.6280 C   0  0  0  0  0  0  0  0  0  0  0  0
   56.8450   29.4020   43.0590 C   0  0  0  0  0  0  0  0  0  0  0  0
   57.0650   29.3060   44.4640 N   0  0  0  0  0  0  0  0  0  0  0  0
   58.2940   28.2160   44.9180 S   0  0  0  0  0  0  0  0  0  0  0  0
   57.7900   26.8490   45.2880 O   0  0  0  0  0  0  0  0  0  0  0  0
   59.2410   28.0840   43.7370 O   0  0  0  0  0  0  0  0  0  0  0  0
   59.2470   28.7800   46.2570 C   0  0  0  0  0  0  0  0  0  0  0  0
   60.4130   29.4970   46.2960 C   0  0  0  0  0  0  0  0  0  0  0  0
   60.8020   29.7130   47.5800 N   0  0  0  0  0  0  0  0  0  0  0  0
   59.8630   29.1180   48.3420 C   0  0  0  0  0  0  0  0  0  0  0  0
   58.9240   28.5550   47.5550 N   0  0  0  0  0  0  0  0  0  0  0  0
   57.2170   30.5680   45.1090 C   0  0  0  0  0  0  0  0  0  0  0  0
   58.7830   34.2380   46.9820 C   0  0  0  0  0  0  0  0  0  0  0  0
   59.9320   34.1310   48.0010 C   0  0  0  0  0  0  0  0  0  0  0  0
   64.7544   31.9846   50.4658 H   0  0  0  0  0  0  0  0  0  0  0  0
   64.8260   31.0711   48.9208 H   0  0  0  0  0  0  0  0  0  0  0  0
   65.0431   32.8542   48.9208 H   0  0  0  0  0  0  0  0  0  0  0  0
   62.5666   33.9122   52.4709 H   0  0  0  0  0  0  0  0  0  0  0  0
   60.8235   33.9663   54.2496 H   0  0  0  0  0  0  0  0  0  0  0  0
   58.4456   33.7128   53.5597 H   0  0  0  0  0  0  0  0  0  0  0  0
   57.8319   33.4226   51.2126 H   0  0  0  0  0  0  0  0  0  0  0  0
   58.5543   31.5039   49.5253 H   0  0  0  0  0  0  0  0  0  0  0  0
   57.4433   32.7887   48.9148 H   0  0  0  0  0  0  0  0  0  0  0  0
   59.5610   31.2763   47.3300 H   0  0  0  0  0  0  0  0  0  0  0  0
   57.7639   31.1462   47.1795 H   0  0  0  0  0  0  0  0  0  0  0  0
   59.1626   30.8174   44.4726 H   0  0  0  0  0  0  0  0  0  0  0  0
   57.7173   32.6990   42.7836 H   0  0  0  0  0  0  0  0  0  0  0  0
   58.7313   31.3003   42.3214 H   0  0  0  0  0  0  0  0  0  0  0  0
   55.7876   31.2694   43.1613 H   0  0  0  0  0  0  0  0  0  0  0  0
   56.4585   30.8798   41.5452 H   0  0  0  0  0  0  0  0  0  0  0  0
   55.9469   28.8234   42.7970 H   0  0  0  0  0  0  0  0  0  0  0  0
   57.7304   29.0037   42.5419 H   0  0  0  0  0  0  0  0  0  0  0  0
   60.9599   29.8499   45.4092 H   0  0  0  0  0  0  0  0  0  0  0  0
   61.6490   30.2290   47.8860 H   0  0  0  0  0  0  0  0  0  0  0  0
   59.8627   29.0951   49.4418 H   0  0  0  0  0  0  0  0  0  0  0  0
   56.2514   31.0949   45.1036 H   0  0  0  0  0  0  0  0  0  0  0  0
   57.5536   30.3988   46.1425 H   0  0  0  0  0  0  0  0  0  0  0  0
   59.0487   34.9416   46.1793 H   0  0  0  0  0  0  0  0  0  0  0  0
   57.8616   34.6117   47.4525 H   0  0  0  0  0  0  0  0  0  0  0  0
   60.7993   33.6341   47.5418 H   0  0  0  0  0  0  0  0  0  0  0  0
   60.2535   35.1279   48.3368 H   0  0  0  0  0  0  0  0  0  0  0  0
  1  2  1  0
  2  3  2  0
  2  4  2  0
  2  5  1  0
  5  6  1  0
  6  7  2  0
  7  8  1  0
  8  9  2  0
  9 10  1  0
 10 11  2  0
 11 12  1  0
 12 13  1  0
 13 14  1  0
 14 15  1  0
 15 16  1  0
 16 17  2  0
 16 18  1  0
 18 19  1  0
 19 20  1  0
 20 21  1  0
 21 22  1  0
 22 23  1  0
 23 24  2  0
 23 25  2  0
 23 26  1  0
 26 27  2  0
 27 28  1  0
 28 29  1  0
 29 30  2  0
 22 31  1  0
 15 32  1  0
 32 33  1  0
 11  6  1  0
 33 12  1  0
 31 18  1  0
 30 26  1  0
  1 34  1  0
  1 35  1  0
  1 36  1  0
  7 37  1  0
  8 38  1  0
  9 39  1  0
 10 40  1  0
 13 41  1  0
 13 42  1  0
 14 43  1  0
 14 44  1  0
 18 45  1  6
 19 46  1  0
 19 47  1  0
 20 48  1  0
 20 49  1  0
 21 50  1  0
 21 51  1  0
 27 52  1  0
 28 53  1  0
 29 54  1  0
 31 55  1  0
 31 56  1  0
 32 57  1  0
 32 58  1  0
 33 59  1  0
 33 60  1  0
M  END
>  <smiles>  (71) 
CS(=O)(=O)Oc1ccccc1N1CCN(C(=O)C2CCCN(S(=O)(=O)c3c[nH]cn3)C2)CC1

>  <score_type>  (71) 
oracle

>  <origin>  (71) 
adg

>  <m_score__min__energy>  (71) 
-9.8599999999999994

>  <m_primary>  (71) 
energy

$$$$
71:0
     RDKit          3D

 53 56  0  0  0  0  0  0  0  0999 V2000
   59.2590   34.2900   53.7550 C   0  0  0  0  0  0  0  0  0  0  0  0
   58.6160   34.2280   52.4860 O   0  0  0  0  0  0  0  0  0  0  0  0
   58.5000   33.0650   51.7120 C   0  0  0  0  0  0  0  0  0  0  0  0
   59.0960   32.9410   50.4430 C   0  0  0  0  0  0  0  0  0  0  0  0
   58.9370   31.7690   49.6960 C   0  0  0  0  0  0  0  0  0  0  0  0
   59.6060   31.6500   48.4320 N   0  0  0  0  0  0  0  0  0  0  0  0
   59.0700   31.6490   47.2400 C   0  0  0  0  0  0  0  0  0  0  0  0
   58.3940   30.5570   46.7750 N   0  0  0  0  0  0  0  0  0  0  0  0
   57.8310   30.5250   45.5370 C   0  0  0  0  0  0  0  0  0  0  0  0
   57.1120   29.3880   45.1270 C   0  0  0  0  0  0  0  0  0  0  0  0
   56.5140   29.3440   43.8690 C   0  0  0  0  0  0  0  0  0  0  0  0
   56.6170   30.4360   43.0110 C   0  0  0  0  0  0  0  0  0  0  0  0
   57.3290   31.5720   43.4000 C   0  0  0  0  0  0  0  0  0  0  0  0
   57.9630   31.6310   44.6650 C   0  0  0  0  0  0  0  0  0  0  0  0
   58.7050   32.7610   45.0950 C   0  0  0  0  0  0  0  0  0  0  0  0
   58.9760   33.9000   44.1300 C   0  0  0  0  0  0  0  0  0  0  0  0
   59.1780   32.8070   46.4350 C   0  0  0  0  0  0  0  0  0  0  0  0
   59.9240   34.2900   47.1050 S   0  0  0  0  0  0  0  0  0  0  0  0
   59.1140   34.8490   48.2400 O   0  0  0  0  0  0  0  0  0  0  0  0
   59.9780   35.3410   46.0300 O   0  0  0  0  0  0  0  0  0  0  0  0
   61.5430   33.9220   47.6930 C   0  0  0  0  0  0  0  0  0  0  0  0
   62.5050   33.4040   46.8150 C   0  0  0  0  0  0  0  0  0  0  0  0
   63.7930   33.1130   47.2740 C   0  0  0  0  0  0  0  0  0  0  0  0
   64.1250   33.3350   48.6140 C   0  0  0  0  0  0  0  0  0  0  0  0
   63.1680   33.8460   49.4960 C   0  0  0  0  0  0  0  0  0  0  0  0
   61.8800   34.1390   49.0390 C   0  0  0  0  0  0  0  0  0  0  0  0
   58.2310   30.6870   50.2450 C   0  0  0  0  0  0  0  0  0  0  0  0
   57.6330   30.7930   51.5060 C   0  0  0  0  0  0  0  0  0  0  0  0
   56.9230   29.6890   51.9990 O   0  0  0  0  0  0  0  0  0  0  0  0
   56.0310   29.7360   53.1080 C   0  0  0  0  0  0  0  0  0  0  0  0
   57.7670   31.9920   52.2320 C   0  0  0  0  0  0  0  0  0  0  0  0
   58.5046   34.2173   54.5522 H   0  0  0  0  0  0  0  0  0  0  0  0
   59.9708   33.4563   53.8465 H   0  0  0  0  0  0  0  0  0  0  0  0
   59.7984   35.2443   53.8465 H   0  0  0  0  0  0  0  0  0  0  0  0
   59.6911   33.7716   50.0357 H   0  0  0  0  0  0  0  0  0  0  0  0
   58.2450   29.7300   47.3960 H   0  0  0  0  0  0  0  0  0  0  0  0
   57.0209   28.5264   45.8048 H   0  0  0  0  0  0  0  0  0  0  0  0
   55.9608   28.4470   43.5539 H   0  0  0  0  0  0  0  0  0  0  0  0
   56.1353   30.4033   42.0226 H   0  0  0  0  0  0  0  0  0  0  0  0
   57.3984   32.4309   42.7163 H   0  0  0  0  0  0  0  0  0  0  0  0
   59.1942   34.8170   44.6971 H   0  0  0  0  0  0  0  0  0  0  0  0
   59.8389   33.6465   43.4966 H   0  0  0  0  0  0  0  0  0  0  0  0
   58.0914   34.0623   43.4966 H   0  0  0  0  0  0  0  0  0  0  0  0
   62.2456   33.2258   45.7610 H   0  0  0  0  0  0  0  0  0  0  0  0
   64.5456   32.7092   46.5807 H   0  0  0  0  0  0  0  0  0  0  0  0
   65.1391   33.1076   48.9743 H   0  0  0  0  0  0  0  0  0  0  0  0
   63.4290   34.0176   50.5507 H   0  0  0  0  0  0  0  0  0  0  0  0
   61.1287   34.5404   49.7351 H   0  0  0  0  0  0  0  0  0  0  0  0
   58.1470   29.7475   49.6791 H   0  0  0  0  0  0  0  0  0  0  0  0
   56.6079   29.7056   54.0441 H   0  0  0  0  0  0  0  0  0  0  0  0
   55.4453   30.6663   53.0683 H   0  0  0  0  0  0  0  0  0  0  0  0
   55.3508   28.8725   53.0683 H   0  0  0  0  0  0  0  0  0  0  0  0
   57.2903   32.0865   53.2188 H   0  0  0  0  0  0  0  0  0  0  0  0
  1  2  1  0
  2  3  1  0
  3  4  2  0
  4  5  1  0
  5  6  1  0
  6  7  2  3
  7  8  1  0
  8  9  1  0
  9 10  2  0
 10 11  1  0
 11 12  2  0
 12 13  1  0
 13 14  2  0
 14 15  1  0
 15 16  1  0
 15 17  2  0
 17 18  1  0
 18 19  2  0
 18 20  2  0
 18 21  1  0
 21 22  2  0
 22 23  1  0
 23 24  2  0
 24 25  1  0
 25 26  2  0
  5 27  2  0
 27 28  1  0
 28 29  1  0
 29 30  1  0
 28 31  2  0
 31  3  1  0
 17  7  1  0
 26 21  1  0
 14  9  1  0
  1 32  1  0
  1 33  1  0
  1 34  1  0
  4 35  1  0
  8 36  1  0
 10 37  1  0
 11 38  1  0
 12 39  1  0
 13 40  1  0
 16 41  1  0
 16 42  1  0
 16 43  1  0
 22 44  1  0
 23 45  1  0
 24 46  1  0
 25 47  1  0
 26 48  1  0
 27 49  1  0
 30 50  1  0
 30 51  1  0
 30 52  1  0
 31 53  1  0
M  END
>  <UniqueID>  (72) 
68

>  <SMILES>  (72) 
COc1cc(N=c2[nH]c3ccccc3c(C)c2S(=O)(=O)c2ccccc2)cc(OC)c1

>  <Energy>  (72) 
79.14171692833234

>  <Genealogy>  (72) 
COc1cc(N=c2[nH]c3ccccc3c(C)c2S(=O)(=O)c2ccccc2)cc(OC)c1 (3D coordinates assigned)
COc1cc(N=c2[nH]c3ccccc3c(C)c2S(=O)(=O)c2ccccc2)cc(OC)c1 (optimized conformer: 79.14171692833234 kcal/mol)

>  <smiles>  (72) 
COc1cc(N=c2[nH]c3ccccc3c(C)c2S(=O)(=O)c2ccccc2)cc(OC)c1

>  <score_type>  (72) 
oracle

>  <origin>  (72) 
adg

>  <m_score__min__energy>  (72) 
-9.4199999999999999

>  <m_primary>  (72) 
energy

$$$$
72:0
     RDKit          3D

 45 46  0  0  0  0  0  0  0  0999 V2000
   55.1470   26.3400   46.9140 H   0  0  0  0  0  0  0  0  0  0  0  0
   55.5840   26.6400   46.0130 N   0  0  0  0  0  0  0  0  0  0  0  0
   56.7900   27.1130   45.9370 C   0  0  0  0  0  0  0  0  0  0  0  0
   57.0280   28.5000   45.4680 C   0  0  0  0  0  0  0  0  0  0  0  0
   58.2210   29.1740   45.7870 C   0  0  0  0  0  0  0  0  0  0  0  0
   58.9761   28.6801   46.4163 H   0  0  0  0  0  0  0  0  0  0  0  0
   58.4530   30.4660   45.3100 C   0  0  0  0  0  0  0  0  0  0  0  0
   59.3838   30.9889   45.5752 H   0  0  0  0  0  0  0  0  0  0  0  0
   57.5050   31.0990   44.4950 C   0  0  0  0  0  0  0  0  0  0  0  0
   57.8120   32.4100   43.9020 C   0  0  0  0  0  0  0  0  0  0  0  0
   58.1630   32.4690   42.6940 O   0  0  0  0  0  0  0  0  0  0  0  0
   57.6550   33.6300   44.6420 N   0  0  0  0  0  0  0  0  0  0  0  0
   57.6670   33.7540   46.1000 C   0  0  0  0  0  0  0  0  0  0  0  0
   57.2809   34.7457   46.3784 H   0  0  0  0  0  0  0  0  0  0  0  0
   57.0355   32.9579   46.5211 H   0  0  0  0  0  0  0  0  0  0  0  0
   59.0630   33.5970   46.6530 C   0  0  0  0  0  0  0  0  0  0  0  0
   60.1790   33.8910   45.8550 C   0  0  0  0  0  0  0  0  0  0  0  0
   60.0394   34.1693   44.8000 H   0  0  0  0  0  0  0  0  0  0  0  0
   61.4670   33.8320   46.3940 C   0  0  0  0  0  0  0  0  0  0  0  0
   62.3343   34.0763   45.7630 H   0  0  0  0  0  0  0  0  0  0  0  0
   61.6630   33.4630   47.7360 C   0  0  0  0  0  0  0  0  0  0  0  0
   63.0300   33.4370   48.3130 C   0  0  0  0  0  0  0  0  0  0  0  0
   64.1200   32.9220   47.5390 N   0  0  0  0  0  0  0  0  0  0  0  0
   63.9880   32.6500   46.5400 H   0  0  0  0  0  0  0  0  0  0  0  0
   65.0800   32.8580   47.9440 H   0  0  0  0  0  0  0  0  0  0  0  0
   63.2520   33.8760   49.5160 N   0  0  0  0  0  0  0  0  0  0  0  0
   63.3700   34.8940   49.7170 H   0  0  0  0  0  0  0  0  0  0  0  0
   63.2920   33.2170   50.3260 H   0  0  0  0  0  0  0  0  0  0  0  0
   60.5450   33.1400   48.5240 C   0  0  0  0  0  0  0  0  0  0  0  0
   60.6845   32.8402   49.5731 H   0  0  0  0  0  0  0  0  0  0  0  0
   59.2570   33.1970   47.9840 C   0  0  0  0  0  0  0  0  0  0  0  0
   58.3907   32.9268   48.6058 H   0  0  0  0  0  0  0  0  0  0  0  0
   56.2990   30.4460   44.2030 C   0  0  0  0  0  0  0  0  0  0  0  0
   55.5369   30.9503   43.5908 H   0  0  0  0  0  0  0  0  0  0  0  0
   56.0620   29.1570   44.6870 C   0  0  0  0  0  0  0  0  0  0  0  0
   55.1123   28.6527   44.4550 H   0  0  0  0  0  0  0  0  0  0  0  0
   57.9050   26.2910   46.3240 N   0  0  0  0  0  0  0  0  0  0  0  0
   58.8740   26.6080   46.0950 H   0  0  0  0  0  0  0  0  0  0  0  0
   57.7470   24.9790   46.9520 C   0  0  0  0  0  0  0  0  0  0  0  0
   58.5333   24.8431   47.7092 H   0  0  0  0  0  0  0  0  0  0  0  0
   56.7541   24.9273   47.4226 H   0  0  0  0  0  0  0  0  0  0  0  0
   57.8570   23.8710   45.9100 C   0  0  0  0  0  0  0  0  0  0  0  0
   57.9535   22.8994   46.4167 H   0  0  0  0  0  0  0  0  0  0  0  0
   56.9547   23.8684   45.2808 H   0  0  0  0  0  0  0  0  0  0  0  0
   58.7422   24.0459   45.2808 H   0  0  0  0  0  0  0  0  0  0  0  0
  1  2  1  0
  2  3  2  0
  3  4  1  0
  4  5  2  0
  5  6  1  0
  5  7  1  0
  7  8  1  0
  7  9  2  0
  9 10  1  0
 10 11  2  0
 10 12  1  0
 12 13  1  0
 13 14  1  0
 13 15  1  0
 13 16  1  0
 16 17  2  0
 17 18  1  0
 17 19  1  0
 19 20  1  0
 19 21  2  0
 21 22  1  0
 22 23  1  0
 23 24  1  0
 23 25  1  0
 22 26  2  0
 26 27  1  0
 26 28  1  0
 21 29  1  0
 29 30  1  0
 29 31  2  0
 31 32  1  0
  9 33  1  0
 33 34  1  0
 33 35  2  0
 35 36  1  0
  3 37  1  0
 37 38  1  0
 37 39  1  0
 39 40  1  0
 39 41  1  0
 39 42  1  0
 42 43  1  0
 42 44  1  0
 42 45  1  0
 35  4  1  0
 31 16  1  0
M  CHG  2  12  -1  26   1
M  END
>  <UniqueID>  (73) 
69

>  <SMILES>  (73) 
[H]/N=C(/NCC)c1ccc(C(=O)[N-]Cc2ccc(C(N)=[NH2+])cc2)cc1

>  <Energy>  (73) 
47.790680425820675

>  <Genealogy>  (73) 
CCNC(=N)c1ccc(C(=O)[N-]Cc2ccc(C(N)=[NH2+])cc2)cc1 (protonated)
[H]/N=C(/NCC)c1ccc(C(=O)[N-]Cc2ccc(C(N)=[NH2+])cc2)cc1 (cis-trans isomerization)
[H]/N=C(/NCC)c1ccc(C(=O)[N-]Cc2ccc(C(N)=[NH2+])cc2)cc1 (3D coordinates assigned)
[H]/N=C(/NCC)c1ccc(C(=O)[N-]Cc2ccc(C(N)=[NH2+])cc2)cc1 (optimized conformer: 47.790680425820675 kcal/mol)

>  <smiles>  (73) 
CCNC(=N)c1ccc(C(=O)NCc2ccc(C(=N)N)cc2)cc1

>  <score_type>  (73) 
oracle

>  <origin>  (73) 
adg

>  <m_score__min__energy>  (73) 
-7.5499999999999998

>  <m_primary>  (73) 
energy

$$$$
73:0
     RDKit          3D

 47 50  0  0  0  0  0  0  0  0999 V2000
   61.1260   32.5160   50.8880 C   0  0  0  0  0  0  0  0  0  0  0  0
   61.1040   33.0210   49.5060 N   0  0  0  0  0  0  0  0  0  0  0  0
   59.8600   33.2650   48.9450 C   0  0  0  0  0  0  0  0  0  0  0  0
   58.8180   33.0960   49.6430 O   0  0  0  0  0  0  0  0  0  0  0  0
   59.7280   33.6850   47.6330 N   0  0  0  0  0  0  0  0  0  0  0  0
   58.3830   33.9210   47.0650 C   0  0  0  0  0  0  0  0  0  0  0  0
   58.1400   33.0110   45.8880 C   0  0  0  0  0  0  0  0  0  0  0  0
   57.9710   33.5480   44.6010 C   0  0  0  0  0  0  0  0  0  0  0  0
   57.7730   32.7030   43.5040 C   0  0  0  0  0  0  0  0  0  0  0  0
   57.7480   31.3170   43.6820 C   0  0  0  0  0  0  0  0  0  0  0  0
   57.9180   30.7740   44.9590 C   0  0  0  0  0  0  0  0  0  0  0  0
   58.1150   31.6160   46.0580 C   0  0  0  0  0  0  0  0  0  0  0  0
   60.8400   33.8350   46.8460 C   0  0  0  0  0  0  0  0  0  0  0  0
   60.7520   34.2080   45.6440 O   0  0  0  0  0  0  0  0  0  0  0  0
   62.0770   33.5660   47.3960 C   0  0  0  0  0  0  0  0  0  0  0  0
   63.2690   33.6420   46.7950 N   0  0  0  0  0  0  0  0  0  0  0  0
   64.1460   33.2860   47.7530 C   0  0  0  0  0  0  0  0  0  0  0  0
   63.5530   32.9850   48.9390 N   0  0  0  0  0  0  0  0  0  0  0  0
   64.3540   32.6440   50.1310 C   0  0  0  0  0  0  0  0  0  0  0  0
   65.8330   33.0890   49.9910 C   0  0  0  0  0  0  0  0  0  0  0  0
   66.8170   32.2320   50.7990 C   0  0  0  0  0  0  0  0  0  0  0  0
   66.1460   31.5730   51.9240 N   0  0  0  0  0  0  0  0  0  0  0  0
   65.2140   30.5620   51.4140 C   0  0  0  0  0  0  0  0  0  0  0  0
   64.0580   31.2040   50.6260 C   0  0  0  0  0  0  0  0  0  0  0  0
   62.2130   33.1700   48.6950 C   0  0  0  0  0  0  0  0  0  0  0  0
   61.0891   33.3632   51.5886 H   0  0  0  0  0  0  0  0  0  0  0  0
   60.2554   31.8645   51.0542 H   0  0  0  0  0  0  0  0  0  0  0  0
   62.0500   31.9427   51.0542 H   0  0  0  0  0  0  0  0  0  0  0  0
   57.6244   33.7247   47.8370 H   0  0  0  0  0  0  0  0  0  0  0  0
   58.3180   34.9656   46.7265 H   0  0  0  0  0  0  0  0  0  0  0  0
   57.9945   34.6380   44.4552 H   0  0  0  0  0  0  0  0  0  0  0  0
   57.6367   33.1301   42.4995 H   0  0  0  0  0  0  0  0  0  0  0  0
   57.5947   30.6538   42.8179 H   0  0  0  0  0  0  0  0  0  0  0  0
   57.8968   29.6832   45.0995 H   0  0  0  0  0  0  0  0  0  0  0  0
   58.2511   31.1844   47.0606 H   0  0  0  0  0  0  0  0  0  0  0  0
   63.4810   33.9190   45.8100 H   0  0  0  0  0  0  0  0  0  0  0  0
   65.2333   33.2430   47.5921 H   0  0  0  0  0  0  0  0  0  0  0  0
   64.0279   33.2516   50.9880 H   0  0  0  0  0  0  0  0  0  0  0  0
   66.1136   33.0309   48.9290 H   0  0  0  0  0  0  0  0  0  0  0  0
   65.8985   34.1126   50.3885 H   0  0  0  0  0  0  0  0  0  0  0  0
   67.2497   31.4649   50.1400 H   0  0  0  0  0  0  0  0  0  0  0  0
   67.6039   32.8885   51.1988 H   0  0  0  0  0  0  0  0  0  0  0  0
   66.8780   31.0750   52.4800 H   0  0  0  0  0  0  0  0  0  0  0  0
   65.7601   29.8751   50.7507 H   0  0  0  0  0  0  0  0  0  0  0  0
   64.7876   30.0225   52.2726 H   0  0  0  0  0  0  0  0  0  0  0  0
   63.8451   30.5741   49.7497 H   0  0  0  0  0  0  0  0  0  0  0  0
   63.2037   31.2741   51.3154 H   0  0  0  0  0  0  0  0  0  0  0  0
  1  2  1  0
  2  3  1  0
  3  4  2  0
  3  5  1  0
  5  6  1  0
  6  7  1  0
  7  8  2  0
  8  9  1  0
  9 10  2  0
 10 11  1  0
 11 12  2  0
  5 13  1  0
 13 14  2  0
 13 15  1  0
 15 16  1  0
 16 17  2  0
 17 18  1  0
 18 19  1  0
 19 20  1  0
 20 21  1  0
 21 22  1  0
 22 23  1  0
 23 24  1  0
 18 25  1  0
 25  2  1  0
 12  7  1  0
 25 15  2  0
 24 19  1  0
  1 26  1  0
  1 27  1  0
  1 28  1  0
  6 29  1  0
  6 30  1  0
  8 31  1  0
  9 32  1  0
 10 33  1  0
 11 34  1  0
 12 35  1  0
 16 36  1  0
 17 37  1  0
 19 38  1  0
 20 39  1  0
 20 40  1  0
 21 41  1  0
 21 42  1  0
 22 43  1  0
 23 44  1  0
 23 45  1  0
 24 46  1  0
 24 47  1  0
M  CHG  1  16   1
M  END
>  <UniqueID>  (74) 
70

>  <SMILES>  (74) 
Cn1c(=O)n(Cc2ccccc2)c(=O)c2[nH+]cn(C3CCNCC3)c21

>  <Energy>  (74) 
117.9176015756727

>  <Genealogy>  (74) 
Cn1c(=O)n(Cc2ccccc2)c(=O)c2[nH+]cn(C3CCNCC3)c21 (protonated)
Cn1c(=O)n(Cc2ccccc2)c(=O)c2[nH+]cn(C3CCNCC3)c21 (3D coordinates assigned)
Cn1c(=O)n(Cc2ccccc2)c(=O)c2[nH+]cn(C3CCNCC3)c21 (nonaromatic ring conformer: 117.9176015756727 kcal/mol)

>  <smiles>  (74) 
Cn1c(=O)n(Cc2ccccc2)c(=O)c2ncn(C3CCNCC3)c21

>  <score_type>  (74) 
oracle

>  <origin>  (74) 
adg

>  <m_score__min__energy>  (74) 
-5.8700000000000001

>  <m_primary>  (74) 
energy

$$$$
74:0
     RDKit          3D

 37 38  0  0  0  0  0  0  0  0999 V2000
   55.5420   29.3130   45.0170 N   0  0  0  0  0  0  0  0  0  0  0  0
   56.9400   29.5950   45.0300 C   0  0  0  0  0  0  0  0  0  0  0  0
   57.4120   30.4000   44.1810 O   0  0  0  0  0  0  0  0  0  0  0  0
   57.8220   29.0440   46.1270 C   0  0  2  0  0  0  0  0  0  0  0  0
   59.1250   29.8110   46.2600 C   0  0  0  0  0  0  0  0  0  0  0  0
   59.4370   30.8820   45.5830 N   0  0  0  0  0  0  0  0  0  0  0  0
   59.2630   32.2380   46.0070 C   0  0  0  0  0  0  0  0  0  0  0  0
   58.1060   32.9360   45.6350 C   0  0  0  0  0  0  0  0  0  0  0  0
   57.9260   34.2640   46.0350 C   0  0  0  0  0  0  0  0  0  0  0  0
   58.9130   34.9070   46.7890 C   0  0  0  0  0  0  0  0  0  0  0  0
   60.0840   34.2240   47.1340 C   0  0  0  0  0  0  0  0  0  0  0  0
   60.2640   32.8960   46.7370 C   0  0  0  0  0  0  0  0  0  0  0  0
   58.0660   27.5560   46.0340 C   0  0  0  0  0  0  0  0  0  0  0  0
   59.1110   27.0470   46.5260 O   0  0  0  0  0  0  0  0  0  0  0  0
   57.0600   26.7110   45.4550 N   0  0  0  0  0  0  0  0  0  0  0  0
   57.1740   25.2800   45.4080 C   0  0  0  0  0  0  0  0  0  0  0  0
   58.4450   24.6970   45.2600 C   0  0  0  0  0  0  0  0  0  0  0  0
   58.5840   23.3140   45.1430 C   0  0  0  0  0  0  0  0  0  0  0  0
   57.4570   22.4960   45.1580 C   0  0  0  0  0  0  0  0  0  0  0  0
   56.1860   23.0560   45.2970 C   0  0  0  0  0  0  0  0  0  0  0  0
   56.0230   24.4480   45.4300 C   0  0  0  0  0  0  0  0  0  0  0  0
   54.6520   24.9850   45.6240 C   0  0  0  0  0  0  0  0  0  0  0  0
   53.6380   24.2480   45.5020 O   0  0  0  0  0  0  0  0  0  0  0  0
   54.4650   26.3330   45.9110 O   0  0  0  0  0  0  0  0  0  0  0  0
   55.1370   28.5810   45.6420 H   0  0  0  0  0  0  0  0  0  0  0  0
   57.2454   29.1961   47.0513 H   0  0  0  0  0  0  0  0  0  0  0  0
   59.8636   29.4348   46.9832 H   0  0  0  0  0  0  0  0  0  0  0  0
   57.3370   32.4377   45.0264 H   0  0  0  0  0  0  0  0  0  0  0  0
   57.0082   34.8027   45.7566 H   0  0  0  0  0  0  0  0  0  0  0  0
   58.7685   35.9490   47.1105 H   0  0  0  0  0  0  0  0  0  0  0  0
   60.8645   34.7329   47.7187 H   0  0  0  0  0  0  0  0  0  0  0  0
   61.1921   32.3660   46.9974 H   0  0  0  0  0  0  0  0  0  0  0  0
   56.1780   27.1530   45.1110 H   0  0  0  0  0  0  0  0  0  0  0  0
   59.3386   25.3380   45.2362 H   0  0  0  0  0  0  0  0  0  0  0  0
   59.5846   22.8691   45.0388 H   0  0  0  0  0  0  0  0  0  0  0  0
   57.5687   21.4061   45.0601 H   0  0  0  0  0  0  0  0  0  0  0  0
   55.3015   22.4021   45.3027 H   0  0  0  0  0  0  0  0  0  0  0  0
  1  2  1  0
  2  3  2  0
  2  4  1  0
  4  5  1  0
  5  6  2  3
  6  7  1  0
  7  8  2  0
  8  9  1  0
  9 10  2  0
 10 11  1  0
 11 12  2  0
  4 13  1  0
 13 14  2  0
 13 15  1  0
 15 16  1  0
 16 17  2  0
 17 18  1  0
 18 19  2  0
 19 20  1  0
 20 21  2  0
 21 22  1  0
 22 23  2  0
 22 24  1  0
 12  7  1  0
 21 16  1  0
  1 25  1  0
  4 26  1  1
  5 27  1  0
  8 28  1  0
  9 29  1  0
 10 30  1  0
 11 31  1  0
 12 32  1  0
 15 33  1  0
 17 34  1  0
 18 35  1  0
 19 36  1  0
 20 37  1  0
M  CHG  2   1  -1  24  -1
M  END
>  <UniqueID>  (75) 
71

>  <SMILES>  (75) 
[NH-]C(=O)[C@H](C=Nc1ccccc1)C(=O)Nc1ccccc1C(=O)[O-]

>  <Energy>  (75) 
54.722326354580346

>  <Genealogy>  (75) 
[NH-]C(=O)C(C=Nc1ccccc1)C(=O)Nc1ccccc1C(=O)[O-] (protonated)
[NH-]C(=O)[C@H](C=Nc1ccccc1)C(=O)Nc1ccccc1C(=O)[O-] (chirality)
[NH-]C(=O)[C@H](C=Nc1ccccc1)C(=O)Nc1ccccc1C(=O)[O-] (3D coordinates assigned)
[NH-]C(=O)[C@H](C=Nc1ccccc1)C(=O)Nc1ccccc1C(=O)[O-] (optimized conformer: 54.722326354580346 kcal/mol)

>  <smiles>  (75) 
NC(=O)C(C=Nc1ccccc1)C(=O)Nc1ccccc1C(=O)O

>  <score_type>  (75) 
oracle

>  <origin>  (75) 
adg

>  <m_score__min__energy>  (75) 
-13.449999999999999

>  <m_primary>  (75) 
energy

$$$$
75:0
     RDKit          3D

 49 51  0  0  0  0  0  0  0  0999 V2000
   58.1310   21.4590   43.3750 C   0  0  0  0  0  0  0  0  0  0  0  0
   56.9990   22.0420   44.1690 C   0  0  0  0  0  0  0  0  0  0  0  0
   55.8740   21.4740   44.1170 O   0  0  0  0  0  0  0  0  0  0  0  0
   57.1830   23.2160   44.9900 N   0  0  0  0  0  0  0  0  0  0  0  0
   58.5420   23.7060   45.2800 C   0  0  0  0  0  0  0  0  0  0  0  0
   58.5240   24.8490   46.2960 C   0  0  0  0  0  0  0  0  0  0  0  0
   57.5050   25.8320   45.9110 N   0  0  0  0  0  0  0  0  0  0  0  0
   57.8420   27.2240   45.7640 C   0  0  0  0  0  0  0  0  0  0  0  0
   58.2500   27.9780   46.8750 C   0  0  0  0  0  0  0  0  0  0  0  0
   58.5680   29.3330   46.7330 C   0  0  0  0  0  0  0  0  0  0  0  0
   58.4610   29.9610   45.4840 C   0  0  0  0  0  0  0  0  0  0  0  0
   58.8130   31.3490   45.3620 N   0  0  0  0  0  0  0  0  0  0  0  0
   57.8680   32.3980   45.0930 C   0  0  0  0  0  0  0  0  0  0  0  0
   56.6300   32.1580   45.0780 O   0  0  0  0  0  0  0  0  0  0  0  0
   58.3430   33.7970   44.8380 C   0  0  0  0  0  0  0  0  0  0  0  0
   59.7370   33.9160   45.1220 O   0  0  0  0  0  0  0  0  0  0  0  0
   60.3030   33.9500   46.4080 C   0  0  0  0  0  0  0  0  0  0  0  0
   59.4620   34.2260   47.4940 C   0  0  0  0  0  0  0  0  0  0  0  0
   59.9730   34.2680   48.7940 C   0  0  0  0  0  0  0  0  0  0  0  0
   61.3320   34.0390   49.0200 C   0  0  0  0  0  0  0  0  0  0  0  0
   62.1820   33.7660   47.9450 C   0  0  0  0  0  0  0  0  0  0  0  0
   61.6750   33.7230   46.6430 C   0  0  0  0  0  0  0  0  0  0  0  0
   58.0690   29.2020   44.3680 C   0  0  0  0  0  0  0  0  0  0  0  0
   57.7540   27.8480   44.5100 C   0  0  0  0  0  0  0  0  0  0  0  0
   56.1420   25.3780   45.5920 C   0  0  0  0  0  0  0  0  0  0  0  0
   56.0230   23.8480   45.6440 C   0  0  0  0  0  0  0  0  0  0  0  0
   58.8955   21.0653   44.0610 H   0  0  0  0  0  0  0  0  0  0  0  0
   57.7525   20.6437   42.7410 H   0  0  0  0  0  0  0  0  0  0  0  0
   58.5749   22.2406   42.7410 H   0  0  0  0  0  0  0  0  0  0  0  0
   59.1412   22.8774   45.6855 H   0  0  0  0  0  0  0  0  0  0  0  0
   58.9780   24.0849   44.3439 H   0  0  0  0  0  0  0  0  0  0  0  0
   58.2888   24.4490   47.2933 H   0  0  0  0  0  0  0  0  0  0  0  0
   59.5108   25.3345   46.3181 H   0  0  0  0  0  0  0  0  0  0  0  0
   58.3202   27.5007   47.8636 H   0  0  0  0  0  0  0  0  0  0  0  0
   58.9043   29.9097   47.6073 H   0  0  0  0  0  0  0  0  0  0  0  0
   59.7970   31.6230   45.5860 H   0  0  0  0  0  0  0  0  0  0  0  0
   58.1665   34.0516   43.7825 H   0  0  0  0  0  0  0  0  0  0  0  0
   57.7884   34.4840   45.4941 H   0  0  0  0  0  0  0  0  0  0  0  0
   58.3914   34.4110   47.3221 H   0  0  0  0  0  0  0  0  0  0  0  0
   59.3039   34.4817   49.6405 H   0  0  0  0  0  0  0  0  0  0  0  0
   61.7331   34.0735   50.0437 H   0  0  0  0  0  0  0  0  0  0  0  0
   63.2521   33.5846   48.1237 H   0  0  0  0  0  0  0  0  0  0  0  0
   62.3482   33.5115   45.7992 H   0  0  0  0  0  0  0  0  0  0  0  0
   58.0098   29.6764   43.3773 H   0  0  0  0  0  0  0  0  0  0  0  0
   57.4347   27.2669   43.6323 H   0  0  0  0  0  0  0  0  0  0  0  0
   55.4420   25.8144   46.3198 H   0  0  0  0  0  0  0  0  0  0  0  0
   55.9038   25.7046   44.5690 H   0  0  0  0  0  0  0  0  0  0  0  0
   55.9790   23.5241   46.6943 H   0  0  0  0  0  0  0  0  0  0  0  0
   55.1079   23.5448   45.1143 H   0  0  0  0  0  0  0  0  0  0  0  0
  1  2  1  0
  2  3  2  0
  2  4  1  0
  4  5  1  0
  5  6  1  0
  6  7  1  0
  7  8  1  0
  8  9  2  0
  9 10  1  0
 10 11  2  0
 11 12  1  0
 12 13  1  0
 13 14  2  0
 13 15  1  0
 15 16  1  0
 16 17  1  0
 17 18  2  0
 18 19  1  0
 19 20  2  0
 20 21  1  0
 21 22  2  0
 11 23  1  0
 23 24  2  0
  7 25  1  0
 25 26  1  0
 26  4  1  0
 24  8  1  0
 22 17  1  0
  1 27  1  0
  1 28  1  0
  1 29  1  0
  5 30  1  0
  5 31  1  0
  6 32  1  0
  6 33  1  0
  9 34  1  0
 10 35  1  0
 12 36  1  0
 15 37  1  0
 15 38  1  0
 18 39  1  0
 19 40  1  0
 20 41  1  0
 21 42  1  0
 22 43  1  0
 23 44  1  0
 24 45  1  0
 25 46  1  0
 25 47  1  0
 26 48  1  0
 26 49  1  0
M  END
>  <UniqueID>  (76) 
72

>  <SMILES>  (76) 
CC(=O)N1CCN(c2ccc(NC(=O)COc3ccccc3)cc2)CC1

>  <Energy>  (76) 
56.39055859437249

>  <Genealogy>  (76) 
CC(=O)N1CCN(c2ccc(NC(=O)COc3ccccc3)cc2)CC1 (3D coordinates assigned)
CC(=O)N1CCN(c2ccc(NC(=O)COc3ccccc3)cc2)CC1 (nonaromatic ring conformer: 56.39055859437249 kcal/mol)

>  <smiles>  (76) 
CC(=O)N1CCN(c2ccc(NC(=O)COc3ccccc3)cc2)CC1

>  <score_type>  (76) 
oracle

>  <origin>  (76) 
adg

>  <m_score__min__energy>  (76) 
-7.4400000000000004

>  <m_primary>  (76) 
energy

$$$$
76:0
     RDKit          3D

 55 59  0  0  0  0  0  0  0  0999 V2000
   57.6960   28.8070   46.5440 O   0  0  0  0  0  0  0  0  0  0  0  0
   58.1030   29.9150   46.0930 C   0  0  0  0  0  0  0  0  0  0  0  0
   57.7130   30.3340   44.8080 C   0  0  0  0  0  0  0  0  0  0  0  0
   56.8720   29.5610   43.9870 C   0  0  0  0  0  0  0  0  0  0  0  0
   56.5290   30.0160   42.7090 C   0  0  0  0  0  0  0  0  0  0  0  0
   57.0190   31.2400   42.2430 C   0  0  0  0  0  0  0  0  0  0  0  0
   57.8550   32.0140   43.0550 C   0  0  0  0  0  0  0  0  0  0  0  0
   58.2030   31.5650   44.3340 C   0  0  0  0  0  0  0  0  0  0  0  0
   59.0140   32.3150   45.1180 N   0  0  0  0  0  0  0  0  0  0  0  0
   59.3760   31.9080   46.3620 C   0  0  0  0  0  0  0  0  0  0  0  0
   60.2200   32.7620   47.1500 N   0  0  0  0  0  0  0  0  0  0  0  0
   59.6250   33.7880   48.0090 C   0  0  0  0  0  0  0  0  0  0  0  0
   60.3900   33.8370   49.3260 C   0  0  0  0  0  0  0  0  0  0  0  0
   61.8770   34.2170   49.1050 C   0  0  0  0  0  0  0  0  0  0  0  0
   62.7230   33.7750   50.2540 N   0  0  0  0  0  0  0  0  0  0  0  0
   62.2000   32.6030   50.9900 C   0  0  0  0  0  0  0  0  0  0  0  0
   63.1710   31.4540   50.7870 C   0  0  0  0  0  0  0  0  0  0  0  0
   64.4890   32.1230   50.4790 C   0  0  0  0  0  0  0  0  0  0  0  0
   64.1130   33.4600   49.8570 C   0  0  0  0  0  0  0  0  0  0  0  0
   62.4280   33.8080   47.6970 C   0  0  0  0  0  0  0  0  0  0  0  0
   61.6740   32.6610   46.9950 C   0  0  0  0  0  0  0  0  0  0  0  0
   58.9350   30.7000   46.8490 N   0  0  0  0  0  0  0  0  0  0  0  0
   59.3970   30.2230   48.1270 C   0  0  0  0  0  0  0  0  0  0  0  0
   60.3560   29.2020   48.1970 C   0  0  0  0  0  0  0  0  0  0  0  0
   60.7870   28.7270   49.4400 C   0  0  0  0  0  0  0  0  0  0  0  0
   60.2690   29.2770   50.6180 C   0  0  0  0  0  0  0  0  0  0  0  0
   59.3240   30.3040   50.5540 C   0  0  0  0  0  0  0  0  0  0  0  0
   58.8900   30.7790   49.3120 C   0  0  0  0  0  0  0  0  0  0  0  0
   56.4837   28.5980   44.3500 H   0  0  0  0  0  0  0  0  0  0  0  0
   55.8719   29.4090   42.0689 H   0  0  0  0  0  0  0  0  0  0  0  0
   56.7471   31.5944   41.2378 H   0  0  0  0  0  0  0  0  0  0  0  0
   58.2394   32.9769   42.6876 H   0  0  0  0  0  0  0  0  0  0  0  0
   59.6856   34.7668   47.5107 H   0  0  0  0  0  0  0  0  0  0  0  0
   58.5694   33.5455   48.2011 H   0  0  0  0  0  0  0  0  0  0  0  0
   59.9234   34.5859   49.9829 H   0  0  0  0  0  0  0  0  0  0  0  0
   60.3533   32.8376   49.7841 H   0  0  0  0  0  0  0  0  0  0  0  0
   61.9329   35.3154   49.0875 H   0  0  0  0  0  0  0  0  0  0  0  0
   62.7740   34.5760   50.9320 H   0  0  0  0  0  0  0  0  0  0  0  0
   62.1196   32.8397   52.0612 H   0  0  0  0  0  0  0  0  0  0  0  0
   61.2011   32.3311   50.6180 H   0  0  0  0  0  0  0  0  0  0  0  0
   63.2482   30.8444   51.6993 H   0  0  0  0  0  0  0  0  0  0  0  0
   62.8506   30.7721   49.9855 H   0  0  0  0  0  0  0  0  0  0  0  0
   65.0708   32.2746   51.4002 H   0  0  0  0  0  0  0  0  0  0  0  0
   65.1152   31.5158   49.8088 H   0  0  0  0  0  0  0  0  0  0  0  0
   64.7921   34.2451   50.2210 H   0  0  0  0  0  0  0  0  0  0  0  0
   64.1946   33.4078   48.7613 H   0  0  0  0  0  0  0  0  0  0  0  0
   62.3814   34.6928   47.0451 H   0  0  0  0  0  0  0  0  0  0  0  0
   63.4489   33.4364   47.8693 H   0  0  0  0  0  0  0  0  0  0  0  0
   61.9161   32.6853   45.9223 H   0  0  0  0  0  0  0  0  0  0  0  0
   61.9934   31.7180   47.4627 H   0  0  0  0  0  0  0  0  0  0  0  0
   60.7701   28.7738   47.2723 H   0  0  0  0  0  0  0  0  0  0  0  0
   61.5335   27.9207   49.4916 H   0  0  0  0  0  0  0  0  0  0  0  0
   60.6061   28.9004   51.5950 H   0  0  0  0  0  0  0  0  0  0  0  0
   58.9212   30.7391   51.4805 H   0  0  0  0  0  0  0  0  0  0  0  0
   58.1492   31.5907   49.2637 H   0  0  0  0  0  0  0  0  0  0  0  0
  1  2  2  0
  2  3  1  0
  3  4  2  0
  4  5  1  0
  5  6  2  0
  6  7  1  0
  7  8  2  0
  8  9  1  0
  9 10  2  0
 10 11  1  0
 11 12  1  0
 12 13  1  0
 13 14  1  0
 14 15  1  0
 15 16  1  0
 16 17  1  0
 17 18  1  0
 18 19  1  0
 14 20  1  0
 20 21  1  0
 10 22  1  0
 22 23  1  0
 23 24  2  0
 24 25  1  0
 25 26  2  0
 26 27  1  0
 27 28  2  0
 22  2  1  0
 28 23  1  0
  8  3  1  0
 21 11  1  0
 19 15  1  0
  4 29  1  0
  5 30  1  0
  6 31  1  0
  7 32  1  0
 12 33  1  0
 12 34  1  0
 13 35  1  0
 13 36  1  0
 14 37  1  0
 15 38  1  0
 16 39  1  0
 16 40  1  0
 17 41  1  0
 17 42  1  0
 18 43  1  0
 18 44  1  0
 19 45  1  0
 19 46  1  0
 20 47  1  0
 20 48  1  0
 21 49  1  0
 21 50  1  0
 24 51  1  0
 25 52  1  0
 26 53  1  0
 27 54  1  0
 28 55  1  0
M  CHG  1  15   1
M  END
>  <UniqueID>  (77) 
73

>  <SMILES>  (77) 
O=c1c2ccccc2nc(N2CCC([NH+]3CCCC3)CC2)n1-c1ccccc1

>  <Energy>  (77) 
87.26111597612041

>  <Genealogy>  (77) 
O=c1c2ccccc2nc(N2CCC([NH+]3CCCC3)CC2)n1-c1ccccc1 (protonated)
O=c1c2ccccc2nc(N2CCC([NH+]3CCCC3)CC2)n1-c1ccccc1 (3D coordinates assigned)
O=c1c2ccccc2nc(N2CCC([NH+]3CCCC3)CC2)n1-c1ccccc1 (nonaromatic ring conformer: 87.26111597612041 kcal/mol)

>  <smiles>  (77) 
O=c1c2ccccc2nc(N2CCC(N3CCCC3)CC2)n1-c1ccccc1

>  <score_type>  (77) 
oracle

>  <origin>  (77) 
adg

>  <m_score__min__energy>  (77) 
-7.0499999999999998

>  <m_primary>  (77) 
energy

$$$$
77:0
     RDKit          3D

 22 22  0  0  0  0  0  0  0  0999 V2000
   57.8727   29.2620   43.2685 H   0  0  0  0  0  0  0  0  0  0  0  0
   57.4080   29.9850   43.9550 C   0  0  0  0  0  0  0  0  0  0  0  0
   56.1180   29.6490   44.5760 C   0  0  0  0  0  0  0  0  0  0  0  0
   55.1660   30.4700   44.4950 O   0  0  0  0  0  0  0  0  0  0  0  0
   55.9490   28.4330   45.2480 O   0  0  0  0  0  0  0  0  0  0  0  0
   57.0450   27.6070   45.6230 C   0  0  0  0  0  0  0  0  0  0  0  0
   57.1092   27.5586   46.7201 H   0  0  0  0  0  0  0  0  0  0  0  0
   56.8961   26.5946   45.2194 H   0  0  0  0  0  0  0  0  0  0  0  0
   57.9772   28.0291   45.2194 H   0  0  0  0  0  0  0  0  0  0  0  0
   58.0340   31.1410   44.1980 C   0  0  0  0  0  0  0  0  0  0  0  0
   58.3404   31.7676   43.3474 H   0  0  0  0  0  0  0  0  0  0  0  0
   58.3290   31.6070   45.5700 C   0  0  0  0  0  0  0  0  0  0  0  0
   58.7940   30.6660   46.5010 C   0  0  0  0  0  0  0  0  0  0  0  0
   58.9211   29.6168   46.1959 H   0  0  0  0  0  0  0  0  0  0  0  0
   59.0980   31.0460   47.8130 C   0  0  0  0  0  0  0  0  0  0  0  0
   59.6970   29.8300   48.9330 Cl  0  0  0  0  0  0  0  0  0  0  0  0
   58.9240   32.3800   48.2110 C   0  0  0  0  0  0  0  0  0  0  0  0
   59.2930   32.8970   49.8510 Cl  0  0  0  0  0  0  0  0  0  0  0  0
   58.4330   33.3180   47.2980 C   0  0  0  0  0  0  0  0  0  0  0  0
   58.2865   34.3611   47.6151 H   0  0  0  0  0  0  0  0  0  0  0  0
   58.1260   32.9440   45.9850 C   0  0  0  0  0  0  0  0  0  0  0  0
   57.4070   34.1580   44.9310 Cl  0  0  0  0  0  0  0  0  0  0  0  0
  1  2  1  0
  2  3  1  0
  3  4  2  0
  3  5  1  0
  5  6  1  0
  6  7  1  0
  6  8  1  0
  6  9  1  0
  2 10  2  0
 10 11  1  0
 10 12  1  0
 12 13  2  0
 13 14  1  0
 13 15  1  0
 15 16  1  0
 15 17  2  0
 17 18  1  0
 17 19  1  0
 19 20  1  0
 19 21  2  0
 21 22  1  0
 21 12  1  0
M  END
>  <UniqueID>  (78) 
74

>  <SMILES>  (78) 
COC(=O)/C=C/c1cc(Cl)c(Cl)cc1Cl

>  <Energy>  (78) 
23.761942465443248

>  <Genealogy>  (78) 
COC(=O)/C=C/c1cc(Cl)c(Cl)cc1Cl (cis-trans isomerization)
COC(=O)/C=C/c1cc(Cl)c(Cl)cc1Cl (3D coordinates assigned)
COC(=O)/C=C/c1cc(Cl)c(Cl)cc1Cl (optimized conformer: 23.761942465443248 kcal/mol)

>  <smiles>  (78) 
COC(=O)C=Cc1cc(Cl)c(Cl)cc1Cl

>  <score_type>  (78) 
oracle

>  <origin>  (78) 
adg

>  <m_score__min__energy>  (78) 
-6.1600000000000001

>  <m_primary>  (78) 
energy

$$$$
78:0
     RDKit          3D

 45 47  0  0  0  0  0  0  0  0999 V2000
   62.7030   32.7540   47.1570 C   0  0  0  0  0  0  0  0  0  0  0  0
   62.7290   31.5100   47.8140 O   0  0  0  0  0  0  0  0  0  0  0  0
   61.5810   31.0250   48.3990 C   0  0  0  0  0  0  0  0  0  0  0  0
   60.7320   30.1100   47.8200 C   0  0  0  0  0  0  0  0  0  0  0  0
   59.6080   29.6960   48.5020 C   0  0  0  0  0  0  0  0  0  0  0  0
   58.6830   28.7420   47.9590 N   0  0  0  0  0  0  0  0  0  0  0  0
   59.1290   27.5130   47.4680 C   0  0  0  0  0  0  0  0  0  0  0  0
   60.3840   27.2870   47.5190 O   0  0  0  0  0  0  0  0  0  0  0  0
   58.2960   26.4430   46.8910 C   0  0  0  0  0  0  0  0  0  0  0  0
   56.8280   26.9980   46.0340 S   0  0  0  0  0  0  0  0  0  0  0  0
   57.0020   28.5760   45.2390 C   0  0  0  0  0  0  0  0  0  0  0  0
   57.4550   29.6790   45.8920 N   0  0  0  0  0  0  0  0  0  0  0  0
   57.4980   30.7360   45.0540 C   0  0  0  0  0  0  0  0  0  0  0  0
   57.9310   32.0830   45.4020 C   0  0  0  0  0  0  0  0  0  0  0  0
   58.1650   32.3790   46.7350 C   0  0  0  0  0  0  0  0  0  0  0  0
   58.5740   33.6300   47.1240 C   0  0  0  0  0  0  0  0  0  0  0  0
   58.7470   34.5950   46.1430 C   0  0  0  0  0  0  0  0  0  0  0  0
   58.5100   34.2860   44.8200 C   0  0  0  0  0  0  0  0  0  0  0  0
   58.1010   33.0360   44.4210 C   0  0  0  0  0  0  0  0  0  0  0  0
   57.0540   30.2810   43.8330 C   0  0  0  0  0  0  0  0  0  0  0  0
   56.7610   28.9640   43.9810 N   0  0  0  0  0  0  0  0  0  0  0  0
   59.2840   30.1680   49.7740 C   0  0  0  0  0  0  0  0  0  0  0  0
   58.1420   29.7240   50.4250 O   0  0  0  0  0  0  0  0  0  0  0  0
   57.7100   30.4350   51.5640 C   0  0  0  0  0  0  0  0  0  0  0  0
   60.1400   31.0890   50.3510 C   0  0  0  0  0  0  0  0  0  0  0  0
   61.2540   31.4870   49.6520 C   0  0  0  0  0  0  0  0  0  0  0  0
   62.3080   32.6640   50.4440 Cl  0  0  0  0  0  0  0  0  0  0  0  0
   62.6861   33.5623   47.9029 H   0  0  0  0  0  0  0  0  0  0  0  0
   63.5992   32.8549   46.5272 H   0  0  0  0  0  0  0  0  0  0  0  0
   61.8033   32.8173   46.5272 H   0  0  0  0  0  0  0  0  0  0  0  0
   60.9491   29.7110   46.8182 H   0  0  0  0  0  0  0  0  0  0  0  0
   57.6660   28.9540   47.9150 H   0  0  0  0  0  0  0  0  0  0  0  0
   58.9138   25.8786   46.1770 H   0  0  0  0  0  0  0  0  0  0  0  0
   57.9433   25.8396   47.7404 H   0  0  0  0  0  0  0  0  0  0  0  0
   58.0204   31.5973   47.4953 H   0  0  0  0  0  0  0  0  0  0  0  0
   58.7593   33.8607   48.1835 H   0  0  0  0  0  0  0  0  0  0  0  0
   59.0736   35.6081   46.4205 H   0  0  0  0  0  0  0  0  0  0  0  0
   58.6532   35.0665   44.0582 H   0  0  0  0  0  0  0  0  0  0  0  0
   57.9168   32.8055   43.3613 H   0  0  0  0  0  0  0  0  0  0  0  0
   56.9553   30.8731   42.9112 H   0  0  0  0  0  0  0  0  0  0  0  0
   56.4060   28.3910   43.2140 H   0  0  0  0  0  0  0  0  0  0  0  0
   58.0326   29.9041   52.4718 H   0  0  0  0  0  0  0  0  0  0  0  0
   58.1478   31.4441   51.5542 H   0  0  0  0  0  0  0  0  0  0  0  0
   56.6127   30.5113   51.5542 H   0  0  0  0  0  0  0  0  0  0  0  0
   59.9324   31.4956   51.3518 H   0  0  0  0  0  0  0  0  0  0  0  0
  1  2  1  0
  2  3  1  0
  3  4  2  0
  4  5  1  0
  5  6  1  0
  6  7  1  0
  7  8  2  0
  7  9  1  0
  9 10  1  0
 10 11  1  0
 11 12  2  0
 12 13  1  0
 13 14  1  0
 14 15  2  0
 15 16  1  0
 16 17  2  0
 17 18  1  0
 18 19  2  0
 13 20  2  0
 20 21  1  0
  5 22  2  0
 22 23  1  0
 23 24  1  0
 22 25  1  0
 25 26  2  0
 26 27  1  0
 26  3  1  0
 21 11  1  0
 19 14  1  0
  1 28  1  0
  1 29  1  0
  1 30  1  0
  4 31  1  0
  6 32  1  0
  9 33  1  0
  9 34  1  0
 15 35  1  0
 16 36  1  0
 17 37  1  0
 18 38  1  0
 19 39  1  0
 20 40  1  0
 21 41  1  0
 24 42  1  0
 24 43  1  0
 24 44  1  0
 25 45  1  0
M  END
>  <smiles>  (79) 
COc1cc(NC(=O)CSc2nc(-c3ccccc3)c[nH]2)c(OC)cc1Cl

>  <score_type>  (79) 
oracle

>  <origin>  (79) 
adg

>  <m_score__min__energy>  (79) 
-9.0899999999999999

>  <m_primary>  (79) 
energy

$$$$
79:0
     RDKit          3D

 21 21  0  0  0  0  0  0  0  0999 V2000
   61.0060   28.9680   44.4400 N   0  0  0  0  0  0  0  0  0  0  0  0
   60.5090   28.7080   45.7890 C   0  0  0  0  0  0  0  0  0  0  0  0
   60.1680   27.2250   45.9670 C   0  0  0  0  0  0  0  0  0  0  0  0
   58.6780   27.0010   45.9950 C   0  0  0  0  0  0  0  0  0  0  0  0
   58.1510   25.7830   46.4520 C   0  0  0  0  0  0  0  0  0  0  0  0
   56.7700   25.5690   46.4520 C   0  0  0  0  0  0  0  0  0  0  0  0
   55.9030   26.5650   45.9890 C   0  0  0  0  0  0  0  0  0  0  0  0
   54.5330   26.3360   45.9960 O   0  0  0  0  0  0  0  0  0  0  0  0
   56.4220   27.7840   45.5200 C   0  0  0  0  0  0  0  0  0  0  0  0
   55.5810   28.7910   45.0490 O   0  0  0  0  0  0  0  0  0  0  0  0
   57.8060   27.9950   45.5220 C   0  0  0  0  0  0  0  0  0  0  0  0
   60.2240   28.8010   43.7660 H   0  0  0  0  0  0  0  0  0  0  0  0
   61.7390   28.2530   44.2280 H   0  0  0  0  0  0  0  0  0  0  0  0
   61.2821   28.9903   46.5188 H   0  0  0  0  0  0  0  0  0  0  0  0
   59.5965   29.3011   45.9489 H   0  0  0  0  0  0  0  0  0  0  0  0
   60.5994   26.6560   45.1303 H   0  0  0  0  0  0  0  0  0  0  0  0
   60.5861   26.8872   46.9267 H   0  0  0  0  0  0  0  0  0  0  0  0
   58.8277   24.9938   46.8116 H   0  0  0  0  0  0  0  0  0  0  0  0
   56.3632   24.6145   46.8172 H   0  0  0  0  0  0  0  0  0  0  0  0
   54.7190   28.5850   44.5590 H   0  0  0  0  0  0  0  0  0  0  0  0
   58.2135   28.9467   45.1502 H   0  0  0  0  0  0  0  0  0  0  0  0
  1  2  1  0
  2  3  1  0
  3  4  1  0
  4  5  2  0
  5  6  1  0
  6  7  2  0
  7  8  1  0
  7  9  1  0
  9 10  1  0
  9 11  2  0
 11  4  1  0
  1 12  1  0
  1 13  1  0
  2 14  1  0
  2 15  1  0
  3 16  1  0
  3 17  1  0
  5 18  1  0
  6 19  1  0
 10 20  1  0
 11 21  1  0
M  CHG  1   8  -1
M  END
>  <UniqueID>  (80) 
75

>  <SMILES>  (80) 
NCCc1ccc([O-])c(O)c1

>  <Energy>  (80) 
15.53744327946055

>  <Genealogy>  (80) 
NCCc1ccc([O-])c(O)c1 (protonated)
NCCc1ccc([O-])c(O)c1 (3D coordinates assigned)
NCCc1ccc([O-])c(O)c1 (optimized conformer: 15.53744327946055 kcal/mol)

>  <smiles>  (80) 
NCCc1ccc(O)c(O)c1

>  <score_type>  (80) 
oracle

>  <origin>  (80) 
adg

>  <m_score__min__energy>  (80) 
-9.5

>  <m_primary>  (80) 
energy

$$$$
80:0
     RDKit          3D

 45 48  0  0  0  0  0  0  0  0999 V2000
   58.6510   26.6010   48.0800 O   0  0  0  0  0  0  0  0  0  0  0  0
   59.1630   27.4410   47.2910 C   0  0  0  0  0  0  0  0  0  0  0  0
   60.4580   27.9940   47.5690 N   0  0  0  0  0  0  0  0  0  0  0  0
   60.7430   29.3290   48.0110 C   0  0  0  0  0  0  0  0  0  0  0  0
   61.0720   30.3000   47.0610 C   0  0  0  0  0  0  0  0  0  0  0  0
   61.3740   31.6020   47.4640 C   0  0  0  0  0  0  0  0  0  0  0  0
   61.3580   31.9160   48.8230 C   0  0  0  0  0  0  0  0  0  0  0  0
   61.0610   30.9600   49.7430 N   0  0  0  0  0  0  0  0  0  0  0  0
   60.7630   29.6830   49.3720 C   0  0  0  0  0  0  0  0  0  0  0  0
   58.4270   27.8870   46.1370 N   0  0  0  0  0  0  0  0  0  0  0  0
   59.0820   28.7370   45.1340 C   0  0  0  0  0  0  0  0  0  0  0  0
   58.3290   28.6870   43.7960 C   0  0  0  0  0  0  0  0  0  0  0  0
   56.8810   28.9780   43.9330 N   0  0  0  0  0  0  0  0  0  0  0  0
   56.4900   30.3260   43.4670 C   0  0  0  0  0  0  0  0  0  0  0  0
   57.1520   31.4320   44.2450 C   0  0  0  0  0  0  0  0  0  0  0  0
   57.8390   32.5100   43.6900 C   0  0  0  0  0  0  0  0  0  0  0  0
   58.2810   33.2270   44.7780 C   0  0  0  0  0  0  0  0  0  0  0  0
   59.0310   34.3970   44.8570 C   0  0  0  0  0  0  0  0  0  0  0  0
   59.3370   34.8930   46.1390 C   0  0  0  0  0  0  0  0  0  0  0  0
   58.8900   34.2130   47.2950 C   0  0  0  0  0  0  0  0  0  0  0  0
   58.1330   33.0310   47.1790 C   0  0  0  0  0  0  0  0  0  0  0  0
   57.8480   32.5660   45.8970 C   0  0  0  0  0  0  0  0  0  0  0  0
   57.1710   31.4950   45.5650 O   0  0  0  0  0  0  0  0  0  0  0  0
   56.2690   28.6160   45.2350 C   0  0  0  0  0  0  0  0  0  0  0  0
   57.0280   27.4880   45.9380 C   0  0  0  0  0  0  0  0  0  0  0  0
   61.0930   30.0376   45.9930 H   0  0  0  0  0  0  0  0  0  0  0  0
   61.6218   32.3717   46.7182 H   0  0  0  0  0  0  0  0  0  0  0  0
   61.5865   32.9406   49.1515 H   0  0  0  0  0  0  0  0  0  0  0  0
   61.0720   31.2060   50.7580 H   0  0  0  0  0  0  0  0  0  0  0  0
   60.5376   28.9273   50.1389 H   0  0  0  0  0  0  0  0  0  0  0  0
   59.1003   29.7748   45.4982 H   0  0  0  0  0  0  0  0  0  0  0  0
   60.1057   28.3671   44.9748 H   0  0  0  0  0  0  0  0  0  0  0  0
   58.7727   29.4295   43.1164 H   0  0  0  0  0  0  0  0  0  0  0  0
   58.4226   27.6633   43.4045 H   0  0  0  0  0  0  0  0  0  0  0  0
   56.7703   30.4259   42.4080 H   0  0  0  0  0  0  0  0  0  0  0  0
   55.4044   30.4235   43.6151 H   0  0  0  0  0  0  0  0  0  0  0  0
   57.9929   32.7362   42.6246 H   0  0  0  0  0  0  0  0  0  0  0  0
   59.3728   34.9162   43.9495 H   0  0  0  0  0  0  0  0  0  0  0  0
   59.9276   35.8154   46.2415 H   0  0  0  0  0  0  0  0  0  0  0  0
   59.1350   34.6096   48.2914 H   0  0  0  0  0  0  0  0  0  0  0  0
   57.7787   32.4930   48.0707 H   0  0  0  0  0  0  0  0  0  0  0  0
   56.2704   29.5029   45.8857 H   0  0  0  0  0  0  0  0  0  0  0  0
   55.2454   28.2635   45.0401 H   0  0  0  0  0  0  0  0  0  0  0  0
   56.5624   27.2857   46.9138 H   0  0  0  0  0  0  0  0  0  0  0  0
   56.9910   26.5802   45.3180 H   0  0  0  0  0  0  0  0  0  0  0  0
  1  2  2  0
  2  3  1  0
  3  4  1  0
  4  5  2  0
  5  6  1  0
  6  7  2  0
  7  8  1  0
  8  9  2  0
  2 10  1  0
 10 11  1  0
 11 12  1  0
 12 13  1  0
 13 14  1  0
 14 15  1  0
 15 16  2  0
 16 17  1  0
 17 18  2  0
 18 19  1  0
 19 20  2  0
 20 21  1  0
 21 22  2  0
 22 23  1  0
 13 24  1  0
 24 25  1  0
  9  4  1  0
 25 10  1  0
 23 15  1  0
 22 17  1  0
  5 26  1  0
  6 27  1  0
  7 28  1  0
  8 29  1  0
  9 30  1  0
 11 31  1  0
 11 32  1  0
 12 33  1  0
 12 34  1  0
 14 35  1  0
 14 36  1  0
 16 37  1  0
 18 38  1  0
 19 39  1  0
 20 40  1  0
 21 41  1  0
 24 42  1  0
 24 43  1  0
 25 44  1  0
 25 45  1  0
M  CHG  2   3  -1   8   1
M  END
>  <UniqueID>  (81) 
76

>  <SMILES>  (81) 
O=C([N-]c1ccc[nH+]c1)N1CCN(Cc2cc3ccccc3o2)CC1

>  <Energy>  (81) 
92.74592839882347

>  <Genealogy>  (81) 
O=C([N-]c1ccc[nH+]c1)N1CCN(Cc2cc3ccccc3o2)CC1 (protonated)
O=C([N-]c1ccc[nH+]c1)N1CCN(Cc2cc3ccccc3o2)CC1 (3D coordinates assigned)
O=C([N-]c1ccc[nH+]c1)N1CCN(Cc2cc3ccccc3o2)CC1 (nonaromatic ring conformer: 92.74592839882347 kcal/mol)

>  <smiles>  (81) 
O=C(Nc1cccnc1)N1CCN(Cc2cc3ccccc3o2)CC1

>  <score_type>  (81) 
oracle

>  <origin>  (81) 
adg

>  <m_score__min__energy>  (81) 
-8.5

>  <m_primary>  (81) 
energy

$$$$
81:0
     RDKit          3D

 33 35  0  0  0  0  0  0  0  0999 V2000
   57.7090   21.9610   45.6650 C   0  0  0  0  0  0  0  0  0  0  0  0
   57.7340   22.9570   46.6820 O   0  0  0  0  0  0  0  0  0  0  0  0
   57.8250   24.3350   46.4380 C   0  0  0  0  0  0  0  0  0  0  0  0
   59.0450   24.8530   45.9870 C   0  0  0  0  0  0  0  0  0  0  0  0
   59.1860   26.2190   45.7300 C   0  0  0  0  0  0  0  0  0  0  0  0
   58.1070   27.0940   45.9320 C   0  0  0  0  0  0  0  0  0  0  0  0
   58.2340   28.4980   45.6470 N   0  0  0  0  0  0  0  0  0  0  0  0
   58.6770   29.4900   46.6360 C   0  0  0  0  0  0  0  0  0  0  0  0
   58.3410   30.8020   45.9930 C   0  0  0  0  0  0  0  0  0  0  0  0
   58.5450   32.0840   46.5060 C   0  0  0  0  0  0  0  0  0  0  0  0
   58.1630   33.1880   45.7260 C   0  0  0  0  0  0  0  0  0  0  0  0
   57.5900   32.9970   44.4520 C   0  0  0  0  0  0  0  0  0  0  0  0
   57.3950   31.6990   43.9500 C   0  0  0  0  0  0  0  0  0  0  0  0
   57.7790   30.6200   44.7490 C   0  0  0  0  0  0  0  0  0  0  0  0
   57.7170   29.1930   44.5080 C   0  0  0  0  0  0  0  0  0  0  0  0
   57.3990   28.6310   43.3810 N   0  0  0  0  0  0  0  0  0  0  0  0
   56.8780   26.5760   46.3670 C   0  0  0  0  0  0  0  0  0  0  0  0
   56.7370   25.2090   46.6250 C   0  0  0  0  0  0  0  0  0  0  0  0
   57.6840   20.9639   46.1288 H   0  0  0  0  0  0  0  0  0  0  0  0
   56.8140   22.0973   45.0402 H   0  0  0  0  0  0  0  0  0  0  0  0
   58.6097   22.0522   45.0402 H   0  0  0  0  0  0  0  0  0  0  0  0
   59.9002   24.1784   45.8336 H   0  0  0  0  0  0  0  0  0  0  0  0
   60.1477   26.6110   45.3674 H   0  0  0  0  0  0  0  0  0  0  0  0
   58.1350   29.3675   47.5853 H   0  0  0  0  0  0  0  0  0  0  0  0
   59.7441   29.3972   46.8865 H   0  0  0  0  0  0  0  0  0  0  0  0
   58.9951   32.2267   47.4995 H   0  0  0  0  0  0  0  0  0  0  0  0
   58.3118   34.2075   46.1114 H   0  0  0  0  0  0  0  0  0  0  0  0
   57.2943   33.8678   43.8484 H   0  0  0  0  0  0  0  0  0  0  0  0
   56.9525   31.5375   42.9560 H   0  0  0  0  0  0  0  0  0  0  0  0
   57.7940   28.9750   42.4780 H   0  0  0  0  0  0  0  0  0  0  0  0
   56.7640   27.8040   43.3500 H   0  0  0  0  0  0  0  0  0  0  0  0
   56.0196   27.2497   46.5060 H   0  0  0  0  0  0  0  0  0  0  0  0
   55.7718   24.8146   46.9756 H   0  0  0  0  0  0  0  0  0  0  0  0
  1  2  1  0
  2  3  1  0
  3  4  2  0
  4  5  1  0
  5  6  2  0
  6  7  1  0
  7  8  1  0
  8  9  1  0
  9 10  2  0
 10 11  1  0
 11 12  2  0
 12 13  1  0
 13 14  2  0
 14 15  1  0
 15 16  2  0
  6 17  1  0
 17 18  2  0
 18  3  1  0
 15  7  1  0
 14  9  1  0
  1 19  1  0
  1 20  1  0
  1 21  1  0
  4 22  1  0
  5 23  1  0
  8 24  1  0
  8 25  1  0
 10 26  1  0
 11 27  1  0
 12 28  1  0
 13 29  1  0
 16 30  1  0
 16 31  1  0
 17 32  1  0
 18 33  1  0
M  CHG  1  16   1
M  END
>  <UniqueID>  (82) 
77

>  <SMILES>  (82) 
COc1ccc(N2Cc3ccccc3C2=[NH2+])cc1

>  <Energy>  (82) 
60.76457328603602

>  <Genealogy>  (82) 
COc1ccc(N2Cc3ccccc3C2=[NH2+])cc1 (protonated)
COc1ccc(N2Cc3ccccc3C2=[NH2+])cc1 (3D coordinates assigned)
COc1ccc(N2Cc3ccccc3C2=[NH2+])cc1 (nonaromatic ring conformer: 60.76457328603602 kcal/mol)

>  <smiles>  (82) 
COc1ccc(N2Cc3ccccc3C2=N)cc1

>  <score_type>  (82) 
oracle

>  <origin>  (82) 
adg

>  <m_score__min__energy>  (82) 
-4.7300000000000004

>  <m_primary>  (82) 
energy

$$$$
82:0
     RDKit          3D

 33 34  0  0  0  0  0  0  0  0999 V2000
   55.7140   26.8600   45.0810 H   0  0  0  0  0  0  0  0  0  0  0  0
   56.2350   27.5910   45.6140 N   0  0  0  0  0  0  0  0  0  0  0  0
   56.4460   28.7620   45.1110 C   0  0  0  0  0  0  0  0  0  0  0  0
   55.5060   29.7310   45.0640 N   0  0  0  0  0  0  0  0  0  0  0  0
   55.9530   30.8510   44.5010 N   0  0  0  0  0  0  0  0  0  0  0  0
   57.2420   30.7680   44.1030 C   0  0  0  0  0  0  0  0  0  0  0  0
   58.1260   32.1160   43.3250 S   0  0  0  0  0  0  0  0  0  0  0  0
   57.6460   33.3520   44.5800 C   0  0  0  0  0  0  0  0  0  0  0  0
   56.9366   34.0645   44.1338 H   0  0  0  0  0  0  0  0  0  0  0  0
   57.1780   32.8336   45.4298 H   0  0  0  0  0  0  0  0  0  0  0  0
   58.8470   34.0940   45.0680 C   0  0  0  0  0  0  0  0  0  0  0  0
   58.9280   35.3410   44.8960 O   0  0  0  0  0  0  0  0  0  0  0  0
   59.8690   33.3930   45.7170 O   0  0  0  0  0  0  0  0  0  0  0  0
   59.9850   33.3030   47.1360 C   0  0  0  0  0  0  0  0  0  0  0  0
   61.0413   33.1497   47.4019 H   0  0  0  0  0  0  0  0  0  0  0  0
   59.6086   34.2368   47.5790 H   0  0  0  0  0  0  0  0  0  0  0  0
   59.1700   32.1540   47.6710 C   0  0  0  0  0  0  0  0  0  0  0  0
   58.1670   32.4200   48.3880 O   0  0  0  0  0  0  0  0  0  0  0  0
   59.5070   30.7350   47.3780 C   0  0  0  0  0  0  0  0  0  0  0  0
   60.4340   30.3910   46.3730 C   0  0  0  0  0  0  0  0  0  0  0  0
   60.9475   31.1844   45.8101 H   0  0  0  0  0  0  0  0  0  0  0  0
   60.7060   29.0510   46.0860 C   0  0  0  0  0  0  0  0  0  0  0  0
   61.4354   28.7971   45.3028 H   0  0  0  0  0  0  0  0  0  0  0  0
   60.0560   28.0290   46.7890 C   0  0  0  0  0  0  0  0  0  0  0  0
   60.3720   26.5920   46.4990 C   0  0  0  0  0  0  0  0  0  0  0  0
   60.4923   26.0448   47.4456 H   0  0  0  0  0  0  0  0  0  0  0  0
   59.5505   26.1457   45.9193 H   0  0  0  0  0  0  0  0  0  0  0  0
   61.3049   26.5315   45.9193 H   0  0  0  0  0  0  0  0  0  0  0  0
   59.1590   28.3620   47.8120 C   0  0  0  0  0  0  0  0  0  0  0  0
   58.6692   27.5653   48.3910 H   0  0  0  0  0  0  0  0  0  0  0  0
   58.8830   29.7020   48.1010 C   0  0  0  0  0  0  0  0  0  0  0  0
   58.1709   29.9509   48.9016 H   0  0  0  0  0  0  0  0  0  0  0  0
   57.9080   29.2580   44.4450 S   0  0  0  0  0  0  0  0  0  0  0  0
  1  2  1  0
  2  3  2  0
  3  4  1  0
  4  5  1  0
  5  6  2  0
  6  7  1  0
  7  8  1  0
  8  9  1  0
  8 10  1  0
  8 11  1  0
 11 12  2  0
 11 13  1  0
 13 14  1  0
 14 15  1  0
 14 16  1  0
 14 17  1  0
 17 18  2  0
 17 19  1  0
 19 20  2  0
 20 21  1  0
 20 22  1  0
 22 23  1  0
 22 24  2  0
 24 25  1  0
 25 26  1  0
 25 27  1  0
 25 28  1  0
 24 29  1  0
 29 30  1  0
 29 31  2  0
 31 32  1  0
  6 33  1  0
 33  3  1  0
 31 19  1  0
M  CHG  1   4  -1
M  END
>  <UniqueID>  (83) 
78

>  <SMILES>  (83) 
[H]/N=c1\[n-]nc(SCC(=O)OCC(=O)c2ccc(C)cc2)s1

>  <Energy>  (83) 
58.93129536400428

>  <Genealogy>  (83) 
Cc1ccc(C(=O)COC(=O)CSc2n[n-]c(=N)s2)cc1 (protonated)
[H]/N=c1\[n-]nc(SCC(=O)OCC(=O)c2ccc(C)cc2)s1 (cis-trans isomerization)
[H]/N=c1\[n-]nc(SCC(=O)OCC(=O)c2ccc(C)cc2)s1 (3D coordinates assigned)
[H]/N=c1\[n-]nc(SCC(=O)OCC(=O)c2ccc(C)cc2)s1 (optimized conformer: 58.93129536400428 kcal/mol)

>  <smiles>  (83) 
Cc1ccc(C(=O)COC(=O)CSc2n[nH]c(=N)s2)cc1

>  <score_type>  (83) 
oracle

>  <origin>  (83) 
adg

>  <m_score__min__energy>  (83) 
-10.09

>  <m_primary>  (83) 
energy

$$$$
83:0
     RDKit          3D

 38 40  0  0  0  0  0  0  0  0999 V2000
   56.9850   21.2770   43.0210 C   0  0  0  0  0  0  0  0  0  0  0  0
   55.9440   22.2210   43.2400 O   0  0  0  0  0  0  0  0  0  0  0  0
   56.0920   23.4080   43.9750 C   0  0  0  0  0  0  0  0  0  0  0  0
   55.1400   23.8350   44.9210 C   0  0  0  0  0  0  0  0  0  0  0  0
   55.3330   25.0260   45.6280 C   0  0  0  0  0  0  0  0  0  0  0  0
   56.4830   25.8000   45.4110 C   0  0  0  0  0  0  0  0  0  0  0  0
   56.6700   27.0960   46.1430 C   0  0  0  0  0  0  0  0  0  0  0  0
   57.1550   28.1090   45.2130 N   0  0  0  0  0  0  0  0  0  0  0  0
   56.3970   29.2530   44.8060 C   0  0  0  0  0  0  0  0  0  0  0  0
   55.1910   29.3450   45.1580 O   0  0  0  0  0  0  0  0  0  0  0  0
   56.9980   30.3380   44.0030 C   0  0  0  0  0  0  0  0  0  0  0  0
   56.6290   30.4640   42.6540 C   0  0  0  0  0  0  0  0  0  0  0  0
   57.1070   31.5260   41.8840 C   0  0  0  0  0  0  0  0  0  0  0  0
   57.9470   32.4810   42.4580 C   0  0  0  0  0  0  0  0  0  0  0  0
   58.3180   32.3720   43.7990 C   0  0  0  0  0  0  0  0  0  0  0  0
   57.8580   31.3010   44.5840 C   0  0  0  0  0  0  0  0  0  0  0  0
   58.2960   31.1920   45.9510 N   0  0  0  0  0  0  0  0  0  0  0  0
   58.8550   30.1260   46.5530 C   0  0  0  0  0  0  0  0  0  0  0  0
   59.0680   30.3670   47.8610 N   0  0  0  0  0  0  0  0  0  0  0  0
   58.6290   31.5930   48.1080 N   0  0  0  0  0  0  0  0  0  0  0  0
   58.1570   32.0860   46.9480 C   0  0  0  0  0  0  0  0  0  0  0  0
   57.4230   25.3820   44.4560 C   0  0  0  0  0  0  0  0  0  0  0  0
   57.2290   24.1920   43.7490 C   0  0  0  0  0  0  0  0  0  0  0  0
   57.3717   20.9264   43.9893 H   0  0  0  0  0  0  0  0  0  0  0  0
   56.5909   20.4219   42.4522 H   0  0  0  0  0  0  0  0  0  0  0  0
   57.7976   21.7526   42.4522 H   0  0  0  0  0  0  0  0  0  0  0  0
   54.2406   23.2289   45.1046 H   0  0  0  0  0  0  0  0  0  0  0  0
   54.5796   25.3576   46.3577 H   0  0  0  0  0  0  0  0  0  0  0  0
   55.7090   27.4190   46.5698 H   0  0  0  0  0  0  0  0  0  0  0  0
   57.4012   26.9594   46.9534 H   0  0  0  0  0  0  0  0  0  0  0  0
   55.9579   29.7199   42.2002 H   0  0  0  0  0  0  0  0  0  0  0  0
   56.8215   31.6099   40.8250 H   0  0  0  0  0  0  0  0  0  0  0  0
   58.3174   33.3213   41.8524 H   0  0  0  0  0  0  0  0  0  0  0  0
   58.9766   33.1315   44.2456 H   0  0  0  0  0  0  0  0  0  0  0  0
   59.1048   29.1831   46.0444 H   0  0  0  0  0  0  0  0  0  0  0  0
   57.7161   33.0868   46.8301 H   0  0  0  0  0  0  0  0  0  0  0  0
   58.3165   25.9939   44.2631 H   0  0  0  0  0  0  0  0  0  0  0  0
   57.9761   23.8691   43.0090 H   0  0  0  0  0  0  0  0  0  0  0  0
  1  2  1  0
  2  3  1  0
  3  4  2  0
  4  5  1  0
  5  6  2  0
  6  7  1  0
  7  8  1  0
  8  9  1  0
  9 10  2  0
  9 11  1  0
 11 12  2  0
 12 13  1  0
 13 14  2  0
 14 15  1  0
 15 16  2  0
 16 17  1  0
 17 18  1  0
 18 19  2  0
 19 20  1  0
 20 21  2  0
  6 22  1  0
 22 23  2  0
 23  3  1  0
 16 11  1  0
 21 17  1  0
  1 24  1  0
  1 25  1  0
  1 26  1  0
  4 27  1  0
  5 28  1  0
  7 29  1  0
  7 30  1  0
 12 31  1  0
 13 32  1  0
 14 33  1  0
 15 34  1  0
 18 35  1  0
 21 36  1  0
 22 37  1  0
 23 38  1  0
M  CHG  1   8  -1
M  END
>  <UniqueID>  (84) 
79

>  <SMILES>  (84) 
COc1ccc(C[N-]C(=O)c2ccccc2-n2cnnc2)cc1

>  <Energy>  (84) 
83.26769327185723

>  <Genealogy>  (84) 
COc1ccc(C[N-]C(=O)c2ccccc2-n2cnnc2)cc1 (protonated)
COc1ccc(C[N-]C(=O)c2ccccc2-n2cnnc2)cc1 (3D coordinates assigned)
COc1ccc(C[N-]C(=O)c2ccccc2-n2cnnc2)cc1 (optimized conformer: 83.26769327185723 kcal/mol)

>  <smiles>  (84) 
COc1ccc(CNC(=O)c2ccccc2-n2cnnc2)cc1

>  <score_type>  (84) 
oracle

>  <origin>  (84) 
adg

>  <m_score__min__energy>  (84) 
-8.8300000000000001

>  <m_primary>  (84) 
energy

$$$$
84:0
     RDKit          3D

 44 46  0  0  0  0  0  0  0  0999 V2000
   56.9550   26.8610   45.9320 O   0  0  0  0  0  0  0  0  0  0  0  0
   57.0890   28.1050   45.7900 C   0  0  0  0  0  0  0  0  0  0  0  0
   55.9930   28.8550   45.2480 N   0  0  0  0  0  0  0  0  0  0  0  0
   55.8500   29.3430   43.8730 C   0  0  0  0  0  0  0  0  0  0  0  0
   56.2200   30.8330   43.7500 C   0  0  1  0  0  0  0  0  0  0  0  0
   57.2710   31.2820   44.7640 C   0  0  0  0  0  0  0  0  0  0  0  0
   58.4750   31.5780   43.9230 C   0  0  0  0  0  0  0  0  0  0  0  0
   57.8800   31.8300   42.5570 C   0  0  0  0  0  0  0  0  0  0  0  0
   56.6770   31.1080   42.4410 O   0  0  0  0  0  0  0  0  0  0  0  0
   58.3630   28.7360   46.1860 C   0  0  0  0  0  0  0  0  0  0  0  0
   58.5410   29.2430   47.4820 C   0  0  0  0  0  0  0  0  0  0  0  0
   59.7210   29.9070   47.8220 C   0  0  0  0  0  0  0  0  0  0  0  0
   60.7480   30.0580   46.8760 C   0  0  0  0  0  0  0  0  0  0  0  0
   61.9150   30.8370   47.1730 N   0  0  0  0  0  0  0  0  0  0  0  0
   61.7950   32.5330   47.5230 S   0  0  0  0  0  0  0  0  0  0  0  0
   62.9250   33.2650   46.8560 O   0  0  0  0  0  0  0  0  0  0  0  0
   61.8840   32.7400   49.0090 O   0  0  0  0  0  0  0  0  0  0  0  0
   60.2670   33.1430   46.8900 C   0  0  0  0  0  0  0  0  0  0  0  0
   59.0830   32.9100   47.6040 C   0  0  0  0  0  0  0  0  0  0  0  0
   57.8750   33.4520   47.1570 C   0  0  0  0  0  0  0  0  0  0  0  0
   57.8440   34.2310   45.9980 C   0  0  0  0  0  0  0  0  0  0  0  0
   59.0200   34.4650   45.2800 C   0  0  0  0  0  0  0  0  0  0  0  0
   60.2310   33.9210   45.7250 C   0  0  0  0  0  0  0  0  0  0  0  0
   60.6050   29.4740   45.6100 C   0  0  0  0  0  0  0  0  0  0  0  0
   59.4220   28.8150   45.2670 C   0  0  0  0  0  0  0  0  0  0  0  0
   56.5111   28.7573   43.2174 H   0  0  0  0  0  0  0  0  0  0  0  0
   54.7963   29.2284   43.5789 H   0  0  0  0  0  0  0  0  0  0  0  0
   55.3040   31.4021   43.9669 H   0  0  0  0  0  0  0  0  0  0  0  0
   56.9376   32.1819   45.3016 H   0  0  0  0  0  0  0  0  0  0  0  0
   57.4676   30.5243   45.5369 H   0  0  0  0  0  0  0  0  0  0  0  0
   59.0071   32.4669   44.2929 H   0  0  0  0  0  0  0  0  0  0  0  0
   59.2190   30.7678   43.9297 H   0  0  0  0  0  0  0  0  0  0  0  0
   57.6785   32.9045   42.4350 H   0  0  0  0  0  0  0  0  0  0  0  0
   58.5855   31.5044   41.7784 H   0  0  0  0  0  0  0  0  0  0  0  0
   57.7475   29.1168   48.2333 H   0  0  0  0  0  0  0  0  0  0  0  0
   59.8471   30.3140   48.8361 H   0  0  0  0  0  0  0  0  0  0  0  0
   62.8540   30.4680   46.9060 H   0  0  0  0  0  0  0  0  0  0  0  0
   59.1051   32.2990   48.5184 H   0  0  0  0  0  0  0  0  0  0  0  0
   56.9477   33.2650   47.7184 H   0  0  0  0  0  0  0  0  0  0  0  0
   56.8931   34.6607   45.6501 H   0  0  0  0  0  0  0  0  0  0  0  0
   58.9942   35.0762   44.3658 H   0  0  0  0  0  0  0  0  0  0  0  0
   61.1561   34.1047   45.1589 H   0  0  0  0  0  0  0  0  0  0  0  0
   61.4282   29.5349   44.8830 H   0  0  0  0  0  0  0  0  0  0  0  0
   59.3195   28.3559   44.2727 H   0  0  0  0  0  0  0  0  0  0  0  0
  1  2  2  0
  2  3  1  0
  3  4  1  0
  4  5  1  0
  5  6  1  0
  6  7  1  0
  7  8  1  0
  8  9  1  0
  2 10  1  0
 10 11  2  0
 11 12  1  0
 12 13  2  0
 13 14  1  0
 14 15  1  0
 15 16  2  0
 15 17  2  0
 15 18  1  0
 18 19  2  0
 19 20  1  0
 20 21  2  0
 21 22  1  0
 22 23  2  0
 13 24  1  0
 24 25  2  0
  9  5  1  0
 25 10  1  0
 23 18  1  0
  4 26  1  0
  4 27  1  0
  5 28  1  1
  6 29  1  0
  6 30  1  0
  7 31  1  0
  7 32  1  0
  8 33  1  0
  8 34  1  0
 11 35  1  0
 12 36  1  0
 14 37  1  0
 19 38  1  0
 20 39  1  0
 21 40  1  0
 22 41  1  0
 23 42  1  0
 24 43  1  0
 25 44  1  0
M  CHG  1   3  -1
M  END
>  <UniqueID>  (85) 
80

>  <SMILES>  (85) 
O=C([N-]C[C@H]1CCCO1)c1ccc(NS(=O)(=O)c2ccccc2)cc1

>  <Energy>  (85) 
50.41825621558685

>  <Genealogy>  (85) 
O=C([N-]CC1CCCO1)c1ccc(NS(=O)(=O)c2ccccc2)cc1 (protonated)
O=C([N-]C[C@H]1CCCO1)c1ccc(NS(=O)(=O)c2ccccc2)cc1 (chirality)
O=C([N-]C[C@H]1CCCO1)c1ccc(NS(=O)(=O)c2ccccc2)cc1 (3D coordinates assigned)
O=C([N-]C[C@H]1CCCO1)c1ccc(NS(=O)(=O)c2ccccc2)cc1 (nonaromatic ring conformer: 50.41825621558685 kcal/mol)

>  <smiles>  (85) 
O=C(NCC1CCCO1)c1ccc(NS(=O)(=O)c2ccccc2)cc1

>  <score_type>  (85) 
oracle

>  <origin>  (85) 
adg

>  <m_score__min__energy>  (85) 
-11.029999999999999

>  <m_primary>  (85) 
energy

$$$$
85:0
     RDKit          3D

 45 47  0  0  0  0  0  0  0  0999 V2000
   58.6890   25.9410   45.2900 O   0  0  0  0  0  0  0  0  0  0  0  0
   58.1090   26.2640   44.2330 C   0  0  0  0  0  0  0  0  0  0  0  0
   58.4230   27.5870   43.5700 C   0  0  0  0  0  0  0  0  0  0  0  0
   57.0680   28.7240   43.9540 S   0  0  0  0  0  0  0  0  0  0  0  0
   57.6990   30.2190   44.6670 C   0  0  0  0  0  0  0  0  0  0  0  0
   57.8370   30.4490   45.9780 N   0  0  0  0  0  0  0  0  0  0  0  0
   58.3100   31.6150   46.4660 C   0  0  0  0  0  0  0  0  0  0  0  0
   58.4380   31.8230   47.6960 O   0  0  0  0  0  0  0  0  0  0  0  0
   58.6710   32.6230   45.5850 C   0  0  0  0  0  0  0  0  0  0  0  0
   59.2780   34.1680   46.0850 S   0  0  0  0  0  0  0  0  0  0  0  0
   58.2350   34.8280   46.9540 O   0  0  0  0  0  0  0  0  0  0  0  0
   59.4870   35.0260   44.8640 O   0  0  0  0  0  0  0  0  0  0  0  0
   60.7940   34.0520   46.9660 C   0  0  0  0  0  0  0  0  0  0  0  0
   62.0020   33.7990   46.3690 C   0  0  0  0  0  0  0  0  0  0  0  0
   63.1040   33.7330   47.2030 C   0  0  0  0  0  0  0  0  0  0  0  0
   63.0310   33.9080   48.5600 C   0  0  0  0  0  0  0  0  0  0  0  0
   61.8100   34.1630   49.1620 C   0  0  0  0  0  0  0  0  0  0  0  0
   60.7000   34.2320   48.3520 C   0  0  0  0  0  0  0  0  0  0  0  0
   58.5330   32.3940   44.2250 C   0  0  0  0  0  0  0  0  0  0  0  0
   58.0540   31.2040   43.8210 N   0  0  0  0  0  0  0  0  0  0  0  0
   57.1350   25.4730   43.5680 N   0  0  0  0  0  0  0  0  0  0  0  0
   56.6760   24.2130   44.0180 C   0  0  0  0  0  0  0  0  0  0  0  0
   56.9820   23.1190   43.2070 C   0  0  0  0  0  0  0  0  0  0  0  0
   56.6030   21.8340   43.5380 C   0  0  0  0  0  0  0  0  0  0  0  0
   55.8970   21.6100   44.7060 C   0  0  0  0  0  0  0  0  0  0  0  0
   55.5850   22.7100   45.5250 C   0  0  0  0  0  0  0  0  0  0  0  0
   55.9760   23.9840   45.1730 C   0  0  0  0  0  0  0  0  0  0  0  0
   55.6500   25.1160   46.0150 C   0  0  0  0  0  0  0  0  0  0  0  0
   56.2500   25.2520   47.1260 O   0  0  0  0  0  0  0  0  0  0  0  0
   54.7180   26.0730   45.6940 O   0  0  0  0  0  0  0  0  0  0  0  0
   59.3706   27.9869   43.9600 H   0  0  0  0  0  0  0  0  0  0  0  0
   58.5255   27.4602   42.4821 H   0  0  0  0  0  0  0  0  0  0  0  0
   62.0906   33.6557   45.2820 H   0  0  0  0  0  0  0  0  0  0  0  0
   64.0876   33.5300   46.7543 H   0  0  0  0  0  0  0  0  0  0  0  0
   63.9430   33.8459   49.1719 H   0  0  0  0  0  0  0  0  0  0  0  0
   61.7305   34.3054   50.2498 H   0  0  0  0  0  0  0  0  0  0  0  0
   59.7169   34.4330   48.8028 H   0  0  0  0  0  0  0  0  0  0  0  0
   58.8088   33.1675   43.4932 H   0  0  0  0  0  0  0  0  0  0  0  0
   57.9660   31.0720   42.7890 H   0  0  0  0  0  0  0  0  0  0  0  0
   56.7010   25.8270   42.6750 H   0  0  0  0  0  0  0  0  0  0  0  0
   57.5425   23.2862   42.2754 H   0  0  0  0  0  0  0  0  0  0  0  0
   56.8608   20.9933   42.8771 H   0  0  0  0  0  0  0  0  0  0  0  0
   55.5862   20.5933   44.9884 H   0  0  0  0  0  0  0  0  0  0  0  0
   55.0226   22.5518   46.4570 H   0  0  0  0  0  0  0  0  0  0  0  0
   54.0370   26.3410   46.3750 H   0  0  0  0  0  0  0  0  0  0  0  0
  1  2  2  0
  2  3  1  0
  3  4  1  0
  4  5  1  0
  5  6  2  0
  6  7  1  0
  7  8  2  0
  7  9  1  0
  9 10  1  0
 10 11  2  0
 10 12  2  0
 10 13  1  0
 13 14  2  0
 14 15  1  0
 15 16  2  0
 16 17  1  0
 17 18  2  0
  9 19  2  0
 19 20  1  0
  2 21  1  0
 21 22  1  0
 22 23  2  0
 23 24  1  0
 24 25  2  0
 25 26  1  0
 26 27  2  0
 27 28  1  0
 28 29  2  0
 28 30  1  0
 20  5  1  0
 27 22  1  0
 18 13  1  0
  3 31  1  0
  3 32  1  0
 14 33  1  0
 15 34  1  0
 16 35  1  0
 17 36  1  0
 18 37  1  0
 19 38  1  0
 20 39  1  0
 21 40  1  0
 23 41  1  0
 24 42  1  0
 25 43  1  0
 26 44  1  0
 30 45  1  0
M  END
>  <smiles>  (86) 
O=C(CSc1nc(=O)c(S(=O)(=O)c2ccccc2)c[nH]1)Nc1ccccc1C(=O)O

>  <score_type>  (86) 
oracle

>  <origin>  (86) 
adg

>  <m_score__min__energy>  (86) 
-10.81

>  <m_primary>  (86) 
energy

$$$$
86:0
     RDKit          3D

 33 36  0  0  0  0  0  0  0  0999 V2000
   64.6350   33.0190   49.3040 O   0  0  0  0  0  0  0  0  0  0  0  0
   63.5430   33.2530   48.4950 N   0  0  0  0  0  0  0  0  0  0  0  0
   63.7280   33.6080   47.1780 C   0  0  0  0  0  0  0  0  0  0  0  0
   62.6280   33.8400   46.3350 C   0  0  0  0  0  0  0  0  0  0  0  0
   61.3630   33.7000   46.8920 C   0  0  0  0  0  0  0  0  0  0  0  0
   60.1030   33.8320   46.3520 C   0  0  0  0  0  0  0  0  0  0  0  0
   59.6800   34.1730   45.0690 C   0  0  0  0  0  0  0  0  0  0  0  0
   58.2960   34.2440   44.8340 C   0  0  0  0  0  0  0  0  0  0  0  0
   57.3780   33.9830   45.8760 C   0  0  0  0  0  0  0  0  0  0  0  0
   57.8320   33.6430   47.1630 C   0  0  0  0  0  0  0  0  0  0  0  0
   59.2120   33.5610   47.3730 C   0  0  0  0  0  0  0  0  0  0  0  0
   59.8670   33.2690   48.5260 N   0  0  0  0  0  0  0  0  0  0  0  0
   59.2920   32.9350   49.8000 C   0  0  0  0  0  0  0  0  0  0  0  0
   59.4610   33.7910   50.9000 C   0  0  0  0  0  0  0  0  0  0  0  0
   58.9010   33.4650   52.1380 C   0  0  0  0  0  0  0  0  0  0  0  0
   58.1690   32.2840   52.2870 C   0  0  0  0  0  0  0  0  0  0  0  0
   57.9980   31.4260   51.1960 C   0  0  0  0  0  0  0  0  0  0  0  0
   58.5570   31.7500   49.9560 C   0  0  0  0  0  0  0  0  0  0  0  0
   61.1840   33.3580   48.2130 C   0  0  0  0  0  0  0  0  0  0  0  0
   62.2910   33.1180   49.0300 C   0  0  0  0  0  0  0  0  0  0  0  0
   65.5250   32.7190   48.9210 H   0  0  0  0  0  0  0  0  0  0  0  0
   64.7486   33.7113   46.7809 H   0  0  0  0  0  0  0  0  0  0  0  0
   62.7626   34.1203   45.2799 H   0  0  0  0  0  0  0  0  0  0  0  0
   60.4044   34.3796   44.2674 H   0  0  0  0  0  0  0  0  0  0  0  0
   57.9249   34.5046   43.8318 H   0  0  0  0  0  0  0  0  0  0  0  0
   56.2977   34.0464   45.6787 H   0  0  0  0  0  0  0  0  0  0  0  0
   57.1223   33.4473   47.9804 H   0  0  0  0  0  0  0  0  0  0  0  0
   60.0363   34.7217   50.7868 H   0  0  0  0  0  0  0  0  0  0  0  0
   59.0366   34.1391   52.9966 H   0  0  0  0  0  0  0  0  0  0  0  0
   57.7276   32.0294   53.2618 H   0  0  0  0  0  0  0  0  0  0  0  0
   57.4233   30.4955   51.3135 H   0  0  0  0  0  0  0  0  0  0  0  0
   58.4200   31.0734   49.0996 H   0  0  0  0  0  0  0  0  0  0  0  0
   62.1590   32.8263   50.0824 H   0  0  0  0  0  0  0  0  0  0  0  0
  1  2  1  0
  2  3  2  0
  3  4  1  0
  4  5  2  0
  5  6  1  0
  6  7  2  0
  7  8  1  0
  8  9  2  0
  9 10  1  0
 10 11  2  0
 11 12  1  0
 12 13  1  0
 13 14  2  0
 14 15  1  0
 15 16  2  0
 16 17  1  0
 17 18  2  0
 12 19  1  0
 19 20  2  0
 20  2  1  0
 19  5  1  0
 11  6  1  0
 18 13  1  0
  1 21  1  0
  3 22  1  0
  4 23  1  0
  7 24  1  0
  8 25  1  0
  9 26  1  0
 10 27  1  0
 14 28  1  0
 15 29  1  0
 16 30  1  0
 17 31  1  0
 18 32  1  0
 20 33  1  0
M  CHG  1   2   1
M  END
>  <UniqueID>  (87) 
81

>  <SMILES>  (87) 
O[n+]1ccc2c3ccccc3n(-c3ccccc3)c2c1

>  <Energy>  (87) 
86.49809783288154

>  <Genealogy>  (87) 
O[n+]1ccc2c3ccccc3n(-c3ccccc3)c2c1 (protonated)
O[n+]1ccc2c3ccccc3n(-c3ccccc3)c2c1 (3D coordinates assigned)
O[n+]1ccc2c3ccccc3n(-c3ccccc3)c2c1 (optimized conformer: 86.49809783288154 kcal/mol)

>  <smiles>  (87) 
[O-][n+]1ccc2c3ccccc3n(-c3ccccc3)c2c1

>  <score_type>  (87) 
oracle

>  <origin>  (87) 
adg

>  <m_score__min__energy>  (87) 
-5.8300000000000001

>  <m_primary>  (87) 
energy

$$$$
