0:0
     RDKit          3D

 43 45  0  0  0  0  0  0  0  0999 V2000
   59.5240   19.5200   46.3670 H   0  0  0  0  0  0  0  0  0  0  0  0
   58.8930   19.9300   47.0130 O   0  0  0  0  0  0  0  0  0  0  0  0
   57.6790   19.2490   46.8570 C   0  0  0  0  0  0  0  0  0  0  0  0
   57.8805   18.1785   46.7040 H   0  0  0  0  0  0  0  0  0  0  0  0
   57.0695   19.3922   47.7614 H   0  0  0  0  0  0  0  0  0  0  0  0
   56.9110   19.7990   45.6440 C   0  0  0  0  0  0  0  0  0  0  0  0
   56.5360   18.9514   45.0516 H   0  0  0  0  0  0  0  0  0  0  0  0
   56.0905   20.4238   46.0267 H   0  0  0  0  0  0  0  0  0  0  0  0
   57.7480   20.6480   44.7750 N   0  0  0  0  0  0  0  0  0  0  0  0
   58.7610   20.4690   44.9710 H   0  0  0  0  0  0  0  0  0  0  0  0
   57.5770   20.3710   43.7800 H   0  0  0  0  0  0  0  0  0  0  0  0
   57.4330   22.0480   44.9250 C   0  0  0  0  0  0  0  0  0  0  0  0
   57.4170   22.6410   46.1990 C   0  0  0  0  0  0  0  0  0  0  0  0
   57.6325   22.0305   47.0883 H   0  0  0  0  0  0  0  0  0  0  0  0
   57.1290   24.0020   46.3440 C   0  0  0  0  0  0  0  0  0  0  0  0
   57.0998   24.4515   47.3475 H   0  0  0  0  0  0  0  0  0  0  0  0
   56.8780   24.7940   45.2190 C   0  0  0  0  0  0  0  0  0  0  0  0
   56.5390   26.1780   45.3990 N   0  0  0  0  0  0  0  0  0  0  0  0
   57.3410   27.2060   45.3450 C   0  0  0  0  0  0  0  0  0  0  0  0
   58.7430   27.0850   45.4290 C   0  0  0  0  0  0  0  0  0  0  0  0
   59.2091   26.0939   45.5315 H   0  0  0  0  0  0  0  0  0  0  0  0
   59.5350   28.2340   45.3810 C   0  0  0  0  0  0  0  0  0  0  0  0
   60.6300   28.1473   45.4390 H   0  0  0  0  0  0  0  0  0  0  0  0
   58.9590   29.4580   45.2630 N   0  0  0  0  0  0  0  0  0  0  0  0
   57.6080   29.6100   45.1850 C   0  0  0  0  0  0  0  0  0  0  0  0
   57.0270   30.8820   45.0900 O   0  0  0  0  0  0  0  0  0  0  0  0
   57.6350   32.0830   45.4840 C   0  0  0  0  0  0  0  0  0  0  0  0
   57.7780   33.1030   44.5340 C   0  0  0  0  0  0  0  0  0  0  0  0
   57.4083   32.9513   43.5091 H   0  0  0  0  0  0  0  0  0  0  0  0
   58.3880   34.3130   44.8810 C   0  0  0  0  0  0  0  0  0  0  0  0
   58.4890   35.1123   44.1320 H   0  0  0  0  0  0  0  0  0  0  0  0
   58.8690   34.5070   46.1780 C   0  0  0  0  0  0  0  0  0  0  0  0
   59.3416   35.4617   46.4521 H   0  0  0  0  0  0  0  0  0  0  0  0
   58.7500   33.4890   47.1270 C   0  0  0  0  0  0  0  0  0  0  0  0
   59.1366   33.6400   48.1457 H   0  0  0  0  0  0  0  0  0  0  0  0
   58.1400   32.2780   46.7840 C   0  0  0  0  0  0  0  0  0  0  0  0
   58.0545   31.4758   47.5317 H   0  0  0  0  0  0  0  0  0  0  0  0
   56.7800   28.4860   45.2420 C   0  0  0  0  0  0  0  0  0  0  0  0
   55.6871   28.6059   45.2060 H   0  0  0  0  0  0  0  0  0  0  0  0
   56.8530   24.1990   43.9470 C   0  0  0  0  0  0  0  0  0  0  0  0
   56.6073   24.8058   43.0630 H   0  0  0  0  0  0  0  0  0  0  0  0
   57.1390   22.8390   43.8000 C   0  0  0  0  0  0  0  0  0  0  0  0
   57.1341   22.3845   42.7983 H   0  0  0  0  0  0  0  0  0  0  0  0
  1  2  1  0
  2  3  1  0
  3  4  1  0
  3  5  1  0
  3  6  1  0
  6  7  1  0
  6  8  1  0
  6  9  1  0
  9 10  1  0
  9 11  1  0
  9 12  1  0
 12 13  2  0
 13 14  1  0
 13 15  1  0
 15 16  1  0
 15 17  2  0
 17 18  1  0
 18 19  2  0
 19 20  1  0
 20 21  1  0
 20 22  2  0
 22 23  1  0
 22 24  1  0
 24 25  1  0
 25 26  1  0
 26 27  1  0
 27 28  2  0
 28 29  1  0
 28 30  1  0
 30 31  1  0
 30 32  2  0
 32 33  1  0
 32 34  1  0
 34 35  1  0
 34 36  2  0
 36 37  1  0
 25 38  2  0
 38 39  1  0
 17 40  1  0
 40 41  1  0
 40 42  2  0
 42 43  1  0
 42 12  1  0
 38 19  1  0
 36 27  1  0
M  CHG  2   9   1  24  -1
M  END
>  <UniqueID>  (1) 
1

>  <SMILES>  (1) 
OCC[NH2+]c1ccc(/N=c2\cc[n-]c(Oc3ccccc3)c2)cc1

>  <Energy>  (1) 
60.27398107606968

>  <Genealogy>  (1) 
OCC[NH2+]c1ccc(N=c2cc[n-]c(Oc3ccccc3)c2)cc1 (protonated)
OCC[NH2+]c1ccc(/N=c2\cc[n-]c(Oc3ccccc3)c2)cc1 (cis-trans isomerization)
OCC[NH2+]c1ccc(/N=c2\cc[n-]c(Oc3ccccc3)c2)cc1 (3D coordinates assigned)
OCC[NH2+]c1ccc(/N=c2\cc[n-]c(Oc3ccccc3)c2)cc1 (optimized conformer: 60.27398107606968 kcal/mol)

>  <smiles>  (1) 
OCCNc1ccc(N=c2cc[nH]c(Oc3ccccc3)c2)cc1

>  <score_type>  (1) 
oracle

>  <origin>  (1) 
adg

>  <m_score__min__energy>  (1) 
-8.0299999999999994

>  <m_primary>  (1) 
energy

$$$$
1:0
     RDKit          3D

 44 48  0  0  0  0  0  0  0  0999 V2000
   54.3780   27.0910   46.3620 H   0  0  0  0  0  0  0  0  0  0  0  0
   55.1460   26.6810   45.8460 O   0  0  0  0  0  0  0  0  0  0  0  0
   56.0440   25.7940   46.4350 C   0  0  0  0  0  0  0  0  0  0  0  0
   55.6550   24.7090   47.1260 N   0  0  0  0  0  0  0  0  0  0  0  0
   56.8240   24.1530   47.5040 C   0  0  0  0  0  0  0  0  0  0  0  0
   56.9050   22.7840   48.3890 S   0  0  0  0  0  0  0  0  0  0  0  0
   57.9200   24.8240   47.0950 N   0  0  0  0  0  0  0  0  0  0  0  0
   57.4230   25.8690   46.4080 C   0  0  0  0  0  0  0  0  0  0  0  0
   58.2300   26.9340   45.7730 C   0  0  0  0  0  0  0  0  0  0  0  0
   59.2381   26.6653   45.4245 H   0  0  0  0  0  0  0  0  0  0  0  0
   57.8300   28.2030   45.5880 C   0  0  0  0  0  0  0  0  0  0  0  0
   56.7510   28.7110   44.8670 C   0  0  0  0  0  0  0  0  0  0  0  0
   56.0284   28.1077   44.2979 H   0  0  0  0  0  0  0  0  0  0  0  0
   56.7280   30.0600   44.9740 N   0  0  0  0  0  0  0  0  0  0  0  0
   57.7470   30.4280   45.7320 N   0  0  0  0  0  0  0  0  0  0  0  0
   58.1480   31.6760   46.1380 C   0  0  0  0  0  0  0  0  0  0  0  0
   57.5690   32.8110   45.8240 N   0  0  0  0  0  0  0  0  0  0  0  0
   57.8530   34.2400   45.5870 C   0  0  0  0  0  0  0  0  0  0  0  0
   56.7973   34.4725   45.3832 H   0  0  0  0  0  0  0  0  0  0  0  0
   58.9400   34.8870   46.4160 C   0  0  0  0  0  0  0  0  0  0  0  0
   58.8254   35.9246   46.7628 H   0  0  0  0  0  0  0  0  0  0  0  0
   59.4649   34.6354   47.3494 H   0  0  0  0  0  0  0  0  0  0  0  0
   59.1650   34.5930   44.9220 C   0  0  0  0  0  0  0  0  0  0  0  0
   59.2116   35.4198   44.1980 H   0  0  0  0  0  0  0  0  0  0  0  0
   59.9182   34.0429   44.3388 H   0  0  0  0  0  0  0  0  0  0  0  0
   59.2490   31.7460   46.9390 N   0  0  0  0  0  0  0  0  0  0  0  0
   59.9260   30.6270   47.3260 C   0  0  0  0  0  0  0  0  0  0  0  0
   61.0500   30.7570   48.1460 O   0  0  0  0  0  0  0  0  0  0  0  0
   61.8700   31.8900   48.1380 C   0  0  0  0  0  0  0  0  0  0  0  0
   62.9760   31.9130   47.2800 C   0  0  0  0  0  0  0  0  0  0  0  0
   63.1744   31.0544   46.6217 H   0  0  0  0  0  0  0  0  0  0  0  0
   63.8290   33.0180   47.2540 C   0  0  0  0  0  0  0  0  0  0  0  0
   64.6989   33.0255   46.5808 H   0  0  0  0  0  0  0  0  0  0  0  0
   63.5780   34.1130   48.0820 C   0  0  0  0  0  0  0  0  0  0  0  0
   64.2572   34.9781   48.0686 H   0  0  0  0  0  0  0  0  0  0  0  0
   62.4660   34.1130   48.9280 C   0  0  0  0  0  0  0  0  0  0  0  0
   62.2723   34.9804   49.5761 H   0  0  0  0  0  0  0  0  0  0  0  0
   61.5930   33.0110   48.9560 C   0  0  0  0  0  0  0  0  0  0  0  0
   60.3770   33.0480   49.8450 C   0  0  0  0  0  0  0  0  0  0  0  0
   59.7835   32.1353   49.6876 H   0  0  0  0  0  0  0  0  0  0  0  0
   60.7005   33.1082   50.8946 H   0  0  0  0  0  0  0  0  0  0  0  0
   59.6020   34.1550   49.5460 F   0  0  0  0  0  0  0  0  0  0  0  0
   59.5120   29.4010   46.9050 N   0  0  0  0  0  0  0  0  0  0  0  0
   58.4190   29.3310   46.1110 C   0  0  0  0  0  0  0  0  0  0  0  0
  1  2  1  0
  2  3  1  0
  3  4  1  0
  4  5  1  0
  5  6  2  0
  5  7  1  0
  7  8  1  0
  8  9  1  0
  9 10  1  0
  9 11  2  3
 11 12  1  0
 12 13  1  0
 12 14  2  0
 14 15  1  0
 15 16  1  0
 16 17  2  0
 17 18  1  0
 18 19  1  0
 18 20  1  0
 20 21  1  0
 20 22  1  0
 20 23  1  0
 23 24  1  0
 23 25  1  0
 16 26  1  0
 26 27  2  0
 27 28  1  0
 28 29  1  0
 29 30  2  0
 30 31  1  0
 30 32  1  0
 32 33  1  0
 32 34  2  0
 34 35  1  0
 34 36  1  0
 36 37  1  0
 36 38  2  0
 38 39  1  0
 39 40  1  0
 39 41  1  0
 39 42  1  0
 27 43  1  0
 43 44  2  0
  8  3  2  0
 44 11  1  0
 44 15  1  0
 23 18  1  0
 38 29  1  0
M  CHG  2   4  -1   7  -1
M  END
>  <UniqueID>  (2) 
2

>  <SMILES>  (2) 
Oc1[n-]c(=S)[n-]c1C=c1cnn2/c(=N\C3CC3)nc(Oc3ccccc3CF)nc12

>  <Energy>  (2) 
417.1300619589096

>  <Genealogy>  (2) 
Oc1[n-]c(=S)[n-]c1C=c1cnn2c(=NC3CC3)nc(Oc3ccccc3CF)nc12 (protonated)
Oc1[n-]c(=S)[n-]c1C=c1cnn2/c(=N\C3CC3)nc(Oc3ccccc3CF)nc12 (cis-trans isomerization)
Oc1[n-]c(=S)[n-]c1C=c1cnn2/c(=N\C3CC3)nc(Oc3ccccc3CF)nc12 (3D coordinates assigned)
Oc1[n-]c(=S)[n-]c1C=c1cnn2/c(=N\C3CC3)nc(Oc3ccccc3CF)nc12 (nonaromatic ring conformer: 417.1300619589096 kcal/mol)

>  <smiles>  (2) 
Oc1[nH]c(=S)[nH]c1C=c1cnn2c(=NC3CC3)nc(Oc3ccccc3CF)nc12

>  <score_type>  (2) 
oracle

>  <origin>  (2) 
adg

>  <m_score__min__energy>  (2) 
-13.08

>  <m_primary>  (2) 
energy

$$$$
2:0
     RDKit          3D

 37 39  0  0  0  0  0  0  0  0999 V2000
   60.9450   29.3840   48.9160 N   0  0  0  0  0  0  0  0  0  0  0  0
   60.2320   29.8040   47.7720 N   0  0  0  0  0  0  0  0  0  0  0  0
   60.7400   30.7810   46.9490 C   0  0  0  0  0  0  0  0  0  0  0  0
   62.3470   31.5410   47.2470 S   0  0  0  0  0  0  0  0  0  0  0  0
   62.0210   31.9180   49.0050 C   0  0  0  0  0  0  0  0  0  0  0  0
   60.6650   32.5230   49.1770 C   0  0  0  0  0  0  0  0  0  0  0  0
   59.8220   31.9620   49.9260 O   0  0  0  0  0  0  0  0  0  0  0  0
   60.3780   33.7900   48.5720 N   0  0  0  0  0  0  0  0  0  0  0  0
   59.5300   33.9990   47.4360 C   0  0  0  0  0  0  0  0  0  0  0  0
   60.0440   34.7130   46.3440 C   0  0  0  0  0  0  0  0  0  0  0  0
   59.2560   34.9440   45.2150 C   0  0  0  0  0  0  0  0  0  0  0  0
   57.9530   34.4460   45.1580 C   0  0  0  0  0  0  0  0  0  0  0  0
   57.4420   33.7020   46.2250 C   0  0  0  0  0  0  0  0  0  0  0  0
   58.2290   33.4600   47.3600 C   0  0  0  0  0  0  0  0  0  0  0  0
   57.7330   32.6610   48.3890 O   0  0  0  0  0  0  0  0  0  0  0  0
   60.0410   31.1930   45.8630 N   0  0  0  0  0  0  0  0  0  0  0  0
   58.8390   30.6540   45.5450 C   0  0  0  0  0  0  0  0  0  0  0  0
   58.1500   31.0990   44.4110 C   0  0  0  0  0  0  0  0  0  0  0  0
   56.9140   30.5370   44.0790 C   0  0  0  0  0  0  0  0  0  0  0  0
   56.3640   29.5290   44.8770 C   0  0  0  0  0  0  0  0  0  0  0  0
   55.1350   28.9730   44.5420 O   0  0  0  0  0  0  0  0  0  0  0  0
   57.0480   29.0800   46.0130 C   0  0  0  0  0  0  0  0  0  0  0  0
   58.2930   29.6410   46.3540 C   0  0  0  0  0  0  0  0  0  0  0  0
   59.0200   29.2300   47.4840 C   0  0  0  0  0  0  0  0  0  0  0  0
   58.5520   28.3300   48.2360 O   0  0  0  0  0  0  0  0  0  0  0  0
   60.9580   29.9550   49.7900 H   0  0  0  0  0  0  0  0  0  0  0  0
   61.4950   28.4980   48.9350 H   0  0  0  0  0  0  0  0  0  0  0  0
   62.0774   30.9878   49.5895 H   0  0  0  0  0  0  0  0  0  0  0  0
   62.7748   32.6380   49.3562 H   0  0  0  0  0  0  0  0  0  0  0  0
   61.0755   35.0938   46.3772 H   0  0  0  0  0  0  0  0  0  0  0  0
   59.6621   35.5189   44.3696 H   0  0  0  0  0  0  0  0  0  0  0  0
   57.3286   34.6392   44.2733 H   0  0  0  0  0  0  0  0  0  0  0  0
   56.4176   33.3044   46.1742 H   0  0  0  0  0  0  0  0  0  0  0  0
   58.3080   32.3960   49.1810 H   0  0  0  0  0  0  0  0  0  0  0  0
   58.5811   31.8910   43.7810 H   0  0  0  0  0  0  0  0  0  0  0  0
   56.3728   30.8884   43.1881 H   0  0  0  0  0  0  0  0  0  0  0  0
   56.6120   28.2880   46.6397 H   0  0  0  0  0  0  0  0  0  0  0  0
  1  2  1  0
  2  3  1  0
  3  4  1  0
  4  5  1  0
  5  6  1  0
  6  7  2  0
  6  8  1  0
  8  9  1  0
  9 10  2  0
 10 11  1  0
 11 12  2  0
 12 13  1  0
 13 14  2  0
 14 15  1  0
  3 16  2  0
 16 17  1  0
 17 18  2  0
 18 19  1  0
 19 20  2  0
 20 21  1  0
 20 22  1  0
 22 23  2  0
 23 24  1  0
 24 25  2  0
 24  2  1  0
 14  9  1  0
 23 17  1  0
  1 26  1  0
  1 27  1  0
  5 28  1  0
  5 29  1  0
 10 30  1  0
 11 31  1  0
 12 32  1  0
 13 33  1  0
 15 34  1  0
 18 35  1  0
 19 36  1  0
 22 37  1  0
M  CHG  2   8  -1  21  -1
M  END
>  <UniqueID>  (3) 
3

>  <SMILES>  (3) 
Nn1c(SCC(=O)[N-]c2ccccc2O)nc2ccc([O-])cc2c1=O

>  <Energy>  (3) 
45.7200038353497

>  <Genealogy>  (3) 
Nn1c(SCC(=O)[N-]c2ccccc2O)nc2ccc([O-])cc2c1=O (protonated)
Nn1c(SCC(=O)[N-]c2ccccc2O)nc2ccc([O-])cc2c1=O (3D coordinates assigned)
Nn1c(SCC(=O)[N-]c2ccccc2O)nc2ccc([O-])cc2c1=O (optimized conformer: 45.7200038353497 kcal/mol)

>  <smiles>  (3) 
Nn1c(SCC(=O)Nc2ccccc2O)nc2ccc(O)cc2c1=O

>  <score_type>  (3) 
oracle

>  <origin>  (3) 
adg

>  <m_score__min__energy>  (3) 
-11.130000000000001

>  <m_primary>  (3) 
energy

$$$$
3:0
     RDKit          3D

 59 62  0  0  0  0  0  0  0  0999 V2000
   51.1860   30.2820   52.3460 C   0  0  0  0  0  0  0  0  0  0  0  0
   51.7590   31.2700   50.9760 S   0  0  0  0  0  0  0  0  0  0  0  0
   51.4830   32.7230   51.2320 O   0  0  0  0  0  0  0  0  0  0  0  0
   51.0290   30.8460   49.7360 O   0  0  0  0  0  0  0  0  0  0  0  0
   53.4580   31.0230   50.7320 N   0  0  0  0  0  0  0  0  0  0  0  0
   54.3860   30.5890   51.7370 C   0  0  0  0  0  0  0  0  0  0  0  0
   54.2610   29.3500   52.3900 C   0  0  0  0  0  0  0  0  0  0  0  0
   55.1930   28.9700   53.3590 C   0  0  0  0  0  0  0  0  0  0  0  0
   56.2630   29.8100   53.6720 C   0  0  0  0  0  0  0  0  0  0  0  0
   56.4100   31.0370   53.0190 C   0  0  0  0  0  0  0  0  0  0  0  0
   57.4960   31.8540   53.3570 O   0  0  0  0  0  0  0  0  0  0  0  0
   58.6240   32.0680   52.5540 C   0  0  0  0  0  0  0  0  0  0  0  0
   58.6270   33.0180   51.5750 N   0  0  0  0  0  0  0  0  0  0  0  0
   59.7130   33.1950   50.7680 C   0  0  0  0  0  0  0  0  0  0  0  0
   59.7100   34.0630   49.7990 N   0  0  0  0  0  0  0  0  0  0  0  0
   59.3180   33.8520   48.4350 C   0  0  0  0  0  0  0  0  0  0  0  0
   59.9930   34.5510   47.4280 C   0  0  0  0  0  0  0  0  0  0  0  0
   59.5840   34.4510   46.0960 C   0  0  0  0  0  0  0  0  0  0  0  0
   58.4770   33.6580   45.7550 C   0  0  0  0  0  0  0  0  0  0  0  0
   58.0240   33.5740   44.3210 C   0  0  0  0  0  0  0  0  0  0  0  0
   57.8150   32.1200   43.8900 C   0  0  0  0  0  0  0  0  0  0  0  0
   56.6140   31.5490   44.5060 N   0  0  0  0  0  0  0  0  0  0  0  0
   56.5080   29.8270   44.2720 S   0  0  0  0  0  0  0  0  0  0  0  0
   55.1870   29.3480   44.8070 O   0  0  0  0  0  0  0  0  0  0  0  0
   56.5760   29.5170   42.8040 O   0  0  0  0  0  0  0  0  0  0  0  0
   57.8000   29.0220   45.1800 C   0  0  0  0  0  0  0  0  0  0  0  0
   58.1230   29.5220   46.4490 C   0  0  0  0  0  0  0  0  0  0  0  0
   59.1480   28.9480   47.2060 C   0  0  0  0  0  0  0  0  0  0  0  0
   59.8590   27.8530   46.7070 C   0  0  0  0  0  0  0  0  0  0  0  0
   60.8560   27.2940   47.4400 F   0  0  0  0  0  0  0  0  0  0  0  0
   59.5360   27.3300   45.4560 C   0  0  0  0  0  0  0  0  0  0  0  0
   58.5050   27.8940   44.6890 C   0  0  0  0  0  0  0  0  0  0  0  0
   58.1330   27.1280   43.1500 Cl  0  0  0  0  0  0  0  0  0  0  0  0
   57.7950   32.9580   46.7620 C   0  0  0  0  0  0  0  0  0  0  0  0
   58.2020   33.0690   48.0950 C   0  0  0  0  0  0  0  0  0  0  0  0
   60.8070   32.4060   50.9350 N   0  0  0  0  0  0  0  0  0  0  0  0
   60.8480   31.4520   51.9000 C   0  0  0  0  0  0  0  0  0  0  0  0
   59.7470   31.2570   52.7290 C   0  0  0  0  0  0  0  0  0  0  0  0
   59.7720   30.2730   53.7100 O   0  0  0  0  0  0  0  0  0  0  0  0
   55.4470   31.4380   52.0780 C   0  0  0  0  0  0  0  0  0  0  0  0
   51.4678   30.7680   53.2917 H   0  0  0  0  0  0  0  0  0  0  0  0
   50.0915   30.1849   52.2956 H   0  0  0  0  0  0  0  0  0  0  0  0
   51.6453   29.2838   52.2956 H   0  0  0  0  0  0  0  0  0  0  0  0
   53.4274   28.6783   52.1373 H   0  0  0  0  0  0  0  0  0  0  0  0
   55.0832   28.0058   53.8769 H   0  0  0  0  0  0  0  0  0  0  0  0
   56.9935   29.5050   54.4357 H   0  0  0  0  0  0  0  0  0  0  0  0
   60.8536   35.1850   47.6877 H   0  0  0  0  0  0  0  0  0  0  0  0
   60.1310   34.9953   45.3121 H   0  0  0  0  0  0  0  0  0  0  0  0
   57.0755   34.1203   44.2119 H   0  0  0  0  0  0  0  0  0  0  0  0
   58.8030   34.0175   43.6834 H   0  0  0  0  0  0  0  0  0  0  0  0
   57.7088   32.0824   42.7958 H   0  0  0  0  0  0  0  0  0  0  0  0
   58.6856   31.5325   44.2171 H   0  0  0  0  0  0  0  0  0  0  0  0
   57.5624   30.3773   46.8543 H   0  0  0  0  0  0  0  0  0  0  0  0
   59.3956   29.3586   48.1960 H   0  0  0  0  0  0  0  0  0  0  0  0
   60.0948   26.4665   45.0660 H   0  0  0  0  0  0  0  0  0  0  0  0
   56.9375   32.3200   46.5018 H   0  0  0  0  0  0  0  0  0  0  0  0
   57.6451   32.5401   48.8824 H   0  0  0  0  0  0  0  0  0  0  0  0
   61.7494   30.8344   52.0265 H   0  0  0  0  0  0  0  0  0  0  0  0
   55.5268   32.4277   51.6046 H   0  0  0  0  0  0  0  0  0  0  0  0
  1  2  1  0
  2  3  2  0
  2  4  2  0
  2  5  1  0
  5  6  1  0
  6  7  2  0
  7  8  1  0
  8  9  2  0
  9 10  1  0
 10 11  1  0
 11 12  1  0
 12 13  2  0
 13 14  1  0
 14 15  2  3
 15 16  1  0
 16 17  2  0
 17 18  1  0
 18 19  2  0
 19 20  1  0
 20 21  1  0
 21 22  1  0
 22 23  1  0
 23 24  2  0
 23 25  2  0
 23 26  1  0
 26 27  2  0
 27 28  1  0
 28 29  2  0
 29 30  1  0
 29 31  1  0
 31 32  2  0
 32 33  1  0
 19 34  1  0
 34 35  2  0
 14 36  1  0
 36 37  1  0
 37 38  2  0
 38 39  1  0
 10 40  2  0
 40  6  1  0
 38 12  1  0
 35 16  1  0
 32 26  1  0
  1 41  1  0
  1 42  1  0
  1 43  1  0
  7 44  1  0
  8 45  1  0
  9 46  1  0
 17 47  1  0
 18 48  1  0
 20 49  1  0
 20 50  1  0
 21 51  1  0
 21 52  1  0
 27 53  1  0
 28 54  1  0
 31 55  1  0
 34 56  1  0
 35 57  1  0
 37 58  1  0
 40 59  1  0
M  CHG  4   5  -1  22  -1  36  -1  39  -1
M  END
>  <UniqueID>  (4) 
4

>  <SMILES>  (4) 
CS(=O)(=O)[N-]c1cccc(Oc2nc(=Nc3ccc(CC[N-]S(=O)(=O)c4ccc(F)cc4Cl)cc3)[n-]cc2[O-])c1

>  <Energy>  (4) 
71.95162479135696

>  <Genealogy>  (4) 
CS(=O)(=O)[N-]c1cccc(Oc2nc(=Nc3ccc(CC[N-]S(=O)(=O)c4ccc(F)cc4Cl)cc3)[n-]cc2[O-])c1 (protonated)
CS(=O)(=O)[N-]c1cccc(Oc2nc(=Nc3ccc(CC[N-]S(=O)(=O)c4ccc(F)cc4Cl)cc3)[n-]cc2[O-])c1 (3D coordinates assigned)
CS(=O)(=O)[N-]c1cccc(Oc2nc(=Nc3ccc(CC[N-]S(=O)(=O)c4ccc(F)cc4Cl)cc3)[n-]cc2[O-])c1 (optimized conformer: 71.95162479135696 kcal/mol)

>  <smiles>  (4) 
CS(=O)(=O)Nc1cccc(Oc2nc(=Nc3ccc(CCNS(=O)(=O)c4ccc(F)cc4Cl)cc3)[nH]cc2O)c1

>  <score_type>  (4) 
oracle

>  <origin>  (4) 
adg

>  <m_score__min__energy>  (4) 
-16.760000000000002

>  <m_primary>  (4) 
energy

$$$$
4:0
     RDKit          3D

 37 38  0  0  0  0  0  0  0  0999 V2000
   58.2630   22.9460   45.6140 C   0  0  0  0  0  0  0  0  0  0  0  0
   56.9100   23.1730   46.0980 N   0  0  0  0  0  0  0  0  0  0  0  0
   56.5340   24.3400   46.8380 C   0  0  0  0  0  0  0  0  0  0  0  0
   55.7820   24.2170   47.8430 O   0  0  0  0  0  0  0  0  0  0  0  0
   57.0330   25.6860   46.4480 C   0  0  0  0  0  0  0  0  0  0  0  0
   58.4140   25.9540   46.5180 C   0  0  0  0  0  0  0  0  0  0  0  0
   58.9160   27.2070   46.1680 C   0  0  0  0  0  0  0  0  0  0  0  0
   58.0530   28.2100   45.7300 C   0  0  0  0  0  0  0  0  0  0  0  0
   56.6820   27.9670   45.6240 C   0  0  0  0  0  0  0  0  0  0  0  0
   55.8330   29.0300   45.1680 N   0  0  0  0  0  0  0  0  0  0  0  0
   56.0850   29.8530   44.0240 C   0  0  0  0  0  0  0  0  0  0  0  0
   55.9140   29.4020   42.8590 O   0  0  0  0  0  0  0  0  0  0  0  0
   56.6500   31.2260   44.2130 C   0  0  0  0  0  0  0  0  0  0  0  0
   58.1500   31.1860   44.5240 C   0  0  0  0  0  0  0  0  0  0  0  0
   58.4440   31.8310   45.8100 N   0  0  0  0  0  0  0  0  0  0  0  0
   58.7380   31.1500   46.9370 C   0  0  0  0  0  0  0  0  0  0  0  0
   58.8850   32.0190   47.9960 C   0  0  0  0  0  0  0  0  0  0  0  0
   58.6630   33.2860   47.5010 C   0  0  0  0  0  0  0  0  0  0  0  0
   58.3910   33.1460   46.1510 C   0  0  0  0  0  0  0  0  0  0  0  0
   58.0830   34.2890   45.2640 C   0  0  0  0  0  0  0  0  0  0  0  0
   56.9120   34.5190   44.8690 O   0  0  0  0  0  0  0  0  0  0  0  0
   59.1100   35.1260   44.8420 O   0  0  0  0  0  0  0  0  0  0  0  0
   56.1610   26.7160   46.0190 C   0  0  0  0  0  0  0  0  0  0  0  0
   54.7830   26.5200   46.0250 O   0  0  0  0  0  0  0  0  0  0  0  0
   58.9443   22.8317   46.4700 H   0  0  0  0  0  0  0  0  0  0  0  0
   58.2853   22.0316   45.0030 H   0  0  0  0  0  0  0  0  0  0  0  0
   58.5825   23.8031   45.0030 H   0  0  0  0  0  0  0  0  0  0  0  0
   59.1045   25.1658   46.8526 H   0  0  0  0  0  0  0  0  0  0  0  0
   59.9959   27.4043   46.2378 H   0  0  0  0  0  0  0  0  0  0  0  0
   58.4545   29.1995   45.4661 H   0  0  0  0  0  0  0  0  0  0  0  0
   56.4927   31.8058   43.2915 H   0  0  0  0  0  0  0  0  0  0  0  0
   56.1361   31.6928   45.0662 H   0  0  0  0  0  0  0  0  0  0  0  0
   58.4799   30.1374   44.5650 H   0  0  0  0  0  0  0  0  0  0  0  0
   58.6843   31.7305   43.7315 H   0  0  0  0  0  0  0  0  0  0  0  0
   58.8450   30.0571   47.0012 H   0  0  0  0  0  0  0  0  0  0  0  0
   59.1316   31.7533   49.0346 H   0  0  0  0  0  0  0  0  0  0  0  0
   58.6957   34.2272   48.0693 H   0  0  0  0  0  0  0  0  0  0  0  0
  1  2  1  0
  2  3  1  0
  3  4  2  0
  3  5  1  0
  5  6  2  0
  6  7  1  0
  7  8  2  0
  8  9  1  0
  9 10  1  0
 10 11  1  0
 11 12  2  0
 11 13  1  0
 13 14  1  0
 14 15  1  0
 15 16  1  0
 16 17  2  0
 17 18  1  0
 18 19  2  0
 19 20  1  0
 20 21  2  0
 20 22  1  0
  9 23  2  0
 23 24  1  0
 23  5  1  0
 19 15  1  0
  1 25  1  0
  1 26  1  0
  1 27  1  0
  6 28  1  0
  7 29  1  0
  8 30  1  0
 13 31  1  0
 13 32  1  0
 14 33  1  0
 14 34  1  0
 16 35  1  0
 17 36  1  0
 18 37  1  0
M  CHG  4   2  -1  10  -1  22  -1  24  -1
M  END
>  <UniqueID>  (5) 
5

>  <SMILES>  (5) 
C[N-]C(=O)c1cccc([N-]C(=O)CCn2cccc2C(=O)[O-])c1[O-]

>  <Energy>  (5) 
66.56377364501778

>  <Genealogy>  (5) 
C[N-]C(=O)c1cccc([N-]C(=O)CCn2cccc2C(=O)[O-])c1[O-] (protonated)
C[N-]C(=O)c1cccc([N-]C(=O)CCn2cccc2C(=O)[O-])c1[O-] (3D coordinates assigned)
C[N-]C(=O)c1cccc([N-]C(=O)CCn2cccc2C(=O)[O-])c1[O-] (optimized conformer: 66.56377364501778 kcal/mol)

>  <smiles>  (5) 
CNC(=O)c1cccc(NC(=O)CCn2cccc2C(=O)O)c1O

>  <score_type>  (5) 
oracle

>  <origin>  (5) 
adg

>  <m_score__min__energy>  (5) 
-15.699999999999999

>  <m_primary>  (5) 
energy

$$$$
5:0
     RDKit          3D

 58 61  0  0  0  0  0  0  0  0999 V2000
   58.0600   31.1670   44.6970 C   0  0  0  0  0  0  0  0  0  0  0  0
   58.3380   30.1120   45.4670 C   0  0  0  0  0  0  0  0  0  0  0  0
   57.9700   28.8570   45.1510 N   0  0  0  0  0  0  0  0  0  0  0  0
   58.3840   28.0490   46.1470 C   0  0  0  0  0  0  0  0  0  0  0  0
   58.1280   26.7270   46.1320 C   0  0  0  0  0  0  0  0  0  0  0  0
   56.7850   26.1380   46.0650 C   0  0  0  0  0  0  0  0  0  0  0  0
   55.6210   26.7530   45.6320 C   0  0  0  0  0  0  0  0  0  0  0  0
   55.5260   28.0850   45.2500 O   0  0  0  0  0  0  0  0  0  0  0  0
   54.5680   25.9030   45.6180 N   0  0  0  0  0  0  0  0  0  0  0  0
   55.0890   24.7320   46.0350 C   0  0  0  0  0  0  0  0  0  0  0  0
   54.4070   23.5280   46.1860 C   0  0  0  0  0  0  0  0  0  0  0  0
   55.1340   22.4070   46.6250 C   0  0  0  0  0  0  0  0  0  0  0  0
   56.5250   22.5010   46.9040 C   0  0  0  0  0  0  0  0  0  0  0  0
   57.2530   21.3440   47.3530 N   0  0  0  0  0  0  0  0  0  0  0  0
   57.3150   21.0610   48.5670 O   0  0  0  0  0  0  0  0  0  0  0  0
   57.8860   20.5210   46.4490 O   0  0  0  0  0  0  0  0  0  0  0  0
   57.1820   23.7430   46.7380 C   0  0  0  0  0  0  0  0  0  0  0  0
   56.4300   24.8330   46.3040 C   0  0  0  0  0  0  0  0  0  0  0  0
   59.0490   28.8030   47.1240 C   0  0  0  0  0  0  0  0  0  0  0  0
   59.6890   28.2980   48.3880 C   0  0  0  0  0  0  0  0  0  0  0  0
   59.0150   30.1290   46.6810 C   0  0  0  0  0  0  0  0  0  0  0  0
   59.5050   31.3570   47.4140 C   0  0  0  0  0  0  0  0  0  0  0  0
   60.9720   31.6750   47.0910 C   0  0  0  0  0  0  0  0  0  0  0  0
   61.2320   33.1610   46.9940 C   0  0  0  0  0  0  0  0  0  0  0  0
   60.4510   33.8580   46.3570 O   0  0  0  0  0  0  0  0  0  0  0  0
   62.3720   33.7680   47.6610 N   0  0  0  0  0  0  0  0  0  0  0  0
   62.0690   33.9730   49.0990 C   0  0  0  0  0  0  0  0  0  0  0  0
   63.3560   34.0600   49.9280 C   0  0  0  0  0  0  0  0  0  0  0  0
   64.1100   32.7880   49.8780 N   0  0  0  0  0  0  0  0  0  0  0  0
   65.5290   33.0180   50.1880 C   0  0  0  0  0  0  0  0  0  0  0  0
   63.9480   32.0460   48.6010 C   0  0  0  0  0  0  0  0  0  0  0  0
   63.6100   32.9770   47.4210 C   0  0  0  0  0  0  0  0  0  0  0  0
   58.3849   32.1723   45.0033 H   0  0  0  0  0  0  0  0  0  0  0  0
   57.5061   31.0307   43.7565 H   0  0  0  0  0  0  0  0  0  0  0  0
   57.4420   28.5660   44.2960 H   0  0  0  0  0  0  0  0  0  0  0  0
   58.9860   26.0398   46.1728 H   0  0  0  0  0  0  0  0  0  0  0  0
   53.3312   23.4555   45.9684 H   0  0  0  0  0  0  0  0  0  0  0  0
   54.6191   21.4436   46.7544 H   0  0  0  0  0  0  0  0  0  0  0  0
   58.2573   23.8455   46.9459 H   0  0  0  0  0  0  0  0  0  0  0  0
   59.1608   28.7148   49.2583 H   0  0  0  0  0  0  0  0  0  0  0  0
   59.6308   27.1999   48.4151 H   0  0  0  0  0  0  0  0  0  0  0  0
   60.7435   28.6100   48.4151 H   0  0  0  0  0  0  0  0  0  0  0  0
   58.8832   32.2161   47.1221 H   0  0  0  0  0  0  0  0  0  0  0  0
   59.4308   31.1594   48.4936 H   0  0  0  0  0  0  0  0  0  0  0  0
   61.6073   31.2564   47.8854 H   0  0  0  0  0  0  0  0  0  0  0  0
   61.2040   31.2295   46.1124 H   0  0  0  0  0  0  0  0  0  0  0  0
   62.5350   34.7160   47.2470 H   0  0  0  0  0  0  0  0  0  0  0  0
   61.5020   34.9082   49.2168 H   0  0  0  0  0  0  0  0  0  0  0  0
   61.4802   33.1158   49.4574 H   0  0  0  0  0  0  0  0  0  0  0  0
   63.9869   34.8674   49.5279 H   0  0  0  0  0  0  0  0  0  0  0  0
   63.0840   34.2635   50.9742 H   0  0  0  0  0  0  0  0  0  0  0  0
   65.6670   33.0404   51.2791 H   0  0  0  0  0  0  0  0  0  0  0  0
   66.1344   32.2063   49.7584 H   0  0  0  0  0  0  0  0  0  0  0  0
   65.8470   33.9794   49.7584 H   0  0  0  0  0  0  0  0  0  0  0  0
   64.8869   31.5183   48.3772 H   0  0  0  0  0  0  0  0  0  0  0  0
   63.1109   31.3431   48.7248 H   0  0  0  0  0  0  0  0  0  0  0  0
   64.4490   33.6715   47.2670 H   0  0  0  0  0  0  0  0  0  0  0  0
   63.4405   32.3481   46.5345 H   0  0  0  0  0  0  0  0  0  0  0  0
  1  2  2  0
  2  3  1  0
  3  4  1  0
  4  5  2  3
  5  6  1  0
  6  7  2  0
  7  8  1  0
  7  9  1  0
  9 10  1  0
 10 11  2  0
 11 12  1  0
 12 13  2  0
 13 14  1  0
 14 15  2  0
 14 16  1  0
 13 17  1  0
 17 18  2  0
  4 19  1  0
 19 20  1  0
 19 21  2  0
 21 22  1  0
 22 23  1  0
 23 24  1  0
 24 25  2  0
 24 26  1  0
 26 27  1  0
 27 28  1  0
 28 29  1  0
 29 30  1  0
 29 31  1  0
 31 32  1  0
 21  2  1  0
 32 26  1  0
 18  6  1  0
 18 10  1  0
  1 33  1  0
  1 34  1  0
  3 35  1  0
  5 36  1  0
 11 37  1  0
 12 38  1  0
 17 39  1  0
 20 40  1  0
 20 41  1  0
 20 42  1  0
 22 43  1  0
 22 44  1  0
 23 45  1  0
 23 46  1  0
 26 47  1  0
 27 48  1  0
 27 49  1  0
 28 50  1  0
 28 51  1  0
 30 52  1  0
 30 53  1  0
 30 54  1  0
 31 55  1  0
 31 56  1  0
 32 57  1  0
 32 58  1  0
M  CHG  5   8  -1   9  -1  14   1  16  -1  26   1
M  END
>  <UniqueID>  (6) 
6

>  <SMILES>  (6) 
C=c1[nH]c(=Cc2c([O-])[n-]c3ccc([N+](=O)[O-])cc23)c(C)c1CCC(=O)[NH+]1CCN(C)CC1

>  <Energy>  (6) 
137.62612255328187

>  <Genealogy>  (6) 
C=c1[nH]c(=Cc2c([O-])[n-]c3ccc([N+](=O)[O-])cc23)c(C)c1CCC(=O)[NH+]1CCN(C)CC1 (protonated)
C=c1[nH]c(=Cc2c([O-])[n-]c3ccc([N+](=O)[O-])cc23)c(C)c1CCC(=O)[NH+]1CCN(C)CC1 (3D coordinates assigned)
C=c1[nH]c(=Cc2c([O-])[n-]c3ccc([N+](=O)[O-])cc23)c(C)c1CCC(=O)[NH+]1CCN(C)CC1 (nonaromatic ring conformer: 137.62612255328187 kcal/mol)

>  <smiles>  (6) 
C=c1[nH]c(=Cc2c(O)[nH]c3ccc([N+](=O)[O-])cc23)c(C)c1CCC(=O)N1CCN(C)CC1

>  <score_type>  (6) 
oracle

>  <origin>  (6) 
adg

>  <m_score__min__energy>  (6) 
-14.380000000000001

>  <m_primary>  (6) 
energy

$$$$
6:0
     RDKit          3D

 37 38  0  0  0  0  0  0  0  0999 V2000
   54.5100   23.6130   43.6320 C   0  0  0  0  0  0  0  0  0  0  0  0
   53.6510   23.7170   45.1890 S   0  0  0  0  0  0  0  0  0  0  0  0
   52.6570   24.8440   45.1660 O   0  0  0  0  0  0  0  0  0  0  0  0
   52.9150   22.4290   45.4180 O   0  0  0  0  0  0  0  0  0  0  0  0
   54.7840   23.9480   46.4820 N   0  0  0  0  0  0  0  0  0  0  0  0
   56.1100   24.4870   46.3610 C   0  0  0  0  0  0  0  0  0  0  0  0
   57.2500   23.6730   46.4730 C   0  0  0  0  0  0  0  0  0  0  0  0
   58.5270   24.2250   46.3610 C   0  0  0  0  0  0  0  0  0  0  0  0
   58.6830   25.5900   46.1270 C   0  0  0  0  0  0  0  0  0  0  0  0
   57.5600   26.4190   45.9900 C   0  0  0  0  0  0  0  0  0  0  0  0
   57.7480   27.8950   45.7670 C   0  0  0  0  0  0  0  0  0  0  0  0
   56.9430   28.3180   44.6270 N   0  0  0  0  0  0  0  0  0  0  0  0
   56.1470   29.5070   44.5990 C   0  0  0  0  0  0  0  0  0  0  0  0
   54.9220   29.4310   44.8720 O   0  0  0  0  0  0  0  0  0  0  0  0
   56.6970   30.7710   44.2080 N   0  0  0  0  0  0  0  0  0  0  0  0
   57.4310   31.6510   45.0690 C   0  0  0  0  0  0  0  0  0  0  0  0
   57.0610   32.9980   45.2330 C   0  0  0  0  0  0  0  0  0  0  0  0
   57.8100   33.8370   46.0620 C   0  0  0  0  0  0  0  0  0  0  0  0
   58.9410   33.3440   46.7200 C   0  0  0  0  0  0  0  0  0  0  0  0
   59.3270   32.0120   46.5440 C   0  0  0  0  0  0  0  0  0  0  0  0
   60.8780   31.3420   47.4340 Br  0  0  0  0  0  0  0  0  0  0  0  0
   58.5770   31.1700   45.7150 C   0  0  0  0  0  0  0  0  0  0  0  0
   56.2690   25.8690   46.1230 C   0  0  0  0  0  0  0  0  0  0  0  0
   55.1560   26.7080   46.0180 O   0  0  0  0  0  0  0  0  0  0  0  0
   55.5868   23.4826   43.8153 H   0  0  0  0  0  0  0  0  0  0  0  0
   54.1289   22.7544   43.0596 H   0  0  0  0  0  0  0  0  0  0  0  0
   54.3448   24.5377   43.0596 H   0  0  0  0  0  0  0  0  0  0  0  0
   57.1351   22.5935   46.6501 H   0  0  0  0  0  0  0  0  0  0  0  0
   59.4132   23.5806   46.4577 H   0  0  0  0  0  0  0  0  0  0  0  0
   59.6926   26.0196   46.0493 H   0  0  0  0  0  0  0  0  0  0  0  0
   57.4307   28.4454   46.6650 H   0  0  0  0  0  0  0  0  0  0  0  0
   58.8090   28.1045   45.5661 H   0  0  0  0  0  0  0  0  0  0  0  0
   56.1791   33.3922   44.7069 H   0  0  0  0  0  0  0  0  0  0  0  0
   57.5096   34.8865   46.1972 H   0  0  0  0  0  0  0  0  0  0  0  0
   59.5270   34.0043   47.3762 H   0  0  0  0  0  0  0  0  0  0  0  0
   58.8891   30.1252   45.5700 H   0  0  0  0  0  0  0  0  0  0  0  0
   55.1430   27.5280   45.4240 H   0  0  0  0  0  0  0  0  0  0  0  0
  1  2  1  0
  2  3  2  0
  2  4  2  0
  2  5  1  0
  5  6  1  0
  6  7  2  0
  7  8  1  0
  8  9  2  0
  9 10  1  0
 10 11  1  0
 11 12  1  0
 12 13  1  0
 13 14  2  0
 13 15  1  0
 15 16  1  0
 16 17  2  0
 17 18  1  0
 18 19  2  0
 19 20  1  0
 20 21  1  0
 20 22  2  0
 10 23  2  0
 23 24  1  0
 23  6  1  0
 22 16  1  0
  1 25  1  0
  1 26  1  0
  1 27  1  0
  7 28  1  0
  8 29  1  0
  9 30  1  0
 11 31  1  0
 11 32  1  0
 17 33  1  0
 18 34  1  0
 19 35  1  0
 22 36  1  0
 24 37  1  0
M  CHG  3   5  -1  12  -1  15  -1
M  END
>  <UniqueID>  (7) 
7

>  <SMILES>  (7) 
CS(=O)(=O)[N-]c1cccc(C[N-]C(=O)[N-]c2cccc(Br)c2)c1O

>  <Energy>  (7) 
41.58197755484358

>  <Genealogy>  (7) 
CS(=O)(=O)[N-]c1cccc(C[N-]C(=O)[N-]c2cccc(Br)c2)c1O (protonated)
CS(=O)(=O)[N-]c1cccc(C[N-]C(=O)[N-]c2cccc(Br)c2)c1O (3D coordinates assigned)
CS(=O)(=O)[N-]c1cccc(C[N-]C(=O)[N-]c2cccc(Br)c2)c1O (optimized conformer: 41.58197755484358 kcal/mol)

>  <smiles>  (7) 
CS(=O)(=O)Nc1cccc(CNC(=O)Nc2cccc(Br)c2)c1O

>  <score_type>  (7) 
oracle

>  <origin>  (7) 
adg

>  <m_score__min__energy>  (7) 
-14.18

>  <m_primary>  (7) 
energy

$$$$
7:0
     RDKit          3D

 68 71  0  0  0  0  0  0  0  0999 V2000
   55.8560   28.8270   45.1780 O   0  0  0  0  0  0  0  0  0  0  0  0
   57.0660   28.0400   45.5980 S   0  0  0  0  0  0  0  0  0  0  0  0
   57.5110   27.2020   44.4310 O   0  0  0  0  0  0  0  0  0  0  0  0
   56.6490   27.0550   46.9730 N   0  0  0  0  0  0  0  0  0  0  0  0
   57.2590   25.7250   46.9020 C   0  0  0  0  0  0  0  0  0  0  0  0
   56.4970   24.8240   45.9500 C   0  0  0  0  0  0  0  0  0  0  0  0
   57.1520   23.6670   45.4810 C   0  0  0  0  0  0  0  0  0  0  0  0
   56.4930   22.7590   44.6540 C   0  0  0  0  0  0  0  0  0  0  0  0
   55.1670   22.9790   44.2880 C   0  0  0  0  0  0  0  0  0  0  0  0
   54.5020   24.1220   44.7340 C   0  0  0  0  0  0  0  0  0  0  0  0
   55.1480   25.0520   45.5600 C   0  0  0  0  0  0  0  0  0  0  0  0
   54.4090   26.1700   45.9600 O   0  0  0  0  0  0  0  0  0  0  0  0
   58.3480   29.1580   46.0510 C   0  0  0  0  0  0  0  0  0  0  0  0
   59.2170   28.8520   47.1060 C   0  0  0  0  0  0  0  0  0  0  0  0
   60.2460   29.7340   47.4460 C   0  0  0  0  0  0  0  0  0  0  0  0
   60.4180   30.9370   46.7370 C   0  0  0  0  0  0  0  0  0  0  0  0
   61.4400   31.8540   47.0320 O   0  0  0  0  0  0  0  0  0  0  0  0
   62.8310   31.5470   47.1510 C   0  0  0  0  0  0  0  0  0  0  0  0
   63.6450   32.7900   47.5730 C   0  0  1  0  0  0  0  0  0  0  0  0
   62.8100   33.9220   47.5840 O   0  0  0  0  0  0  0  0  0  0  0  0
   64.3130   32.6320   48.9620 C   0  0  0  0  0  0  0  0  0  0  0  0
   63.3930   32.7590   50.1130 N   0  0  0  0  0  0  0  0  0  0  0  0
   62.5330   31.5990   50.4200 C   0  0  0  0  0  0  0  0  0  0  0  0
   61.0690   31.7780   49.9570 C   0  0  0  0  0  0  0  0  0  0  0  0
   60.7660   33.1710   49.5850 N   0  0  0  0  0  0  0  0  0  0  0  0
   59.3280   33.4040   49.3110 C   0  0  0  0  0  0  0  0  0  0  0  0
   59.0260   33.8210   47.8880 C   0  0  0  0  0  0  0  0  0  0  0  0
   57.8290   33.4180   47.2710 C   0  0  0  0  0  0  0  0  0  0  0  0
   57.5560   33.7870   45.9500 C   0  0  0  0  0  0  0  0  0  0  0  0
   58.4800   34.5500   45.2320 C   0  0  0  0  0  0  0  0  0  0  0  0
   59.6790   34.9430   45.8320 C   0  0  0  0  0  0  0  0  0  0  0  0
   59.9560   34.5770   47.1530 C   0  0  0  0  0  0  0  0  0  0  0  0
   61.3400   34.1240   50.5420 C   0  0  0  0  0  0  0  0  0  0  0  0
   62.8650   34.1070   50.4110 C   0  0  0  0  0  0  0  0  0  0  0  0
   59.5330   31.2440   45.6970 C   0  0  0  0  0  0  0  0  0  0  0  0
   58.5050   30.3630   45.3550 C   0  0  0  0  0  0  0  0  0  0  0  0
   58.2964   25.8241   46.5498 H   0  0  0  0  0  0  0  0  0  0  0  0
   57.2322   25.2748   47.9053 H   0  0  0  0  0  0  0  0  0  0  0  0
   58.1961   23.4785   45.7714 H   0  0  0  0  0  0  0  0  0  0  0  0
   57.0216   21.8659   44.2892 H   0  0  0  0  0  0  0  0  0  0  0  0
   54.6447   22.2526   43.6481 H   0  0  0  0  0  0  0  0  0  0  0  0
   53.4581   24.2952   44.4336 H   0  0  0  0  0  0  0  0  0  0  0  0
   54.7490   27.1180   45.9440 H   0  0  0  0  0  0  0  0  0  0  0  0
   59.0891   27.9152   47.6682 H   0  0  0  0  0  0  0  0  0  0  0  0
   60.9265   29.4860   48.2739 H   0  0  0  0  0  0  0  0  0  0  0  0
   62.9608   30.7595   47.9080 H   0  0  0  0  0  0  0  0  0  0  0  0
   63.1972   31.2081   46.1707 H   0  0  0  0  0  0  0  0  0  0  0  0
   64.4516   32.9093   46.8347 H   0  0  0  0  0  0  0  0  0  0  0  0
   61.9820   33.6800   48.0770 H   0  0  0  0  0  0  0  0  0  0  0  0
   64.7796   31.6368   49.0056 H   0  0  0  0  0  0  0  0  0  0  0  0
   65.0360   33.4560   49.0524 H   0  0  0  0  0  0  0  0  0  0  0  0
   62.9509   30.7133   49.9191 H   0  0  0  0  0  0  0  0  0  0  0  0
   62.5155   31.4895   51.5144 H   0  0  0  0  0  0  0  0  0  0  0  0
   60.8928   31.1325   49.0839 H   0  0  0  0  0  0  0  0  0  0  0  0
   60.4146   31.5045   50.7978 H   0  0  0  0  0  0  0  0  0  0  0  0
   58.7818   32.4725   49.5205 H   0  0  0  0  0  0  0  0  0  0  0  0
   59.0146   34.2372   49.9572 H   0  0  0  0  0  0  0  0  0  0  0  0
   57.1032   32.8092   47.8301 H   0  0  0  0  0  0  0  0  0  0  0  0
   56.6132   33.4763   45.4761 H   0  0  0  0  0  0  0  0  0  0  0  0
   58.2635   34.8416   44.1937 H   0  0  0  0  0  0  0  0  0  0  0  0
   60.4066   35.5415   45.2642 H   0  0  0  0  0  0  0  0  0  0  0  0
   60.9049   34.8817   47.6186 H   0  0  0  0  0  0  0  0  0  0  0  0
   60.9629   35.1347   50.3268 H   0  0  0  0  0  0  0  0  0  0  0  0
   61.0524   33.8408   51.5653 H   0  0  0  0  0  0  0  0  0  0  0  0
   63.1567   34.7878   49.5977 H   0  0  0  0  0  0  0  0  0  0  0  0
   63.2867   34.4251   51.3759 H   0  0  0  0  0  0  0  0  0  0  0  0
   59.6483   32.1879   45.1440 H   0  0  0  0  0  0  0  0  0  0  0  0
   57.8160   30.6165   44.5359 H   0  0  0  0  0  0  0  0  0  0  0  0
  1  2  2  0
  2  3  2  0
  2  4  1  0
  4  5  1  0
  5  6  1  0
  6  7  2  0
  7  8  1  0
  8  9  2  0
  9 10  1  0
 10 11  2  0
 11 12  1  0
  2 13  1  0
 13 14  2  0
 14 15  1  0
 15 16  2  0
 16 17  1  0
 17 18  1  0
 18 19  1  0
 19 20  1  0
 19 21  1  0
 21 22  1  0
 22 23  1  0
 23 24  1  0
 24 25  1  0
 25 26  1  0
 26 27  1  0
 27 28  2  0
 28 29  1  0
 29 30  2  0
 30 31  1  0
 31 32  2  0
 25 33  1  0
 33 34  1  0
 16 35  1  0
 35 36  2  0
 11  6  1  0
 36 13  1  0
 34 22  1  0
 32 27  1  0
  5 37  1  0
  5 38  1  0
  7 39  1  0
  8 40  1  0
  9 41  1  0
 10 42  1  0
 12 43  1  0
 14 44  1  0
 15 45  1  0
 18 46  1  0
 18 47  1  0
 19 48  1  6
 20 49  1  0
 21 50  1  0
 21 51  1  0
 23 52  1  0
 23 53  1  0
 24 54  1  0
 24 55  1  0
 26 56  1  0
 26 57  1  0
 28 58  1  0
 29 59  1  0
 30 60  1  0
 31 61  1  0
 32 62  1  0
 33 63  1  0
 33 64  1  0
 34 65  1  0
 34 66  1  0
 35 67  1  0
 36 68  1  0
M  CHG  1   4  -1
M  END
>  <UniqueID>  (8) 
8

>  <SMILES>  (8) 
O=S(=O)([N-]Cc1ccccc1O)c1ccc(OC[C@@H](O)CN2CCN(Cc3ccccc3)CC2)cc1

>  <Energy>  (8) 
89.04249575368662

>  <Genealogy>  (8) 
O=S(=O)([N-]Cc1ccccc1O)c1ccc(OCC(O)CN2CCN(Cc3ccccc3)CC2)cc1 (protonated)
O=S(=O)([N-]Cc1ccccc1O)c1ccc(OC[C@@H](O)CN2CCN(Cc3ccccc3)CC2)cc1 (chirality)
O=S(=O)([N-]Cc1ccccc1O)c1ccc(OC[C@@H](O)CN2CCN(Cc3ccccc3)CC2)cc1 (3D coordinates assigned)
O=S(=O)([N-]Cc1ccccc1O)c1ccc(OC[C@@H](O)CN2CCN(Cc3ccccc3)CC2)cc1 (nonaromatic ring conformer: 89.04249575368662 kcal/mol)

>  <smiles>  (8) 
O=S(=O)(NCc1ccccc1O)c1ccc(OCC(O)CN2CCN(Cc3ccccc3)CC2)cc1

>  <score_type>  (8) 
oracle

>  <origin>  (8) 
adg

>  <m_score__min__energy>  (8) 
-11.43

>  <m_primary>  (8) 
energy

$$$$
8:0
     RDKit          3D

 68 72  0  0  0  0  0  0  0  0999 V2000
   55.4030   26.7080   46.2870 O   0  0  0  0  0  0  0  0  0  0  0  0
   56.2640   27.5080   45.8280 C   0  0  0  0  0  0  0  0  0  0  0  0
   55.8420   28.6550   45.0880 N   0  0  0  0  0  0  0  0  0  0  0  0
   56.7940   29.3450   43.8180 S   0  0  0  0  0  0  0  0  0  0  0  0
   55.9130   29.6320   42.6350 O   0  0  0  0  0  0  0  0  0  0  0  0
   57.8610   28.3710   43.4020 O   0  0  0  0  0  0  0  0  0  0  0  0
   57.5030   30.8510   44.3880 C   0  0  0  0  0  0  0  0  0  0  0  0
   57.8240   31.8570   43.4670 C   0  0  0  0  0  0  0  0  0  0  0  0
   58.3380   33.0810   43.9130 C   0  0  0  0  0  0  0  0  0  0  0  0
   58.5290   33.3050   45.2800 C   0  0  0  0  0  0  0  0  0  0  0  0
   58.2180   32.3010   46.2020 C   0  0  0  0  0  0  0  0  0  0  0  0
   57.7040   31.0780   45.7590 C   0  0  0  0  0  0  0  0  0  0  0  0
   57.7080   27.2480   46.0320 C   0  0  0  0  0  0  0  0  0  0  0  0
   58.5450   28.3100   46.4170 C   0  0  0  0  0  0  0  0  0  0  0  0
   59.9240   28.1130   46.5910 C   0  0  0  0  0  0  0  0  0  0  0  0
   60.7960   29.1640   47.0290 N   0  0  0  0  0  0  0  0  0  0  0  0
   60.5590   30.1810   48.4180 S   0  0  0  0  0  0  0  0  0  0  0  0
   60.8600   29.4310   49.6840 O   0  0  0  0  0  0  0  0  0  0  0  0
   59.1130   30.5790   48.4540 O   0  0  0  0  0  0  0  0  0  0  0  0
   61.5510   31.6400   48.2950 C   0  0  0  0  0  0  0  0  0  0  0  0
   61.1860   32.7950   49.0040 C   0  0  0  0  0  0  0  0  0  0  0  0
   61.9470   33.9620   48.8880 C   0  0  0  0  0  0  0  0  0  0  0  0
   63.0700   33.9890   48.0550 C   0  0  0  0  0  0  0  0  0  0  0  0
   63.4420   32.8430   47.3460 C   0  0  0  0  0  0  0  0  0  0  0  0
   62.6910   31.6710   47.4710 C   0  0  0  0  0  0  0  0  0  0  0  0
   60.4770   26.8640   46.3070 C   0  0  0  0  0  0  0  0  0  0  0  0
   59.6590   25.7970   45.9300 C   0  0  0  0  0  0  0  0  0  0  0  0
   58.2750   25.9690   45.8200 C   0  0  0  0  0  0  0  0  0  0  0  0
   57.4520   24.8180   45.5730 N   0  0  0  0  0  0  0  0  0  0  0  0
   56.9030   24.6180   44.2250 C   0  0  0  0  0  0  0  0  0  0  0  0
   55.9260   23.4360   44.1840 C   0  0  0  0  0  0  0  0  0  0  0  0
   54.9350   23.5300   45.3600 C   0  0  0  0  0  0  0  0  0  0  0  0
   53.9580   22.4790   45.3190 O   0  0  0  0  0  0  0  0  0  0  0  0
   52.6120   22.5280   45.7270 C   0  0  0  0  0  0  0  0  0  0  0  0
   52.0890   21.7610   46.7890 C   0  0  0  0  0  0  0  0  0  0  0  0
   50.7360   21.8560   47.1290 C   0  0  0  0  0  0  0  0  0  0  0  0
   49.8940   22.7170   46.4210 C   0  0  0  0  0  0  0  0  0  0  0  0
   50.4040   23.4880   45.3740 C   0  0  0  0  0  0  0  0  0  0  0  0
   51.7560   23.3970   45.0340 C   0  0  0  0  0  0  0  0  0  0  0  0
   55.6080   23.6620   46.7520 C   0  0  0  0  0  0  0  0  0  0  0  0
   57.1270   23.8980   46.6710 C   0  0  0  0  0  0  0  0  0  0  0  0
   57.6719   31.6850   42.3912 H   0  0  0  0  0  0  0  0  0  0  0  0
   58.5918   33.8673   43.1869 H   0  0  0  0  0  0  0  0  0  0  0  0
   58.9236   34.2704   45.6297 H   0  0  0  0  0  0  0  0  0  0  0  0
   58.3777   32.4731   47.2767 H   0  0  0  0  0  0  0  0  0  0  0  0
   57.4564   30.2914   46.4870 H   0  0  0  0  0  0  0  0  0  0  0  0
   58.1138   29.3081   46.5840 H   0  0  0  0  0  0  0  0  0  0  0  0
   60.2981   32.7819   49.6532 H   0  0  0  0  0  0  0  0  0  0  0  0
   61.6617   34.8614   49.4534 H   0  0  0  0  0  0  0  0  0  0  0  0
   63.6606   34.9119   47.9577 H   0  0  0  0  0  0  0  0  0  0  0  0
   64.3250   32.8637   46.6903 H   0  0  0  0  0  0  0  0  0  0  0  0
   62.9931   30.7671   46.9217 H   0  0  0  0  0  0  0  0  0  0  0  0
   61.5649   26.7188   46.3806 H   0  0  0  0  0  0  0  0  0  0  0  0
   60.1059   24.8145   45.7180 H   0  0  0  0  0  0  0  0  0  0  0  0
   56.3724   25.5308   43.9164 H   0  0  0  0  0  0  0  0  0  0  0  0
   57.7372   24.3993   43.5422 H   0  0  0  0  0  0  0  0  0  0  0  0
   55.3689   23.4567   43.2357 H   0  0  0  0  0  0  0  0  0  0  0  0
   56.4926   22.4965   44.2636 H   0  0  0  0  0  0  0  0  0  0  0  0
   54.4022   24.4819   45.2186 H   0  0  0  0  0  0  0  0  0  0  0  0
   52.7487   21.0848   47.3525 H   0  0  0  0  0  0  0  0  0  0  0  0
   50.3339   21.2517   47.9555 H   0  0  0  0  0  0  0  0  0  0  0  0
   48.8293   22.7877   46.6881 H   0  0  0  0  0  0  0  0  0  0  0  0
   49.7412   24.1668   44.8172 H   0  0  0  0  0  0  0  0  0  0  0  0
   52.1536   24.0133   44.2142 H   0  0  0  0  0  0  0  0  0  0  0  0
   55.1502   24.5098   47.2827 H   0  0  0  0  0  0  0  0  0  0  0  0
   55.4527   22.7106   47.2818 H   0  0  0  0  0  0  0  0  0  0  0  0
   57.4762   24.3309   47.6200 H   0  0  0  0  0  0  0  0  0  0  0  0
   57.6249   22.9350   46.4844 H   0  0  0  0  0  0  0  0  0  0  0  0
  1  2  2  0
  2  3  1  0
  3  4  1  0
  4  5  2  0
  4  6  2  0
  4  7  1  0
  7  8  2  0
  8  9  1  0
  9 10  2  0
 10 11  1  0
 11 12  2  0
  2 13  1  0
 13 14  2  0
 14 15  1  0
 15 16  1  0
 16 17  1  0
 17 18  2  0
 17 19  2  0
 17 20  1  0
 20 21  2  0
 21 22  1  0
 22 23  2  0
 23 24  1  0
 24 25  2  0
 15 26  2  0
 26 27  1  0
 27 28  2  0
 28 29  1  0
 29 30  1  0
 30 31  1  0
 31 32  1  0
 32 33  1  0
 33 34  1  0
 34 35  2  0
 35 36  1  0
 36 37  2  0
 37 38  1  0
 38 39  2  0
 32 40  1  0
 40 41  1  0
 12  7  1  0
 28 13  1  0
 41 29  1  0
 25 20  1  0
 39 34  1  0
  8 42  1  0
  9 43  1  0
 10 44  1  0
 11 45  1  0
 12 46  1  0
 14 47  1  0
 21 48  1  0
 22 49  1  0
 23 50  1  0
 24 51  1  0
 25 52  1  0
 26 53  1  0
 27 54  1  0
 30 55  1  0
 30 56  1  0
 31 57  1  0
 31 58  1  0
 32 59  1  0
 35 60  1  0
 36 61  1  0
 37 62  1  0
 38 63  1  0
 39 64  1  0
 40 65  1  0
 40 66  1  0
 41 67  1  0
 41 68  1  0
M  CHG  2   3  -1  16  -1
M  END
>  <UniqueID>  (9) 
9

>  <SMILES>  (9) 
O=C([N-]S(=O)(=O)c1ccccc1)c1cc([N-]S(=O)(=O)c2ccccc2)ccc1N1CCC(Oc2ccccc2)CC1

>  <Energy>  (9) 
95.0011321107825

>  <Genealogy>  (9) 
O=C([N-]S(=O)(=O)c1ccccc1)c1cc([N-]S(=O)(=O)c2ccccc2)ccc1N1CCC(Oc2ccccc2)CC1 (protonated)
O=C([N-]S(=O)(=O)c1ccccc1)c1cc([N-]S(=O)(=O)c2ccccc2)ccc1N1CCC(Oc2ccccc2)CC1 (3D coordinates assigned)
O=C([N-]S(=O)(=O)c1ccccc1)c1cc([N-]S(=O)(=O)c2ccccc2)ccc1N1CCC(Oc2ccccc2)CC1 (nonaromatic ring conformer: 95.0011321107825 kcal/mol)

>  <smiles>  (9) 
O=C(NS(=O)(=O)c1ccccc1)c1cc(NS(=O)(=O)c2ccccc2)ccc1N1CCC(Oc2ccccc2)CC1

>  <score_type>  (9) 
oracle

>  <origin>  (9) 
adg

>  <m_score__min__energy>  (9) 
-13.880000000000001

>  <m_primary>  (9) 
energy

$$$$
9:0
     RDKit          3D

 58 60  0  0  0  0  0  0  0  0999 V2000
   58.1230   33.0740   44.5160 C   0  0  0  0  0  0  0  0  0  0  0  0
   57.5960   33.8020   45.7480 C   0  0  0  0  0  0  0  0  0  0  0  0
   58.4580   33.5360   46.9100 N   0  0  0  0  0  0  0  0  0  0  0  0
   58.1510   32.3680   47.7550 C   0  0  0  0  0  0  0  0  0  0  0  0
   58.9960   31.1790   47.4020 C   0  0  0  0  0  0  0  0  0  0  0  0
   59.7560   31.2440   46.4020 O   0  0  0  0  0  0  0  0  0  0  0  0
   58.9110   29.9690   48.1630 N   0  0  0  0  0  0  0  0  0  0  0  0
   59.6340   28.7600   47.7670 C   0  0  0  0  0  0  0  0  0  0  0  0
   59.0090   28.1470   46.5430 C   0  0  0  0  0  0  0  0  0  0  0  0
   57.8610   27.3460   46.6560 C   0  0  0  0  0  0  0  0  0  0  0  0
   57.2440   26.8360   45.5100 C   0  0  0  0  0  0  0  0  0  0  0  0
   57.7710   27.1180   44.2460 C   0  0  0  0  0  0  0  0  0  0  0  0
   58.9170   27.9080   44.1260 C   0  0  0  0  0  0  0  0  0  0  0  0
   59.5350   28.4230   45.2690 C   0  0  0  0  0  0  0  0  0  0  0  0
   59.6150   34.3790   47.1370 C   0  0  0  0  0  0  0  0  0  0  0  0
   59.4920   35.6330   47.0910 O   0  0  0  0  0  0  0  0  0  0  0  0
   60.9350   33.8290   47.5040 C   0  0  0  0  0  0  0  0  0  0  0  0
   61.9820   33.8120   46.5700 C   0  0  0  0  0  0  0  0  0  0  0  0
   63.2250   33.2820   46.9140 C   0  0  0  0  0  0  0  0  0  0  0  0
   63.4410   32.7830   48.1990 C   0  0  0  0  0  0  0  0  0  0  0  0
   62.4210   32.8310   49.1510 C   0  0  0  0  0  0  0  0  0  0  0  0
   61.1630   33.3710   48.8190 C   0  0  0  0  0  0  0  0  0  0  0  0
   60.1270   33.4730   49.7620 O   0  0  0  0  0  0  0  0  0  0  0  0
   60.1610   32.9060   51.0690 C   0  0  0  0  0  0  0  0  0  0  0  0
   59.4460   31.5870   51.0850 C   0  0  0  0  0  0  0  0  0  0  0  0
   58.0980   31.3250   51.2730 C   0  0  0  0  0  0  0  0  0  0  0  0
   57.0350   32.2990   51.6510 C   0  0  0  0  0  0  0  0  0  0  0  0
   57.8770   30.0000   51.1430 N   0  0  0  0  0  0  0  0  0  0  0  0
   59.0190   29.4480   50.8490 O   0  0  0  0  0  0  0  0  0  0  0  0
   59.9770   30.3440   50.7900 C   0  0  0  0  0  0  0  0  0  0  0  0
   61.4020   30.0290   50.4670 C   0  0  0  0  0  0  0  0  0  0  0  0
   58.7410   32.2203   44.8310 H   0  0  0  0  0  0  0  0  0  0  0  0
   57.2765   32.7116   43.9142 H   0  0  0  0  0  0  0  0  0  0  0  0
   58.7316   33.7650   43.9142 H   0  0  0  0  0  0  0  0  0  0  0  0
   57.5789   34.8839   45.5498 H   0  0  0  0  0  0  0  0  0  0  0  0
   56.5803   33.4413   45.9678 H   0  0  0  0  0  0  0  0  0  0  0  0
   58.3334   32.6332   48.8068 H   0  0  0  0  0  0  0  0  0  0  0  0
   57.0979   32.0968   47.5890 H   0  0  0  0  0  0  0  0  0  0  0  0
   58.2640   29.9380   48.9830 H   0  0  0  0  0  0  0  0  0  0  0  0
   60.6801   29.0198   47.5474 H   0  0  0  0  0  0  0  0  0  0  0  0
   59.5879   28.0329   48.5911 H   0  0  0  0  0  0  0  0  0  0  0  0
   57.4461   27.1193   47.6492 H   0  0  0  0  0  0  0  0  0  0  0  0
   56.3428   26.2121   45.6027 H   0  0  0  0  0  0  0  0  0  0  0  0
   57.2829   26.7175   43.3453 H   0  0  0  0  0  0  0  0  0  0  0  0
   59.3333   28.1249   43.1312 H   0  0  0  0  0  0  0  0  0  0  0  0
   60.4360   29.0464   45.1713 H   0  0  0  0  0  0  0  0  0  0  0  0
   61.8213   34.2190   45.5608 H   0  0  0  0  0  0  0  0  0  0  0  0
   64.0362   33.2573   46.1715 H   0  0  0  0  0  0  0  0  0  0  0  0
   64.4175   32.3507   48.4626 H   0  0  0  0  0  0  0  0  0  0  0  0
   62.6005   32.4452   50.1654 H   0  0  0  0  0  0  0  0  0  0  0  0
   61.2077   32.7547   51.3715 H   0  0  0  0  0  0  0  0  0  0  0  0
   59.6610   33.5917   51.7688 H   0  0  0  0  0  0  0  0  0  0  0  0
   56.9674   32.3609   52.7472 H   0  0  0  0  0  0  0  0  0  0  0  0
   57.2833   33.2897   51.2424 H   0  0  0  0  0  0  0  0  0  0  0  0
   56.0698   31.9653   51.2424 H   0  0  0  0  0  0  0  0  0  0  0  0
   61.9704   29.9034   51.4004 H   0  0  0  0  0  0  0  0  0  0  0  0
   61.4483   29.0989   49.8815 H   0  0  0  0  0  0  0  0  0  0  0  0
   61.8360   30.8529   49.8815 H   0  0  0  0  0  0  0  0  0  0  0  0
  1  2  1  0
  2  3  1  0
  3  4  1  0
  4  5  1  0
  5  6  2  0
  5  7  1  0
  7  8  1  0
  8  9  1  0
  9 10  2  0
 10 11  1  0
 11 12  2  0
 12 13  1  0
 13 14  2  0
  3 15  1  0
 15 16  2  0
 15 17  1  0
 17 18  2  0
 18 19  1  0
 19 20  2  0
 20 21  1  0
 21 22  2  0
 22 23  1  0
 23 24  1  0
 24 25  1  0
 25 26  1  0
 26 27  1  0
 26 28  2  0
 28 29  1  0
 29 30  1  0
 30 31  1  0
 14  9  1  0
 22 17  1  0
 30 25  2  0
  1 32  1  0
  1 33  1  0
  1 34  1  0
  2 35  1  0
  2 36  1  0
  4 37  1  0
  4 38  1  0
  7 39  1  0
  8 40  1  0
  8 41  1  0
 10 42  1  0
 11 43  1  0
 12 44  1  0
 13 45  1  0
 14 46  1  0
 18 47  1  0
 19 48  1  0
 20 49  1  0
 21 50  1  0
 24 51  1  0
 24 52  1  0
 27 53  1  0
 27 54  1  0
 27 55  1  0
 31 56  1  0
 31 57  1  0
 31 58  1  0
M  END
>  <UniqueID>  (10) 
10

>  <SMILES>  (10) 
CCN(CC(=O)NCc1ccccc1)C(=O)c1ccccc1OCc1c(C)noc1C

>  <Energy>  (10) 
81.52668421027327

>  <Genealogy>  (10) 
CCN(CC(=O)NCc1ccccc1)C(=O)c1ccccc1OCc1c(C)noc1C (3D coordinates assigned)
CCN(CC(=O)NCc1ccccc1)C(=O)c1ccccc1OCc1c(C)noc1C (optimized conformer: 81.52668421027327 kcal/mol)

>  <smiles>  (10) 
CCN(CC(=O)NCc1ccccc1)C(=O)c1ccccc1OCc1c(C)noc1C

>  <score_type>  (10) 
oracle

>  <origin>  (10) 
adg

>  <m_score__min__energy>  (10) 
-9.2100000000000009

>  <m_primary>  (10) 
energy

$$$$
10:0
     RDKit          3D

 53 56  0  0  0  0  0  0  0  0999 V2000
   57.3770   33.0400   47.0300 O   0  0  0  0  0  0  0  0  0  0  0  0
   58.0590   33.8100   46.3020 C   0  0  0  0  0  0  0  0  0  0  0  0
   57.7080   33.9380   44.8440 C   0  0  0  0  0  0  0  0  0  0  0  0
   58.2980   32.7860   44.0220 C   0  0  0  0  0  0  0  0  0  0  0  0
   57.5850   31.5050   44.3250 C   0  0  0  0  0  0  0  0  0  0  0  0
   58.1520   30.2480   44.3620 C   0  0  0  0  0  0  0  0  0  0  0  0
   57.0950   29.4310   44.7070 C   0  0  0  0  0  0  0  0  0  0  0  0
   57.1300   27.9720   44.9060 C   0  0  0  0  0  0  0  0  0  0  0  0
   57.7880   27.2650   44.0990 O   0  0  0  0  0  0  0  0  0  0  0  0
   56.3880   27.3250   45.9510 N   0  0  0  0  0  0  0  0  0  0  0  0
   56.2980   26.0390   46.1340 C   0  0  0  0  0  0  0  0  0  0  0  0
   55.1060   25.3930   45.9770 N   0  0  0  0  0  0  0  0  0  0  0  0
   54.9730   24.0580   46.1860 C   0  0  0  0  0  0  0  0  0  0  0  0
   56.0750   23.3030   46.5850 C   0  0  0  0  0  0  0  0  0  0  0  0
   57.3070   23.9320   46.7620 C   0  0  0  0  0  0  0  0  0  0  0  0
   57.4330   25.3150   46.5420 C   0  0  0  0  0  0  0  0  0  0  0  0
   58.6510   25.9990   46.7020 O   0  0  0  0  0  0  0  0  0  0  0  0
   59.0380   26.7420   47.8580 C   0  0  0  0  0  0  0  0  0  0  0  0
   59.4490   28.1400   47.4760 C   0  0  0  0  0  0  0  0  0  0  0  0
   58.9200   29.2520   48.1570 C   0  0  0  0  0  0  0  0  0  0  0  0
   59.3060   30.5470   47.8000 C   0  0  0  0  0  0  0  0  0  0  0  0
   60.2250   30.7460   46.7650 C   0  0  0  0  0  0  0  0  0  0  0  0
   60.7630   29.6470   46.0880 C   0  0  0  0  0  0  0  0  0  0  0  0
   60.3810   28.3470   46.4400 C   0  0  0  0  0  0  0  0  0  0  0  0
   60.9190   27.2920   45.7770 F   0  0  0  0  0  0  0  0  0  0  0  0
   56.0210   30.1700   44.8690 O   0  0  0  0  0  0  0  0  0  0  0  0
   56.2800   31.4270   44.6460 N   0  0  0  0  0  0  0  0  0  0  0  0
   59.0580   34.6340   46.9200 N   0  0  0  0  0  0  0  0  0  0  0  0
   60.3590   34.2180   47.3580 C   0  0  0  0  0  0  0  0  0  0  0  0
   60.7090   34.2150   48.7200 C   0  0  0  0  0  0  0  0  0  0  0  0
   61.9920   33.8220   49.1160 C   0  0  0  0  0  0  0  0  0  0  0  0
   62.9380   33.4510   48.1570 C   0  0  0  0  0  0  0  0  0  0  0  0
   62.6030   33.4760   46.7990 C   0  0  0  0  0  0  0  0  0  0  0  0
   61.3230   33.8730   46.4010 C   0  0  0  0  0  0  0  0  0  0  0  0
   56.6132   33.9292   44.7376 H   0  0  0  0  0  0  0  0  0  0  0  0
   58.1298   34.8820   44.4685 H   0  0  0  0  0  0  0  0  0  0  0  0
   58.1921   33.0144   42.9512 H   0  0  0  0  0  0  0  0  0  0  0  0
   59.3605   32.6714   44.2828 H   0  0  0  0  0  0  0  0  0  0  0  0
   59.1963   29.9649   44.1640 H   0  0  0  0  0  0  0  0  0  0  0  0
   53.9966   23.5726   46.0406 H   0  0  0  0  0  0  0  0  0  0  0  0
   55.9737   22.2215   46.7585 H   0  0  0  0  0  0  0  0  0  0  0  0
   58.1828   23.3444   47.0747 H   0  0  0  0  0  0  0  0  0  0  0  0
   58.1894   26.7926   48.5561 H   0  0  0  0  0  0  0  0  0  0  0  0
   59.8924   26.2385   48.3339 H   0  0  0  0  0  0  0  0  0  0  0  0
   58.1992   29.1013   48.9742 H   0  0  0  0  0  0  0  0  0  0  0  0
   58.8859   31.4118   48.3345 H   0  0  0  0  0  0  0  0  0  0  0  0
   60.5245   31.7663   46.4835 H   0  0  0  0  0  0  0  0  0  0  0  0
   61.4886   29.8045   45.2764 H   0  0  0  0  0  0  0  0  0  0  0  0
   59.9718   34.5226   49.4763 H   0  0  0  0  0  0  0  0  0  0  0  0
   62.2563   33.8051   50.1836 H   0  0  0  0  0  0  0  0  0  0  0  0
   63.9456   33.1395   48.4696 H   0  0  0  0  0  0  0  0  0  0  0  0
   63.3473   33.1831   46.0438 H   0  0  0  0  0  0  0  0  0  0  0  0
   61.0711   33.9148   45.3310 H   0  0  0  0  0  0  0  0  0  0  0  0
  1  2  2  0
  2  3  1  0
  3  4  1  0
  4  5  1  0
  5  6  1  0
  6  7  2  0
  7  8  1  0
  8  9  2  0
  8 10  1  0
 10 11  2  3
 11 12  1  0
 12 13  1  0
 13 14  2  0
 14 15  1  0
 15 16  2  0
 16 17  1  0
 17 18  1  0
 18 19  1  0
 19 20  2  0
 20 21  1  0
 21 22  2  0
 22 23  1  0
 23 24  2  0
 24 25  1  0
  7 26  1  0
 26 27  1  0
  2 28  1  0
 28 29  1  0
 29 30  2  0
 30 31  1  0
 31 32  2  0
 32 33  1  0
 33 34  2  0
 27  5  2  0
 34 29  1  0
 16 11  1  0
 24 19  1  0
  3 35  1  0
  3 36  1  0
  4 37  1  0
  4 38  1  0
  6 39  1  0
 13 40  1  0
 14 41  1  0
 15 42  1  0
 18 43  1  0
 18 44  1  0
 20 45  1  0
 21 46  1  0
 22 47  1  0
 23 48  1  0
 30 49  1  0
 31 50  1  0
 32 51  1  0
 33 52  1  0
 34 53  1  0
M  CHG  2  12  -1  28  -1
M  END
>  <UniqueID>  (11) 
11

>  <SMILES>  (11) 
O=C(CCc1cc(C(=O)N=c2[n-]cccc2OCc2ccccc2F)on1)[N-]c1ccccc1

>  <Energy>  (11) 
96.74573924947906

>  <Genealogy>  (11) 
O=C(CCc1cc(C(=O)N=c2[n-]cccc2OCc2ccccc2F)on1)[N-]c1ccccc1 (protonated)
O=C(CCc1cc(C(=O)N=c2[n-]cccc2OCc2ccccc2F)on1)[N-]c1ccccc1 (3D coordinates assigned)
O=C(CCc1cc(C(=O)N=c2[n-]cccc2OCc2ccccc2F)on1)[N-]c1ccccc1 (optimized conformer: 96.74573924947906 kcal/mol)

>  <smiles>  (11) 
O=C(CCc1cc(C(=O)N=c2[nH]cccc2OCc2ccccc2F)on1)Nc1ccccc1

>  <score_type>  (11) 
oracle

>  <origin>  (11) 
adg

>  <m_score__min__energy>  (11) 
-12.289999999999999

>  <m_primary>  (11) 
energy

$$$$
11:0
     RDKit          3D

 48 50  0  0  0  0  0  0  0  0999 V2000
   57.2670   25.4820   46.8190 N   0  0  0  0  0  0  0  0  0  0  0  0
   57.1900   26.6890   45.5860 S   0  0  0  0  0  0  0  0  0  0  0  0
   57.3830   26.0500   44.2390 O   0  0  0  0  0  0  0  0  0  0  0  0
   55.8390   27.3460   45.6190 O   0  0  0  0  0  0  0  0  0  0  0  0
   58.4530   27.8880   45.8530 C   0  0  0  0  0  0  0  0  0  0  0  0
   59.2270   28.3660   44.7870 C   0  0  0  0  0  0  0  0  0  0  0  0
   60.2390   29.2990   45.0210 C   0  0  0  0  0  0  0  0  0  0  0  0
   60.4870   29.7590   46.3190 C   0  0  0  0  0  0  0  0  0  0  0  0
   59.7110   29.2940   47.3890 C   0  0  0  0  0  0  0  0  0  0  0  0
   60.0220   29.8560   49.0320 S   0  0  0  0  0  0  0  0  0  0  0  0
   59.7080   28.7600   50.0110 O   0  0  0  0  0  0  0  0  0  0  0  0
   61.4700   30.2290   49.1730 O   0  0  0  0  0  0  0  0  0  0  0  0
   58.9930   31.2080   49.3890 N   0  0  0  0  0  0  0  0  0  0  0  0
   58.9730   32.4020   48.6020 C   0  0  0  0  0  0  0  0  0  0  0  0
   59.7660   33.5110   48.9390 C   0  0  0  0  0  0  0  0  0  0  0  0
   59.7720   34.6430   48.1210 C   0  0  0  0  0  0  0  0  0  0  0  0
   59.0120   34.6670   46.9510 C   0  0  0  0  0  0  0  0  0  0  0  0
   58.2260   33.5580   46.5930 C   0  0  0  0  0  0  0  0  0  0  0  0
   57.4660   33.5570   45.3260 C   0  0  0  0  0  0  0  0  0  0  0  0
   56.7610   34.5600   45.0290 O   0  0  0  0  0  0  0  0  0  0  0  0
   57.5330   32.4420   44.4190 N   0  0  0  0  0  0  0  0  0  0  0  0
   58.3620   32.5120   43.2060 C   0  0  0  0  0  0  0  0  0  0  0  0
   57.6020   31.9690   41.9810 C   0  0  0  0  0  0  0  0  0  0  0  0
   56.6360   30.8120   42.3160 C   0  0  0  0  0  0  0  0  0  0  0  0
   56.9730   30.1380   43.6580 C   0  0  2  0  0  0  0  0  0  0  0  0
   56.1190   29.0520   43.9070 O   0  0  0  0  0  0  0  0  0  0  0  0
   56.9010   31.1700   44.8020 C   0  0  0  0  0  0  0  0  0  0  0  0
   58.1760   32.4470   47.4500 C   0  0  0  0  0  0  0  0  0  0  0  0
   58.6840   28.3710   47.1480 C   0  0  0  0  0  0  0  0  0  0  0  0
   56.3400   25.4800   47.3060 H   0  0  0  0  0  0  0  0  0  0  0  0
   59.0371   28.0059   43.7651 H   0  0  0  0  0  0  0  0  0  0  0  0
   60.8435   29.6738   44.1819 H   0  0  0  0  0  0  0  0  0  0  0  0
   61.2921   30.4865   46.4996 H   0  0  0  0  0  0  0  0  0  0  0  0
   60.3836   33.4880   49.8490 H   0  0  0  0  0  0  0  0  0  0  0  0
   60.3775   35.5180   48.3998 H   0  0  0  0  0  0  0  0  0  0  0  0
   59.0280   35.5578   46.3059 H   0  0  0  0  0  0  0  0  0  0  0  0
   58.6394   33.5602   43.0207 H   0  0  0  0  0  0  0  0  0  0  0  0
   59.2596   31.8954   43.3610 H   0  0  0  0  0  0  0  0  0  0  0  0
   57.0197   32.7916   41.5402 H   0  0  0  0  0  0  0  0  0  0  0  0
   58.3547   31.5697   41.2853 H   0  0  0  0  0  0  0  0  0  0  0  0
   55.6119   31.2102   42.3678 H   0  0  0  0  0  0  0  0  0  0  0  0
   56.7333   30.0535   41.5253 H   0  0  0  0  0  0  0  0  0  0  0  0
   57.9995   29.7464   43.6026 H   0  0  0  0  0  0  0  0  0  0  0  0
   56.6670   28.2240   43.8880 H   0  0  0  0  0  0  0  0  0  0  0  0
   55.8456   31.3555   45.0506 H   0  0  0  0  0  0  0  0  0  0  0  0
   57.4411   30.7629   45.6695 H   0  0  0  0  0  0  0  0  0  0  0  0
   57.5067   31.6061   47.2157 H   0  0  0  0  0  0  0  0  0  0  0  0
   58.0552   28.0235   47.9810 H   0  0  0  0  0  0  0  0  0  0  0  0
  1  2  1  0
  2  3  2  0
  2  4  2  0
  2  5  1  0
  5  6  2  0
  6  7  1  0
  7  8  2  0
  8  9  1  0
  9 10  1  0
 10 11  2  0
 10 12  2  0
 10 13  1  0
 13 14  1  0
 14 15  2  0
 15 16  1  0
 16 17  2  0
 17 18  1  0
 18 19  1  0
 19 20  2  0
 19 21  1  0
 21 22  1  0
 22 23  1  0
 23 24  1  0
 24 25  1  0
 25 26  1  0
 25 27  1  0
 18 28  2  0
  9 29  2  0
 29  5  1  0
 28 14  1  0
 27 21  1  0
  1 30  1  0
  6 31  1  0
  7 32  1  0
  8 33  1  0
 15 34  1  0
 16 35  1  0
 17 36  1  0
 22 37  1  0
 22 38  1  0
 23 39  1  0
 23 40  1  0
 24 41  1  0
 24 42  1  0
 25 43  1  6
 26 44  1  0
 27 45  1  0
 27 46  1  0
 28 47  1  0
 29 48  1  0
M  CHG  2   1  -1  13  -1
M  END
>  <UniqueID>  (12) 
12

>  <SMILES>  (12) 
[NH-]S(=O)(=O)c1cccc(S(=O)(=O)[N-]c2cccc(C(=O)N3CCC[C@H](O)C3)c2)c1

>  <Energy>  (12) 
62.78841007675992

>  <Genealogy>  (12) 
[NH-]S(=O)(=O)c1cccc(S(=O)(=O)[N-]c2cccc(C(=O)N3CCCC(O)C3)c2)c1 (protonated)
[NH-]S(=O)(=O)c1cccc(S(=O)(=O)[N-]c2cccc(C(=O)N3CCC[C@H](O)C3)c2)c1 (chirality)
[NH-]S(=O)(=O)c1cccc(S(=O)(=O)[N-]c2cccc(C(=O)N3CCC[C@H](O)C3)c2)c1 (3D coordinates assigned)
[NH-]S(=O)(=O)c1cccc(S(=O)(=O)[N-]c2cccc(C(=O)N3CCC[C@H](O)C3)c2)c1 (nonaromatic ring conformer: 62.78841007675992 kcal/mol)

>  <smiles>  (12) 
NS(=O)(=O)c1cccc(S(=O)(=O)Nc2cccc(C(=O)N3CCCC(O)C3)c2)c1

>  <score_type>  (12) 
oracle

>  <origin>  (12) 
adg

>  <m_score__min__energy>  (12) 
-14.130000000000001

>  <m_primary>  (12) 
energy

$$$$
12:0
     RDKit          3D

 43 45  0  0  0  0  0  0  0  0999 V2000
   55.1760   28.6070   44.8720 H   0  0  0  0  0  0  0  0  0  0  0  0
   55.2130   29.6500   44.9180 N   0  0  0  0  0  0  0  0  0  0  0  0
   56.6260   30.1450   44.0530 S   0  0  0  0  0  0  0  0  0  0  0  0
   56.2110   30.7760   42.7540 O   0  0  0  0  0  0  0  0  0  0  0  0
   57.4620   28.9260   43.7780 O   0  0  0  0  0  0  0  0  0  0  0  0
   57.5500   31.3120   45.0130 C   0  0  0  0  0  0  0  0  0  0  0  0
   57.2930   32.6830   44.8380 C   0  0  0  0  0  0  0  0  0  0  0  0
   56.5578   33.0082   44.0872 H   0  0  0  0  0  0  0  0  0  0  0  0
   57.9620   33.6350   45.6080 C   0  0  0  0  0  0  0  0  0  0  0  0
   57.7534   34.7049   45.4603 H   0  0  0  0  0  0  0  0  0  0  0  0
   58.8940   33.2340   46.5640 C   0  0  0  0  0  0  0  0  0  0  0  0
   59.4120   33.9866   47.1766 H   0  0  0  0  0  0  0  0  0  0  0  0
   59.1700   31.8770   46.7440 C   0  0  0  0  0  0  0  0  0  0  0  0
   59.9054   31.5654   47.5003 H   0  0  0  0  0  0  0  0  0  0  0  0
   58.5160   30.9070   45.9670 C   0  0  0  0  0  0  0  0  0  0  0  0
   58.8690   29.4890   46.1740 C   0  0  0  0  0  0  0  0  0  0  0  0
   58.3370   28.7760   47.2570 C   0  0  0  0  0  0  0  0  0  0  0  0
   57.6512   29.2737   47.9584 H   0  0  0  0  0  0  0  0  0  0  0  0
   58.6670   27.4710   47.4420 N   0  0  0  0  0  0  0  0  0  0  0  0
   59.5200   26.8140   46.6050 C   0  0  0  0  0  0  0  0  0  0  0  0
   59.8140   25.5620   46.7960 N   0  0  0  0  0  0  0  0  0  0  0  0
   59.3150   24.4530   45.9820 C   0  0  0  0  0  0  0  0  0  0  0  0
   59.7267   23.5080   46.3662 H   0  0  0  0  0  0  0  0  0  0  0  0
   59.6294   24.6073   44.9392 H   0  0  0  0  0  0  0  0  0  0  0  0
   57.8120   24.3960   46.0340 C   0  0  0  0  0  0  0  0  0  0  0  0
   57.1580   23.1550   46.0780 C   0  0  0  0  0  0  0  0  0  0  0  0
   57.7479   22.2267   46.0961 H   0  0  0  0  0  0  0  0  0  0  0  0
   55.7620   23.0910   46.0990 C   0  0  0  0  0  0  0  0  0  0  0  0
   55.2592   22.1134   46.1368 H   0  0  0  0  0  0  0  0  0  0  0  0
   54.9960   24.2730   46.0720 C   0  0  0  0  0  0  0  0  0  0  0  0
   53.5920   24.2570   46.0910 O   0  0  0  0  0  0  0  0  0  0  0  0
   52.7740   24.0870   44.9380 C   0  0  0  0  0  0  0  0  0  0  0  0
   51.7411   23.8723   45.2496 H   0  0  0  0  0  0  0  0  0  0  0  0
   52.7917   25.0080   44.3368 H   0  0  0  0  0  0  0  0  0  0  0  0
   53.1572   23.2493   44.3368 H   0  0  0  0  0  0  0  0  0  0  0  0
   55.6520   25.5120   46.0250 C   0  0  0  0  0  0  0  0  0  0  0  0
   54.9130   26.6890   45.9950 O   0  0  0  0  0  0  0  0  0  0  0  0
   57.0480   25.5730   46.0050 C   0  0  0  0  0  0  0  0  0  0  0  0
   57.5515   26.5502   45.9663 H   0  0  0  0  0  0  0  0  0  0  0  0
   60.0880   27.4980   45.5250 C   0  0  0  0  0  0  0  0  0  0  0  0
   60.7850   26.9827   44.8477 H   0  0  0  0  0  0  0  0  0  0  0  0
   59.7640   28.8390   45.3130 C   0  0  0  0  0  0  0  0  0  0  0  0
   60.2112   29.3860   44.4699 H   0  0  0  0  0  0  0  0  0  0  0  0
  1  2  1  0
  2  3  1  0
  3  4  2  0
  3  5  2  0
  3  6  1  0
  6  7  2  0
  7  8  1  0
  7  9  1  0
  9 10  1  0
  9 11  2  0
 11 12  1  0
 11 13  1  0
 13 14  1  0
 13 15  2  0
 15 16  1  0
 16 17  2  0
 17 18  1  0
 17 19  1  0
 19 20  1  0
 20 21  2  0
 21 22  1  0
 22 23  1  0
 22 24  1  0
 22 25  1  0
 25 26  2  0
 26 27  1  0
 26 28  1  0
 28 29  1  0
 28 30  2  0
 30 31  1  0
 31 32  1  0
 32 33  1  0
 32 34  1  0
 32 35  1  0
 30 36  1  0
 36 37  1  0
 36 38  2  0
 38 39  1  0
 20 40  1  0
 40 41  1  0
 40 42  2  0
 42 43  1  0
 15  6  1  0
 42 16  1  0
 38 25  1  0
M  CHG  3   2  -1  19  -1  37  -1
M  END
>  <UniqueID>  (13) 
13

>  <SMILES>  (13) 
COc1ccc(C/N=c2/ccc(-c3ccccc3S([NH-])(=O)=O)c[n-]2)cc1[O-]

>  <Energy>  (13) 
53.43847985249806

>  <Genealogy>  (13) 
COc1ccc(CN=c2ccc(-c3ccccc3S([NH-])(=O)=O)c[n-]2)cc1[O-] (protonated)
COc1ccc(C/N=c2/ccc(-c3ccccc3S([NH-])(=O)=O)c[n-]2)cc1[O-] (cis-trans isomerization)
COc1ccc(C/N=c2/ccc(-c3ccccc3S([NH-])(=O)=O)c[n-]2)cc1[O-] (3D coordinates assigned)
COc1ccc(C/N=c2/ccc(-c3ccccc3S([NH-])(=O)=O)c[n-]2)cc1[O-] (optimized conformer: 53.43847985249806 kcal/mol)

>  <smiles>  (13) 
COc1ccc(CN=c2ccc(-c3ccccc3S(N)(=O)=O)c[nH]2)cc1O

>  <score_type>  (13) 
oracle

>  <origin>  (13) 
adg

>  <m_score__min__energy>  (13) 
-16.059999999999999

>  <m_primary>  (13) 
energy

$$$$
13:0
     RDKit          3D

 53 56  0  0  0  0  0  0  0  0999 V2000
   55.4854   29.8965   53.1346 H   0  0  0  0  0  0  0  0  0  0  0  0
   56.2990   30.3800   52.5740 C   0  0  0  0  0  0  0  0  0  0  0  0
   57.0760   29.7020   51.6880 N   0  0  0  0  0  0  0  0  0  0  0  0
   58.0050   30.5020   51.1190 C   0  0  0  0  0  0  0  0  0  0  0  0
   58.8570   30.0520   50.2440 N   0  0  0  0  0  0  0  0  0  0  0  0
   59.1120   30.5610   48.9240 C   0  0  0  0  0  0  0  0  0  0  0  0
   58.9860   31.7910   48.6730 O   0  0  0  0  0  0  0  0  0  0  0  0
   59.4720   29.6200   47.8340 C   0  0  0  0  0  0  0  0  0  0  0  0
   60.0190   28.3670   48.1690 C   0  0  0  0  0  0  0  0  0  0  0  0
   60.2121   28.1221   49.2239 H   0  0  0  0  0  0  0  0  0  0  0  0
   60.3190   27.4320   47.1770 C   0  0  0  0  0  0  0  0  0  0  0  0
   60.7401   26.4542   47.4537 H   0  0  0  0  0  0  0  0  0  0  0  0
   60.0860   27.7350   45.8360 C   0  0  0  0  0  0  0  0  0  0  0  0
   60.3193   26.9946   45.0566 H   0  0  0  0  0  0  0  0  0  0  0  0
   59.5570   28.9770   45.4820 C   0  0  0  0  0  0  0  0  0  0  0  0
   59.3826   29.2131   44.4219 H   0  0  0  0  0  0  0  0  0  0  0  0
   59.2450   29.9290   46.4680 C   0  0  0  0  0  0  0  0  0  0  0  0
   58.7970   31.2360   46.0730 N   0  0  0  0  0  0  0  0  0  0  0  0
   59.3020   32.0690   46.4520 H   0  0  0  0  0  0  0  0  0  0  0  0
   57.6950   31.4510   45.1790 C   0  0  0  0  0  0  0  0  0  0  0  0
   56.9510   30.4860   44.8520 O   0  0  0  0  0  0  0  0  0  0  0  0
   57.4500   32.8310   44.6070 C   0  0  0  0  0  0  0  0  0  0  0  0
   56.7470   32.7115   43.7695 H   0  0  0  0  0  0  0  0  0  0  0  0
   58.7340   33.4710   44.0180 C   0  0  0  0  0  0  0  0  0  0  0  0
   59.4253   32.6663   43.7273 H   0  0  0  0  0  0  0  0  0  0  0  0
   58.4311   34.0831   43.1557 H   0  0  0  0  0  0  0  0  0  0  0  0
   59.4530   34.4000   45.0130 C   0  0  0  0  0  0  0  0  0  0  0  0
   60.5333   34.3872   44.8060 H   0  0  0  0  0  0  0  0  0  0  0  0
   59.0597   35.4209   44.8982 H   0  0  0  0  0  0  0  0  0  0  0  0
   59.2170   33.9470   46.3980 N   0  0  0  0  0  0  0  0  0  0  0  0
   60.1160   34.6280   47.3510 C   0  0  0  0  0  0  0  0  0  0  0  0
   60.3860   35.6170   46.9524 H   0  0  0  0  0  0  0  0  0  0  0  0
   59.5984   34.7399   48.3151 H   0  0  0  0  0  0  0  0  0  0  0  0
   61.3680   33.8160   47.5570 C   0  0  0  0  0  0  0  0  0  0  0  0
   61.5410   33.0470   48.7210 C   0  0  0  0  0  0  0  0  0  0  0  0
   60.7489   33.0210   49.4838 H   0  0  0  0  0  0  0  0  0  0  0  0
   62.7170   32.3150   48.9120 C   0  0  0  0  0  0  0  0  0  0  0  0
   62.8483   31.7142   49.8240 H   0  0  0  0  0  0  0  0  0  0  0  0
   63.7260   32.3460   47.9450 C   0  0  0  0  0  0  0  0  0  0  0  0
   64.6499   31.7683   48.0960 H   0  0  0  0  0  0  0  0  0  0  0  0
   63.5620   33.1100   46.7870 C   0  0  0  0  0  0  0  0  0  0  0  0
   64.3580   33.1352   46.0283 H   0  0  0  0  0  0  0  0  0  0  0  0
   62.3870   33.8430   46.5910 C   0  0  0  0  0  0  0  0  0  0  0  0
   62.2607   34.4425   45.6774 H   0  0  0  0  0  0  0  0  0  0  0  0
   57.8010   34.1480   46.7840 C   0  0  0  0  0  0  0  0  0  0  0  0
   57.5892   33.5371   47.6739 H   0  0  0  0  0  0  0  0  0  0  0  0
   57.6610   35.2208   46.9827 H   0  0  0  0  0  0  0  0  0  0  0  0
   56.8120   33.7490   45.6640 C   0  0  0  0  0  0  0  0  0  0  0  0
   55.9595   33.2229   46.1184 H   0  0  0  0  0  0  0  0  0  0  0  0
   56.4966   34.6719   45.1553 H   0  0  0  0  0  0  0  0  0  0  0  0
   57.8970   32.0820   51.7030 S   0  0  0  0  0  0  0  0  0  0  0  0
   56.6060   31.7280   52.7210 C   0  0  0  0  0  0  0  0  0  0  0  0
   56.0941   32.4386   53.3866 H   0  0  0  0  0  0  0  0  0  0  0  0
  1  2  1  0
  2  3  1  0
  3  4  1  0
  4  5  2  0
  5  6  1  0
  6  7  2  0
  6  8  1  0
  8  9  2  0
  9 10  1  0
  9 11  1  0
 11 12  1  0
 11 13  2  0
 13 14  1  0
 13 15  1  0
 15 16  1  0
 15 17  2  0
 17 18  1  0
 18 19  1  0
 18 20  1  0
 20 21  2  0
 20 22  1  0
 22 23  1  0
 22 24  1  0
 24 25  1  0
 24 26  1  0
 24 27  1  0
 27 28  1  0
 27 29  1  0
 27 30  1  0
 30 31  1  0
 31 32  1  0
 31 33  1  0
 31 34  1  0
 34 35  2  0
 35 36  1  0
 35 37  1  0
 37 38  1  0
 37 39  2  0
 39 40  1  0
 39 41  1  0
 41 42  1  0
 41 43  2  0
 43 44  1  0
 30 45  1  0
 45 46  1  0
 45 47  1  0
 45 48  1  0
 48 49  1  0
 48 50  1  0
  4 51  1  0
 51 52  1  0
 52 53  1  0
 52  2  2  0
 17  8  1  0
 48 22  1  0
 43 34  1  0
M  CHG  1   3  -1
M  END
>  <UniqueID>  (14) 
14

>  <SMILES>  (14) 
O=C(/N=c1/[n-]ccs1)c1ccccc1NC(=O)C1CCN(Cc2ccccc2)CC1

>  <Energy>  (14) 
103.65444234396735

>  <Genealogy>  (14) 
O=C(N=c1[n-]ccs1)c1ccccc1NC(=O)C1CCN(Cc2ccccc2)CC1 (protonated)
O=C(/N=c1/[n-]ccs1)c1ccccc1NC(=O)C1CCN(Cc2ccccc2)CC1 (cis-trans isomerization)
O=C(/N=c1/[n-]ccs1)c1ccccc1NC(=O)C1CCN(Cc2ccccc2)CC1 (3D coordinates assigned)
O=C(/N=c1/[n-]ccs1)c1ccccc1NC(=O)C1CCN(Cc2ccccc2)CC1 (nonaromatic ring conformer: 103.65444234396735 kcal/mol)

>  <smiles>  (14) 
O=C(N=c1[nH]ccs1)c1ccccc1NC(=O)C1CCN(Cc2ccccc2)CC1

>  <score_type>  (14) 
oracle

>  <origin>  (14) 
adg

>  <m_score__min__energy>  (14) 
-10.630000000000001

>  <m_primary>  (14) 
energy

$$$$
14:0
     RDKit          3D

 42 44  0  0  0  0  0  0  0  0999 V2000
   56.1030   22.5410   41.7020 H   0  0  0  0  0  0  0  0  0  0  0  0
   55.9460   22.3580   42.6870 O   0  0  0  0  0  0  0  0  0  0  0  0
   56.6350   23.0570   43.6760 C   0  0  0  0  0  0  0  0  0  0  0  0
   57.8300   22.5520   44.2040 C   0  0  0  0  0  0  0  0  0  0  0  0
   58.2324   21.5961   43.8375 H   0  0  0  0  0  0  0  0  0  0  0  0
   58.5110   23.2620   45.1960 C   0  0  0  0  0  0  0  0  0  0  0  0
   59.4485   22.8631   45.6106 H   0  0  0  0  0  0  0  0  0  0  0  0
   58.0040   24.4780   45.6630 C   0  0  0  0  0  0  0  0  0  0  0  0
   58.5462   25.0322   46.4433 H   0  0  0  0  0  0  0  0  0  0  0  0
   56.8050   24.9980   45.1420 C   0  0  0  0  0  0  0  0  0  0  0  0
   56.2650   26.2890   45.6330 C   0  0  0  0  0  0  0  0  0  0  0  0
   55.0690   26.3570   46.0300 O   0  0  0  0  0  0  0  0  0  0  0  0
   57.1040   27.4550   45.6540 N   0  0  0  0  0  0  0  0  0  0  0  0
   56.7820   28.6210   45.1810 C   0  0  0  0  0  0  0  0  0  0  0  0
   55.5190   28.9730   44.8880 N   0  0  0  0  0  0  0  0  0  0  0  0
   55.5820   30.2170   44.4410 N   0  0  0  0  0  0  0  0  0  0  0  0
   56.8840   30.5680   44.4780 C   0  0  0  0  0  0  0  0  0  0  0  0
   57.4050   31.9120   44.0880 C   0  0  0  0  0  0  0  0  0  0  0  0
   56.5726   32.5371   43.7326 H   0  0  0  0  0  0  0  0  0  0  0  0
   58.1490   31.7942   43.2864 H   0  0  0  0  0  0  0  0  0  0  0  0
   58.0530   32.5710   45.2730 C   0  0  0  0  0  0  0  0  0  0  0  0
   58.4880   33.9010   45.1930 C   0  0  0  0  0  0  0  0  0  0  0  0
   58.3813   34.4555   44.2490 H   0  0  0  0  0  0  0  0  0  0  0  0
   59.0560   34.5260   46.3050 C   0  0  0  0  0  0  0  0  0  0  0  0
   59.4030   35.5671   46.2295 H   0  0  0  0  0  0  0  0  0  0  0  0
   59.1870   33.8310   47.5220 C   0  0  0  0  0  0  0  0  0  0  0  0
   59.7540   34.4260   48.6610 O   0  0  0  0  0  0  0  0  0  0  0  0
   61.0900   34.2100   49.1050 C   0  0  0  0  0  0  0  0  0  0  0  0
   61.1148   34.2060   50.2047 H   0  0  0  0  0  0  0  0  0  0  0  0
   61.4502   33.2420   48.7266 H   0  0  0  0  0  0  0  0  0  0  0  0
   61.7369   35.0152   48.7266 H   0  0  0  0  0  0  0  0  0  0  0  0
   58.7390   32.5050   47.6160 C   0  0  0  0  0  0  0  0  0  0  0  0
   58.8720   31.8420   48.8470 O   0  0  0  0  0  0  0  0  0  0  0  0
   58.2400   32.2490   50.0560 C   0  0  0  0  0  0  0  0  0  0  0  0
   58.8177   31.8770   50.9150 H   0  0  0  0  0  0  0  0  0  0  0  0
   58.1933   33.3474   50.0936 H   0  0  0  0  0  0  0  0  0  0  0  0
   57.2207   31.8371   50.0936 H   0  0  0  0  0  0  0  0  0  0  0  0
   58.1700   31.8800   46.4890 C   0  0  0  0  0  0  0  0  0  0  0  0
   57.8144   30.8417   46.5626 H   0  0  0  0  0  0  0  0  0  0  0  0
   57.6300   29.5910   44.9360 O   0  0  0  0  0  0  0  0  0  0  0  0
   56.1260   24.2730   44.1430 C   0  0  0  0  0  0  0  0  0  0  0  0
   55.1871   24.6669   43.7266 H   0  0  0  0  0  0  0  0  0  0  0  0
  1  2  1  0
  2  3  1  0
  3  4  2  0
  4  5  1  0
  4  6  1  0
  6  7  1  0
  6  8  2  0
  8  9  1  0
  8 10  1  0
 10 11  1  0
 11 12  2  0
 11 13  1  0
 13 14  2  0
 14 15  1  0
 15 16  1  0
 16 17  2  0
 17 18  1  0
 18 19  1  0
 18 20  1  0
 18 21  1  0
 21 22  2  0
 22 23  1  0
 22 24  1  0
 24 25  1  0
 24 26  2  0
 26 27  1  0
 27 28  1  0
 28 29  1  0
 28 30  1  0
 28 31  1  0
 26 32  1  0
 32 33  1  0
 33 34  1  0
 34 35  1  0
 34 36  1  0
 34 37  1  0
 32 38  2  0
 38 39  1  0
 17 40  1  0
 10 41  2  0
 41 42  1  0
 41  3  1  0
 40 14  1  0
 38 21  1  0
M  CHG  1  15  -1
M  END
>  <UniqueID>  (15) 
15

>  <SMILES>  (15) 
COc1ccc(Cc2n[n-]/c(=N/C(=O)c3cccc(O)c3)o2)cc1OC

>  <Energy>  (15) 
78.16328273287981

>  <Genealogy>  (15) 
COc1ccc(Cc2n[n-]c(=NC(=O)c3cccc(O)c3)o2)cc1OC (protonated)
COc1ccc(Cc2n[n-]/c(=N/C(=O)c3cccc(O)c3)o2)cc1OC (cis-trans isomerization)
COc1ccc(Cc2n[n-]/c(=N/C(=O)c3cccc(O)c3)o2)cc1OC (3D coordinates assigned)
COc1ccc(Cc2n[n-]/c(=N/C(=O)c3cccc(O)c3)o2)cc1OC (optimized conformer: 78.16328273287981 kcal/mol)

>  <smiles>  (15) 
COc1ccc(Cc2n[nH]c(=NC(=O)c3cccc(O)c3)o2)cc1OC

>  <score_type>  (15) 
oracle

>  <origin>  (15) 
adg

>  <m_score__min__energy>  (15) 
-10.539999999999999

>  <m_primary>  (15) 
energy

$$$$
15:0
     RDKit          3D

 36 38  0  0  0  0  0  0  0  0999 V2000
   58.7810   31.8470   44.8180 O   0  0  0  0  0  0  0  0  0  0  0  0
   58.3210   30.7280   45.1670 C   0  0  0  0  0  0  0  0  0  0  0  0
   57.0320   30.4130   44.8700 N   0  0  0  0  0  0  0  0  0  0  0  0
   56.4840   29.2180   45.2130 C   0  0  0  0  0  0  0  0  0  0  0  0
   55.1480   28.9770   44.9160 O   0  0  0  0  0  0  0  0  0  0  0  0
   57.2610   28.2540   45.8790 C   0  0  0  0  0  0  0  0  0  0  0  0
   56.7140   26.9390   46.2750 C   0  0  0  0  0  0  0  0  0  0  0  0
   57.2200   25.7530   45.9010 C   0  0  0  0  0  0  0  0  0  0  0  0
   56.5770   24.8110   44.9530 C   0  0  0  0  0  0  0  0  0  0  0  0
   57.2700   24.3240   43.8290 C   0  0  0  0  0  0  0  0  0  0  0  0
   56.6580   23.4200   42.9570 C   0  0  0  0  0  0  0  0  0  0  0  0
   55.3570   22.9770   43.2070 C   0  0  0  0  0  0  0  0  0  0  0  0
   54.6680   23.4310   44.3350 C   0  0  0  0  0  0  0  0  0  0  0  0
   53.3790   22.9760   44.5850 O   0  0  0  0  0  0  0  0  0  0  0  0
   55.2760   24.3400   45.2120 C   0  0  0  0  0  0  0  0  0  0  0  0
   54.5770   24.7820   46.3320 O   0  0  0  0  0  0  0  0  0  0  0  0
   58.5800   28.5740   46.2230 C   0  0  0  0  0  0  0  0  0  0  0  0
   59.1280   29.8170   45.8630 C   0  0  0  0  0  0  0  0  0  0  0  0
   60.4790   30.1780   46.1840 N   0  0  0  0  0  0  0  0  0  0  0  0
   60.9500   31.2610   47.4530 S   0  0  0  0  0  0  0  0  0  0  0  0
   60.4810   30.7170   48.7730 O   0  0  0  0  0  0  0  0  0  0  0  0
   62.4470   31.3790   47.4740 O   0  0  0  0  0  0  0  0  0  0  0  0
   60.2580   32.8470   47.1660 C   0  0  0  0  0  0  0  0  0  0  0  0
   60.7920   33.8320   46.3480 C   0  0  0  0  0  0  0  0  0  0  0  0
   60.0320   35.0080   46.3460 C   0  0  0  0  0  0  0  0  0  0  0  0
   58.9070   34.9460   47.1610 C   0  0  0  0  0  0  0  0  0  0  0  0
   58.8580   33.4290   47.8870 S   0  0  0  0  0  0  0  0  0  0  0  0
   55.8262   26.9317   46.9245 H   0  0  0  0  0  0  0  0  0  0  0  0
   58.1878   25.4566   46.3317 H   0  0  0  0  0  0  0  0  0  0  0  0
   58.3003   24.6573   43.6357 H   0  0  0  0  0  0  0  0  0  0  0  0
   57.2014   23.0566   42.0723 H   0  0  0  0  0  0  0  0  0  0  0  0
   54.8745   22.2704   42.5156 H   0  0  0  0  0  0  0  0  0  0  0  0
   59.1913   27.8477   46.7787 H   0  0  0  0  0  0  0  0  0  0  0  0
   61.7146   33.7029   45.7630 H   0  0  0  0  0  0  0  0  0  0  0  0
   60.2995   35.8968   45.7556 H   0  0  0  0  0  0  0  0  0  0  0  0
   58.1732   35.7524   47.3065 H   0  0  0  0  0  0  0  0  0  0  0  0
  1  2  2  0
  2  3  1  0
  3  4  1  0
  4  5  1  0
  4  6  2  0
  6  7  1  0
  7  8  2  3
  8  9  1  0
  9 10  2  0
 10 11  1  0
 11 12  2  0
 12 13  1  0
 13 14  1  0
 13 15  2  0
 15 16  1  0
  6 17  1  0
 17 18  2  0
 18 19  1  0
 19 20  1  0
 20 21  2  0
 20 22  2  0
 20 23  1  0
 23 24  2  0
 24 25  1  0
 25 26  2  0
 26 27  1  0
 18  2  1  0
 27 23  1  0
 15  9  1  0
  7 28  1  0
  8 29  1  0
 10 30  1  0
 11 31  1  0
 12 32  1  0
 17 33  1  0
 24 34  1  0
 25 35  1  0
 26 36  1  0
M  CHG  5   3  -1   5  -1  14  -1  16  -1  19  -1
M  END
>  <UniqueID>  (16) 
16

>  <SMILES>  (16) 
O=c1[n-]c([O-])c(C=Cc2cccc([O-])c2[O-])cc1[N-]S(=O)(=O)c1cccs1

>  <Energy>  (16) 
80.96627741727613

>  <Genealogy>  (16) 
O=c1[n-]c([O-])c(C=Cc2cccc([O-])c2[O-])cc1[N-]S(=O)(=O)c1cccs1 (protonated)
O=c1[n-]c([O-])c(C=Cc2cccc([O-])c2[O-])cc1[N-]S(=O)(=O)c1cccs1 (3D coordinates assigned)
O=c1[n-]c([O-])c(C=Cc2cccc([O-])c2[O-])cc1[N-]S(=O)(=O)c1cccs1 (optimized conformer: 80.96627741727613 kcal/mol)

>  <smiles>  (16) 
O=c1[nH]c(O)c(C=Cc2cccc(O)c2O)cc1NS(=O)(=O)c1cccs1

>  <score_type>  (16) 
oracle

>  <origin>  (16) 
adg

>  <m_score__min__energy>  (16) 
-20.170000000000002

>  <m_primary>  (16) 
energy

$$$$
16:0
     RDKit          3D

 53 56  0  0  0  0  0  0  0  0999 V2000
   60.0830   23.7140   45.6220 C   0  0  0  0  0  0  0  0  0  0  0  0
   59.0810   24.7250   45.9840 N   0  0  0  0  0  0  0  0  0  0  0  0
   59.5260   25.9280   46.7080 C   0  0  0  0  0  0  0  0  0  0  0  0
   58.9230   27.1870   46.1310 C   0  0  0  0  0  0  0  0  0  0  0  0
   58.3040   28.1150   46.9870 C   0  0  0  0  0  0  0  0  0  0  0  0
   57.7150   29.2730   46.4700 C   0  0  0  0  0  0  0  0  0  0  0  0
   57.7280   29.5150   45.0900 C   0  0  0  0  0  0  0  0  0  0  0  0
   56.9970   30.9730   44.4290 S   0  0  0  0  0  0  0  0  0  0  0  0
   57.7340   31.3690   43.1820 O   0  0  0  0  0  0  0  0  0  0  0  0
   55.5520   30.7340   44.0910 O   0  0  0  0  0  0  0  0  0  0  0  0
   57.0990   32.2560   45.5860 N   0  0  0  0  0  0  0  0  0  0  0  0
   58.0650   33.3050   45.4860 C   0  0  0  0  0  0  0  0  0  0  0  0
   57.7700   34.3840   44.9040 O   0  0  0  0  0  0  0  0  0  0  0  0
   59.3720   33.1300   46.0460 N   0  0  0  0  0  0  0  0  0  0  0  0
   60.4180   34.1530   46.0060 C   0  0  0  0  0  0  0  0  0  0  0  0
   61.5530   33.4920   46.6940 C   0  0  0  0  0  0  0  0  0  0  0  0
   62.8250   34.0100   46.9380 C   0  0  0  0  0  0  0  0  0  0  0  0
   63.7600   33.2020   47.6070 C   0  0  0  0  0  0  0  0  0  0  0  0
   63.4090   31.9020   48.0180 C   0  0  0  0  0  0  0  0  0  0  0  0
   62.1230   31.4020   47.7610 C   0  0  0  0  0  0  0  0  0  0  0  0
   61.2100   32.2200   47.0950 C   0  0  0  0  0  0  0  0  0  0  0  0
   59.8110   31.9060   46.7160 C   0  0  0  0  0  0  0  0  0  0  0  0
   58.3230   28.5830   44.2300 C   0  0  0  0  0  0  0  0  0  0  0  0
   58.9120   27.4250   44.7450 C   0  0  0  0  0  0  0  0  0  0  0  0
   57.6840   24.5110   45.6660 C   0  0  0  0  0  0  0  0  0  0  0  0
   57.2600   23.3100   45.0650 C   0  0  0  0  0  0  0  0  0  0  0  0
   55.9120   23.1050   44.7590 C   0  0  0  0  0  0  0  0  0  0  0  0
   54.9690   24.0940   45.0420 C   0  0  0  0  0  0  0  0  0  0  0  0
   55.3720   25.2960   45.6310 C   0  0  0  0  0  0  0  0  0  0  0  0
   54.4410   26.2930   45.9140 O   0  0  0  0  0  0  0  0  0  0  0  0
   56.7200   25.5030   45.9410 C   0  0  0  0  0  0  0  0  0  0  0  0
   60.5131   23.2801   46.5367 H   0  0  0  0  0  0  0  0  0  0  0  0
   59.6053   22.9201   45.0291 H   0  0  0  0  0  0  0  0  0  0  0  0
   60.8811   24.1846   45.0291 H   0  0  0  0  0  0  0  0  0  0  0  0
   59.2251   25.8403   47.7624 H   0  0  0  0  0  0  0  0  0  0  0  0
   60.6196   25.9987   46.6126 H   0  0  0  0  0  0  0  0  0  0  0  0
   58.2830   27.9287   48.0709 H   0  0  0  0  0  0  0  0  0  0  0  0
   57.2399   29.9964   47.1490 H   0  0  0  0  0  0  0  0  0  0  0  0
   60.6797   34.4113   44.9693 H   0  0  0  0  0  0  0  0  0  0  0  0
   60.1172   35.1010   46.4760 H   0  0  0  0  0  0  0  0  0  0  0  0
   63.0900   35.0273   46.6142 H   0  0  0  0  0  0  0  0  0  0  0  0
   64.7702   33.5868   47.8104 H   0  0  0  0  0  0  0  0  0  0  0  0
   64.1456   31.2757   48.5426 H   0  0  0  0  0  0  0  0  0  0  0  0
   61.8411   30.3871   48.0779 H   0  0  0  0  0  0  0  0  0  0  0  0
   59.7697   31.0444   46.0334 H   0  0  0  0  0  0  0  0  0  0  0  0
   59.1800   31.6296   47.5736 H   0  0  0  0  0  0  0  0  0  0  0  0
   58.3267   28.7633   43.1449 H   0  0  0  0  0  0  0  0  0  0  0  0
   59.3701   26.6948   44.0617 H   0  0  0  0  0  0  0  0  0  0  0  0
   57.9966   22.5262   44.8344 H   0  0  0  0  0  0  0  0  0  0  0  0
   55.5931   22.1608   44.2934 H   0  0  0  0  0  0  0  0  0  0  0  0
   53.9086   23.9277   44.8016 H   0  0  0  0  0  0  0  0  0  0  0  0
   54.3780   26.7150   46.8330 H   0  0  0  0  0  0  0  0  0  0  0  0
   57.0319   26.4505   46.4047 H   0  0  0  0  0  0  0  0  0  0  0  0
  1  2  1  0
  2  3  1  0
  3  4  1  0
  4  5  2  0
  5  6  1  0
  6  7  2  0
  7  8  1  0
  8  9  2  0
  8 10  2  0
  8 11  1  0
 11 12  1  0
 12 13  2  0
 12 14  1  0
 14 15  1  0
 15 16  1  0
 16 17  2  0
 17 18  1  0
 18 19  2  0
 19 20  1  0
 20 21  2  0
 21 22  1  0
  7 23  1  0
 23 24  2  0
  2 25  1  0
 25 26  2  0
 26 27  1  0
 27 28  2  0
 28 29  1  0
 29 30  1  0
 29 31  2  0
 24  4  1  0
 31 25  1  0
 22 14  1  0
 21 16  1  0
  1 32  1  0
  1 33  1  0
  1 34  1  0
  3 35  1  0
  3 36  1  0
  5 37  1  0
  6 38  1  0
 15 39  1  0
 15 40  1  0
 17 41  1  0
 18 42  1  0
 19 43  1  0
 20 44  1  0
 22 45  1  0
 22 46  1  0
 23 47  1  0
 24 48  1  0
 26 49  1  0
 27 50  1  0
 28 51  1  0
 30 52  1  0
 31 53  1  0
M  CHG  1  11  -1
M  END
>  <UniqueID>  (17) 
17

>  <SMILES>  (17) 
CN(Cc1ccc(S(=O)(=O)[N-]C(=O)N2Cc3ccccc3C2)cc1)c1cccc(O)c1

>  <Energy>  (17) 
70.37046954591834

>  <Genealogy>  (17) 
CN(Cc1ccc(S(=O)(=O)[N-]C(=O)N2Cc3ccccc3C2)cc1)c1cccc(O)c1 (protonated)
CN(Cc1ccc(S(=O)(=O)[N-]C(=O)N2Cc3ccccc3C2)cc1)c1cccc(O)c1 (3D coordinates assigned)
CN(Cc1ccc(S(=O)(=O)[N-]C(=O)N2Cc3ccccc3C2)cc1)c1cccc(O)c1 (nonaromatic ring conformer: 70.37046954591834 kcal/mol)

>  <smiles>  (17) 
CN(Cc1ccc(S(=O)(=O)NC(=O)N2Cc3ccccc3C2)cc1)c1cccc(O)c1

>  <score_type>  (17) 
oracle

>  <origin>  (17) 
adg

>  <m_score__min__energy>  (17) 
-12.07

>  <m_primary>  (17) 
energy

$$$$
17:0
     RDKit          3D

 24 25  0  0  0  0  0  0  0  0999 V2000
   58.3392   22.9187   46.6441 H   0  0  0  0  0  0  0  0  0  0  0  0
   57.5160   23.6260   46.4650 C   0  0  0  0  0  0  0  0  0  0  0  0
   57.7870   24.9310   46.2030 N   0  0  0  0  0  0  0  0  0  0  0  0
   56.8130   25.8530   45.9710 C   0  0  0  0  0  0  0  0  0  0  0  0
   57.1870   27.0770   45.7170 N   0  0  0  0  0  0  0  0  0  0  0  0
   57.7180   28.0620   46.6120 C   0  0  0  0  0  0  0  0  0  0  0  0
   58.2630   27.6860   47.6820 O   0  0  0  0  0  0  0  0  0  0  0  0
   57.6300   29.4580   46.2870 N   0  0  0  0  0  0  0  0  0  0  0  0
   57.3740   30.0290   45.1420 C   0  0  0  0  0  0  0  0  0  0  0  0
   58.2920   30.9130   44.6610 N   0  0  0  0  0  0  0  0  0  0  0  0
   58.1400   31.5590   43.4760 C   0  0  0  0  0  0  0  0  0  0  0  0
   58.9118   32.2623   43.1300 H   0  0  0  0  0  0  0  0  0  0  0  0
   57.0070   31.3310   42.6990 C   0  0  0  0  0  0  0  0  0  0  0  0
   56.8865   31.8356   41.7291 H   0  0  0  0  0  0  0  0  0  0  0  0
   56.0280   30.4560   43.1650 C   0  0  0  0  0  0  0  0  0  0  0  0
   55.1269   30.2710   42.5619 H   0  0  0  0  0  0  0  0  0  0  0  0
   56.1860   29.8120   44.3960 C   0  0  0  0  0  0  0  0  0  0  0  0
   55.1410   29.0260   44.8660 O   0  0  0  0  0  0  0  0  0  0  0  0
   55.4560   25.4430   46.0570 C   0  0  0  0  0  0  0  0  0  0  0  0
   54.3970   26.3390   45.9590 O   0  0  0  0  0  0  0  0  0  0  0  0
   55.1640   24.0990   46.3050 C   0  0  0  0  0  0  0  0  0  0  0  0
   54.1173   23.7627   46.3410 H   0  0  0  0  0  0  0  0  0  0  0  0
   56.1960   23.1830   46.5070 C   0  0  0  0  0  0  0  0  0  0  0  0
   55.9703   22.1233   46.6972 H   0  0  0  0  0  0  0  0  0  0  0  0
  1  2  1  0
  2  3  1  0
  3  4  1  0
  4  5  2  0
  5  6  1  0
  6  7  2  0
  6  8  1  0
  8  9  2  0
  9 10  1  0
 10 11  1  0
 11 12  1  0
 11 13  2  0
 13 14  1  0
 13 15  1  0
 15 16  1  0
 15 17  2  0
 17 18  1  0
  4 19  1  0
 19 20  1  0
 19 21  2  0
 21 22  1  0
 21 23  1  0
 23 24  1  0
 23  2  2  0
 17  9  1  0
M  CHG  4   3  -1  10  -1  18  -1  20  -1
M  END
>  <UniqueID>  (18) 
18

>  <SMILES>  (18) 
O=C(/N=c1/[n-]cccc1[O-])/N=c1/[n-]cccc1[O-]

>  <Energy>  (18) 
51.122610679180895

>  <Genealogy>  (18) 
O=C(N=c1[n-]cccc1[O-])N=c1[n-]cccc1[O-] (protonated)
O=C(/N=c1/[n-]cccc1[O-])/N=c1/[n-]cccc1[O-] (cis-trans isomerization)
O=C(/N=c1/[n-]cccc1[O-])/N=c1/[n-]cccc1[O-] (3D coordinates assigned)
O=C(/N=c1/[n-]cccc1[O-])/N=c1/[n-]cccc1[O-] (optimized conformer: 51.122610679180895 kcal/mol)

>  <smiles>  (18) 
O=C(N=c1[nH]cccc1O)N=c1[nH]cccc1O

>  <score_type>  (18) 
oracle

>  <origin>  (18) 
adg

>  <m_score__min__energy>  (18) 
-15.57

>  <m_primary>  (18) 
energy

$$$$
18:0
     RDKit          3D

 69 74  0  0  0  0  0  0  0  0999 V2000
   57.9010   32.3030   48.8430 O   0  0  0  0  0  0  0  0  0  0  0  0
   58.5450   32.5770   47.7920 C   0  0  0  0  0  0  0  0  0  0  0  0
   59.6220   31.7300   47.3520 N   0  0  0  0  0  0  0  0  0  0  0  0
   60.0000   30.4570   48.0040 C   0  0  1  0  0  0  0  0  0  0  0  0
   59.5920   29.2600   47.0810 C   0  0  0  0  0  0  0  0  0  0  0  0
   58.6270   29.6240   45.9660 C   0  0  0  0  0  0  0  0  0  0  0  0
   59.0470   30.4710   44.9220 C   0  0  0  0  0  0  0  0  0  0  0  0
   58.1790   30.7920   43.8740 C   0  0  0  0  0  0  0  0  0  0  0  0
   56.8790   30.2860   43.8620 C   0  0  0  0  0  0  0  0  0  0  0  0
   56.4420   29.4620   44.9020 C   0  0  0  0  0  0  0  0  0  0  0  0
   55.1430   28.9680   44.8950 O   0  0  0  0  0  0  0  0  0  0  0  0
   57.3090   29.1350   45.9510 C   0  0  0  0  0  0  0  0  0  0  0  0
   61.5460   30.4660   48.2700 C   0  0  0  0  0  0  0  0  0  0  0  0
   62.1490   31.8280   48.5440 C   0  0  0  0  0  0  0  0  0  0  0  0
   62.4940   32.7670   47.5730 C   0  0  0  0  0  0  0  0  0  0  0  0
   62.9660   33.8950   48.1440 N   0  0  0  0  0  0  0  0  0  0  0  0
   62.9350   33.6800   49.4690 C   0  0  0  0  0  0  0  0  0  0  0  0
   63.3410   34.5600   50.4720 C   0  0  0  0  0  0  0  0  0  0  0  0
   63.2440   34.1270   51.8060 C   0  0  0  0  0  0  0  0  0  0  0  0
   62.7560   32.8360   52.1030 C   0  0  0  0  0  0  0  0  0  0  0  0
   62.3560   31.9690   51.0710 C   0  0  0  0  0  0  0  0  0  0  0  0
   62.4480   32.4270   49.7570 C   0  0  0  0  0  0  0  0  0  0  0  0
   59.2760   30.3650   49.3370 C   0  0  0  0  0  0  0  0  0  0  0  0
   58.1910   29.5930   49.5580 N   0  0  0  0  0  0  0  0  0  0  0  0
   57.9260   29.6700   50.8500 N   0  0  0  0  0  0  0  0  0  0  0  0
   58.8540   30.4840   51.3830 C   0  0  0  0  0  0  0  0  0  0  0  0
   59.0000   30.7170   52.8510 C   0  0  0  0  0  0  0  0  0  0  0  0
   58.9150   32.1920   53.1320 C   0  0  0  0  0  0  0  0  0  0  0  0
   59.3720   32.7060   54.3590 C   0  0  0  0  0  0  0  0  0  0  0  0
   59.3640   34.0840   54.5910 C   0  0  0  0  0  0  0  0  0  0  0  0
   58.9120   34.9590   53.5980 C   0  0  0  0  0  0  0  0  0  0  0  0
   58.4660   34.4570   52.3740 C   0  0  0  0  0  0  0  0  0  0  0  0
   58.4690   33.0790   52.1380 C   0  0  0  0  0  0  0  0  0  0  0  0
   59.7410   30.9270   50.4710 N   0  0  0  0  0  0  0  0  0  0  0  0
   58.2080   33.8220   47.0200 C   0  0  2  0  0  0  0  0  0  0  0  0
   57.0700   33.5720   46.0390 C   0  0  0  0  0  0  0  0  0  0  0  0
   57.3910   34.4800   44.8800 C   0  0  0  0  0  0  0  0  0  0  0  0
   58.9060   34.5760   44.8930 C   0  0  0  0  0  0  0  0  0  0  0  0
   59.3710   34.2800   46.2500 N   0  0  0  0  0  0  0  0  0  0  0  0
   60.1270   32.0190   46.4830 H   0  0  0  0  0  0  0  0  0  0  0  0
   60.5056   28.8512   46.6247 H   0  0  0  0  0  0  0  0  0  0  0  0
   59.0695   28.5349   47.7222 H   0  0  0  0  0  0  0  0  0  0  0  0
   60.0667   30.8835   44.9312 H   0  0  0  0  0  0  0  0  0  0  0  0
   58.5217   31.4446   43.0575 H   0  0  0  0  0  0  0  0  0  0  0  0
   56.1987   30.5356   43.0344 H   0  0  0  0  0  0  0  0  0  0  0  0
   56.9565   28.4906   46.7698 H   0  0  0  0  0  0  0  0  0  0  0  0
   61.7443   29.8252   49.1418 H   0  0  0  0  0  0  0  0  0  0  0  0
   62.0157   30.1071   47.3424 H   0  0  0  0  0  0  0  0  0  0  0  0
   62.3949   32.6098   46.4888 H   0  0  0  0  0  0  0  0  0  0  0  0
   63.2930   34.7560   47.6510 H   0  0  0  0  0  0  0  0  0  0  0  0
   63.7250   35.5613   50.2270 H   0  0  0  0  0  0  0  0  0  0  0  0
   63.5499   34.7976   52.6226 H   0  0  0  0  0  0  0  0  0  0  0  0
   62.6882   32.5058   53.1501 H   0  0  0  0  0  0  0  0  0  0  0  0
   61.9814   30.9590   51.2935 H   0  0  0  0  0  0  0  0  0  0  0  0
   58.1949   30.1939   53.3878 H   0  0  0  0  0  0  0  0  0  0  0  0
   59.9737   30.3333   53.1895 H   0  0  0  0  0  0  0  0  0  0  0  0
   59.7369   32.0210   55.1385 H   0  0  0  0  0  0  0  0  0  0  0  0
   59.7135   34.4809   55.5555 H   0  0  0  0  0  0  0  0  0  0  0  0
   58.9079   36.0436   53.7815 H   0  0  0  0  0  0  0  0  0  0  0  0
   58.1116   35.1469   51.5939 H   0  0  0  0  0  0  0  0  0  0  0  0
   58.1209   32.6879   51.1706 H   0  0  0  0  0  0  0  0  0  0  0  0
   57.9064   34.5841   47.7537 H   0  0  0  0  0  0  0  0  0  0  0  0
   57.0518   32.5196   45.7194 H   0  0  0  0  0  0  0  0  0  0  0  0
   56.0800   33.7714   46.4750 H   0  0  0  0  0  0  0  0  0  0  0  0
   57.0354   34.0460   43.9339 H   0  0  0  0  0  0  0  0  0  0  0  0
   56.9050   35.4630   44.9668 H   0  0  0  0  0  0  0  0  0  0  0  0
   59.3314   33.8482   44.1864 H   0  0  0  0  0  0  0  0  0  0  0  0
   59.2257   35.5849   44.5931 H   0  0  0  0  0  0  0  0  0  0  0  0
   59.7370   35.1600   46.6830 H   0  0  0  0  0  0  0  0  0  0  0  0
  1  2  2  0
  2  3  1  0
  4  3  1  6
  4  5  1  0
  5  6  1  0
  6  7  2  0
  7  8  1  0
  8  9  2  0
  9 10  1  0
 10 11  1  0
 10 12  2  0
  4 13  1  0
 13 14  1  0
 14 15  2  0
 15 16  1  0
 16 17  1  0
 17 18  2  0
 18 19  1  0
 19 20  2  0
 20 21  1  0
 21 22  2  0
  4 23  1  0
 23 24  2  0
 24 25  1  0
 25 26  1  0
 26 27  1  0
 27 28  1  0
 28 29  2  0
 29 30  1  0
 30 31  2  0
 31 32  1  0
 32 33  2  0
 26 34  2  0
  2 35  1  0
 35 36  1  0
 36 37  1  0
 37 38  1  0
 38 39  1  0
 12  6  1  0
 22 14  1  0
 34 23  1  0
 39 35  1  0
 22 17  1  0
 33 28  1  0
  3 40  1  0
  5 41  1  0
  5 42  1  0
  7 43  1  0
  8 44  1  0
  9 45  1  0
 12 46  1  0
 13 47  1  0
 13 48  1  0
 15 49  1  0
 16 50  1  0
 18 51  1  0
 19 52  1  0
 20 53  1  0
 21 54  1  0
 27 55  1  0
 27 56  1  0
 29 57  1  0
 30 58  1  0
 31 59  1  0
 32 60  1  0
 33 61  1  0
 35 62  1  1
 36 63  1  0
 36 64  1  0
 37 65  1  0
 37 66  1  0
 38 67  1  0
 38 68  1  0
 39 69  1  0
M  CHG  2  11  -1  25  -1
M  END
>  <UniqueID>  (19) 
19

>  <SMILES>  (19) 
O=C(N[C@@](Cc1cccc([O-])c1)(Cc1c[nH]c2ccccc12)c1n[n-]c(Cc2ccccc2)n1)[C@@H]1CCCN1

>  <Energy>  (19) 
138.48000465219562

>  <Genealogy>  (19) 
O=C(NC(Cc1cccc([O-])c1)(Cc1c[nH]c2ccccc12)c1n[n-]c(Cc2ccccc2)n1)C1CCCN1 (protonated)
O=C(N[C@@](Cc1cccc([O-])c1)(Cc1c[nH]c2ccccc12)c1n[n-]c(Cc2ccccc2)n1)[C@@H]1CCCN1 (chirality)
O=C(N[C@@](Cc1cccc([O-])c1)(Cc1c[nH]c2ccccc12)c1n[n-]c(Cc2ccccc2)n1)[C@@H]1CCCN1 (3D coordinates assigned)
O=C(N[C@@](Cc1cccc([O-])c1)(Cc1c[nH]c2ccccc12)c1n[n-]c(Cc2ccccc2)n1)[C@@H]1CCCN1 (nonaromatic ring conformer: 138.48000465219562 kcal/mol)

>  <smiles>  (19) 
O=C(NC(Cc1cccc(O)c1)(Cc1c[nH]c2ccccc12)c1n[nH]c(Cc2ccccc2)n1)C1CCCN1

>  <score_type>  (19) 
oracle

>  <origin>  (19) 
adg

>  <m_score__min__energy>  (19) 
-14.84

>  <m_primary>  (19) 
energy

$$$$
19:0
     RDKit          3D

 52 55  0  0  0  0  0  0  0  0999 V2000
   60.3690   33.8360   45.3960 O   0  0  0  0  0  0  0  0  0  0  0  0
   59.5800   34.0460   46.3810 C   0  0  0  0  0  0  0  0  0  0  0  0
   58.2530   34.5830   46.0490 C   0  0  0  0  0  0  0  0  0  0  0  0
   57.3260   33.6110   44.8890 S   0  0  0  0  0  0  0  0  0  0  0  0
   57.5770   31.8750   44.9790 C   0  0  0  0  0  0  0  0  0  0  0  0
   56.4730   31.0800   44.8570 N   0  0  0  0  0  0  0  0  0  0  0  0
   56.5700   29.7420   44.9020 C   0  0  0  0  0  0  0  0  0  0  0  0
   55.5190   29.0460   44.7850 O   0  0  0  0  0  0  0  0  0  0  0  0
   57.7990   29.0970   45.0720 C   0  0  0  0  0  0  0  0  0  0  0  0
   58.8940   29.9130   45.1920 C   0  0  0  0  0  0  0  0  0  0  0  0
   58.7380   31.2460   45.1410 N   0  0  0  0  0  0  0  0  0  0  0  0
   60.2570   29.3180   45.3790 C   0  0  0  0  0  0  0  0  0  0  0  0
   60.0090   28.0320   46.1780 C   0  0  0  0  0  0  0  0  0  0  0  0
   59.2390   27.1210   45.2500 C   0  0  0  0  0  0  0  0  0  0  0  0
   57.8400   27.6220   45.1130 C   0  0  0  0  0  0  0  0  0  0  0  0
   60.0820   33.7430   47.6560 N   0  0  0  0  0  0  0  0  0  0  0  0
   61.3780   33.2340   47.9280 C   0  0  0  0  0  0  0  0  0  0  0  0
   62.4460   33.8550   47.2890 C   0  0  0  0  0  0  0  0  0  0  0  0
   63.7510   33.4720   47.4680 C   0  0  0  0  0  0  0  0  0  0  0  0
   64.0130   32.4180   48.3250 C   0  0  0  0  0  0  0  0  0  0  0  0
   62.9640   31.7960   48.9640 C   0  0  0  0  0  0  0  0  0  0  0  0
   61.6470   32.1910   48.7750 C   0  0  0  0  0  0  0  0  0  0  0  0
   60.6430   31.4850   49.4540 N   0  0  0  0  0  0  0  0  0  0  0  0
   59.8200   32.0090   50.4940 C   0  0  0  0  0  0  0  0  0  0  0  0
   58.3820   31.5470   50.4010 C   0  0  0  0  0  0  0  0  0  0  0  0
   58.2360   30.2750   49.8840 O   0  0  0  0  0  0  0  0  0  0  0  0
   58.9300   30.0260   48.7250 C   0  0  0  0  0  0  0  0  0  0  0  0
   60.4200   30.0860   49.0600 C   0  0  0  0  0  0  0  0  0  0  0  0
   57.6700   34.6539   46.9791 H   0  0  0  0  0  0  0  0  0  0  0  0
   58.4245   35.5578   45.5690 H   0  0  0  0  0  0  0  0  0  0  0  0
   59.5910   31.8210   45.2450 H   0  0  0  0  0  0  0  0  0  0  0  0
   60.7178   29.0889   44.4068 H   0  0  0  0  0  0  0  0  0  0  0  0
   60.9456   30.0040   45.8941 H   0  0  0  0  0  0  0  0  0  0  0  0
   60.9640   27.5685   46.4663 H   0  0  0  0  0  0  0  0  0  0  0  0
   59.4549   28.2299   47.1074 H   0  0  0  0  0  0  0  0  0  0  0  0
   59.7230   27.1090   44.2623 H   0  0  0  0  0  0  0  0  0  0  0  0
   59.2258   26.1015   45.6629 H   0  0  0  0  0  0  0  0  0  0  0  0
   57.4072   27.2257   44.1826 H   0  0  0  0  0  0  0  0  0  0  0  0
   57.2633   27.2833   45.9863 H   0  0  0  0  0  0  0  0  0  0  0  0
   59.4690   33.9100   48.4800 H   0  0  0  0  0  0  0  0  0  0  0  0
   62.2342   34.6926   46.6081 H   0  0  0  0  0  0  0  0  0  0  0  0
   64.5679   33.9895   46.9437 H   0  0  0  0  0  0  0  0  0  0  0  0
   65.0465   32.0811   48.4938 H   0  0  0  0  0  0  0  0  0  0  0  0
   63.1765   30.9595   49.6460 H   0  0  0  0  0  0  0  0  0  0  0  0
   60.2301   31.6852   51.4620 H   0  0  0  0  0  0  0  0  0  0  0  0
   59.8204   33.1043   50.3929 H   0  0  0  0  0  0  0  0  0  0  0  0
   57.9471   31.5624   51.4113 H   0  0  0  0  0  0  0  0  0  0  0  0
   57.8698   32.2333   49.7106 H   0  0  0  0  0  0  0  0  0  0  0  0
   58.6716   29.0287   48.3394 H   0  0  0  0  0  0  0  0  0  0  0  0
   58.6760   30.7684   47.9541 H   0  0  0  0  0  0  0  0  0  0  0  0
   60.6618   29.4038   49.8883 H   0  0  0  0  0  0  0  0  0  0  0  0
   61.0551   29.7787   48.2161 H   0  0  0  0  0  0  0  0  0  0  0  0
  1  2  2  0
  2  3  1  0
  3  4  1  0
  4  5  1  0
  5  6  2  0
  6  7  1  0
  7  8  2  0
  7  9  1  0
  9 10  2  0
 10 11  1  0
 10 12  1  0
 12 13  1  0
 13 14  1  0
 14 15  1  0
  2 16  1  0
 16 17  1  0
 17 18  2  0
 18 19  1  0
 19 20  2  0
 20 21  1  0
 21 22  2  0
 22 23  1  0
 23 24  1  0
 24 25  1  0
 25 26  1  0
 26 27  1  0
 27 28  1  0
 11  5  1  0
 22 17  1  0
 28 23  1  0
 15  9  1  0
  3 29  1  0
  3 30  1  0
 11 31  1  0
 12 32  1  0
 12 33  1  0
 13 34  1  0
 13 35  1  0
 14 36  1  0
 14 37  1  0
 15 38  1  0
 15 39  1  0
 16 40  1  0
 18 41  1  0
 19 42  1  0
 20 43  1  0
 21 44  1  0
 24 45  1  0
 24 46  1  0
 25 47  1  0
 25 48  1  0
 27 49  1  0
 27 50  1  0
 28 51  1  0
 28 52  1  0
M  END
>  <smiles>  (20) 
O=C(CSc1nc(=O)c2c([nH]1)CCCC2)Nc1ccccc1N1CCOCC1

>  <score_type>  (20) 
oracle

>  <origin>  (20) 
adg

>  <m_score__min__energy>  (20) 
-9.1300000000000008

>  <m_primary>  (20) 
energy

$$$$
20:0
     RDKit          3D

 40 42  0  0  0  0  0  0  0  0999 V2000
   55.9940   24.9710   45.5560 C   0  0  0  0  0  0  0  0  0  0  0  0
   57.4830   24.6880   45.5890 C   0  0  0  0  0  0  0  0  0  0  0  0
   58.0040   23.4160   45.2260 C   0  0  0  0  0  0  0  0  0  0  0  0
   57.1170   22.2830   44.7370 C   0  0  0  0  0  0  0  0  0  0  0  0
   56.4390   21.5850   45.8870 C   0  0  0  0  0  0  0  0  0  0  0  0
   55.3220   21.0290   45.7040 O   0  0  0  0  0  0  0  0  0  0  0  0
   57.0260   21.5910   47.2370 C   0  0  0  0  0  0  0  0  0  0  0  0
   57.0130   22.6450   47.9260 O   0  0  0  0  0  0  0  0  0  0  0  0
   57.6000   20.4400   47.7670 O   0  0  0  0  0  0  0  0  0  0  0  0
   59.3920   23.2000   45.3550 C   0  0  0  0  0  0  0  0  0  0  0  0
   59.8940   22.0740   45.0940 O   0  0  0  0  0  0  0  0  0  0  0  0
   60.1970   24.1750   45.7530 O   0  0  0  0  0  0  0  0  0  0  0  0
   59.7670   25.3930   46.0480 C   0  0  0  0  0  0  0  0  0  0  0  0
   60.6940   26.3620   46.4380 C   0  0  0  0  0  0  0  0  0  0  0  0
   60.2760   27.6570   46.7410 C   0  0  0  0  0  0  0  0  0  0  0  0
   58.9200   28.0070   46.6530 C   0  0  0  0  0  0  0  0  0  0  0  0
   58.4880   29.3880   46.9670 C   0  0  0  0  0  0  0  0  0  0  0  0
   59.1280   30.0740   47.8100 O   0  0  0  0  0  0  0  0  0  0  0  0
   57.3320   29.9070   46.3630 O   0  0  0  0  0  0  0  0  0  0  0  0
   57.2120   30.2670   45.0130 C   0  0  0  0  0  0  0  0  0  0  0  0
   58.1720   31.0660   44.3620 C   0  0  0  0  0  0  0  0  0  0  0  0
   58.0190   31.3910   43.0100 C   0  0  0  0  0  0  0  0  0  0  0  0
   56.9170   30.9160   42.2960 C   0  0  0  0  0  0  0  0  0  0  0  0
   55.9700   30.1070   42.9300 C   0  0  0  0  0  0  0  0  0  0  0  0
   56.1180   29.7800   44.2810 C   0  0  0  0  0  0  0  0  0  0  0  0
   55.1720   28.9710   44.9000 O   0  0  0  0  0  0  0  0  0  0  0  0
   57.9840   27.0310   46.2650 C   0  0  0  0  0  0  0  0  0  0  0  0
   58.3910   25.7100   45.9690 C   0  0  0  0  0  0  0  0  0  0  0  0
   55.6117   25.0437   46.5849 H   0  0  0  0  0  0  0  0  0  0  0  0
   55.8127   25.9197   45.0296 H   0  0  0  0  0  0  0  0  0  0  0  0
   55.4773   24.1550   45.0296 H   0  0  0  0  0  0  0  0  0  0  0  0
   56.3497   22.6932   44.0639 H   0  0  0  0  0  0  0  0  0  0  0  0
   57.7465   21.5518   44.2087 H   0  0  0  0  0  0  0  0  0  0  0  0
   61.7606   26.1018   46.5065 H   0  0  0  0  0  0  0  0  0  0  0  0
   61.0150   28.4103   47.0515 H   0  0  0  0  0  0  0  0  0  0  0  0
   59.0455   31.4359   44.9189 H   0  0  0  0  0  0  0  0  0  0  0  0
   58.7679   32.0217   42.5086 H   0  0  0  0  0  0  0  0  0  0  0  0
   56.7943   31.1785   41.2348 H   0  0  0  0  0  0  0  0  0  0  0  0
   55.1064   29.7268   42.3647 H   0  0  0  0  0  0  0  0  0  0  0  0
   56.9199   27.2997   46.1909 H   0  0  0  0  0  0  0  0  0  0  0  0
  1  2  1  0
  2  3  2  0
  3  4  1  0
  4  5  1  0
  5  6  2  0
  5  7  1  0
  7  8  2  0
  7  9  1  0
  3 10  1  0
 10 11  2  0
 10 12  1  0
 12 13  1  0
 13 14  2  0
 14 15  1  0
 15 16  2  0
 16 17  1  0
 17 18  2  0
 17 19  1  0
 19 20  1  0
 20 21  2  0
 21 22  1  0
 22 23  2  0
 23 24  1  0
 24 25  2  0
 25 26  1  0
 16 27  1  0
 27 28  2  0
 28  2  1  0
 28 13  1  0
 25 20  1  0
  1 29  1  0
  1 30  1  0
  1 31  1  0
  4 32  1  0
  4 33  1  0
 14 34  1  0
 15 35  1  0
 21 36  1  0
 22 37  1  0
 23 38  1  0
 24 39  1  0
 27 40  1  0
M  CHG  2   9  -1  26  -1
M  END
>  <UniqueID>  (21) 
20

>  <SMILES>  (21) 
Cc1c(CC(=O)C(=O)[O-])c(=O)oc2ccc(C(=O)Oc3ccccc3[O-])cc12

>  <Energy>  (21) 
57.187828464128096

>  <Genealogy>  (21) 
Cc1c(CC(=O)C(=O)[O-])c(=O)oc2ccc(C(=O)Oc3ccccc3[O-])cc12 (protonated)
Cc1c(CC(=O)C(=O)[O-])c(=O)oc2ccc(C(=O)Oc3ccccc3[O-])cc12 (3D coordinates assigned)
Cc1c(CC(=O)C(=O)[O-])c(=O)oc2ccc(C(=O)Oc3ccccc3[O-])cc12 (optimized conformer: 57.187828464128096 kcal/mol)

>  <smiles>  (21) 
Cc1c(CC(=O)C(=O)O)c(=O)oc2ccc(C(=O)Oc3ccccc3O)cc12

>  <score_type>  (21) 
oracle

>  <origin>  (21) 
adg

>  <m_score__min__energy>  (21) 
-13.74

>  <m_primary>  (21) 
energy

$$$$
21:0
     RDKit          3D

 53 55  0  0  0  0  0  0  0  0999 V2000
   59.1820   32.6810   49.8400 C   0  0  0  0  0  0  0  0  0  0  0  0
   58.4460   32.3280   48.6720 O   0  0  0  0  0  0  0  0  0  0  0  0
   58.6060   32.9370   47.4150 C   0  0  0  0  0  0  0  0  0  0  0  0
   59.0250   34.2770   47.2930 C   0  0  0  0  0  0  0  0  0  0  0  0
   59.1720   34.8600   46.0310 C   0  0  0  0  0  0  0  0  0  0  0  0
   58.9150   34.1160   44.8820 C   0  0  0  0  0  0  0  0  0  0  0  0
   58.5030   32.7870   44.9860 C   0  0  0  0  0  0  0  0  0  0  0  0
   58.3390   32.1870   46.2470 C   0  0  0  0  0  0  0  0  0  0  0  0
   57.8120   30.7760   46.3300 C   0  0  0  0  0  0  0  0  0  0  0  0
   57.0520   30.4620   45.1270 N   0  0  0  0  0  0  0  0  0  0  0  0
   56.4710   29.1780   44.8780 C   0  0  0  0  0  0  0  0  0  0  0  0
   55.2200   29.0320   44.8780 O   0  0  0  0  0  0  0  0  0  0  0  0
   57.3570   27.9870   44.6550 C   0  0  0  0  0  0  0  0  0  0  0  0
   57.4470   27.1390   45.8570 N   0  0  0  0  0  0  0  0  0  0  0  0
   58.7820   26.7760   46.3560 C   0  0  0  0  0  0  0  0  0  0  0  0
   59.5080   27.9990   46.8500 C   0  0  0  0  0  0  0  0  0  0  0  0
   59.3530   28.4250   48.1790 C   0  0  0  0  0  0  0  0  0  0  0  0
   59.9980   29.5830   48.6270 C   0  0  0  0  0  0  0  0  0  0  0  0
   60.7920   30.3250   47.7490 C   0  0  0  0  0  0  0  0  0  0  0  0
   60.9410   29.9140   46.4210 C   0  0  0  0  0  0  0  0  0  0  0  0
   60.2980   28.7570   45.9710 C   0  0  0  0  0  0  0  0  0  0  0  0
   56.3060   26.3670   46.2890 C   0  0  0  0  0  0  0  0  0  0  0  0
   55.1470   26.7270   45.9490 O   0  0  0  0  0  0  0  0  0  0  0  0
   56.4510   25.1620   47.0520 N   0  0  0  0  0  0  0  0  0  0  0  0
   56.3150   23.8100   46.5900 C   0  0  0  0  0  0  0  0  0  0  0  0
   56.5680   22.7670   47.4900 C   0  0  0  0  0  0  0  0  0  0  0  0
   56.4640   21.4350   47.0780 C   0  0  0  0  0  0  0  0  0  0  0  0
   56.1100   21.1350   45.7590 C   0  0  0  0  0  0  0  0  0  0  0  0
   55.9830   19.4640   45.2400 Cl  0  0  0  0  0  0  0  0  0  0  0  0
   55.8720   22.1690   44.8510 C   0  0  0  0  0  0  0  0  0  0  0  0
   55.9910   23.5010   45.2570 C   0  0  0  0  0  0  0  0  0  0  0  0
   58.6049   32.4042   50.7346 H   0  0  0  0  0  0  0  0  0  0  0  0
   60.1430   32.1458   49.8435 H   0  0  0  0  0  0  0  0  0  0  0  0
   59.3662   33.7655   49.8435 H   0  0  0  0  0  0  0  0  0  0  0  0
   59.2377   34.8677   48.1962 H   0  0  0  0  0  0  0  0  0  0  0  0
   59.4915   35.9091   45.9452 H   0  0  0  0  0  0  0  0  0  0  0  0
   59.0371   34.5770   43.8907 H   0  0  0  0  0  0  0  0  0  0  0  0
   58.3049   32.2041   44.0744 H   0  0  0  0  0  0  0  0  0  0  0  0
   58.6554   30.0759   46.4224 H   0  0  0  0  0  0  0  0  0  0  0  0
   57.1564   30.6840   47.2085 H   0  0  0  0  0  0  0  0  0  0  0  0
   56.9481   27.3890   43.8272 H   0  0  0  0  0  0  0  0  0  0  0  0
   58.3672   28.3520   44.4177 H   0  0  0  0  0  0  0  0  0  0  0  0
   58.6771   26.0581   47.1828 H   0  0  0  0  0  0  0  0  0  0  0  0
   59.3594   26.3254   45.5353 H   0  0  0  0  0  0  0  0  0  0  0  0
   58.7224   27.8464   48.8701 H   0  0  0  0  0  0  0  0  0  0  0  0
   59.8799   29.9093   49.6708 H   0  0  0  0  0  0  0  0  0  0  0  0
   61.3006   31.2338   48.1030 H   0  0  0  0  0  0  0  0  0  0  0  0
   61.5641   30.5010   45.7302 H   0  0  0  0  0  0  0  0  0  0  0  0
   60.4115   28.4392   44.9240 H   0  0  0  0  0  0  0  0  0  0  0  0
   56.8504   22.9974   48.5279 H   0  0  0  0  0  0  0  0  0  0  0  0
   56.6609   20.6221   47.7924 H   0  0  0  0  0  0  0  0  0  0  0  0
   55.5902   21.9345   43.8139 H   0  0  0  0  0  0  0  0  0  0  0  0
   55.8305   24.3113   44.5306 H   0  0  0  0  0  0  0  0  0  0  0  0
  1  2  1  0
  2  3  1  0
  3  4  2  0
  4  5  1  0
  5  6  2  0
  6  7  1  0
  7  8  2  0
  8  9  1  0
  9 10  1  0
 10 11  1  0
 11 12  2  0
 11 13  1  0
 13 14  1  0
 14 15  1  0
 15 16  1  0
 16 17  2  0
 17 18  1  0
 18 19  2  0
 19 20  1  0
 20 21  2  0
 14 22  1  0
 22 23  2  0
 22 24  1  0
 24 25  1  0
 25 26  2  0
 26 27  1  0
 27 28  2  0
 28 29  1  0
 28 30  1  0
 30 31  2  0
  8  3  1  0
 21 16  1  0
 31 25  1  0
  1 32  1  0
  1 33  1  0
  1 34  1  0
  4 35  1  0
  5 36  1  0
  6 37  1  0
  7 38  1  0
  9 39  1  0
  9 40  1  0
 13 41  1  0
 13 42  1  0
 15 43  1  0
 15 44  1  0
 17 45  1  0
 18 46  1  0
 19 47  1  0
 20 48  1  0
 21 49  1  0
 26 50  1  0
 27 51  1  0
 30 52  1  0
 31 53  1  0
M  CHG  2  10  -1  24  -1
M  END
>  <UniqueID>  (22) 
21

>  <SMILES>  (22) 
COc1ccccc1C[N-]C(=O)CN(Cc1ccccc1)C(=O)[N-]c1ccc(Cl)cc1

>  <Energy>  (22) 
52.61363294527561

>  <Genealogy>  (22) 
COc1ccccc1C[N-]C(=O)CN(Cc1ccccc1)C(=O)[N-]c1ccc(Cl)cc1 (protonated)
COc1ccccc1C[N-]C(=O)CN(Cc1ccccc1)C(=O)[N-]c1ccc(Cl)cc1 (3D coordinates assigned)
COc1ccccc1C[N-]C(=O)CN(Cc1ccccc1)C(=O)[N-]c1ccc(Cl)cc1 (optimized conformer: 52.61363294527561 kcal/mol)

>  <smiles>  (22) 
COc1ccccc1CNC(=O)CN(Cc1ccccc1)C(=O)Nc1ccc(Cl)cc1

>  <score_type>  (22) 
oracle

>  <origin>  (22) 
adg

>  <m_score__min__energy>  (22) 
-11.76

>  <m_primary>  (22) 
energy

$$$$
22:0
     RDKit          3D

 45 47  0  0  0  0  0  0  0  0999 V2000
   55.0299   31.1898   43.9735 H   0  0  0  0  0  0  0  0  0  0  0  0
   55.7770   30.4210   44.2200 C   0  0  0  0  0  0  0  0  0  0  0  0
   55.3970   29.2950   44.8820 N   0  0  0  0  0  0  0  0  0  0  0  0
   56.2890   28.3200   45.2190 C   0  0  0  0  0  0  0  0  0  0  0  0
   55.9030   27.2510   45.8460 N   0  0  0  0  0  0  0  0  0  0  0  0
   56.8050   26.1910   46.2930 C   0  0  0  0  0  0  0  0  0  0  0  0
   56.8603   26.2006   47.3916 H   0  0  0  0  0  0  0  0  0  0  0  0
   57.8030   26.3654   45.8644 H   0  0  0  0  0  0  0  0  0  0  0  0
   56.2930   24.8270   45.8250 C   0  0  0  0  0  0  0  0  0  0  0  0
   56.5409   24.0744   46.5880 H   0  0  0  0  0  0  0  0  0  0  0  0
   56.7759   24.5956   44.8641 H   0  0  0  0  0  0  0  0  0  0  0  0
   54.7810   24.8250   45.6040 C   0  0  0  0  0  0  0  0  0  0  0  0
   54.2682   24.8243   46.5772 H   0  0  0  0  0  0  0  0  0  0  0  0
   54.4920   25.7228   45.0379 H   0  0  0  0  0  0  0  0  0  0  0  0
   54.4944   23.9265   45.0379 H   0  0  0  0  0  0  0  0  0  0  0  0
   57.6390   28.4760   44.8890 C   0  0  0  0  0  0  0  0  0  0  0  0
   58.3695   27.7006   45.1632 H   0  0  0  0  0  0  0  0  0  0  0  0
   58.0530   29.6230   44.2090 C   0  0  0  0  0  0  0  0  0  0  0  0
   59.1147   29.7562   43.9540 H   0  0  0  0  0  0  0  0  0  0  0  0
   57.1190   30.6060   43.8500 C   0  0  0  0  0  0  0  0  0  0  0  0
   57.5520   31.8130   43.1060 C   0  0  0  0  0  0  0  0  0  0  0  0
   57.7840   31.7230   41.8710 O   0  0  0  0  0  0  0  0  0  0  0  0
   57.7580   33.0790   43.7500 N   0  0  0  0  0  0  0  0  0  0  0  0
   58.4020   33.3020   45.0140 C   0  0  0  0  0  0  0  0  0  0  0  0
   58.6400   34.6180   45.4300 C   0  0  0  0  0  0  0  0  0  0  0  0
   58.3202   35.4587   44.7968 H   0  0  0  0  0  0  0  0  0  0  0  0
   59.2820   34.8680   46.6460 C   0  0  0  0  0  0  0  0  0  0  0  0
   59.4690   35.9041   46.9648 H   0  0  0  0  0  0  0  0  0  0  0  0
   59.6870   33.8050   47.4580 C   0  0  0  0  0  0  0  0  0  0  0  0
   60.2106   34.0052   48.4045 H   0  0  0  0  0  0  0  0  0  0  0  0
   59.4270   32.4850   47.0680 C   0  0  0  0  0  0  0  0  0  0  0  0
   59.9890   31.1390   48.0490 S   0  0  0  0  0  0  0  0  0  0  0  0
   61.0450   31.6130   49.0090 O   0  0  0  0  0  0  0  0  0  0  0  0
   58.8320   30.5680   48.8230 O   0  0  0  0  0  0  0  0  0  0  0  0
   60.6480   29.9350   46.9880 N   0  0  0  0  0  0  0  0  0  0  0  0
   60.3770   28.6660   47.0480 C   0  0  0  0  0  0  0  0  0  0  0  0
   60.7200   27.5900   45.8070 S   0  0  0  0  0  0  0  0  0  0  0  0
   60.0870   26.2680   46.6390 C   0  0  0  0  0  0  0  0  0  0  0  0
   60.0460   25.2324   46.2705 H   0  0  0  0  0  0  0  0  0  0  0  0
   59.6250   26.7150   47.8740 C   0  0  0  0  0  0  0  0  0  0  0  0
   59.1627   26.0429   48.6119 H   0  0  0  0  0  0  0  0  0  0  0  0
   59.7890   28.0460   48.0980 N   0  0  0  0  0  0  0  0  0  0  0  0
   59.4890   28.5090   48.9840 H   0  0  0  0  0  0  0  0  0  0  0  0
   58.7700   32.2360   45.8550 C   0  0  0  0  0  0  0  0  0  0  0  0
   58.5410   31.2016   45.5592 H   0  0  0  0  0  0  0  0  0  0  0  0
  1  2  1  0
  2  3  1  0
  3  4  1  0
  4  5  2  3
  5  6  1  0
  6  7  1  0
  6  8  1  0
  6  9  1  0
  9 10  1  0
  9 11  1  0
  9 12  1  0
 12 13  1  0
 12 14  1  0
 12 15  1  0
  4 16  1  0
 16 17  1  0
 16 18  2  0
 18 19  1  0
 18 20  1  0
 20 21  1  0
 21 22  2  0
 21 23  1  0
 23 24  1  0
 24 25  2  0
 25 26  1  0
 25 27  1  0
 27 28  1  0
 27 29  2  0
 29 30  1  0
 29 31  1  0
 31 32  1  0
 32 33  2  0
 32 34  2  0
 32 35  1  0
 35 36  2  0
 36 37  1  0
 37 38  1  0
 38 39  1  0
 38 40  2  0
 40 41  1  0
 40 42  1  0
 42 43  1  0
 31 44  2  0
 44 45  1  0
 20  2  2  0
 44 24  1  0
 42 36  1  0
M  CHG  2   3  -1  23  -1
M  END
>  <UniqueID>  (23) 
22

>  <SMILES>  (23) 
CCCN=c1ccc(C(=O)[N-]c2cccc(S(=O)(=O)/N=c3\[nH]ccs3)c2)c[n-]1

>  <Energy>  (23) 
81.18980890342371

>  <Genealogy>  (23) 
CCCN=c1ccc(C(=O)[N-]c2cccc(S(=O)(=O)N=c3[nH]ccs3)c2)c[n-]1 (protonated)
CCCN=c1ccc(C(=O)[N-]c2cccc(S(=O)(=O)/N=c3\[nH]ccs3)c2)c[n-]1 (cis-trans isomerization)
CCCN=c1ccc(C(=O)[N-]c2cccc(S(=O)(=O)/N=c3\[nH]ccs3)c2)c[n-]1 (3D coordinates assigned)
CCCN=c1ccc(C(=O)[N-]c2cccc(S(=O)(=O)/N=c3\[nH]ccs3)c2)c[n-]1 (optimized conformer: 81.18980890342371 kcal/mol)

>  <smiles>  (23) 
CCCN=c1ccc(C(=O)Nc2cccc(S(=O)(=O)N=c3[nH]ccs3)c2)c[nH]1

>  <score_type>  (23) 
oracle

>  <origin>  (23) 
adg

>  <m_score__min__energy>  (23) 
-11.31

>  <m_primary>  (23) 
energy

$$$$
23:0
     RDKit          3D

 41 43  0  0  0  0  0  0  0  0999 V2000
   55.2690   28.5870   45.6060 H   0  0  0  0  0  0  0  0  0  0  0  0
   55.1600   29.3450   44.8960 N   0  0  0  0  0  0  0  0  0  0  0  0
   56.6940   29.5390   44.1250 S   0  0  0  0  0  0  0  0  0  0  0  0
   56.5010   29.6350   42.6380 O   0  0  0  0  0  0  0  0  0  0  0  0
   57.5620   28.3490   44.4240 O   0  0  0  0  0  0  0  0  0  0  0  0
   57.4650   31.0050   44.7220 C   0  0  0  0  0  0  0  0  0  0  0  0
   57.7590   31.1410   46.0850 C   0  0  0  0  0  0  0  0  0  0  0  0
   57.5173   30.3252   46.7822 H   0  0  0  0  0  0  0  0  0  0  0  0
   58.3590   32.3110   46.5620 C   0  0  0  0  0  0  0  0  0  0  0  0
   58.5882   32.4112   47.6332 H   0  0  0  0  0  0  0  0  0  0  0  0
   58.6700   33.3580   45.6800 C   0  0  0  0  0  0  0  0  0  0  0  0
   59.2930   34.6240   46.2040 C   0  0  0  0  0  0  0  0  0  0  0  0
   59.0786   34.7148   47.2791 H   0  0  0  0  0  0  0  0  0  0  0  0
   58.8697   35.4807   45.6591 H   0  0  0  0  0  0  0  0  0  0  0  0
   60.7420   34.6040   46.0020 N   0  0  0  0  0  0  0  0  0  0  0  0
   61.5530   33.7280   46.5170 C   0  0  0  0  0  0  0  0  0  0  0  0
   61.0530   32.5600   46.9970 N   0  0  0  0  0  0  0  0  0  0  0  0
   61.8550   31.6090   47.5500 C   0  0  0  0  0  0  0  0  0  0  0  0
   61.2960   30.3780   48.0520 N   0  0  0  0  0  0  0  0  0  0  0  0
   61.3120   30.0490   49.3360 N   0  0  0  0  0  0  0  0  0  0  0  0
   60.7190   28.8480   49.4630 C   0  0  0  0  0  0  0  0  0  0  0  0
   60.4840   28.1680   50.7700 C   0  0  0  0  0  0  0  0  0  0  0  0
   60.7230   28.8596   51.5913 H   0  0  0  0  0  0  0  0  0  0  0  0
   59.4290   27.8649   50.8412 H   0  0  0  0  0  0  0  0  0  0  0  0
   61.1267   27.2782   50.8412 H   0  0  0  0  0  0  0  0  0  0  0  0
   60.2900   28.3980   48.2320 C   0  0  0  0  0  0  0  0  0  0  0  0
   59.7586   27.4627   48.0021 H   0  0  0  0  0  0  0  0  0  0  0  0
   60.6800   29.3900   47.3540 C   0  0  0  0  0  0  0  0  0  0  0  0
   60.4320   29.3680   45.8770 C   0  0  0  0  0  0  0  0  0  0  0  0
   59.3526   29.2723   45.6878 H   0  0  0  0  0  0  0  0  0  0  0  0
   60.8013   30.3024   45.4292 H   0  0  0  0  0  0  0  0  0  0  0  0
   60.9600   28.5132   45.4292 H   0  0  0  0  0  0  0  0  0  0  0  0
   63.2360   31.8470   47.6210 C   0  0  0  0  0  0  0  0  0  0  0  0
   63.9113   31.0983   48.0607 H   0  0  0  0  0  0  0  0  0  0  0  0
   63.7370   33.0500   47.1240 C   0  0  0  0  0  0  0  0  0  0  0  0
   64.8162   33.2579   47.1704 H   0  0  0  0  0  0  0  0  0  0  0  0
   62.8920   33.9640   46.5830 N   0  0  0  0  0  0  0  0  0  0  0  0
   58.3640   33.2220   44.3160 C   0  0  0  0  0  0  0  0  0  0  0  0
   58.5975   34.0397   43.6183 H   0  0  0  0  0  0  0  0  0  0  0  0
   57.7640   32.0520   43.8410 C   0  0  0  0  0  0  0  0  0  0  0  0
   57.5259   31.9534   42.7716 H   0  0  0  0  0  0  0  0  0  0  0  0
  1  2  1  0
  2  3  1  0
  3  4  2  0
  3  5  2  0
  3  6  1  0
  6  7  2  0
  7  8  1  0
  7  9  1  0
  9 10  1  0
  9 11  2  0
 11 12  1  0
 12 13  1  0
 12 14  1  0
 12 15  1  0
 15 16  2  0
 16 17  1  0
 17 18  2  0
 18 19  1  0
 19 20  1  0
 20 21  2  0
 21 22  1  0
 22 23  1  0
 22 24  1  0
 22 25  1  0
 21 26  1  0
 26 27  1  0
 26 28  2  0
 28 29  1  0
 29 30  1  0
 29 31  1  0
 29 32  1  0
 18 33  1  0
 33 34  1  0
 33 35  2  0
 35 36  1  0
 35 37  1  0
 11 38  1  0
 38 39  1  0
 38 40  2  0
 40 41  1  0
 40  6  1  0
 37 16  1  0
 28 19  1  0
M  CHG  2   2  -1  37  -1
M  END
>  <UniqueID>  (24) 
23

>  <SMILES>  (24) 
Cc1cc(C)n(-c2cc[n-]/c(=N\Cc3ccc(S([NH-])(=O)=O)cc3)n2)n1

>  <Energy>  (24) 
72.98925678415156

>  <Genealogy>  (24) 
Cc1cc(C)n(-c2cc[n-]c(=NCc3ccc(S([NH-])(=O)=O)cc3)n2)n1 (protonated)
Cc1cc(C)n(-c2cc[n-]/c(=N\Cc3ccc(S([NH-])(=O)=O)cc3)n2)n1 (cis-trans isomerization)
Cc1cc(C)n(-c2cc[n-]/c(=N\Cc3ccc(S([NH-])(=O)=O)cc3)n2)n1 (3D coordinates assigned)
Cc1cc(C)n(-c2cc[n-]/c(=N\Cc3ccc(S([NH-])(=O)=O)cc3)n2)n1 (optimized conformer: 72.98925678415156 kcal/mol)

>  <smiles>  (24) 
Cc1cc(C)n(-c2cc[nH]c(=NCc3ccc(S(N)(=O)=O)cc3)n2)n1

>  <score_type>  (24) 
oracle

>  <origin>  (24) 
adg

>  <m_score__min__energy>  (24) 
-12

>  <m_primary>  (24) 
energy

$$$$
24:0
     RDKit          3D

 44 46  0  0  0  0  0  0  0  0999 V2000
   55.5170   26.7050   46.0070 O   0  0  0  0  0  0  0  0  0  0  0  0
   56.6460   26.1420   46.0070 C   0  0  0  0  0  0  0  0  0  0  0  0
   57.8160   26.8810   45.6080 N   0  0  0  0  0  0  0  0  0  0  0  0
   57.8090   28.2860   45.3030 C   0  0  0  0  0  0  0  0  0  0  0  0
   57.0310   28.7540   44.2340 C   0  0  0  0  0  0  0  0  0  0  0  0
   57.0240   30.1120   43.9010 C   0  0  0  0  0  0  0  0  0  0  0  0
   57.8110   31.0250   44.6280 C   0  0  0  0  0  0  0  0  0  0  0  0
   57.8350   32.3980   44.3460 O   0  0  0  0  0  0  0  0  0  0  0  0
   57.8570   33.6330   45.5300 S   0  0  0  0  0  0  0  0  0  0  0  0
   56.6180   33.5290   46.3760 O   0  0  0  0  0  0  0  0  0  0  0  0
   57.8710   34.9690   44.8400 O   0  0  0  0  0  0  0  0  0  0  0  0
   59.2740   33.4600   46.5320 N   0  0  0  0  0  0  0  0  0  0  0  0
   60.4030   34.1860   45.9300 C   0  0  0  0  0  0  0  0  0  0  0  0
   61.7100   33.8590   46.6770 C   0  0  0  0  0  0  0  0  0  0  0  0
   61.4600   33.3820   48.1180 C   0  0  0  0  0  0  0  0  0  0  0  0
   60.2720   34.1190   48.7420 C   0  0  0  0  0  0  0  0  0  0  0  0
   58.9900   33.9570   47.8950 C   0  0  0  0  0  0  0  0  0  0  0  0
   58.6080   30.5530   45.6770 C   0  0  0  0  0  0  0  0  0  0  0  0
   58.6160   29.1950   46.0100 C   0  0  0  0  0  0  0  0  0  0  0  0
   56.7350   24.7180   46.4140 C   0  0  0  0  0  0  0  0  0  0  0  0
   56.2450   23.6830   45.5980 C   0  0  0  0  0  0  0  0  0  0  0  0
   56.3400   22.3540   46.0170 C   0  0  0  0  0  0  0  0  0  0  0  0
   56.9190   22.0660   47.2540 C   0  0  0  0  0  0  0  0  0  0  0  0
   57.0130   20.8730   47.6460 O   0  0  0  0  0  0  0  0  0  0  0  0
   57.3780   23.0740   48.0400 N   0  0  0  0  0  0  0  0  0  0  0  0
   57.2960   24.3760   47.6570 C   0  0  0  0  0  0  0  0  0  0  0  0
   58.7200   26.3770   45.4770 H   0  0  0  0  0  0  0  0  0  0  0  0
   56.4212   28.0468   43.6527 H   0  0  0  0  0  0  0  0  0  0  0  0
   56.4009   30.4684   43.0675 H   0  0  0  0  0  0  0  0  0  0  0  0
   60.5040   33.8894   44.8756 H   0  0  0  0  0  0  0  0  0  0  0  0
   60.2115   35.2669   46.0014 H   0  0  0  0  0  0  0  0  0  0  0  0
   62.2404   33.0659   46.1297 H   0  0  0  0  0  0  0  0  0  0  0  0
   62.3060   34.7821   46.7286 H   0  0  0  0  0  0  0  0  0  0  0  0
   61.2485   32.3026   48.1079 H   0  0  0  0  0  0  0  0  0  0  0  0
   62.3576   33.5935   48.7177 H   0  0  0  0  0  0  0  0  0  0  0  0
   60.0886   33.7125   49.7475 H   0  0  0  0  0  0  0  0  0  0  0  0
   60.5190   35.1899   48.7887 H   0  0  0  0  0  0  0  0  0  0  0  0
   58.3215   33.2435   48.3990 H   0  0  0  0  0  0  0  0  0  0  0  0
   58.5234   34.9486   47.7999 H   0  0  0  0  0  0  0  0  0  0  0  0
   59.2341   31.2569   46.2449 H   0  0  0  0  0  0  0  0  0  0  0  0
   59.2567   28.8360   46.8290 H   0  0  0  0  0  0  0  0  0  0  0  0
   55.7857   23.9206   44.6271 H   0  0  0  0  0  0  0  0  0  0  0  0
   55.9621   21.5421   45.3783 H   0  0  0  0  0  0  0  0  0  0  0  0
   57.6709   25.1666   48.3237 H   0  0  0  0  0  0  0  0  0  0  0  0
  1  2  2  0
  2  3  1  0
  3  4  1  0
  4  5  2  0
  5  6  1  0
  6  7  2  0
  7  8  1  0
  8  9  1  0
  9 10  2  0
  9 11  2  0
  9 12  1  0
 12 13  1  0
 13 14  1  0
 14 15  1  0
 15 16  1  0
 16 17  1  0
  7 18  1  0
 18 19  2  0
  2 20  1  0
 20 21  1  0
 21 22  2  0
 22 23  1  0
 23 24  2  0
 23 25  1  0
 25 26  1  0
 19  4  1  0
 26 20  2  0
 17 12  1  0
  3 27  1  0
  5 28  1  0
  6 29  1  0
 13 30  1  0
 13 31  1  0
 14 32  1  0
 14 33  1  0
 15 34  1  0
 15 35  1  0
 16 36  1  0
 16 37  1  0
 17 38  1  0
 17 39  1  0
 18 40  1  0
 19 41  1  0
 21 42  1  0
 22 43  1  0
 26 44  1  0
M  CHG  1  25  -1
M  END
>  <UniqueID>  (25) 
24

>  <SMILES>  (25) 
O=C(Nc1ccc(OS(=O)(=O)N2CCCCC2)cc1)c1ccc(=O)[n-]c1

>  <Energy>  (25) 
53.36988093764151

>  <Genealogy>  (25) 
O=C(Nc1ccc(OS(=O)(=O)N2CCCCC2)cc1)c1ccc(=O)[n-]c1 (protonated)
O=C(Nc1ccc(OS(=O)(=O)N2CCCCC2)cc1)c1ccc(=O)[n-]c1 (3D coordinates assigned)
O=C(Nc1ccc(OS(=O)(=O)N2CCCCC2)cc1)c1ccc(=O)[n-]c1 (nonaromatic ring conformer: 53.36988093764151 kcal/mol)

>  <smiles>  (25) 
O=C(Nc1ccc(OS(=O)(=O)N2CCCCC2)cc1)c1ccc(=O)[nH]c1

>  <score_type>  (25) 
oracle

>  <origin>  (25) 
adg

>  <m_score__min__energy>  (25) 
-10.039999999999999

>  <m_primary>  (25) 
energy

$$$$
25:0
     RDKit          3D

 42 44  0  0  0  0  0  0  0  0999 V2000
   59.4656   35.1758   43.6292 H   0  0  0  0  0  0  0  0  0  0  0  0
   59.1900   34.5600   44.4980 C   0  0  0  0  0  0  0  0  0  0  0  0
   59.6970   34.8690   45.7620 C   0  0  0  0  0  0  0  0  0  0  0  0
   60.3755   35.7257   45.8870 H   0  0  0  0  0  0  0  0  0  0  0  0
   59.3440   34.0920   46.8680 C   0  0  0  0  0  0  0  0  0  0  0  0
   59.7496   34.3386   47.8603 H   0  0  0  0  0  0  0  0  0  0  0  0
   58.4740   32.9970   46.7220 C   0  0  0  0  0  0  0  0  0  0  0  0
   58.1480   32.1390   47.9230 C   0  0  0  0  0  0  0  0  0  0  0  0
   57.6530   31.2187   47.5795 H   0  0  0  0  0  0  0  0  0  0  0  0
   57.4895   32.7170   48.5880 H   0  0  0  0  0  0  0  0  0  0  0  0
   59.4110   31.7600   48.7120 C   0  0  0  0  0  0  0  0  0  0  0  0
   59.1139   31.3638   49.6942 H   0  0  0  0  0  0  0  0  0  0  0  0
   60.0314   32.6612   48.8260 H   0  0  0  0  0  0  0  0  0  0  0  0
   60.2060   30.7340   47.9990 N   0  0  0  0  0  0  0  0  0  0  0  0
   61.3640   31.3390   47.3200 C   0  0  0  0  0  0  0  0  0  0  0  0
   62.0762   31.7111   48.0712 H   0  0  0  0  0  0  0  0  0  0  0  0
   61.8563   30.5829   46.6908 H   0  0  0  0  0  0  0  0  0  0  0  0
   61.0245   32.1750   46.6908 H   0  0  0  0  0  0  0  0  0  0  0  0
   60.6680   29.7000   48.9390 C   0  0  0  0  0  0  0  0  0  0  0  0
   60.5129   30.0471   49.9712 H   0  0  0  0  0  0  0  0  0  0  0  0
   60.0982   28.7736   48.7742 H   0  0  0  0  0  0  0  0  0  0  0  0
   61.7382   29.5064   48.7742 H   0  0  0  0  0  0  0  0  0  0  0  0
   57.9830   32.6740   45.4390 C   0  0  0  0  0  0  0  0  0  0  0  0
   57.0840   31.5680   45.2640 N   0  0  0  0  0  0  0  0  0  0  0  0
   57.3950   30.3040   45.3630 C   0  0  0  0  0  0  0  0  0  0  0  0
   56.3990   29.3350   45.1480 C   0  0  0  0  0  0  0  0  0  0  0  0
   55.2260   29.6740   44.8380 O   0  0  0  0  0  0  0  0  0  0  0  0
   56.7040   28.0170   45.2710 N   0  0  0  0  0  0  0  0  0  0  0  0
   57.9530   27.6100   45.6090 C   0  0  0  0  0  0  0  0  0  0  0  0
   58.2440   26.2470   45.7350 C   0  0  0  0  0  0  0  0  0  0  0  0
   57.4608   25.4970   45.5506 H   0  0  0  0  0  0  0  0  0  0  0  0
   59.5330   25.8400   46.0960 C   0  0  0  0  0  0  0  0  0  0  0  0
   59.7620   24.7688   46.1960 H   0  0  0  0  0  0  0  0  0  0  0  0
   60.5310   26.7910   46.3300 C   0  0  0  0  0  0  0  0  0  0  0  0
   61.5428   26.4655   46.6133 H   0  0  0  0  0  0  0  0  0  0  0  0
   60.2470   28.1550   46.2050 C   0  0  0  0  0  0  0  0  0  0  0  0
   61.0341   28.9005   46.3916 H   0  0  0  0  0  0  0  0  0  0  0  0
   58.9560   28.5720   45.8410 C   0  0  0  0  0  0  0  0  0  0  0  0
   58.6560   29.8960   45.7150 N   0  0  0  0  0  0  0  0  0  0  0  0
   59.4030   30.5960   45.9200 H   0  0  0  0  0  0  0  0  0  0  0  0
   58.3330   33.4690   44.3370 C   0  0  0  0  0  0  0  0  0  0  0  0
   57.9303   33.2317   43.3412 H   0  0  0  0  0  0  0  0  0  0  0  0
  1  2  1  0
  2  3  2  0
  3  4  1  0
  3  5  1  0
  5  6  1  0
  5  7  2  0
  7  8  1  0
  8  9  1  0
  8 10  1  0
  8 11  1  0
 11 12  1  0
 11 13  1  0
 11 14  1  0
 14 15  1  0
 15 16  1  0
 15 17  1  0
 15 18  1  0
 14 19  1  0
 19 20  1  0
 19 21  1  0
 19 22  1  0
  7 23  1  0
 23 24  1  0
 24 25  2  0
 25 26  1  0
 26 27  2  0
 26 28  1  0
 28 29  1  0
 29 30  2  0
 30 31  1  0
 30 32  1  0
 32 33  1  0
 32 34  2  0
 34 35  1  0
 34 36  1  0
 36 37  1  0
 36 38  2  0
 38 39  1  0
 39 40  1  0
 23 41  2  0
 41 42  1  0
 41  2  1  0
 39 25  1  0
 38 29  1  0
M  CHG  1  28  -1
M  END
>  <UniqueID>  (26) 
25

>  <SMILES>  (26) 
CN(C)CCc1ccccc1/N=c1\[nH]c2ccccc2[n-]c1=O

>  <Energy>  (26) 
55.42300751233811

>  <Genealogy>  (26) 
CN(C)CCc1ccccc1N=c1[nH]c2ccccc2[n-]c1=O (protonated)
CN(C)CCc1ccccc1/N=c1\[nH]c2ccccc2[n-]c1=O (cis-trans isomerization)
CN(C)CCc1ccccc1/N=c1\[nH]c2ccccc2[n-]c1=O (3D coordinates assigned)
CN(C)CCc1ccccc1/N=c1\[nH]c2ccccc2[n-]c1=O (optimized conformer: 55.42300751233811 kcal/mol)

>  <smiles>  (26) 
CN(C)CCc1ccccc1N=c1[nH]c2ccccc2[nH]c1=O

>  <score_type>  (26) 
oracle

>  <origin>  (26) 
adg

>  <m_score__min__energy>  (26) 
-9.5299999999999994

>  <m_primary>  (26) 
energy

$$$$
26:0
     RDKit          3D

 34 36  0  0  0  0  0  0  0  0999 V2000
   53.6901   24.6316   45.6410 H   0  0  0  0  0  0  0  0  0  0  0  0
   54.7330   24.9810   45.6210 C   0  0  0  0  0  0  0  0  0  0  0  0
   55.0840   26.2500   45.9620 N   0  0  0  0  0  0  0  0  0  0  0  0
   56.4190   26.4340   45.8580 C   0  0  0  0  0  0  0  0  0  0  0  0
   57.0190   27.5520   46.1230 N   0  0  0  0  0  0  0  0  0  0  0  0
   56.9460   28.9380   45.0830 S   0  0  0  0  0  0  0  0  0  0  0  0
   55.5070   29.3380   44.9000 O   0  0  0  0  0  0  0  0  0  0  0  0
   57.5570   28.6100   43.7500 O   0  0  0  0  0  0  0  0  0  0  0  0
   57.8400   30.2630   45.8170 C   0  0  0  0  0  0  0  0  0  0  0  0
   58.5660   30.0580   46.9970 C   0  0  0  0  0  0  0  0  0  0  0  0
   58.5829   29.0623   47.4641 H   0  0  0  0  0  0  0  0  0  0  0  0
   59.2690   31.1140   47.5830 C   0  0  0  0  0  0  0  0  0  0  0  0
   59.8301   30.9467   48.5142 H   0  0  0  0  0  0  0  0  0  0  0  0
   59.2640   32.3830   46.9930 C   0  0  0  0  0  0  0  0  0  0  0  0
   59.9890   33.4100   47.6140 O   0  0  0  0  0  0  0  0  0  0  0  0
   61.3330   33.3150   48.0060 C   0  0  0  0  0  0  0  0  0  0  0  0
   61.7290   33.4220   49.3530 C   0  0  0  0  0  0  0  0  0  0  0  0
   60.9725   33.5801   50.1358 H   0  0  0  0  0  0  0  0  0  0  0  0
   63.0800   33.3280   49.6990 C   0  0  0  0  0  0  0  0  0  0  0  0
   63.3834   33.4037   50.7536 H   0  0  0  0  0  0  0  0  0  0  0  0
   64.0460   33.1380   48.7070 C   0  0  0  0  0  0  0  0  0  0  0  0
   65.3550   33.0480   49.0440 F   0  0  0  0  0  0  0  0  0  0  0  0
   63.6610   33.0450   47.3670 C   0  0  0  0  0  0  0  0  0  0  0  0
   64.4216   32.8976   46.5861 H   0  0  0  0  0  0  0  0  0  0  0  0
   62.3100   33.1390   47.0170 C   0  0  0  0  0  0  0  0  0  0  0  0
   62.0129   33.0744   45.9598 H   0  0  0  0  0  0  0  0  0  0  0  0
   58.5070   32.6020   45.8220 C   0  0  0  0  0  0  0  0  0  0  0  0
   58.3950   33.9160   45.2400 C   0  0  0  0  0  0  0  0  0  0  0  0
   58.3060   34.9720   44.7730 N   0  0  0  0  0  0  0  0  0  0  0  0
   57.8040   31.5390   45.2390 C   0  0  0  0  0  0  0  0  0  0  0  0
   57.2203   31.7074   44.3220 H   0  0  0  0  0  0  0  0  0  0  0  0
   57.2140   25.0490   45.3430 S   0  0  0  0  0  0  0  0  0  0  0  0
   55.7890   24.1570   45.2450 C   0  0  0  0  0  0  0  0  0  0  0  0
   55.7072   23.1042   44.9368 H   0  0  0  0  0  0  0  0  0  0  0  0
  1  2  1  0
  2  3  1  0
  3  4  1  0
  4  5  2  0
  5  6  1  0
  6  7  2  0
  6  8  2  0
  6  9  1  0
  9 10  2  0
 10 11  1  0
 10 12  1  0
 12 13  1  0
 12 14  2  0
 14 15  1  0
 15 16  1  0
 16 17  2  0
 17 18  1  0
 17 19  1  0
 19 20  1  0
 19 21  2  0
 21 22  1  0
 21 23  1  0
 23 24  1  0
 23 25  2  0
 25 26  1  0
 14 27  1  0
 27 28  1  0
 28 29  3  0
 27 30  2  0
 30 31  1  0
  4 32  1  0
 32 33  1  0
 33 34  1  0
 33  2  2  0
 30  9  1  0
 25 16  1  0
M  CHG  1   3  -1
M  END
>  <UniqueID>  (27) 
26

>  <SMILES>  (27) 
N#Cc1cc(S(=O)(=O)/N=c2\[n-]ccs2)ccc1Oc1ccc(F)cc1

>  <Energy>  (27) 
78.00555285541186

>  <Genealogy>  (27) 
N#Cc1cc(S(=O)(=O)N=c2[n-]ccs2)ccc1Oc1ccc(F)cc1 (protonated)
N#Cc1cc(S(=O)(=O)/N=c2\[n-]ccs2)ccc1Oc1ccc(F)cc1 (cis-trans isomerization)
N#Cc1cc(S(=O)(=O)/N=c2\[n-]ccs2)ccc1Oc1ccc(F)cc1 (3D coordinates assigned)
N#Cc1cc(S(=O)(=O)/N=c2\[n-]ccs2)ccc1Oc1ccc(F)cc1 (optimized conformer: 78.00555285541186 kcal/mol)

>  <smiles>  (27) 
N#Cc1cc(S(=O)(=O)N=c2[nH]ccs2)ccc1Oc1ccc(F)cc1

>  <score_type>  (27) 
oracle

>  <origin>  (27) 
adg

>  <m_score__min__energy>  (27) 
-9.8800000000000008

>  <m_primary>  (27) 
energy

$$$$
27:0
     RDKit          3D

 47 50  0  0  0  0  0  0  0  0999 V2000
   55.0600   28.9840   52.0340 O   0  0  0  0  0  0  0  0  0  0  0  0
   54.7560   30.1970   52.1830 C   0  0  0  0  0  0  0  0  0  0  0  0
   55.6260   31.0370   52.9520 N   0  0  0  0  0  0  0  0  0  0  0  0
   56.8410   31.6490   52.4970 C   0  0  0  0  0  0  0  0  0  0  0  0
   57.6180   32.3690   53.4100 C   0  0  0  0  0  0  0  0  0  0  0  0
   58.8090   32.9730   53.0020 C   0  0  0  0  0  0  0  0  0  0  0  0
   59.2470   32.8440   51.6810 C   0  0  0  0  0  0  0  0  0  0  0  0
   60.4050   33.5050   51.2850 O   0  0  0  0  0  0  0  0  0  0  0  0
   58.5050   32.0760   50.7640 C   0  0  0  0  0  0  0  0  0  0  0  0
   58.9590   31.8920   49.3690 C   0  0  0  0  0  0  0  0  0  0  0  0
   60.0780   31.3590   49.1510 O   0  0  0  0  0  0  0  0  0  0  0  0
   58.1620   32.3100   48.2510 N   0  0  0  0  0  0  0  0  0  0  0  0
   58.6110   33.1800   47.2010 C   0  0  0  0  0  0  0  0  0  0  0  0
   59.6160   34.1510   47.4190 C   0  0  0  0  0  0  0  0  0  0  0  0
   60.3070   34.2440   48.6280 O   0  0  0  0  0  0  0  0  0  0  0  0
   59.9650   35.0300   46.3900 C   0  0  0  0  0  0  0  0  0  0  0  0
   59.3720   34.9180   45.1330 C   0  0  0  0  0  0  0  0  0  0  0  0
   58.4190   33.9280   44.8940 C   0  0  0  0  0  0  0  0  0  0  0  0
   58.0220   33.0620   45.9270 C   0  0  0  0  0  0  0  0  0  0  0  0
   57.0370   32.0390   45.7060 N   0  0  0  0  0  0  0  0  0  0  0  0
   57.2850   30.7280   45.1840 C   0  0  0  0  0  0  0  0  0  0  0  0
   56.3680   30.0840   44.6060 O   0  0  0  0  0  0  0  0  0  0  0  0
   58.6030   30.1060   45.3760 C   0  0  0  0  0  0  0  0  0  0  0  0
   59.2010   29.2030   44.5160 C   0  0  0  0  0  0  0  0  0  0  0  0
   60.4170   28.8770   45.0840 C   0  0  0  0  0  0  0  0  0  0  0  0
   60.5080   29.5950   46.2600 C   0  0  0  0  0  0  0  0  0  0  0  0
   59.4020   30.3410   46.4330 N   0  0  0  0  0  0  0  0  0  0  0  0
   57.3010   31.4860   51.1790 C   0  0  0  0  0  0  0  0  0  0  0  0
   53.4820   30.6940   51.6290 C   0  0  0  0  0  0  0  0  0  0  0  0
   52.8580   30.1960   50.4980 C   0  0  0  0  0  0  0  0  0  0  0  0
   51.6950   30.9160   50.3490 C   0  0  0  0  0  0  0  0  0  0  0  0
   51.6700   31.8040   51.4010 C   0  0  0  0  0  0  0  0  0  0  0  0
   50.6580   32.7250   51.6340 O   0  0  0  0  0  0  0  0  0  0  0  0
   52.7490   31.6770   52.1950 N   0  0  0  0  0  0  0  0  0  0  0  0
   57.2890   32.4601   54.4557 H   0  0  0  0  0  0  0  0  0  0  0  0
   59.4046   33.5524   53.7228 H   0  0  0  0  0  0  0  0  0  0  0  0
   60.2660   33.5270   49.3400 H   0  0  0  0  0  0  0  0  0  0  0  0
   60.7128   35.8157   46.5730 H   0  0  0  0  0  0  0  0  0  0  0  0
   59.6564   35.6118   44.3282 H   0  0  0  0  0  0  0  0  0  0  0  0
   57.9762   33.8247   43.8924 H   0  0  0  0  0  0  0  0  0  0  0  0
   58.7906   28.8211   43.5696 H   0  0  0  0  0  0  0  0  0  0  0  0
   61.1665   28.1813   44.6788 H   0  0  0  0  0  0  0  0  0  0  0  0
   61.3606   29.5618   46.9542 H   0  0  0  0  0  0  0  0  0  0  0  0
   59.2090   30.9760   47.2390 H   0  0  0  0  0  0  0  0  0  0  0  0
   56.7119   30.8905   50.4660 H   0  0  0  0  0  0  0  0  0  0  0  0
   53.2199   29.3859   49.8478 H   0  0  0  0  0  0  0  0  0  0  0  0
   50.9420   30.8053   49.5548 H   0  0  0  0  0  0  0  0  0  0  0  0
  1  2  2  0
  2  3  1  0
  3  4  1  0
  4  5  2  0
  5  6  1  0
  6  7  2  0
  7  8  1  0
  7  9  1  0
  9 10  1  0
 10 11  2  0
 10 12  1  0
 12 13  1  0
 13 14  2  0
 14 15  1  0
 14 16  1  0
 16 17  2  0
 17 18  1  0
 18 19  2  0
 19 20  1  0
 20 21  1  0
 21 22  2  0
 21 23  1  0
 23 24  2  0
 24 25  1  0
 25 26  2  0
 26 27  1  0
  9 28  2  0
  2 29  1  0
 29 30  2  0
 30 31  1  0
 31 32  2  0
 32 33  1  0
 32 34  1  0
 28  4  1  0
 34 29  1  0
 19 13  1  0
 27 23  1  0
  5 35  1  0
  6 36  1  0
 15 37  1  0
 16 38  1  0
 17 39  1  0
 18 40  1  0
 24 41  1  0
 25 42  1  0
 26 43  1  0
 27 44  1  0
 28 45  1  0
 30 46  1  0
 31 47  1  0
M  CHG  6   3  -1   8  -1  12  -1  20  -1  33  -1  34  -1
M  END
>  <UniqueID>  (28) 
27

>  <SMILES>  (28) 
O=C([N-]c1ccc([O-])c(C(=O)[N-]c2c(O)cccc2[N-]C(=O)c2ccc[nH]2)c1)c1ccc([O-])[n-]1

>  <Energy>  (28) 
121.26950556410914

>  <Genealogy>  (28) 
O=C([N-]c1ccc([O-])c(C(=O)[N-]c2c(O)cccc2[N-]C(=O)c2ccc[nH]2)c1)c1ccc([O-])[n-]1 (protonated)
O=C([N-]c1ccc([O-])c(C(=O)[N-]c2c(O)cccc2[N-]C(=O)c2ccc[nH]2)c1)c1ccc([O-])[n-]1 (3D coordinates assigned)
O=C([N-]c1ccc([O-])c(C(=O)[N-]c2c(O)cccc2[N-]C(=O)c2ccc[nH]2)c1)c1ccc([O-])[n-]1 (optimized conformer: 121.26950556410914 kcal/mol)

>  <smiles>  (28) 
O=C(Nc1cccc(O)c1NC(=O)c1cc(NC(=O)c2ccc(O)[nH]2)ccc1O)c1ccc[nH]1

>  <score_type>  (28) 
oracle

>  <origin>  (28) 
adg

>  <m_score__min__energy>  (28) 
-17.899999999999999

>  <m_primary>  (28) 
energy

$$$$
28:0
     RDKit          3D

 35 36  0  0  0  0  0  0  0  0999 V2000
   63.6070   33.8000   48.2000 C   0  0  0  0  0  0  0  0  0  0  0  0
   62.4210   33.5020   47.3400 C   0  0  0  0  0  0  0  0  0  0  0  0
   62.4510   33.8140   46.1190 O   0  0  0  0  0  0  0  0  0  0  0  0
   61.2310   32.9560   47.9300 N   0  0  0  0  0  0  0  0  0  0  0  0
   60.1090   32.4680   47.1740 C   0  0  0  0  0  0  0  0  0  0  0  0
   60.1410   31.1630   46.6620 C   0  0  0  0  0  0  0  0  0  0  0  0
   59.0710   30.6700   45.9080 C   0  0  0  0  0  0  0  0  0  0  0  0
   57.9530   31.4720   45.6590 C   0  0  0  0  0  0  0  0  0  0  0  0
   56.8840   30.9460   44.8600 N   0  0  0  0  0  0  0  0  0  0  0  0
   56.3850   29.6010   44.8800 C   0  0  0  0  0  0  0  0  0  0  0  0
   55.1410   29.4130   44.8290 O   0  0  0  0  0  0  0  0  0  0  0  0
   57.2980   28.4120   44.8910 C   0  0  0  0  0  0  0  0  0  0  0  0
   56.9460   27.5350   45.9990 N   0  0  0  0  0  0  0  0  0  0  0  0
   56.1840   26.3380   45.8270 C   0  0  0  0  0  0  0  0  0  0  0  0
   54.9370   26.3460   46.0160 O   0  0  0  0  0  0  0  0  0  0  0  0
   56.8580   25.0970   45.4250 C   0  0  0  0  0  0  0  0  0  0  0  0
   58.1450   24.7110   45.7820 C   0  0  0  0  0  0  0  0  0  0  0  0
   58.5150   23.4700   45.2500 C   0  0  0  0  0  0  0  0  0  0  0  0
   57.5270   22.8750   44.4770 C   0  0  0  0  0  0  0  0  0  0  0  0
   56.1890   23.8960   44.4550 S   0  0  0  0  0  0  0  0  0  0  0  0
   57.9400   32.7980   46.1220 C   0  0  0  0  0  0  0  0  0  0  0  0
   59.0090   33.2910   46.8780 C   0  0  0  0  0  0  0  0  0  0  0  0
   63.3193   33.7277   49.2592 H   0  0  0  0  0  0  0  0  0  0  0  0
   64.4061   33.0747   47.9868 H   0  0  0  0  0  0  0  0  0  0  0  0
   63.9683   34.8168   47.9868 H   0  0  0  0  0  0  0  0  0  0  0  0
   61.1460   32.9920   48.9710 H   0  0  0  0  0  0  0  0  0  0  0  0
   61.0141   30.5222   46.8547 H   0  0  0  0  0  0  0  0  0  0  0  0
   59.1093   29.6457   45.5087 H   0  0  0  0  0  0  0  0  0  0  0  0
   57.1956   27.8632   43.9432 H   0  0  0  0  0  0  0  0  0  0  0  0
   58.3376   28.7512   45.0101 H   0  0  0  0  0  0  0  0  0  0  0  0
   58.8055   25.3189   46.4178 H   0  0  0  0  0  0  0  0  0  0  0  0
   59.4977   23.0089   45.4280 H   0  0  0  0  0  0  0  0  0  0  0  0
   57.6052   21.9036   43.9668 H   0  0  0  0  0  0  0  0  0  0  0  0
   57.0861   33.4513   45.8893 H   0  0  0  0  0  0  0  0  0  0  0  0
   58.9884   34.3286   47.2427 H   0  0  0  0  0  0  0  0  0  0  0  0
  1  2  1  0
  2  3  2  0
  2  4  1  0
  4  5  1  0
  5  6  2  0
  6  7  1  0
  7  8  2  0
  8  9  1  0
  9 10  1  0
 10 11  2  0
 10 12  1  0
 12 13  1  0
 13 14  1  0
 14 15  2  0
 14 16  1  0
 16 17  2  0
 17 18  1  0
 18 19  2  0
 19 20  1  0
  8 21  1  0
 21 22  2  0
 22  5  1  0
 20 16  1  0
  1 23  1  0
  1 24  1  0
  1 25  1  0
  4 26  1  0
  6 27  1  0
  7 28  1  0
 12 29  1  0
 12 30  1  0
 17 31  1  0
 18 32  1  0
 19 33  1  0
 21 34  1  0
 22 35  1  0
M  CHG  2   9  -1  13  -1
M  END
>  <UniqueID>  (29) 
28

>  <SMILES>  (29) 
CC(=O)Nc1ccc([N-]C(=O)C[N-]C(=O)c2cccs2)cc1

>  <Energy>  (29) 
63.00478774741723

>  <Genealogy>  (29) 
CC(=O)Nc1ccc([N-]C(=O)C[N-]C(=O)c2cccs2)cc1 (protonated)
CC(=O)Nc1ccc([N-]C(=O)C[N-]C(=O)c2cccs2)cc1 (3D coordinates assigned)
CC(=O)Nc1ccc([N-]C(=O)C[N-]C(=O)c2cccs2)cc1 (optimized conformer: 63.00478774741723 kcal/mol)

>  <smiles>  (29) 
CC(=O)Nc1ccc(NC(=O)CNC(=O)c2cccs2)cc1

>  <score_type>  (29) 
oracle

>  <origin>  (29) 
adg

>  <m_score__min__energy>  (29) 
-10.69

>  <m_primary>  (29) 
energy

$$$$
29:0
     RDKit          3D

 59 62  0  0  0  0  0  0  0  0999 V2000
   56.6370   26.8310   45.2060 O   0  0  0  0  0  0  0  0  0  0  0  0
   56.6510   28.0150   45.6340 C   0  0  0  0  0  0  0  0  0  0  0  0
   57.3930   28.3020   46.8320 N   0  0  0  0  0  0  0  0  0  0  0  0
   58.6790   28.9240   46.9460 C   0  0  0  0  0  0  0  0  0  0  0  0
   59.2430   29.2520   48.1900 C   0  0  0  0  0  0  0  0  0  0  0  0
   60.4650   29.9300   48.2490 C   0  0  0  0  0  0  0  0  0  0  0  0
   61.1570   30.2520   47.0640 C   0  0  0  0  0  0  0  0  0  0  0  0
   62.3860   30.9270   47.0580 O   0  0  0  0  0  0  0  0  0  0  0  0
   62.9720   31.6030   48.1710 C   0  0  0  0  0  0  0  0  0  0  0  0
   63.7360   32.8600   47.7160 C   0  0  0  0  0  0  0  0  0  0  0  0
   64.1320   33.7190   48.8540 N   0  0  0  0  0  0  0  0  0  0  0  0
   62.9420   34.2730   49.5510 C   0  0  0  0  0  0  0  0  0  0  0  0
   62.6780   33.5700   50.8980 C   0  0  0  0  0  0  0  0  0  0  0  0
   63.7650   33.6630   51.8060 O   0  0  0  0  0  0  0  0  0  0  0  0
   65.0380   33.6750   51.1700 C   0  0  0  0  0  0  0  0  0  0  0  0
   65.0480   33.0150   49.7820 C   0  0  0  0  0  0  0  0  0  0  0  0
   60.6120   29.8740   45.8330 C   0  0  0  0  0  0  0  0  0  0  0  0
   59.3850   29.2150   45.7740 C   0  0  0  0  0  0  0  0  0  0  0  0
   55.9380   29.0170   44.8930 N   0  0  0  0  0  0  0  0  0  0  0  0
   56.4610   30.1510   44.1830 C   0  0  0  0  0  0  0  0  0  0  0  0
   56.5540   30.0770   42.7880 C   0  0  0  0  0  0  0  0  0  0  0  0
   57.0490   31.1570   42.0500 C   0  0  0  0  0  0  0  0  0  0  0  0
   57.4380   32.3290   42.7050 C   0  0  0  0  0  0  0  0  0  0  0  0
   57.3830   32.4140   44.1080 C   0  0  0  0  0  0  0  0  0  0  0  0
   57.7100   33.7290   44.7810 C   0  0  0  0  0  0  0  0  0  0  0  0
   58.4930   33.5600   46.0610 C   0  0  0  0  0  0  0  0  0  0  0  0
   59.8360   33.9700   46.1320 C   0  0  0  0  0  0  0  0  0  0  0  0
   60.5530   33.8280   47.3250 C   0  0  0  0  0  0  0  0  0  0  0  0
   59.9350   33.2810   48.4540 C   0  0  0  0  0  0  0  0  0  0  0  0
   58.6010   32.8710   48.3900 C   0  0  0  0  0  0  0  0  0  0  0  0
   57.8810   33.0060   47.1970 C   0  0  0  0  0  0  0  0  0  0  0  0
   56.9180   31.3060   44.8450 C   0  0  0  0  0  0  0  0  0  0  0  0
   58.7230   28.9753   49.1190 H   0  0  0  0  0  0  0  0  0  0  0  0
   60.8877   30.2131   49.2243 H   0  0  0  0  0  0  0  0  0  0  0  0
   62.1767   31.8995   48.8707 H   0  0  0  0  0  0  0  0  0  0  0  0
   63.6823   30.9202   48.6602 H   0  0  0  0  0  0  0  0  0  0  0  0
   64.6423   32.5473   47.1767 H   0  0  0  0  0  0  0  0  0  0  0  0
   63.0658   33.4456   47.0695 H   0  0  0  0  0  0  0  0  0  0  0  0
   63.1069   35.3446   49.7367 H   0  0  0  0  0  0  0  0  0  0  0  0
   62.0658   34.1093   48.9065 H   0  0  0  0  0  0  0  0  0  0  0  0
   61.7943   34.0303   51.3640 H   0  0  0  0  0  0  0  0  0  0  0  0
   62.5262   32.5021   50.6822 H   0  0  0  0  0  0  0  0  0  0  0  0
   65.3593   34.7211   51.0582 H   0  0  0  0  0  0  0  0  0  0  0  0
   65.7179   33.0896   51.8064 H   0  0  0  0  0  0  0  0  0  0  0  0
   66.0692   33.0490   49.3746 H   0  0  0  0  0  0  0  0  0  0  0  0
   64.7098   31.9735   49.8861 H   0  0  0  0  0  0  0  0  0  0  0  0
   61.1559   30.0985   44.9036 H   0  0  0  0  0  0  0  0  0  0  0  0
   58.9690   28.9217   44.7988 H   0  0  0  0  0  0  0  0  0  0  0  0
   56.2350   29.1617   42.2680 H   0  0  0  0  0  0  0  0  0  0  0  0
   57.1321   31.0842   40.9556 H   0  0  0  0  0  0  0  0  0  0  0  0
   57.7897   33.1910   42.1191 H   0  0  0  0  0  0  0  0  0  0  0  0
   58.3037   34.3403   44.0854 H   0  0  0  0  0  0  0  0  0  0  0  0
   56.7560   34.2109   45.0410 H   0  0  0  0  0  0  0  0  0  0  0  0
   60.3245   34.4037   45.2470 H   0  0  0  0  0  0  0  0  0  0  0  0
   61.6045   34.1471   47.3750 H   0  0  0  0  0  0  0  0  0  0  0  0
   60.4991   33.1736   49.3922 H   0  0  0  0  0  0  0  0  0  0  0  0
   58.1155   32.4413   49.2786 H   0  0  0  0  0  0  0  0  0  0  0  0
   56.8324   32.6770   47.1493 H   0  0  0  0  0  0  0  0  0  0  0  0
   56.9123   31.3443   45.9443 H   0  0  0  0  0  0  0  0  0  0  0  0
  1  2  2  0
  2  3  1  0
  3  4  1  0
  4  5  2  0
  5  6  1  0
  6  7  2  0
  7  8  1  0
  8  9  1  0
  9 10  1  0
 10 11  1  0
 11 12  1  0
 12 13  1  0
 13 14  1  0
 14 15  1  0
 15 16  1  0
  7 17  1  0
 17 18  2  0
  2 19  1  0
 19 20  1  0
 20 21  2  0
 21 22  1  0
 22 23  2  0
 23 24  1  0
 24 25  1  0
 25 26  1  0
 26 27  2  0
 27 28  1  0
 28 29  2  0
 29 30  1  0
 30 31  2  0
 24 32  2  0
 18  4  1  0
 32 20  1  0
 16 11  1  0
 31 26  1  0
  5 33  1  0
  6 34  1  0
  9 35  1  0
  9 36  1  0
 10 37  1  0
 10 38  1  0
 12 39  1  0
 12 40  1  0
 13 41  1  0
 13 42  1  0
 15 43  1  0
 15 44  1  0
 16 45  1  0
 16 46  1  0
 17 47  1  0
 18 48  1  0
 21 49  1  0
 22 50  1  0
 23 51  1  0
 25 52  1  0
 25 53  1  0
 27 54  1  0
 28 55  1  0
 29 56  1  0
 30 57  1  0
 31 58  1  0
 32 59  1  0
M  CHG  2   3  -1  19  -1
M  END
>  <UniqueID>  (30) 
29

>  <SMILES>  (30) 
O=C([N-]c1ccc(OCCN2CCOCC2)cc1)[N-]c1cccc(Cc2ccccc2)c1

>  <Energy>  (30) 
80.8578527340215

>  <Genealogy>  (30) 
O=C([N-]c1ccc(OCCN2CCOCC2)cc1)[N-]c1cccc(Cc2ccccc2)c1 (protonated)
O=C([N-]c1ccc(OCCN2CCOCC2)cc1)[N-]c1cccc(Cc2ccccc2)c1 (3D coordinates assigned)
O=C([N-]c1ccc(OCCN2CCOCC2)cc1)[N-]c1cccc(Cc2ccccc2)c1 (nonaromatic ring conformer: 80.8578527340215 kcal/mol)

>  <smiles>  (30) 
O=C(Nc1ccc(OCCN2CCOCC2)cc1)Nc1cccc(Cc2ccccc2)c1

>  <score_type>  (30) 
oracle

>  <origin>  (30) 
adg

>  <m_score__min__energy>  (30) 
-12.550000000000001

>  <m_primary>  (30) 
energy

$$$$
30:0
     RDKit          3D

 64 66  0  0  0  0  0  0  0  0999 V2000
   63.4130   32.7870   49.7430 C   0  0  0  0  0  0  0  0  0  0  0  0
   63.3660   31.3320   50.0870 C   0  0  0  0  0  0  0  0  0  0  0  0
   62.2540   30.9620   51.0350 C   0  0  0  0  0  0  0  0  0  0  0  0
   62.2080   29.5000   51.3380 C   0  0  0  0  0  0  0  0  0  0  0  0
   61.0300   28.8100   50.6960 C   0  0  0  0  0  0  0  0  0  0  0  0
   60.5700   29.5250   49.5160 N   0  0  0  0  0  0  0  0  0  0  0  0
   60.5160   28.7830   48.3050 C   0  0  0  0  0  0  0  0  0  0  0  0
   60.8520   27.5600   48.2420 O   0  0  0  0  0  0  0  0  0  0  0  0
   60.0810   29.3720   47.0880 N   0  0  0  0  0  0  0  0  0  0  0  0
   60.0340   28.3960   45.6340 S   0  0  0  0  0  0  0  0  0  0  0  0
   61.2670   27.5440   45.6470 O   0  0  0  0  0  0  0  0  0  0  0  0
   60.0000   29.2380   44.4220 O   0  0  0  0  0  0  0  0  0  0  0  0
   58.6380   27.3750   45.8210 C   0  0  0  0  0  0  0  0  0  0  0  0
   58.2160   26.6130   47.4240 S   0  0  0  0  0  0  0  0  0  0  0  0
   56.7140   25.8130   46.7090 C   0  0  0  0  0  0  0  0  0  0  0  0
   56.6840   26.1910   45.3780 C   0  0  0  0  0  0  0  0  0  0  0  0
   57.6710   26.9850   44.9420 C   0  0  0  0  0  0  0  0  0  0  0  0
   57.7690   27.5620   43.2090 S   0  0  0  0  0  0  0  0  0  0  0  0
   56.7320   28.9600   42.8820 C   0  0  0  0  0  0  0  0  0  0  0  0
   56.8740   30.1250   43.7900 C   0  0  0  0  0  0  0  0  0  0  0  0
   55.8510   30.3930   44.4940 O   0  0  0  0  0  0  0  0  0  0  0  0
   58.0130   30.9190   43.9200 N   0  0  0  0  0  0  0  0  0  0  0  0
   58.2170   32.0280   44.7610 C   0  0  0  0  0  0  0  0  0  0  0  0
   57.4420   33.1750   44.5550 C   0  0  0  0  0  0  0  0  0  0  0  0
   57.5680   34.3030   45.3320 C   0  0  0  0  0  0  0  0  0  0  0  0
   58.4750   34.3620   46.3650 C   0  0  0  0  0  0  0  0  0  0  0  0
   59.2570   33.2410   46.5920 C   0  0  0  0  0  0  0  0  0  0  0  0
   60.4350   33.2910   47.8770 S   0  0  0  0  0  0  0  0  0  0  0  0
   60.9880   31.8670   48.0830 O   0  0  0  0  0  0  0  0  0  0  0  0
   61.6280   34.1000   47.3480 O   0  0  0  0  0  0  0  0  0  0  0  0
   59.8200   33.9280   49.2940 N   0  0  0  0  0  0  0  0  0  0  0  0
   59.3200   33.4960   50.3600 C   0  0  0  0  0  0  0  0  0  0  0  0
   59.2240   32.1180   50.4300 N   0  0  0  0  0  0  0  0  0  0  0  0
   58.7030   31.5900   51.5290 C   0  0  0  0  0  0  0  0  0  0  0  0
   58.2450   32.2890   52.6130 C   0  0  0  0  0  0  0  0  0  0  0  0
   58.3480   33.6760   52.5270 C   0  0  0  0  0  0  0  0  0  0  0  0
   58.8790   34.1840   51.4060 N   0  0  0  0  0  0  0  0  0  0  0  0
   59.1160   32.1020   45.7920 C   0  0  0  0  0  0  0  0  0  0  0  0
   63.4322   33.3820   50.6680 H   0  0  0  0  0  0  0  0  0  0  0  0
   64.3183   32.9955   49.1540 H   0  0  0  0  0  0  0  0  0  0  0  0
   62.5230   33.0535   49.1540 H   0  0  0  0  0  0  0  0  0  0  0  0
   63.2319   30.7607   49.1566 H   0  0  0  0  0  0  0  0  0  0  0  0
   64.3113   31.0948   50.5970 H   0  0  0  0  0  0  0  0  0  0  0  0
   62.3993   31.5109   51.9771 H   0  0  0  0  0  0  0  0  0  0  0  0
   61.3041   31.2272   50.5477 H   0  0  0  0  0  0  0  0  0  0  0  0
   63.1333   29.0344   50.9678 H   0  0  0  0  0  0  0  0  0  0  0  0
   62.1051   29.3892   52.4276 H   0  0  0  0  0  0  0  0  0  0  0  0
   61.3281   27.7924   50.4034 H   0  0  0  0  0  0  0  0  0  0  0  0
   60.2070   28.7833   51.4253 H   0  0  0  0  0  0  0  0  0  0  0  0
   60.2860   30.5230   49.5200 H   0  0  0  0  0  0  0  0  0  0  0  0
   59.7870   30.3920   47.0520 H   0  0  0  0  0  0  0  0  0  0  0  0
   55.9921   25.1690   47.2325 H   0  0  0  0  0  0  0  0  0  0  0  0
   55.8820   25.8531   44.7052 H   0  0  0  0  0  0  0  0  0  0  0  0
   56.9511   29.3053   41.8608 H   0  0  0  0  0  0  0  0  0  0  0  0
   55.7045   28.5986   43.0358 H   0  0  0  0  0  0  0  0  0  0  0  0
   58.8260   30.6630   43.2800 H   0  0  0  0  0  0  0  0  0  0  0  0
   56.7033   33.1744   43.7399 H   0  0  0  0  0  0  0  0  0  0  0  0
   56.9310   35.1752   45.1234 H   0  0  0  0  0  0  0  0  0  0  0  0
   58.5754   35.2641   46.9865 H   0  0  0  0  0  0  0  0  0  0  0  0
   58.6326   30.4932   51.5735 H   0  0  0  0  0  0  0  0  0  0  0  0
   57.8224   31.7876   53.4962 H   0  0  0  0  0  0  0  0  0  0  0  0
   58.0075   34.3273   53.3455 H   0  0  0  0  0  0  0  0  0  0  0  0
   58.9490   35.2220   51.3670 H   0  0  0  0  0  0  0  0  0  0  0  0
   59.7534   31.2298   45.9994 H   0  0  0  0  0  0  0  0  0  0  0  0
  1  2  1  0
  2  3  1  0
  3  4  1  0
  4  5  1  0
  5  6  1  0
  6  7  1  0
  7  8  2  0
  7  9  1  0
  9 10  1  0
 10 11  2  0
 10 12  2  0
 10 13  1  0
 13 14  1  0
 14 15  1  0
 15 16  2  0
 16 17  1  0
 17 18  1  0
 18 19  1  0
 19 20  1  0
 20 21  2  0
 20 22  1  0
 22 23  1  0
 23 24  2  0
 24 25  1  0
 25 26  2  0
 26 27  1  0
 27 28  1  0
 28 29  2  0
 28 30  2  0
 28 31  1  0
 31 32  2  3
 32 33  1  0
 33 34  2  0
 34 35  1  0
 35 36  2  0
 36 37  1  0
 27 38  2  0
 17 13  2  0
 38 23  1  0
 37 32  1  0
  1 39  1  0
  1 40  1  0
  1 41  1  0
  2 42  1  0
  2 43  1  0
  3 44  1  0
  3 45  1  0
  4 46  1  0
  4 47  1  0
  5 48  1  0
  5 49  1  0
  6 50  1  0
  9 51  1  0
 15 52  1  0
 16 53  1  0
 19 54  1  0
 19 55  1  0
 22 56  1  0
 24 57  1  0
 25 58  1  0
 26 59  1  0
 34 60  1  0
 35 61  1  0
 36 62  1  0
 37 63  1  0
 38 64  1  0
M  END
>  <smiles>  (31) 
CCCCCNC(=O)NS(=O)(=O)c1sccc1SCC(=O)Nc1cccc(S(=O)(=O)N=c2nccc[nH]2)c1

>  <score_type>  (31) 
oracle

>  <origin>  (31) 
adg

>  <m_score__min__energy>  (31) 
-10.529999999999999

>  <m_primary>  (31) 
energy

$$$$
31:0
     RDKit          3D

 46 48  0  0  0  0  0  0  0  0999 V2000
   60.0110   35.8660   46.3010 C   0  0  0  0  0  0  0  0  0  0  0  0
   59.1510   34.6500   46.0700 C   0  0  0  0  0  0  0  0  0  0  0  0
   58.4340   34.5630   44.8650 C   0  0  0  0  0  0  0  0  0  0  0  0
   57.6170   33.4650   44.6000 C   0  0  0  0  0  0  0  0  0  0  0  0
   57.4880   32.4410   45.5370 C   0  0  0  0  0  0  0  0  0  0  0  0
   56.6630   31.3100   45.2170 N   0  0  0  0  0  0  0  0  0  0  0  0
   56.8350   30.4070   44.1170 C   0  0  0  0  0  0  0  0  0  0  0  0
   57.5110   30.7850   43.1230 O   0  0  0  0  0  0  0  0  0  0  0  0
   56.2100   29.0380   44.1040 C   0  0  0  0  0  0  0  0  0  0  0  0
   56.9890   28.1070   44.9220 N   0  0  0  0  0  0  0  0  0  0  0  0
   56.5110   27.1860   45.7810 C   0  0  0  0  0  0  0  0  0  0  0  0
   55.1580   26.9450   45.9950 O   0  0  0  0  0  0  0  0  0  0  0  0
   57.5410   26.5310   46.4280 C   0  0  0  0  0  0  0  0  0  0  0  0
   58.7110   27.0890   45.9450 C   0  0  0  0  0  0  0  0  0  0  0  0
   58.3310   28.0560   45.0330 C   0  0  0  0  0  0  0  0  0  0  0  0
   59.2040   28.8890   44.3360 O   0  0  0  0  0  0  0  0  0  0  0  0
   58.2350   32.4930   46.7220 C   0  0  0  0  0  0  0  0  0  0  0  0
   59.0830   33.5820   47.0040 C   0  0  0  0  0  0  0  0  0  0  0  0
   60.0240   33.6330   48.5250 S   0  0  0  0  0  0  0  0  0  0  0  0
   59.6280   34.8650   49.2920 O   0  0  0  0  0  0  0  0  0  0  0  0
   59.6580   32.4250   49.3420 O   0  0  0  0  0  0  0  0  0  0  0  0
   61.7650   33.6760   48.3570 N   0  0  0  0  0  0  0  0  0  0  0  0
   62.4600   33.3600   49.6200 C   0  0  0  0  0  0  0  0  0  0  0  0
   63.8730   32.8230   49.3640 C   0  0  0  0  0  0  0  0  0  0  0  0
   64.4170   33.4550   48.2260 O   0  0  0  0  0  0  0  0  0  0  0  0
   63.7720   32.9790   47.0560 C   0  0  0  0  0  0  0  0  0  0  0  0
   62.2310   32.9180   47.1830 C   0  0  0  0  0  0  0  0  0  0  0  0
   60.1284   36.0321   47.3820 H   0  0  0  0  0  0  0  0  0  0  0  0
   60.9994   35.7081   45.8448 H   0  0  0  0  0  0  0  0  0  0  0  0
   59.5328   36.7453   45.8448 H   0  0  0  0  0  0  0  0  0  0  0  0
   58.5182   35.3702   44.1224 H   0  0  0  0  0  0  0  0  0  0  0  0
   57.0714   33.4063   43.6467 H   0  0  0  0  0  0  0  0  0  0  0  0
   55.1880   29.1036   44.5054 H   0  0  0  0  0  0  0  0  0  0  0  0
   56.1896   28.6678   43.0684 H   0  0  0  0  0  0  0  0  0  0  0  0
   57.4494   25.7289   47.1752 H   0  0  0  0  0  0  0  0  0  0  0  0
   59.7383   26.8176   46.2296 H   0  0  0  0  0  0  0  0  0  0  0  0
   58.9170   29.3380   43.4740 H   0  0  0  0  0  0  0  0  0  0  0  0
   58.1576   31.6679   47.4453 H   0  0  0  0  0  0  0  0  0  0  0  0
   62.5296   34.2739   50.2282 H   0  0  0  0  0  0  0  0  0  0  0  0
   61.8852   32.5831   50.1455 H   0  0  0  0  0  0  0  0  0  0  0  0
   64.5082   33.0309   50.2377 H   0  0  0  0  0  0  0  0  0  0  0  0
   63.8275   31.7372   49.1939 H   0  0  0  0  0  0  0  0  0  0  0  0
   64.0265   33.6485   46.2211 H   0  0  0  0  0  0  0  0  0  0  0  0
   64.1241   31.9505   46.8877 H   0  0  0  0  0  0  0  0  0  0  0  0
   61.7786   33.3461   46.2763 H   0  0  0  0  0  0  0  0  0  0  0  0
   61.9319   31.8665   47.3049 H   0  0  0  0  0  0  0  0  0  0  0  0
  1  2  1  0
  2  3  2  0
  3  4  1  0
  4  5  2  0
  5  6  1  0
  6  7  1  0
  7  8  2  0
  7  9  1  0
  9 10  1  0
 10 11  1  0
 11 12  1  0
 11 13  2  0
 13 14  1  0
 14 15  2  0
 15 16  1  0
  5 17  1  0
 17 18  2  0
 18 19  1  0
 19 20  2  0
 19 21  2  0
 19 22  1  0
 22 23  1  0
 23 24  1  0
 24 25  1  0
 25 26  1  0
 26 27  1  0
 18  2  1  0
 27 22  1  0
 15 10  1  0
  1 28  1  0
  1 29  1  0
  1 30  1  0
  3 31  1  0
  4 32  1  0
  9 33  1  0
  9 34  1  0
 13 35  1  0
 14 36  1  0
 16 37  1  0
 17 38  1  0
 23 39  1  0
 23 40  1  0
 24 41  1  0
 24 42  1  0
 26 43  1  0
 26 44  1  0
 27 45  1  0
 27 46  1  0
M  CHG  2   6  -1  12  -1
M  END
>  <UniqueID>  (32) 
30

>  <SMILES>  (32) 
Cc1ccc([N-]C(=O)Cn2c([O-])ccc2O)cc1S(=O)(=O)N1CCOCC1

>  <Energy>  (32) 
91.55116753160088

>  <Genealogy>  (32) 
Cc1ccc([N-]C(=O)Cn2c([O-])ccc2O)cc1S(=O)(=O)N1CCOCC1 (protonated)
Cc1ccc([N-]C(=O)Cn2c([O-])ccc2O)cc1S(=O)(=O)N1CCOCC1 (3D coordinates assigned)
Cc1ccc([N-]C(=O)Cn2c([O-])ccc2O)cc1S(=O)(=O)N1CCOCC1 (nonaromatic ring conformer: 91.55116753160088 kcal/mol)

>  <smiles>  (32) 
Cc1ccc(NC(=O)Cn2c(O)ccc2O)cc1S(=O)(=O)N1CCOCC1

>  <score_type>  (32) 
oracle

>  <origin>  (32) 
adg

>  <m_score__min__energy>  (32) 
-13.029999999999999

>  <m_primary>  (32) 
energy

$$$$
32:0
     RDKit          3D

 37 39  0  0  0  0  0  0  0  0999 V2000
   64.8388   32.6265   47.1434 H   0  0  0  0  0  0  0  0  0  0  0  0
   63.7750   32.7950   47.3670 C   0  0  0  0  0  0  0  0  0  0  0  0
   63.3300   33.7500   48.2090 N   0  0  0  0  0  0  0  0  0  0  0  0
   61.9910   33.5950   48.1840 C   0  0  0  0  0  0  0  0  0  0  0  0
   61.0600   34.4300   49.0050 C   0  0  0  0  0  0  0  0  0  0  0  0
   61.2555   34.2546   50.0732 H   0  0  0  0  0  0  0  0  0  0  0  0
   61.2196   35.4933   48.7727 H   0  0  0  0  0  0  0  0  0  0  0  0
   60.0203   34.1560   48.7727 H   0  0  0  0  0  0  0  0  0  0  0  0
   61.6740   32.5610   47.3180 C   0  0  0  0  0  0  0  0  0  0  0  0
   60.3520   32.0150   46.9590 C   0  0  0  0  0  0  0  0  0  0  0  0
   59.3310   32.7270   47.1530 O   0  0  0  0  0  0  0  0  0  0  0  0
   60.2080   30.6920   46.4260 N   0  0  0  0  0  0  0  0  0  0  0  0
   60.9590   29.9870   46.5940 H   0  0  0  0  0  0  0  0  0  0  0  0
   58.9430   30.2080   45.9630 C   0  0  0  0  0  0  0  0  0  0  0  0
   58.1420   31.0530   45.1820 C   0  0  0  0  0  0  0  0  0  0  0  0
   58.5099   32.0521   44.9055 H   0  0  0  0  0  0  0  0  0  0  0  0
   56.8820   30.6360   44.7530 C   0  0  0  0  0  0  0  0  0  0  0  0
   56.2639   31.3025   44.1336 H   0  0  0  0  0  0  0  0  0  0  0  0
   56.4050   29.3740   45.1090 C   0  0  0  0  0  0  0  0  0  0  0  0
   55.1490   28.9590   44.6810 O   0  0  0  0  0  0  0  0  0  0  0  0
   57.1890   28.5270   45.8980 C   0  0  0  0  0  0  0  0  0  0  0  0
   56.8059   27.5345   46.1777 H   0  0  0  0  0  0  0  0  0  0  0  0
   58.4630   28.9310   46.3380 C   0  0  0  0  0  0  0  0  0  0  0  0
   59.2570   28.0160   47.1980 C   0  0  0  0  0  0  0  0  0  0  0  0
   58.9700   26.7920   47.2420 O   0  0  0  0  0  0  0  0  0  0  0  0
   60.2800   28.5110   48.0760 N   0  0  0  0  0  0  0  0  0  0  0  0
   60.1570   29.4160   49.0080 C   0  0  0  0  0  0  0  0  0  0  0  0
   61.2750   30.0670   49.4280 N   0  0  0  0  0  0  0  0  0  0  0  0
   61.2380   31.0290   50.3880 C   0  0  0  0  0  0  0  0  0  0  0  0
   62.1671   31.5268   50.7026 H   0  0  0  0  0  0  0  0  0  0  0  0
   60.0230   31.3860   50.9750 C   0  0  0  0  0  0  0  0  0  0  0  0
   59.9881   32.1584   51.7574 H   0  0  0  0  0  0  0  0  0  0  0  0
   58.8540   30.7510   50.5570 C   0  0  0  0  0  0  0  0  0  0  0  0
   57.8884   31.0246   51.0073 H   0  0  0  0  0  0  0  0  0  0  0  0
   58.9090   29.7680   49.5670 C   0  0  0  0  0  0  0  0  0  0  0  0
   57.9884   29.2722   49.2256 H   0  0  0  0  0  0  0  0  0  0  0  0
   62.8000   32.0880   46.8430 O   0  0  0  0  0  0  0  0  0  0  0  0
  1  2  1  0
  2  3  2  0
  3  4  1  0
  4  5  1  0
  5  6  1  0
  5  7  1  0
  5  8  1  0
  4  9  2  0
  9 10  1  0
 10 11  2  0
 10 12  1  0
 12 13  1  0
 12 14  1  0
 14 15  2  0
 15 16  1  0
 15 17  1  0
 17 18  1  0
 17 19  2  0
 19 20  1  0
 19 21  1  0
 21 22  1  0
 21 23  2  0
 23 24  1  0
 24 25  2  0
 24 26  1  0
 26 27  2  0
 27 28  1  0
 28 29  1  0
 29 30  1  0
 29 31  2  0
 31 32  1  0
 31 33  1  0
 33 34  1  0
 33 35  2  0
 35 36  1  0
  9 37  1  0
 37  2  1  0
 23 14  1  0
 35 27  1  0
M  CHG  2  20  -1  28  -1
M  END
>  <UniqueID>  (33) 
31

>  <SMILES>  (33) 
Cc1ncoc1C(=O)Nc1ccc([O-])cc1C(=O)/N=c1\cccc[n-]1

>  <Energy>  (33) 
90.09494155815135

>  <Genealogy>  (33) 
Cc1ncoc1C(=O)Nc1ccc([O-])cc1C(=O)N=c1cccc[n-]1 (protonated)
Cc1ncoc1C(=O)Nc1ccc([O-])cc1C(=O)/N=c1\cccc[n-]1 (cis-trans isomerization)
Cc1ncoc1C(=O)Nc1ccc([O-])cc1C(=O)/N=c1\cccc[n-]1 (3D coordinates assigned)
Cc1ncoc1C(=O)Nc1ccc([O-])cc1C(=O)/N=c1\cccc[n-]1 (optimized conformer: 90.09494155815135 kcal/mol)

>  <smiles>  (33) 
Cc1ncoc1C(=O)Nc1ccc(O)cc1C(=O)N=c1cccc[nH]1

>  <score_type>  (33) 
oracle

>  <origin>  (33) 
adg

>  <m_score__min__energy>  (33) 
-11.18

>  <m_primary>  (33) 
energy

$$$$
33:0
     RDKit          3D

 54 56  0  0  0  0  0  0  0  0999 V2000
   51.8800   31.0680   54.8450 C   0  0  0  0  0  0  0  0  0  0  0  0
   52.3430   30.1010   53.9070 O   0  0  0  0  0  0  0  0  0  0  0  0
   53.5930   30.1460   53.2690 C   0  0  0  0  0  0  0  0  0  0  0  0
   54.6230   29.2390   53.5830 C   0  0  0  0  0  0  0  0  0  0  0  0
   55.8520   29.3090   52.9260 C   0  0  0  0  0  0  0  0  0  0  0  0
   56.0730   30.2780   51.9360 C   0  0  0  0  0  0  0  0  0  0  0  0
   57.3410   30.3850   51.2670 N   0  0  0  0  0  0  0  0  0  0  0  0
   58.5060   30.9720   51.8620 C   0  0  0  0  0  0  0  0  0  0  0  0
   58.5640   31.1420   53.1100 O   0  0  0  0  0  0  0  0  0  0  0  0
   59.6200   31.3130   51.0260 N   0  0  0  0  0  0  0  0  0  0  0  0
   60.3230   30.4360   50.0810 C   0  0  2  0  0  0  0  0  0  0  0  0
   61.4940   31.1480   49.3780 C   0  0  0  0  0  0  0  0  0  0  0  0
   61.0160   32.3050   48.5360 C   0  0  0  0  0  0  0  0  0  0  0  0
   61.5800   32.5400   47.2710 C   0  0  0  0  0  0  0  0  0  0  0  0
   61.1580   33.6250   46.5000 C   0  0  0  0  0  0  0  0  0  0  0  0
   60.1710   34.4890   46.9870 C   0  0  0  0  0  0  0  0  0  0  0  0
   59.7530   35.5680   46.2200 O   0  0  0  0  0  0  0  0  0  0  0  0
   59.6090   34.2660   48.2480 C   0  0  0  0  0  0  0  0  0  0  0  0
   60.0290   33.1810   49.0210 C   0  0  0  0  0  0  0  0  0  0  0  0
   59.3760   29.8280   49.0790 C   0  0  0  0  0  0  0  0  0  0  0  0
   58.5250   28.9890   49.4810 O   0  0  0  0  0  0  0  0  0  0  0  0
   59.5390   30.0960   47.6760 N   0  0  0  0  0  0  0  0  0  0  0  0
   58.6370   30.1990   46.7380 C   0  0  0  0  0  0  0  0  0  0  0  0
   57.8940   29.1020   46.2520 C   0  0  0  0  0  0  0  0  0  0  0  0
   56.9420   29.3060   45.2480 C   0  0  0  0  0  0  0  0  0  0  0  0
   56.7230   30.5520   44.7540 N   0  0  0  0  0  0  0  0  0  0  0  0
   57.4120   31.6290   45.2150 C   0  0  0  0  0  0  0  0  0  0  0  0
   58.3720   31.4720   46.2170 C   0  0  0  0  0  0  0  0  0  0  0  0
   55.0570   31.1960   51.6370 C   0  0  0  0  0  0  0  0  0  0  0  0
   53.8130   31.1300   52.2910 C   0  0  0  0  0  0  0  0  0  0  0  0
   52.7530   32.0480   51.9900 N   0  0  0  0  0  0  0  0  0  0  0  0
   51.1630   31.6080   51.4580 S   0  0  0  0  0  0  0  0  0  0  0  0
   49.9930   32.6430   52.1960 N   0  0  0  0  0  0  0  0  0  0  0  0
   51.0870   31.7610   49.9660 O   0  0  0  0  0  0  0  0  0  0  0  0
   50.8840   30.1750   51.8200 O   0  0  0  0  0  0  0  0  0  0  0  0
   52.0557   30.7010   55.8670 H   0  0  0  0  0  0  0  0  0  0  0  0
   52.4235   32.0127   54.6962 H   0  0  0  0  0  0  0  0  0  0  0  0
   50.8033   31.2370   54.6962 H   0  0  0  0  0  0  0  0  0  0  0  0
   54.4577   28.4697   54.3517 H   0  0  0  0  0  0  0  0  0  0  0  0
   56.6521   28.6003   53.1858 H   0  0  0  0  0  0  0  0  0  0  0  0
   57.4560   29.9250   50.3370 H   0  0  0  0  0  0  0  0  0  0  0  0
   60.7554   29.6185   50.6766 H   0  0  0  0  0  0  0  0  0  0  0  0
   62.1915   31.5255   50.1402 H   0  0  0  0  0  0  0  0  0  0  0  0
   61.9899   30.4228   48.7161 H   0  0  0  0  0  0  0  0  0  0  0  0
   62.3586   31.8653   46.8856 H   0  0  0  0  0  0  0  0  0  0  0  0
   61.6018   33.8006   45.5090 H   0  0  0  0  0  0  0  0  0  0  0  0
   58.8346   34.9464   48.6319 H   0  0  0  0  0  0  0  0  0  0  0  0
   59.5857   33.0112   50.0133 H   0  0  0  0  0  0  0  0  0  0  0  0
   58.0623   28.0943   46.6597 H   0  0  0  0  0  0  0  0  0  0  0  0
   56.3679   28.4532   44.8566 H   0  0  0  0  0  0  0  0  0  0  0  0
   57.2129   32.6271   44.7977 H   0  0  0  0  0  0  0  0  0  0  0  0
   58.9196   32.3472   46.5968 H   0  0  0  0  0  0  0  0  0  0  0  0
   55.2341   31.9768   50.8827 H   0  0  0  0  0  0  0  0  0  0  0  0
   50.3120   33.6250   52.0400 H   0  0  0  0  0  0  0  0  0  0  0  0
  1  2  1  0
  2  3  1  0
  3  4  2  0
  4  5  1  0
  5  6  2  0
  6  7  1  0
  7  8  1  0
  8  9  2  0
  8 10  1  0
 10 11  1  0
 11 12  1  0
 12 13  1  0
 13 14  2  0
 14 15  1  0
 15 16  2  0
 16 17  1  0
 16 18  1  0
 18 19  2  0
 11 20  1  0
 20 21  2  0
 20 22  1  0
 22 23  2  3
 23 24  1  0
 24 25  2  0
 25 26  1  0
 26 27  1  0
 27 28  2  0
  6 29  1  0
 29 30  2  0
 30 31  1  0
 31 32  1  0
 32 33  1  0
 32 34  2  0
 32 35  2  0
 30  3  1  0
 19 13  1  0
 28 23  1  0
  1 36  1  0
  1 37  1  0
  1 38  1  0
  4 39  1  0
  5 40  1  0
  7 41  1  0
 11 42  1  1
 12 43  1  0
 12 44  1  0
 14 45  1  0
 15 46  1  0
 18 47  1  0
 19 48  1  0
 24 49  1  0
 25 50  1  0
 27 51  1  0
 28 52  1  0
 29 53  1  0
 33 54  1  0
M  CHG  5  10  -1  17  -1  26  -1  31  -1  33  -1
M  END
>  <UniqueID>  (34) 
32

>  <SMILES>  (34) 
COc1ccc(NC(=O)[N-][C@H](Cc2ccc([O-])cc2)C(=O)N=c2cc[n-]cc2)cc1[N-]S([NH-])(=O)=O

>  <Energy>  (34) 
65.90639038797413

>  <Genealogy>  (34) 
COc1ccc(NC(=O)[N-]C(Cc2ccc([O-])cc2)C(=O)N=c2cc[n-]cc2)cc1[N-]S([NH-])(=O)=O (protonated)
COc1ccc(NC(=O)[N-][C@H](Cc2ccc([O-])cc2)C(=O)N=c2cc[n-]cc2)cc1[N-]S([NH-])(=O)=O (chirality)
COc1ccc(NC(=O)[N-][C@H](Cc2ccc([O-])cc2)C(=O)N=c2cc[n-]cc2)cc1[N-]S([NH-])(=O)=O (3D coordinates assigned)
COc1ccc(NC(=O)[N-][C@H](Cc2ccc([O-])cc2)C(=O)N=c2cc[n-]cc2)cc1[N-]S([NH-])(=O)=O (optimized conformer: 65.90639038797413 kcal/mol)

>  <smiles>  (34) 
COc1ccc(NC(=O)NC(Cc2ccc(O)cc2)C(=O)N=c2cc[nH]cc2)cc1NS(N)(=O)=O

>  <score_type>  (34) 
oracle

>  <origin>  (34) 
adg

>  <m_score__min__energy>  (34) 
-15.49

>  <m_primary>  (34) 
energy

$$$$
34:0
     RDKit          3D

 48 50  0  0  0  0  0  0  0  0999 V2000
   59.7360   34.5580   48.6390 C   0  0  0  0  0  0  0  0  0  0  0  0
   59.3350   34.1910   47.2500 C   0  0  0  0  0  0  0  0  0  0  0  0
   59.6270   34.9200   46.1030 C   0  0  0  0  0  0  0  0  0  0  0  0
   59.0300   34.3970   44.9500 C   0  0  0  0  0  0  0  0  0  0  0  0
   58.2650   33.2620   45.1950 C   0  0  0  0  0  0  0  0  0  0  0  0
   57.4600   32.5150   44.1760 C   0  0  0  0  0  0  0  0  0  0  0  0
   56.6110   31.5170   44.8210 N   0  0  0  0  0  0  0  0  0  0  0  0
   56.8450   30.1010   44.8450 C   0  0  0  0  0  0  0  0  0  0  0  0
   55.8590   29.3330   44.9990 O   0  0  0  0  0  0  0  0  0  0  0  0
   58.2300   29.5070   44.7480 C   0  0  0  0  0  0  0  0  0  0  0  0
   58.9420   29.4590   46.1070 C   0  0  0  0  0  0  0  0  0  0  0  0
   59.1170   28.0200   46.6160 C   0  0  0  0  0  0  0  0  0  0  0  0
   57.7910   27.4550   47.1300 C   0  0  0  0  0  0  0  0  0  0  0  0
   57.4440   26.2370   46.3990 N   0  0  0  0  0  0  0  0  0  0  0  0
   58.2860   25.2430   46.0370 C   0  0  0  0  0  0  0  0  0  0  0  0
   59.6410   25.2120   46.3500 O   0  0  0  0  0  0  0  0  0  0  0  0
   57.6130   24.2860   45.3050 C   0  0  0  0  0  0  0  0  0  0  0  0
   56.3190   24.7380   45.1670 C   0  0  0  0  0  0  0  0  0  0  0  0
   56.2430   25.9280   45.8620 C   0  0  0  0  0  0  0  0  0  0  0  0
   55.1040   26.7150   45.9910 O   0  0  0  0  0  0  0  0  0  0  0  0
   55.2360   23.9820   44.4590 C   0  0  0  0  0  0  0  0  0  0  0  0
   55.8510   22.9280   43.5150 C   0  0  0  0  0  0  0  0  0  0  0  0
   56.9900   22.1390   44.1980 C   0  0  0  0  0  0  0  0  0  0  0  0
   58.1480   23.0610   44.6290 C   0  0  0  0  0  0  0  0  0  0  0  0
   58.3060   32.9240   46.8430 S   0  0  0  0  0  0  0  0  0  0  0  0
   59.1221   33.9962   49.3584 H   0  0  0  0  0  0  0  0  0  0  0  0
   60.7972   34.3117   48.7915 H   0  0  0  0  0  0  0  0  0  0  0  0
   59.5844   35.6368   48.7915 H   0  0  0  0  0  0  0  0  0  0  0  0
   60.2631   35.8174   46.1016 H   0  0  0  0  0  0  0  0  0  0  0  0
   59.1536   34.8394   43.9505 H   0  0  0  0  0  0  0  0  0  0  0  0
   56.8270   33.2254   43.6240 H   0  0  0  0  0  0  0  0  0  0  0  0
   58.1480   32.0028   43.4873 H   0  0  0  0  0  0  0  0  0  0  0  0
   58.1485   28.4827   44.3554 H   0  0  0  0  0  0  0  0  0  0  0  0
   58.8242   30.1482   44.0803 H   0  0  0  0  0  0  0  0  0  0  0  0
   59.9344   29.9223   46.0043 H   0  0  0  0  0  0  0  0  0  0  0  0
   58.3216   30.0030   46.8344 H   0  0  0  0  0  0  0  0  0  0  0  0
   59.4817   27.3889   45.7922 H   0  0  0  0  0  0  0  0  0  0  0  0
   59.8398   28.0270   47.4452 H   0  0  0  0  0  0  0  0  0  0  0  0
   57.8862   27.2215   48.2007 H   0  0  0  0  0  0  0  0  0  0  0  0
   56.9990   28.2030   46.9777 H   0  0  0  0  0  0  0  0  0  0  0  0
   54.6000   23.4777   45.2014 H   0  0  0  0  0  0  0  0  0  0  0  0
   54.6348   24.6872   43.8663 H   0  0  0  0  0  0  0  0  0  0  0  0
   55.0643   22.2231   43.2080 H   0  0  0  0  0  0  0  0  0  0  0  0
   56.2733   23.4534   42.6457 H   0  0  0  0  0  0  0  0  0  0  0  0
   56.5882   21.6326   45.0880 H   0  0  0  0  0  0  0  0  0  0  0  0
   57.3842   21.4118   43.4729 H   0  0  0  0  0  0  0  0  0  0  0  0
   58.8034   22.5187   45.3264 H   0  0  0  0  0  0  0  0  0  0  0  0
   58.7156   23.3637   43.7367 H   0  0  0  0  0  0  0  0  0  0  0  0
  1  2  1  0
  2  3  2  0
  3  4  1  0
  4  5  2  0
  5  6  1  0
  6  7  1  0
  7  8  1  0
  8  9  2  0
  8 10  1  0
 10 11  1  0
 11 12  1  0
 12 13  1  0
 13 14  1  0
 14 15  1  0
 15 16  1  0
 15 17  2  0
 17 18  1  0
 18 19  2  0
 19 20  1  0
 18 21  1  0
 21 22  1  0
 22 23  1  0
 23 24  1  0
  5 25  1  0
 25  2  1  0
 19 14  1  0
 24 17  1  0
  1 26  1  0
  1 27  1  0
  1 28  1  0
  3 29  1  0
  4 30  1  0
  6 31  1  0
  6 32  1  0
 10 33  1  0
 10 34  1  0
 11 35  1  0
 11 36  1  0
 12 37  1  0
 12 38  1  0
 13 39  1  0
 13 40  1  0
 21 41  1  0
 21 42  1  0
 22 43  1  0
 22 44  1  0
 23 45  1  0
 23 46  1  0
 24 47  1  0
 24 48  1  0
M  CHG  3   7  -1  16  -1  20  -1
M  END
>  <UniqueID>  (35) 
33

>  <SMILES>  (35) 
Cc1ccc(C[N-]C(=O)CCCCn2c([O-])c3c(c2[O-])CCCC3)s1

>  <Energy>  (35) 
92.61878897905126

>  <Genealogy>  (35) 
Cc1ccc(C[N-]C(=O)CCCCn2c([O-])c3c(c2[O-])CCCC3)s1 (protonated)
Cc1ccc(C[N-]C(=O)CCCCn2c([O-])c3c(c2[O-])CCCC3)s1 (3D coordinates assigned)
Cc1ccc(C[N-]C(=O)CCCCn2c([O-])c3c(c2[O-])CCCC3)s1 (nonaromatic ring conformer: 92.61878897905126 kcal/mol)

>  <smiles>  (35) 
Cc1ccc(CNC(=O)CCCCn2c(O)c3c(c2O)CCCC3)s1

>  <score_type>  (35) 
oracle

>  <origin>  (35) 
adg

>  <m_score__min__energy>  (35) 
-15.800000000000001

>  <m_primary>  (35) 
energy

$$$$
35:0
     RDKit          3D

 35 37  0  0  1  0  0  0  0  0999 V2000
   55.5460   24.4520   47.1890 O   0  0  0  0  0  0  0  0  0  0  0  0
   56.6520   25.2190   46.8350 N   0  0  0  0  0  0  0  0  0  0  0  0
   56.4590   26.3390   46.1840 C   0  0  0  0  0  0  0  0  0  0  0  0
   55.1460   26.7280   45.9660 O   0  0  0  0  0  0  0  0  0  0  0  0
   57.5830   27.1450   45.7040 C   0  0  0  0  0  0  0  0  0  0  0  0
   57.9660   28.2150   46.3460 C   0  0  0  0  0  0  0  0  0  0  0  0
   57.6870   29.5760   45.9070 C   0  0  0  0  0  0  0  0  0  0  0  0
   56.9270   29.8740   44.7980 C   0  0  0  0  0  0  0  0  0  0  0  0
   56.6720   31.1360   44.3970 N   0  0  0  0  0  0  0  0  0  0  0  0
   57.1540   32.1890   45.0710 C   0  0  0  0  0  0  0  0  0  0  0  0
   57.0410   33.5140   44.8740 N   0  0  0  0  0  0  0  0  0  0  0  0
   57.7220   34.1270   45.8490 N   0  0  0  0  0  0  0  0  0  0  0  0
   58.2700   33.2040   46.6660 C   0  0  0  0  0  0  0  0  0  0  0  0
   58.9960   33.4200   47.7120 N   0  0  0  0  0  0  0  0  0  0  0  0
   60.4110   33.4620   47.6240 C   0  0  0  0  0  0  0  0  0  0  0  0
   61.1310   33.0940   48.7430 C   0  0  0  0  0  0  0  0  0  0  0  0
   62.5030   33.0870   48.7990 C   0  0  0  0  0  0  0  0  0  0  0  0
   63.1720   33.4780   47.6450 C   0  0  0  0  0  0  0  0  0  0  0  0
   64.5190   33.4840   47.6620 F   0  0  0  0  0  0  0  0  0  0  0  0
   62.4770   33.8490   46.5140 C   0  0  0  0  0  0  0  0  0  0  0  0
   61.0920   33.8480   46.4870 C   0  0  0  0  0  0  0  0  0  0  0  0
   57.9240   31.9620   46.1940 C   0  0  0  0  0  0  0  0  0  0  0  0
   58.1930   30.6550   46.6150 C   0  0  0  0  0  0  0  0  0  0  0  0
   54.6030   24.7150   46.9530 H   0  0  0  0  0  0  0  0  0  0  0  0
   54.3340   26.2900   46.3830 H   0  0  0  0  0  0  0  0  0  0  0  0
   58.1129   26.8442   44.7882 H   0  0  0  0  0  0  0  0  0  0  0  0
   58.5355   28.0807   47.2775 H   0  0  0  0  0  0  0  0  0  0  0  0
   56.5080   29.0431   44.2114 H   0  0  0  0  0  0  0  0  0  0  0  0
   56.5130   33.9720   44.0970 H   0  0  0  0  0  0  0  0  0  0  0  0
   57.8090   35.1830   45.9490 H   0  0  0  0  0  0  0  0  0  0  0  0
   60.5738   32.7890   49.6410 H   0  0  0  0  0  0  0  0  0  0  0  0
   63.0440   32.7878   49.7089 H   0  0  0  0  0  0  0  0  0  0  0  0
   63.0333   34.1520   45.6147 H   0  0  0  0  0  0  0  0  0  0  0  0
   60.5471   34.1481   45.5798 H   0  0  0  0  0  0  0  0  0  0  0  0
   58.8080   30.4832   47.5107 H   0  0  0  0  0  0  0  0  0  0  0  0
  1  2  1  0
  2  3  2  0
  3  4  1  0
  3  5  1  0
  5  6  2  0
  6  7  1  0
  7  8  2  0
  8  9  1  0
  9 10  2  0
 10 11  1  0
 11 12  1  0
 12 13  1  0
 13 14  2  0
 14 15  1  0
 15 16  2  0
 16 17  1  0
 17 18  2  0
 18 19  1  0
 18 20  1  0
 20 21  2  0
 13 22  1  0
 22 23  2  0
 23  7  1  0
 22 10  1  0
 21 15  1  0
  1 24  1  0
  4 25  1  0
  5 26  1  0
  6 27  1  0
  8 28  1  0
 11 29  1  0
 12 30  1  0
 16 31  1  0
 17 32  1  0
 20 33  1  0
 21 34  1  0
 23 35  1  0
M  END
>  <smiles>  (36) 
ON=C(O)C=Cc1cnc2[nH][nH]c(=Nc3ccc(F)cc3)c2c1

>  <score_type>  (36) 
oracle

>  <origin>  (36) 
adg

>  <m_score__min__energy>  (36) 
-9.0700000000000003

>  <m_primary>  (36) 
energy

$$$$
36:0
     RDKit          3D

 64 69  0  0  0  0  0  0  0  0999 V2000
   57.2232   32.6240   50.3235 H   0  0  0  0  0  0  0  0  0  0  0  0
   57.8260   32.3600   51.2050 C   0  0  0  0  0  0  0  0  0  0  0  0
   57.3380   32.6480   52.4170 C   0  0  0  0  0  0  0  0  0  0  0  0
   56.3436   33.1148   52.4736 H   0  0  0  0  0  0  0  0  0  0  0  0
   58.0630   32.3740   53.7100 C   0  0  0  0  0  0  0  0  0  0  0  0
   58.9242   33.0545   53.7829 H   0  0  0  0  0  0  0  0  0  0  0  0
   57.3511   32.5338   54.5332 H   0  0  0  0  0  0  0  0  0  0  0  0
   58.5470   30.9900   53.8000 N   0  0  0  0  0  0  0  0  0  0  0  0
   59.8100   30.5380   54.0250 C   0  0  0  0  0  0  0  0  0  0  0  0
   60.6858   31.1962   54.1238 H   0  0  0  0  0  0  0  0  0  0  0  0
   59.8700   29.1870   54.1140 N   0  0  0  0  0  0  0  0  0  0  0  0
   60.7150   28.5960   54.2820 H   0  0  0  0  0  0  0  0  0  0  0  0
   58.6000   28.7850   53.9640 C   0  0  0  0  0  0  0  0  0  0  0  0
   58.0940   27.4890   54.0130 C   0  0  0  0  0  0  0  0  0  0  0  0
   58.7576   26.6241   54.1599 H   0  0  0  0  0  0  0  0  0  0  0  0
   56.7030   27.3240   53.8680 C   0  0  0  0  0  0  0  0  0  0  0  0
   56.2667   26.3145   53.8918 H   0  0  0  0  0  0  0  0  0  0  0  0
   55.8640   28.4480   53.6920 C   0  0  0  0  0  0  0  0  0  0  0  0
   54.7776   28.3083   53.5911 H   0  0  0  0  0  0  0  0  0  0  0  0
   56.4100   29.7460   53.6450 C   0  0  0  0  0  0  0  0  0  0  0  0
   55.7690   30.6288   53.5038 H   0  0  0  0  0  0  0  0  0  0  0  0
   57.7940   29.8720   53.7840 C   0  0  0  0  0  0  0  0  0  0  0  0
   59.1320   31.7060   50.9900 C   0  0  0  0  0  0  0  0  0  0  0  0
   60.3160   32.3700   51.3180 C   0  0  0  0  0  0  0  0  0  0  0  0
   60.2880   33.6610   51.8320 O   0  0  0  0  0  0  0  0  0  0  0  0
   61.5070   31.7540   51.1330 N   0  0  0  0  0  0  0  0  0  0  0  0
   61.5860   30.4920   50.6380 C   0  0  0  0  0  0  0  0  0  0  0  0
   62.7230   29.9720   50.4750 O   0  0  0  0  0  0  0  0  0  0  0  0
   60.4450   29.7970   50.3210 N   0  0  0  0  0  0  0  0  0  0  0  0
   60.5470   28.4370   49.7520 C   0  0  0  0  0  0  0  0  0  0  0  0
   61.6055   28.1395   49.7196 H   0  0  0  0  0  0  0  0  0  0  0  0
   59.9713   27.7481   50.3876 H   0  0  0  0  0  0  0  0  0  0  0  0
   59.9780   28.3890   48.3540 C   0  0  0  0  0  0  0  0  0  0  0  0
   60.4640   29.2460   47.3500 C   0  0  0  0  0  0  0  0  0  0  0  0
   61.2844   29.9432   47.5755 H   0  0  0  0  0  0  0  0  0  0  0  0
   59.9100   29.2160   46.0680 C   0  0  0  0  0  0  0  0  0  0  0  0
   60.3227   29.8593   45.2769 H   0  0  0  0  0  0  0  0  0  0  0  0
   58.8330   28.3710   45.7880 C   0  0  0  0  0  0  0  0  0  0  0  0
   58.2480   28.4090   44.5250 O   0  0  0  0  0  0  0  0  0  0  0  0
   56.9980   29.5170   44.1670 S   0  0  0  0  0  0  0  0  0  0  0  0
   56.4210   29.1810   42.8220 O   0  0  0  0  0  0  0  0  0  0  0  0
   55.9050   29.4220   45.1950 O   0  0  0  0  0  0  0  0  0  0  0  0
   57.6630   31.1550   44.1430 C   0  0  0  0  0  0  0  0  0  0  0  0
   57.8750   31.7950   42.9120 C   0  0  0  0  0  0  0  0  0  0  0  0
   57.6247   31.2738   41.9762 H   0  0  0  0  0  0  0  0  0  0  0  0
   58.4010   33.0880   42.8650 C   0  0  0  0  0  0  0  0  0  0  0  0
   58.5545   33.5811   41.8938 H   0  0  0  0  0  0  0  0  0  0  0  0
   58.7330   33.7580   44.0440 C   0  0  0  0  0  0  0  0  0  0  0  0
   59.1389   34.7794   44.0008 H   0  0  0  0  0  0  0  0  0  0  0  0
   58.5490   33.1290   45.2820 C   0  0  0  0  0  0  0  0  0  0  0  0
   58.9010   33.7720   46.4750 C   0  0  0  0  0  0  0  0  0  0  0  0
   59.3175   34.7898   46.4506 H   0  0  0  0  0  0  0  0  0  0  0  0
   58.7220   33.1180   47.6960 C   0  0  0  0  0  0  0  0  0  0  0  0
   58.9983   33.6152   48.6375 H   0  0  0  0  0  0  0  0  0  0  0  0
   58.1890   31.8270   47.7110 C   0  0  0  0  0  0  0  0  0  0  0  0
   58.0464   31.3034   48.6678 H   0  0  0  0  0  0  0  0  0  0  0  0
   57.8460   31.2160   46.5460 N   0  0  0  0  0  0  0  0  0  0  0  0
   58.0120   31.8210   45.3360 C   0  0  0  0  0  0  0  0  0  0  0  0
   58.3400   27.5170   46.7810 C   0  0  0  0  0  0  0  0  0  0  0  0
   57.5060   26.8362   46.5555 H   0  0  0  0  0  0  0  0  0  0  0  0
   58.9060   27.5280   48.0590 C   0  0  0  0  0  0  0  0  0  0  0  0
   58.5108   26.8596   48.8381 H   0  0  0  0  0  0  0  0  0  0  0  0
   59.2180   30.3910   50.5030 C   0  0  0  0  0  0  0  0  0  0  0  0
   58.1570   29.7600   50.2430 O   0  0  0  0  0  0  0  0  0  0  0  0
  1  2  1  0
  2  3  2  0
  3  4  1  0
  3  5  1  0
  5  6  1  0
  5  7  1  0
  5  8  1  0
  8  9  1  0
  9 10  1  0
  9 11  2  0
 11 12  1  0
 11 13  1  0
 13 14  2  0
 14 15  1  0
 14 16  1  0
 16 17  1  0
 16 18  2  0
 18 19  1  0
 18 20  1  0
 20 21  1  0
 20 22  2  0
  2 23  1  0
 23 24  2  0
 24 25  1  0
 24 26  1  0
 26 27  1  0
 27 28  2  0
 27 29  1  0
 29 30  1  0
 30 31  1  0
 30 32  1  0
 30 33  1  0
 33 34  2  0
 34 35  1  0
 34 36  1  0
 36 37  1  0
 36 38  2  0
 38 39  1  0
 39 40  1  0
 40 41  2  0
 40 42  2  0
 40 43  1  0
 43 44  2  0
 44 45  1  0
 44 46  1  0
 46 47  1  0
 46 48  2  0
 48 49  1  0
 48 50  1  0
 50 51  2  0
 51 52  1  0
 51 53  1  0
 53 54  1  0
 53 55  2  0
 55 56  1  0
 55 57  1  0
 57 58  2  0
 38 59  1  0
 59 60  1  0
 59 61  2  0
 61 62  1  0
 29 63  1  0
 63 64  2  0
 22  8  1  0
 63 23  1  0
 22 13  1  0
 61 33  1  0
 58 43  1  0
 58 50  1  0
M  CHG  3  11   1  25  -1  26  -1
M  END
>  <UniqueID>  (37) 
34

>  <SMILES>  (37) 
O=c1[n-]c([O-])c(/C=C\Cn2c[nH+]c3ccccc32)c(=O)n1Cc1ccc(OS(=O)(=O)c2cccc3cccnc23)cc1

>  <Energy>  (37) 
125.7351646351866

>  <Genealogy>  (37) 
O=c1[n-]c([O-])c(C=CCn2c[nH+]c3ccccc32)c(=O)n1Cc1ccc(OS(=O)(=O)c2cccc3cccnc23)cc1 (protonated)
O=c1[n-]c([O-])c(/C=C\Cn2c[nH+]c3ccccc32)c(=O)n1Cc1ccc(OS(=O)(=O)c2cccc3cccnc23)cc1 (cis-trans isomerization)
O=c1[n-]c([O-])c(/C=C\Cn2c[nH+]c3ccccc32)c(=O)n1Cc1ccc(OS(=O)(=O)c2cccc3cccnc23)cc1 (3D coordinates assigned)
O=c1[n-]c([O-])c(/C=C\Cn2c[nH+]c3ccccc32)c(=O)n1Cc1ccc(OS(=O)(=O)c2cccc3cccnc23)cc1 (optimized conformer: 125.7351646351866 kcal/mol)

>  <smiles>  (37) 
O=c1[nH]c(O)c(C=CCn2cnc3ccccc32)c(=O)n1Cc1ccc(OS(=O)(=O)c2cccc3cccnc23)cc1

>  <score_type>  (37) 
oracle

>  <origin>  (37) 
adg

>  <m_score__min__energy>  (37) 
-13.699999999999999

>  <m_primary>  (37) 
energy

$$$$
37:0
     RDKit          3D

 38 40  0  0  0  0  0  0  0  0999 V2000
   60.3760   27.6260   48.6430 C   0  0  0  0  0  0  0  0  0  0  0  0
   59.6440   27.9120   47.3660 C   0  0  0  0  0  0  0  0  0  0  0  0
   60.2860   28.5670   46.3060 C   0  0  0  0  0  0  0  0  0  0  0  0
   59.5820   28.8610   45.1370 C   0  0  0  0  0  0  0  0  0  0  0  0
   58.2320   28.5090   45.0390 C   0  0  0  0  0  0  0  0  0  0  0  0
   57.5770   28.7810   43.9510 N   0  0  0  0  0  0  0  0  0  0  0  0
   56.6090   30.2040   43.7400 S   0  0  0  0  0  0  0  0  0  0  0  0
   55.3170   30.0600   44.4960 O   0  0  0  0  0  0  0  0  0  0  0  0
   56.3120   30.4140   42.2820 O   0  0  0  0  0  0  0  0  0  0  0  0
   57.4920   31.5910   44.3550 C   0  0  0  0  0  0  0  0  0  0  0  0
   57.9270   32.6350   43.5460 C   0  0  0  0  0  0  0  0  0  0  0  0
   58.7050   33.7610   44.5230 S   0  0  0  0  0  0  0  0  0  0  0  0
   58.4920   32.9330   45.9720 C   0  0  0  0  0  0  0  0  0  0  0  0
   58.9580   33.3890   47.2890 C   0  0  0  0  0  0  0  0  0  0  0  0
   58.3150   33.0680   48.3240 O   0  0  0  0  0  0  0  0  0  0  0  0
   60.1090   34.2370   47.3760 N   0  0  0  0  0  0  0  0  0  0  0  0
   61.4470   33.8330   47.7070 C   0  0  0  0  0  0  0  0  0  0  0  0
   61.8440   33.8650   49.0500 C   0  0  0  0  0  0  0  0  0  0  0  0
   63.1440   33.4980   49.4130 C   0  0  0  0  0  0  0  0  0  0  0  0
   64.0620   33.1130   48.4330 C   0  0  0  0  0  0  0  0  0  0  0  0
   63.6830   33.1020   47.0870 C   0  0  0  0  0  0  0  0  0  0  0  0
   62.3830   33.4670   46.7210 C   0  0  0  0  0  0  0  0  0  0  0  0
   57.8030   31.7540   45.7120 C   0  0  0  0  0  0  0  0  0  0  0  0
   57.6210   27.8890   46.0870 N   0  0  0  0  0  0  0  0  0  0  0  0
   58.2850   27.5900   47.2360 C   0  0  0  0  0  0  0  0  0  0  0  0
   59.7323   27.8775   49.4988 H   0  0  0  0  0  0  0  0  0  0  0  0
   60.6395   26.5588   48.6835 H   0  0  0  0  0  0  0  0  0  0  0  0
   61.2932   28.2319   48.6835 H   0  0  0  0  0  0  0  0  0  0  0  0
   61.3453   28.8495   46.3954 H   0  0  0  0  0  0  0  0  0  0  0  0
   60.0853   29.3657   44.2992 H   0  0  0  0  0  0  0  0  0  0  0  0
   57.7867   32.7110   42.4576 H   0  0  0  0  0  0  0  0  0  0  0  0
   61.1289   34.1807   49.8240 H   0  0  0  0  0  0  0  0  0  0  0  0
   63.4438   33.5126   50.4713 H   0  0  0  0  0  0  0  0  0  0  0  0
   65.0823   32.8187   48.7199 H   0  0  0  0  0  0  0  0  0  0  0  0
   64.4082   32.8059   46.3147 H   0  0  0  0  0  0  0  0  0  0  0  0
   62.0914   33.4680   45.6603 H   0  0  0  0  0  0  0  0  0  0  0  0
   57.5304   31.0253   46.4897 H   0  0  0  0  0  0  0  0  0  0  0  0
   57.7558   27.0953   48.0638 H   0  0  0  0  0  0  0  0  0  0  0  0
  1  2  1  0
  2  3  1  0
  3  4  2  0
  4  5  1  0
  5  6  2  3
  6  7  1  0
  7  8  2  0
  7  9  2  0
  7 10  1  0
 10 11  2  0
 11 12  1  0
 12 13  1  0
 13 14  1  0
 14 15  2  0
 14 16  1  0
 16 17  1  0
 17 18  2  0
 18 19  1  0
 19 20  2  0
 20 21  1  0
 21 22  2  0
 13 23  2  0
  5 24  1  0
 24 25  1  0
 25  2  2  0
 23 10  1  0
 22 17  1  0
  1 26  1  0
  1 27  1  0
  1 28  1  0
  3 29  1  0
  4 30  1  0
 11 31  1  0
 18 32  1  0
 19 33  1  0
 20 34  1  0
 21 35  1  0
 22 36  1  0
 23 37  1  0
 25 38  1  0
M  CHG  2  16  -1  24  -1
M  END
>  <UniqueID>  (38) 
35

>  <SMILES>  (38) 
Cc1ccc(=NS(=O)(=O)c2csc(C(=O)[N-]c3ccccc3)c2)[n-]c1

>  <Energy>  (38) 
72.53526320458397

>  <Genealogy>  (38) 
Cc1ccc(=NS(=O)(=O)c2csc(C(=O)[N-]c3ccccc3)c2)[n-]c1 (protonated)
Cc1ccc(=NS(=O)(=O)c2csc(C(=O)[N-]c3ccccc3)c2)[n-]c1 (3D coordinates assigned)
Cc1ccc(=NS(=O)(=O)c2csc(C(=O)[N-]c3ccccc3)c2)[n-]c1 (optimized conformer: 72.53526320458397 kcal/mol)

>  <smiles>  (38) 
Cc1ccc(=NS(=O)(=O)c2csc(C(=O)Nc3ccccc3)c2)[nH]c1

>  <score_type>  (38) 
oracle

>  <origin>  (38) 
adg

>  <m_score__min__energy>  (38) 
-11.23

>  <m_primary>  (38) 
energy

$$$$
38:0
     RDKit          3D

 43 45  0  0  0  0  0  0  0  0999 V2000
   58.0810   32.5200   42.6950 C   0  0  0  0  0  0  0  0  0  0  0  0
   58.0390   32.2330   44.1310 N   0  0  0  0  0  0  0  0  0  0  0  0
   58.0050   30.8680   44.6010 C   0  0  0  0  0  0  0  0  0  0  0  0
   59.1860   30.2110   44.9900 C   0  0  0  0  0  0  0  0  0  0  0  0
   59.1500   28.8970   45.4620 C   0  0  0  0  0  0  0  0  0  0  0  0
   57.9260   28.2180   45.5820 C   0  0  0  0  0  0  0  0  0  0  0  0
   57.8810   26.8220   46.0760 C   0  0  0  0  0  0  0  0  0  0  0  0
   57.8120   25.7740   45.3040 N   0  0  0  0  0  0  0  0  0  0  0  0
   56.6430   25.0030   44.9850 C   0  0  0  0  0  0  0  0  0  0  0  0
   55.4780   25.1900   45.7430 C   0  0  0  0  0  0  0  0  0  0  0  0
   54.3310   24.4380   45.4690 C   0  0  0  0  0  0  0  0  0  0  0  0
   54.3480   23.4790   44.4520 C   0  0  0  0  0  0  0  0  0  0  0  0
   55.5170   23.2600   43.7160 C   0  0  0  0  0  0  0  0  0  0  0  0
   55.5380   22.2940   42.7170 O   0  0  0  0  0  0  0  0  0  0  0  0
   56.6650   24.0110   43.9880 C   0  0  0  0  0  0  0  0  0  0  0  0
   56.7460   28.8560   45.1710 C   0  0  0  0  0  0  0  0  0  0  0  0
   55.5240   28.1940   45.2420 O   0  0  0  0  0  0  0  0  0  0  0  0
   56.7860   30.1710   44.6940 C   0  0  0  0  0  0  0  0  0  0  0  0
   57.9750   33.5640   45.2560 S   0  0  0  0  0  0  0  0  0  0  0  0
   58.1600   34.8510   44.5000 O   0  0  0  0  0  0  0  0  0  0  0  0
   56.6330   33.6050   45.9330 O   0  0  0  0  0  0  0  0  0  0  0  0
   59.2350   33.3800   46.4720 C   0  0  0  0  0  0  0  0  0  0  0  0
   58.9830   32.6860   47.6660 C   0  0  0  0  0  0  0  0  0  0  0  0
   59.9860   32.5630   48.6320 C   0  0  0  0  0  0  0  0  0  0  0  0
   61.2460   33.1270   48.4100 C   0  0  0  0  0  0  0  0  0  0  0  0
   61.5040   33.8140   47.2200 C   0  0  0  0  0  0  0  0  0  0  0  0
   60.5030   33.9400   46.2530 C   0  0  0  0  0  0  0  0  0  0  0  0
   58.2387   33.5977   42.5409 H   0  0  0  0  0  0  0  0  0  0  0  0
   58.9066   31.9589   42.2329 H   0  0  0  0  0  0  0  0  0  0  0  0
   57.1292   32.2190   42.2329 H   0  0  0  0  0  0  0  0  0  0  0  0
   60.1491   30.7380   44.9217 H   0  0  0  0  0  0  0  0  0  0  0  0
   60.0857   28.3907   45.7415 H   0  0  0  0  0  0  0  0  0  0  0  0
   57.9075   26.6595   47.1636 H   0  0  0  0  0  0  0  0  0  0  0  0
   55.4663   25.9308   46.5560 H   0  0  0  0  0  0  0  0  0  0  0  0
   53.4143   24.6014   46.0546 H   0  0  0  0  0  0  0  0  0  0  0  0
   53.4416   22.8964   44.2305 H   0  0  0  0  0  0  0  0  0  0  0  0
   57.5886   23.8252   43.4201 H   0  0  0  0  0  0  0  0  0  0  0  0
   55.8527   30.6662   44.3878 H   0  0  0  0  0  0  0  0  0  0  0  0
   57.9939   32.2379   47.8419 H   0  0  0  0  0  0  0  0  0  0  0  0
   59.7837   32.0218   49.5680 H   0  0  0  0  0  0  0  0  0  0  0  0
   62.0340   33.0302   49.1714 H   0  0  0  0  0  0  0  0  0  0  0  0
   62.4960   34.2558   47.0447 H   0  0  0  0  0  0  0  0  0  0  0  0
   60.7097   34.4799   45.3171 H   0  0  0  0  0  0  0  0  0  0  0  0
  1  2  1  0
  2  3  1  0
  3  4  2  0
  4  5  1  0
  5  6  2  0
  6  7  1  0
  7  8  2  3
  8  9  1  0
  9 10  2  0
 10 11  1  0
 11 12  2  0
 12 13  1  0
 13 14  1  0
 13 15  2  0
  6 16  1  0
 16 17  1  0
 16 18  2  0
  2 19  1  0
 19 20  2  0
 19 21  2  0
 19 22  1  0
 22 23  2  0
 23 24  1  0
 24 25  2  0
 25 26  1  0
 26 27  2  0
 18  3  1  0
 27 22  1  0
 15  9  1  0
  1 28  1  0
  1 29  1  0
  1 30  1  0
  4 31  1  0
  5 32  1  0
  7 33  1  0
 10 34  1  0
 11 35  1  0
 12 36  1  0
 15 37  1  0
 18 38  1  0
 23 39  1  0
 24 40  1  0
 25 41  1  0
 26 42  1  0
 27 43  1  0
M  CHG  2  14  -1  17  -1
M  END
>  <UniqueID>  (39) 
36

>  <SMILES>  (39) 
CN(c1ccc(C=Nc2cccc([O-])c2)c([O-])c1)S(=O)(=O)c1ccccc1

>  <Energy>  (39) 
61.673165869342434

>  <Genealogy>  (39) 
CN(c1ccc(C=Nc2cccc([O-])c2)c([O-])c1)S(=O)(=O)c1ccccc1 (protonated)
CN(c1ccc(C=Nc2cccc([O-])c2)c([O-])c1)S(=O)(=O)c1ccccc1 (3D coordinates assigned)
CN(c1ccc(C=Nc2cccc([O-])c2)c([O-])c1)S(=O)(=O)c1ccccc1 (optimized conformer: 61.673165869342434 kcal/mol)

>  <smiles>  (39) 
CN(c1ccc(C=Nc2cccc(O)c2)c(O)c1)S(=O)(=O)c1ccccc1

>  <score_type>  (39) 
oracle

>  <origin>  (39) 
adg

>  <m_score__min__energy>  (39) 
-14.369999999999999

>  <m_primary>  (39) 
energy

$$$$
39:0
     RDKit          3D

 42 44  0  0  0  0  0  0  0  0999 V2000
   57.6360   30.2450   51.8610 C   0  0  0  0  0  0  0  0  0  0  0  0
   58.2270   31.5990   51.6000 C   0  0  0  0  0  0  0  0  0  0  0  0
   58.1470   32.6010   52.5760 C   0  0  0  0  0  0  0  0  0  0  0  0
   58.6790   33.8610   52.3090 C   0  0  0  0  0  0  0  0  0  0  0  0
   59.2800   34.1130   51.0770 C   0  0  0  0  0  0  0  0  0  0  0  0
   59.3400   33.1010   50.1110 C   0  0  0  0  0  0  0  0  0  0  0  0
   59.8880   33.3750   48.9600 N   0  0  0  0  0  0  0  0  0  0  0  0
   59.2940   34.0630   47.8470 C   0  0  0  0  0  0  0  0  0  0  0  0
   59.1990   35.3190   47.9000 O   0  0  0  0  0  0  0  0  0  0  0  0
   58.8450   33.3560   46.6200 C   0  0  0  0  0  0  0  0  0  0  0  0
   58.6600   34.1000   45.4420 C   0  0  0  0  0  0  0  0  0  0  0  0
   58.2100   33.4840   44.2740 C   0  0  0  0  0  0  0  0  0  0  0  0
   57.9510   32.1150   44.2630 C   0  0  0  0  0  0  0  0  0  0  0  0
   57.3850   31.3420   42.7920 Cl  0  0  0  0  0  0  0  0  0  0  0  0
   58.1510   31.3550   45.4170 C   0  0  0  0  0  0  0  0  0  0  0  0
   58.6010   31.9620   46.6060 C   0  0  0  0  0  0  0  0  0  0  0  0
   58.8570   31.1820   47.7860 N   0  0  0  0  0  0  0  0  0  0  0  0
   60.2750   30.2290   48.0820 S   0  0  0  0  0  0  0  0  0  0  0  0
   60.0870   29.4270   49.3390 O   0  0  0  0  0  0  0  0  0  0  0  0
   60.4780   29.2820   46.9350 O   0  0  0  0  0  0  0  0  0  0  0  0
   61.6830   31.2800   48.2060 C   0  0  0  0  0  0  0  0  0  0  0  0
   62.4640   31.3040   49.3710 C   0  0  0  0  0  0  0  0  0  0  0  0
   63.5610   32.1660   49.4630 C   0  0  0  0  0  0  0  0  0  0  0  0
   63.8860   33.0030   48.3910 C   0  0  0  0  0  0  0  0  0  0  0  0
   63.1170   32.9750   47.2240 C   0  0  0  0  0  0  0  0  0  0  0  0
   63.4390   33.7810   46.1820 F   0  0  0  0  0  0  0  0  0  0  0  0
   62.0190   32.1150   47.1300 C   0  0  0  0  0  0  0  0  0  0  0  0
   58.7910   31.8750   50.3870 N   0  0  0  0  0  0  0  0  0  0  0  0
   57.5637   30.0794   52.9461 H   0  0  0  0  0  0  0  0  0  0  0  0
   56.6323   30.1907   51.4142 H   0  0  0  0  0  0  0  0  0  0  0  0
   58.2786   29.4721   51.4142 H   0  0  0  0  0  0  0  0  0  0  0  0
   57.6684   32.3949   53.5447 H   0  0  0  0  0  0  0  0  0  0  0  0
   58.6247   34.6547   53.0687 H   0  0  0  0  0  0  0  0  0  0  0  0
   59.7062   35.1045   50.8640 H   0  0  0  0  0  0  0  0  0  0  0  0
   58.8723   35.1793   45.4410 H   0  0  0  0  0  0  0  0  0  0  0  0
   58.0596   34.0793   43.3613 H   0  0  0  0  0  0  0  0  0  0  0  0
   57.9555   30.2727   45.3976 H   0  0  0  0  0  0  0  0  0  0  0  0
   62.2129   30.6433   50.2139 H   0  0  0  0  0  0  0  0  0  0  0  0
   64.1690   32.1858   50.3795 H   0  0  0  0  0  0  0  0  0  0  0  0
   64.7469   33.6836   48.4661 H   0  0  0  0  0  0  0  0  0  0  0  0
   61.4168   32.0930   46.2098 H   0  0  0  0  0  0  0  0  0  0  0  0
   58.7620   31.1270   49.6610 H   0  0  0  0  0  0  0  0  0  0  0  0
  1  2  1  0
  2  3  2  0
  3  4  1  0
  4  5  2  0
  5  6  1  0
  6  7  2  3
  7  8  1  0
  8  9  2  0
  8 10  1  0
 10 11  2  0
 11 12  1  0
 12 13  2  0
 13 14  1  0
 13 15  1  0
 15 16  2  0
 16 17  1  0
 17 18  1  0
 18 19  2  0
 18 20  2  0
 18 21  1  0
 21 22  2  0
 22 23  1  0
 23 24  2  0
 24 25  1  0
 25 26  1  0
 25 27  2  0
  6 28  1  0
 28  2  1  0
 16 10  1  0
 27 21  1  0
  1 29  1  0
  1 30  1  0
  1 31  1  0
  3 32  1  0
  4 33  1  0
  5 34  1  0
 11 35  1  0
 12 36  1  0
 15 37  1  0
 22 38  1  0
 23 39  1  0
 24 40  1  0
 27 41  1  0
 28 42  1  0
M  CHG  1  17  -1
M  END
>  <UniqueID>  (40) 
37

>  <SMILES>  (40) 
Cc1cccc(=NC(=O)c2ccc(Cl)cc2[N-]S(=O)(=O)c2cccc(F)c2)[nH]1

>  <Energy>  (40) 
55.59331703167279

>  <Genealogy>  (40) 
Cc1cccc(=NC(=O)c2ccc(Cl)cc2[N-]S(=O)(=O)c2cccc(F)c2)[nH]1 (protonated)
Cc1cccc(=NC(=O)c2ccc(Cl)cc2[N-]S(=O)(=O)c2cccc(F)c2)[nH]1 (3D coordinates assigned)
Cc1cccc(=NC(=O)c2ccc(Cl)cc2[N-]S(=O)(=O)c2cccc(F)c2)[nH]1 (optimized conformer: 55.59331703167279 kcal/mol)

>  <smiles>  (40) 
Cc1cccc(=NC(=O)c2ccc(Cl)cc2NS(=O)(=O)c2cccc(F)c2)[nH]1

>  <score_type>  (40) 
oracle

>  <origin>  (40) 
adg

>  <m_score__min__energy>  (40) 
-9.5399999999999991

>  <m_primary>  (40) 
energy

$$$$
40:0
     RDKit          3D

 49 52  0  0  0  0  0  0  0  0999 V2000
   52.0770   29.4660   54.2230 C   0  0  0  0  0  0  0  0  0  0  0  0
   53.2890   29.8730   53.4260 C   0  0  0  0  0  0  0  0  0  0  0  0
   54.5660   29.6040   53.9450 C   0  0  0  0  0  0  0  0  0  0  0  0
   55.7150   29.9690   53.2420 C   0  0  0  0  0  0  0  0  0  0  0  0
   55.6080   30.6290   52.0090 C   0  0  0  0  0  0  0  0  0  0  0  0
   56.7620   30.9990   51.2400 N   0  0  0  0  0  0  0  0  0  0  0  0
   58.1280   30.6620   51.5240 C   0  0  0  0  0  0  0  0  0  0  0  0
   58.6850   31.1250   52.5570 O   0  0  0  0  0  0  0  0  0  0  0  0
   58.9080   29.8090   50.5880 C   0  0  0  0  0  0  0  0  0  0  0  0
   58.5380   29.7600   49.2290 C   0  0  0  0  0  0  0  0  0  0  0  0
   59.2500   28.9680   48.3150 C   0  0  0  0  0  0  0  0  0  0  0  0
   58.8110   28.8930   46.8770 C   0  0  0  0  0  0  0  0  0  0  0  0
   58.8980   30.2100   46.2550 N   0  0  0  0  0  0  0  0  0  0  0  0
   57.8420   30.8940   45.5720 C   0  0  0  0  0  0  0  0  0  0  0  0
   56.7850   30.3410   45.1660 O   0  0  0  0  0  0  0  0  0  0  0  0
   58.1600   32.3120   45.4490 C   0  0  0  0  0  0  0  0  0  0  0  0
   57.4430   33.3600   44.8740 C   0  0  0  0  0  0  0  0  0  0  0  0
   58.0020   34.6490   44.9250 C   0  0  0  0  0  0  0  0  0  0  0  0
   59.2500   34.8630   45.5500 C   0  0  0  0  0  0  0  0  0  0  0  0
   59.9510   33.7900   46.1290 C   0  0  0  0  0  0  0  0  0  0  0  0
   59.3790   32.5220   46.0600 C   0  0  0  0  0  0  0  0  0  0  0  0
   59.8400   31.2380   46.5770 C   0  0  0  0  0  0  0  0  0  0  0  0
   60.9010   31.0500   47.2270 O   0  0  0  0  0  0  0  0  0  0  0  0
   60.3310   28.1990   48.7650 C   0  0  0  0  0  0  0  0  0  0  0  0
   60.7100   28.2400   50.1070 C   0  0  0  0  0  0  0  0  0  0  0  0
   60.0100   29.0350   51.0190 C   0  0  0  0  0  0  0  0  0  0  0  0
   60.4190   29.0300   52.3490 O   0  0  0  0  0  0  0  0  0  0  0  0
   54.3390   30.8830   51.4760 C   0  0  0  0  0  0  0  0  0  0  0  0
   53.1740   30.5270   52.1750 C   0  0  0  0  0  0  0  0  0  0  0  0
   51.5960   30.8900   51.4550 S   0  0  0  0  0  0  0  0  0  0  0  0
   51.4160   32.5880   51.1880 N   0  0  0  0  0  0  0  0  0  0  0  0
   51.4740   30.1820   50.1350 O   0  0  0  0  0  0  0  0  0  0  0  0
   50.4980   30.4340   52.3750 O   0  0  0  0  0  0  0  0  0  0  0  0
   52.3021   29.5416   55.2971 H   0  0  0  0  0  0  0  0  0  0  0  0
   51.2361   30.1310   53.9769 H   0  0  0  0  0  0  0  0  0  0  0  0
   51.8079   28.4282   53.9769 H   0  0  0  0  0  0  0  0  0  0  0  0
   54.6617   29.0993   54.9177 H   0  0  0  0  0  0  0  0  0  0  0  0
   56.7076   29.7384   53.6561 H   0  0  0  0  0  0  0  0  0  0  0  0
   57.6786   30.3511   48.8796 H   0  0  0  0  0  0  0  0  0  0  0  0
   59.4614   28.1911   46.3345 H   0  0  0  0  0  0  0  0  0  0  0  0
   57.7682   28.5452   46.8374 H   0  0  0  0  0  0  0  0  0  0  0  0
   56.4688   33.1837   44.3946 H   0  0  0  0  0  0  0  0  0  0  0  0
   57.4637   35.4963   44.4751 H   0  0  0  0  0  0  0  0  0  0  0  0
   59.6770   35.8762   45.5843 H   0  0  0  0  0  0  0  0  0  0  0  0
   60.9219   33.9475   46.6216 H   0  0  0  0  0  0  0  0  0  0  0  0
   60.8824   27.5612   48.0584 H   0  0  0  0  0  0  0  0  0  0  0  0
   61.5669   27.6417   50.4503 H   0  0  0  0  0  0  0  0  0  0  0  0
   54.2527   31.3696   50.4932 H   0  0  0  0  0  0  0  0  0  0  0  0
   51.0350   32.7090   50.2210 H   0  0  0  0  0  0  0  0  0  0  0  0
  1  2  1  0
  2  3  2  0
  3  4  1  0
  4  5  2  0
  5  6  1  0
  6  7  1  0
  7  8  2  0
  7  9  1  0
  9 10  2  0
 10 11  1  0
 11 12  1  0
 12 13  1  0
 13 14  1  0
 14 15  2  0
 14 16  1  0
 16 17  2  0
 17 18  1  0
 18 19  2  0
 19 20  1  0
 20 21  2  0
 21 22  1  0
 22 23  2  0
 11 24  2  0
 24 25  1  0
 25 26  2  0
 26 27  1  0
  5 28  1  0
 28 29  2  0
 29 30  1  0
 30 31  1  0
 30 32  2  0
 30 33  2  0
 29  2  1  0
 26  9  1  0
 22 13  1  0
 21 16  1  0
  1 34  1  0
  1 35  1  0
  1 36  1  0
  3 37  1  0
  4 38  1  0
 10 39  1  0
 12 40  1  0
 12 41  1  0
 17 42  1  0
 18 43  1  0
 19 44  1  0
 20 45  1  0
 24 46  1  0
 25 47  1  0
 28 48  1  0
 31 49  1  0
M  CHG  3   6  -1  27  -1  31  -1
M  END
>  <UniqueID>  (41) 
38

>  <SMILES>  (41) 
Cc1ccc([N-]C(=O)c2cc(CN3C(=O)c4ccccc4C3=O)ccc2[O-])cc1S([NH-])(=O)=O

>  <Energy>  (41) 
91.77913006452737

>  <Genealogy>  (41) 
Cc1ccc([N-]C(=O)c2cc(CN3C(=O)c4ccccc4C3=O)ccc2[O-])cc1S([NH-])(=O)=O (protonated)
Cc1ccc([N-]C(=O)c2cc(CN3C(=O)c4ccccc4C3=O)ccc2[O-])cc1S([NH-])(=O)=O (3D coordinates assigned)
Cc1ccc([N-]C(=O)c2cc(CN3C(=O)c4ccccc4C3=O)ccc2[O-])cc1S([NH-])(=O)=O (nonaromatic ring conformer: 91.77913006452737 kcal/mol)

>  <smiles>  (41) 
Cc1ccc(NC(=O)c2cc(CN3C(=O)c4ccccc4C3=O)ccc2O)cc1S(N)(=O)=O

>  <score_type>  (41) 
oracle

>  <origin>  (41) 
adg

>  <m_score__min__energy>  (41) 
-15.67

>  <m_primary>  (41) 
energy

$$$$
41:0
     RDKit          3D

 70 74  0  0  0  0  0  0  0  0999 V2000
   58.7844   23.8894   45.7013 H   0  0  0  0  0  0  0  0  0  0  0  0
   58.7190   24.9570   45.9580 C   0  0  0  0  0  0  0  0  0  0  0  0
   59.2120   25.4000   47.1420 N   0  0  0  0  0  0  0  0  0  0  0  0
   59.1320   26.7070   47.4940 C   0  0  0  0  0  0  0  0  0  0  0  0
   59.6510   27.0950   48.6230 N   0  0  0  0  0  0  0  0  0  0  0  0
   60.3570   28.3230   48.8620 C   0  0  0  0  0  0  0  0  0  0  0  0
   60.5840   29.2560   47.8350 C   0  0  0  0  0  0  0  0  0  0  0  0
   60.1812   29.0700   46.8285 H   0  0  0  0  0  0  0  0  0  0  0  0
   61.3170   30.4160   48.0850 C   0  0  0  0  0  0  0  0  0  0  0  0
   61.4926   31.1382   47.2741 H   0  0  0  0  0  0  0  0  0  0  0  0
   61.8320   30.6660   49.3680 C   0  0  0  0  0  0  0  0  0  0  0  0
   62.6260   31.8410   49.6080 N   0  0  0  0  0  0  0  0  0  0  0  0
   62.9920   32.2020   50.9830 C   0  0  0  0  0  0  0  0  0  0  0  0
   62.0812   32.4629   51.5419 H   0  0  0  0  0  0  0  0  0  0  0  0
   63.4955   31.3432   51.4509 H   0  0  0  0  0  0  0  0  0  0  0  0
   63.9500   33.4000   50.9950 C   0  0  0  0  0  0  0  0  0  0  0  0
   63.3729   34.3188   50.8140 H   0  0  0  0  0  0  0  0  0  0  0  0
   64.4460   33.4303   51.9764 H   0  0  0  0  0  0  0  0  0  0  0  0
   64.9940   33.2800   49.9580 N   0  0  0  0  0  0  0  0  0  0  0  0
   65.9740   32.2340   50.2850 C   0  0  0  0  0  0  0  0  0  0  0  0
   66.0607   32.1415   51.3777 H   0  0  0  0  0  0  0  0  0  0  0  0
   65.6418   31.2749   49.8610 H   0  0  0  0  0  0  0  0  0  0  0  0
   66.9527   32.5030   49.8610 H   0  0  0  0  0  0  0  0  0  0  0  0
   64.4620   33.1340   48.5760 C   0  0  0  0  0  0  0  0  0  0  0  0
   64.5896   34.0941   48.0545 H   0  0  0  0  0  0  0  0  0  0  0  0
   65.0256   32.3143   48.1064 H   0  0  0  0  0  0  0  0  0  0  0  0
   62.9740   32.7420   48.5080 C   0  0  0  0  0  0  0  0  0  0  0  0
   62.3577   33.6505   48.5765 H   0  0  0  0  0  0  0  0  0  0  0  0
   62.7873   32.2255   47.5549 H   0  0  0  0  0  0  0  0  0  0  0  0
   61.5540   29.7690   50.4080 C   0  0  0  0  0  0  0  0  0  0  0  0
   61.9299   29.9754   51.4210 H   0  0  0  0  0  0  0  0  0  0  0  0
   60.7980   28.6060   50.1680 C   0  0  0  0  0  0  0  0  0  0  0  0
   60.4700   27.7100   51.1980 O   0  0  0  0  0  0  0  0  0  0  0  0
   61.1890   26.5150   51.4850 C   0  0  0  0  0  0  0  0  0  0  0  0
   61.2664   26.3864   52.5747 H   0  0  0  0  0  0  0  0  0  0  0  0
   60.6585   25.6547   51.0510 H   0  0  0  0  0  0  0  0  0  0  0  0
   62.1976   26.5807   51.0510 H   0  0  0  0  0  0  0  0  0  0  0  0
   58.5650   27.5970   46.6360 N   0  0  0  0  0  0  0  0  0  0  0  0
   58.0660   27.2120   45.4310 C   0  0  0  0  0  0  0  0  0  0  0  0
   57.4930   28.1880   44.6050 O   0  0  0  0  0  0  0  0  0  0  0  0
   57.6970   29.5650   44.7560 C   0  0  0  0  0  0  0  0  0  0  0  0
   58.9240   30.0050   45.2700 C   0  0  0  0  0  0  0  0  0  0  0  0
   59.7196   29.2770   45.4869 H   0  0  0  0  0  0  0  0  0  0  0  0
   59.1410   31.3630   45.5080 C   0  0  0  0  0  0  0  0  0  0  0  0
   60.0839   31.6925   45.9689 H   0  0  0  0  0  0  0  0  0  0  0  0
   58.1690   32.3080   45.1650 C   0  0  0  0  0  0  0  0  0  0  0  0
   58.4300   33.6910   45.4330 N   0  0  0  0  0  0  0  0  0  0  0  0
   59.6720   34.2550   46.5070 S   0  0  0  0  0  0  0  0  0  0  0  0
   61.0220   33.8570   45.9850 O   0  0  0  0  0  0  0  0  0  0  0  0
   59.6100   35.7520   46.5870 O   0  0  0  0  0  0  0  0  0  0  0  0
   59.3950   33.5910   48.1190 C   0  0  0  0  0  0  0  0  0  0  0  0
   58.3900   32.6300   48.3350 C   0  0  0  0  0  0  0  0  0  0  0  0
   57.7757   32.2809   47.4919 H   0  0  0  0  0  0  0  0  0  0  0  0
   58.1690   32.1170   49.6170 C   0  0  0  0  0  0  0  0  0  0  0  0
   57.3858   31.3619   49.7797 H   0  0  0  0  0  0  0  0  0  0  0  0
   58.9440   32.5640   50.6930 C   0  0  0  0  0  0  0  0  0  0  0  0
   58.7679   32.1633   51.7022 H   0  0  0  0  0  0  0  0  0  0  0  0
   59.9440   33.5220   50.4840 C   0  0  0  0  0  0  0  0  0  0  0  0
   60.5530   33.8723   51.3304 H   0  0  0  0  0  0  0  0  0  0  0  0
   60.1710   34.0350   49.2020 C   0  0  0  0  0  0  0  0  0  0  0  0
   61.1330   34.9790   49.0220 F   0  0  0  0  0  0  0  0  0  0  0  0
   56.9610   31.8780   44.5930 C   0  0  0  0  0  0  0  0  0  0  0  0
   56.2024   32.6192   44.3014 H   0  0  0  0  0  0  0  0  0  0  0  0
   56.7110   30.5080   44.3890 C   0  0  0  0  0  0  0  0  0  0  0  0
   55.3960   30.0740   43.7930 C   0  0  0  0  0  0  0  0  0  0  0  0
   54.6868   29.8399   44.6007 H   0  0  0  0  0  0  0  0  0  0  0  0
   54.9894   30.8856   43.1717 H   0  0  0  0  0  0  0  0  0  0  0  0
   55.5523   29.1798   43.1717 H   0  0  0  0  0  0  0  0  0  0  0  0
   58.1290   25.8530   45.0650 C   0  0  0  0  0  0  0  0  0  0  0  0
   57.4350   25.2360   43.5670 Cl  0  0  0  0  0  0  0  0  0  0  0  0
  1  2  1  0
  2  3  1  0
  3  4  1  0
  4  5  2  0
  5  6  1  0
  6  7  2  0
  7  8  1  0
  7  9  1  0
  9 10  1  0
  9 11  2  0
 11 12  1  0
 12 13  1  0
 13 14  1  0
 13 15  1  0
 13 16  1  0
 16 17  1  0
 16 18  1  0
 16 19  1  0
 19 20  1  0
 20 21  1  0
 20 22  1  0
 20 23  1  0
 19 24  1  0
 24 25  1  0
 24 26  1  0
 24 27  1  0
 27 28  1  0
 27 29  1  0
 11 30  1  0
 30 31  1  0
 30 32  2  0
 32 33  1  0
 33 34  1  0
 34 35  1  0
 34 36  1  0
 34 37  1  0
  4 38  1  0
 38 39  2  0
 39 40  1  0
 40 41  1  0
 41 42  2  0
 42 43  1  0
 42 44  1  0
 44 45  1  0
 44 46  2  0
 46 47  1  0
 47 48  1  0
 48 49  2  0
 48 50  2  0
 48 51  1  0
 51 52  2  0
 52 53  1  0
 52 54  1  0
 54 55  1  0
 54 56  2  0
 56 57  1  0
 56 58  1  0
 58 59  1  0
 58 60  2  0
 60 61  1  0
 46 62  1  0
 62 63  1  0
 62 64  2  0
 64 65  1  0
 65 66  1  0
 65 67  1  0
 65 68  1  0
 39 69  1  0
 69 70  1  0
 69  2  2  0
 32  6  1  0
 64 41  1  0
 27 12  1  0
 60 51  1  0
M  CHG  2   3  -1  47  -1
M  END
>  <UniqueID>  (42) 
39

>  <SMILES>  (42) 
COc1cc(N2CCN(C)CC2)ccc1/N=c1\nc(Oc2ccc([N-]S(=O)(=O)c3ccccc3F)cc2C)c(Cl)c[n-]1

>  <Energy>  (42) 
111.78045289460441

>  <Genealogy>  (42) 
COc1cc(N2CCN(C)CC2)ccc1N=c1nc(Oc2ccc([N-]S(=O)(=O)c3ccccc3F)cc2C)c(Cl)c[n-]1 (protonated)
COc1cc(N2CCN(C)CC2)ccc1/N=c1\nc(Oc2ccc([N-]S(=O)(=O)c3ccccc3F)cc2C)c(Cl)c[n-]1 (cis-trans isomerization)
COc1cc(N2CCN(C)CC2)ccc1/N=c1\nc(Oc2ccc([N-]S(=O)(=O)c3ccccc3F)cc2C)c(Cl)c[n-]1 (3D coordinates assigned)
COc1cc(N2CCN(C)CC2)ccc1/N=c1\nc(Oc2ccc([N-]S(=O)(=O)c3ccccc3F)cc2C)c(Cl)c[n-]1 (nonaromatic ring conformer: 111.78045289460441 kcal/mol)

>  <smiles>  (42) 
COc1cc(N2CCN(C)CC2)ccc1N=c1nc(Oc2ccc(NS(=O)(=O)c3ccccc3F)cc2C)c(Cl)c[nH]1

>  <score_type>  (42) 
oracle

>  <origin>  (42) 
adg

>  <m_score__min__energy>  (42) 
-12.99

>  <m_primary>  (42) 
energy

$$$$
42:0
     RDKit          3D

 47 49  0  0  0  0  0  0  0  0999 V2000
   51.0670   32.6130   51.4310 N   0  0  0  0  0  0  0  0  0  0  0  0
   51.4510   30.9330   51.5460 S   0  0  0  0  0  0  0  0  0  0  0  0
   50.4200   30.2390   52.3900 O   0  0  0  0  0  0  0  0  0  0  0  0
   51.4400   30.3230   50.1720 O   0  0  0  0  0  0  0  0  0  0  0  0
   53.0450   30.7420   52.2700 C   0  0  0  0  0  0  0  0  0  0  0  0
   53.1850   30.0920   53.5030 C   0  0  0  0  0  0  0  0  0  0  0  0
   54.4520   29.9200   54.0640 C   0  0  0  0  0  0  0  0  0  0  0  0
   55.5860   30.3980   53.4010 C   0  0  0  0  0  0  0  0  0  0  0  0
   55.4570   31.0660   52.1700 C   0  0  0  0  0  0  0  0  0  0  0  0
   56.6080   31.5390   51.4500 N   0  0  0  0  0  0  0  0  0  0  0  0
   57.7400   30.7130   51.1150 C   0  0  0  0  0  0  0  0  0  0  0  0
   57.8310   29.5470   51.5860 O   0  0  0  0  0  0  0  0  0  0  0  0
   58.8090   31.2100   50.2190 C   0  0  0  0  0  0  0  0  0  0  0  0
   59.3150   30.4160   49.1740 C   0  0  0  0  0  0  0  0  0  0  0  0
   60.3620   30.8820   48.3750 C   0  0  0  0  0  0  0  0  0  0  0  0
   60.9180   32.1470   48.6070 C   0  0  0  0  0  0  0  0  0  0  0  0
   62.3270   32.6940   47.7040 S   0  0  0  0  0  0  0  0  0  0  0  0
   63.0780   31.4920   47.2070 O   0  0  0  0  0  0  0  0  0  0  0  0
   63.2410   33.4970   48.5900 O   0  0  0  0  0  0  0  0  0  0  0  0
   61.8280   33.6580   46.3430 N   0  0  0  0  0  0  0  0  0  0  0  0
   60.7660   34.6000   46.7110 C   0  0  0  0  0  0  0  0  0  0  0  0
   59.4280   34.1430   46.1930 C   0  0  0  0  0  0  0  0  0  0  0  0
   58.3570   33.9200   47.0770 C   0  0  0  0  0  0  0  0  0  0  0  0
   57.1290   33.4560   46.5950 C   0  0  0  0  0  0  0  0  0  0  0  0
   56.9560   33.2220   45.2280 C   0  0  0  0  0  0  0  0  0  0  0  0
   58.0070   33.4640   44.3400 C   0  0  0  0  0  0  0  0  0  0  0  0
   59.2370   33.9280   44.8170 C   0  0  0  0  0  0  0  0  0  0  0  0
   60.3860   32.9600   49.6140 C   0  0  0  0  0  0  0  0  0  0  0  0
   59.3380   32.4970   50.4130 C   0  0  0  0  0  0  0  0  0  0  0  0
   54.1830   31.2130   51.6010 C   0  0  0  0  0  0  0  0  0  0  0  0
   50.0460   32.7080   51.6310 H   0  0  0  0  0  0  0  0  0  0  0  0
   52.2955   29.7165   54.0300 H   0  0  0  0  0  0  0  0  0  0  0  0
   54.5582   29.4066   55.0310 H   0  0  0  0  0  0  0  0  0  0  0  0
   56.5824   30.2513   53.8434 H   0  0  0  0  0  0  0  0  0  0  0  0
   56.6220   32.5500   51.1910 H   0  0  0  0  0  0  0  0  0  0  0  0
   58.8836   29.4220   48.9847 H   0  0  0  0  0  0  0  0  0  0  0  0
   60.7514   30.2534   47.5606 H   0  0  0  0  0  0  0  0  0  0  0  0
   60.7189   34.6770   47.8073 H   0  0  0  0  0  0  0  0  0  0  0  0
   60.9973   35.5775   46.2627 H   0  0  0  0  0  0  0  0  0  0  0  0
   58.4859   34.1115   48.1525 H   0  0  0  0  0  0  0  0  0  0  0  0
   56.2981   33.2749   47.2927 H   0  0  0  0  0  0  0  0  0  0  0  0
   55.9927   32.8474   44.8515 H   0  0  0  0  0  0  0  0  0  0  0  0
   57.8667   33.2892   43.2631 H   0  0  0  0  0  0  0  0  0  0  0  0
   60.0584   34.1255   44.1126 H   0  0  0  0  0  0  0  0  0  0  0  0
   60.7949   33.9681   49.7771 H   0  0  0  0  0  0  0  0  0  0  0  0
   58.9239   33.1447   51.1998 H   0  0  0  0  0  0  0  0  0  0  0  0
   54.0764   31.7021   50.6215 H   0  0  0  0  0  0  0  0  0  0  0  0
  1  2  1  0
  2  3  2  0
  2  4  2  0
  2  5  1  0
  5  6  2  0
  6  7  1  0
  7  8  2  0
  8  9  1  0
  9 10  1  0
 10 11  1  0
 11 12  2  0
 11 13  1  0
 13 14  2  0
 14 15  1  0
 15 16  2  0
 16 17  1  0
 17 18  2  0
 17 19  2  0
 17 20  1  0
 20 21  1  0
 21 22  1  0
 22 23  2  0
 23 24  1  0
 24 25  2  0
 25 26  1  0
 26 27  2  0
 16 28  1  0
 28 29  2  0
  9 30  2  0
 30  5  1  0
 29 13  1  0
 27 22  1  0
  1 31  1  0
  6 32  1  0
  7 33  1  0
  8 34  1  0
 10 35  1  0
 14 36  1  0
 15 37  1  0
 21 38  1  0
 21 39  1  0
 23 40  1  0
 24 41  1  0
 25 42  1  0
 26 43  1  0
 27 44  1  0
 28 45  1  0
 29 46  1  0
 30 47  1  0
M  CHG  2   1  -1  20  -1
M  END
>  <UniqueID>  (43) 
40

>  <SMILES>  (43) 
[NH-]S(=O)(=O)c1cccc(NC(=O)c2ccc(S(=O)(=O)[N-]Cc3ccccc3)cc2)c1

>  <Energy>  (43) 
51.54048586284176

>  <Genealogy>  (43) 
[NH-]S(=O)(=O)c1cccc(NC(=O)c2ccc(S(=O)(=O)[N-]Cc3ccccc3)cc2)c1 (protonated)
[NH-]S(=O)(=O)c1cccc(NC(=O)c2ccc(S(=O)(=O)[N-]Cc3ccccc3)cc2)c1 (3D coordinates assigned)
[NH-]S(=O)(=O)c1cccc(NC(=O)c2ccc(S(=O)(=O)[N-]Cc3ccccc3)cc2)c1 (optimized conformer: 51.54048586284176 kcal/mol)

>  <smiles>  (43) 
NS(=O)(=O)c1cccc(NC(=O)c2ccc(S(=O)(=O)NCc3ccccc3)cc2)c1

>  <score_type>  (43) 
oracle

>  <origin>  (43) 
adg

>  <m_score__min__energy>  (43) 
-13.09

>  <m_primary>  (43) 
energy

$$$$
43:0
     RDKit          3D

 29 30  0  0  0  0  0  0  0  0999 V2000
   58.5510   25.2261   44.1924 H   0  0  0  0  0  0  0  0  0  0  0  0
   58.0950   25.8310   44.9900 C   0  0  0  0  0  0  0  0  0  0  0  0
   57.2700   25.2040   45.8450 C   0  0  0  0  0  0  0  0  0  0  0  0
   57.6008   25.1011   46.8890 H   0  0  0  0  0  0  0  0  0  0  0  0
   55.9480   24.6410   45.4860 C   0  0  0  0  0  0  0  0  0  0  0  0
   54.7620   25.3870   45.6190 C   0  0  0  0  0  0  0  0  0  0  0  0
   54.7980   26.6980   46.0840 O   0  0  0  0  0  0  0  0  0  0  0  0
   53.5690   24.8340   45.2750 N   0  0  0  0  0  0  0  0  0  0  0  0
   52.6940   25.3930   45.3880 H   0  0  0  0  0  0  0  0  0  0  0  0
   53.5030   23.5720   44.7730 C   0  0  0  0  0  0  0  0  0  0  0  0
   52.3900   23.0740   44.4570 O   0  0  0  0  0  0  0  0  0  0  0  0
   54.6380   22.8460   44.6050 N   0  0  0  0  0  0  0  0  0  0  0  0
   55.8510   23.3510   44.9410 C   0  0  0  0  0  0  0  0  0  0  0  0
   56.8820   22.6460   44.7700 O   0  0  0  0  0  0  0  0  0  0  0  0
   58.4400   27.2690   45.0340 C   0  0  0  0  0  0  0  0  0  0  0  0
   59.7730   27.6420   45.2590 C   0  0  0  0  0  0  0  0  0  0  0  0
   60.5437   26.8677   45.3873 H   0  0  0  0  0  0  0  0  0  0  0  0
   60.1270   28.9920   45.3210 C   0  0  0  0  0  0  0  0  0  0  0  0
   61.1771   29.2766   45.4829 H   0  0  0  0  0  0  0  0  0  0  0  0
   59.1510   29.9820   45.1780 C   0  0  0  0  0  0  0  0  0  0  0  0
   59.4366   31.0435   45.2181 H   0  0  0  0  0  0  0  0  0  0  0  0
   57.8050   29.6250   44.9830 C   0  0  0  0  0  0  0  0  0  0  0  0
   56.7850   30.5800   44.8510 O   0  0  0  0  0  0  0  0  0  0  0  0
   57.0070   31.9810   44.7370 C   0  0  0  0  0  0  0  0  0  0  0  0
   57.0772   32.4240   45.7414 H   0  0  0  0  0  0  0  0  0  0  0  0
   57.9448   32.1604   44.1907 H   0  0  0  0  0  0  0  0  0  0  0  0
   56.1706   32.4415   44.1907 H   0  0  0  0  0  0  0  0  0  0  0  0
   57.4570   28.2700   44.9230 C   0  0  0  0  0  0  0  0  0  0  0  0
   56.4033   27.9847   44.7876 H   0  0  0  0  0  0  0  0  0  0  0  0
  1  2  1  0
  2  3  2  0
  3  4  1  0
  3  5  1  0
  5  6  2  0
  6  7  1  0
  6  8  1  0
  8  9  1  0
  8 10  1  0
 10 11  2  0
 10 12  1  0
 12 13  1  0
 13 14  2  0
  2 15  1  0
 15 16  2  0
 16 17  1  0
 16 18  1  0
 18 19  1  0
 18 20  2  0
 20 21  1  0
 20 22  1  0
 22 23  1  0
 23 24  1  0
 24 25  1  0
 24 26  1  0
 24 27  1  0
 22 28  2  0
 28 29  1  0
 13  5  1  0
 28 15  1  0
M  CHG  2   7  -1  12  -1
M  END
>  <UniqueID>  (44) 
41

>  <SMILES>  (44) 
COc1cccc(/C=C\c2c([O-])[nH]c(=O)[n-]c2=O)c1

>  <Energy>  (44) 
41.54807948927007

>  <Genealogy>  (44) 
COc1cccc(C=Cc2c([O-])[nH]c(=O)[n-]c2=O)c1 (protonated)
COc1cccc(/C=C\c2c([O-])[nH]c(=O)[n-]c2=O)c1 (cis-trans isomerization)
COc1cccc(/C=C\c2c([O-])[nH]c(=O)[n-]c2=O)c1 (3D coordinates assigned)
COc1cccc(/C=C\c2c([O-])[nH]c(=O)[n-]c2=O)c1 (optimized conformer: 41.54807948927007 kcal/mol)

>  <smiles>  (44) 
COc1cccc(C=Cc2c(O)[nH]c(=O)[nH]c2=O)c1

>  <score_type>  (44) 
oracle

>  <origin>  (44) 
adg

>  <m_score__min__energy>  (44) 
-12.07

>  <m_primary>  (44) 
energy

$$$$
44:0
     RDKit          3D

 54 57  0  0  0  0  0  0  0  0999 V2000
   57.6620   25.2860   47.7780 O   0  0  0  0  0  0  0  0  0  0  0  0
   58.0930   25.4120   46.5990 C   0  0  0  0  0  0  0  0  0  0  0  0
   58.7660   24.3170   45.9700 N   0  0  0  0  0  0  0  0  0  0  0  0
   57.9310   22.9190   45.3860 S   0  0  0  0  0  0  0  0  0  0  0  0
   58.1050   21.7890   46.3620 O   0  0  0  0  0  0  0  0  0  0  0  0
   58.5170   22.5060   44.0650 O   0  0  0  0  0  0  0  0  0  0  0  0
   56.2260   23.3010   45.1660 C   0  0  0  0  0  0  0  0  0  0  0  0
   55.6810   23.4270   43.8790 C   0  0  0  0  0  0  0  0  0  0  0  0
   54.3210   23.7170   43.7190 C   0  0  0  0  0  0  0  0  0  0  0  0
   53.5020   23.8780   44.8410 C   0  0  0  0  0  0  0  0  0  0  0  0
   54.0400   23.7470   46.1240 C   0  0  0  0  0  0  0  0  0  0  0  0
   55.3990   23.4570   46.2880 C   0  0  0  0  0  0  0  0  0  0  0  0
   57.9030   26.6890   45.8710 C   0  0  0  0  0  0  0  0  0  0  0  0
   59.0050   27.3660   45.3180 C   0  0  0  0  0  0  0  0  0  0  0  0
   58.8260   28.5690   44.6290 C   0  0  0  0  0  0  0  0  0  0  0  0
   57.5440   29.1180   44.4730 C   0  0  0  0  0  0  0  0  0  0  0  0
   57.3820   30.4390   43.7610 C   0  0  0  0  0  0  0  0  0  0  0  0
   57.7800   31.5420   44.6450 N   0  0  0  0  0  0  0  0  0  0  0  0
   57.7420   32.8250   44.1800 C   0  0  0  0  0  0  0  0  0  0  0  0
   58.0920   33.8890   45.0070 C   0  0  0  0  0  0  0  0  0  0  0  0
   58.4830   33.6440   46.3240 C   0  0  0  0  0  0  0  0  0  0  0  0
   58.7910   34.6210   47.0590 O   0  0  0  0  0  0  0  0  0  0  0  0
   58.5180   32.3200   46.8120 C   0  0  0  0  0  0  0  0  0  0  0  0
   58.9350   31.9960   48.2020 C   0  0  0  0  0  0  0  0  0  0  0  0
   58.2620   32.4370   49.1730 O   0  0  0  0  0  0  0  0  0  0  0  0
   60.1140   31.2140   48.4450 N   0  0  0  0  0  0  0  0  0  0  0  0
   61.4650   31.6910   48.5470 C   0  0  0  0  0  0  0  0  0  0  0  0
   62.1920   31.3980   49.7090 C   0  0  0  0  0  0  0  0  0  0  0  0
   63.5040   31.8590   49.8600 C   0  0  0  0  0  0  0  0  0  0  0  0
   64.0950   32.6270   48.8560 C   0  0  0  0  0  0  0  0  0  0  0  0
   65.3640   33.0830   49.0090 F   0  0  0  0  0  0  0  0  0  0  0  0
   63.3720   32.9440   47.7030 C   0  0  0  0  0  0  0  0  0  0  0  0
   62.0590   32.4870   47.5480 C   0  0  0  0  0  0  0  0  0  0  0  0
   58.1490   31.2820   45.9350 C   0  0  0  0  0  0  0  0  0  0  0  0
   56.4390   28.4500   45.0340 C   0  0  0  0  0  0  0  0  0  0  0  0
   55.1570   28.9730   44.9140 O   0  0  0  0  0  0  0  0  0  0  0  0
   56.6210   27.2450   45.7220 C   0  0  0  0  0  0  0  0  0  0  0  0
   56.3231   23.2978   42.9952 H   0  0  0  0  0  0  0  0  0  0  0  0
   53.8960   23.8184   42.7095 H   0  0  0  0  0  0  0  0  0  0  0  0
   52.4339   24.1079   44.7136 H   0  0  0  0  0  0  0  0  0  0  0  0
   53.3945   23.8720   47.0059 H   0  0  0  0  0  0  0  0  0  0  0  0
   55.8196   23.3512   47.2989 H   0  0  0  0  0  0  0  0  0  0  0  0
   60.0154   26.9455   45.4286 H   0  0  0  0  0  0  0  0  0  0  0  0
   59.6975   29.0898   44.2055 H   0  0  0  0  0  0  0  0  0  0  0  0
   58.0151   30.4473   42.8615 H   0  0  0  0  0  0  0  0  0  0  0  0
   56.3269   30.5679   43.4779 H   0  0  0  0  0  0  0  0  0  0  0  0
   57.4321   33.0199   43.1427 H   0  0  0  0  0  0  0  0  0  0  0  0
   58.0604   34.9195   44.6235 H   0  0  0  0  0  0  0  0  0  0  0  0
   61.7275   30.8013   50.5079 H   0  0  0  0  0  0  0  0  0  0  0  0
   64.0704   31.6159   50.7711 H   0  0  0  0  0  0  0  0  0  0  0  0
   63.8367   33.5547   46.9149 H   0  0  0  0  0  0  0  0  0  0  0  0
   61.4893   32.7497   46.6444 H   0  0  0  0  0  0  0  0  0  0  0  0
   58.1579   30.2426   46.2948 H   0  0  0  0  0  0  0  0  0  0  0  0
   55.7506   26.7271   46.1511 H   0  0  0  0  0  0  0  0  0  0  0  0
  1  2  2  0
  2  3  1  0
  3  4  1  0
  4  5  2  0
  4  6  2  0
  4  7  1  0
  7  8  2  0
  8  9  1  0
  9 10  2  0
 10 11  1  0
 11 12  2  0
  2 13  1  0
 13 14  2  0
 14 15  1  0
 15 16  2  0
 16 17  1  0
 17 18  1  0
 18 19  1  0
 19 20  2  0
 20 21  1  0
 21 22  2  0
 21 23  1  0
 23 24  1  0
 24 25  2  0
 24 26  1  0
 26 27  1  0
 27 28  2  0
 28 29  1  0
 29 30  2  0
 30 31  1  0
 30 32  1  0
 32 33  2  0
 23 34  2  0
 16 35  1  0
 35 36  1  0
 35 37  2  0
 12  7  1  0
 37 13  1  0
 34 18  1  0
 33 27  1  0
  8 38  1  0
  9 39  1  0
 10 40  1  0
 11 41  1  0
 12 42  1  0
 14 43  1  0
 15 44  1  0
 17 45  1  0
 17 46  1  0
 19 47  1  0
 20 48  1  0
 28 49  1  0
 29 50  1  0
 32 51  1  0
 33 52  1  0
 34 53  1  0
 37 54  1  0
M  CHG  3   3  -1  26  -1  36  -1
M  END
>  <UniqueID>  (45) 
42

>  <SMILES>  (45) 
O=C([N-]S(=O)(=O)c1ccccc1)c1ccc(Cn2ccc(=O)c(C(=O)[N-]c3ccc(F)cc3)c2)c([O-])c1

>  <Energy>  (45) 
69.49571338141743

>  <Genealogy>  (45) 
O=C([N-]S(=O)(=O)c1ccccc1)c1ccc(Cn2ccc(=O)c(C(=O)[N-]c3ccc(F)cc3)c2)c([O-])c1 (protonated)
O=C([N-]S(=O)(=O)c1ccccc1)c1ccc(Cn2ccc(=O)c(C(=O)[N-]c3ccc(F)cc3)c2)c([O-])c1 (3D coordinates assigned)
O=C([N-]S(=O)(=O)c1ccccc1)c1ccc(Cn2ccc(=O)c(C(=O)[N-]c3ccc(F)cc3)c2)c([O-])c1 (optimized conformer: 69.49571338141743 kcal/mol)

>  <smiles>  (45) 
O=C(NS(=O)(=O)c1ccccc1)c1ccc(Cn2ccc(=O)c(C(=O)Nc3ccc(F)cc3)c2)c(O)c1

>  <score_type>  (45) 
oracle

>  <origin>  (45) 
adg

>  <m_score__min__energy>  (45) 
-16.41

>  <m_primary>  (45) 
energy

$$$$
45:0
     RDKit          3D

 52 56  0  0  0  0  0  0  0  0999 V2000
   58.9650   33.8190   48.5460 O   0  0  0  0  0  0  0  0  0  0  0  0
   58.9580   33.8820   47.2850 C   0  0  0  0  0  0  0  0  0  0  0  0
   57.7430   34.1780   46.5880 N   0  0  0  0  0  0  0  0  0  0  0  0
   57.6410   34.2580   45.1350 C   0  0  0  0  0  0  0  0  0  0  0  0
   57.6660   32.8790   44.5340 C   0  0  0  0  0  0  0  0  0  0  0  0
   57.4940   32.7130   43.1530 C   0  0  0  0  0  0  0  0  0  0  0  0
   57.4860   31.4330   42.5940 C   0  0  0  0  0  0  0  0  0  0  0  0
   57.6380   30.3090   43.4090 C   0  0  0  0  0  0  0  0  0  0  0  0
   57.8000   30.4540   44.7970 C   0  0  0  0  0  0  0  0  0  0  0  0
   57.9430   29.2590   45.6690 C   0  0  0  0  0  0  0  0  0  0  0  0
   58.9870   29.1820   46.6070 C   0  0  0  0  0  0  0  0  0  0  0  0
   59.1110   28.0650   47.4330 C   0  0  0  0  0  0  0  0  0  0  0  0
   58.2010   27.0110   47.3360 C   0  0  0  0  0  0  0  0  0  0  0  0
   57.1500   27.0640   46.4030 C   0  0  0  0  0  0  0  0  0  0  0  0
   56.1870   25.9460   46.2940 C   0  0  0  0  0  0  0  0  0  0  0  0
   55.0070   26.0500   45.6230 N   0  0  0  0  0  0  0  0  0  0  0  0
   54.4710   24.8310   45.7810 C   0  0  0  0  0  0  0  0  0  0  0  0
   53.2540   24.3640   45.2900 C   0  0  0  0  0  0  0  0  0  0  0  0
   52.8980   23.0330   45.5830 C   0  0  0  0  0  0  0  0  0  0  0  0
   51.7250   22.5320   45.1260 F   0  0  0  0  0  0  0  0  0  0  0  0
   53.7610   22.2160   46.3470 C   0  0  0  0  0  0  0  0  0  0  0  0
   54.9870   22.7210   46.8200 C   0  0  0  0  0  0  0  0  0  0  0  0
   55.3020   24.0430   46.5140 C   0  0  0  0  0  0  0  0  0  0  0  0
   56.4040   24.7250   46.8540 N   0  0  0  0  0  0  0  0  0  0  0  0
   57.0300   28.1920   45.5730 C   0  0  0  0  0  0  0  0  0  0  0  0
   57.8150   31.7470   45.3520 C   0  0  0  0  0  0  0  0  0  0  0  0
   60.1690   33.7040   46.5390 N   0  0  0  0  0  0  0  0  0  0  0  0
   61.3970   33.2090   47.1020 C   0  0  0  0  0  0  0  0  0  0  0  0
   61.3570   32.1190   47.9860 C   0  0  0  0  0  0  0  0  0  0  0  0
   62.5360   31.6360   48.5630 C   0  0  0  0  0  0  0  0  0  0  0  0
   63.7590   32.2450   48.2730 C   0  0  0  0  0  0  0  0  0  0  0  0
   63.8050   33.3440   47.4110 C   0  0  0  0  0  0  0  0  0  0  0  0
   62.6300   33.8300   46.8320 C   0  0  0  0  0  0  0  0  0  0  0  0
   56.6978   34.7550   44.8641 H   0  0  0  0  0  0  0  0  0  0  0  0
   58.4946   34.8333   44.7471 H   0  0  0  0  0  0  0  0  0  0  0  0
   57.3648   33.5939   42.5070 H   0  0  0  0  0  0  0  0  0  0  0  0
   57.3596   31.3098   41.5083 H   0  0  0  0  0  0  0  0  0  0  0  0
   57.6308   29.3042   42.9614 H   0  0  0  0  0  0  0  0  0  0  0  0
   59.7099   30.0069   46.6900 H   0  0  0  0  0  0  0  0  0  0  0  0
   59.9305   28.0144   48.1650 H   0  0  0  0  0  0  0  0  0  0  0  0
   58.3064   26.1347   47.9925 H   0  0  0  0  0  0  0  0  0  0  0  0
   52.5941   25.0119   44.6944 H   0  0  0  0  0  0  0  0  0  0  0  0
   53.4732   21.1788   46.5737 H   0  0  0  0  0  0  0  0  0  0  0  0
   55.6717   22.0941   47.4101 H   0  0  0  0  0  0  0  0  0  0  0  0
   56.2121   28.2415   44.8391 H   0  0  0  0  0  0  0  0  0  0  0  0
   57.9447   31.8724   46.4371 H   0  0  0  0  0  0  0  0  0  0  0  0
   60.1770   34.0330   45.5470 H   0  0  0  0  0  0  0  0  0  0  0  0
   60.3947   31.6430   48.2257 H   0  0  0  0  0  0  0  0  0  0  0  0
   62.5000   30.7749   49.2465 H   0  0  0  0  0  0  0  0  0  0  0  0
   64.6858   31.8597   48.7230 H   0  0  0  0  0  0  0  0  0  0  0  0
   64.7677   33.8271   47.1880 H   0  0  0  0  0  0  0  0  0  0  0  0
   62.6692   34.7018   46.1623 H   0  0  0  0  0  0  0  0  0  0  0  0
  1  2  2  0
  2  3  1  0
  3  4  1  0
  4  5  1  0
  5  6  2  0
  6  7  1  0
  7  8  2  0
  8  9  1  0
  9 10  1  0
 10 11  2  0
 11 12  1  0
 12 13  2  0
 13 14  1  0
 14 15  1  0
 15 16  2  0
 16 17  1  0
 17 18  2  0
 18 19  1  0
 19 20  1  0
 19 21  2  0
 21 22  1  0
 22 23  2  0
 23 24  1  0
 14 25  2  0
  9 26  2  0
  2 27  1  0
 27 28  1  0
 28 29  2  0
 29 30  1  0
 30 31  2  0
 31 32  1  0
 32 33  2  0
 26  5  1  0
 33 28  1  0
 25 10  1  0
 24 15  1  0
 23 17  1  0
  4 34  1  0
  4 35  1  0
  6 36  1  0
  7 37  1  0
  8 38  1  0
 11 39  1  0
 12 40  1  0
 13 41  1  0
 18 42  1  0
 21 43  1  0
 22 44  1  0
 25 45  1  0
 26 46  1  0
 27 47  1  0
 29 48  1  0
 30 49  1  0
 31 50  1  0
 32 51  1  0
 33 52  1  0
M  CHG  2   3  -1  24  -1
M  END
>  <UniqueID>  (46) 
43

>  <SMILES>  (46) 
O=C([N-]Cc1cccc(-c2cccc(-c3nc4cc(F)ccc4[n-]3)c2)c1)Nc1ccccc1

>  <Energy>  (46) 
99.91010909403725

>  <Genealogy>  (46) 
O=C([N-]Cc1cccc(-c2cccc(-c3nc4cc(F)ccc4[n-]3)c2)c1)Nc1ccccc1 (protonated)
O=C([N-]Cc1cccc(-c2cccc(-c3nc4cc(F)ccc4[n-]3)c2)c1)Nc1ccccc1 (3D coordinates assigned)
O=C([N-]Cc1cccc(-c2cccc(-c3nc4cc(F)ccc4[n-]3)c2)c1)Nc1ccccc1 (optimized conformer: 99.91010909403725 kcal/mol)

>  <smiles>  (46) 
O=C(NCc1cccc(-c2cccc(-c3nc4cc(F)ccc4[nH]3)c2)c1)Nc1ccccc1

>  <score_type>  (46) 
oracle

>  <origin>  (46) 
adg

>  <m_score__min__energy>  (46) 
-12.460000000000001

>  <m_primary>  (46) 
energy

$$$$
46:0
     RDKit          3D

 36 38  0  0  0  0  0  0  0  0999 V2000
   58.5110   32.2240   49.9970 C   0  0  0  0  0  0  0  0  0  0  0  0
   59.8880   32.6200   49.5400 C   0  0  0  0  0  0  0  0  0  0  0  0
   60.9490   32.6300   50.4580 C   0  0  0  0  0  0  0  0  0  0  0  0
   62.2320   32.9890   50.0490 C   0  0  0  0  0  0  0  0  0  0  0  0
   62.4700   33.3620   48.7270 C   0  0  0  0  0  0  0  0  0  0  0  0
   61.4200   33.3880   47.7950 C   0  0  0  0  0  0  0  0  0  0  0  0
   61.7110   33.8190   46.3840 C   0  0  0  0  0  0  0  0  0  0  0  0
   60.1230   32.9870   48.1950 C   0  0  0  0  0  0  0  0  0  0  0  0
   59.0370   32.9820   47.2570 N   0  0  0  0  0  0  0  0  0  0  0  0
   58.4960   34.1910   46.7080 C   0  0  0  0  0  0  0  0  0  0  0  0
   58.9440   35.3130   47.0710 O   0  0  0  0  0  0  0  0  0  0  0  0
   57.3930   34.1270   45.6980 C   0  0  0  0  0  0  0  0  0  0  0  0
   57.9950   33.3920   44.1400 S   0  0  0  0  0  0  0  0  0  0  0  0
   57.8540   31.7010   44.7130 C   0  0  0  0  0  0  0  0  0  0  0  0
   58.9390   31.0830   45.2810 N   0  0  0  0  0  0  0  0  0  0  0  0
   58.8660   29.7960   45.7330 C   0  0  0  0  0  0  0  0  0  0  0  0
   59.8670   29.2400   46.2560 O   0  0  0  0  0  0  0  0  0  0  0  0
   57.6560   29.1330   45.5950 C   0  0  0  0  0  0  0  0  0  0  0  0
   57.2040   27.8760   45.9160 C   0  0  0  0  0  0  0  0  0  0  0  0
   55.9050   27.7940   45.5340 N   0  0  0  0  0  0  0  0  0  0  0  0
   55.5290   28.9490   44.9870 N   0  0  0  0  0  0  0  0  0  0  0  0
   56.5980   29.7580   45.0280 C   0  0  0  0  0  0  0  0  0  0  0  0
   56.6670   31.0350   44.5790 N   0  0  0  0  0  0  0  0  0  0  0  0
   58.4782   32.2146   51.0965 H   0  0  0  0  0  0  0  0  0  0  0  0
   57.7756   32.9471   49.6144 H   0  0  0  0  0  0  0  0  0  0  0  0
   58.2721   31.2207   49.6144 H   0  0  0  0  0  0  0  0  0  0  0  0
   60.7671   32.3528   51.5068 H   0  0  0  0  0  0  0  0  0  0  0  0
   63.0605   32.9780   50.7725 H   0  0  0  0  0  0  0  0  0  0  0  0
   63.4872   33.6378   48.4118 H   0  0  0  0  0  0  0  0  0  0  0  0
   62.3265   34.7306   46.3986 H   0  0  0  0  0  0  0  0  0  0  0  0
   62.2541   33.0183   45.8606 H   0  0  0  0  0  0  0  0  0  0  0  0
   60.7653   34.0234   45.8606 H   0  0  0  0  0  0  0  0  0  0  0  0
   58.7470   32.0690   46.8400 H   0  0  0  0  0  0  0  0  0  0  0  0
   56.5732   33.5109   46.0959 H   0  0  0  0  0  0  0  0  0  0  0  0
   57.0364   35.1477   45.4954 H   0  0  0  0  0  0  0  0  0  0  0  0
   57.7903   27.0790   46.3966 H   0  0  0  0  0  0  0  0  0  0  0  0
  1  2  1  0
  2  3  2  0
  3  4  1  0
  4  5  2  0
  5  6  1  0
  6  7  1  0
  6  8  2  0
  8  9  1  0
  9 10  1  0
 10 11  2  0
 10 12  1  0
 12 13  1  0
 13 14  1  0
 14 15  2  0
 15 16  1  0
 16 17  2  0
 16 18  1  0
 18 19  2  0
 19 20  1  0
 20 21  1  0
 21 22  2  0
 22 23  1  0
  8  2  1  0
 23 14  1  0
 22 18  1  0
  1 24  1  0
  1 25  1  0
  1 26  1  0
  3 27  1  0
  4 28  1  0
  5 29  1  0
  7 30  1  0
  7 31  1  0
  7 32  1  0
  9 33  1  0
 12 34  1  0
 12 35  1  0
 19 36  1  0
M  CHG  2  20  -1  23  -1
M  END
>  <UniqueID>  (47) 
44

>  <SMILES>  (47) 
Cc1cccc(C)c1NC(=O)CSc1nc(=O)c2c[n-]nc2[n-]1

>  <Energy>  (47) 
79.75691960578494

>  <Genealogy>  (47) 
Cc1cccc(C)c1NC(=O)CSc1nc(=O)c2c[n-]nc2[n-]1 (protonated)
Cc1cccc(C)c1NC(=O)CSc1nc(=O)c2c[n-]nc2[n-]1 (3D coordinates assigned)
Cc1cccc(C)c1NC(=O)CSc1nc(=O)c2c[n-]nc2[n-]1 (optimized conformer: 79.75691960578494 kcal/mol)

>  <smiles>  (47) 
Cc1cccc(C)c1NC(=O)CSc1nc(=O)c2c[nH]nc2[nH]1

>  <score_type>  (47) 
oracle

>  <origin>  (47) 
adg

>  <m_score__min__energy>  (47) 
-11.630000000000001

>  <m_primary>  (47) 
energy

$$$$
47:0
     RDKit          3D

 43 45  0  0  0  0  0  0  0  0999 V2000
   60.3320   35.3640   46.3740 O   0  0  0  0  0  0  0  0  0  0  0  0
   59.5570   34.5470   46.9410 C   0  0  0  0  0  0  0  0  0  0  0  0
   59.3140   34.6930   48.3490 N   0  0  0  0  0  0  0  0  0  0  0  0
   60.1230   34.2930   49.2810 C   0  0  0  0  0  0  0  0  0  0  0  0
   60.6630   32.9000   49.2560 C   0  0  0  0  0  0  0  0  0  0  0  0
   61.8360   32.8300   48.3880 N   0  0  0  0  0  0  0  0  0  0  0  0
   62.3140   31.7220   47.7890 C   0  0  0  0  0  0  0  0  0  0  0  0
   63.4850   32.0230   47.1250 C   0  0  0  0  0  0  0  0  0  0  0  0
   63.7300   33.3670   47.3420 C   0  0  0  0  0  0  0  0  0  0  0  0
   62.6990   33.8320   48.1320 C   0  0  0  0  0  0  0  0  0  0  0  0
   58.9340   33.4700   46.1370 C   0  0  0  0  0  0  0  0  0  0  0  0
   59.2900   32.1260   46.3380 C   0  0  0  0  0  0  0  0  0  0  0  0
   58.6400   31.1120   45.6340 C   0  0  0  0  0  0  0  0  0  0  0  0
   57.6360   31.4260   44.7100 C   0  0  0  0  0  0  0  0  0  0  0  0
   56.7130   30.1250   43.9630 S   0  0  0  0  0  0  0  0  0  0  0  0
   55.5160   29.7690   44.7990 O   0  0  0  0  0  0  0  0  0  0  0  0
   56.2510   30.5770   42.6070 O   0  0  0  0  0  0  0  0  0  0  0  0
   57.7300   28.7280   43.7920 N   0  0  0  0  0  0  0  0  0  0  0  0
   58.2050   27.9980   44.9330 C   0  0  0  0  0  0  0  0  0  0  0  0
   59.5870   27.8960   45.1600 C   0  0  0  0  0  0  0  0  0  0  0  0
   60.0730   27.2390   46.2940 C   0  0  0  0  0  0  0  0  0  0  0  0
   59.1820   26.6640   47.2030 C   0  0  0  0  0  0  0  0  0  0  0  0
   57.8060   26.7400   46.9770 C   0  0  0  0  0  0  0  0  0  0  0  0
   57.3140   27.3980   45.8440 C   0  0  0  0  0  0  0  0  0  0  0  0
   55.9760   27.4230   45.6270 F   0  0  0  0  0  0  0  0  0  0  0  0
   57.3190   32.7690   44.4600 C   0  0  0  0  0  0  0  0  0  0  0  0
   57.9710   33.7860   45.1650 C   0  0  0  0  0  0  0  0  0  0  0  0
   60.4116   34.9799   50.0903 H   0  0  0  0  0  0  0  0  0  0  0  0
   60.9473   32.6020   50.2760 H   0  0  0  0  0  0  0  0  0  0  0  0
   59.8886   32.2214   48.8690 H   0  0  0  0  0  0  0  0  0  0  0  0
   61.8424   30.7288   47.8241 H   0  0  0  0  0  0  0  0  0  0  0  0
   64.1038   31.3291   46.5371 H   0  0  0  0  0  0  0  0  0  0  0  0
   64.5803   33.9507   46.9596 H   0  0  0  0  0  0  0  0  0  0  0  0
   62.5972   34.8645   48.4974 H   0  0  0  0  0  0  0  0  0  0  0  0
   60.0853   31.8718   47.0541 H   0  0  0  0  0  0  0  0  0  0  0  0
   58.9174   30.0615   45.8055 H   0  0  0  0  0  0  0  0  0  0  0  0
   58.2340   28.6190   42.8840 H   0  0  0  0  0  0  0  0  0  0  0  0
   60.2924   28.3364   44.4400 H   0  0  0  0  0  0  0  0  0  0  0  0
   61.1569   27.1748   46.4705 H   0  0  0  0  0  0  0  0  0  0  0  0
   59.5644   26.1509   48.0977 H   0  0  0  0  0  0  0  0  0  0  0  0
   57.1068   26.2813   47.6916 H   0  0  0  0  0  0  0  0  0  0  0  0
   56.5568   33.0229   43.7086 H   0  0  0  0  0  0  0  0  0  0  0  0
   57.7282   34.8385   44.9570 H   0  0  0  0  0  0  0  0  0  0  0  0
  1  2  2  0
  2  3  1  0
  3  4  2  3
  4  5  1  0
  5  6  1  0
  6  7  1  0
  7  8  2  0
  8  9  1  0
  9 10  2  0
  2 11  1  0
 11 12  2  0
 12 13  1  0
 13 14  2  0
 14 15  1  0
 15 16  2  0
 15 17  2  0
 15 18  1  0
 18 19  1  0
 19 20  2  0
 20 21  1  0
 21 22  2  0
 22 23  1  0
 23 24  2  0
 24 25  1  0
 14 26  1  0
 26 27  2  0
 10  6  1  0
 27 11  1  0
 24 19  1  0
  4 28  1  0
  5 29  1  0
  5 30  1  0
  7 31  1  0
  8 32  1  0
  9 33  1  0
 10 34  1  0
 12 35  1  0
 13 36  1  0
 18 37  1  0
 20 38  1  0
 21 39  1  0
 22 40  1  0
 23 41  1  0
 26 42  1  0
 27 43  1  0
M  END
>  <UniqueID>  (48) 
45

>  <SMILES>  (48) 
O=C(N=CCn1cccc1)c1ccc(S(=O)(=O)Nc2ccccc2F)cc1

>  <Energy>  (48) 
76.08496246301603

>  <Genealogy>  (48) 
O=C(N=CCn1cccc1)c1ccc(S(=O)(=O)Nc2ccccc2F)cc1 (3D coordinates assigned)
O=C(N=CCn1cccc1)c1ccc(S(=O)(=O)Nc2ccccc2F)cc1 (optimized conformer: 76.08496246301603 kcal/mol)

>  <smiles>  (48) 
O=C(N=CCn1cccc1)c1ccc(S(=O)(=O)Nc2ccccc2F)cc1

>  <score_type>  (48) 
oracle

>  <origin>  (48) 
adg

>  <m_score__min__energy>  (48) 
-9.3100000000000005

>  <m_primary>  (48) 
energy

$$$$
48:0
     RDKit          3D

 42 44  0  0  0  0  0  0  0  0999 V2000
   59.2900   33.7270   50.3650 O   0  0  0  0  0  0  0  0  0  0  0  0
   59.0470   32.7120   49.6630 C   0  0  0  0  0  0  0  0  0  0  0  0
   59.7180   31.4820   49.9660 N   0  0  0  0  0  0  0  0  0  0  0  0
   60.6030   30.7530   49.0590 C   0  0  0  0  0  0  0  0  0  0  0  0
   60.9920   31.6270   47.8640 C   0  0  0  0  0  0  0  0  0  0  0  0
   61.2190   30.8390   46.6960 O   0  0  0  0  0  0  0  0  0  0  0  0
   60.3150   29.9200   46.1390 C   0  0  0  0  0  0  0  0  0  0  0  0
   60.7110   28.6680   45.6310 C   0  0  0  0  0  0  0  0  0  0  0  0
   59.7610   27.7880   45.1050 C   0  0  0  0  0  0  0  0  0  0  0  0
   58.4000   28.1350   45.0880 C   0  0  0  0  0  0  0  0  0  0  0  0
   57.3910   27.1680   44.5250 C   0  0  0  0  0  0  0  0  0  0  0  0
   57.0890   26.0850   45.5160 C   0  0  0  0  0  0  0  0  0  0  0  0
   58.1810   24.9110   46.0330 S   0  0  0  0  0  0  0  0  0  0  0  0
   57.0570   24.2050   47.0660 C   0  0  0  0  0  0  0  0  0  0  0  0
   57.2900   23.2020   47.7890 O   0  0  0  0  0  0  0  0  0  0  0  0
   55.8620   24.8330   47.0440 N   0  0  0  0  0  0  0  0  0  0  0  0
   55.8820   25.8850   46.1840 C   0  0  0  0  0  0  0  0  0  0  0  0
   54.7690   26.6950   45.9970 O   0  0  0  0  0  0  0  0  0  0  0  0
   58.0080   29.3960   45.5740 C   0  0  0  0  0  0  0  0  0  0  0  0
   56.6730   29.7860   45.5430 O   0  0  0  0  0  0  0  0  0  0  0  0
   58.9630   30.2750   46.0960 C   0  0  0  0  0  0  0  0  0  0  0  0
   58.0890   32.8130   48.6040 N   0  0  0  0  0  0  0  0  0  0  0  0
   58.3130   33.4430   47.3360 C   0  0  0  0  0  0  0  0  0  0  0  0
   59.3760   34.3470   47.2050 C   0  0  0  0  0  0  0  0  0  0  0  0
   59.6190   34.9750   45.9800 C   0  0  0  0  0  0  0  0  0  0  0  0
   58.8140   34.6920   44.8730 C   0  0  0  0  0  0  0  0  0  0  0  0
   57.7700   33.7720   44.9880 C   0  0  0  0  0  0  0  0  0  0  0  0
   57.5210   33.1420   46.2120 C   0  0  0  0  0  0  0  0  0  0  0  0
   61.5130   30.4580   49.6020 H   0  0  0  0  0  0  0  0  0  0  0  0
   60.0740   29.8625   48.6886 H   0  0  0  0  0  0  0  0  0  0  0  0
   60.1792   32.3403   47.6624 H   0  0  0  0  0  0  0  0  0  0  0  0
   61.9236   32.1573   48.1109 H   0  0  0  0  0  0  0  0  0  0  0  0
   61.7728   28.3811   45.6482 H   0  0  0  0  0  0  0  0  0  0  0  0
   60.0816   26.8163   44.7013 H   0  0  0  0  0  0  0  0  0  0  0  0
   56.4637   27.7101   44.2880 H   0  0  0  0  0  0  0  0  0  0  0  0
   57.8071   26.7106   43.6153 H   0  0  0  0  0  0  0  0  0  0  0  0
   58.6467   31.2572   46.4772 H   0  0  0  0  0  0  0  0  0  0  0  0
   60.0213   34.5631   48.0692 H   0  0  0  0  0  0  0  0  0  0  0  0
   60.4462   35.6940   45.8870 H   0  0  0  0  0  0  0  0  0  0  0  0
   59.0027   35.1935   43.9123 H   0  0  0  0  0  0  0  0  0  0  0  0
   57.1421   33.5421   44.1145 H   0  0  0  0  0  0  0  0  0  0  0  0
   56.7045   32.4098   46.2962 H   0  0  0  0  0  0  0  0  0  0  0  0
  1  2  2  0
  2  3  1  0
  3  4  1  0
  4  5  1  0
  5  6  1  0
  6  7  1  0
  7  8  2  0
  8  9  1  0
  9 10  2  0
 10 11  1  0
 11 12  1  0
 12 13  1  0
 13 14  1  0
 14 15  2  0
 14 16  1  0
 16 17  1  0
 17 18  1  0
 10 19  1  0
 19 20  1  0
 19 21  2  0
  2 22  1  0
 22 23  1  0
 23 24  2  0
 24 25  1  0
 25 26  2  0
 26 27  1  0
 27 28  2  0
 21  7  1  0
 28 23  1  0
 17 12  2  0
  4 29  1  0
  4 30  1  0
  5 31  1  0
  5 32  1  0
  8 33  1  0
  9 34  1  0
 11 35  1  0
 11 36  1  0
 21 37  1  0
 24 38  1  0
 25 39  1  0
 26 40  1  0
 27 41  1  0
 28 42  1  0
M  CHG  5   3  -1  16  -1  18  -1  20  -1  22  -1
M  END
>  <UniqueID>  (49) 
46

>  <SMILES>  (49) 
O=C([N-]CCOc1ccc(Cc2sc(=O)[n-]c2[O-])c([O-])c1)[N-]c1ccccc1

>  <Energy>  (49) 
73.5779050178471

>  <Genealogy>  (49) 
O=C([N-]CCOc1ccc(Cc2sc(=O)[n-]c2[O-])c([O-])c1)[N-]c1ccccc1 (protonated)
O=C([N-]CCOc1ccc(Cc2sc(=O)[n-]c2[O-])c([O-])c1)[N-]c1ccccc1 (3D coordinates assigned)
O=C([N-]CCOc1ccc(Cc2sc(=O)[n-]c2[O-])c([O-])c1)[N-]c1ccccc1 (optimized conformer: 73.5779050178471 kcal/mol)

>  <smiles>  (49) 
O=C(NCCOc1ccc(Cc2sc(=O)[nH]c2O)c(O)c1)Nc1ccccc1

>  <score_type>  (49) 
oracle

>  <origin>  (49) 
adg

>  <m_score__min__energy>  (49) 
-17.41

>  <m_primary>  (49) 
energy

$$$$
49:0
     RDKit          3D

 63 67  0  0  0  0  0  0  0  0999 V2000
   63.6434   30.2835   50.6151 H   0  0  0  0  0  0  0  0  0  0  0  0
   63.0170   31.0740   50.1760 C   0  0  0  0  0  0  0  0  0  0  0  0
   63.3330   32.7280   50.2210 S   0  0  0  0  0  0  0  0  0  0  0  0
   61.9350   33.1350   49.3780 C   0  0  0  0  0  0  0  0  0  0  0  0
   61.5130   34.5260   49.0090 C   0  0  0  0  0  0  0  0  0  0  0  0
   61.9931   34.8065   48.0599 H   0  0  0  0  0  0  0  0  0  0  0  0
   61.8195   35.2079   49.8159 H   0  0  0  0  0  0  0  0  0  0  0  0
   60.0630   34.6160   48.8540 N   0  0  0  0  0  0  0  0  0  0  0  0
   59.3060   34.5270   47.6360 C   0  0  0  0  0  0  0  0  0  0  0  0
   58.9240   35.5970   47.0940 O   0  0  0  0  0  0  0  0  0  0  0  0
   58.9570   33.2430   46.9890 C   0  0  0  0  0  0  0  0  0  0  0  0
   59.7260   32.1380   47.0110 N   0  0  0  0  0  0  0  0  0  0  0  0
   59.0870   31.1660   46.3810 N   0  0  0  0  0  0  0  0  0  0  0  0
   59.5340   29.8070   46.4720 C   0  0  0  0  0  0  0  0  0  0  0  0
   60.2880   29.2300   45.4340 C   0  0  0  0  0  0  0  0  0  0  0  0
   60.5826   29.8390   44.5666 H   0  0  0  0  0  0  0  0  0  0  0  0
   60.6640   27.8860   45.5010 C   0  0  0  0  0  0  0  0  0  0  0  0
   61.2681   27.4433   44.6953 H   0  0  0  0  0  0  0  0  0  0  0  0
   60.2730   27.1040   46.5910 C   0  0  0  0  0  0  0  0  0  0  0  0
   60.5805   26.0495   46.6492 H   0  0  0  0  0  0  0  0  0  0  0  0
   59.4910   27.6610   47.6080 C   0  0  0  0  0  0  0  0  0  0  0  0
   59.1709   27.0403   48.4579 H   0  0  0  0  0  0  0  0  0  0  0  0
   59.1160   29.0060   47.5450 C   0  0  0  0  0  0  0  0  0  0  0  0
   58.4906   29.4381   48.3400 H   0  0  0  0  0  0  0  0  0  0  0  0
   57.8980   31.6540   45.9410 C   0  0  0  0  0  0  0  0  0  0  0  0
   57.0060   31.0260   45.2260 N   0  0  0  0  0  0  0  0  0  0  0  0
   57.2400   30.0860   44.1690 C   0  0  0  0  0  0  0  0  0  0  0  0
   57.3930   30.4990   42.9870 O   0  0  0  0  0  0  0  0  0  0  0  0
   57.2260   28.6310   44.4480 C   0  0  0  0  0  0  0  0  0  0  0  0
   57.7990   27.7260   43.5360 C   0  0  0  0  0  0  0  0  0  0  0  0
   58.2483   28.1010   42.6046 H   0  0  0  0  0  0  0  0  0  0  0  0
   57.8020   26.3540   43.8040 C   0  0  0  0  0  0  0  0  0  0  0  0
   58.2544   25.6567   43.0835 H   0  0  0  0  0  0  0  0  0  0  0  0
   57.2310   25.8620   44.9870 C   0  0  0  0  0  0  0  0  0  0  0  0
   57.2280   24.4500   45.2580 N   0  0  0  0  0  0  0  0  0  0  0  0
   55.9420   23.7330   45.3360 C   0  0  0  0  0  0  0  0  0  0  0  0
   56.0067   22.9855   46.1404 H   0  0  0  0  0  0  0  0  0  0  0  0
   55.1610   24.4828   45.5305 H   0  0  0  0  0  0  0  0  0  0  0  0
   55.5670   23.0090   44.0210 C   0  0  0  0  0  0  0  0  0  0  0  0
   54.7673   22.2882   44.2464 H   0  0  0  0  0  0  0  0  0  0  0  0
   55.2650   23.7975   43.3159 H   0  0  0  0  0  0  0  0  0  0  0  0
   56.7140   22.2470   43.3390 C   0  0  0  0  0  0  0  0  0  0  0  0
   56.2855   21.4017   42.7806 H   0  0  0  0  0  0  0  0  0  0  0  0
   57.2313   22.9637   42.6843 H   0  0  0  0  0  0  0  0  0  0  0  0
   57.7630   21.6980   44.3220 C   0  0  0  0  0  0  0  0  0  0  0  0
   57.2499   21.4395   45.2600 H   0  0  0  0  0  0  0  0  0  0  0  0
   58.2268   20.8324   43.8264 H   0  0  0  0  0  0  0  0  0  0  0  0
   58.9090   22.6690   44.6560 C   0  0  0  0  0  0  0  0  0  0  0  0
   59.7219   22.0952   45.1251 H   0  0  0  0  0  0  0  0  0  0  0  0
   59.2116   23.1393   43.7088 H   0  0  0  0  0  0  0  0  0  0  0  0
   58.5110   23.8080   45.6080 C   0  0  0  0  0  0  0  0  0  0  0  0
   58.4286   23.3980   46.6254 H   0  0  0  0  0  0  0  0  0  0  0  0
   59.2901   24.5806   45.5301 H   0  0  0  0  0  0  0  0  0  0  0  0
   56.6570   26.7610   45.8980 C   0  0  0  0  0  0  0  0  0  0  0  0
   56.2048   26.3835   46.8270 H   0  0  0  0  0  0  0  0  0  0  0  0
   56.6560   28.1330   45.6330 C   0  0  0  0  0  0  0  0  0  0  0  0
   56.2060   28.8285   46.3567 H   0  0  0  0  0  0  0  0  0  0  0  0
   57.7680   32.9690   46.3320 C   0  0  0  0  0  0  0  0  0  0  0  0
   56.9171   33.6450   46.1619 H   0  0  0  0  0  0  0  0  0  0  0  0
   61.2400   32.0250   49.0390 N   0  0  0  0  0  0  0  0  0  0  0  0
   60.3390   32.0390   48.5090 H   0  0  0  0  0  0  0  0  0  0  0  0
   61.8250   30.8840   49.4860 C   0  0  0  0  0  0  0  0  0  0  0  0
   61.3902   29.8881   49.3156 H   0  0  0  0  0  0  0  0  0  0  0  0
  1  2  1  0
  2  3  1  0
  3  4  1  0
  4  5  1  0
  5  6  1  0
  5  7  1  0
  5  8  1  0
  8  9  1  0
  9 10  2  0
  9 11  1  0
 11 12  1  0
 12 13  1  0
 13 14  1  0
 14 15  2  0
 15 16  1  0
 15 17  1  0
 17 18  1  0
 17 19  2  0
 19 20  1  0
 19 21  1  0
 21 22  1  0
 21 23  2  0
 23 24  1  0
 13 25  1  0
 25 26  2  0
 26 27  1  0
 27 28  2  0
 27 29  1  0
 29 30  2  0
 30 31  1  0
 30 32  1  0
 32 33  1  0
 32 34  2  0
 34 35  1  0
 35 36  1  0
 36 37  1  0
 36 38  1  0
 36 39  1  0
 39 40  1  0
 39 41  1  0
 39 42  1  0
 42 43  1  0
 42 44  1  0
 42 45  1  0
 45 46  1  0
 45 47  1  0
 45 48  1  0
 48 49  1  0
 48 50  1  0
 48 51  1  0
 51 52  1  0
 51 53  1  0
 34 54  1  0
 54 55  1  0
 54 56  2  0
 56 57  1  0
 25 58  1  0
 58 59  1  0
  4 60  2  0
 60 61  1  0
 60 62  1  0
 62 63  1  0
 62  2  2  0
 58 11  2  0
 23 14  1  0
 56 29  1  0
 51 35  1  0
M  CHG  3   8  -1  12  -1  60   1
M  END
>  <UniqueID>  (50) 
47

>  <SMILES>  (50) 
O=C(/N=c1/cc(C(=O)[N-]Cc2[nH+]ccs2)[n-]n1-c1ccccc1)c1ccc(N2CCCCCC2)cc1

>  <Energy>  (50) 
151.10078475139724

>  <Genealogy>  (50) 
O=C(N=c1cc(C(=O)[N-]Cc2[nH+]ccs2)[n-]n1-c1ccccc1)c1ccc(N2CCCCCC2)cc1 (protonated)
O=C(/N=c1/cc(C(=O)[N-]Cc2[nH+]ccs2)[n-]n1-c1ccccc1)c1ccc(N2CCCCCC2)cc1 (cis-trans isomerization)
O=C(/N=c1/cc(C(=O)[N-]Cc2[nH+]ccs2)[n-]n1-c1ccccc1)c1ccc(N2CCCCCC2)cc1 (3D coordinates assigned)
O=C(/N=c1/cc(C(=O)[N-]Cc2[nH+]ccs2)[n-]n1-c1ccccc1)c1ccc(N2CCCCCC2)cc1 (nonaromatic ring conformer: 151.10078475139724 kcal/mol)

>  <smiles>  (50) 
O=C(N=c1cc(C(=O)NCc2nccs2)[nH]n1-c1ccccc1)c1ccc(N2CCCCCC2)cc1

>  <score_type>  (50) 
oracle

>  <origin>  (50) 
adg

>  <m_score__min__energy>  (50) 
-8.3200000000000003

>  <m_primary>  (50) 
energy

$$$$
50:0
     RDKit          3D

 48 50  0  0  0  0  0  0  0  0999 V2000
   56.5830   33.2170   45.2810 N   0  0  0  0  0  0  0  0  0  0  0  0
   57.8520   32.0540   45.1110 S   0  0  0  0  0  0  0  0  0  0  0  0
   57.3440   30.7280   45.6040 O   0  0  0  0  0  0  0  0  0  0  0  0
   58.2300   31.9470   43.6620 O   0  0  0  0  0  0  0  0  0  0  0  0
   59.2650   32.5530   46.0510 C   0  0  0  0  0  0  0  0  0  0  0  0
   59.5240   33.9250   46.1960 C   0  0  0  0  0  0  0  0  0  0  0  0
   60.6020   34.3690   46.9640 C   0  0  0  0  0  0  0  0  0  0  0  0
   61.4370   33.4480   47.5960 C   0  0  0  0  0  0  0  0  0  0  0  0
   61.2030   32.0800   47.4530 C   0  0  0  0  0  0  0  0  0  0  0  0
   60.1290   31.6150   46.6730 C   0  0  0  0  0  0  0  0  0  0  0  0
   59.9460   30.1550   46.5320 C   0  0  0  0  0  0  0  0  0  0  0  0
   60.1140   29.5300   45.2880 C   0  0  0  0  0  0  0  0  0  0  0  0
   59.9710   28.1440   45.1690 C   0  0  0  0  0  0  0  0  0  0  0  0
   59.6650   27.3640   46.2960 C   0  0  0  0  0  0  0  0  0  0  0  0
   59.5470   25.8670   46.1830 C   0  0  0  0  0  0  0  0  0  0  0  0
   58.1990   25.4810   45.7360 N   0  0  0  0  0  0  0  0  0  0  0  0
   57.1570   25.8360   46.7120 C   0  0  0  0  0  0  0  0  0  0  0  0
   55.7990   25.4500   46.2150 C   0  0  0  0  0  0  0  0  0  0  0  0
   54.9380   26.3440   46.0000 O   0  0  0  0  0  0  0  0  0  0  0  0
   55.5080   24.0710   45.9600 N   0  0  0  0  0  0  0  0  0  0  0  0
   56.0150   23.2820   44.8750 C   0  0  0  0  0  0  0  0  0  0  0  0
   55.7110   23.5120   43.5210 C   0  0  0  0  0  0  0  0  0  0  0  0
   56.2880   22.5900   42.6580 C   0  0  0  0  0  0  0  0  0  0  0  0
   57.1560   21.4840   43.5750 S   0  0  0  0  0  0  0  0  0  0  0  0
   56.8180   22.1580   45.0800 C   0  0  0  0  0  0  0  0  0  0  0  0
   57.3070   21.6420   46.3760 C   0  0  0  0  0  0  0  0  0  0  0  0
   58.0770   20.4400   46.4430 N   0  0  0  0  0  0  0  0  0  0  0  0
   57.0490   22.2640   47.4400 O   0  0  0  0  0  0  0  0  0  0  0  0
   59.5110   27.9890   47.5420 C   0  0  0  0  0  0  0  0  0  0  0  0
   59.6510   29.3750   47.6600 C   0  0  0  0  0  0  0  0  0  0  0  0
   56.6390   33.8530   44.4550 H   0  0  0  0  0  0  0  0  0  0  0  0
   58.8709   34.6578   45.6994 H   0  0  0  0  0  0  0  0  0  0  0  0
   60.7931   35.4470   47.0708 H   0  0  0  0  0  0  0  0  0  0  0  0
   62.2807   33.8003   48.2076 H   0  0  0  0  0  0  0  0  0  0  0  0
   61.8645   31.3586   47.9549 H   0  0  0  0  0  0  0  0  0  0  0  0
   60.3595   30.1330   44.4013 H   0  0  0  0  0  0  0  0  0  0  0  0
   60.0988   27.6626   44.1882 H   0  0  0  0  0  0  0  0  0  0  0  0
   60.2867   25.5009   45.4558 H   0  0  0  0  0  0  0  0  0  0  0  0
   59.7307   25.4233   47.1726 H   0  0  0  0  0  0  0  0  0  0  0  0
   57.9950   26.0200   44.8620 H   0  0  0  0  0  0  0  0  0  0  0  0
   57.3563   25.3103   47.6575 H   0  0  0  0  0  0  0  0  0  0  0  0
   57.1769   26.9253   46.8636 H   0  0  0  0  0  0  0  0  0  0  0  0
   55.0767   24.3429   43.1786 H   0  0  0  0  0  0  0  0  0  0  0  0
   56.1927   22.5852   41.5621 H   0  0  0  0  0  0  0  0  0  0  0  0
   58.3240   19.9010   45.5850 H   0  0  0  0  0  0  0  0  0  0  0  0
   58.4150   20.0870   47.3660 H   0  0  0  0  0  0  0  0  0  0  0  0
   59.2787   27.3852   48.4316 H   0  0  0  0  0  0  0  0  0  0  0  0
   59.5293   29.8560   48.6417 H   0  0  0  0  0  0  0  0  0  0  0  0
  1  2  1  0
  2  3  2  0
  2  4  2  0
  2  5  1  0
  5  6  2  0
  6  7  1  0
  7  8  2  0
  8  9  1  0
  9 10  2  0
 10 11  1  0
 11 12  2  0
 12 13  1  0
 13 14  2  0
 14 15  1  0
 15 16  1  0
 16 17  1  0
 17 18  1  0
 18 19  2  0
 18 20  1  0
 20 21  1  0
 21 22  1  0
 22 23  2  0
 23 24  1  0
 24 25  1  0
 25 26  1  0
 26 27  1  0
 26 28  2  0
 14 29  1  0
 29 30  2  0
 10  5  1  0
 30 11  1  0
 25 21  2  0
  1 31  1  0
  6 32  1  0
  7 33  1  0
  8 34  1  0
  9 35  1  0
 12 36  1  0
 13 37  1  0
 15 38  1  0
 15 39  1  0
 16 40  1  0
 17 41  1  0
 17 42  1  0
 22 43  1  0
 23 44  1  0
 27 45  1  0
 27 46  1  0
 29 47  1  0
 30 48  1  0
M  CHG  2   1  -1  20  -1
M  END
>  <UniqueID>  (51) 
48

>  <SMILES>  (51) 
[NH-]S(=O)(=O)c1ccccc1-c1ccc(CNCC(=O)[N-]c2ccsc2C(N)=O)cc1

>  <Energy>  (51) 
79.90412125152645

>  <Genealogy>  (51) 
[NH-]S(=O)(=O)c1ccccc1-c1ccc(CNCC(=O)[N-]c2ccsc2C(N)=O)cc1 (protonated)
[NH-]S(=O)(=O)c1ccccc1-c1ccc(CNCC(=O)[N-]c2ccsc2C(N)=O)cc1 (3D coordinates assigned)
[NH-]S(=O)(=O)c1ccccc1-c1ccc(CNCC(=O)[N-]c2ccsc2C(N)=O)cc1 (optimized conformer: 79.90412125152645 kcal/mol)

>  <smiles>  (51) 
NC(=O)c1sccc1NC(=O)CNCc1ccc(-c2ccccc2S(N)(=O)=O)cc1

>  <score_type>  (51) 
oracle

>  <origin>  (51) 
adg

>  <m_score__min__energy>  (51) 
-11.720000000000001

>  <m_primary>  (51) 
energy

$$$$
51:0
     RDKit          3D

 57 59  0  0  0  0  0  0  0  0999 V2000
   57.1260   34.1830   45.0520 C   0  0  0  0  0  0  0  0  0  0  0  0
   57.3100   33.1540   46.0200 O   0  0  0  0  0  0  0  0  0  0  0  0
   58.5580   32.7000   46.4730 C   0  0  0  0  0  0  0  0  0  0  0  0
   59.6030   33.5860   46.7940 C   0  0  0  0  0  0  0  0  0  0  0  0
   60.8410   33.0950   47.2050 C   0  0  0  0  0  0  0  0  0  0  0  0
   61.0550   31.7210   47.3030 C   0  0  0  0  0  0  0  0  0  0  0  0
   60.0210   30.8150   47.0110 C   0  0  0  0  0  0  0  0  0  0  0  0
   60.2890   29.3300   47.1200 C   0  0  0  0  0  0  0  0  0  0  0  0
   59.8980   28.7740   48.4940 C   0  0  0  0  0  0  0  0  0  0  0  0
   59.8980   29.8360   49.4910 N   0  0  0  0  0  0  0  0  0  0  0  0
   59.3910   29.6620   50.8180 C   0  0  0  0  0  0  0  0  0  0  0  0
   59.8180   28.7110   51.5290 O   0  0  0  0  0  0  0  0  0  0  0  0
   58.3670   30.5900   51.3520 C   0  0  0  0  0  0  0  0  0  0  0  0
   58.6250   31.9690   51.4350 C   0  0  0  0  0  0  0  0  0  0  0  0
   57.6580   32.8410   51.9370 C   0  0  0  0  0  0  0  0  0  0  0  0
   56.4210   32.3520   52.3580 C   0  0  0  0  0  0  0  0  0  0  0  0
   56.1330   30.9790   52.2660 C   0  0  0  0  0  0  0  0  0  0  0  0
   54.8760   30.4460   52.7180 N   0  0  0  0  0  0  0  0  0  0  0  0
   53.6050   30.7930   52.1460 C   0  0  0  0  0  0  0  0  0  0  0  0
   53.5450   31.2970   50.9910 O   0  0  0  0  0  0  0  0  0  0  0  0
   52.3500   30.4650   52.8600 C   0  0  0  0  0  0  0  0  0  0  0  0
   52.3620   29.3830   53.7580 C   0  0  0  0  0  0  0  0  0  0  0  0
   51.2400   29.0860   54.5330 C   0  0  0  0  0  0  0  0  0  0  0  0
   50.0910   29.8650   54.4230 C   0  0  0  0  0  0  0  0  0  0  0  0
   50.0510   30.9300   53.5200 C   0  0  0  0  0  0  0  0  0  0  0  0
   51.1630   31.2340   52.7140 C   0  0  0  0  0  0  0  0  0  0  0  0
   51.0250   32.3010   51.6950 C   0  0  0  0  0  0  0  0  0  0  0  0
   50.8370   33.4960   52.0490 O   0  0  0  0  0  0  0  0  0  0  0  0
   51.0450   31.9970   50.3390 O   0  0  0  0  0  0  0  0  0  0  0  0
   57.1160   30.1040   51.7800 C   0  0  0  0  0  0  0  0  0  0  0  0
   58.7640   31.3140   46.5970 C   0  0  0  0  0  0  0  0  0  0  0  0
   57.7220   30.4430   46.2570 O   0  0  0  0  0  0  0  0  0  0  0  0
   57.4350   30.0750   44.9090 C   0  0  0  0  0  0  0  0  0  0  0  0
   56.0020   29.6770   44.7630 C   0  0  0  0  0  0  0  0  0  0  0  0
   55.1740   30.4730   44.2450 O   0  0  0  0  0  0  0  0  0  0  0  0
   55.5690   28.4470   45.2410 O   0  0  0  0  0  0  0  0  0  0  0  0
   56.9546   35.1415   45.5638 H   0  0  0  0  0  0  0  0  0  0  0  0
   58.0248   34.2591   44.4224 H   0  0  0  0  0  0  0  0  0  0  0  0
   56.2565   33.9429   44.4224 H   0  0  0  0  0  0  0  0  0  0  0  0
   59.4420   34.6717   46.7202 H   0  0  0  0  0  0  0  0  0  0  0  0
   61.6527   33.7947   47.4531 H   0  0  0  0  0  0  0  0  0  0  0  0
   62.0409   31.3429   47.6113 H   0  0  0  0  0  0  0  0  0  0  0  0
   59.7074   28.8067   46.3468 H   0  0  0  0  0  0  0  0  0  0  0  0
   61.3686   29.1692   46.9837 H   0  0  0  0  0  0  0  0  0  0  0  0
   58.8918   28.3336   48.4337 H   0  0  0  0  0  0  0  0  0  0  0  0
   60.6294   28.0074   48.7897 H   0  0  0  0  0  0  0  0  0  0  0  0
   59.5961   32.3638   51.1019 H   0  0  0  0  0  0  0  0  0  0  0  0
   57.8719   33.9181   52.0010 H   0  0  0  0  0  0  0  0  0  0  0  0
   55.6679   33.0436   52.7636 H   0  0  0  0  0  0  0  0  0  0  0  0
   54.8910   29.7110   53.4600 H   0  0  0  0  0  0  0  0  0  0  0  0
   53.2662   28.7635   53.8507 H   0  0  0  0  0  0  0  0  0  0  0  0
   51.2633   28.2362   55.2310 H   0  0  0  0  0  0  0  0  0  0  0  0
   49.2138   29.6414   55.0480 H   0  0  0  0  0  0  0  0  0  0  0  0
   49.1384   31.5386   53.4382 H   0  0  0  0  0  0  0  0  0  0  0  0
   56.9073   29.0250   51.7326 H   0  0  0  0  0  0  0  0  0  0  0  0
   57.6409   30.9310   44.2495 H   0  0  0  0  0  0  0  0  0  0  0  0
   58.0692   29.2194   44.6337 H   0  0  0  0  0  0  0  0  0  0  0  0
  1  2  1  0
  2  3  1  0
  3  4  2  0
  4  5  1  0
  5  6  2  0
  6  7  1  0
  7  8  1  0
  8  9  1  0
  9 10  1  0
 10 11  1  0
 11 12  2  0
 11 13  1  0
 13 14  2  0
 14 15  1  0
 15 16  2  0
 16 17  1  0
 17 18  1  0
 18 19  1  0
 19 20  2  0
 19 21  1  0
 21 22  2  0
 22 23  1  0
 23 24  2  0
 24 25  1  0
 25 26  2  0
 26 27  1  0
 27 28  2  0
 27 29  1  0
 17 30  2  0
  7 31  2  0
 31 32  1  0
 32 33  1  0
 33 34  1  0
 34 35  2  0
 34 36  1  0
 31  3  1  0
 30 13  1  0
 26 21  1  0
  1 37  1  0
  1 38  1  0
  1 39  1  0
  4 40  1  0
  5 41  1  0
  6 42  1  0
  8 43  1  0
  8 44  1  0
  9 45  1  0
  9 46  1  0
 14 47  1  0
 15 48  1  0
 16 49  1  0
 18 50  1  0
 22 51  1  0
 23 52  1  0
 24 53  1  0
 25 54  1  0
 30 55  1  0
 33 56  1  0
 33 57  1  0
M  CHG  3  10  -1  29  -1  36  -1
M  END
>  <UniqueID>  (52) 
49

>  <SMILES>  (52) 
COc1cccc(CC[N-]C(=O)c2cccc(NC(=O)c3ccccc3C(=O)[O-])c2)c1OCC(=O)[O-]

>  <Energy>  (52) 
74.04178108559712

>  <Genealogy>  (52) 
COc1cccc(CC[N-]C(=O)c2cccc(NC(=O)c3ccccc3C(=O)[O-])c2)c1OCC(=O)[O-] (protonated)
COc1cccc(CC[N-]C(=O)c2cccc(NC(=O)c3ccccc3C(=O)[O-])c2)c1OCC(=O)[O-] (3D coordinates assigned)
COc1cccc(CC[N-]C(=O)c2cccc(NC(=O)c3ccccc3C(=O)[O-])c2)c1OCC(=O)[O-] (optimized conformer: 74.04178108559712 kcal/mol)

>  <smiles>  (52) 
COc1cccc(CCNC(=O)c2cccc(NC(=O)c3ccccc3C(=O)O)c2)c1OCC(=O)O

>  <score_type>  (52) 
oracle

>  <origin>  (52) 
adg

>  <m_score__min__energy>  (52) 
-16.059999999999999

>  <m_primary>  (52) 
energy

$$$$
52:0
     RDKit          3D

 45 48  0  0  0  0  0  0  0  0999 V2000
   61.2180   34.1020   45.4440 H   0  0  0  0  0  0  0  0  0  0  0  0
   62.0540   33.9120   45.9860 O   0  0  0  0  0  0  0  0  0  0  0  0
   61.9890   33.5430   47.3300 C   0  0  0  0  0  0  0  0  0  0  0  0
   63.0170   32.7730   47.8850 C   0  0  0  0  0  0  0  0  0  0  0  0
   63.8810   32.4891   47.2662 H   0  0  0  0  0  0  0  0  0  0  0  0
   62.9550   32.3630   49.2150 C   0  0  0  0  0  0  0  0  0  0  0  0
   63.7698   31.7584   49.6399 H   0  0  0  0  0  0  0  0  0  0  0  0
   61.8600   32.7170   50.0140 C   0  0  0  0  0  0  0  0  0  0  0  0
   61.8030   32.2960   51.3520 C   0  0  0  0  0  0  0  0  0  0  0  0
   62.6155   31.6825   51.7685 H   0  0  0  0  0  0  0  0  0  0  0  0
   60.7190   32.6530   52.1560 C   0  0  0  0  0  0  0  0  0  0  0  0
   60.6793   32.3193   53.2034 H   0  0  0  0  0  0  0  0  0  0  0  0
   59.6860   33.4320   51.6340 C   0  0  0  0  0  0  0  0  0  0  0  0
   58.8346   33.7111   52.2721 H   0  0  0  0  0  0  0  0  0  0  0  0
   59.7280   33.8590   50.3050 C   0  0  0  0  0  0  0  0  0  0  0  0
   58.9109   34.4774   49.9051 H   0  0  0  0  0  0  0  0  0  0  0  0
   60.8100   33.5040   49.4700 C   0  0  0  0  0  0  0  0  0  0  0  0
   60.8870   33.9320   48.1200 C   0  0  0  0  0  0  0  0  0  0  0  0
   59.8060   34.7470   47.5120 C   0  0  0  0  0  0  0  0  0  0  0  0
   59.4140   35.5994   48.0862 H   0  0  0  0  0  0  0  0  0  0  0  0
   59.2950   34.5110   46.3380 N   0  0  0  0  0  0  0  0  0  0  0  0
   58.6840   33.2890   45.8880 C   0  0  0  0  0  0  0  0  0  0  0  0
   58.7060   32.1720   46.7310 C   0  0  0  0  0  0  0  0  0  0  0  0
   59.1998   32.2369   47.7118 H   0  0  0  0  0  0  0  0  0  0  0  0
   58.1040   30.9740   46.3340 C   0  0  0  0  0  0  0  0  0  0  0  0
   58.1406   30.0966   46.9964 H   0  0  0  0  0  0  0  0  0  0  0  0
   57.4550   30.8870   45.0970 C   0  0  0  0  0  0  0  0  0  0  0  0
   56.6790   29.3800   44.6210 S   0  0  0  0  0  0  0  0  0  0  0  0
   55.1850   29.5430   44.5650 O   0  0  0  0  0  0  0  0  0  0  0  0
   57.1690   28.9880   43.2560 O   0  0  0  0  0  0  0  0  0  0  0  0
   57.0820   28.1300   45.7540 N   0  0  0  0  0  0  0  0  0  0  0  0
   56.7310   26.8870   45.6130 C   0  0  0  0  0  0  0  0  0  0  0  0
   55.4940   26.4610   45.9990 N   0  0  0  0  0  0  0  0  0  0  0  0
   55.1060   25.1650   45.8660 C   0  0  0  0  0  0  0  0  0  0  0  0
   54.1007   24.8559   46.1883 H   0  0  0  0  0  0  0  0  0  0  0  0
   55.9840   24.2260   45.3200 C   0  0  0  0  0  0  0  0  0  0  0  0
   55.6770   23.1754   45.2102 H   0  0  0  0  0  0  0  0  0  0  0  0
   57.2560   24.6360   44.9150 C   0  0  0  0  0  0  0  0  0  0  0  0
   57.9580   23.9081   44.4821 H   0  0  0  0  0  0  0  0  0  0  0  0
   57.6350   25.9730   45.0610 C   0  0  0  0  0  0  0  0  0  0  0  0
   58.6352   26.3039   44.7447 H   0  0  0  0  0  0  0  0  0  0  0  0
   57.3970   32.0140   44.2650 C   0  0  0  0  0  0  0  0  0  0  0  0
   56.8772   31.9553   43.2973 H   0  0  0  0  0  0  0  0  0  0  0  0
   57.9980   33.2120   44.6620 C   0  0  0  0  0  0  0  0  0  0  0  0
   57.9344   34.0981   44.0133 H   0  0  0  0  0  0  0  0  0  0  0  0
  1  2  1  0
  2  3  1  0
  3  4  2  0
  4  5  1  0
  4  6  1  0
  6  7  1  0
  6  8  2  0
  8  9  1  0
  9 10  1  0
  9 11  2  0
 11 12  1  0
 11 13  1  0
 13 14  1  0
 13 15  2  0
 15 16  1  0
 15 17  1  0
 17 18  2  0
 18 19  1  0
 19 20  1  0
 19 21  2  3
 21 22  1  0
 22 23  2  0
 23 24  1  0
 23 25  1  0
 25 26  1  0
 25 27  2  0
 27 28  1  0
 28 29  2  0
 28 30  2  0
 28 31  1  0
 31 32  2  0
 32 33  1  0
 33 34  1  0
 34 35  1  0
 34 36  2  0
 36 37  1  0
 36 38  1  0
 38 39  1  0
 38 40  2  0
 40 41  1  0
 27 42  1  0
 42 43  1  0
 42 44  2  0
 44 45  1  0
 18  3  1  0
 44 22  1  0
 17  8  1  0
 40 32  1  0
M  CHG  1  33  -1
M  END
>  <UniqueID>  (53) 
50

>  <SMILES>  (53) 
O=S(=O)(/N=c1/cccc[n-]1)c1ccc(N=Cc2c(O)ccc3ccccc23)cc1

>  <Energy>  (53) 
70.70529197989967

>  <Genealogy>  (53) 
O=S(=O)(N=c1cccc[n-]1)c1ccc(N=Cc2c(O)ccc3ccccc23)cc1 (protonated)
O=S(=O)(/N=c1/cccc[n-]1)c1ccc(N=Cc2c(O)ccc3ccccc23)cc1 (cis-trans isomerization)
O=S(=O)(/N=c1/cccc[n-]1)c1ccc(N=Cc2c(O)ccc3ccccc23)cc1 (3D coordinates assigned)
O=S(=O)(/N=c1/cccc[n-]1)c1ccc(N=Cc2c(O)ccc3ccccc23)cc1 (optimized conformer: 70.70529197989967 kcal/mol)

>  <smiles>  (53) 
O=S(=O)(N=c1cccc[nH]1)c1ccc(N=Cc2c(O)ccc3ccccc23)cc1

>  <score_type>  (53) 
oracle

>  <origin>  (53) 
adg

>  <m_score__min__energy>  (53) 
-10.93

>  <m_primary>  (53) 
energy

$$$$
53:0
     RDKit          3D

 57 60  0  0  0  0  0  0  0  0999 V2000
   55.9750   28.7690   53.1480 C   0  0  0  0  0  0  0  0  0  0  0  0
   56.6890   29.2770   52.0260 O   0  0  0  0  0  0  0  0  0  0  0  0
   57.2370   30.5670   51.9480 C   0  0  0  0  0  0  0  0  0  0  0  0
   56.8040   31.6150   52.7850 C   0  0  0  0  0  0  0  0  0  0  0  0
   57.3780   32.8840   52.6810 C   0  0  0  0  0  0  0  0  0  0  0  0
   58.3950   33.1190   51.7560 C   0  0  0  0  0  0  0  0  0  0  0  0
   58.8350   32.0880   50.9240 C   0  0  0  0  0  0  0  0  0  0  0  0
   58.2450   30.8130   50.9990 C   0  0  0  0  0  0  0  0  0  0  0  0
   58.6880   29.7350   50.1600 N   0  0  0  0  0  0  0  0  0  0  0  0
   60.0430   29.4480   49.7870 C   0  0  0  0  0  0  0  0  0  0  0  0
   60.5600   28.3700   50.1850 O   0  0  0  0  0  0  0  0  0  0  0  0
   60.8170   30.3440   48.8930 C   0  0  0  0  0  0  0  0  0  0  0  0
   61.2330   31.6030   49.3590 C   0  0  0  0  0  0  0  0  0  0  0  0
   61.9670   32.4590   48.5340 C   0  0  0  0  0  0  0  0  0  0  0  0
   62.4890   34.0230   49.1340 Cl  0  0  0  0  0  0  0  0  0  0  0  0
   62.2880   32.0680   47.2330 C   0  0  0  0  0  0  0  0  0  0  0  0
   61.8690   30.8270   46.7510 C   0  0  0  0  0  0  0  0  0  0  0  0
   61.1170   29.9600   47.5670 C   0  0  0  0  0  0  0  0  0  0  0  0
   60.7120   28.6970   47.1070 O   0  0  0  0  0  0  0  0  0  0  0  0
   59.4110   28.1850   47.1880 C   0  0  0  0  0  0  0  0  0  0  0  0
   59.1120   27.3050   48.0410 O   0  0  0  0  0  0  0  0  0  0  0  0
   58.3990   28.6370   46.2250 C   0  0  0  0  0  0  0  0  0  0  0  0
   57.0490   28.3300   46.2560 C   0  0  0  0  0  0  0  0  0  0  0  0
   56.5010   28.9860   45.1740 C   0  0  0  0  0  0  0  0  0  0  0  0
   55.1540   28.9700   44.8340 O   0  0  0  0  0  0  0  0  0  0  0  0
   57.4450   29.6610   44.4890 N   0  0  0  0  0  0  0  0  0  0  0  0
   57.2370   30.5320   43.3330 C   0  0  0  0  0  0  0  0  0  0  0  0
   57.2380   31.9970   43.7720 C   0  0  0  0  0  0  0  0  0  0  0  0
   58.5160   32.3670   44.2890 O   0  0  0  0  0  0  0  0  0  0  0  0
   58.7430   33.0480   45.4970 C   0  0  0  0  0  0  0  0  0  0  0  0
   59.4500   34.2560   45.4510 C   0  0  0  0  0  0  0  0  0  0  0  0
   59.7000   34.9780   46.6230 C   0  0  0  0  0  0  0  0  0  0  0  0
   59.2430   34.4980   47.8520 C   0  0  0  0  0  0  0  0  0  0  0  0
   58.5350   33.2950   47.9110 C   0  0  0  0  0  0  0  0  0  0  0  0
   58.2820   32.5700   46.7410 C   0  0  0  0  0  0  0  0  0  0  0  0
   58.6120   29.4620   45.1330 C   0  0  0  0  0  0  0  0  0  0  0  0
   56.4571   29.1120   54.0753 H   0  0  0  0  0  0  0  0  0  0  0  0
   54.9374   29.1331   53.1178 H   0  0  0  0  0  0  0  0  0  0  0  0
   55.9788   27.6694   53.1178 H   0  0  0  0  0  0  0  0  0  0  0  0
   56.0099   31.4325   53.5240 H   0  0  0  0  0  0  0  0  0  0  0  0
   57.0272   33.6999   53.3301 H   0  0  0  0  0  0  0  0  0  0  0  0
   58.8507   34.1174   51.6820 H   0  0  0  0  0  0  0  0  0  0  0  0
   59.6474   32.2735   50.2059 H   0  0  0  0  0  0  0  0  0  0  0  0
   60.9785   31.9171   50.3820 H   0  0  0  0  0  0  0  0  0  0  0  0
   62.8723   32.7392   46.5864 H   0  0  0  0  0  0  0  0  0  0  0  0
   62.1282   30.5238   45.7259 H   0  0  0  0  0  0  0  0  0  0  0  0
   56.5253   27.6975   46.9879 H   0  0  0  0  0  0  0  0  0  0  0  0
   58.0455   30.3698   42.6050 H   0  0  0  0  0  0  0  0  0  0  0  0
   56.2663   30.2945   42.8733 H   0  0  0  0  0  0  0  0  0  0  0  0
   57.0002   32.6335   42.9070 H   0  0  0  0  0  0  0  0  0  0  0  0
   56.4843   32.1304   44.5621 H   0  0  0  0  0  0  0  0  0  0  0  0
   59.8116   34.6402   44.4858 H   0  0  0  0  0  0  0  0  0  0  0  0
   60.2574   35.9252   46.5762 H   0  0  0  0  0  0  0  0  0  0  0  0
   59.4402   35.0665   48.7728 H   0  0  0  0  0  0  0  0  0  0  0  0
   58.1756   32.9168   48.8794 H   0  0  0  0  0  0  0  0  0  0  0  0
   57.7220   31.6246   46.7919 H   0  0  0  0  0  0  0  0  0  0  0  0
   59.5821   29.8882   44.8376 H   0  0  0  0  0  0  0  0  0  0  0  0
  1  2  1  0
  2  3  1  0
  3  4  2  0
  4  5  1  0
  5  6  2  0
  6  7  1  0
  7  8  2  0
  8  9  1  0
  9 10  1  0
 10 11  2  0
 10 12  1  0
 12 13  2  0
 13 14  1  0
 14 15  1  0
 14 16  2  0
 16 17  1  0
 17 18  2  0
 18 19  1  0
 19 20  1  0
 20 21  2  0
 20 22  1  0
 22 23  1  0
 23 24  2  0
 24 25  1  0
 24 26  1  0
 26 27  1  0
 27 28  1  0
 28 29  1  0
 29 30  1  0
 30 31  2  0
 31 32  1  0
 32 33  2  0
 33 34  1  0
 34 35  2  0
 26 36  1  0
  8  3  1  0
 18 12  1  0
 36 22  2  0
 35 30  1  0
  1 37  1  0
  1 38  1  0
  1 39  1  0
  4 40  1  0
  5 41  1  0
  6 42  1  0
  7 43  1  0
 13 44  1  0
 16 45  1  0
 17 46  1  0
 23 47  1  0
 27 48  1  0
 27 49  1  0
 28 50  1  0
 28 51  1  0
 31 52  1  0
 32 53  1  0
 33 54  1  0
 34 55  1  0
 35 56  1  0
 36 57  1  0
M  CHG  2   9  -1  25  -1
M  END
>  <UniqueID>  (54) 
51

>  <SMILES>  (54) 
COc1ccccc1[N-]C(=O)c1cc(Cl)ccc1OC(=O)c1cc([O-])n(CCOc2ccccc2)c1

>  <Energy>  (54) 
97.12043101536688

>  <Genealogy>  (54) 
COc1ccccc1[N-]C(=O)c1cc(Cl)ccc1OC(=O)c1cc([O-])n(CCOc2ccccc2)c1 (protonated)
COc1ccccc1[N-]C(=O)c1cc(Cl)ccc1OC(=O)c1cc([O-])n(CCOc2ccccc2)c1 (3D coordinates assigned)
COc1ccccc1[N-]C(=O)c1cc(Cl)ccc1OC(=O)c1cc([O-])n(CCOc2ccccc2)c1 (optimized conformer: 97.12043101536688 kcal/mol)

>  <smiles>  (54) 
COc1ccccc1NC(=O)c1cc(Cl)ccc1OC(=O)c1cc(O)n(CCOc2ccccc2)c1

>  <score_type>  (54) 
oracle

>  <origin>  (54) 
adg

>  <m_score__min__energy>  (54) 
-13.56

>  <m_primary>  (54) 
energy

$$$$
54:0
     RDKit          3D

 27 28  0  0  0  0  0  0  0  0999 V2000
   54.4580   29.3530   45.1820 H   0  0  0  0  0  0  0  0  0  0  0  0
   55.4710   29.1500   45.0310 N   0  0  0  0  0  0  0  0  0  0  0  0
   56.2250   29.8680   44.0580 C   0  0  0  0  0  0  0  0  0  0  0  0
   56.0980   29.5700   42.8390 O   0  0  0  0  0  0  0  0  0  0  0  0
   57.1500   30.9520   44.4690 C   0  0  0  0  0  0  0  0  0  0  0  0
   57.7950   30.9090   45.7170 C   0  0  0  0  0  0  0  0  0  0  0  0
   57.6133   30.0633   46.3965 H   0  0  0  0  0  0  0  0  0  0  0  0
   58.6650   31.9320   46.1010 C   0  0  0  0  0  0  0  0  0  0  0  0
   59.1556   31.8877   47.0845 H   0  0  0  0  0  0  0  0  0  0  0  0
   58.9200   33.0130   45.2490 C   0  0  0  0  0  0  0  0  0  0  0  0
   59.8170   34.0400   45.7050 N   0  0  0  0  0  0  0  0  0  0  0  0
   59.9160   34.5020   46.9150 C   0  0  0  0  0  0  0  0  0  0  0  0
   59.1727   35.2273   47.2775 H   0  0  0  0  0  0  0  0  0  0  0  0
   61.0140   34.0700   47.8200 C   0  0  0  0  0  0  0  0  0  0  0  0
   62.3100   33.7620   47.3520 C   0  0  0  0  0  0  0  0  0  0  0  0
   62.6270   33.8470   45.9980 O   0  0  0  0  0  0  0  0  0  0  0  0
   61.9050   33.7980   45.2890 H   0  0  0  0  0  0  0  0  0  0  0  0
   63.2720   33.3720   48.2290 N   0  0  0  0  0  0  0  0  0  0  0  0
   63.0170   33.2710   49.5560 C   0  0  0  0  0  0  0  0  0  0  0  0
   64.1980   32.8000   50.5800 S   0  0  0  0  0  0  0  0  0  0  0  0
   61.7830   33.5600   50.0340 N   0  0  0  0  0  0  0  0  0  0  0  0
   60.7820   33.9540   49.2060 C   0  0  0  0  0  0  0  0  0  0  0  0
   59.6490   34.2120   49.6950 O   0  0  0  0  0  0  0  0  0  0  0  0
   58.2640   33.0690   44.0040 C   0  0  0  0  0  0  0  0  0  0  0  0
   58.4380   33.9220   43.3317 H   0  0  0  0  0  0  0  0  0  0  0  0
   57.3920   32.0450   43.6180 C   0  0  0  0  0  0  0  0  0  0  0  0
   56.8912   32.0955   42.6399 H   0  0  0  0  0  0  0  0  0  0  0  0
  1  2  1  0
  2  3  1  0
  3  4  2  0
  3  5  1  0
  5  6  2  0
  6  7  1  0
  6  8  1  0
  8  9  1  0
  8 10  2  0
 10 11  1  0
 11 12  2  0
 12 13  1  0
 12 14  1  0
 14 15  2  0
 15 16  1  0
 16 17  1  0
 15 18  1  0
 18 19  1  0
 19 20  2  0
 19 21  1  0
 21 22  1  0
 22 23  2  0
 10 24  1  0
 24 25  1  0
 24 26  2  0
 26 27  1  0
 26  5  1  0
 22 14  1  0
M  CHG  3   2  -1  18  -1  21  -1
M  END
>  <UniqueID>  (55) 
52

>  <SMILES>  (55) 
[NH-]C(=O)c1ccc(/N=C/c2c(O)[n-]c(=S)[n-]c2=O)cc1

>  <Energy>  (55) 
33.941933278899185

>  <Genealogy>  (55) 
[NH-]C(=O)c1ccc(N=Cc2c(O)[n-]c(=S)[n-]c2=O)cc1 (protonated)
[NH-]C(=O)c1ccc(/N=C/c2c(O)[n-]c(=S)[n-]c2=O)cc1 (cis-trans isomerization)
[NH-]C(=O)c1ccc(/N=C/c2c(O)[n-]c(=S)[n-]c2=O)cc1 (3D coordinates assigned)
[NH-]C(=O)c1ccc(/N=C/c2c(O)[n-]c(=S)[n-]c2=O)cc1 (optimized conformer: 33.941933278899185 kcal/mol)

>  <smiles>  (55) 
NC(=O)c1ccc(N=Cc2c(O)[nH]c(=S)[nH]c2=O)cc1

>  <score_type>  (55) 
oracle

>  <origin>  (55) 
adg

>  <m_score__min__energy>  (55) 
-11.619999999999999

>  <m_primary>  (55) 
energy

$$$$
55:0
     RDKit          3D

 39 40  0  0  0  0  0  0  0  0999 V2000
   54.8590   26.1900   45.9930 N   0  0  0  0  0  0  0  0  0  0  0  0
   56.4880   25.6490   46.2070 S   0  0  0  0  0  0  0  0  0  0  0  0
   56.8030   24.5820   45.1970 O   0  0  0  0  0  0  0  0  0  0  0  0
   56.6320   25.0800   47.5910 O   0  0  0  0  0  0  0  0  0  0  0  0
   57.5870   27.0060   45.9890 C   0  0  0  0  0  0  0  0  0  0  0  0
   58.6640   27.1730   46.8660 C   0  0  0  0  0  0  0  0  0  0  0  0
   59.5190   28.2680   46.7280 C   0  0  0  0  0  0  0  0  0  0  0  0
   59.2990   29.2050   45.7160 C   0  0  0  0  0  0  0  0  0  0  0  0
   58.2280   29.0510   44.8220 C   0  0  0  0  0  0  0  0  0  0  0  0
   57.9720   30.0790   43.8480 N   0  0  0  0  0  0  0  0  0  0  0  0
   57.3470   31.3290   44.1610 C   0  0  0  0  0  0  0  0  0  0  0  0
   56.3040   31.3580   44.8700 O   0  0  0  0  0  0  0  0  0  0  0  0
   57.9860   32.6130   43.7210 C   0  0  0  0  0  0  0  0  0  0  0  0
   57.9490   33.6460   44.8490 C   0  0  0  0  0  0  0  0  0  0  0  0
   59.0610   33.4230   45.7650 N   0  0  0  0  0  0  0  0  0  0  0  0
   59.9750   34.4490   46.1640 C   0  0  0  0  0  0  0  0  0  0  0  0
   59.7650   35.6430   45.8160 O   0  0  0  0  0  0  0  0  0  0  0  0
   61.1410   34.1120   47.0140 C   0  0  0  0  0  0  0  0  0  0  0  0
   61.0090   34.0460   48.4120 C   0  0  0  0  0  0  0  0  0  0  0  0
   62.0990   33.6770   49.2080 C   0  0  0  0  0  0  0  0  0  0  0  0
   63.3280   33.3700   48.6180 C   0  0  0  0  0  0  0  0  0  0  0  0
   64.8060   32.8420   49.7060 Br  0  0  0  0  0  0  0  0  0  0  0  0
   63.4710   33.4410   47.2300 C   0  0  0  0  0  0  0  0  0  0  0  0
   62.3880   33.8160   46.4320 C   0  0  0  0  0  0  0  0  0  0  0  0
   57.3700   27.9440   44.9680 C   0  0  0  0  0  0  0  0  0  0  0  0
   54.7670   27.0910   46.5120 H   0  0  0  0  0  0  0  0  0  0  0  0
   58.8378   26.4392   47.6669 H   0  0  0  0  0  0  0  0  0  0  0  0
   60.3671   28.3929   47.4173 H   0  0  0  0  0  0  0  0  0  0  0  0
   59.9706   30.0708   45.6188 H   0  0  0  0  0  0  0  0  0  0  0  0
   58.3750   29.9650   42.8900 H   0  0  0  0  0  0  0  0  0  0  0  0
   59.0323   32.4193   43.4421 H   0  0  0  0  0  0  0  0  0  0  0  0
   57.4299   33.0090   42.8585 H   0  0  0  0  0  0  0  0  0  0  0  0
   58.0267   34.6562   44.4207 H   0  0  0  0  0  0  0  0  0  0  0  0
   57.0018   33.5463   45.3994 H   0  0  0  0  0  0  0  0  0  0  0  0
   60.0440   34.2856   48.8825 H   0  0  0  0  0  0  0  0  0  0  0  0
   61.9881   33.6284   50.3013 H   0  0  0  0  0  0  0  0  0  0  0  0
   64.4385   33.2011   46.7649 H   0  0  0  0  0  0  0  0  0  0  0  0
   62.5103   33.8805   45.3407 H   0  0  0  0  0  0  0  0  0  0  0  0
   56.5240   27.8136   44.2771 H   0  0  0  0  0  0  0  0  0  0  0  0
  1  2  1  0
  2  3  2  0
  2  4  2  0
  2  5  1  0
  5  6  2  0
  6  7  1  0
  7  8  2  0
  8  9  1  0
  9 10  1  0
 10 11  1  0
 11 12  2  0
 11 13  1  0
 13 14  1  0
 14 15  1  0
 15 16  1  0
 16 17  2  0
 16 18  1  0
 18 19  2  0
 19 20  1  0
 20 21  2  0
 21 22  1  0
 21 23  1  0
 23 24  2  0
  9 25  2  0
 25  5  1  0
 24 18  1  0
  1 26  1  0
  6 27  1  0
  7 28  1  0
  8 29  1  0
 10 30  1  0
 13 31  1  0
 13 32  1  0
 14 33  1  0
 14 34  1  0
 19 35  1  0
 20 36  1  0
 23 37  1  0
 24 38  1  0
 25 39  1  0
M  CHG  2   1  -1  15  -1
M  END
>  <UniqueID>  (56) 
53

>  <SMILES>  (56) 
[NH-]S(=O)(=O)c1cccc(NC(=O)CC[N-]C(=O)c2ccc(Br)cc2)c1

>  <Energy>  (56) 
34.631557039756316

>  <Genealogy>  (56) 
[NH-]S(=O)(=O)c1cccc(NC(=O)CC[N-]C(=O)c2ccc(Br)cc2)c1 (protonated)
[NH-]S(=O)(=O)c1cccc(NC(=O)CC[N-]C(=O)c2ccc(Br)cc2)c1 (3D coordinates assigned)
[NH-]S(=O)(=O)c1cccc(NC(=O)CC[N-]C(=O)c2ccc(Br)cc2)c1 (optimized conformer: 34.631557039756316 kcal/mol)

>  <smiles>  (56) 
NS(=O)(=O)c1cccc(NC(=O)CCNC(=O)c2ccc(Br)cc2)c1

>  <score_type>  (56) 
oracle

>  <origin>  (56) 
adg

>  <m_score__min__energy>  (56) 
-13.81

>  <m_primary>  (56) 
energy

$$$$
56:0
     RDKit          3D

 24 25  0  0  0  0  0  0  0  0999 V2000
   60.2082   27.8836   45.8649 H   0  0  0  0  0  0  0  0  0  0  0  0
   59.1540   28.1200   45.6580 C   0  0  0  0  0  0  0  0  0  0  0  0
   58.1950   27.1770   45.8540 N   0  0  0  0  0  0  0  0  0  0  0  0
   56.8750   27.4240   45.6130 C   0  0  0  0  0  0  0  0  0  0  0  0
   55.9690   26.5080   45.8060 N   0  0  0  0  0  0  0  0  0  0  0  0
   56.1690   25.1840   46.3310 C   0  0  0  0  0  0  0  0  0  0  0  0
   55.9100   24.9270   47.5390 O   0  0  0  0  0  0  0  0  0  0  0  0
   56.6280   24.0910   45.4420 C   0  0  0  0  0  0  0  0  0  0  0  0
   58.0130   23.9060   45.2630 C   0  0  0  0  0  0  0  0  0  0  0  0
   58.7209   24.5815   45.7655 H   0  0  0  0  0  0  0  0  0  0  0  0
   58.4980   22.8750   44.4550 C   0  0  0  0  0  0  0  0  0  0  0  0
   59.5824   22.7385   44.3307 H   0  0  0  0  0  0  0  0  0  0  0  0
   57.6100   22.0190   43.8060 C   0  0  0  0  0  0  0  0  0  0  0  0
   57.9940   21.2043   43.1745 H   0  0  0  0  0  0  0  0  0  0  0  0
   56.2340   22.1950   43.9570 C   0  0  0  0  0  0  0  0  0  0  0  0
   55.5375   21.5202   43.4379 H   0  0  0  0  0  0  0  0  0  0  0  0
   55.7320   23.2250   44.7650 C   0  0  0  0  0  0  0  0  0  0  0  0
   53.9350   23.4360   44.8250 S   0  0  0  0  0  0  0  0  0  0  0  0
   56.4880   28.6890   45.1450 C   0  0  0  0  0  0  0  0  0  0  0  0
   55.1500   28.9730   44.8890 O   0  0  0  0  0  0  0  0  0  0  0  0
   57.4590   29.6720   44.9370 C   0  0  0  0  0  0  0  0  0  0  0  0
   57.1660   30.6672   44.5713 H   0  0  0  0  0  0  0  0  0  0  0  0
   58.8010   29.3890   45.1940 C   0  0  0  0  0  0  0  0  0  0  0  0
   59.5721   30.1568   45.0329 H   0  0  0  0  0  0  0  0  0  0  0  0
  1  2  1  0
  2  3  1  0
  3  4  1  0
  4  5  2  0
  5  6  1  0
  6  7  2  0
  6  8  1  0
  8  9  2  0
  9 10  1  0
  9 11  1  0
 11 12  1  0
 11 13  2  0
 13 14  1  0
 13 15  1  0
 15 16  1  0
 15 17  2  0
 17 18  1  0
  4 19  1  0
 19 20  1  0
 19 21  2  0
 21 22  1  0
 21 23  1  0
 23 24  1  0
 23  2  2  0
 17  8  1  0
M  CHG  3   3  -1  18  -1  20  -1
M  END
>  <UniqueID>  (57) 
54

>  <SMILES>  (57) 
O=C(/N=c1\[n-]cccc1[O-])c1ccccc1[S-]

>  <Energy>  (57) 
34.132196483484115

>  <Genealogy>  (57) 
O=C(N=c1[n-]cccc1[O-])c1ccccc1[S-] (protonated)
O=C(/N=c1\[n-]cccc1[O-])c1ccccc1[S-] (cis-trans isomerization)
O=C(/N=c1\[n-]cccc1[O-])c1ccccc1[S-] (3D coordinates assigned)
O=C(/N=c1\[n-]cccc1[O-])c1ccccc1[S-] (optimized conformer: 34.132196483484115 kcal/mol)

>  <smiles>  (57) 
O=C(N=c1[nH]cccc1O)c1ccccc1S

>  <score_type>  (57) 
oracle

>  <origin>  (57) 
adg

>  <m_score__min__energy>  (57) 
-12.470000000000001

>  <m_primary>  (57) 
energy

$$$$
57:0
     RDKit          3D

 41 43  0  0  0  0  0  0  0  0999 V2000
   58.0552   26.1141   47.4979 H   0  0  0  0  0  0  0  0  0  0  0  0
   58.3760   27.0580   47.0330 C   0  0  0  0  0  0  0  0  0  0  0  0
   57.6810   27.5670   45.9830 N   0  0  0  0  0  0  0  0  0  0  0  0
   58.0390   28.7270   45.3730 C   0  0  0  0  0  0  0  0  0  0  0  0
   57.3890   29.1800   44.3380 N   0  0  0  0  0  0  0  0  0  0  0  0
   56.7240   30.4450   44.1580 C   0  0  0  0  0  0  0  0  0  0  0  0
   55.5310   30.5460   44.5440 O   0  0  0  0  0  0  0  0  0  0  0  0
   57.3630   31.6400   43.4950 C   0  0  0  0  0  0  0  0  0  0  0  0
   58.2492   31.3015   42.9381 H   0  0  0  0  0  0  0  0  0  0  0  0
   56.6126   32.0917   42.8295 H   0  0  0  0  0  0  0  0  0  0  0  0
   57.7900   32.6980   44.4870 C   0  0  0  0  0  0  0  0  0  0  0  0
   57.2340   32.7110   45.7790 C   0  0  0  0  0  0  0  0  0  0  0  0
   56.4578   31.9790   46.0467 H   0  0  0  0  0  0  0  0  0  0  0  0
   57.6610   33.6480   46.7260 C   0  0  0  0  0  0  0  0  0  0  0  0
   57.2076   33.6617   47.7281 H   0  0  0  0  0  0  0  0  0  0  0  0
   58.6620   34.5660   46.4010 C   0  0  0  0  0  0  0  0  0  0  0  0
   58.9961   35.3028   47.1463 H   0  0  0  0  0  0  0  0  0  0  0  0
   59.2390   34.5480   45.1280 C   0  0  0  0  0  0  0  0  0  0  0  0
   60.0292   35.2694   44.8729 H   0  0  0  0  0  0  0  0  0  0  0  0
   58.8130   33.6140   44.1780 C   0  0  0  0  0  0  0  0  0  0  0  0
   59.2807   33.5952   43.1826 H   0  0  0  0  0  0  0  0  0  0  0  0
   59.1590   29.4360   45.8370 C   0  0  0  0  0  0  0  0  0  0  0  0
   59.5260   30.5710   45.1910 F   0  0  0  0  0  0  0  0  0  0  0  0
   59.8930   28.9390   46.9360 C   0  0  0  0  0  0  0  0  0  0  0  0
   61.0150   29.5960   47.4790 O   0  0  0  0  0  0  0  0  0  0  0  0
   61.4860   30.8990   47.1310 C   0  0  0  0  0  0  0  0  0  0  0  0
   62.5828   30.9176   47.2121 H   0  0  0  0  0  0  0  0  0  0  0  0
   61.1697   31.1203   46.1010 H   0  0  0  0  0  0  0  0  0  0  0  0
   60.9070   31.9500   48.0450 C   0  0  0  0  0  0  0  0  0  0  0  0
   61.4000   33.2650   48.0220 C   0  0  0  0  0  0  0  0  0  0  0  0
   62.2132   33.5336   47.3316 H   0  0  0  0  0  0  0  0  0  0  0  0
   60.8610   34.2330   48.8730 C   0  0  0  0  0  0  0  0  0  0  0  0
   61.2429   35.2641   48.8419 H   0  0  0  0  0  0  0  0  0  0  0  0
   59.8390   33.8960   49.7630 C   0  0  0  0  0  0  0  0  0  0  0  0
   59.4109   34.6626   50.4256 H   0  0  0  0  0  0  0  0  0  0  0  0
   59.3600   32.5820   49.8110 C   0  0  0  0  0  0  0  0  0  0  0  0
   58.0840   32.1560   50.9360 Cl  0  0  0  0  0  0  0  0  0  0  0  0
   59.8970   31.6100   48.9610 C   0  0  0  0  0  0  0  0  0  0  0  0
   59.5273   30.5751   49.0096 H   0  0  0  0  0  0  0  0  0  0  0  0
   59.4960   27.7300   47.5230 C   0  0  0  0  0  0  0  0  0  0  0  0
   60.3790   27.0580   48.8860 Cl  0  0  0  0  0  0  0  0  0  0  0  0
  1  2  1  0
  2  3  1  0
  3  4  1  0
  4  5  2  0
  5  6  1  0
  6  7  2  0
  6  8  1  0
  8  9  1  0
  8 10  1  0
  8 11  1  0
 11 12  2  0
 12 13  1  0
 12 14  1  0
 14 15  1  0
 14 16  2  0
 16 17  1  0
 16 18  1  0
 18 19  1  0
 18 20  2  0
 20 21  1  0
  4 22  1  0
 22 23  1  0
 22 24  2  0
 24 25  1  0
 25 26  1  0
 26 27  1  0
 26 28  1  0
 26 29  1  0
 29 30  2  0
 30 31  1  0
 30 32  1  0
 32 33  1  0
 32 34  2  0
 34 35  1  0
 34 36  1  0
 36 37  1  0
 36 38  2  0
 38 39  1  0
 24 40  1  0
 40 41  1  0
 40  2  2  0
 20 11  1  0
 38 29  1  0
M  CHG  1   3  -1
M  END
>  <UniqueID>  (58) 
55

>  <SMILES>  (58) 
O=C(Cc1ccccc1)/N=c1\[n-]cc(Cl)c(OCc2cccc(Cl)c2)c1F

>  <Energy>  (58) 
51.36152700059905

>  <Genealogy>  (58) 
O=C(Cc1ccccc1)N=c1[n-]cc(Cl)c(OCc2cccc(Cl)c2)c1F (protonated)
O=C(Cc1ccccc1)/N=c1\[n-]cc(Cl)c(OCc2cccc(Cl)c2)c1F (cis-trans isomerization)
O=C(Cc1ccccc1)/N=c1\[n-]cc(Cl)c(OCc2cccc(Cl)c2)c1F (3D coordinates assigned)
O=C(Cc1ccccc1)/N=c1\[n-]cc(Cl)c(OCc2cccc(Cl)c2)c1F (optimized conformer: 51.36152700059905 kcal/mol)

>  <smiles>  (58) 
O=C(Cc1ccccc1)N=c1[nH]cc(Cl)c(OCc2cccc(Cl)c2)c1F

>  <score_type>  (58) 
oracle

>  <origin>  (58) 
adg

>  <m_score__min__energy>  (58) 
-10.609999999999999

>  <m_primary>  (58) 
energy

$$$$
58:0
     RDKit          3D

 47 49  0  0  0  0  0  0  0  0999 V2000
   55.9570   30.0680   43.4620 C   0  0  0  0  0  0  0  0  0  0  0  0
   57.0690   29.7000   44.3990 C   0  0  0  0  0  0  0  0  0  0  0  0
   58.2190   30.4980   44.4850 C   0  0  0  0  0  0  0  0  0  0  0  0
   59.2300   30.1800   45.3950 C   0  0  0  0  0  0  0  0  0  0  0  0
   59.0940   29.0740   46.2420 C   0  0  0  0  0  0  0  0  0  0  0  0
   60.3900   28.6700   47.4210 S   0  0  0  0  0  0  0  0  0  0  0  0
   59.7900   29.8230   48.6690 C   0  0  0  0  0  0  0  0  0  0  0  0
   58.9380   29.3290   49.6670 C   0  0  0  0  0  0  0  0  0  0  0  0
   58.4360   30.1760   50.6550 C   0  0  0  0  0  0  0  0  0  0  0  0
   58.7880   31.5250   50.6610 C   0  0  0  0  0  0  0  0  0  0  0  0
   58.0670   32.6940   51.9880 Br  0  0  0  0  0  0  0  0  0  0  0  0
   59.6600   32.0240   49.6910 C   0  0  0  0  0  0  0  0  0  0  0  0
   60.1860   31.1800   48.6920 C   0  0  0  0  0  0  0  0  0  0  0  0
   61.0580   31.7070   47.6710 N   0  0  0  0  0  0  0  0  0  0  0  0
   62.3600   32.2540   47.9230 C   0  0  0  0  0  0  0  0  0  0  0  0
   63.0260   31.8900   48.9300 O   0  0  0  0  0  0  0  0  0  0  0  0
   62.9520   33.2530   46.9750 C   0  0  0  0  0  0  0  0  0  0  0  0
   61.9840   33.6510   46.0200 O   0  0  0  0  0  0  0  0  0  0  0  0
   61.0430   34.5570   46.5670 C   0  0  0  0  0  0  0  0  0  0  0  0
   59.6340   34.1680   46.2010 C   0  0  0  0  0  0  0  0  0  0  0  0
   58.7260   33.7870   47.2020 C   0  0  0  0  0  0  0  0  0  0  0  0
   57.4170   33.4290   46.8680 C   0  0  0  0  0  0  0  0  0  0  0  0
   57.0060   33.4440   45.5330 C   0  0  0  0  0  0  0  0  0  0  0  0
   57.9040   33.8200   44.5290 C   0  0  0  0  0  0  0  0  0  0  0  0
   59.2130   34.1860   44.8610 C   0  0  0  0  0  0  0  0  0  0  0  0
   57.9520   28.2680   46.1500 C   0  0  0  0  0  0  0  0  0  0  0  0
   56.9380   28.5850   45.2420 C   0  0  0  0  0  0  0  0  0  0  0  0
   55.0701   30.3615   44.0428 H   0  0  0  0  0  0  0  0  0  0  0  0
   56.2749   30.9089   42.8280 H   0  0  0  0  0  0  0  0  0  0  0  0
   55.7105   29.2035   42.8280 H   0  0  0  0  0  0  0  0  0  0  0  0
   58.3253   31.3778   43.8333 H   0  0  0  0  0  0  0  0  0  0  0  0
   60.1364   30.8011   45.4461 H   0  0  0  0  0  0  0  0  0  0  0  0
   58.6630   28.2639   49.6708 H   0  0  0  0  0  0  0  0  0  0  0  0
   57.7626   29.7797   51.4292 H   0  0  0  0  0  0  0  0  0  0  0  0
   59.9396   33.0878   49.7067 H   0  0  0  0  0  0  0  0  0  0  0  0
   60.7230   31.7230   46.6850 H   0  0  0  0  0  0  0  0  0  0  0  0
   63.2899   34.1345   47.5396 H   0  0  0  0  0  0  0  0  0  0  0  0
   63.8044   32.7932   46.4535 H   0  0  0  0  0  0  0  0  0  0  0  0
   61.1415   34.5584   47.6626 H   0  0  0  0  0  0  0  0  0  0  0  0
   61.2451   35.5578   46.1576 H   0  0  0  0  0  0  0  0  0  0  0  0
   59.0465   33.7702   48.2541 H   0  0  0  0  0  0  0  0  0  0  0  0
   56.7095   33.1351   47.6573 H   0  0  0  0  0  0  0  0  0  0  0  0
   55.9760   33.1600   45.2714 H   0  0  0  0  0  0  0  0  0  0  0  0
   57.5810   33.8280   43.4775 H   0  0  0  0  0  0  0  0  0  0  0  0
   59.9148   34.4889   44.0700 H   0  0  0  0  0  0  0  0  0  0  0  0
   57.8530   27.3823   46.7948 H   0  0  0  0  0  0  0  0  0  0  0  0
   56.0349   27.9593   45.1877 H   0  0  0  0  0  0  0  0  0  0  0  0
  1  2  1  0
  2  3  2  0
  3  4  1  0
  4  5  2  0
  5  6  1  0
  6  7  1  0
  7  8  2  0
  8  9  1  0
  9 10  2  0
 10 11  1  0
 10 12  1  0
 12 13  2  0
 13 14  1  0
 14 15  1  0
 15 16  2  0
 15 17  1  0
 17 18  1  0
 18 19  1  0
 19 20  1  0
 20 21  2  0
 21 22  1  0
 22 23  2  0
 23 24  1  0
 24 25  2  0
  5 26  1  0
 26 27  2  0
 27  2  1  0
 13  7  1  0
 25 20  1  0
  1 28  1  0
  1 29  1  0
  1 30  1  0
  3 31  1  0
  4 32  1  0
  8 33  1  0
  9 34  1  0
 12 35  1  0
 14 36  1  0
 17 37  1  0
 17 38  1  0
 19 39  1  0
 19 40  1  0
 21 41  1  0
 22 42  1  0
 23 43  1  0
 24 44  1  0
 25 45  1  0
 26 46  1  0
 27 47  1  0
M  END
>  <UniqueID>  (59) 
56

>  <SMILES>  (59) 
Cc1ccc(Sc2ccc(Br)cc2NC(=O)COCc2ccccc2)cc1

>  <Energy>  (59) 
44.61987739204377

>  <Genealogy>  (59) 
Cc1ccc(Sc2ccc(Br)cc2NC(=O)COCc2ccccc2)cc1 (3D coordinates assigned)
Cc1ccc(Sc2ccc(Br)cc2NC(=O)COCc2ccccc2)cc1 (optimized conformer: 44.61987739204377 kcal/mol)

>  <smiles>  (59) 
Cc1ccc(Sc2ccc(Br)cc2NC(=O)COCc2ccccc2)cc1

>  <score_type>  (59) 
oracle

>  <origin>  (59) 
adg

>  <m_score__min__energy>  (59) 
-8.8599999999999994

>  <m_primary>  (59) 
energy

$$$$
59:0
     RDKit          3D

 44 45  0  0  0  0  0  0  0  0999 V2000
   56.6110   24.6170   44.5860 C   0  0  0  0  0  0  0  0  0  0  0  0
   55.9400   25.7450   45.7910 S   0  0  0  0  0  0  0  0  0  0  0  0
   54.4460   25.7910   45.6320 O   0  0  0  0  0  0  0  0  0  0  0  0
   56.2710   25.2560   47.1730 O   0  0  0  0  0  0  0  0  0  0  0  0
   56.5800   27.3440   45.5620 N   0  0  0  0  0  0  0  0  0  0  0  0
   57.9540   27.2730   45.0560 C   0  0  0  0  0  0  0  0  0  0  0  0
   58.0960   28.1170   43.7850 C   0  0  0  0  0  0  0  0  0  0  0  0
   58.1560   29.5850   44.1170 C   0  0  0  0  0  0  0  0  0  0  0  0
   57.3990   30.5090   43.3790 C   0  0  0  0  0  0  0  0  0  0  0  0
   57.3770   31.8560   43.7480 C   0  0  0  0  0  0  0  0  0  0  0  0
   58.1070   32.2950   44.8600 C   0  0  0  0  0  0  0  0  0  0  0  0
   57.9680   33.9720   45.3780 S   0  0  0  0  0  0  0  0  0  0  0  0
   56.6460   34.5190   44.9210 O   0  0  0  0  0  0  0  0  0  0  0  0
   59.0730   34.8080   44.7940 O   0  0  0  0  0  0  0  0  0  0  0  0
   58.0550   34.0360   47.1060 N   0  0  0  0  0  0  0  0  0  0  0  0
   59.2150   33.6170   47.8280 C   0  0  0  0  0  0  0  0  0  0  0  0
   59.0940   33.1020   48.9720 O   0  0  0  0  0  0  0  0  0  0  0  0
   60.5070   33.7560   47.2250 N   0  0  0  0  0  0  0  0  0  0  0  0
   61.7460   33.6450   47.9450 C   0  0  0  0  0  0  0  0  0  0  0  0
   62.8830   33.1450   47.2890 C   0  0  0  0  0  0  0  0  0  0  0  0
   64.1030   33.0450   47.9630 C   0  0  0  0  0  0  0  0  0  0  0  0
   64.2050   33.4570   49.2940 C   0  0  0  0  0  0  0  0  0  0  0  0
   63.0880   33.9790   49.9500 C   0  0  0  0  0  0  0  0  0  0  0  0
   61.8640   34.0800   49.2810 C   0  0  0  0  0  0  0  0  0  0  0  0
   58.8730   31.3780   45.5920 C   0  0  0  0  0  0  0  0  0  0  0  0
   58.8950   30.0290   45.2250 C   0  0  0  0  0  0  0  0  0  0  0  0
   57.1077   23.7821   45.1020 H   0  0  0  0  0  0  0  0  0  0  0  0
   55.7979   24.2271   43.9560 H   0  0  0  0  0  0  0  0  0  0  0  0
   57.3417   25.1454   43.9560 H   0  0  0  0  0  0  0  0  0  0  0  0
   55.9880   27.8120   44.8380 H   0  0  0  0  0  0  0  0  0  0  0  0
   58.6437   27.6539   45.8236 H   0  0  0  0  0  0  0  0  0  0  0  0
   58.1950   26.2261   44.8195 H   0  0  0  0  0  0  0  0  0  0  0  0
   59.0199   27.8281   43.2625 H   0  0  0  0  0  0  0  0  0  0  0  0
   57.2196   27.9375   43.1449 H   0  0  0  0  0  0  0  0  0  0  0  0
   56.8208   30.1707   42.5065 H   0  0  0  0  0  0  0  0  0  0  0  0
   56.7842   32.5747   43.1632 H   0  0  0  0  0  0  0  0  0  0  0  0
   60.5450   33.8850   46.1890 H   0  0  0  0  0  0  0  0  0  0  0  0
   62.8125   32.8300   46.2374 H   0  0  0  0  0  0  0  0  0  0  0  0
   64.9850   32.6410   47.4444 H   0  0  0  0  0  0  0  0  0  0  0  0
   65.1645   33.3703   49.8250 H   0  0  0  0  0  0  0  0  0  0  0  0
   63.1711   34.3115   50.9953 H   0  0  0  0  0  0  0  0  0  0  0  0
   60.9896   34.5006   49.7993 H   0  0  0  0  0  0  0  0  0  0  0  0
   59.4587   31.7204   46.4579 H   0  0  0  0  0  0  0  0  0  0  0  0
   59.4937   29.3127   45.8068 H   0  0  0  0  0  0  0  0  0  0  0  0
  1  2  1  0
  2  3  2  0
  2  4  2  0
  2  5  1  0
  5  6  1  0
  6  7  1  0
  7  8  1  0
  8  9  2  0
  9 10  1  0
 10 11  2  0
 11 12  1  0
 12 13  2  0
 12 14  2  0
 12 15  1  0
 15 16  1  0
 16 17  2  0
 16 18  1  0
 18 19  1  0
 19 20  2  0
 20 21  1  0
 21 22  2  0
 22 23  1  0
 23 24  2  0
 11 25  1  0
 25 26  2  0
 26  8  1  0
 24 19  1  0
  1 27  1  0
  1 28  1  0
  1 29  1  0
  5 30  1  0
  6 31  1  0
  6 32  1  0
  7 33  1  0
  7 34  1  0
  9 35  1  0
 10 36  1  0
 18 37  1  0
 20 38  1  0
 21 39  1  0
 22 40  1  0
 23 41  1  0
 24 42  1  0
 25 43  1  0
 26 44  1  0
M  CHG  1  15  -1
M  END
>  <UniqueID>  (60) 
57

>  <SMILES>  (60) 
CS(=O)(=O)NCCc1ccc(S(=O)(=O)[N-]C(=O)Nc2ccccc2)cc1

>  <Energy>  (60) 
38.02483140762905

>  <Genealogy>  (60) 
CS(=O)(=O)NCCc1ccc(S(=O)(=O)[N-]C(=O)Nc2ccccc2)cc1 (protonated)
CS(=O)(=O)NCCc1ccc(S(=O)(=O)[N-]C(=O)Nc2ccccc2)cc1 (3D coordinates assigned)
CS(=O)(=O)NCCc1ccc(S(=O)(=O)[N-]C(=O)Nc2ccccc2)cc1 (optimized conformer: 38.02483140762905 kcal/mol)

>  <smiles>  (60) 
CS(=O)(=O)NCCc1ccc(S(=O)(=O)NC(=O)Nc2ccccc2)cc1

>  <score_type>  (60) 
oracle

>  <origin>  (60) 
adg

>  <m_score__min__energy>  (60) 
-10.42

>  <m_primary>  (60) 
energy

$$$$
60:0
     RDKit          3D

 39 41  0  0  0  0  0  0  0  0999 V2000
   55.1450   27.4790   45.3790 H   0  0  0  0  0  0  0  0  0  0  0  0
   55.0870   26.6850   46.0070 O   0  0  0  0  0  0  0  0  0  0  0  0
   55.9700   25.6110   45.9090 C   0  0  0  0  0  0  0  0  0  0  0  0
   55.4950   24.2940   45.9520 C   0  0  0  0  0  0  0  0  0  0  0  0
   54.4179   24.1009   46.0637 H   0  0  0  0  0  0  0  0  0  0  0  0
   56.3890   23.2270   45.8530 C   0  0  0  0  0  0  0  0  0  0  0  0
   56.0233   22.1901   45.8858 H   0  0  0  0  0  0  0  0  0  0  0  0
   57.7510   23.4900   45.7120 C   0  0  0  0  0  0  0  0  0  0  0  0
   58.4657   22.6577   45.6322 H   0  0  0  0  0  0  0  0  0  0  0  0
   58.1970   24.7740   45.6730 N   0  0  0  0  0  0  0  0  0  0  0  0
   57.3480   25.8380   45.7670 C   0  0  0  0  0  0  0  0  0  0  0  0
   57.7940   27.0620   45.7270 N   0  0  0  0  0  0  0  0  0  0  0  0
   57.7940   27.9520   44.5960 C   0  0  0  0  0  0  0  0  0  0  0  0
   57.6670   27.5000   43.4240 O   0  0  0  0  0  0  0  0  0  0  0  0
   57.9440   29.4110   44.8070 C   0  0  0  0  0  0  0  0  0  0  0  0
   58.7010   29.9050   45.8870 C   0  0  0  0  0  0  0  0  0  0  0  0
   59.1878   29.2024   46.5794 H   0  0  0  0  0  0  0  0  0  0  0  0
   58.8380   31.2810   46.0850 C   0  0  0  0  0  0  0  0  0  0  0  0
   59.4329   31.6555   46.9311 H   0  0  0  0  0  0  0  0  0  0  0  0
   58.2220   32.1860   45.2120 C   0  0  0  0  0  0  0  0  0  0  0  0
   58.3910   33.9190   45.4760 S   0  0  0  0  0  0  0  0  0  0  0  0
   57.0520   34.5980   45.4070 O   0  0  0  0  0  0  0  0  0  0  0  0
   59.2850   34.4870   44.4100 O   0  0  0  0  0  0  0  0  0  0  0  0
   59.0990   34.2190   47.0300 N   0  0  0  0  0  0  0  0  0  0  0  0
   60.4780   34.0160   47.3630 C   0  0  0  0  0  0  0  0  0  0  0  0
   61.4640   33.8040   46.3800 C   0  0  0  0  0  0  0  0  0  0  0  0
   61.1832   33.7855   45.3166 H   0  0  0  0  0  0  0  0  0  0  0  0
   62.7990   33.6170   46.7520 C   0  0  0  0  0  0  0  0  0  0  0  0
   63.5656   33.4537   45.9802 H   0  0  0  0  0  0  0  0  0  0  0  0
   63.1620   33.6370   48.1010 C   0  0  0  0  0  0  0  0  0  0  0  0
   64.4570   33.4560   48.4580 F   0  0  0  0  0  0  0  0  0  0  0  0
   62.1880   33.8450   49.0820 C   0  0  0  0  0  0  0  0  0  0  0  0
   62.4725   33.8616   50.1445 H   0  0  0  0  0  0  0  0  0  0  0  0
   60.8520   34.0320   48.7130 C   0  0  0  0  0  0  0  0  0  0  0  0
   60.0890   34.1929   49.4888 H   0  0  0  0  0  0  0  0  0  0  0  0
   57.4730   31.7040   44.1330 C   0  0  0  0  0  0  0  0  0  0  0  0
   56.9932   32.4108   43.4401 H   0  0  0  0  0  0  0  0  0  0  0  0
   57.3320   30.3280   43.9320 C   0  0  0  0  0  0  0  0  0  0  0  0
   56.7379   29.9588   43.0831 H   0  0  0  0  0  0  0  0  0  0  0  0
  1  2  1  0
  2  3  1  0
  3  4  2  0
  4  5  1  0
  4  6  1  0
  6  7  1  0
  6  8  2  0
  8  9  1  0
  8 10  1  0
 10 11  1  0
 11 12  2  0
 12 13  1  0
 13 14  2  0
 13 15  1  0
 15 16  2  0
 16 17  1  0
 16 18  1  0
 18 19  1  0
 18 20  2  0
 20 21  1  0
 21 22  2  0
 21 23  2  0
 21 24  1  0
 24 25  1  0
 25 26  2  0
 26 27  1  0
 26 28  1  0
 28 29  1  0
 28 30  2  0
 30 31  1  0
 30 32  1  0
 32 33  1  0
 32 34  2  0
 34 35  1  0
 20 36  1  0
 36 37  1  0
 36 38  2  0
 38 39  1  0
 11  3  1  0
 38 15  1  0
 34 25  1  0
M  CHG  2  10  -1  24  -1
M  END
>  <UniqueID>  (61) 
58

>  <SMILES>  (61) 
O=C(/N=c1\[n-]cccc1O)c1ccc(S(=O)(=O)[N-]c2ccc(F)cc2)cc1

>  <Energy>  (61) 
49.237823789760306

>  <Genealogy>  (61) 
O=C(N=c1[n-]cccc1O)c1ccc(S(=O)(=O)[N-]c2ccc(F)cc2)cc1 (protonated)
O=C(/N=c1\[n-]cccc1O)c1ccc(S(=O)(=O)[N-]c2ccc(F)cc2)cc1 (cis-trans isomerization)
O=C(/N=c1\[n-]cccc1O)c1ccc(S(=O)(=O)[N-]c2ccc(F)cc2)cc1 (3D coordinates assigned)
O=C(/N=c1\[n-]cccc1O)c1ccc(S(=O)(=O)[N-]c2ccc(F)cc2)cc1 (optimized conformer: 49.237823789760306 kcal/mol)

>  <smiles>  (61) 
O=C(N=c1[nH]cccc1O)c1ccc(S(=O)(=O)Nc2ccc(F)cc2)cc1

>  <score_type>  (61) 
oracle

>  <origin>  (61) 
adg

>  <m_score__min__energy>  (61) 
-12.1

>  <m_primary>  (61) 
energy

$$$$
61:0
     RDKit          3D

 31 32  0  0  0  0  0  0  0  0999 V2000
   59.6946   35.7653   46.8879 H   0  0  0  0  0  0  0  0  0  0  0  0
   59.2990   34.8230   46.4810 C   0  0  0  0  0  0  0  0  0  0  0  0
   58.8630   34.5410   44.8800 S   0  0  0  0  0  0  0  0  0  0  0  0
   58.4140   32.9390   45.1650 C   0  0  0  0  0  0  0  0  0  0  0  0
   57.9570   32.0880   44.2910 N   0  0  0  0  0  0  0  0  0  0  0  0
   57.1340   30.9330   44.5330 C   0  0  0  0  0  0  0  0  0  0  0  0
   55.8770   31.0170   44.4820 O   0  0  0  0  0  0  0  0  0  0  0  0
   57.7710   29.6310   44.8420 C   0  0  0  0  0  0  0  0  0  0  0  0
   59.1690   29.4860   44.7950 C   0  0  0  0  0  0  0  0  0  0  0  0
   59.7981   30.3457   44.5208 H   0  0  0  0  0  0  0  0  0  0  0  0
   59.7650   28.2580   45.0940 C   0  0  0  0  0  0  0  0  0  0  0  0
   60.8597   28.1564   45.0566 H   0  0  0  0  0  0  0  0  0  0  0  0
   58.9760   27.1600   45.4400 C   0  0  0  0  0  0  0  0  0  0  0  0
   59.4501   26.1965   45.6785 H   0  0  0  0  0  0  0  0  0  0  0  0
   57.5820   27.2830   45.4840 C   0  0  0  0  0  0  0  0  0  0  0  0
   56.5870   25.9030   45.9380 S   0  0  0  0  0  0  0  0  0  0  0  0
   57.0100   25.3930   47.2880 O   0  0  0  0  0  0  0  0  0  0  0  0
   55.1420   26.3160   46.0110 O   0  0  0  0  0  0  0  0  0  0  0  0
   56.7770   24.6140   44.7290 C   0  0  0  0  0  0  0  0  0  0  0  0
   56.9191   23.6502   45.2398 H   0  0  0  0  0  0  0  0  0  0  0  0
   55.8762   24.5661   44.0995 H   0  0  0  0  0  0  0  0  0  0  0  0
   57.6533   24.8280   44.0995 H   0  0  0  0  0  0  0  0  0  0  0  0
   56.9830   28.5160   45.1920 C   0  0  0  0  0  0  0  0  0  0  0  0
   55.8883   28.6144   45.2364 H   0  0  0  0  0  0  0  0  0  0  0  0
   58.5910   32.6120   46.4620 N   0  0  0  0  0  0  0  0  0  0  0  0
   58.3870   31.6650   46.8550 H   0  0  0  0  0  0  0  0  0  0  0  0
   59.0700   33.6510   47.2000 C   0  0  0  0  0  0  0  0  0  0  0  0
   59.3960   33.5150   48.6530 C   0  0  0  0  0  0  0  0  0  0  0  0
   58.5459   33.8697   49.2543 H   0  0  0  0  0  0  0  0  0  0  0  0
   59.5952   32.4587   48.8868 H   0  0  0  0  0  0  0  0  0  0  0  0
   60.2868   34.1166   48.8868 H   0  0  0  0  0  0  0  0  0  0  0  0
  1  2  1  0
  2  3  1  0
  3  4  1  0
  4  5  2  0
  5  6  1  0
  6  7  2  0
  6  8  1  0
  8  9  2  0
  9 10  1  0
  9 11  1  0
 11 12  1  0
 11 13  2  0
 13 14  1  0
 13 15  1  0
 15 16  1  0
 16 17  2  0
 16 18  2  0
 16 19  1  0
 19 20  1  0
 19 21  1  0
 19 22  1  0
 15 23  2  0
 23 24  1  0
  4 25  1  0
 25 26  1  0
 25 27  1  0
 27 28  1  0
 28 29  1  0
 28 30  1  0
 28 31  1  0
 27  2  2  0
 23  8  1  0
M  END
>  <UniqueID>  (62) 
59

>  <SMILES>  (62) 
Cc1cs/c(=N\C(=O)c2cccc(S(C)(=O)=O)c2)[nH]1

>  <Energy>  (62) 
61.20993885229434

>  <Genealogy>  (62) 
Cc1cs/c(=N\C(=O)c2cccc(S(C)(=O)=O)c2)[nH]1 (cis-trans isomerization)
Cc1cs/c(=N\C(=O)c2cccc(S(C)(=O)=O)c2)[nH]1 (3D coordinates assigned)
Cc1cs/c(=N\C(=O)c2cccc(S(C)(=O)=O)c2)[nH]1 (optimized conformer: 61.20993885229434 kcal/mol)

>  <smiles>  (62) 
Cc1csc(=NC(=O)c2cccc(S(C)(=O)=O)c2)[nH]1

>  <score_type>  (62) 
oracle

>  <origin>  (62) 
adg

>  <m_score__min__energy>  (62) 
-7.7400000000000002

>  <m_primary>  (62) 
energy

$$$$
62:0
     RDKit          3D

 57 59  0  0  0  0  0  0  0  0999 V2000
   60.4117   30.3600   48.7683 H   0  0  0  0  0  0  0  0  0  0  0  0
   59.9720   31.3650   48.6870 C   0  0  0  0  0  0  0  0  0  0  0  0
   58.9510   31.7670   49.6740 C   0  0  0  0  0  0  0  0  0  0  0  0
   57.9050   32.3320   49.2560 O   0  0  0  0  0  0  0  0  0  0  0  0
   59.1540   31.6320   51.1610 C   0  0  0  0  0  0  0  0  0  0  0  0
   59.5893   30.6463   51.3824 H   0  0  0  0  0  0  0  0  0  0  0  0
   59.8343   32.4235   51.5086 H   0  0  0  0  0  0  0  0  0  0  0  0
   57.8360   31.7650   51.8670 C   0  0  0  0  0  0  0  0  0  0  0  0
   57.5940   32.8080   52.5330 O   0  0  0  0  0  0  0  0  0  0  0  0
   56.8460   30.6690   51.8330 C   0  0  0  0  0  0  0  0  0  0  0  0
   57.2290   29.4760   51.9790 O   0  0  0  0  0  0  0  0  0  0  0  0
   55.4500   30.9560   51.6690 N   0  0  0  0  0  0  0  0  0  0  0  0
   55.1490   31.9270   51.4170 H   0  0  0  0  0  0  0  0  0  0  0  0
   54.4160   29.9720   51.9770 C   0  0  0  0  0  0  0  0  0  0  0  0
   54.3111   29.2769   51.1309 H   0  0  0  0  0  0  0  0  0  0  0  0
   54.7039   29.4174   52.8823 H   0  0  0  0  0  0  0  0  0  0  0  0
   53.1020   30.6640   52.2190 C   0  0  0  0  0  0  0  0  0  0  0  0
   52.5840   31.5450   51.2530 C   0  0  0  0  0  0  0  0  0  0  0  0
   53.1292   31.7087   50.3118 H   0  0  0  0  0  0  0  0  0  0  0  0
   51.3790   32.2130   51.4850 C   0  0  0  0  0  0  0  0  0  0  0  0
   50.9760   32.8988   50.7252 H   0  0  0  0  0  0  0  0  0  0  0  0
   50.6850   32.0110   52.6810 C   0  0  0  0  0  0  0  0  0  0  0  0
   49.7350   32.5358   52.8602 H   0  0  0  0  0  0  0  0  0  0  0  0
   51.1970   31.1420   53.6510 C   0  0  0  0  0  0  0  0  0  0  0  0
   50.6512   30.9874   54.5935 H   0  0  0  0  0  0  0  0  0  0  0  0
   52.4020   30.4700   53.4230 C   0  0  0  0  0  0  0  0  0  0  0  0
   52.8032   29.7881   54.1872 H   0  0  0  0  0  0  0  0  0  0  0  0
   60.3890   32.1650   47.6970 C   0  0  0  0  0  0  0  0  0  0  0  0
   61.4404   32.4882   47.6891 H   0  0  0  0  0  0  0  0  0  0  0  0
   59.4960   32.6330   46.6130 C   0  0  0  0  0  0  0  0  0  0  0  0
   59.7710   33.8540   45.9830 C   0  0  0  0  0  0  0  0  0  0  0  0
   60.6419   34.4472   46.2986 H   0  0  0  0  0  0  0  0  0  0  0  0
   58.9480   34.3230   44.9580 C   0  0  0  0  0  0  0  0  0  0  0  0
   59.1821   35.2750   44.4591 H   0  0  0  0  0  0  0  0  0  0  0  0
   57.8290   33.5880   44.5640 C   0  0  0  0  0  0  0  0  0  0  0  0
   57.1887   33.9587   43.7500 H   0  0  0  0  0  0  0  0  0  0  0  0
   57.5170   32.3750   45.2040 C   0  0  0  0  0  0  0  0  0  0  0  0
   56.3660   31.5970   44.8490 N   0  0  0  0  0  0  0  0  0  0  0  0
   56.4110   30.0010   44.1630 S   0  0  0  0  0  0  0  0  0  0  0  0
   56.6920   30.1100   42.6920 O   0  0  0  0  0  0  0  0  0  0  0  0
   55.0730   29.3440   44.3640 O   0  0  0  0  0  0  0  0  0  0  0  0
   57.6880   29.0550   44.9200 C   0  0  0  0  0  0  0  0  0  0  0  0
   59.0150   29.2020   44.4930 C   0  0  0  0  0  0  0  0  0  0  0  0
   59.2548   29.9066   43.6831 H   0  0  0  0  0  0  0  0  0  0  0  0
   60.0350   28.4570   45.0920 C   0  0  0  0  0  0  0  0  0  0  0  0
   61.0757   28.5855   44.7595 H   0  0  0  0  0  0  0  0  0  0  0  0
   59.7350   27.5450   46.1170 C   0  0  0  0  0  0  0  0  0  0  0  0
   60.8270   26.7600   46.7840 C   0  0  0  0  0  0  0  0  0  0  0  0
   60.7196   26.8372   47.8760 H   0  0  0  0  0  0  0  0  0  0  0  0
   60.7566   25.7045   46.4824 H   0  0  0  0  0  0  0  0  0  0  0  0
   61.8050   27.1630   46.4824 H   0  0  0  0  0  0  0  0  0  0  0  0
   58.4060   27.4090   46.5520 C   0  0  0  0  0  0  0  0  0  0  0  0
   58.1659   26.7123   47.3686 H   0  0  0  0  0  0  0  0  0  0  0  0
   57.3860   28.1560   45.9510 C   0  0  0  0  0  0  0  0  0  0  0  0
   56.3459   28.0369   46.2888 H   0  0  0  0  0  0  0  0  0  0  0  0
   58.3540   31.9050   46.2250 C   0  0  0  0  0  0  0  0  0  0  0  0
   58.1166   30.9567   46.7293 H   0  0  0  0  0  0  0  0  0  0  0  0
  1  2  1  0
  2  3  1  0
  3  4  2  0
  3  5  1  0
  5  6  1  0
  5  7  1  0
  5  8  1  0
  8  9  2  0
  8 10  1  0
 10 11  2  0
 10 12  1  0
 12 13  1  0
 12 14  1  0
 14 15  1  0
 14 16  1  0
 14 17  1  0
 17 18  2  0
 18 19  1  0
 18 20  1  0
 20 21  1  0
 20 22  2  0
 22 23  1  0
 22 24  1  0
 24 25  1  0
 24 26  2  0
 26 27  1  0
  2 28  2  0
 28 29  1  0
 28 30  1  0
 30 31  2  0
 31 32  1  0
 31 33  1  0
 33 34  1  0
 33 35  2  0
 35 36  1  0
 35 37  1  0
 37 38  1  0
 38 39  1  0
 39 40  2  0
 39 41  2  0
 39 42  1  0
 42 43  2  0
 43 44  1  0
 43 45  1  0
 45 46  1  0
 45 47  2  0
 47 48  1  0
 48 49  1  0
 48 50  1  0
 48 51  1  0
 47 52  1  0
 52 53  1  0
 52 54  2  0
 54 55  1  0
 37 56  2  0
 56 57  1  0
 26 17  1  0
 56 30  1  0
 54 42  1  0
M  CHG  1  38  -1
M  END
>  <UniqueID>  (63) 
60

>  <SMILES>  (63) 
Cc1ccc(S(=O)(=O)[N-]c2cccc(/C=C/C(=O)CC(=O)C(=O)NCc3ccccc3)c2)cc1

>  <Energy>  (63) 
60.38108359950156

>  <Genealogy>  (63) 
Cc1ccc(S(=O)(=O)[N-]c2cccc(C=CC(=O)CC(=O)C(=O)NCc3ccccc3)c2)cc1 (protonated)
Cc1ccc(S(=O)(=O)[N-]c2cccc(/C=C/C(=O)CC(=O)C(=O)NCc3ccccc3)c2)cc1 (cis-trans isomerization)
Cc1ccc(S(=O)(=O)[N-]c2cccc(/C=C/C(=O)CC(=O)C(=O)NCc3ccccc3)c2)cc1 (3D coordinates assigned)
Cc1ccc(S(=O)(=O)[N-]c2cccc(/C=C/C(=O)CC(=O)C(=O)NCc3ccccc3)c2)cc1 (optimized conformer: 60.38108359950156 kcal/mol)

>  <smiles>  (63) 
Cc1ccc(S(=O)(=O)Nc2cccc(C=CC(=O)CC(=O)C(=O)NCc3ccccc3)c2)cc1

>  <score_type>  (63) 
oracle

>  <origin>  (63) 
adg

>  <m_score__min__energy>  (63) 
-11.800000000000001

>  <m_primary>  (63) 
energy

$$$$
63:0
     RDKit          3D

 47 49  0  0  0  0  0  0  0  0999 V2000
   51.0150   32.4110   49.7620 N   0  0  0  0  0  0  0  0  0  0  0  0
   51.5220   31.5730   51.1860 S   0  0  0  0  0  0  0  0  0  0  0  0
   51.3710   30.0910   50.9950 O   0  0  0  0  0  0  0  0  0  0  0  0
   50.6670   32.0080   52.3430 O   0  0  0  0  0  0  0  0  0  0  0  0
   53.1760   31.9540   51.5320 N   0  0  0  0  0  0  0  0  0  0  0  0
   54.1170   31.0650   52.1470 C   0  0  0  0  0  0  0  0  0  0  0  0
   53.6320   30.0240   52.9470 C   0  0  0  0  0  0  0  0  0  0  0  0
   54.5130   29.1350   53.5640 C   0  0  0  0  0  0  0  0  0  0  0  0
   55.8900   29.2750   53.3810 C   0  0  0  0  0  0  0  0  0  0  0  0
   56.3990   30.3020   52.5730 C   0  0  0  0  0  0  0  0  0  0  0  0
   57.8870   30.4480   52.3720 C   0  0  0  0  0  0  0  0  0  0  0  0
   58.2110   31.3120   51.1810 C   0  0  0  0  0  0  0  0  0  0  0  0
   57.5780   32.3890   51.0130 O   0  0  0  0  0  0  0  0  0  0  0  0
   59.3160   31.0280   50.3130 N   0  0  0  0  0  0  0  0  0  0  0  0
   59.3990   29.9750   49.3440 C   0  0  0  0  0  0  0  0  0  0  0  0
   58.7080   30.0510   48.1230 C   0  0  0  0  0  0  0  0  0  0  0  0
   58.8460   29.0370   47.1630 C   0  0  0  0  0  0  0  0  0  0  0  0
   57.9500   29.1420   45.6480 S   0  0  0  0  0  0  0  0  0  0  0  0
   58.8380   28.8440   44.4730 O   0  0  0  0  0  0  0  0  0  0  0  0
   57.4320   30.5450   45.5050 O   0  0  0  0  0  0  0  0  0  0  0  0
   56.6010   28.0500   45.6610 N   0  0  0  0  0  0  0  0  0  0  0  0
   56.6620   26.6150   45.6800 C   0  0  0  0  0  0  0  0  0  0  0  0
   57.9270   26.0100   45.6320 C   0  0  0  0  0  0  0  0  0  0  0  0
   58.0510   24.6180   45.6100 C   0  0  0  0  0  0  0  0  0  0  0  0
   56.9120   23.8150   45.6570 C   0  0  0  0  0  0  0  0  0  0  0  0
   55.6480   24.4020   45.7490 C   0  0  0  0  0  0  0  0  0  0  0  0
   55.5160   25.7960   45.7800 C   0  0  0  0  0  0  0  0  0  0  0  0
   54.2500   26.3380   45.9530 O   0  0  0  0  0  0  0  0  0  0  0  0
   59.7120   27.9640   47.4130 C   0  0  0  0  0  0  0  0  0  0  0  0
   60.4170   27.8950   48.6170 C   0  0  0  0  0  0  0  0  0  0  0  0
   60.2660   28.8990   49.5770 C   0  0  0  0  0  0  0  0  0  0  0  0
   60.9660   28.8270   50.7380 F   0  0  0  0  0  0  0  0  0  0  0  0
   55.5070   31.2070   51.9710 C   0  0  0  0  0  0  0  0  0  0  0  0
   49.9750   32.3210   49.7080 H   0  0  0  0  0  0  0  0  0  0  0  0
   52.5478   29.9057   53.0905 H   0  0  0  0  0  0  0  0  0  0  0  0
   54.1222   28.3232   54.1951 H   0  0  0  0  0  0  0  0  0  0  0  0
   56.5805   28.5749   53.8740 H   0  0  0  0  0  0  0  0  0  0  0  0
   58.3243   30.9047   53.2721 H   0  0  0  0  0  0  0  0  0  0  0  0
   58.3064   29.4473   52.1913 H   0  0  0  0  0  0  0  0  0  0  0  0
   58.0542   30.9116   47.9182 H   0  0  0  0  0  0  0  0  0  0  0  0
   58.8302   26.6375   45.6115 H   0  0  0  0  0  0  0  0  0  0  0  0
   59.0476   24.1557   45.5556 H   0  0  0  0  0  0  0  0  0  0  0  0
   57.0089   22.7198   45.6216 H   0  0  0  0  0  0  0  0  0  0  0  0
   54.7516   23.7663   45.7974 H   0  0  0  0  0  0  0  0  0  0  0  0
   59.8371   27.1733   46.6585 H   0  0  0  0  0  0  0  0  0  0  0  0
   61.0925   27.0485   48.8097 H   0  0  0  0  0  0  0  0  0  0  0  0
   55.8979   32.0323   51.3578 H   0  0  0  0  0  0  0  0  0  0  0  0
  1  2  1  0
  2  3  2  0
  2  4  2  0
  2  5  1  0
  5  6  1  0
  6  7  2  0
  7  8  1  0
  8  9  2  0
  9 10  1  0
 10 11  1  0
 11 12  1  0
 12 13  2  0
 12 14  1  0
 14 15  1  0
 15 16  2  0
 16 17  1  0
 17 18  1  0
 18 19  2  0
 18 20  2  0
 18 21  1  0
 21 22  1  0
 22 23  2  0
 23 24  1  0
 24 25  2  0
 25 26  1  0
 26 27  2  0
 27 28  1  0
 17 29  2  0
 29 30  1  0
 30 31  2  0
 31 32  1  0
 10 33  2  0
 33  6  1  0
 31 15  1  0
 27 22  1  0
  1 34  1  0
  7 35  1  0
  8 36  1  0
  9 37  1  0
 11 38  1  0
 11 39  1  0
 16 40  1  0
 23 41  1  0
 24 42  1  0
 25 43  1  0
 26 44  1  0
 29 45  1  0
 30 46  1  0
 33 47  1  0
M  CHG  5   1  -1   5  -1  14  -1  21  -1  28  -1
M  END
>  <UniqueID>  (64) 
61

>  <SMILES>  (64) 
[NH-]S(=O)(=O)[N-]c1cccc(CC(=O)[N-]c2cc(S(=O)(=O)[N-]c3ccccc3[O-])ccc2F)c1

>  <Energy>  (64) 
60.8382367504255

>  <Genealogy>  (64) 
[NH-]S(=O)(=O)[N-]c1cccc(CC(=O)[N-]c2cc(S(=O)(=O)[N-]c3ccccc3[O-])ccc2F)c1 (protonated)
[NH-]S(=O)(=O)[N-]c1cccc(CC(=O)[N-]c2cc(S(=O)(=O)[N-]c3ccccc3[O-])ccc2F)c1 (3D coordinates assigned)
[NH-]S(=O)(=O)[N-]c1cccc(CC(=O)[N-]c2cc(S(=O)(=O)[N-]c3ccccc3[O-])ccc2F)c1 (optimized conformer: 60.8382367504255 kcal/mol)

>  <smiles>  (64) 
NS(=O)(=O)Nc1cccc(CC(=O)Nc2cc(S(=O)(=O)Nc3ccccc3O)ccc2F)c1

>  <score_type>  (64) 
oracle

>  <origin>  (64) 
adg

>  <m_score__min__energy>  (64) 
-20.949999999999999

>  <m_primary>  (64) 
energy

$$$$
64:0
     RDKit          3D

 41 43  0  0  0  0  0  0  0  0999 V2000
   59.0407   34.0803   47.4288 H   0  0  0  0  0  0  0  0  0  0  0  0
   59.4910   33.1650   47.0170 C   0  0  0  0  0  0  0  0  0  0  0  0
   58.6960   32.2540   46.4490 C   0  0  0  0  0  0  0  0  0  0  0  0
   58.6768   31.2322   46.8560 H   0  0  0  0  0  0  0  0  0  0  0  0
   57.6800   32.6440   45.0690 S   0  0  0  0  0  0  0  0  0  0  0  0
   58.4840   33.2480   43.9510 O   0  0  0  0  0  0  0  0  0  0  0  0
   56.6520   33.6490   45.5040 O   0  0  0  0  0  0  0  0  0  0  0  0
   56.8670   31.2160   44.5140 N   0  0  0  0  0  0  0  0  0  0  0  0
   57.2420   29.8640   44.8120 C   0  0  0  0  0  0  0  0  0  0  0  0
   58.5650   29.4050   44.6850 C   0  0  0  0  0  0  0  0  0  0  0  0
   59.3539   30.0948   44.3506 H   0  0  0  0  0  0  0  0  0  0  0  0
   58.8820   28.0790   44.9810 C   0  0  0  0  0  0  0  0  0  0  0  0
   59.9203   27.7284   44.8866 H   0  0  0  0  0  0  0  0  0  0  0  0
   57.8830   27.1960   45.3970 C   0  0  0  0  0  0  0  0  0  0  0  0
   58.1399   26.1536   45.6364 H   0  0  0  0  0  0  0  0  0  0  0  0
   56.5580   27.6290   45.5110 C   0  0  0  0  0  0  0  0  0  0  0  0
   55.5620   26.7000   45.9620 N   0  0  0  0  0  0  0  0  0  0  0  0
   55.7020   25.2760   46.0510 C   0  0  0  0  0  0  0  0  0  0  0  0
   55.7070   24.7400   47.1900 O   0  0  0  0  0  0  0  0  0  0  0  0
   55.8990   24.4320   44.8570 C   0  0  0  0  0  0  0  0  0  0  0  0
   57.1140   24.2040   44.2350 C   0  0  0  0  0  0  0  0  0  0  0  0
   58.0947   24.6006   44.5366 H   0  0  0  0  0  0  0  0  0  0  0  0
   56.8490   23.3790   43.1600 C   0  0  0  0  0  0  0  0  0  0  0  0
   57.5803   22.9809   42.4412 H   0  0  0  0  0  0  0  0  0  0  0  0
   55.4870   23.1510   43.1630 C   0  0  0  0  0  0  0  0  0  0  0  0
   54.9502   22.5327   42.4284 H   0  0  0  0  0  0  0  0  0  0  0  0
   54.9120   23.7950   44.1950 N   0  0  0  0  0  0  0  0  0  0  0  0
   53.8910   23.8060   44.4130 H   0  0  0  0  0  0  0  0  0  0  0  0
   56.2460   28.9740   45.2390 C   0  0  0  0  0  0  0  0  0  0  0  0
   55.2125   29.3301   45.3623 H   0  0  0  0  0  0  0  0  0  0  0  0
   60.9550   32.9850   47.1110 C   0  0  0  0  0  0  0  0  0  0  0  0
   61.7810   33.9130   46.4530 C   0  0  0  0  0  0  0  0  0  0  0  0
   61.3288   34.7387   45.8840 H   0  0  0  0  0  0  0  0  0  0  0  0
   63.1700   33.7950   46.5160 C   0  0  0  0  0  0  0  0  0  0  0  0
   63.8069   34.5354   46.0098 H   0  0  0  0  0  0  0  0  0  0  0  0
   63.7530   32.7410   47.2190 C   0  0  0  0  0  0  0  0  0  0  0  0
   64.8483   32.6591   47.2794 H   0  0  0  0  0  0  0  0  0  0  0  0
   62.9460   31.7900   47.8460 C   0  0  0  0  0  0  0  0  0  0  0  0
   63.4092   30.9501   48.3846 H   0  0  0  0  0  0  0  0  0  0  0  0
   61.5500   31.8980   47.7940 C   0  0  0  0  0  0  0  0  0  0  0  0
   60.5970   30.6010   48.5100 Cl  0  0  0  0  0  0  0  0  0  0  0  0
  1  2  1  0
  2  3  2  0
  3  4  1  0
  3  5  1  0
  5  6  2  0
  5  7  2  0
  5  8  1  0
  8  9  1  0
  9 10  2  0
 10 11  1  0
 10 12  1  0
 12 13  1  0
 12 14  2  0
 14 15  1  0
 14 16  1  0
 16 17  1  0
 17 18  1  0
 18 19  2  0
 18 20  1  0
 20 21  2  0
 21 22  1  0
 21 23  1  0
 23 24  1  0
 23 25  2  0
 25 26  1  0
 25 27  1  0
 27 28  1  0
 16 29  2  0
 29 30  1  0
  2 31  1  0
 31 32  2  0
 32 33  1  0
 32 34  1  0
 34 35  1  0
 34 36  2  0
 36 37  1  0
 36 38  1  0
 38 39  1  0
 38 40  2  0
 40 41  1  0
 29  9  1  0
 40 31  1  0
 27 20  1  0
M  CHG  2   8  -1  17  -1
M  END
>  <UniqueID>  (65) 
62

>  <SMILES>  (65) 
O=C([N-]c1cccc([N-]S(=O)(=O)/C=C/c2ccccc2Cl)c1)c1ccc[nH]1

>  <Energy>  (65) 
82.69651942645649

>  <Genealogy>  (65) 
O=C([N-]c1cccc([N-]S(=O)(=O)C=Cc2ccccc2Cl)c1)c1ccc[nH]1 (protonated)
O=C([N-]c1cccc([N-]S(=O)(=O)/C=C/c2ccccc2Cl)c1)c1ccc[nH]1 (cis-trans isomerization)
O=C([N-]c1cccc([N-]S(=O)(=O)/C=C/c2ccccc2Cl)c1)c1ccc[nH]1 (3D coordinates assigned)
O=C([N-]c1cccc([N-]S(=O)(=O)/C=C/c2ccccc2Cl)c1)c1ccc[nH]1 (optimized conformer: 82.69651942645649 kcal/mol)

>  <smiles>  (65) 
O=C(Nc1cccc(NS(=O)(=O)C=Cc2ccccc2Cl)c1)c1ccc[nH]1

>  <score_type>  (65) 
oracle

>  <origin>  (65) 
adg

>  <m_score__min__energy>  (65) 
-12.73

>  <m_primary>  (65) 
energy

$$$$
65:0
     RDKit          3D

 41 44  0  0  0  0  0  0  0  0999 V2000
   57.3010   31.7700   42.7560 O   0  0  0  0  0  0  0  0  0  0  0  0
   57.2140   30.9310   43.6890 C   0  0  0  0  0  0  0  0  0  0  0  0
   57.3530   29.4620   43.3640 C   0  0  0  0  0  0  0  0  0  0  0  0
   57.7530   28.6400   44.5670 C   0  0  0  0  0  0  0  0  0  0  0  0
   58.8310   29.0440   45.3720 C   0  0  0  0  0  0  0  0  0  0  0  0
   59.2400   28.2550   46.4480 C   0  0  0  0  0  0  0  0  0  0  0  0
   58.5770   27.0600   46.7350 C   0  0  0  0  0  0  0  0  0  0  0  0
   57.4870   26.6470   45.9510 C   0  0  0  0  0  0  0  0  0  0  0  0
   56.7870   25.3760   46.2450 C   0  0  0  0  0  0  0  0  0  0  0  0
   57.5240   24.2740   46.7390 C   0  0  0  0  0  0  0  0  0  0  0  0
   56.8460   23.0870   47.0050 C   0  0  0  0  0  0  0  0  0  0  0  0
   57.3790   21.9440   47.4710 N   0  0  0  0  0  0  0  0  0  0  0  0
   56.3200   21.1050   47.5560 C   0  0  0  0  0  0  0  0  0  0  0  0
   56.4270   19.7940   48.0000 O   0  0  0  0  0  0  0  0  0  0  0  0
   55.1320   21.6980   47.1540 C   0  0  0  0  0  0  0  0  0  0  0  0
   55.4950   22.9740   46.8030 C   0  0  0  0  0  0  0  0  0  0  0  0
   54.7290   24.0340   46.3270 C   0  0  0  0  0  0  0  0  0  0  0  0
   55.3820   25.2500   46.0520 C   0  0  0  0  0  0  0  0  0  0  0  0
   54.6280   26.3310   45.6080 O   0  0  0  0  0  0  0  0  0  0  0  0
   57.0670   27.4550   44.8800 C   0  0  0  0  0  0  0  0  0  0  0  0
   57.0190   31.4090   45.0290 N   0  0  0  0  0  0  0  0  0  0  0  0
   57.7650   32.4590   45.6530 C   0  0  0  0  0  0  0  0  0  0  0  0
   58.0670   33.6430   44.9620 C   0  0  0  0  0  0  0  0  0  0  0  0
   58.7670   34.6690   45.6020 C   0  0  0  0  0  0  0  0  0  0  0  0
   59.1740   34.5160   46.9310 C   0  0  0  0  0  0  0  0  0  0  0  0
   58.8940   33.3290   47.6170 C   0  0  0  0  0  0  0  0  0  0  0  0
   59.3990   33.1390   49.2850 Cl  0  0  0  0  0  0  0  0  0  0  0  0
   58.2020   32.2980   46.9740 C   0  0  0  0  0  0  0  0  0  0  0  0
   56.3883   29.0908   42.9878 H   0  0  0  0  0  0  0  0  0  0  0  0
   58.1469   29.3596   42.6095 H   0  0  0  0  0  0  0  0  0  0  0  0
   59.3549   29.9862   45.1533 H   0  0  0  0  0  0  0  0  0  0  0  0
   60.0873   28.5754   47.0720 H   0  0  0  0  0  0  0  0  0  0  0  0
   58.9100   26.4388   47.5795 H   0  0  0  0  0  0  0  0  0  0  0  0
   58.6079   24.3530   46.9091 H   0  0  0  0  0  0  0  0  0  0  0  0
   54.1286   21.2483   47.1236 H   0  0  0  0  0  0  0  0  0  0  0  0
   53.6457   23.9247   46.1704 H   0  0  0  0  0  0  0  0  0  0  0  0
   56.1934   27.1566   44.2818 H   0  0  0  0  0  0  0  0  0  0  0  0
   57.7520   33.7633   43.9149 H   0  0  0  0  0  0  0  0  0  0  0  0
   58.9981   35.5978   45.0599 H   0  0  0  0  0  0  0  0  0  0  0  0
   59.7146   35.3292   47.4375 H   0  0  0  0  0  0  0  0  0  0  0  0
   58.0001   31.3574   47.5074 H   0  0  0  0  0  0  0  0  0  0  0  0
  1  2  2  0
  2  3  1  0
  3  4  1  0
  4  5  2  0
  5  6  1  0
  6  7  2  0
  7  8  1  0
  8  9  1  0
  9 10  2  0
 10 11  1  0
 11 12  1  0
 12 13  1  0
 13 14  1  0
 13 15  2  0
 15 16  1  0
 16 17  1  0
 17 18  2  0
 18 19  1  0
  8 20  2  0
  2 21  1  0
 21 22  1  0
 22 23  2  0
 23 24  1  0
 24 25  2  0
 25 26  1  0
 26 27  1  0
 26 28  2  0
 20  4  1  0
 28 22  1  0
 18  9  1  0
 16 11  2  0
  3 29  1  0
  3 30  1  0
  5 31  1  0
  6 32  1  0
  7 33  1  0
 10 34  1  0
 15 35  1  0
 17 36  1  0
 20 37  1  0
 23 38  1  0
 24 39  1  0
 25 40  1  0
 28 41  1  0
M  CHG  4  12  -1  14  -1  19  -1  21  -1
M  END
>  <UniqueID>  (66) 
63

>  <SMILES>  (66) 
O=C(Cc1cccc(-c2cc3[n-]c([O-])cc3cc2[O-])c1)[N-]c1cccc(Cl)c1

>  <Energy>  (66) 
86.90296347319925

>  <Genealogy>  (66) 
O=C(Cc1cccc(-c2cc3[n-]c([O-])cc3cc2[O-])c1)[N-]c1cccc(Cl)c1 (protonated)
O=C(Cc1cccc(-c2cc3[n-]c([O-])cc3cc2[O-])c1)[N-]c1cccc(Cl)c1 (3D coordinates assigned)
O=C(Cc1cccc(-c2cc3[n-]c([O-])cc3cc2[O-])c1)[N-]c1cccc(Cl)c1 (optimized conformer: 86.90296347319925 kcal/mol)

>  <smiles>  (66) 
O=C(Cc1cccc(-c2cc3[nH]c(O)cc3cc2O)c1)Nc1cccc(Cl)c1

>  <score_type>  (66) 
oracle

>  <origin>  (66) 
adg

>  <m_score__min__energy>  (66) 
-16.25

>  <m_primary>  (66) 
energy

$$$$
66:0
     RDKit          3D

 40 41  0  0  0  0  0  0  0  0999 V2000
   57.4100   28.5850   43.3230 C   0  0  0  0  0  0  0  0  0  0  0  0
   57.7380   29.3640   44.5200 N   0  0  0  0  0  0  0  0  0  0  0  0
   58.8990   28.9930   45.3420 C   0  0  0  0  0  0  0  0  0  0  0  0
   58.4410   28.4930   46.6760 C   0  0  0  0  0  0  0  0  0  0  0  0
   59.0550   28.8420   47.7200 O   0  0  0  0  0  0  0  0  0  0  0  0
   57.3170   27.6060   46.7440 N   0  0  0  0  0  0  0  0  0  0  0  0
   57.1700   26.3410   46.0820 C   0  0  0  0  0  0  0  0  0  0  0  0
   58.2710   25.4990   45.8320 C   0  0  0  0  0  0  0  0  0  0  0  0
   58.0880   24.2670   45.1960 C   0  0  0  0  0  0  0  0  0  0  0  0
   56.8030   23.8490   44.8260 C   0  0  0  0  0  0  0  0  0  0  0  0
   56.5730   22.2950   44.0310 S   0  0  0  0  0  0  0  0  0  0  0  0
   55.5900   22.5020   42.6220 N   0  0  0  0  0  0  0  0  0  0  0  0
   57.9060   21.7300   43.6280 O   0  0  0  0  0  0  0  0  0  0  0  0
   55.9050   21.3330   44.9750 O   0  0  0  0  0  0  0  0  0  0  0  0
   55.6990   24.6650   45.1140 C   0  0  0  0  0  0  0  0  0  0  0  0
   55.8820   25.9030   45.7380 C   0  0  0  0  0  0  0  0  0  0  0  0
   54.7790   26.7040   46.0110 O   0  0  0  0  0  0  0  0  0  0  0  0
   57.0080   30.5820   44.7810 C   0  0  0  0  0  0  0  0  0  0  0  0
   55.7490   30.5860   44.6920 O   0  0  0  0  0  0  0  0  0  0  0  0
   57.7050   31.8290   45.1650 C   0  0  0  0  0  0  0  0  0  0  0  0
   57.9790   32.0850   46.5180 C   0  0  0  0  0  0  0  0  0  0  0  0
   58.6360   33.2580   46.8990 C   0  0  0  0  0  0  0  0  0  0  0  0
   59.0220   34.1930   45.9300 C   0  0  0  0  0  0  0  0  0  0  0  0
   59.6810   35.3640   46.3000 O   0  0  0  0  0  0  0  0  0  0  0  0
   58.7430   33.9510   44.5820 C   0  0  0  0  0  0  0  0  0  0  0  0
   58.0840   32.7790   44.1940 C   0  0  0  0  0  0  0  0  0  0  0  0
   57.8270   32.5580   42.8440 O   0  0  0  0  0  0  0  0  0  0  0  0
   56.9992   27.6093   43.6217 H   0  0  0  0  0  0  0  0  0  0  0  0
   56.6645   29.1290   42.7244 H   0  0  0  0  0  0  0  0  0  0  0  0
   58.3201   28.4319   42.7244 H   0  0  0  0  0  0  0  0  0  0  0  0
   59.4688   28.2021   44.8323 H   0  0  0  0  0  0  0  0  0  0  0  0
   59.5371   29.8773   45.4868 H   0  0  0  0  0  0  0  0  0  0  0  0
   59.2800   25.8120   46.1386 H   0  0  0  0  0  0  0  0  0  0  0  0
   58.9555   23.6243   44.9856 H   0  0  0  0  0  0  0  0  0  0  0  0
   56.2370   22.6450   41.8160 H   0  0  0  0  0  0  0  0  0  0  0  0
   54.6856   24.3299   44.8480 H   0  0  0  0  0  0  0  0  0  0  0  0
   57.6742   31.3567   47.2839 H   0  0  0  0  0  0  0  0  0  0  0  0
   58.8503   33.4474   47.9612 H   0  0  0  0  0  0  0  0  0  0  0  0
   59.3280   35.9510   47.0460 H   0  0  0  0  0  0  0  0  0  0  0  0
   59.0433   34.6865   43.8212 H   0  0  0  0  0  0  0  0  0  0  0  0
  1  2  1  0
  2  3  1  0
  3  4  1  0
  4  5  2  0
  4  6  1  0
  6  7  1  0
  7  8  2  0
  8  9  1  0
  9 10  2  0
 10 11  1  0
 11 12  1  0
 11 13  2  0
 11 14  2  0
 10 15  1  0
 15 16  2  0
 16 17  1  0
  2 18  1  0
 18 19  2  0
 18 20  1  0
 20 21  2  0
 21 22  1  0
 22 23  2  0
 23 24  1  0
 23 25  1  0
 25 26  2  0
 26 27  1  0
 16  7  1  0
 26 20  1  0
  1 28  1  0
  1 29  1  0
  1 30  1  0
  3 31  1  0
  3 32  1  0
  8 33  1  0
  9 34  1  0
 12 35  1  0
 15 36  1  0
 21 37  1  0
 22 38  1  0
 24 39  1  0
 25 40  1  0
M  CHG  4   6  -1  12  -1  17  -1  27  -1
M  END
>  <UniqueID>  (67) 
64

>  <SMILES>  (67) 
CN(CC(=O)[N-]c1ccc(S([NH-])(=O)=O)cc1[O-])C(=O)c1ccc(O)cc1[O-]

>  <Energy>  (67) 
46.1104182398271

>  <Genealogy>  (67) 
CN(CC(=O)[N-]c1ccc(S([NH-])(=O)=O)cc1[O-])C(=O)c1ccc(O)cc1[O-] (protonated)
CN(CC(=O)[N-]c1ccc(S([NH-])(=O)=O)cc1[O-])C(=O)c1ccc(O)cc1[O-] (3D coordinates assigned)
CN(CC(=O)[N-]c1ccc(S([NH-])(=O)=O)cc1[O-])C(=O)c1ccc(O)cc1[O-] (optimized conformer: 46.1104182398271 kcal/mol)

>  <smiles>  (67) 
CN(CC(=O)Nc1ccc(S(N)(=O)=O)cc1O)C(=O)c1ccc(O)cc1O

>  <score_type>  (67) 
oracle

>  <origin>  (67) 
adg

>  <m_score__min__energy>  (67) 
-15.949999999999999

>  <m_primary>  (67) 
energy

$$$$
67:0
     RDKit          3D

 51 53  0  0  0  0  0  0  0  0999 V2000
   63.7720   33.2180   47.7490 C   0  0  0  0  0  0  0  0  0  0  0  0
   64.0400   33.1570   49.2180 C   0  0  0  0  0  0  0  0  0  0  0  0
   65.2950   32.7640   49.6940 C   0  0  0  0  0  0  0  0  0  0  0  0
   65.5080   32.7480   51.0720 C   0  0  0  0  0  0  0  0  0  0  0  0
   64.5100   33.1180   51.9170 N   0  0  0  0  0  0  0  0  0  0  0  0
   63.2950   33.5080   51.4410 C   0  0  0  0  0  0  0  0  0  0  0  0
   62.3450   33.8640   52.2500 N   0  0  0  0  0  0  0  0  0  0  0  0
   60.7120   33.2880   52.1410 S   0  0  0  0  0  0  0  0  0  0  0  0
   60.6030   31.9870   52.8870 O   0  0  0  0  0  0  0  0  0  0  0  0
   59.7970   34.2960   52.7760 O   0  0  0  0  0  0  0  0  0  0  0  0
   60.2340   33.0600   50.4600 C   0  0  0  0  0  0  0  0  0  0  0  0
   59.9410   34.1740   49.6620 C   0  0  0  0  0  0  0  0  0  0  0  0
   59.5680   34.0060   48.3270 C   0  0  0  0  0  0  0  0  0  0  0  0
   59.4880   32.7160   47.7680 C   0  0  0  0  0  0  0  0  0  0  0  0
   59.0640   32.5160   46.4090 N   0  0  0  0  0  0  0  0  0  0  0  0
   57.7360   32.7990   45.9340 C   0  0  0  0  0  0  0  0  0  0  0  0
   56.9620   33.5270   46.6110 O   0  0  0  0  0  0  0  0  0  0  0  0
   57.2850   32.2830   44.6330 C   0  0  0  0  0  0  0  0  0  0  0  0
   57.4170   32.9890   43.5970 O   0  0  0  0  0  0  0  0  0  0  0  0
   56.7550   30.9520   44.5470 N   0  0  0  0  0  0  0  0  0  0  0  0
   57.4260   29.7320   44.8980 C   0  0  0  0  0  0  0  0  0  0  0  0
   58.8210   29.7260   44.9300 C   0  0  0  0  0  0  0  0  0  0  0  0
   59.5170   28.5700   45.2830 C   0  0  0  0  0  0  0  0  0  0  0  0
   58.8280   27.3960   45.6290 C   0  0  0  0  0  0  0  0  0  0  0  0
   59.6240   26.1680   45.9880 C   0  0  0  0  0  0  0  0  0  0  0  0
   57.4100   27.3920   45.6010 C   0  0  0  0  0  0  0  0  0  0  0  0
   56.4710   25.9460   46.0140 S   0  0  0  0  0  0  0  0  0  0  0  0
   54.7810   26.3100   45.9950 N   0  0  0  0  0  0  0  0  0  0  0  0
   56.7630   24.8570   45.0220 O   0  0  0  0  0  0  0  0  0  0  0  0
   56.8360   25.4620   47.3900 O   0  0  0  0  0  0  0  0  0  0  0  0
   56.7240   28.5680   45.2570 C   0  0  0  0  0  0  0  0  0  0  0  0
   59.7620   31.6040   48.5770 C   0  0  0  0  0  0  0  0  0  0  0  0
   60.1460   31.7750   49.9110 C   0  0  0  0  0  0  0  0  0  0  0  0
   63.0720   33.5250   50.1010 N   0  0  0  0  0  0  0  0  0  0  0  0
   62.7123   33.4592   47.5793 H   0  0  0  0  0  0  0  0  0  0  0  0
   64.4026   33.9956   47.2932 H   0  0  0  0  0  0  0  0  0  0  0  0
   64.0039   32.2441   47.2932 H   0  0  0  0  0  0  0  0  0  0  0  0
   66.0955   32.4742   48.9975 H   0  0  0  0  0  0  0  0  0  0  0  0
   66.4830   32.4362   51.4747 H   0  0  0  0  0  0  0  0  0  0  0  0
   60.0052   35.1856   50.0893 H   0  0  0  0  0  0  0  0  0  0  0  0
   59.3355   34.8857   47.7089 H   0  0  0  0  0  0  0  0  0  0  0  0
   59.7850   32.2230   45.7110 H   0  0  0  0  0  0  0  0  0  0  0  0
   59.3764   30.6405   44.6747 H   0  0  0  0  0  0  0  0  0  0  0  0
   60.6169   28.5778   45.2905 H   0  0  0  0  0  0  0  0  0  0  0  0
   59.6833   26.0765   47.0826 H   0  0  0  0  0  0  0  0  0  0  0  0
   59.1312   25.2770   45.5717 H   0  0  0  0  0  0  0  0  0  0  0  0
   60.6386   26.2540   45.5717 H   0  0  0  0  0  0  0  0  0  0  0  0
   54.6300   27.0980   46.6640 H   0  0  0  0  0  0  0  0  0  0  0  0
   55.6241   28.5786   45.2686 H   0  0  0  0  0  0  0  0  0  0  0  0
   59.6743   30.5901   48.1596 H   0  0  0  0  0  0  0  0  0  0  0  0
   60.3797   30.8969   50.5310 H   0  0  0  0  0  0  0  0  0  0  0  0
  1  2  1  0
  2  3  1  0
  3  4  2  0
  4  5  1  0
  5  6  1  0
  6  7  2  3
  7  8  1  0
  8  9  2  0
  8 10  2  0
  8 11  1  0
 11 12  2  0
 12 13  1  0
 13 14  2  0
 14 15  1  0
 15 16  1  0
 16 17  2  0
 16 18  1  0
 18 19  2  0
 18 20  1  0
 20 21  1  0
 21 22  2  0
 22 23  1  0
 23 24  2  0
 24 25  1  0
 24 26  1  0
 26 27  1  0
 27 28  1  0
 27 29  2  0
 27 30  2  0
 26 31  2  0
 14 32  1  0
 32 33  2  0
  6 34  1  0
 34  2  2  0
 33 11  1  0
 31 21  1  0
  1 35  1  0
  1 36  1  0
  1 37  1  0
  3 38  1  0
  4 39  1  0
 12 40  1  0
 13 41  1  0
 15 42  1  0
 22 43  1  0
 23 44  1  0
 25 45  1  0
 25 46  1  0
 25 47  1  0
 28 48  1  0
 31 49  1  0
 32 50  1  0
 33 51  1  0
M  CHG  3   5  -1  20  -1  28  -1
M  END
>  <UniqueID>  (68) 
65

>  <SMILES>  (68) 
Cc1cc[n-]c(=NS(=O)(=O)c2ccc(NC(=O)C(=O)[N-]c3ccc(C)c(S([NH-])(=O)=O)c3)cc2)n1

>  <Energy>  (68) 
63.60421788675005

>  <Genealogy>  (68) 
Cc1cc[n-]c(=NS(=O)(=O)c2ccc(NC(=O)C(=O)[N-]c3ccc(C)c(S([NH-])(=O)=O)c3)cc2)n1 (protonated)
Cc1cc[n-]c(=NS(=O)(=O)c2ccc(NC(=O)C(=O)[N-]c3ccc(C)c(S([NH-])(=O)=O)c3)cc2)n1 (3D coordinates assigned)
Cc1cc[n-]c(=NS(=O)(=O)c2ccc(NC(=O)C(=O)[N-]c3ccc(C)c(S([NH-])(=O)=O)c3)cc2)n1 (optimized conformer: 63.60421788675005 kcal/mol)

>  <smiles>  (68) 
Cc1cc[nH]c(=NS(=O)(=O)c2ccc(NC(=O)C(=O)Nc3ccc(C)c(S(N)(=O)=O)c3)cc2)n1

>  <score_type>  (68) 
oracle

>  <origin>  (68) 
adg

>  <m_score__min__energy>  (68) 
-13.720000000000001

>  <m_primary>  (68) 
energy

$$$$
68:0
     RDKit          3D

 39 41  0  0  0  0  0  0  0  0999 V2000
   62.0670   32.4860   46.7310 O   0  0  0  0  0  0  0  0  0  0  0  0
   61.0150   32.5040   47.4270 C   0  0  0  0  0  0  0  0  0  0  0  0
   60.7090   33.6540   48.2230 N   0  0  0  0  0  0  0  0  0  0  0  0
   59.3720   34.2260   48.3270 C   0  0  0  0  0  0  0  0  0  0  0  0
   58.7090   34.2020   46.9870 C   0  0  0  0  0  0  0  0  0  0  0  0
   59.2060   34.7630   45.8280 C   0  0  0  0  0  0  0  0  0  0  0  0
   58.2460   34.5350   44.8660 C   0  0  0  0  0  0  0  0  0  0  0  0
   57.2240   33.8540   45.4980 C   0  0  0  0  0  0  0  0  0  0  0  0
   57.5290   33.6730   46.7630 O   0  0  0  0  0  0  0  0  0  0  0  0
   60.1140   31.3280   47.4410 C   0  0  0  0  0  0  0  0  0  0  0  0
   60.0610   30.4800   48.5610 C   0  0  0  0  0  0  0  0  0  0  0  0
   59.1660   29.4080   48.5960 C   0  0  0  0  0  0  0  0  0  0  0  0
   58.3010   29.1820   47.5230 C   0  0  0  0  0  0  0  0  0  0  0  0
   58.3420   30.0130   46.3990 C   0  0  0  0  0  0  0  0  0  0  0  0
   57.2060   29.7490   45.0780 S   0  0  0  0  0  0  0  0  0  0  0  0
   56.3380   30.9570   44.8600 O   0  0  0  0  0  0  0  0  0  0  0  0
   57.9840   29.4870   43.8170 O   0  0  0  0  0  0  0  0  0  0  0  0
   56.2130   28.3700   45.4250 N   0  0  0  0  0  0  0  0  0  0  0  0
   56.6900   27.0390   45.6740 C   0  0  0  0  0  0  0  0  0  0  0  0
   58.0610   26.7210   45.6550 C   0  0  0  0  0  0  0  0  0  0  0  0
   58.4840   25.4060   45.8750 C   0  0  0  0  0  0  0  0  0  0  0  0
   57.5460   24.4020   46.1250 C   0  0  0  0  0  0  0  0  0  0  0  0
   56.1850   24.7110   46.1630 C   0  0  0  0  0  0  0  0  0  0  0  0
   55.7560   26.0260   45.9420 C   0  0  0  0  0  0  0  0  0  0  0  0
   54.3990   26.3220   45.9890 O   0  0  0  0  0  0  0  0  0  0  0  0
   59.2610   31.0710   46.3510 C   0  0  0  0  0  0  0  0  0  0  0  0
   58.7767   33.6372   49.0403 H   0  0  0  0  0  0  0  0  0  0  0  0
   59.4465   35.2657   48.6785 H   0  0  0  0  0  0  0  0  0  0  0  0
   60.1668   35.2830   45.6992 H   0  0  0  0  0  0  0  0  0  0  0  0
   58.2856   34.8348   43.8084 H   0  0  0  0  0  0  0  0  0  0  0  0
   56.2956   33.5147   45.0154 H   0  0  0  0  0  0  0  0  0  0  0  0
   60.7290   30.6619   49.4158 H   0  0  0  0  0  0  0  0  0  0  0  0
   59.1425   28.7407   49.4702 H   0  0  0  0  0  0  0  0  0  0  0  0
   57.5852   28.3477   47.5622 H   0  0  0  0  0  0  0  0  0  0  0  0
   58.8034   27.5104   45.4662 H   0  0  0  0  0  0  0  0  0  0  0  0
   59.5564   25.1625   45.8511 H   0  0  0  0  0  0  0  0  0  0  0  0
   57.8797   23.3672   46.2921 H   0  0  0  0  0  0  0  0  0  0  0  0
   55.4481   23.9202   46.3669 H   0  0  0  0  0  0  0  0  0  0  0  0
   59.3159   31.7055   45.4541 H   0  0  0  0  0  0  0  0  0  0  0  0
  1  2  2  0
  2  3  1  0
  3  4  1  0
  4  5  1  0
  5  6  2  0
  6  7  1  0
  7  8  2  0
  8  9  1  0
  2 10  1  0
 10 11  2  0
 11 12  1  0
 12 13  2  0
 13 14  1  0
 14 15  1  0
 15 16  2  0
 15 17  2  0
 15 18  1  0
 18 19  1  0
 19 20  2  0
 20 21  1  0
 21 22  2  0
 22 23  1  0
 23 24  2  0
 24 25  1  0
 14 26  2  0
  9  5  1  0
 26 10  1  0
 24 19  1  0
  4 27  1  0
  4 28  1  0
  6 29  1  0
  7 30  1  0
  8 31  1  0
 11 32  1  0
 12 33  1  0
 13 34  1  0
 20 35  1  0
 21 36  1  0
 22 37  1  0
 23 38  1  0
 26 39  1  0
M  CHG  3   3  -1  18  -1  25  -1
M  END
>  <UniqueID>  (69) 
66

>  <SMILES>  (69) 
O=C([N-]Cc1ccco1)c1cccc(S(=O)(=O)[N-]c2ccccc2[O-])c1

>  <Energy>  (69) 
69.2511849846689

>  <Genealogy>  (69) 
O=C([N-]Cc1ccco1)c1cccc(S(=O)(=O)[N-]c2ccccc2[O-])c1 (protonated)
O=C([N-]Cc1ccco1)c1cccc(S(=O)(=O)[N-]c2ccccc2[O-])c1 (3D coordinates assigned)
O=C([N-]Cc1ccco1)c1cccc(S(=O)(=O)[N-]c2ccccc2[O-])c1 (optimized conformer: 69.2511849846689 kcal/mol)

>  <smiles>  (69) 
O=C(NCc1ccco1)c1cccc(S(=O)(=O)Nc2ccccc2O)c1

>  <score_type>  (69) 
oracle

>  <origin>  (69) 
adg

>  <m_score__min__energy>  (69) 
-15.23

>  <m_primary>  (69) 
energy

$$$$
69:0
     RDKit          3D

 39 41  0  0  0  0  0  0  0  0999 V2000
   60.0033   34.0833   48.6665 H   0  0  0  0  0  0  0  0  0  0  0  0
   60.1150   33.0470   48.3150 C   0  0  0  0  0  0  0  0  0  0  0  0
   61.2390   32.6780   47.5710 C   0  0  0  0  0  0  0  0  0  0  0  0
   62.0139   33.4235   47.3394 H   0  0  0  0  0  0  0  0  0  0  0  0
   61.3790   31.3620   47.1210 C   0  0  0  0  0  0  0  0  0  0  0  0
   62.2676   31.0762   46.5390 H   0  0  0  0  0  0  0  0  0  0  0  0
   60.3970   30.4040   47.4050 C   0  0  0  0  0  0  0  0  0  0  0  0
   60.5840   29.0980   46.9250 O   0  0  0  0  0  0  0  0  0  0  0  0
   59.9210   27.9330   47.4150 C   0  0  0  0  0  0  0  0  0  0  0  0
   59.7996   28.0164   48.5051 H   0  0  0  0  0  0  0  0  0  0  0  0
   60.5259   27.0478   47.1690 H   0  0  0  0  0  0  0  0  0  0  0  0
   58.5700   27.7930   46.7760 C   0  0  0  0  0  0  0  0  0  0  0  0
   58.0360   28.8280   46.0740 N   0  0  0  0  0  0  0  0  0  0  0  0
   56.8090   28.7300   45.4880 C   0  0  0  0  0  0  0  0  0  0  0  0
   56.2920   29.7380   44.8450 N   0  0  0  0  0  0  0  0  0  0  0  0
   57.0100   30.8730   44.3360 C   0  0  0  0  0  0  0  0  0  0  0  0
   57.2790   31.0120   42.9650 C   0  0  0  0  0  0  0  0  0  0  0  0
   56.9510   30.2334   42.2605 H   0  0  0  0  0  0  0  0  0  0  0  0
   57.9620   32.1360   42.4920 C   0  0  0  0  0  0  0  0  0  0  0  0
   58.1910   32.2291   41.4201 H   0  0  0  0  0  0  0  0  0  0  0  0
   58.3540   33.1410   43.3790 C   0  0  0  0  0  0  0  0  0  0  0  0
   58.9080   34.0152   43.0063 H   0  0  0  0  0  0  0  0  0  0  0  0
   58.0440   33.0400   44.7430 C   0  0  0  0  0  0  0  0  0  0  0  0
   58.4850   34.1080   45.7000 C   0  0  0  0  0  0  0  0  0  0  0  0
   58.3403   33.7576   46.7326 H   0  0  0  0  0  0  0  0  0  0  0  0
   59.5492   34.3319   45.5345 H   0  0  0  0  0  0  0  0  0  0  0  0
   57.8889   35.0175   45.5345 H   0  0  0  0  0  0  0  0  0  0  0  0
   57.3730   31.8990   45.2170 C   0  0  0  0  0  0  0  0  0  0  0  0
   57.1317   31.8118   46.2867 H   0  0  0  0  0  0  0  0  0  0  0  0
   56.0950   27.5770   45.6110 N   0  0  0  0  0  0  0  0  0  0  0  0
   55.1470   27.5050   45.1730 H   0  0  0  0  0  0  0  0  0  0  0  0
   56.5990   26.5110   46.2890 C   0  0  0  0  0  0  0  0  0  0  0  0
   55.9300   25.4470   46.3810 O   0  0  0  0  0  0  0  0  0  0  0  0
   57.8570   26.5950   46.8850 C   0  0  0  0  0  0  0  0  0  0  0  0
   58.2793   25.7373   47.4291 H   0  0  0  0  0  0  0  0  0  0  0  0
   59.2710   30.7810   48.1640 C   0  0  0  0  0  0  0  0  0  0  0  0
   58.4980   30.0363   48.4048 H   0  0  0  0  0  0  0  0  0  0  0  0
   59.1330   32.0980   48.6120 C   0  0  0  0  0  0  0  0  0  0  0  0
   58.2495   32.3880   49.1996 H   0  0  0  0  0  0  0  0  0  0  0  0
  1  2  1  0
  2  3  2  0
  3  4  1  0
  3  5  1  0
  5  6  1  0
  5  7  2  0
  7  8  1  0
  8  9  1  0
  9 10  1  0
  9 11  1  0
  9 12  1  0
 12 13  1  0
 13 14  1  0
 14 15  2  0
 15 16  1  0
 16 17  2  0
 17 18  1  0
 17 19  1  0
 19 20  1  0
 19 21  2  0
 21 22  1  0
 21 23  1  0
 23 24  1  0
 24 25  1  0
 24 26  1  0
 24 27  1  0
 23 28  2  0
 28 29  1  0
 14 30  1  0
 30 31  1  0
 30 32  1  0
 32 33  2  0
 32 34  1  0
 34 35  1  0
  7 36  1  0
 36 37  1  0
 36 38  2  0
 38 39  1  0
 38  2  1  0
 34 12  2  0
 28 16  1  0
M  CHG  1  13  -1
M  END
>  <UniqueID>  (70) 
67

>  <SMILES>  (70) 
Cc1cccc(/N=c2\[n-]c(COc3ccccc3)cc(=O)[nH]2)c1

>  <Energy>  (70) 
46.59223920726437

>  <Genealogy>  (70) 
Cc1cccc(N=c2[n-]c(COc3ccccc3)cc(=O)[nH]2)c1 (protonated)
Cc1cccc(/N=c2\[n-]c(COc3ccccc3)cc(=O)[nH]2)c1 (cis-trans isomerization)
Cc1cccc(/N=c2\[n-]c(COc3ccccc3)cc(=O)[nH]2)c1 (3D coordinates assigned)
Cc1cccc(/N=c2\[n-]c(COc3ccccc3)cc(=O)[nH]2)c1 (optimized conformer: 46.59223920726437 kcal/mol)

>  <smiles>  (70) 
Cc1cccc(N=c2[nH]c(COc3ccccc3)cc(=O)[nH]2)c1

>  <score_type>  (70) 
oracle

>  <origin>  (70) 
adg

>  <m_score__min__energy>  (70) 
-9.5700000000000003

>  <m_primary>  (70) 
energy

$$$$
70:0
     RDKit          3D

 42 44  0  0  0  0  0  0  0  0999 V2000
   60.7640   26.4820   50.3620 O   0  0  0  0  0  0  0  0  0  0  0  0
   60.6630   27.1430   49.2960 C   0  0  0  0  0  0  0  0  0  0  0  0
   60.8480   26.4680   48.0430 N   0  0  0  0  0  0  0  0  0  0  0  0
   60.4960   27.0010   46.7280 C   0  0  0  0  0  0  0  0  0  0  0  0
   59.0180   26.9210   46.5060 C   0  0  0  0  0  0  0  0  0  0  0  0
   58.3520   27.9850   45.9900 N   0  0  0  0  0  0  0  0  0  0  0  0
   57.0040   27.9610   45.7970 C   0  0  0  0  0  0  0  0  0  0  0  0
   56.3570   29.1530   45.2100 C   0  0  0  0  0  0  0  0  0  0  0  0
   55.1910   29.0510   44.7420 O   0  0  0  0  0  0  0  0  0  0  0  0
   57.0240   30.4210   45.1850 N   0  0  0  0  0  0  0  0  0  0  0  0
   58.0960   30.7900   46.1030 C   0  0  0  0  0  0  0  0  0  0  0  0
   58.5080   32.2190   45.8760 C   0  0  0  0  0  0  0  0  0  0  0  0
   59.6980   32.7060   46.4420 C   0  0  0  0  0  0  0  0  0  0  0  0
   60.0720   34.0420   46.2590 C   0  0  0  0  0  0  0  0  0  0  0  0
   59.2580   34.9000   45.5120 C   0  0  0  0  0  0  0  0  0  0  0  0
   59.6180   36.1950   45.3410 F   0  0  0  0  0  0  0  0  0  0  0  0
   58.0700   34.4240   44.9490 C   0  0  0  0  0  0  0  0  0  0  0  0
   57.6940   33.0890   45.1300 C   0  0  0  0  0  0  0  0  0  0  0  0
   56.2870   26.8020   46.1550 C   0  0  0  0  0  0  0  0  0  0  0  0
   54.9080   26.7160   45.9950 O   0  0  0  0  0  0  0  0  0  0  0  0
   56.9910   25.7190   46.6880 C   0  0  0  0  0  0  0  0  0  0  0  0
   56.3850   24.6680   47.0220 O   0  0  0  0  0  0  0  0  0  0  0  0
   58.3360   25.7990   46.8510 N   0  0  0  0  0  0  0  0  0  0  0  0
   60.4060   28.5940   49.3740 C   0  0  0  0  0  0  0  0  0  0  0  0
   61.4140   29.4790   49.7870 C   0  0  0  0  0  0  0  0  0  0  0  0
   61.1480   30.8480   49.8900 C   0  0  0  0  0  0  0  0  0  0  0  0
   59.8810   31.3400   49.5690 C   0  0  0  0  0  0  0  0  0  0  0  0
   58.8820   30.4680   49.1270 C   0  0  0  0  0  0  0  0  0  0  0  0
   59.1450   29.1000   49.0220 C   0  0  0  0  0  0  0  0  0  0  0  0
   60.8145   28.0521   46.6668 H   0  0  0  0  0  0  0  0  0  0  0  0
   61.0036   26.4043   45.9558 H   0  0  0  0  0  0  0  0  0  0  0  0
   57.7432   30.6740   47.1384 H   0  0  0  0  0  0  0  0  0  0  0  0
   58.9616   30.1351   45.9246 H   0  0  0  0  0  0  0  0  0  0  0  0
   60.3388   32.0340   47.0318 H   0  0  0  0  0  0  0  0  0  0  0  0
   61.0060   34.4174   46.7025 H   0  0  0  0  0  0  0  0  0  0  0  0
   57.4303   35.1003   44.3630 H   0  0  0  0  0  0  0  0  0  0  0  0
   56.7578   32.7185   44.6869 H   0  0  0  0  0  0  0  0  0  0  0  0
   62.4156   29.0948   50.0302 H   0  0  0  0  0  0  0  0  0  0  0  0
   61.9371   31.5377   50.2240 H   0  0  0  0  0  0  0  0  0  0  0  0
   59.6690   32.4152   49.6641 H   0  0  0  0  0  0  0  0  0  0  0  0
   57.8886   30.8590   48.8618 H   0  0  0  0  0  0  0  0  0  0  0  0
   58.3612   28.4171   48.6623 H   0  0  0  0  0  0  0  0  0  0  0  0
  1  2  2  0
  2  3  1  0
  3  4  1  0
  4  5  1  0
  5  6  2  0
  6  7  1  0
  7  8  1  0
  8  9  2  0
  8 10  1  0
 10 11  1  0
 11 12  1  0
 12 13  2  0
 13 14  1  0
 14 15  2  0
 15 16  1  0
 15 17  1  0
 17 18  2  0
  7 19  2  0
 19 20  1  0
 19 21  1  0
 21 22  2  0
 21 23  1  0
  2 24  1  0
 24 25  2  0
 25 26  1  0
 26 27  2  0
 27 28  1  0
 28 29  2  0
 23  5  1  0
 29 24  1  0
 18 12  1  0
  4 30  1  0
  4 31  1  0
 11 32  1  0
 11 33  1  0
 13 34  1  0
 14 35  1  0
 17 36  1  0
 18 37  1  0
 25 38  1  0
 26 39  1  0
 27 40  1  0
 28 41  1  0
 29 42  1  0
M  CHG  4   3  -1  10  -1  20  -1  23  -1
M  END
>  <UniqueID>  (71) 
68

>  <SMILES>  (71) 
O=C([N-]Cc1nc(C(=O)[N-]Cc2ccc(F)cc2)c([O-])c(=O)[n-]1)c1ccccc1

>  <Energy>  (71) 
47.27795446792234

>  <Genealogy>  (71) 
O=C([N-]Cc1nc(C(=O)[N-]Cc2ccc(F)cc2)c([O-])c(=O)[n-]1)c1ccccc1 (protonated)
O=C([N-]Cc1nc(C(=O)[N-]Cc2ccc(F)cc2)c([O-])c(=O)[n-]1)c1ccccc1 (3D coordinates assigned)
O=C([N-]Cc1nc(C(=O)[N-]Cc2ccc(F)cc2)c([O-])c(=O)[n-]1)c1ccccc1 (optimized conformer: 47.27795446792234 kcal/mol)

>  <smiles>  (71) 
O=C(NCc1nc(C(=O)NCc2ccc(F)cc2)c(O)c(=O)[nH]1)c1ccccc1

>  <score_type>  (71) 
oracle

>  <origin>  (71) 
adg

>  <m_score__min__energy>  (71) 
-16.140000000000001

>  <m_primary>  (71) 
energy

$$$$
71:0
     RDKit          3D

 43 46  0  0  0  0  0  0  0  0999 V2000
   61.9483   30.3637   50.7058 H   0  0  0  0  0  0  0  0  0  0  0  0
   61.9710   30.7970   49.6950 C   0  0  0  0  0  0  0  0  0  0  0  0
   62.9740   31.7040   49.3470 C   0  0  0  0  0  0  0  0  0  0  0  0
   63.7418   31.9837   50.0834 H   0  0  0  0  0  0  0  0  0  0  0  0
   63.0030   32.2570   48.0630 C   0  0  0  0  0  0  0  0  0  0  0  0
   63.9740   33.1430   47.7280 F   0  0  0  0  0  0  0  0  0  0  0  0
   62.0280   31.9010   47.1260 C   0  0  0  0  0  0  0  0  0  0  0  0
   62.0499   32.3435   46.1192 H   0  0  0  0  0  0  0  0  0  0  0  0
   61.0200   30.9810   47.4630 C   0  0  0  0  0  0  0  0  0  0  0  0
   59.9820   30.6000   46.4780 C   0  0  0  0  0  0  0  0  0  0  0  0
   59.8490   29.3640   45.8430 C   0  0  0  0  0  0  0  0  0  0  0  0
   60.5660   28.1890   46.0860 O   0  0  0  0  0  0  0  0  0  0  0  0
   60.2100   27.2940   47.1380 C   0  0  0  0  0  0  0  0  0  0  0  0
   60.5361   27.7136   48.1011 H   0  0  0  0  0  0  0  0  0  0  0  0
   60.7010   26.3237   46.9726 H   0  0  0  0  0  0  0  0  0  0  0  0
   58.7270   27.1020   47.1560 C   0  0  0  0  0  0  0  0  0  0  0  0
   57.9940   27.9150   47.7810 O   0  0  0  0  0  0  0  0  0  0  0  0
   58.1620   25.9700   46.4830 N   0  0  0  0  0  0  0  0  0  0  0  0
   56.9100   25.8170   46.1670 C   0  0  0  0  0  0  0  0  0  0  0  0
   56.3630   24.6360   45.7190 C   0  0  0  0  0  0  0  0  0  0  0  0
   56.8754   23.6888   45.4951 H   0  0  0  0  0  0  0  0  0  0  0  0
   55.0150   24.9260   45.6180 C   0  0  0  0  0  0  0  0  0  0  0  0
   53.9510   23.9670   45.2020 C   0  0  0  0  0  0  0  0  0  0  0  0
   53.4746   23.5376   46.0957 H   0  0  0  0  0  0  0  0  0  0  0  0
   53.1956   24.4952   44.6018 H   0  0  0  0  0  0  0  0  0  0  0  0
   54.3982   23.1609   44.6018 H   0  0  0  0  0  0  0  0  0  0  0  0
   54.7790   26.2000   45.9940 N   0  0  0  0  0  0  0  0  0  0  0  0
   55.9400   26.7400   46.3270 N   0  0  0  0  0  0  0  0  0  0  0  0
   56.0360   27.7100   46.6980 H   0  0  0  0  0  0  0  0  0  0  0  0
   58.7720   29.4800   44.9950 C   0  0  0  0  0  0  0  0  0  0  0  0
   58.1510   28.5460   44.1690 C   0  0  0  0  0  0  0  0  0  0  0  0
   58.5515   27.5273   44.0604 H   0  0  0  0  0  0  0  0  0  0  0  0
   56.9950   28.9500   43.4790 C   0  0  0  0  0  0  0  0  0  0  0  0
   56.4807   28.2415   42.8130 H   0  0  0  0  0  0  0  0  0  0  0  0
   56.4890   30.2600   43.6350 C   0  0  0  0  0  0  0  0  0  0  0  0
   55.5853   30.5655   43.0873 H   0  0  0  0  0  0  0  0  0  0  0  0
   57.1340   31.1770   44.4870 C   0  0  0  0  0  0  0  0  0  0  0  0
   56.7468   32.1980   44.6196 H   0  0  0  0  0  0  0  0  0  0  0  0
   58.2790   30.7490   45.1570 C   0  0  0  0  0  0  0  0  0  0  0  0
   59.0070   31.4420   46.0520 N   0  0  0  0  0  0  0  0  0  0  0  0
   58.8490   32.4310   46.3500 H   0  0  0  0  0  0  0  0  0  0  0  0
   60.9950   30.4390   48.7590 C   0  0  0  0  0  0  0  0  0  0  0  0
   60.2031   29.7288   49.0393 H   0  0  0  0  0  0  0  0  0  0  0  0
  1  2  1  0
  2  3  2  0
  3  4  1  0
  3  5  1  0
  5  6  1  0
  5  7  2  0
  7  8  1  0
  7  9  1  0
  9 10  1  0
 10 11  2  0
 11 12  1  0
 12 13  1  0
 13 14  1  0
 13 15  1  0
 13 16  1  0
 16 17  2  0
 16 18  1  0
 18 19  2  0
 19 20  1  0
 20 21  1  0
 20 22  2  0
 22 23  1  0
 23 24  1  0
 23 25  1  0
 23 26  1  0
 22 27  1  0
 27 28  1  0
 28 29  1  0
 11 30  1  0
 30 31  2  0
 31 32  1  0
 31 33  1  0
 33 34  1  0
 33 35  2  0
 35 36  1  0
 35 37  1  0
 37 38  1  0
 37 39  2  0
 39 40  1  0
 40 41  1  0
  9 42  2  0
 42 43  1  0
 42  2  1  0
 40 10  1  0
 28 19  1  0
 39 30  1  0
M  CHG  1  27  -1
M  END
>  <UniqueID>  (72) 
69

>  <SMILES>  (72) 
Cc1c/c(=N/C(=O)COc2c(-c3cccc(F)c3)[nH]c3ccccc23)[nH][n-]1

>  <Energy>  (72) 
120.28677242409886

>  <Genealogy>  (72) 
Cc1cc(=NC(=O)COc2c(-c3cccc(F)c3)[nH]c3ccccc23)[nH][n-]1 (protonated)
Cc1c/c(=N/C(=O)COc2c(-c3cccc(F)c3)[nH]c3ccccc23)[nH][n-]1 (cis-trans isomerization)
Cc1c/c(=N/C(=O)COc2c(-c3cccc(F)c3)[nH]c3ccccc23)[nH][n-]1 (3D coordinates assigned)
Cc1c/c(=N/C(=O)COc2c(-c3cccc(F)c3)[nH]c3ccccc23)[nH][n-]1 (optimized conformer: 120.28677242409886 kcal/mol)

>  <smiles>  (72) 
Cc1cc(=NC(=O)COc2c(-c3cccc(F)c3)[nH]c3ccccc23)[nH][nH]1

>  <score_type>  (72) 
oracle

>  <origin>  (72) 
adg

>  <m_score__min__energy>  (72) 
-10.44

>  <m_primary>  (72) 
energy

$$$$
72:0
     RDKit          3D

 41 43  0  0  0  0  0  0  0  0999 V2000
   58.2321   32.7093   42.6950 H   0  0  0  0  0  0  0  0  0  0  0  0
   58.1540   32.6870   43.7920 C   0  0  0  0  0  0  0  0  0  0  0  0
   58.3430   31.4810   44.4910 C   0  0  0  0  0  0  0  0  0  0  0  0
   58.6580   30.2570   43.7970 N   0  0  0  0  0  0  0  0  0  0  0  0
   59.6390   30.2930   43.4390 H   0  0  0  0  0  0  0  0  0  0  0  0
   58.0550   30.1950   42.9480 H   0  0  0  0  0  0  0  0  0  0  0  0
   58.5020   29.1020   44.6640 C   0  0  0  0  0  0  0  0  0  0  0  0
   57.2080   28.6430   45.0300 C   0  0  0  0  0  0  0  0  0  0  0  0
   55.7320   29.4040   44.4410 Cl  0  0  0  0  0  0  0  0  0  0  0  0
   57.0640   27.5480   45.8860 C   0  0  0  0  0  0  0  0  0  0  0  0
   56.0577   27.2011   46.1636 H   0  0  0  0  0  0  0  0  0  0  0  0
   58.1830   26.8930   46.3900 C   0  0  0  0  0  0  0  0  0  0  0  0
   58.0578   26.0338   47.0653 H   0  0  0  0  0  0  0  0  0  0  0  0
   59.4610   27.3220   46.0420 C   0  0  0  0  0  0  0  0  0  0  0  0
   60.3400   26.7984   46.4460 H   0  0  0  0  0  0  0  0  0  0  0  0
   59.6390   28.4170   45.1800 C   0  0  0  0  0  0  0  0  0  0  0  0
   61.0440   28.8350   44.8290 C   0  0  0  0  0  0  0  0  0  0  0  0
   61.6173   29.0055   45.7522 H   0  0  0  0  0  0  0  0  0  0  0  0
   61.5262   28.0414   44.2393 H   0  0  0  0  0  0  0  0  0  0  0  0
   61.0139   29.7631   44.2393 H   0  0  0  0  0  0  0  0  0  0  0  0
   58.2800   31.4860   45.8520 N   0  0  0  0  0  0  0  0  0  0  0  0
   58.0040   32.6150   46.5660 C   0  0  0  0  0  0  0  0  0  0  0  0
   57.9470   32.5890   47.8640 N   0  0  0  0  0  0  0  0  0  0  0  0
   58.9940   33.0820   48.7600 C   0  0  0  0  0  0  0  0  0  0  0  0
   58.8889   34.1713   48.8714 H   0  0  0  0  0  0  0  0  0  0  0  0
   58.8855   32.5834   49.7345 H   0  0  0  0  0  0  0  0  0  0  0  0
   60.3680   32.7710   48.2090 C   0  0  0  0  0  0  0  0  0  0  0  0
   61.1970   33.8400   47.8260 C   0  0  0  0  0  0  0  0  0  0  0  0
   60.8408   34.8744   47.9408 H   0  0  0  0  0  0  0  0  0  0  0  0
   62.4690   33.6000   47.3010 C   0  0  0  0  0  0  0  0  0  0  0  0
   63.1119   34.4444   47.0118 H   0  0  0  0  0  0  0  0  0  0  0  0
   62.9250   32.2920   47.1430 C   0  0  0  0  0  0  0  0  0  0  0  0
   63.9274   32.1057   46.7302 H   0  0  0  0  0  0  0  0  0  0  0  0
   62.1110   31.2190   47.5080 C   0  0  0  0  0  0  0  0  0  0  0  0
   62.4719   30.1886   47.3736 H   0  0  0  0  0  0  0  0  0  0  0  0
   60.8360   31.4460   48.0450 C   0  0  0  0  0  0  0  0  0  0  0  0
   59.8770   30.0410   48.5030 Cl  0  0  0  0  0  0  0  0  0  0  0  0
   57.7860   33.8210   45.8920 C   0  0  0  0  0  0  0  0  0  0  0  0
   57.5525   34.7364   46.4554 H   0  0  0  0  0  0  0  0  0  0  0  0
   57.8670   33.8540   44.4990 C   0  0  0  0  0  0  0  0  0  0  0  0
   57.7047   34.7990   43.9599 H   0  0  0  0  0  0  0  0  0  0  0  0
  1  2  1  0
  2  3  2  0
  3  4  1  0
  4  5  1  0
  4  6  1  0
  4  7  1  0
  7  8  2  0
  8  9  1  0
  8 10  1  0
 10 11  1  0
 10 12  2  0
 12 13  1  0
 12 14  1  0
 14 15  1  0
 14 16  2  0
 16 17  1  0
 17 18  1  0
 17 19  1  0
 17 20  1  0
  3 21  1  0
 21 22  1  0
 22 23  2  0
 23 24  1  0
 24 25  1  0
 24 26  1  0
 24 27  1  0
 27 28  2  0
 28 29  1  0
 28 30  1  0
 30 31  1  0
 30 32  2  0
 32 33  1  0
 32 34  1  0
 34 35  1  0
 34 36  2  0
 36 37  1  0
 22 38  1  0
 38 39  1  0
 38 40  2  0
 40 41  1  0
 40  2  1  0
 16  7  1  0
 36 27  1  0
M  CHG  2   4   1  21  -1
M  END
>  <UniqueID>  (73) 
70

>  <SMILES>  (73) 
Cc1cccc(Cl)c1[NH2+]c1ccc/c(=N/Cc2ccccc2Cl)[n-]1

>  <Energy>  (73) 
48.237727208504836

>  <Genealogy>  (73) 
Cc1cccc(Cl)c1[NH2+]c1cccc(=NCc2ccccc2Cl)[n-]1 (protonated)
Cc1cccc(Cl)c1[NH2+]c1ccc/c(=N/Cc2ccccc2Cl)[n-]1 (cis-trans isomerization)
Cc1cccc(Cl)c1[NH2+]c1ccc/c(=N/Cc2ccccc2Cl)[n-]1 (3D coordinates assigned)
Cc1cccc(Cl)c1[NH2+]c1ccc/c(=N/Cc2ccccc2Cl)[n-]1 (optimized conformer: 48.237727208504836 kcal/mol)

>  <smiles>  (73) 
Cc1cccc(Cl)c1Nc1cccc(=NCc2ccccc2Cl)[nH]1

>  <score_type>  (73) 
oracle

>  <origin>  (73) 
adg

>  <m_score__min__energy>  (73) 
-8.3499999999999996

>  <m_primary>  (73) 
energy

$$$$
73:0
     RDKit          3D

 36 38  0  0  0  0  0  0  0  0999 V2000
   58.7021   35.6341   45.6542 H   0  0  0  0  0  0  0  0  0  0  0  0
   58.3980   34.5890   45.8130 C   0  0  0  0  0  0  0  0  0  0  0  0
   57.6490   33.8990   44.9130 N   0  0  0  0  0  0  0  0  0  0  0  0
   57.4120   32.6340   45.3310 C   0  0  0  0  0  0  0  0  0  0  0  0
   56.7140   31.7610   44.6670 N   0  0  0  0  0  0  0  0  0  0  0  0
   57.2050   30.5240   44.1230 C   0  0  0  0  0  0  0  0  0  0  0  0
   58.4200   30.3820   43.8190 O   0  0  0  0  0  0  0  0  0  0  0  0
   56.2700   29.3710   43.9690 C   0  0  0  0  0  0  0  0  0  0  0  0
   55.3371   29.7166   43.4997 H   0  0  0  0  0  0  0  0  0  0  0  0
   56.7388   28.6031   43.3360 H   0  0  0  0  0  0  0  0  0  0  0  0
   55.9800   28.8170   45.2460 O   0  0  0  0  0  0  0  0  0  0  0  0
   56.4640   27.5900   45.6690 N   0  0  0  0  0  0  0  0  0  0  0  0
   55.7830   26.4680   45.9830 C   0  0  0  0  0  0  0  0  0  0  0  0
   54.4010   26.3410   45.9510 O   0  0  0  0  0  0  0  0  0  0  0  0
   56.6540   25.4570   46.3430 C   0  0  0  0  0  0  0  0  0  0  0  0
   56.3883   24.4340   46.6478 H   0  0  0  0  0  0  0  0  0  0  0  0
   57.9280   25.9900   46.2430 C   0  0  0  0  0  0  0  0  0  0  0  0
   58.8780   25.4757   46.4505 H   0  0  0  0  0  0  0  0  0  0  0  0
   57.7650   27.2980   45.8300 C   0  0  0  0  0  0  0  0  0  0  0  0
   58.7950   28.2000   45.6010 O   0  0  0  0  0  0  0  0  0  0  0  0
   58.1150   32.3150   46.8230 S   0  0  0  0  0  0  0  0  0  0  0  0
   58.7500   33.8700   46.9510 C   0  0  0  0  0  0  0  0  0  0  0  0
   59.5870   34.3710   48.0860 C   0  0  0  0  0  0  0  0  0  0  0  0
   59.5580   35.4705   48.0997 H   0  0  0  0  0  0  0  0  0  0  0  0
   59.1861   33.9700   49.0286 H   0  0  0  0  0  0  0  0  0  0  0  0
   61.0150   33.9140   47.9290 C   0  0  0  0  0  0  0  0  0  0  0  0
   61.6030   33.9260   46.6530 C   0  0  0  0  0  0  0  0  0  0  0  0
   61.0108   34.2453   45.7827 H   0  0  0  0  0  0  0  0  0  0  0  0
   62.9330   33.5360   46.4800 C   0  0  0  0  0  0  0  0  0  0  0  0
   63.3835   33.5492   45.4766 H   0  0  0  0  0  0  0  0  0  0  0  0
   63.6900   33.1300   47.5780 C   0  0  0  0  0  0  0  0  0  0  0  0
   64.7353   32.8170   47.4388 H   0  0  0  0  0  0  0  0  0  0  0  0
   63.1240   33.1200   48.8530 C   0  0  0  0  0  0  0  0  0  0  0  0
   63.7254   32.7975   49.7157 H   0  0  0  0  0  0  0  0  0  0  0  0
   61.7950   33.5180   49.0410 C   0  0  0  0  0  0  0  0  0  0  0  0
   61.1460   33.4990   50.6760 Cl  0  0  0  0  0  0  0  0  0  0  0  0
  1  2  1  0
  2  3  1  0
  3  4  1  0
  4  5  2  0
  5  6  1  0
  6  7  2  0
  6  8  1  0
  8  9  1  0
  8 10  1  0
  8 11  1  0
 11 12  1  0
 12 13  1  0
 13 14  1  0
 13 15  2  0
 15 16  1  0
 15 17  1  0
 17 18  1  0
 17 19  2  0
 19 20  1  0
  4 21  1  0
 21 22  1  0
 22 23  1  0
 23 24  1  0
 23 25  1  0
 23 26  1  0
 26 27  2  0
 27 28  1  0
 27 29  1  0
 29 30  1  0
 29 31  2  0
 31 32  1  0
 31 33  1  0
 33 34  1  0
 33 35  2  0
 35 36  1  0
 22  2  2  0
 35 26  1  0
 19 12  1  0
M  CHG  3   3  -1  14  -1  20  -1
M  END
>  <UniqueID>  (74) 
71

>  <SMILES>  (74) 
O=C(COn1c([O-])ccc1[O-])/N=c1\[n-]cc(Cc2ccccc2Cl)s1

>  <Energy>  (74) 
97.4038084968815

>  <Genealogy>  (74) 
O=C(COn1c([O-])ccc1[O-])N=c1[n-]cc(Cc2ccccc2Cl)s1 (protonated)
O=C(COn1c([O-])ccc1[O-])/N=c1\[n-]cc(Cc2ccccc2Cl)s1 (cis-trans isomerization)
O=C(COn1c([O-])ccc1[O-])/N=c1\[n-]cc(Cc2ccccc2Cl)s1 (3D coordinates assigned)
O=C(COn1c([O-])ccc1[O-])/N=c1\[n-]cc(Cc2ccccc2Cl)s1 (optimized conformer: 97.4038084968815 kcal/mol)

>  <smiles>  (74) 
O=C(COn1c(O)ccc1O)N=c1[nH]cc(Cc2ccccc2Cl)s1

>  <score_type>  (74) 
oracle

>  <origin>  (74) 
adg

>  <m_score__min__energy>  (74) 
-15.390000000000001

>  <m_primary>  (74) 
energy

$$$$
74:0
     RDKit          3D

 41 43  0  0  0  0  0  0  0  0999 V2000
   54.0340   26.3170   46.3860 H   0  0  0  0  0  0  0  0  0  0  0  0
   54.9560   26.4540   45.9880 O   0  0  0  0  0  0  0  0  0  0  0  0
   55.8650   25.4030   45.8670 C   0  0  0  0  0  0  0  0  0  0  0  0
   55.5690   24.1580   46.4380 C   0  0  0  0  0  0  0  0  0  0  0  0
   54.6046   24.0034   46.9439 H   0  0  0  0  0  0  0  0  0  0  0  0
   56.4920   23.1130   46.3680 C   0  0  0  0  0  0  0  0  0  0  0  0
   56.2472   22.1386   46.8159 H   0  0  0  0  0  0  0  0  0  0  0  0
   57.7320   23.2950   45.7300 C   0  0  0  0  0  0  0  0  0  0  0  0
   58.6940   22.2240   45.6750 N   0  0  0  0  0  0  0  0  0  0  0  0
   58.3710   21.0610   45.9930 O   0  0  0  0  0  0  0  0  0  0  0  0
   59.9820   22.4610   45.2540 O   0  0  0  0  0  0  0  0  0  0  0  0
   58.0200   24.5420   45.1470 C   0  0  0  0  0  0  0  0  0  0  0  0
   58.9896   24.6992   44.6519 H   0  0  0  0  0  0  0  0  0  0  0  0
   57.0860   25.5880   45.1890 C   0  0  0  0  0  0  0  0  0  0  0  0
   57.4400   26.8810   44.5600 C   0  0  0  0  0  0  0  0  0  0  0  0
   56.7218   27.3243   43.8545 H   0  0  0  0  0  0  0  0  0  0  0  0
   58.5480   27.5270   44.7890 N   0  0  0  0  0  0  0  0  0  0  0  0
   58.6890   28.9050   45.1760 C   0  0  0  0  0  0  0  0  0  0  0  0
   59.6360   29.3100   46.1330 C   0  0  0  0  0  0  0  0  0  0  0  0
   60.2935   28.5639   46.6032 H   0  0  0  0  0  0  0  0  0  0  0  0
   59.7450   30.6570   46.4890 C   0  0  0  0  0  0  0  0  0  0  0  0
   60.4984   30.9678   47.2278 H   0  0  0  0  0  0  0  0  0  0  0  0
   58.8980   31.6170   45.9090 C   0  0  0  0  0  0  0  0  0  0  0  0
   59.0170   33.0100   46.2570 N   0  0  0  0  0  0  0  0  0  0  0  0
   58.8470   34.0460   45.2330 C   0  0  0  0  0  0  0  0  0  0  0  0
   59.2306   33.6758   44.2708 H   0  0  0  0  0  0  0  0  0  0  0  0
   57.7789   34.2902   45.1349 H   0  0  0  0  0  0  0  0  0  0  0  0
   59.6210   35.3050   45.6400 C   0  0  0  0  0  0  0  0  0  0  0  0
   60.6997   35.0927   45.6034 H   0  0  0  0  0  0  0  0  0  0  0  0
   59.3664   36.1162   44.9421 H   0  0  0  0  0  0  0  0  0  0  0  0
   59.2720   35.7080   46.9500 O   0  0  0  0  0  0  0  0  0  0  0  0
   59.6830   34.7230   47.8800 C   0  0  0  0  0  0  0  0  0  0  0  0
   60.7591   34.5334   47.7533 H   0  0  0  0  0  0  0  0  0  0  0  0
   59.4771   35.0887   48.8968 H   0  0  0  0  0  0  0  0  0  0  0  0
   58.9130   33.4170   47.6610 C   0  0  0  0  0  0  0  0  0  0  0  0
   59.3380   32.6304   48.3019 H   0  0  0  0  0  0  0  0  0  0  0  0
   57.8545   33.5716   47.9173 H   0  0  0  0  0  0  0  0  0  0  0  0
   57.9230   31.2000   44.9890 C   0  0  0  0  0  0  0  0  0  0  0  0
   57.2405   31.9392   44.5443 H   0  0  0  0  0  0  0  0  0  0  0  0
   57.8130   29.8530   44.6340 C   0  0  0  0  0  0  0  0  0  0  0  0
   57.0341   29.5359   43.9250 H   0  0  0  0  0  0  0  0  0  0  0  0
  1  2  1  0
  2  3  1  0
  3  4  2  0
  4  5  1  0
  4  6  1  0
  6  7  1  0
  6  8  2  0
  8  9  1  0
  9 10  2  0
  9 11  1  0
  8 12  1  0
 12 13  1  0
 12 14  2  0
 14 15  1  0
 15 16  1  0
 15 17  2  0
 17 18  1  0
 18 19  2  0
 19 20  1  0
 19 21  1  0
 21 22  1  0
 21 23  2  0
 23 24  1  0
 24 25  1  0
 25 26  1  0
 25 27  1  0
 25 28  1  0
 28 29  1  0
 28 30  1  0
 28 31  1  0
 31 32  1  0
 32 33  1  0
 32 34  1  0
 32 35  1  0
 35 36  1  0
 35 37  1  0
 23 38  1  0
 38 39  1  0
 38 40  2  0
 40 41  1  0
 14  3  1  0
 40 18  1  0
 35 24  1  0
M  CHG  2   9   1  11  -1
M  END
>  <UniqueID>  (75) 
72

>  <SMILES>  (75) 
O=[N+]([O-])c1ccc(O)c(/C=N\c2ccc(N3CCOCC3)cc2)c1

>  <Energy>  (75) 
60.94155089588275

>  <Genealogy>  (75) 
O=[N+]([O-])c1ccc(O)c(/C=N\c2ccc(N3CCOCC3)cc2)c1 (cis-trans isomerization)
O=[N+]([O-])c1ccc(O)c(/C=N\c2ccc(N3CCOCC3)cc2)c1 (3D coordinates assigned)
O=[N+]([O-])c1ccc(O)c(/C=N\c2ccc(N3CCOCC3)cc2)c1 (nonaromatic ring conformer: 60.94155089588275 kcal/mol)

>  <smiles>  (75) 
O=[N+]([O-])c1ccc(O)c(C=Nc2ccc(N3CCOCC3)cc2)c1

>  <score_type>  (75) 
oracle

>  <origin>  (75) 
adg

>  <m_score__min__energy>  (75) 
-8.5199999999999996

>  <m_primary>  (75) 
energy

$$$$
75:0
     RDKit          3D

 48 50  0  0  0  0  0  0  0  0999 V2000
   56.2330   22.4310   48.4040 C   0  0  0  0  0  0  0  0  0  0  0  0
   57.3060   22.3450   47.4710 O   0  0  0  0  0  0  0  0  0  0  0  0
   57.1470   22.3010   46.0760 C   0  0  0  0  0  0  0  0  0  0  0  0
   57.6150   21.2120   45.3120 C   0  0  0  0  0  0  0  0  0  0  0  0
   57.3820   21.1610   43.9360 C   0  0  0  0  0  0  0  0  0  0  0  0
   56.6730   22.1860   43.3070 C   0  0  0  0  0  0  0  0  0  0  0  0
   56.2120   23.2750   44.0490 C   0  0  0  0  0  0  0  0  0  0  0  0
   56.4700   23.3580   45.4240 C   0  0  0  0  0  0  0  0  0  0  0  0
   55.9780   24.4990   46.1430 N   0  0  0  0  0  0  0  0  0  0  0  0
   56.1290   25.8620   45.7300 C   0  0  0  0  0  0  0  0  0  0  0  0
   55.2480   26.7190   46.0070 O   0  0  0  0  0  0  0  0  0  0  0  0
   57.3940   26.2890   45.0560 C   0  0  0  0  0  0  0  0  0  0  0  0
   57.7580   27.6390   45.4870 N   0  0  0  0  0  0  0  0  0  0  0  0
   58.3410   27.9610   46.6640 C   0  0  0  0  0  0  0  0  0  0  0  0
   58.4990   29.3400   46.7660 C   0  0  0  0  0  0  0  0  0  0  0  0
   59.1080   30.0500   47.9090 C   0  0  0  0  0  0  0  0  0  0  0  0
   58.5880   29.9220   49.0490 O   0  0  0  0  0  0  0  0  0  0  0  0
   60.2580   30.9610   47.7310 C   0  0  0  0  0  0  0  0  0  0  0  0
   61.4190   30.4660   47.7070 O   0  0  0  0  0  0  0  0  0  0  0  0
   60.0900   32.3870   47.5710 N   0  0  0  0  0  0  0  0  0  0  0  0
   58.7950   33.0320   47.8220 C   0  0  0  0  0  0  0  0  0  0  0  0
   61.2580   33.2060   47.2290 C   0  0  0  0  0  0  0  0  0  0  0  0
   57.9960   29.8640   45.5830 C   0  0  0  0  0  0  0  0  0  0  0  0
   57.9470   31.1730   45.0940 C   0  0  0  0  0  0  0  0  0  0  0  0
   57.3760   31.3840   43.8270 C   0  0  0  0  0  0  0  0  0  0  0  0
   56.8820   30.2990   43.0740 C   0  0  0  0  0  0  0  0  0  0  0  0
   56.9650   28.9880   43.5760 C   0  0  0  0  0  0  0  0  0  0  0  0
   57.5400   28.8020   44.8380 C   0  0  0  0  0  0  0  0  0  0  0  0
   56.6339   22.3989   49.4278 H   0  0  0  0  0  0  0  0  0  0  0  0
   55.6900   23.3755   48.2523 H   0  0  0  0  0  0  0  0  0  0  0  0
   55.5465   21.5850   48.2523 H   0  0  0  0  0  0  0  0  0  0  0  0
   58.1673   20.3973   45.8032 H   0  0  0  0  0  0  0  0  0  0  0  0
   57.7578   20.3116   43.3467 H   0  0  0  0  0  0  0  0  0  0  0  0
   56.4774   22.1355   42.2257 H   0  0  0  0  0  0  0  0  0  0  0  0
   55.6423   24.0734   43.5510 H   0  0  0  0  0  0  0  0  0  0  0  0
   58.2019   25.5913   45.3215 H   0  0  0  0  0  0  0  0  0  0  0  0
   57.2422   26.2858   43.9665 H   0  0  0  0  0  0  0  0  0  0  0  0
   58.6471   27.2356   47.4322 H   0  0  0  0  0  0  0  0  0  0  0  0
   58.6303   33.1140   48.9065 H   0  0  0  0  0  0  0  0  0  0  0  0
   58.7927   34.0365   47.3738 H   0  0  0  0  0  0  0  0  0  0  0  0
   57.9919   32.4286   47.3738 H   0  0  0  0  0  0  0  0  0  0  0  0
   61.7479   33.5495   48.1520 H   0  0  0  0  0  0  0  0  0  0  0  0
   61.9666   32.6059   46.6393 H   0  0  0  0  0  0  0  0  0  0  0  0
   60.9353   34.0767   46.6393 H   0  0  0  0  0  0  0  0  0  0  0  0
   58.3436   32.0129   45.6834 H   0  0  0  0  0  0  0  0  0  0  0  0
   57.3140   32.4039   43.4196 H   0  0  0  0  0  0  0  0  0  0  0  0
   56.4290   30.4791   42.0879 H   0  0  0  0  0  0  0  0  0  0  0  0
   56.5890   28.1339   42.9937 H   0  0  0  0  0  0  0  0  0  0  0  0
  1  2  1  0
  2  3  1  0
  3  4  2  0
  4  5  1  0
  5  6  2  0
  6  7  1  0
  7  8  2  0
  8  9  1  0
  9 10  1  0
 10 11  2  0
 10 12  1  0
 12 13  1  0
 13 14  1  0
 14 15  2  0
 15 16  1  0
 16 17  2  0
 16 18  1  0
 18 19  2  0
 18 20  1  0
 20 21  1  0
 20 22  1  0
 15 23  1  0
 23 24  2  0
 24 25  1  0
 25 26  2  0
 26 27  1  0
 27 28  2  0
  8  3  1  0
 28 13  1  0
 28 23  1  0
  1 29  1  0
  1 30  1  0
  1 31  1  0
  4 32  1  0
  5 33  1  0
  6 34  1  0
  7 35  1  0
 12 36  1  0
 12 37  1  0
 14 38  1  0
 21 39  1  0
 21 40  1  0
 21 41  1  0
 22 42  1  0
 22 43  1  0
 22 44  1  0
 24 45  1  0
 25 46  1  0
 26 47  1  0
 27 48  1  0
M  CHG  1   9  -1
M  END
>  <UniqueID>  (76) 
73

>  <SMILES>  (76) 
COc1ccccc1[N-]C(=O)Cn1cc(C(=O)C(=O)N(C)C)c2ccccc21

>  <Energy>  (76) 
90.15675358400136

>  <Genealogy>  (76) 
COc1ccccc1[N-]C(=O)Cn1cc(C(=O)C(=O)N(C)C)c2ccccc21 (protonated)
COc1ccccc1[N-]C(=O)Cn1cc(C(=O)C(=O)N(C)C)c2ccccc21 (3D coordinates assigned)
COc1ccccc1[N-]C(=O)Cn1cc(C(=O)C(=O)N(C)C)c2ccccc21 (optimized conformer: 90.15675358400136 kcal/mol)

>  <smiles>  (76) 
COc1ccccc1NC(=O)Cn1cc(C(=O)C(=O)N(C)C)c2ccccc21

>  <score_type>  (76) 
oracle

>  <origin>  (76) 
adg

>  <m_score__min__energy>  (76) 
-11.380000000000001

>  <m_primary>  (76) 
energy

$$$$
76:0
     RDKit          3D

 31 32  0  0  0  0  0  0  0  0999 V2000
   55.1440   26.7250   45.9850 N   0  0  0  0  0  0  0  0  0  0  0  0
   56.4390   26.1730   46.2160 C   0  0  0  0  0  0  0  0  0  0  0  0
   56.5880   24.9230   46.2110 O   0  0  0  0  0  0  0  0  0  0  0  0
   57.5740   27.0670   46.5330 C   0  0  0  0  0  0  0  0  0  0  0  0
   58.4850   26.6370   47.5160 C   0  0  0  0  0  0  0  0  0  0  0  0
   59.6130   27.3960   47.8250 C   0  0  0  0  0  0  0  0  0  0  0  0
   59.8480   28.5990   47.1650 C   0  0  0  0  0  0  0  0  0  0  0  0
   58.9480   29.0550   46.2030 C   0  0  0  0  0  0  0  0  0  0  0  0
   57.7980   28.3110   45.8770 C   0  0  0  0  0  0  0  0  0  0  0  0
   56.8060   28.9380   44.9170 C   0  0  0  0  0  0  0  0  0  0  0  0
   57.3350   30.2570   44.3350 C   0  0  0  0  0  0  0  0  0  0  0  0
   56.6420   31.4140   44.8980 N   0  0  0  0  0  0  0  0  0  0  0  0
   57.2180   32.6270   45.4080 C   0  0  0  0  0  0  0  0  0  0  0  0
   56.6400   33.7130   45.1400 O   0  0  0  0  0  0  0  0  0  0  0  0
   58.4610   32.6710   46.2080 C   0  0  0  0  0  0  0  0  0  0  0  0
   58.6490   31.9990   47.4140 C   0  0  0  0  0  0  0  0  0  0  0  0
   59.9330   32.1540   47.9480 C   0  0  0  0  0  0  0  0  0  0  0  0
   60.7650   32.9290   47.1550 C   0  0  0  0  0  0  0  0  0  0  0  0
   62.5830   33.3640   47.5290 Br  0  0  0  0  0  0  0  0  0  0  0  0
   59.9130   33.4220   45.7970 S   0  0  0  0  0  0  0  0  0  0  0  0
   54.5590   27.0670   46.7800 H   0  0  0  0  0  0  0  0  0  0  0  0
   58.3048   25.6906   48.0469 H   0  0  0  0  0  0  0  0  0  0  0  0
   60.3186   27.0436   48.5918 H   0  0  0  0  0  0  0  0  0  0  0  0
   60.7446   29.1902   47.4028 H   0  0  0  0  0  0  0  0  0  0  0  0
   59.1391   30.0098   45.6913 H   0  0  0  0  0  0  0  0  0  0  0  0
   56.6152   28.2355   44.0923 H   0  0  0  0  0  0  0  0  0  0  0  0
   55.8814   29.1545   45.4722 H   0  0  0  0  0  0  0  0  0  0  0  0
   58.4085   30.3405   44.5600 H   0  0  0  0  0  0  0  0  0  0  0  0
   57.1587   30.2473   43.2493 H   0  0  0  0  0  0  0  0  0  0  0  0
   57.8626   31.4031   47.9002 H   0  0  0  0  0  0  0  0  0  0  0  0
   60.2503   31.7059   48.9012 H   0  0  0  0  0  0  0  0  0  0  0  0
  1  2  1  0
  2  3  2  0
  2  4  1  0
  4  5  2  0
  5  6  1  0
  6  7  2  0
  7  8  1  0
  8  9  2  0
  9 10  1  0
 10 11  1  0
 11 12  1  0
 12 13  1  0
 13 14  2  0
 13 15  1  0
 15 16  2  0
 16 17  1  0
 17 18  2  0
 18 19  1  0
 18 20  1  0
  9  4  1  0
 20 15  1  0
  1 21  1  0
  5 22  1  0
  6 23  1  0
  7 24  1  0
  8 25  1  0
 10 26  1  0
 10 27  1  0
 11 28  1  0
 11 29  1  0
 16 30  1  0
 17 31  1  0
M  CHG  2   1  -1  12  -1
M  END
>  <UniqueID>  (77) 
74

>  <SMILES>  (77) 
[NH-]C(=O)c1ccccc1CC[N-]C(=O)c1ccc(Br)s1

>  <Energy>  (77) 
63.3600076331939

>  <Genealogy>  (77) 
[NH-]C(=O)c1ccccc1CC[N-]C(=O)c1ccc(Br)s1 (protonated)
[NH-]C(=O)c1ccccc1CC[N-]C(=O)c1ccc(Br)s1 (3D coordinates assigned)
[NH-]C(=O)c1ccccc1CC[N-]C(=O)c1ccc(Br)s1 (optimized conformer: 63.3600076331939 kcal/mol)

>  <smiles>  (77) 
NC(=O)c1ccccc1CCNC(=O)c1ccc(Br)s1

>  <score_type>  (77) 
oracle

>  <origin>  (77) 
adg

>  <m_score__min__energy>  (77) 
-12.710000000000001

>  <m_primary>  (77) 
energy

$$$$
77:0
     RDKit          3D

 48 53  0  0  0  0  0  0  0  0999 V2000
   56.4390   28.0850   44.8210 H   0  0  0  0  0  0  0  0  0  0  0  0
   55.8970   27.7550   45.6090 O   0  0  0  0  0  0  0  0  0  0  0  0
   55.6920   26.3970   45.8360 C   0  0  0  0  0  0  0  0  0  0  0  0
   54.4800   25.8190   45.8090 N   0  0  0  0  0  0  0  0  0  0  0  0
   54.7640   24.5160   46.0130 C   0  0  0  0  0  0  0  0  0  0  0  0
   53.8740   23.6260   46.0520 O   0  0  0  0  0  0  0  0  0  0  0  0
   56.0760   24.2380   46.1650 N   0  0  0  0  0  0  0  0  0  0  0  0
   56.6620   25.4450   46.0740 C   0  0  0  0  0  0  0  0  0  0  0  0
   58.1200   25.6420   46.1180 C   0  0  0  0  0  0  0  0  0  0  0  0
   58.7566   24.9037   45.6085 H   0  0  0  0  0  0  0  0  0  0  0  0
   58.7190   26.6660   46.7410 C   0  0  0  0  0  0  0  0  0  0  0  0
   59.2740   26.6390   48.0150 C   0  0  0  0  0  0  0  0  0  0  0  0
   59.3053   25.7570   48.6716 H   0  0  0  0  0  0  0  0  0  0  0  0
   59.7700   27.8580   48.3280 N   0  0  0  0  0  0  0  0  0  0  0  0
   59.5380   28.6560   47.2980 N   0  0  0  0  0  0  0  0  0  0  0  0
   59.8290   29.9820   47.1450 C   0  0  0  0  0  0  0  0  0  0  0  0
   60.4420   30.7040   48.0450 N   0  0  0  0  0  0  0  0  0  0  0  0
   60.6510   32.1520   48.1050 C   0  0  2  0  0  0  0  0  0  0  0  0
   60.6444   32.4179   49.1724 H   0  0  0  0  0  0  0  0  0  0  0  0
   59.6070   32.8830   47.3280 C   0  0  0  0  0  0  0  0  0  0  0  0
   58.2160   32.7790   47.4510 C   0  0  0  0  0  0  0  0  0  0  0  0
   57.7691   32.0819   48.1751 H   0  0  0  0  0  0  0  0  0  0  0  0
   57.4010   33.5800   46.6340 C   0  0  0  0  0  0  0  0  0  0  0  0
   56.3062   33.5107   46.7151 H   0  0  0  0  0  0  0  0  0  0  0  0
   57.9800   34.4690   45.7140 C   0  0  0  0  0  0  0  0  0  0  0  0
   57.3375   35.0972   45.0795 H   0  0  0  0  0  0  0  0  0  0  0  0
   59.3740   34.5580   45.6020 C   0  0  0  0  0  0  0  0  0  0  0  0
   59.8349   35.2522   44.8839 H   0  0  0  0  0  0  0  0  0  0  0  0
   60.1680   33.7490   46.4190 C   0  0  0  0  0  0  0  0  0  0  0  0
   61.6460   33.7050   46.4410 C   0  0  0  0  0  0  0  0  0  0  0  0
   62.0605   34.6434   46.8379 H   0  0  0  0  0  0  0  0  0  0  0  0
   62.0838   33.5826   45.4393 H   0  0  0  0  0  0  0  0  0  0  0  0
   61.9620   32.5260   47.3780 C   0  0  0  0  0  0  0  0  0  0  0  0
   62.7273   32.8221   48.1106 H   0  0  0  0  0  0  0  0  0  0  0  0
   62.3491   31.6686   46.8078 H   0  0  0  0  0  0  0  0  0  0  0  0
   59.4580   30.5800   45.9800 N   0  0  0  0  0  0  0  0  0  0  0  0
   58.8030   29.8880   44.9990 C   0  0  0  0  0  0  0  0  0  0  0  0
   58.4360   30.4540   43.8820 N   0  0  0  0  0  0  0  0  0  0  0  0
   57.1170   30.8370   43.3390 C   0  0  0  0  0  0  0  0  0  0  0  0
   57.4907   31.7846   42.9238 H   0  0  0  0  0  0  0  0  0  0  0  0
   56.2260   29.7170   42.8240 C   0  0  0  0  0  0  0  0  0  0  0  0
   55.5974   29.8777   41.9357 H   0  0  0  0  0  0  0  0  0  0  0  0
   56.3850   28.6715   42.5212 H   0  0  0  0  0  0  0  0  0  0  0  0
   55.8910   30.4260   44.1380 C   0  0  0  0  0  0  0  0  0  0  0  0
   55.0210   31.0967   44.1954 H   0  0  0  0  0  0  0  0  0  0  0  0
   55.7087   30.1021   45.1733 H   0  0  0  0  0  0  0  0  0  0  0  0
   58.5200   28.5690   45.1820 N   0  0  0  0  0  0  0  0  0  0  0  0
   58.9100   27.9740   46.3330 C   0  0  0  0  0  0  0  0  0  0  0  0
  1  2  1  0
  2  3  1  0
  3  4  1  0
  4  5  1  0
  5  6  2  0
  5  7  1  0
  7  8  1  0
  8  9  1  0
  9 10  1  0
  9 11  2  3
 11 12  1  0
 12 13  1  0
 12 14  2  0
 14 15  1  0
 15 16  1  0
 16 17  2  0
 17 18  1  0
 18 19  1  1
 18 20  1  0
 20 21  2  0
 21 22  1  0
 21 23  1  0
 23 24  1  0
 23 25  2  0
 25 26  1  0
 25 27  1  0
 27 28  1  0
 27 29  2  0
 29 30  1  0
 30 31  1  0
 30 32  1  0
 30 33  1  0
 33 34  1  0
 33 35  1  0
 16 36  1  0
 36 37  1  0
 37 38  2  3
 38 39  1  0
 39 40  1  0
 39 41  1  0
 41 42  1  0
 41 43  1  0
 41 44  1  0
 44 45  1  0
 44 46  1  0
 37 47  1  0
 47 48  2  0
  8  3  2  0
 48 11  1  0
 48 15  1  0
 33 18  1  0
 44 39  1  0
 29 20  1  0
M  CHG  3   4  -1   7  -1  36  -1
M  END
>  <UniqueID>  (78) 
75

>  <SMILES>  (78) 
O=c1[n-]c(O)c(C=c2cnn3/c(=N\[C@H]4CCc5ccccc54)[n-]c(=NC4CC4)nc23)[n-]1

>  <Energy>  (78) 
417.36498386542115

>  <Genealogy>  (78) 
O=c1[n-]c(O)c(C=c2cnn3c(=NC4CCc5ccccc54)[n-]c(=NC4CC4)nc23)[n-]1 (protonated)
O=c1[n-]c(O)c(C=c2cnn3c(=N[C@H]4CCc5ccccc54)[n-]c(=NC4CC4)nc23)[n-]1 (chirality)
O=c1[n-]c(O)c(C=c2cnn3/c(=N\[C@H]4CCc5ccccc54)[n-]c(=NC4CC4)nc23)[n-]1 (cis-trans isomerization)
O=c1[n-]c(O)c(C=c2cnn3/c(=N\[C@H]4CCc5ccccc54)[n-]c(=NC4CC4)nc23)[n-]1 (3D coordinates assigned)
O=c1[n-]c(O)c(C=c2cnn3/c(=N\[C@H]4CCc5ccccc54)[n-]c(=NC4CC4)nc23)[n-]1 (nonaromatic ring conformer: 417.36498386542115 kcal/mol)

>  <smiles>  (78) 
O=c1[nH]c(O)c(C=c2cnn3c(=NC4CCc5ccccc54)[nH]c(=NC4CC4)nc23)[nH]1

>  <score_type>  (78) 
oracle

>  <origin>  (78) 
adg

>  <m_score__min__energy>  (78) 
-14.449999999999999

>  <m_primary>  (78) 
energy

$$$$
78:0
     RDKit          3D

 34 36  0  0  0  0  0  0  0  0999 V2000
   64.5820   33.0970   49.0170 C   0  0  0  0  0  0  0  0  0  0  0  0
   63.3970   33.3610   48.2020 C   0  0  0  0  0  0  0  0  0  0  0  0
   63.2400   33.6020   46.8450 C   0  0  0  0  0  0  0  0  0  0  0  0
   62.0110   33.8180   46.3880 C   0  0  0  0  0  0  0  0  0  0  0  0
   60.9590   33.7910   47.2870 C   0  0  0  0  0  0  0  0  0  0  0  0
   59.5490   33.9940   47.1180 C   0  0  0  0  0  0  0  0  0  0  0  0
   58.7760   33.6000   48.0360 O   0  0  0  0  0  0  0  0  0  0  0  0
   58.9230   34.6370   45.9450 C   0  0  0  0  0  0  0  0  0  0  0  0
   57.3980   33.8060   45.4900 S   0  0  0  0  0  0  0  0  0  0  0  0
   57.5530   32.0420   45.3780 C   0  0  0  0  0  0  0  0  0  0  0  0
   56.6950   31.3090   44.6420 N   0  0  0  0  0  0  0  0  0  0  0  0
   56.8010   29.9480   44.5640 C   0  0  0  0  0  0  0  0  0  0  0  0
   55.9350   29.3600   43.8400 N   0  0  0  0  0  0  0  0  0  0  0  0
   57.8170   29.3530   45.2650 C   0  0  0  0  0  0  0  0  0  0  0  0
   57.9500   27.9950   45.2050 C   0  0  0  0  0  0  0  0  0  0  0  0
   58.9610   27.3610   45.8960 C   0  0  0  0  0  0  0  0  0  0  0  0
   59.8440   28.1040   46.6520 C   0  0  0  0  0  0  0  0  0  0  0  0
   59.7390   29.4800   46.7350 C   0  0  0  0  0  0  0  0  0  0  0  0
   58.7100   30.0760   46.0270 C   0  0  0  0  0  0  0  0  0  0  0  0
   58.5580   31.4290   46.0690 N   0  0  0  0  0  0  0  0  0  0  0  0
   61.6870   33.4460   48.8760 S   0  0  0  0  0  0  0  0  0  0  0  0
   64.3149   33.1565   50.0824 H   0  0  0  0  0  0  0  0  0  0  0  0
   64.9659   32.0913   48.7908 H   0  0  0  0  0  0  0  0  0  0  0  0
   65.3566   33.8446   48.7908 H   0  0  0  0  0  0  0  0  0  0  0  0
   64.1066   33.6140   46.1677 H   0  0  0  0  0  0  0  0  0  0  0  0
   61.8339   34.0137   45.3201 H   0  0  0  0  0  0  0  0  0  0  0  0
   58.7018   35.6872   46.1863 H   0  0  0  0  0  0  0  0  0  0  0  0
   59.6216   34.5741   45.0976 H   0  0  0  0  0  0  0  0  0  0  0  0
   55.9070   28.3520   43.7070 H   0  0  0  0  0  0  0  0  0  0  0  0
   57.2460   27.4032   44.6015 H   0  0  0  0  0  0  0  0  0  0  0  0
   59.0630   26.2669   45.8446 H   0  0  0  0  0  0  0  0  0  0  0  0
   60.6481   27.5911   47.2000 H   0  0  0  0  0  0  0  0  0  0  0  0
   60.4420   30.0746   47.3369 H   0  0  0  0  0  0  0  0  0  0  0  0
   59.2410   31.9740   46.6510 H   0  0  0  0  0  0  0  0  0  0  0  0
  1  2  1  0
  2  3  2  0
  3  4  1  0
  4  5  2  0
  5  6  1  0
  6  7  2  0
  6  8  1  0
  8  9  1  0
  9 10  1  0
 10 11  2  0
 11 12  1  0
 12 13  2  3
 12 14  1  0
 14 15  2  0
 15 16  1  0
 16 17  2  0
 17 18  1  0
 18 19  2  0
 19 20  1  0
  5 21  1  0
 21  2  1  0
 20 10  1  0
 19 14  1  0
  1 22  1  0
  1 23  1  0
  1 24  1  0
  3 25  1  0
  4 26  1  0
  8 27  1  0
  8 28  1  0
 13 29  1  0
 15 30  1  0
 16 31  1  0
 17 32  1  0
 18 33  1  0
 20 34  1  0
M  END
>  <smiles>  (79) 
Cc1ccc(C(=O)CSc2nc(=N)c3ccccc3[nH]2)s1

>  <score_type>  (79) 
oracle

>  <origin>  (79) 
adg

>  <m_score__min__energy>  (79) 
-8.4900000000000002

>  <m_primary>  (79) 
energy

$$$$
79:0
     RDKit          3D

 43 46  0  0  0  0  0  0  0  0999 V2000
   60.4990   26.7900   46.3580 C   0  0  0  0  0  0  0  0  0  0  0  0
   59.2340   25.9780   46.2950 C   0  0  0  0  0  0  0  0  0  0  0  0
   59.3130   24.6400   45.8660 C   0  0  0  0  0  0  0  0  0  0  0  0
   58.1650   23.8540   45.7720 C   0  0  0  0  0  0  0  0  0  0  0  0
   56.9220   24.3890   46.1020 C   0  0  0  0  0  0  0  0  0  0  0  0
   56.8250   25.7080   46.5470 C   0  0  0  0  0  0  0  0  0  0  0  0
   57.9750   26.5100   46.6820 C   0  0  0  0  0  0  0  0  0  0  0  0
   57.8040   27.9350   47.1650 C   0  0  0  0  0  0  0  0  0  0  0  0
   57.5830   28.8840   46.0660 N   0  0  0  0  0  0  0  0  0  0  0  0
   56.5000   28.8910   45.2590 C   0  0  0  0  0  0  0  0  0  0  0  0
   55.5250   27.9000   45.2460 O   0  0  0  0  0  0  0  0  0  0  0  0
   56.4770   30.0260   44.4850 C   0  0  0  0  0  0  0  0  0  0  0  0
   55.5070   30.3720   43.5490 O   0  0  0  0  0  0  0  0  0  0  0  0
   57.5860   30.7730   44.8250 C   0  0  0  0  0  0  0  0  0  0  0  0
   57.9050   32.1190   44.3070 C   0  0  0  0  0  0  0  0  0  0  0  0
   57.7240   32.3630   43.0850 O   0  0  0  0  0  0  0  0  0  0  0  0
   58.4590   33.1700   45.1750 C   0  0  0  0  0  0  0  0  0  0  0  0
   57.8670   33.6670   46.3200 C   0  0  0  0  0  0  0  0  0  0  0  0
   58.7280   34.6310   46.7960 C   0  0  0  0  0  0  0  0  0  0  0  0
   59.7860   34.6700   45.9110 C   0  0  0  0  0  0  0  0  0  0  0  0
   59.5950   33.7910   44.9550 O   0  0  0  0  0  0  0  0  0  0  0  0
   58.2490   30.0430   45.8150 C   0  0  0  0  0  0  0  0  0  0  0  0
   59.3710   30.5540   46.6220 C   0  0  0  0  0  0  0  0  0  0  0  0
   60.7160   30.3680   46.3330 C   0  0  0  0  0  0  0  0  0  0  0  0
   61.5670   30.8450   47.3370 C   0  0  0  0  0  0  0  0  0  0  0  0
   60.8950   31.3860   48.4260 C   0  0  0  0  0  0  0  0  0  0  0  0
   59.2430   31.2640   48.1410 S   0  0  0  0  0  0  0  0  0  0  0  0
   60.7707   26.9644   47.4095 H   0  0  0  0  0  0  0  0  0  0  0  0
   61.3107   26.2438   45.8553 H   0  0  0  0  0  0  0  0  0  0  0  0
   60.3404   27.7555   45.8553 H   0  0  0  0  0  0  0  0  0  0  0  0
   60.2904   24.2098   45.6021 H   0  0  0  0  0  0  0  0  0  0  0  0
   58.2412   22.8092   45.4365 H   0  0  0  0  0  0  0  0  0  0  0  0
   56.0163   23.7713   46.0118 H   0  0  0  0  0  0  0  0  0  0  0  0
   55.8385   26.1265   46.7954 H   0  0  0  0  0  0  0  0  0  0  0  0
   56.9392   27.9750   47.8436 H   0  0  0  0  0  0  0  0  0  0  0  0
   58.7346   28.2270   47.6737 H   0  0  0  0  0  0  0  0  0  0  0  0
   55.6980   31.0600   42.8300 H   0  0  0  0  0  0  0  0  0  0  0  0
   56.9076   33.3573   46.7600 H   0  0  0  0  0  0  0  0  0  0  0  0
   58.5984   35.2455   47.6991 H   0  0  0  0  0  0  0  0  0  0  0  0
   60.6572   35.3365   45.9940 H   0  0  0  0  0  0  0  0  0  0  0  0
   61.0767   29.8937   45.4084 H   0  0  0  0  0  0  0  0  0  0  0  0
   62.6639   30.7961   47.2700 H   0  0  0  0  0  0  0  0  0  0  0  0
   61.3638   31.8199   49.3215 H   0  0  0  0  0  0  0  0  0  0  0  0
  1  2  1  0
  2  3  2  0
  3  4  1  0
  4  5  2  0
  5  6  1  0
  6  7  2  0
  7  8  1  0
  8  9  1  0
  9 10  1  0
 10 11  1  0
 10 12  2  0
 12 13  1  0
 12 14  1  0
 14 15  1  0
 15 16  2  0
 15 17  1  0
 17 18  2  0
 18 19  1  0
 19 20  2  0
 20 21  1  0
 14 22  2  0
 22 23  1  0
 23 24  2  0
 24 25  1  0
 25 26  2  0
 26 27  1  0
  7  2  1  0
 22  9  1  0
 27 23  1  0
 21 17  1  0
  1 28  1  0
  1 29  1  0
  1 30  1  0
  3 31  1  0
  4 32  1  0
  5 33  1  0
  6 34  1  0
  8 35  1  0
  8 36  1  0
 13 37  1  0
 18 38  1  0
 19 39  1  0
 20 40  1  0
 24 41  1  0
 25 42  1  0
 26 43  1  0
M  CHG  1  11  -1
M  END
>  <UniqueID>  (80) 
76

>  <SMILES>  (80) 
Cc1ccccc1Cn1c([O-])c(O)c(C(=O)c2ccco2)c1-c1cccs1

>  <Energy>  (80) 
137.07221564258876

>  <Genealogy>  (80) 
Cc1ccccc1Cn1c([O-])c(O)c(C(=O)c2ccco2)c1-c1cccs1 (protonated)
Cc1ccccc1Cn1c([O-])c(O)c(C(=O)c2ccco2)c1-c1cccs1 (3D coordinates assigned)
Cc1ccccc1Cn1c([O-])c(O)c(C(=O)c2ccco2)c1-c1cccs1 (optimized conformer: 137.07221564258876 kcal/mol)

>  <smiles>  (80) 
Cc1ccccc1Cn1c(O)c(O)c(C(=O)c2ccco2)c1-c1cccs1

>  <score_type>  (80) 
oracle

>  <origin>  (80) 
adg

>  <m_score__min__energy>  (80) 
-10.68

>  <m_primary>  (80) 
energy

$$$$
80:0
     RDKit          3D

 47 49  0  0  0  0  0  0  0  0999 V2000
   57.7393   32.4544   49.2144 H   0  0  0  0  0  0  0  0  0  0  0  0
   58.5680   31.7310   49.2170 C   0  0  0  0  0  0  0  0  0  0  0  0
   59.2140   31.4330   48.0580 N   0  0  0  0  0  0  0  0  0  0  0  0
   60.2470   30.5470   48.0230 C   0  0  0  0  0  0  0  0  0  0  0  0
   61.0770   30.2080   46.4690 S   0  0  0  0  0  0  0  0  0  0  0  0
   59.9710   28.8320   45.9990 C   0  0  0  0  0  0  0  0  0  0  0  0
   59.6959   28.2655   46.9009 H   0  0  0  0  0  0  0  0  0  0  0  0
   60.4988   28.1814   45.2862 H   0  0  0  0  0  0  0  0  0  0  0  0
   58.7280   29.3520   45.3470 C   0  0  0  0  0  0  0  0  0  0  0  0
   58.3500   30.6550   45.4660 N   0  0  0  0  0  0  0  0  0  0  0  0
   57.1740   30.8950   44.8500 C   0  0  0  0  0  0  0  0  0  0  0  0
   56.6200   32.0720   44.8630 N   0  0  0  0  0  0  0  0  0  0  0  0
   57.2420   33.3300   45.1700 C   0  0  0  0  0  0  0  0  0  0  0  0
   56.7190   34.4200   44.8120 O   0  0  0  0  0  0  0  0  0  0  0  0
   58.4850   33.3320   45.8800 N   0  0  0  0  0  0  0  0  0  0  0  0
   58.9110   32.4160   46.1510 H   0  0  0  0  0  0  0  0  0  0  0  0
   59.1810   34.5630   46.2490 C   0  0  0  0  0  0  0  0  0  0  0  0
   58.4800   35.2344   46.7665 H   0  0  0  0  0  0  0  0  0  0  0  0
   59.5620   35.0445   45.3363 H   0  0  0  0  0  0  0  0  0  0  0  0
   60.3410   34.2580   47.1610 C   0  0  0  0  0  0  0  0  0  0  0  0
   60.2400   34.4830   48.5420 C   0  0  0  0  0  0  0  0  0  0  0  0
   59.3082   34.8883   48.9633 H   0  0  0  0  0  0  0  0  0  0  0  0
   61.3170   34.1950   49.3860 C   0  0  0  0  0  0  0  0  0  0  0  0
   61.2248   34.3770   50.4669 H   0  0  0  0  0  0  0  0  0  0  0  0
   62.5220   33.6730   48.8660 C   0  0  0  0  0  0  0  0  0  0  0  0
   63.6460   33.3870   49.7380 N   0  0  0  0  0  0  0  0  0  0  0  0
   63.8160   34.1210   50.9980 C   0  0  0  0  0  0  0  0  0  0  0  0
   63.6576   33.4372   51.8449 H   0  0  0  0  0  0  0  0  0  0  0  0
   64.8339   34.5352   51.0466 H   0  0  0  0  0  0  0  0  0  0  0  0
   63.0839   34.9406   51.0466 H   0  0  0  0  0  0  0  0  0  0  0  0
   64.6280   32.3570   49.3760 C   0  0  0  0  0  0  0  0  0  0  0  0
   65.0496   31.9148   50.2907 H   0  0  0  0  0  0  0  0  0  0  0  0
   64.1349   31.5726   48.7831 H   0  0  0  0  0  0  0  0  0  0  0  0
   65.4350   32.8121   48.7831 H   0  0  0  0  0  0  0  0  0  0  0  0
   62.6090   33.4450   47.4760 C   0  0  0  0  0  0  0  0  0  0  0  0
   63.5369   33.0367   47.0490 H   0  0  0  0  0  0  0  0  0  0  0  0
   61.5300   33.7320   46.6360 C   0  0  0  0  0  0  0  0  0  0  0  0
   61.6139   33.5440   45.5554 H   0  0  0  0  0  0  0  0  0  0  0  0
   56.5510   29.4950   44.1420 S   0  0  0  0  0  0  0  0  0  0  0  0
   57.8440   28.5410   44.6400 C   0  0  0  0  0  0  0  0  0  0  0  0
   57.9691   27.4662   44.4421 H   0  0  0  0  0  0  0  0  0  0  0  0
   60.6590   29.9070   49.1980 C   0  0  0  0  0  0  0  0  0  0  0  0
   61.4843   29.1801   49.1760 H   0  0  0  0  0  0  0  0  0  0  0  0
   60.0090   30.2030   50.3990 C   0  0  0  0  0  0  0  0  0  0  0  0
   60.3266   29.7151   51.3323 H   0  0  0  0  0  0  0  0  0  0  0  0
   58.9570   31.1180   50.4120 C   0  0  0  0  0  0  0  0  0  0  0  0
   58.4384   31.3552   51.3527 H   0  0  0  0  0  0  0  0  0  0  0  0
  1  2  1  0
  2  3  2  0
  3  4  1  0
  4  5  1  0
  5  6  1  0
  6  7  1  0
  6  8  1  0
  6  9  1  0
  9 10  1  0
 10 11  1  0
 11 12  2  0
 12 13  1  0
 13 14  2  0
 13 15  1  0
 15 16  1  0
 15 17  1  0
 17 18  1  0
 17 19  1  0
 17 20  1  0
 20 21  2  0
 21 22  1  0
 21 23  1  0
 23 24  1  0
 23 25  2  0
 25 26  1  0
 26 27  1  0
 27 28  1  0
 27 29  1  0
 27 30  1  0
 26 31  1  0
 31 32  1  0
 31 33  1  0
 31 34  1  0
 25 35  1  0
 35 36  1  0
 35 37  2  0
 37 38  1  0
 11 39  1  0
 39 40  1  0
 40 41  1  0
  4 42  2  0
 42 43  1  0
 42 44  1  0
 44 45  1  0
 44 46  2  0
 46 47  1  0
 46  2  1  0
 40  9  2  0
 37 20  1  0
M  CHG  1  10  -1
M  END
>  <UniqueID>  (81) 
77

>  <SMILES>  (81) 
CN(C)c1ccc(CNC(=O)/N=c2/[n-]c(CSc3ccccn3)cs2)cc1

>  <Energy>  (81) 
76.05276650561352

>  <Genealogy>  (81) 
CN(C)c1ccc(CNC(=O)N=c2[n-]c(CSc3ccccn3)cs2)cc1 (protonated)
CN(C)c1ccc(CNC(=O)/N=c2/[n-]c(CSc3ccccn3)cs2)cc1 (cis-trans isomerization)
CN(C)c1ccc(CNC(=O)/N=c2/[n-]c(CSc3ccccn3)cs2)cc1 (3D coordinates assigned)
CN(C)c1ccc(CNC(=O)/N=c2/[n-]c(CSc3ccccn3)cs2)cc1 (optimized conformer: 76.05276650561352 kcal/mol)

>  <smiles>  (81) 
CN(C)c1ccc(CNC(=O)N=c2[nH]c(CSc3ccccn3)cs2)cc1

>  <score_type>  (81) 
oracle

>  <origin>  (81) 
adg

>  <m_score__min__energy>  (81) 
-9.1500000000000004

>  <m_primary>  (81) 
energy

$$$$
81:0
     RDKit          3D

 60 63  0  0  0  0  0  0  0  0999 V2000
   61.8620   30.4570   52.5490 H   0  0  0  0  0  0  0  0  0  0  0  0
   61.8010   29.5560   52.0380 N   0  0  0  0  0  0  0  0  0  0  0  0
   61.2580   29.4150   50.8690 C   0  0  0  0  0  0  0  0  0  0  0  0
   61.2380   28.1710   50.3150 N   0  0  0  0  0  0  0  0  0  0  0  0
   60.5530   27.8920   49.1760 C   0  0  0  0  0  0  0  0  0  0  0  0
   60.5799   26.8769   48.7531 H   0  0  0  0  0  0  0  0  0  0  0  0
   59.8130   28.8950   48.5400 C   0  0  0  0  0  0  0  0  0  0  0  0
   59.0350   28.6080   47.3270 C   0  0  0  0  0  0  0  0  0  0  0  0
   58.1680   29.4790   46.6910 C   0  0  0  0  0  0  0  0  0  0  0  0
   58.0942   30.5592   46.8850 H   0  0  0  0  0  0  0  0  0  0  0  0
   57.4290   28.7950   45.7970 N   0  0  0  0  0  0  0  0  0  0  0  0
   57.8080   27.5230   45.8390 N   0  0  0  0  0  0  0  0  0  0  0  0
   57.0280   26.4570   45.2070 C   0  0  0  0  0  0  0  0  0  0  0  0
   56.5746   26.8326   44.2778 H   0  0  0  0  0  0  0  0  0  0  0  0
   57.6839   25.6064   44.9696 H   0  0  0  0  0  0  0  0  0  0  0  0
   55.9520   26.0190   46.1490 C   0  0  0  0  0  0  0  0  0  0  0  0
   54.7530   26.3390   45.9380 O   0  0  0  0  0  0  0  0  0  0  0  0
   56.2940   25.1790   47.2520 N   0  0  0  0  0  0  0  0  0  0  0  0
   56.4890   23.7380   47.1340 C   0  0  0  0  0  0  0  0  0  0  0  0
   56.7237   23.3164   48.1225 H   0  0  0  0  0  0  0  0  0  0  0  0
   55.5706   23.2712   46.7485 H   0  0  0  0  0  0  0  0  0  0  0  0
   57.6470   23.4640   46.1730 C   0  0  0  0  0  0  0  0  0  0  0  0
   58.1796   24.4057   45.9739 H   0  0  0  0  0  0  0  0  0  0  0  0
   58.3217   22.7301   46.6380 H   0  0  0  0  0  0  0  0  0  0  0  0
   57.1460   22.8970   44.8710 C   0  0  0  0  0  0  0  0  0  0  0  0
   57.7590   21.7680   44.3040 C   0  0  0  0  0  0  0  0  0  0  0  0
   58.6065   21.2840   44.8114 H   0  0  0  0  0  0  0  0  0  0  0  0
   57.2840   21.2640   43.0900 C   0  0  0  0  0  0  0  0  0  0  0  0
   57.7508   20.3729   42.6449 H   0  0  0  0  0  0  0  0  0  0  0  0
   56.2450   21.8740   42.4580 N   0  0  0  0  0  0  0  0  0  0  0  0
   55.6410   22.9780   42.9760 C   0  0  0  0  0  0  0  0  0  0  0  0
   54.8058   23.4507   42.4383 H   0  0  0  0  0  0  0  0  0  0  0  0
   56.0810   23.5120   44.1910 C   0  0  0  0  0  0  0  0  0  0  0  0
   55.5975   24.4062   44.6112 H   0  0  0  0  0  0  0  0  0  0  0  0
   58.7870   27.3680   46.7630 C   0  0  0  0  0  0  0  0  0  0  0  0
   59.2660   26.0520   47.3040 C   0  0  0  0  0  0  0  0  0  0  0  0
   59.2552   26.0818   48.4035 H   0  0  0  0  0  0  0  0  0  0  0  0
   58.6029   25.2478   46.9524 H   0  0  0  0  0  0  0  0  0  0  0  0
   60.2909   25.8622   46.9524 H   0  0  0  0  0  0  0  0  0  0  0  0
   59.8380   30.1910   49.0680 C   0  0  0  0  0  0  0  0  0  0  0  0
   59.2510   30.9868   48.5863 H   0  0  0  0  0  0  0  0  0  0  0  0
   60.6020   30.4840   50.2020 C   0  0  0  0  0  0  0  0  0  0  0  0
   60.6850   31.8320   50.5960 O   0  0  0  0  0  0  0  0  0  0  0  0
   61.8820   32.6260   50.5610 C   0  0  1  0  0  0  0  0  0  0  0  0
   62.7138   32.0109   50.9347 H   0  0  0  0  0  0  0  0  0  0  0  0
   62.2610   33.0360   49.1350 C   0  0  0  0  0  0  0  0  0  0  0  0
   63.6100   32.9280   48.6940 C   0  0  0  0  0  0  0  0  0  0  0  0
   64.9240   32.3690   49.7350 Cl  0  0  0  0  0  0  0  0  0  0  0  0
   63.9560   33.2820   47.3860 C   0  0  0  0  0  0  0  0  0  0  0  0
   65.0039   33.2070   47.0600 H   0  0  0  0  0  0  0  0  0  0  0  0
   62.9870   33.7280   46.4940 C   0  0  0  0  0  0  0  0  0  0  0  0
   63.2690   33.9899   45.4635 H   0  0  0  0  0  0  0  0  0  0  0  0
   61.6600   33.8440   46.9020 C   0  0  0  0  0  0  0  0  0  0  0  0
   60.7300   34.2680   46.0130 F   0  0  0  0  0  0  0  0  0  0  0  0
   61.2880   33.5200   48.2120 C   0  0  0  0  0  0  0  0  0  0  0  0
   59.5860   33.7250   48.6370 Cl  0  0  0  0  0  0  0  0  0  0  0  0
   61.7210   33.8440   51.4740 C   0  0  0  0  0  0  0  0  0  0  0  0
   61.7635   33.5225   52.5251 H   0  0  0  0  0  0  0  0  0  0  0  0
   62.5323   34.5601   51.2765 H   0  0  0  0  0  0  0  0  0  0  0  0
   60.7515   34.3247   51.2765 H   0  0  0  0  0  0  0  0  0  0  0  0
  1  2  1  0
  2  3  2  0
  3  4  1  0
  4  5  1  0
  5  6  1  0
  5  7  2  0
  7  8  1  0
  8  9  1  0
  9 10  1  0
  9 11  2  0
 11 12  1  0
 12 13  1  0
 13 14  1  0
 13 15  1  0
 13 16  1  0
 16 17  2  0
 16 18  1  0
 18 19  1  0
 19 20  1  0
 19 21  1  0
 19 22  1  0
 22 23  1  0
 22 24  1  0
 22 25  1  0
 25 26  2  0
 26 27  1  0
 26 28  1  0
 28 29  1  0
 28 30  2  0
 30 31  1  0
 31 32  1  0
 31 33  2  0
 33 34  1  0
 12 35  1  0
 35 36  1  0
 36 37  1  0
 36 38  1  0
 36 39  1  0
  7 40  1  0
 40 41  1  0
 40 42  2  0
 42 43  1  0
 43 44  1  0
 44 45  1  1
 44 46  1  0
 46 47  2  0
 47 48  1  0
 47 49  1  0
 49 50  1  0
 49 51  2  0
 51 52  1  0
 51 53  1  0
 53 54  1  0
 53 55  2  0
 55 56  1  0
 44 57  1  0
 57 58  1  0
 57 59  1  0
 57 60  1  0
 42  3  1  0
 55 46  1  0
 35  8  2  0
 33 25  1  0
M  CHG  2   4  -1  18  -1
M  END
>  <UniqueID>  (82) 
78

>  <SMILES>  (82) 
[H]/N=c1/[n-]cc(-c2cnn(CC(=O)[N-]CCc3ccncc3)c2C)cc1O[C@H](C)c1c(Cl)ccc(F)c1Cl

>  <Energy>  (82) 
109.60802977356452

>  <Genealogy>  (82) 
Cc1c(-c2c[n-]c(=N)c(OC(C)c3c(Cl)ccc(F)c3Cl)c2)cnn1CC(=O)[N-]CCc1ccncc1 (protonated)
Cc1c(-c2c[n-]c(=N)c(O[C@H](C)c3c(Cl)ccc(F)c3Cl)c2)cnn1CC(=O)[N-]CCc1ccncc1 (chirality)
[H]/N=c1/[n-]cc(-c2cnn(CC(=O)[N-]CCc3ccncc3)c2C)cc1O[C@H](C)c1c(Cl)ccc(F)c1Cl (cis-trans isomerization)
[H]/N=c1/[n-]cc(-c2cnn(CC(=O)[N-]CCc3ccncc3)c2C)cc1O[C@H](C)c1c(Cl)ccc(F)c1Cl (3D coordinates assigned)
[H]/N=c1/[n-]cc(-c2cnn(CC(=O)[N-]CCc3ccncc3)c2C)cc1O[C@H](C)c1c(Cl)ccc(F)c1Cl (optimized conformer: 109.60802977356452 kcal/mol)

>  <smiles>  (82) 
Cc1c(-c2c[nH]c(=N)c(OC(C)c3c(Cl)ccc(F)c3Cl)c2)cnn1CC(=O)NCCc1ccncc1

>  <score_type>  (82) 
oracle

>  <origin>  (82) 
adg

>  <m_score__min__energy>  (82) 
-12.800000000000001

>  <m_primary>  (82) 
energy

$$$$
82:0
     RDKit          3D

 41 43  0  0  0  0  0  0  0  0999 V2000
   66.0860   32.8320   49.9020 C   0  0  0  0  0  0  0  0  0  0  0  0
   64.5940   32.9900   49.8700 C   0  0  0  0  0  0  0  0  0  0  0  0
   63.8600   32.5430   48.7590 C   0  0  0  0  0  0  0  0  0  0  0  0
   62.4660   32.6550   48.7460 C   0  0  0  0  0  0  0  0  0  0  0  0
   61.7910   33.1980   49.8470 C   0  0  0  0  0  0  0  0  0  0  0  0
   60.0390   33.3440   49.8230 S   0  0  0  0  0  0  0  0  0  0  0  0
   59.5910   34.1810   50.9890 O   0  0  0  0  0  0  0  0  0  0  0  0
   59.4270   31.9750   49.9140 O   0  0  0  0  0  0  0  0  0  0  0  0
   59.5500   34.1020   48.3690 O   0  0  0  0  0  0  0  0  0  0  0  0
   58.9370   33.4470   47.2920 C   0  0  0  0  0  0  0  0  0  0  0  0
   59.6100   32.3700   46.7040 C   0  0  0  0  0  0  0  0  0  0  0  0
   59.0430   31.6760   45.6310 C   0  0  0  0  0  0  0  0  0  0  0  0
   57.7800   32.0320   45.1460 C   0  0  0  0  0  0  0  0  0  0  0  0
   57.2380   31.3130   44.0260 N   0  0  0  0  0  0  0  0  0  0  0  0
   57.5180   30.0950   43.6570 C   0  0  0  0  0  0  0  0  0  0  0  0
   57.5500   28.9360   44.5780 C   0  0  0  0  0  0  0  0  0  0  0  0
   56.3790   28.4230   45.1620 C   0  0  0  0  0  0  0  0  0  0  0  0
   55.1430   29.0070   44.9030 O   0  0  0  0  0  0  0  0  0  0  0  0
   56.4500   27.3580   46.0050 N   0  0  0  0  0  0  0  0  0  0  0  0
   57.6480   26.7930   46.3170 C   0  0  0  0  0  0  0  0  0  0  0  0
   57.7200   25.5150   47.3360 S   0  0  0  0  0  0  0  0  0  0  0  0
   58.7930   27.2950   45.7920 N   0  0  0  0  0  0  0  0  0  0  0  0
   58.7740   28.3520   44.9400 C   0  0  0  0  0  0  0  0  0  0  0  0
   59.8590   28.7900   44.4730 O   0  0  0  0  0  0  0  0  0  0  0  0
   57.1150   33.1360   45.7080 C   0  0  0  0  0  0  0  0  0  0  0  0
   57.6820   33.8300   46.7810 C   0  0  0  0  0  0  0  0  0  0  0  0
   62.5210   33.6340   50.9610 C   0  0  0  0  0  0  0  0  0  0  0  0
   63.9150   33.5220   50.9760 C   0  0  0  0  0  0  0  0  0  0  0  0
   66.4285   32.7957   50.9467 H   0  0  0  0  0  0  0  0  0  0  0  0
   66.3670   31.8991   49.3914 H   0  0  0  0  0  0  0  0  0  0  0  0
   66.5561   33.6854   49.3914 H   0  0  0  0  0  0  0  0  0  0  0  0
   64.3830   32.1036   47.8968 H   0  0  0  0  0  0  0  0  0  0  0  0
   61.8973   32.3154   47.8678 H   0  0  0  0  0  0  0  0  0  0  0  0
   60.5945   32.0667   47.0898 H   0  0  0  0  0  0  0  0  0  0  0  0
   59.5932   30.8451   45.1653 H   0  0  0  0  0  0  0  0  0  0  0  0
   57.7447   29.9168   42.5955 H   0  0  0  0  0  0  0  0  0  0  0  0
   55.5690   26.9820   46.4230 H   0  0  0  0  0  0  0  0  0  0  0  0
   56.1440   33.4552   45.3015 H   0  0  0  0  0  0  0  0  0  0  0  0
   57.1451   34.6795   47.2283 H   0  0  0  0  0  0  0  0  0  0  0  0
   61.9961   34.0655   51.8260 H   0  0  0  0  0  0  0  0  0  0  0  0
   64.4814   33.8526   51.8591 H   0  0  0  0  0  0  0  0  0  0  0  0
  1  2  1  0
  2  3  2  0
  3  4  1  0
  4  5  2  0
  5  6  1  0
  6  7  2  0
  6  8  2  0
  6  9  1  0
  9 10  1  0
 10 11  2  0
 11 12  1  0
 12 13  2  0
 13 14  1  0
 14 15  2  3
 15 16  1  0
 16 17  2  0
 17 18  1  0
 17 19  1  0
 19 20  1  0
 20 21  2  0
 20 22  1  0
 22 23  1  0
 23 24  2  0
 13 25  1  0
 25 26  2  0
  5 27  1  0
 27 28  2  0
 28  2  1  0
 26 10  1  0
 23 16  1  0
  1 29  1  0
  1 30  1  0
  1 31  1  0
  3 32  1  0
  4 33  1  0
 11 34  1  0
 12 35  1  0
 15 36  1  0
 19 37  1  0
 25 38  1  0
 26 39  1  0
 27 40  1  0
 28 41  1  0
M  CHG  2  18  -1  22  -1
M  END
>  <UniqueID>  (83) 
79

>  <SMILES>  (83) 
Cc1ccc(S(=O)(=O)Oc2ccc(N=Cc3c([O-])[nH]c(=S)[n-]c3=O)cc2)cc1

>  <Energy>  (83) 
57.71353590375667

>  <Genealogy>  (83) 
Cc1ccc(S(=O)(=O)Oc2ccc(N=Cc3c([O-])[nH]c(=S)[n-]c3=O)cc2)cc1 (protonated)
Cc1ccc(S(=O)(=O)Oc2ccc(N=Cc3c([O-])[nH]c(=S)[n-]c3=O)cc2)cc1 (3D coordinates assigned)
Cc1ccc(S(=O)(=O)Oc2ccc(N=Cc3c([O-])[nH]c(=S)[n-]c3=O)cc2)cc1 (optimized conformer: 57.71353590375667 kcal/mol)

>  <smiles>  (83) 
Cc1ccc(S(=O)(=O)Oc2ccc(N=Cc3c(O)[nH]c(=S)[nH]c3=O)cc2)cc1

>  <score_type>  (83) 
oracle

>  <origin>  (83) 
adg

>  <m_score__min__energy>  (83) 
-14.609999999999999

>  <m_primary>  (83) 
energy

$$$$
83:0
     RDKit          3D

 51 55  0  0  0  0  0  0  0  0999 V2000
   58.9100   20.7110   45.5320 H   0  0  0  0  0  0  0  0  0  0  0  0
   59.1540   21.7230   45.6050 N   0  0  0  0  0  0  0  0  0  0  0  0
   58.2830   22.6040   45.9760 C   0  0  0  0  0  0  0  0  0  0  0  0
   58.2850   23.8360   45.4050 N   0  0  0  0  0  0  0  0  0  0  0  0
   57.3830   24.7920   45.7660 C   0  0  0  0  0  0  0  0  0  0  0  0
   57.4330   26.1250   45.1110 C   0  0  0  0  0  0  0  0  0  0  0  0
   57.7910   26.2210   43.7370 C   0  0  0  0  0  0  0  0  0  0  0  0
   58.0319   25.3072   43.1739 H   0  0  0  0  0  0  0  0  0  0  0  0
   57.8410   27.4690   43.0890 C   0  0  0  0  0  0  0  0  0  0  0  0
   58.1230   27.5483   42.0287 H   0  0  0  0  0  0  0  0  0  0  0  0
   57.5220   28.5980   43.8340 C   0  0  0  0  0  0  0  0  0  0  0  0
   57.5090   29.8740   43.4230 N   0  0  0  0  0  0  0  0  0  0  0  0
   57.1220   30.5370   44.5450 C   0  0  0  0  0  0  0  0  0  0  0  0
   57.0160   32.0270   44.6040 C   0  0  0  0  0  0  0  0  0  0  0  0
   57.0311   32.4344   43.5823 H   0  0  0  0  0  0  0  0  0  0  0  0
   56.0744   32.3036   45.1009 H   0  0  0  0  0  0  0  0  0  0  0  0
   58.1710   32.5920   45.3830 C   0  0  0  0  0  0  0  0  0  0  0  0
   59.0710   31.7340   46.0340 C   0  0  0  0  0  0  0  0  0  0  0  0
   58.9483   30.6442   45.9484 H   0  0  0  0  0  0  0  0  0  0  0  0
   60.1230   32.2590   46.7910 C   0  0  0  0  0  0  0  0  0  0  0  0
   60.8362   31.5806   47.2821 H   0  0  0  0  0  0  0  0  0  0  0  0
   60.2730   33.6500   46.9270 C   0  0  0  0  0  0  0  0  0  0  0  0
   61.3600   34.2160   47.6710 N   0  0  0  0  0  0  0  0  0  0  0  0
   62.5240   33.5120   48.1180 C   0  0  0  0  0  0  0  0  0  0  0  0
   63.3110   33.0340   47.2580 O   0  0  0  0  0  0  0  0  0  0  0  0
   62.8120   33.3790   49.5200 N   0  0  0  0  0  0  0  0  0  0  0  0
   62.1270   33.7470   50.2160 H   0  0  0  0  0  0  0  0  0  0  0  0
   63.9380   32.6480   50.0290 C   0  0  0  0  0  0  0  0  0  0  0  0
   65.2350   33.0890   49.7250 C   0  0  0  0  0  0  0  0  0  0  0  0
   65.3764   33.9931   49.1146 H   0  0  0  0  0  0  0  0  0  0  0  0
   66.3490   32.3850   50.1940 C   0  0  0  0  0  0  0  0  0  0  0  0
   67.3628   32.7441   49.9630 H   0  0  0  0  0  0  0  0  0  0  0  0
   66.1760   31.2270   50.9550 C   0  0  0  0  0  0  0  0  0  0  0  0
   67.2570   30.5460   51.4080 F   0  0  0  0  0  0  0  0  0  0  0  0
   64.8880   30.7640   51.2390 C   0  0  0  0  0  0  0  0  0  0  0  0
   64.7535   29.8461   51.8301 H   0  0  0  0  0  0  0  0  0  0  0  0
   63.7690   31.4640   50.7740 C   0  0  0  0  0  0  0  0  0  0  0  0
   62.5310   30.9610   51.0050 F   0  0  0  0  0  0  0  0  0  0  0  0
   59.3850   34.5040   46.2640 C   0  0  0  0  0  0  0  0  0  0  0  0
   59.5169   35.5936   46.3372 H   0  0  0  0  0  0  0  0  0  0  0  0
   58.3310   33.9810   45.5090 C   0  0  0  0  0  0  0  0  0  0  0  0
   57.6238   34.6609   45.0114 H   0  0  0  0  0  0  0  0  0  0  0  0
   56.9130   29.7440   45.6290 N   0  0  0  0  0  0  0  0  0  0  0  0
   57.1700   28.5210   45.1440 C   0  0  0  0  0  0  0  0  0  0  0  0
   57.1090   27.3070   45.8240 C   0  0  0  0  0  0  0  0  0  0  0  0
   56.8178   27.2664   46.8840 H   0  0  0  0  0  0  0  0  0  0  0  0
   56.4390   24.4900   46.7630 C   0  0  0  0  0  0  0  0  0  0  0  0
   55.7031   25.2419   47.0841 H   0  0  0  0  0  0  0  0  0  0  0  0
   56.4530   23.2200   47.3370 C   0  0  0  0  0  0  0  0  0  0  0  0
   55.7208   22.9612   48.1160 H   0  0  0  0  0  0  0  0  0  0  0  0
   57.3690   22.3020   46.9360 N   0  0  0  0  0  0  0  0  0  0  0  0
  1  2  1  0
  2  3  2  0
  3  4  1  0
  4  5  2  0
  5  6  1  0
  6  7  2  0
  7  8  1  0
  7  9  1  0
  9 10  1  0
  9 11  2  0
 11 12  1  0
 12 13  1  0
 13 14  1  0
 14 15  1  0
 14 16  1  0
 14 17  1  0
 17 18  2  0
 18 19  1  0
 18 20  1  0
 20 21  1  0
 20 22  2  0
 22 23  1  0
 23 24  1  0
 24 25  2  0
 24 26  1  0
 26 27  1  0
 26 28  1  0
 28 29  2  0
 29 30  1  0
 29 31  1  0
 31 32  1  0
 31 33  2  0
 33 34  1  0
 33 35  1  0
 35 36  1  0
 35 37  2  0
 37 38  1  0
 22 39  1  0
 39 40  1  0
 39 41  2  0
 41 42  1  0
 13 43  2  0
 43 44  1  0
 44 45  2  0
 45 46  1  0
  5 47  1  0
 47 48  1  0
 47 49  2  0
 49 50  1  0
 49 51  1  0
 51  3  1  0
 45  6  1  0
 44 11  1  0
 41 17  1  0
 37 28  1  0
M  CHG  3  12  -1  23  -1  51  -1
M  END
>  <UniqueID>  (84) 
80

>  <SMILES>  (84) 
[H]/N=c1/nc(-c2ccc3[n-]c(Cc4ccc([N-]C(=O)Nc5ccc(F)cc5F)cc4)nc3c2)cc[n-]1

>  <Energy>  (84) 
104.6346888436052

>  <Genealogy>  (84) 
N=c1nc(-c2ccc3[n-]c(Cc4ccc([N-]C(=O)Nc5ccc(F)cc5F)cc4)nc3c2)cc[n-]1 (protonated)
[H]/N=c1/nc(-c2ccc3[n-]c(Cc4ccc([N-]C(=O)Nc5ccc(F)cc5F)cc4)nc3c2)cc[n-]1 (cis-trans isomerization)
[H]/N=c1/nc(-c2ccc3[n-]c(Cc4ccc([N-]C(=O)Nc5ccc(F)cc5F)cc4)nc3c2)cc[n-]1 (3D coordinates assigned)
[H]/N=c1/nc(-c2ccc3[n-]c(Cc4ccc([N-]C(=O)Nc5ccc(F)cc5F)cc4)nc3c2)cc[n-]1 (optimized conformer: 104.6346888436052 kcal/mol)

>  <smiles>  (84) 
N=c1nc(-c2ccc3[nH]c(Cc4ccc(NC(=O)Nc5ccc(F)cc5F)cc4)nc3c2)cc[nH]1

>  <score_type>  (84) 
oracle

>  <origin>  (84) 
adg

>  <m_score__min__energy>  (84) 
-13.130000000000001

>  <m_primary>  (84) 
energy

$$$$
84:0
     RDKit          3D

 52 54  0  0  0  0  0  0  0  0999 V2000
   63.0180   33.2340   48.8690 C   0  0  0  0  0  0  0  0  0  0  0  0
   62.6110   32.6630   47.2360 S   0  0  0  0  0  0  0  0  0  0  0  0
   62.9240   33.7570   46.2520 O   0  0  0  0  0  0  0  0  0  0  0  0
   63.4270   31.4450   46.9080 O   0  0  0  0  0  0  0  0  0  0  0  0
   60.9230   32.2690   47.1830 N   0  0  0  0  0  0  0  0  0  0  0  0
   60.1020   32.0880   48.3430 C   0  0  0  0  0  0  0  0  0  0  0  0
   59.6480   33.2250   49.0200 C   0  0  0  0  0  0  0  0  0  0  0  0
   58.8040   33.1050   50.1250 C   0  0  0  0  0  0  0  0  0  0  0  0
   58.3930   31.8370   50.5740 C   0  0  0  0  0  0  0  0  0  0  0  0
   57.5030   31.6920   51.7520 C   0  0  0  0  0  0  0  0  0  0  0  0
   57.7600   32.3360   52.8050 O   0  0  0  0  0  0  0  0  0  0  0  0
   56.3550   30.8290   51.7160 N   0  0  0  0  0  0  0  0  0  0  0  0
   55.3040   30.8920   52.7300 C   0  0  0  0  0  0  0  0  0  0  0  0
   53.9500   30.7600   52.0860 C   0  0  0  0  0  0  0  0  0  0  0  0
   53.3030   29.5150   52.0280 C   0  0  0  0  0  0  0  0  0  0  0  0
   52.0320   29.4080   51.4530 C   0  0  0  0  0  0  0  0  0  0  0  0
   51.3980   30.5420   50.9380 C   0  0  0  0  0  0  0  0  0  0  0  0
   52.0330   31.7870   50.9990 C   0  0  0  0  0  0  0  0  0  0  0  0
   51.3990   32.9160   50.4940 O   0  0  0  0  0  0  0  0  0  0  0  0
   53.3050   31.8970   51.5710 C   0  0  0  0  0  0  0  0  0  0  0  0
   58.8850   30.6950   49.9190 C   0  0  0  0  0  0  0  0  0  0  0  0
   59.7620   30.8100   48.8340 C   0  0  0  0  0  0  0  0  0  0  0  0
   60.2980   29.6390   48.2850 O   0  0  0  0  0  0  0  0  0  0  0  0
   59.5510   28.6880   47.5740 C   0  0  0  0  0  0  0  0  0  0  0  0
   59.7470   27.3330   47.8620 C   0  0  0  0  0  0  0  0  0  0  0  0
   59.0210   26.3490   47.1820 C   0  0  0  0  0  0  0  0  0  0  0  0
   58.0920   26.7120   46.1940 C   0  0  0  0  0  0  0  0  0  0  0  0
   57.3290   25.6530   45.4440 C   0  0  0  0  0  0  0  0  0  0  0  0
   55.9210   25.5720   45.9390 C   0  0  0  0  0  0  0  0  0  0  0  0
   55.4680   24.4860   46.3890 O   0  0  0  0  0  0  0  0  0  0  0  0
   55.1110   26.7010   45.9260 O   0  0  0  0  0  0  0  0  0  0  0  0
   57.9100   28.0690   45.8860 C   0  0  0  0  0  0  0  0  0  0  0  0
   58.6330   29.0520   46.5690 C   0  0  0  0  0  0  0  0  0  0  0  0
   62.5489   32.5758   49.6151 H   0  0  0  0  0  0  0  0  0  0  0  0
   64.1099   33.2185   49.0013 H   0  0  0  0  0  0  0  0  0  0  0  0
   62.6472   34.2611   49.0013 H   0  0  0  0  0  0  0  0  0  0  0  0
   59.9592   34.2231   48.6781 H   0  0  0  0  0  0  0  0  0  0  0  0
   58.4578   34.0084   50.6485 H   0  0  0  0  0  0  0  0  0  0  0  0
   56.2700   30.1040   50.9690 H   0  0  0  0  0  0  0  0  0  0  0  0
   55.4449   30.0727   53.4504 H   0  0  0  0  0  0  0  0  0  0  0  0
   55.3621   31.8614   53.2466 H   0  0  0  0  0  0  0  0  0  0  0  0
   53.7971   28.6209   52.4360 H   0  0  0  0  0  0  0  0  0  0  0  0
   51.5310   28.4298   51.4062 H   0  0  0  0  0  0  0  0  0  0  0  0
   50.3995   30.4556   50.4846 H   0  0  0  0  0  0  0  0  0  0  0  0
   53.8020   32.8772   51.6177 H   0  0  0  0  0  0  0  0  0  0  0  0
   58.5766   29.6970   50.2637 H   0  0  0  0  0  0  0  0  0  0  0  0
   60.4780   27.0388   48.6295 H   0  0  0  0  0  0  0  0  0  0  0  0
   59.1787   25.2872   47.4224 H   0  0  0  0  0  0  0  0  0  0  0  0
   57.3222   25.9022   44.3726 H   0  0  0  0  0  0  0  0  0  0  0  0
   57.8187   24.6812   45.6044 H   0  0  0  0  0  0  0  0  0  0  0  0
   57.1947   28.3610   45.1030 H   0  0  0  0  0  0  0  0  0  0  0  0
   58.4845   30.1133   46.3207 H   0  0  0  0  0  0  0  0  0  0  0  0
  1  2  1  0
  2  3  2  0
  2  4  2  0
  2  5  1  0
  5  6  1  0
  6  7  2  0
  7  8  1  0
  8  9  2  0
  9 10  1  0
 10 11  2  0
 10 12  1  0
 12 13  1  0
 13 14  1  0
 14 15  2  0
 15 16  1  0
 16 17  2  0
 17 18  1  0
 18 19  1  0
 18 20  2  0
  9 21  1  0
 21 22  2  0
 22 23  1  0
 23 24  1  0
 24 25  2  0
 25 26  1  0
 26 27  2  0
 27 28  1  0
 28 29  1  0
 29 30  2  0
 29 31  1  0
 27 32  1  0
 32 33  2  0
 22  6  1  0
 33 24  1  0
 20 14  1  0
  1 34  1  0
  1 35  1  0
  1 36  1  0
  7 37  1  0
  8 38  1  0
 12 39  1  0
 13 40  1  0
 13 41  1  0
 15 42  1  0
 16 43  1  0
 17 44  1  0
 20 45  1  0
 21 46  1  0
 25 47  1  0
 26 48  1  0
 28 49  1  0
 28 50  1  0
 32 51  1  0
 33 52  1  0
M  CHG  3   5  -1  19  -1  31  -1
M  END
>  <UniqueID>  (85) 
81

>  <SMILES>  (85) 
CS(=O)(=O)[N-]c1ccc(C(=O)NCc2cccc([O-])c2)cc1Oc1ccc(CC(=O)[O-])cc1

>  <Energy>  (85) 
64.0170721438194

>  <Genealogy>  (85) 
CS(=O)(=O)[N-]c1ccc(C(=O)NCc2cccc([O-])c2)cc1Oc1ccc(CC(=O)[O-])cc1 (protonated)
CS(=O)(=O)[N-]c1ccc(C(=O)NCc2cccc([O-])c2)cc1Oc1ccc(CC(=O)[O-])cc1 (3D coordinates assigned)
CS(=O)(=O)[N-]c1ccc(C(=O)NCc2cccc([O-])c2)cc1Oc1ccc(CC(=O)[O-])cc1 (optimized conformer: 64.0170721438194 kcal/mol)

>  <smiles>  (85) 
CS(=O)(=O)Nc1ccc(C(=O)NCc2cccc(O)c2)cc1Oc1ccc(CC(=O)O)cc1

>  <score_type>  (85) 
oracle

>  <origin>  (85) 
adg

>  <m_score__min__energy>  (85) 
-17.300000000000001

>  <m_primary>  (85) 
energy

$$$$
85:0
     RDKit          3D

 36 37  0  0  0  0  0  0  0  0999 V2000
   56.8263   33.6390   44.8980 H   0  0  0  0  0  0  0  0  0  0  0  0
   57.3520   32.6770   44.9890 C   0  0  0  0  0  0  0  0  0  0  0  0
   56.7600   31.5860   44.4850 C   0  0  0  0  0  0  0  0  0  0  0  0
   55.8275   31.7266   43.9187 H   0  0  0  0  0  0  0  0  0  0  0  0
   57.2690   30.2100   44.6350 C   0  0  0  0  0  0  0  0  0  0  0  0
   58.5840   29.9090   44.6890 N   0  0  0  0  0  0  0  0  0  0  0  0
   58.6000   28.5710   44.8770 C   0  0  0  0  0  0  0  0  0  0  0  0
   59.6670   27.9050   44.9550 O   0  0  0  0  0  0  0  0  0  0  0  0
   57.3710   28.0220   44.9760 N   0  0  0  0  0  0  0  0  0  0  0  0
   57.0220   26.6100   45.1210 C   0  0  0  0  0  0  0  0  0  0  0  0
   57.7032   26.0011   44.5084 H   0  0  0  0  0  0  0  0  0  0  0  0
   55.9850   26.4570   44.7874 H   0  0  0  0  0  0  0  0  0  0  0  0
   57.1440   26.2000   46.5560 C   0  0  0  0  0  0  0  0  0  0  0  0
   56.1870   25.6080   47.1220 O   0  0  0  0  0  0  0  0  0  0  0  0
   58.3580   26.4280   47.2710 N   0  0  0  0  0  0  0  0  0  0  0  0
   58.4480   26.1250   48.2660 H   0  0  0  0  0  0  0  0  0  0  0  0
   59.1690   26.8960   46.8090 H   0  0  0  0  0  0  0  0  0  0  0  0
   56.5310   29.0580   44.8280 C   0  0  0  0  0  0  0  0  0  0  0  0
   55.1450   28.9620   44.9010 O   0  0  0  0  0  0  0  0  0  0  0  0
   58.6690   32.6660   45.6600 C   0  0  0  0  0  0  0  0  0  0  0  0
   59.5800   32.8454   45.0701 H   0  0  0  0  0  0  0  0  0  0  0  0
   58.7680   32.4410   46.9740 C   0  0  0  0  0  0  0  0  0  0  0  0
   58.4975   33.2548   47.6628 H   0  0  0  0  0  0  0  0  0  0  0  0
   59.2230   31.1530   47.5540 C   0  0  0  0  0  0  0  0  0  0  0  0
   60.3060   30.4910   46.9550 C   0  0  0  0  0  0  0  0  0  0  0  0
   60.8007   30.9373   46.0797 H   0  0  0  0  0  0  0  0  0  0  0  0
   60.7620   29.2700   47.4600 C   0  0  0  0  0  0  0  0  0  0  0  0
   61.6167   28.7674   46.9838 H   0  0  0  0  0  0  0  0  0  0  0  0
   60.1370   28.6800   48.5710 C   0  0  0  0  0  0  0  0  0  0  0  0
   60.6230   27.3880   49.1040 C   0  0  0  0  0  0  0  0  0  0  0  0
   60.6460   26.3620   48.3730 O   0  0  0  0  0  0  0  0  0  0  0  0
   61.0600   27.2880   50.4200 O   0  0  0  0  0  0  0  0  0  0  0  0
   59.0410   29.3330   49.1620 C   0  0  0  0  0  0  0  0  0  0  0  0
   58.5383   28.8793   50.0289 H   0  0  0  0  0  0  0  0  0  0  0  0
   58.5850   30.5540   48.6570 C   0  0  0  0  0  0  0  0  0  0  0  0
   57.7218   31.0503   49.1245 H   0  0  0  0  0  0  0  0  0  0  0  0
  1  2  1  0
  2  3  2  0
  3  4  1  0
  3  5  1  0
  5  6  1  0
  6  7  1  0
  7  8  2  0
  7  9  1  0
  9 10  1  0
 10 11  1  0
 10 12  1  0
 10 13  1  0
 13 14  2  0
 13 15  1  0
 15 16  1  0
 15 17  1  0
  9 18  1  0
 18 19  1  0
  2 20  1  0
 20 21  1  0
 20 22  2  0
 22 23  1  0
 22 24  1  0
 24 25  2  0
 25 26  1  0
 25 27  1  0
 27 28  1  0
 27 29  2  0
 29 30  1  0
 30 31  2  0
 30 32  1  0
 29 33  1  0
 33 34  1  0
 33 35  2  0
 35 36  1  0
 18  5  2  0
 35 24  1  0
M  CHG  3   6  -1  19  -1  32  -1
M  END
>  <UniqueID>  (86) 
82

>  <SMILES>  (86) 
NC(=O)Cn1c([O-])c(C=C/C=C/c2ccc(C(=O)[O-])cc2)[n-]c1=O

>  <Energy>  (86) 
72.24644530702929

>  <Genealogy>  (86) 
NC(=O)Cn1c([O-])c(C=CC=Cc2ccc(C(=O)[O-])cc2)[n-]c1=O (protonated)
NC(=O)Cn1c([O-])c(C=C/C=C/c2ccc(C(=O)[O-])cc2)[n-]c1=O (cis-trans isomerization)
NC(=O)Cn1c([O-])c(C=C/C=C/c2ccc(C(=O)[O-])cc2)[n-]c1=O (3D coordinates assigned)
NC(=O)Cn1c([O-])c(C=C/C=C/c2ccc(C(=O)[O-])cc2)[n-]c1=O (optimized conformer: 72.24644530702929 kcal/mol)

>  <smiles>  (86) 
NC(=O)Cn1c(O)c(C=CC=Cc2ccc(C(=O)O)cc2)[nH]c1=O

>  <score_type>  (86) 
oracle

>  <origin>  (86) 
adg

>  <m_score__min__energy>  (86) 
-13.44

>  <m_primary>  (86) 
energy

$$$$
86:0
     RDKit          3D

 52 55  0  0  0  0  0  0  0  0999 V2000
   56.0770   27.1930   45.6580 N   0  0  0  0  0  0  0  0  0  0  0  0
   56.7720   28.6280   44.9930 S   0  0  0  0  0  0  0  0  0  0  0  0
   55.8180   29.7730   45.1830 O   0  0  0  0  0  0  0  0  0  0  0  0
   57.0200   28.4400   43.5230 O   0  0  0  0  0  0  0  0  0  0  0  0
   58.2980   28.9620   45.8040 C   0  0  0  0  0  0  0  0  0  0  0  0
   59.4830   29.1090   45.0690 C   0  0  0  0  0  0  0  0  0  0  0  0
   60.6860   29.3800   45.7270 C   0  0  0  0  0  0  0  0  0  0  0  0
   60.7110   29.5160   47.1170 C   0  0  0  0  0  0  0  0  0  0  0  0
   59.5290   29.3880   47.8590 C   0  0  0  0  0  0  0  0  0  0  0  0
   59.5580   29.5850   49.6150 S   0  0  0  0  0  0  0  0  0  0  0  0
   60.0570   28.3060   50.2320 O   0  0  0  0  0  0  0  0  0  0  0  0
   58.1570   29.8070   50.1130 O   0  0  0  0  0  0  0  0  0  0  0  0
   60.5990   30.9160   50.1060 N   0  0  1  0  0  0  0  0  0  0  0  0
   62.0040   30.4810   49.9370 C   0  0  0  0  0  0  0  0  0  0  0  0
   62.9940   31.5750   50.2380 C   0  0  0  0  0  0  0  0  0  0  0  0
   64.3260   31.2390   50.5330 C   0  0  0  0  0  0  0  0  0  0  0  0
   65.2810   32.2400   50.7260 C   0  0  0  0  0  0  0  0  0  0  0  0
   64.9170   33.5830   50.6140 C   0  0  0  0  0  0  0  0  0  0  0  0
   63.5990   33.9260   50.3050 C   0  0  0  0  0  0  0  0  0  0  0  0
   62.6340   32.9270   50.0970 C   0  0  0  0  0  0  0  0  0  0  0  0
   61.2090   33.3230   49.8450 C   0  0  0  0  0  0  0  0  0  0  0  0
   60.3370   32.1570   49.3290 C   0  0  2  0  0  0  0  0  0  0  0  0
   58.8970   32.6020   49.4130 C   0  0  0  0  0  0  0  0  0  0  0  0
   58.4000   32.9210   50.5280 O   0  0  0  0  0  0  0  0  0  0  0  0
   58.1310   32.6720   48.2440 O   0  0  0  0  0  0  0  0  0  0  0  0
   58.4940   33.4040   47.1060 C   0  0  0  0  0  0  0  0  0  0  0  0
   59.2410   34.5770   47.2730 C   0  0  0  0  0  0  0  0  0  0  0  0
   59.6180   35.3390   46.1640 C   0  0  0  0  0  0  0  0  0  0  0  0
   59.2390   34.9400   44.8800 C   0  0  0  0  0  0  0  0  0  0  0  0
   58.4760   33.7830   44.7050 C   0  0  0  0  0  0  0  0  0  0  0  0
   58.0970   33.0160   45.8110 C   0  0  0  0  0  0  0  0  0  0  0  0
   57.3030   31.9320   45.6230 F   0  0  0  0  0  0  0  0  0  0  0  0
   58.3270   29.0970   47.1990 C   0  0  0  0  0  0  0  0  0  0  0  0
   55.1390   27.4550   46.0360 H   0  0  0  0  0  0  0  0  0  0  0  0
   59.4659   29.0110   43.9735 H   0  0  0  0  0  0  0  0  0  0  0  0
   61.6156   29.4865   45.1487 H   0  0  0  0  0  0  0  0  0  0  0  0
   61.6612   29.7242   47.6307 H   0  0  0  0  0  0  0  0  0  0  0  0
   60.4250   31.0940   51.1230 H   0  0  0  0  0  0  0  0  0  0  0  0
   62.1949   29.6375   50.6168 H   0  0  0  0  0  0  0  0  0  0  0  0
   62.1374   30.1944   48.8834 H   0  0  0  0  0  0  0  0  0  0  0  0
   64.6185   30.1816   50.6124 H   0  0  0  0  0  0  0  0  0  0  0  0
   66.3199   31.9700   50.9663 H   0  0  0  0  0  0  0  0  0  0  0  0
   65.6684   34.3712   50.7692 H   0  0  0  0  0  0  0  0  0  0  0  0
   63.3148   34.9856   50.2240 H   0  0  0  0  0  0  0  0  0  0  0  0
   60.7770   33.6930   50.7865 H   0  0  0  0  0  0  0  0  0  0  0  0
   61.2175   34.0966   49.0630 H   0  0  0  0  0  0  0  0  0  0  0  0
   60.5811   31.9106   48.2851 H   0  0  0  0  0  0  0  0  0  0  0  0
   59.5326   34.9003   48.2832 H   0  0  0  0  0  0  0  0  0  0  0  0
   60.2135   36.2535   46.3021 H   0  0  0  0  0  0  0  0  0  0  0  0
   59.5413   35.5368   44.0068 H   0  0  0  0  0  0  0  0  0  0  0  0
   58.1723   33.4743   43.6938 H   0  0  0  0  0  0  0  0  0  0  0  0
   57.4007   28.9738   47.7794 H   0  0  0  0  0  0  0  0  0  0  0  0
  1  2  1  0
  2  3  2  0
  2  4  2  0
  2  5  1  0
  5  6  2  0
  6  7  1  0
  7  8  2  0
  8  9  1  0
  9 10  1  0
 10 11  2  0
 10 12  2  0
 10 13  1  0
 13 14  1  0
 14 15  1  0
 15 16  2  0
 16 17  1  0
 17 18  2  0
 18 19  1  0
 19 20  2  0
 20 21  1  0
 21 22  1  0
 22 23  1  0
 23 24  2  0
 23 25  1  0
 25 26  1  0
 26 27  2  0
 27 28  1  0
 28 29  2  0
 29 30  1  0
 30 31  2  0
 31 32  1  0
  9 33  2  0
 33  5  1  0
 22 13  1  0
 31 26  1  0
 20 15  1  0
  1 34  1  0
  6 35  1  0
  7 36  1  0
  8 37  1  0
 13 38  1  1
 14 39  1  0
 14 40  1  0
 16 41  1  0
 17 42  1  0
 18 43  1  0
 19 44  1  0
 21 45  1  0
 21 46  1  0
 22 47  1  6
 27 48  1  0
 28 49  1  0
 29 50  1  0
 30 51  1  0
 33 52  1  0
M  CHG  2   1  -1  13   1
M  END
>  <UniqueID>  (87) 
83

>  <SMILES>  (87) 
[NH-]S(=O)(=O)c1cccc(S(=O)(=O)[N@H+]2Cc3ccccc3C[C@@H]2C(=O)Oc2ccccc2F)c1

>  <Energy>  (87) 
64.23001560432492

>  <Genealogy>  (87) 
[NH-]S(=O)(=O)c1cccc(S(=O)(=O)[NH+]2Cc3ccccc3CC2C(=O)Oc2ccccc2F)c1 (protonated)
[NH-]S(=O)(=O)c1cccc(S(=O)(=O)[N@H+]2Cc3ccccc3C[C@@H]2C(=O)Oc2ccccc2F)c1 (chirality)
[NH-]S(=O)(=O)c1cccc(S(=O)(=O)[N@H+]2Cc3ccccc3C[C@@H]2C(=O)Oc2ccccc2F)c1 (3D coordinates assigned)
[NH-]S(=O)(=O)c1cccc(S(=O)(=O)[N@H+]2Cc3ccccc3C[C@@H]2C(=O)Oc2ccccc2F)c1 (nonaromatic ring conformer: 64.23001560432492 kcal/mol)

>  <smiles>  (87) 
NS(=O)(=O)c1cccc(S(=O)(=O)N2Cc3ccccc3CC2C(=O)Oc2ccccc2F)c1

>  <score_type>  (87) 
oracle

>  <origin>  (87) 
adg

>  <m_score__min__energy>  (87) 
-11.300000000000001

>  <m_primary>  (87) 
energy

$$$$
87:0
     RDKit          3D

 48 50  0  0  0  0  0  0  0  0999 V2000
   55.1800   29.3780   44.9410 N   0  0  0  0  0  0  0  0  0  0  0  0
   56.1860   29.8170   44.0290 C   0  0  0  0  0  0  0  0  0  0  0  0
   56.2670   29.2720   42.8950 O   0  0  0  0  0  0  0  0  0  0  0  0
   57.1230   30.9020   44.4060 C   0  0  0  0  0  0  0  0  0  0  0  0
   57.3450   31.9860   43.5360 C   0  0  0  0  0  0  0  0  0  0  0  0
   58.2360   33.0030   43.8870 C   0  0  0  0  0  0  0  0  0  0  0  0
   58.9080   32.9570   45.1100 C   0  0  0  0  0  0  0  0  0  0  0  0
   58.6810   31.8950   46.0000 C   0  0  0  0  0  0  0  0  0  0  0  0
   59.3790   31.8050   47.2500 N   0  0  0  0  0  0  0  0  0  0  0  0
   60.6530   31.1830   47.4600 C   0  0  0  0  0  0  0  0  0  0  0  0
   61.6920   31.8870   47.3850 O   0  0  0  0  0  0  0  0  0  0  0  0
   60.7810   29.7050   47.7150 C   0  0  0  0  0  0  0  0  0  0  0  0
   59.4560   29.0280   47.5560 C   0  0  0  0  0  0  0  0  0  0  0  0
   58.5720   29.1690   48.4430 O   0  0  0  0  0  0  0  0  0  0  0  0
   59.2330   28.1760   46.4270 N   0  0  0  0  0  0  0  0  0  0  0  0
   58.3890   27.0170   46.3940 C   0  0  0  0  0  0  0  0  0  0  0  0
   58.8980   25.7200   46.5920 C   0  0  0  0  0  0  0  0  0  0  0  0
   58.0390   24.6190   46.5850 C   0  0  0  0  0  0  0  0  0  0  0  0
   56.6590   24.7970   46.4010 C   0  0  0  0  0  0  0  0  0  0  0  0
   55.7660   23.6220   46.3970 C   0  0  0  0  0  0  0  0  0  0  0  0
   54.8790   23.4570   47.4750 C   0  0  0  0  0  0  0  0  0  0  0  0
   54.0260   22.3540   47.5210 C   0  0  0  0  0  0  0  0  0  0  0  0
   54.0490   21.4070   46.4960 C   0  0  0  0  0  0  0  0  0  0  0  0
   54.9220   21.5600   45.4210 C   0  0  0  0  0  0  0  0  0  0  0  0
   55.7830   22.6690   45.3510 C   0  0  0  0  0  0  0  0  0  0  0  0
   56.8580   22.8340   43.9530 S   0  0  0  0  0  0  0  0  0  0  0  0
   56.2760   21.8830   42.6330 N   0  0  0  0  0  0  0  0  0  0  0  0
   56.9320   24.2760   43.5390 O   0  0  0  0  0  0  0  0  0  0  0  0
   58.2390   22.3570   44.3060 O   0  0  0  0  0  0  0  0  0  0  0  0
   56.1490   26.0900   46.2080 C   0  0  0  0  0  0  0  0  0  0  0  0
   54.7880   26.2890   46.0020 O   0  0  0  0  0  0  0  0  0  0  0  0
   57.0100   27.1920   46.2210 C   0  0  0  0  0  0  0  0  0  0  0  0
   57.8070   30.8630   45.6350 C   0  0  0  0  0  0  0  0  0  0  0  0
   55.3630   28.5980   45.6090 H   0  0  0  0  0  0  0  0  0  0  0  0
   56.8137   32.0326   42.5739 H   0  0  0  0  0  0  0  0  0  0  0  0
   58.4087   33.8427   43.1977 H   0  0  0  0  0  0  0  0  0  0  0  0
   59.6169   33.7546   45.3769 H   0  0  0  0  0  0  0  0  0  0  0  0
   61.4955   29.2747   46.9979 H   0  0  0  0  0  0  0  0  0  0  0  0
   61.1371   29.5516   48.7444 H   0  0  0  0  0  0  0  0  0  0  0  0
   59.9762   25.5730   46.7528 H   0  0  0  0  0  0  0  0  0  0  0  0
   58.4461   23.6067   46.7245 H   0  0  0  0  0  0  0  0  0  0  0  0
   54.8574   24.2005   48.2854 H   0  0  0  0  0  0  0  0  0  0  0  0
   53.3338   22.2304   48.3669 H   0  0  0  0  0  0  0  0  0  0  0  0
   53.3762   20.5377   46.5370 H   0  0  0  0  0  0  0  0  0  0  0  0
   54.9377   20.8063   44.6199 H   0  0  0  0  0  0  0  0  0  0  0  0
   56.2640   22.5010   41.7930 H   0  0  0  0  0  0  0  0  0  0  0  0
   56.6007   28.2051   46.0943 H   0  0  0  0  0  0  0  0  0  0  0  0
   57.6538   30.0131   46.3164 H   0  0  0  0  0  0  0  0  0  0  0  0
  1  2  1  0
  2  3  2  0
  2  4  1  0
  4  5  2  0
  5  6  1  0
  6  7  2  0
  7  8  1  0
  8  9  1  0
  9 10  1  0
 10 11  2  0
 10 12  1  0
 12 13  1  0
 13 14  2  0
 13 15  1  0
 15 16  1  0
 16 17  2  0
 17 18  1  0
 18 19  2  0
 19 20  1  0
 20 21  2  0
 21 22  1  0
 22 23  2  0
 23 24  1  0
 24 25  2  0
 25 26  1  0
 26 27  1  0
 26 28  2  0
 26 29  2  0
 19 30  1  0
 30 31  1  0
 30 32  2  0
  8 33  2  0
 33  4  1  0
 32 16  1  0
 25 20  1  0
  1 34  1  0
  5 35  1  0
  6 36  1  0
  7 37  1  0
 12 38  1  0
 12 39  1  0
 17 40  1  0
 18 41  1  0
 21 42  1  0
 22 43  1  0
 23 44  1  0
 24 45  1  0
 27 46  1  0
 32 47  1  0
 33 48  1  0
M  CHG  5   1  -1   9  -1  15  -1  27  -1  31  -1
M  END
>  <UniqueID>  (88) 
84

>  <SMILES>  (88) 
[NH-]C(=O)c1cccc([N-]C(=O)CC(=O)[N-]c2ccc(-c3ccccc3S([NH-])(=O)=O)c([O-])c2)c1

>  <Energy>  (88) 
66.72382876328886

>  <Genealogy>  (88) 
[NH-]C(=O)c1cccc([N-]C(=O)CC(=O)[N-]c2ccc(-c3ccccc3S([NH-])(=O)=O)c([O-])c2)c1 (protonated)
[NH-]C(=O)c1cccc([N-]C(=O)CC(=O)[N-]c2ccc(-c3ccccc3S([NH-])(=O)=O)c([O-])c2)c1 (3D coordinates assigned)
[NH-]C(=O)c1cccc([N-]C(=O)CC(=O)[N-]c2ccc(-c3ccccc3S([NH-])(=O)=O)c([O-])c2)c1 (optimized conformer: 66.72382876328886 kcal/mol)

>  <smiles>  (88) 
NC(=O)c1cccc(NC(=O)CC(=O)Nc2ccc(-c3ccccc3S(N)(=O)=O)c(O)c2)c1

>  <score_type>  (88) 
oracle

>  <origin>  (88) 
adg

>  <m_score__min__energy>  (88) 
-18.129999999999999

>  <m_primary>  (88) 
energy

$$$$
88:0
     RDKit          3D

 27 28  0  0  0  0  0  0  0  0999 V2000
   55.4330   24.6820   46.5290 O   0  0  0  0  0  0  0  0  0  0  0  0
   56.1190   25.6080   46.0230 C   0  0  0  0  0  0  0  0  0  0  0  0
   57.4310   25.3640   45.6150 C   0  0  0  0  0  0  0  0  0  0  0  0
   58.1770   26.4010   45.0540 C   0  0  0  0  0  0  0  0  0  0  0  0
   57.6130   27.6820   44.9070 C   0  0  0  0  0  0  0  0  0  0  0  0
   58.3560   28.7780   44.3330 N   0  0  0  0  0  0  0  0  0  0  0  0
   59.2460   29.6600   45.0920 C   0  0  0  0  0  0  0  0  0  0  0  0
   58.6020   31.0050   45.3110 C   0  0  0  0  0  0  0  0  0  0  0  0
   58.0440   31.7150   44.2340 C   0  0  0  0  0  0  0  0  0  0  0  0
   57.4440   32.9580   44.4460 C   0  0  0  0  0  0  0  0  0  0  0  0
   57.3900   33.5000   45.7340 C   0  0  0  0  0  0  0  0  0  0  0  0
   57.9320   32.7960   46.8110 C   0  0  0  0  0  0  0  0  0  0  0  0
   58.5340   31.5510   46.6030 C   0  0  0  0  0  0  0  0  0  0  0  0
   56.2840   27.8770   45.3300 C   0  0  0  0  0  0  0  0  0  0  0  0
   55.6810   29.1240   45.2040 O   0  0  0  0  0  0  0  0  0  0  0  0
   55.5820   26.8450   45.8720 N   0  0  0  0  0  0  0  0  0  0  0  0
   57.8728   24.3637   45.7345 H   0  0  0  0  0  0  0  0  0  0  0  0
   59.2104   26.2166   44.7252 H   0  0  0  0  0  0  0  0  0  0  0  0
   58.2320   28.9960   43.3190 H   0  0  0  0  0  0  0  0  0  0  0  0
   59.4639   29.2007   46.0675 H   0  0  0  0  0  0  0  0  0  0  0  0
   60.1755   29.8014   44.5210 H   0  0  0  0  0  0  0  0  0  0  0  0
   58.0801   31.2899   43.2201 H   0  0  0  0  0  0  0  0  0  0  0  0
   57.0132   33.5116   43.5987 H   0  0  0  0  0  0  0  0  0  0  0  0
   56.9205   34.4810   45.8986 H   0  0  0  0  0  0  0  0  0  0  0  0
   57.8854   33.2212   47.8244 H   0  0  0  0  0  0  0  0  0  0  0  0
   58.9559   30.9973   47.4547 H   0  0  0  0  0  0  0  0  0  0  0  0
   55.5350   29.7170   46.0130 H   0  0  0  0  0  0  0  0  0  0  0  0
  1  2  2  0
  2  3  1  0
  3  4  2  0
  4  5  1  0
  5  6  1  0
  6  7  1  0
  7  8  1  0
  8  9  2  0
  9 10  1  0
 10 11  2  0
 11 12  1  0
 12 13  2  0
  5 14  2  0
 14 15  1  0
 14 16  1  0
 16  2  1  0
 13  8  1  0
  3 17  1  0
  4 18  1  0
  6 19  1  0
  7 20  1  0
  7 21  1  0
  9 22  1  0
 10 23  1  0
 11 24  1  0
 12 25  1  0
 13 26  1  0
 15 27  1  0
M  CHG  1  16  -1
M  END
>  <UniqueID>  (89) 
85

>  <SMILES>  (89) 
O=c1ccc(NCc2ccccc2)c(O)[n-]1

>  <Energy>  (89) 
27.70806174326952

>  <Genealogy>  (89) 
O=c1ccc(NCc2ccccc2)c(O)[n-]1 (protonated)
O=c1ccc(NCc2ccccc2)c(O)[n-]1 (3D coordinates assigned)
O=c1ccc(NCc2ccccc2)c(O)[n-]1 (optimized conformer: 27.70806174326952 kcal/mol)

>  <smiles>  (89) 
O=c1ccc(NCc2ccccc2)c(O)[nH]1

>  <score_type>  (89) 
oracle

>  <origin>  (89) 
adg

>  <m_score__min__energy>  (89) 
-9.6500000000000004

>  <m_primary>  (89) 
energy

$$$$
89:0
     RDKit          3D

 28 29  0  0  0  0  0  0  0  0999 V2000
   55.5320   29.0670   45.2270 O   0  0  0  0  0  0  0  0  0  0  0  0
   56.6210   28.4810   44.9760 C   0  0  0  0  0  0  0  0  0  0  0  0
   57.5740   29.0590   44.1150 N   0  0  0  0  0  0  0  0  0  0  0  0
   57.4370   30.3280   43.4490 C   0  0  0  0  0  0  0  0  0  0  0  0
   57.9390   31.4790   44.2180 C   0  0  0  0  0  0  0  0  0  0  0  0
   58.4960   31.2490   45.4810 C   0  0  0  0  0  0  0  0  0  0  0  0
   58.9860   32.2900   46.2530 C   0  0  0  0  0  0  0  0  0  0  0  0
   58.9300   33.5800   45.7790 C   0  0  0  0  0  0  0  0  0  0  0  0
   59.6020   35.0160   46.8370 Br  0  0  0  0  0  0  0  0  0  0  0  0
   58.3800   33.8340   44.5220 C   0  0  0  0  0  0  0  0  0  0  0  0
   57.8940   32.7830   43.7620 C   0  0  0  0  0  0  0  0  0  0  0  0
   56.8760   27.1780   45.6000 C   0  0  0  0  0  0  0  0  0  0  0  0
   58.1660   26.6570   45.6190 C   0  0  0  0  0  0  0  0  0  0  0  0
   58.3100   25.4250   46.2230 C   0  0  0  0  0  0  0  0  0  0  0  0
   57.2230   24.7570   46.7750 C   0  0  0  0  0  0  0  0  0  0  0  0
   57.3720   23.6280   47.3260 O   0  0  0  0  0  0  0  0  0  0  0  0
   56.0000   25.3230   46.7210 N   0  0  0  0  0  0  0  0  0  0  0  0
   55.8520   26.5000   46.1450 N   0  0  0  0  0  0  0  0  0  0  0  0
   58.4640   28.4950   43.9580 H   0  0  0  0  0  0  0  0  0  0  0  0
   57.9923   30.2799   42.5007 H   0  0  0  0  0  0  0  0  0  0  0  0
   56.3585   30.4924   43.3083 H   0  0  0  0  0  0  0  0  0  0  0  0
   58.5458   30.2208   45.8688 H   0  0  0  0  0  0  0  0  0  0  0  0
   59.4190   32.0852   47.2432 H   0  0  0  0  0  0  0  0  0  0  0  0
   58.3327   34.8633   44.1368 H   0  0  0  0  0  0  0  0  0  0  0  0
   57.4620   32.9910   42.7720 H   0  0  0  0  0  0  0  0  0  0  0  0
   59.0190   27.1946   45.1793 H   0  0  0  0  0  0  0  0  0  0  0  0
   59.3064   24.9613   46.2688 H   0  0  0  0  0  0  0  0  0  0  0  0
   55.1420   24.8730   47.1180 H   0  0  0  0  0  0  0  0  0  0  0  0
  1  2  2  0
  2  3  1  0
  3  4  1  0
  4  5  1  0
  5  6  2  0
  6  7  1  0
  7  8  2  0
  8  9  1  0
  8 10  1  0
 10 11  2  0
  2 12  1  0
 12 13  1  0
 13 14  2  0
 14 15  1  0
 15 16  2  0
 15 17  1  0
 17 18  1  0
 11  5  1  0
 18 12  2  0
  3 19  1  0
  4 20  1  0
  4 21  1  0
  6 22  1  0
  7 23  1  0
 10 24  1  0
 11 25  1  0
 13 26  1  0
 14 27  1  0
 17 28  1  0
M  END
>  <smiles>  (90) 
O=C(NCc1ccc(Br)cc1)c1ccc(=O)[nH]n1

>  <score_type>  (90) 
oracle

>  <origin>  (90) 
adg

>  <m_score__min__energy>  (90) 
-7.1900000000000004

>  <m_primary>  (90) 
energy

$$$$
90:0
     RDKit          3D

 35 36  0  0  0  0  0  0  0  0999 V2000
   56.9825   32.6879   44.4898 H   0  0  0  0  0  0  0  0  0  0  0  0
   57.5980   31.8470   44.8420 C   0  0  0  0  0  0  0  0  0  0  0  0
   58.5050   32.1110   45.9810 C   0  0  0  0  0  0  0  0  0  0  0  0
   59.6320   31.5470   45.9950 O   0  0  0  0  0  0  0  0  0  0  0  0
   58.1530   33.0250   47.0260 N   0  0  0  0  0  0  0  0  0  0  0  0
   59.0710   33.4770   48.0670 C   0  0  0  0  0  0  0  0  0  0  0  0
   58.4949   33.9867   48.8533 H   0  0  0  0  0  0  0  0  0  0  0  0
   59.5937   32.5964   48.4686 H   0  0  0  0  0  0  0  0  0  0  0  0
   60.1230   34.4460   47.5150 C   0  0  0  0  0  0  0  0  0  0  0  0
   60.0136   34.5048   46.4220 H   0  0  0  0  0  0  0  0  0  0  0  0
   59.9608   35.4281   47.9832 H   0  0  0  0  0  0  0  0  0  0  0  0
   61.5250   33.9990   47.8410 C   0  0  0  0  0  0  0  0  0  0  0  0
   62.3550   33.4840   46.8310 C   0  0  0  0  0  0  0  0  0  0  0  0
   61.9805   33.4086   45.7995 H   0  0  0  0  0  0  0  0  0  0  0  0
   63.6550   33.0670   47.1320 C   0  0  0  0  0  0  0  0  0  0  0  0
   64.2998   32.6621   46.3381 H   0  0  0  0  0  0  0  0  0  0  0  0
   64.1360   33.1640   48.4400 C   0  0  0  0  0  0  0  0  0  0  0  0
   65.1566   32.8287   48.6765 H   0  0  0  0  0  0  0  0  0  0  0  0
   63.3210   33.6870   49.4490 C   0  0  0  0  0  0  0  0  0  0  0  0
   63.8050   33.7950   50.7470 O   0  0  0  0  0  0  0  0  0  0  0  0
   62.0200   34.1060   49.1510 C   0  0  0  0  0  0  0  0  0  0  0  0
   61.3824   34.5208   49.9456 H   0  0  0  0  0  0  0  0  0  0  0  0
   57.4560   30.6790   44.1990 C   0  0  0  0  0  0  0  0  0  0  0  0
   57.3058   30.7129   43.1098 H   0  0  0  0  0  0  0  0  0  0  0  0
   57.4860   29.3530   44.8420 C   0  0  0  0  0  0  0  0  0  0  0  0
   58.7150   28.7350   45.1210 C   0  0  0  0  0  0  0  0  0  0  0  0
   59.6557   29.2501   44.8766 H   0  0  0  0  0  0  0  0  0  0  0  0
   58.7470   27.4680   45.7080 C   0  0  0  0  0  0  0  0  0  0  0  0
   59.7126   26.9912   45.9322 H   0  0  0  0  0  0  0  0  0  0  0  0
   57.5550   26.8050   46.0110 C   0  0  0  0  0  0  0  0  0  0  0  0
   57.5830   25.8116   46.4825 H   0  0  0  0  0  0  0  0  0  0  0  0
   56.3260   27.4040   45.7150 C   0  0  0  0  0  0  0  0  0  0  0  0
   55.1450   26.7330   46.0090 O   0  0  0  0  0  0  0  0  0  0  0  0
   56.2880   28.6740   45.1250 C   0  0  0  0  0  0  0  0  0  0  0  0
   55.0610   29.2590   44.8270 O   0  0  0  0  0  0  0  0  0  0  0  0
  1  2  1  0
  2  3  1  0
  3  4  2  0
  3  5  1  0
  5  6  1  0
  6  7  1  0
  6  8  1  0
  6  9  1  0
  9 10  1  0
  9 11  1  0
  9 12  1  0
 12 13  2  0
 13 14  1  0
 13 15  1  0
 15 16  1  0
 15 17  2  0
 17 18  1  0
 17 19  1  0
 19 20  1  0
 19 21  2  0
 21 22  1  0
  2 23  2  0
 23 24  1  0
 23 25  1  0
 25 26  2  0
 26 27  1  0
 26 28  1  0
 28 29  1  0
 28 30  2  0
 30 31  1  0
 30 32  1  0
 32 33  1  0
 32 34  2  0
 34 35  1  0
 21 12  1  0
 34 25  1  0
M  CHG  4   5  -1  20  -1  33  -1  35  -1
M  END
>  <UniqueID>  (91) 
86

>  <SMILES>  (91) 
O=C(/C=C\c1cccc([O-])c1[O-])[N-]CCc1cccc([O-])c1

>  <Energy>  (91) 
37.34850097926375

>  <Genealogy>  (91) 
O=C(C=Cc1cccc([O-])c1[O-])[N-]CCc1cccc([O-])c1 (protonated)
O=C(/C=C\c1cccc([O-])c1[O-])[N-]CCc1cccc([O-])c1 (cis-trans isomerization)
O=C(/C=C\c1cccc([O-])c1[O-])[N-]CCc1cccc([O-])c1 (3D coordinates assigned)
O=C(/C=C\c1cccc([O-])c1[O-])[N-]CCc1cccc([O-])c1 (optimized conformer: 37.34850097926375 kcal/mol)

>  <smiles>  (91) 
O=C(C=Cc1cccc(O)c1O)NCCc1cccc(O)c1

>  <score_type>  (91) 
oracle

>  <origin>  (91) 
adg

>  <m_score__min__energy>  (91) 
-16.289999999999999

>  <m_primary>  (91) 
energy

$$$$
91:0
     RDKit          3D

 30 31  0  0  0  0  0  0  0  0999 V2000
   57.5480   33.4110   45.1380 C   0  0  0  0  0  0  0  0  0  0  0  0
   56.9620   32.1160   45.2130 O   0  0  0  0  0  0  0  0  0  0  0  0
   57.6900   30.9210   45.3280 C   0  0  0  0  0  0  0  0  0  0  0  0
   59.0810   30.9080   45.5470 C   0  0  0  0  0  0  0  0  0  0  0  0
   59.7670   29.6970   45.6470 C   0  0  0  0  0  0  0  0  0  0  0  0
   59.0770   28.4890   45.5420 C   0  0  0  0  0  0  0  0  0  0  0  0
   57.6850   28.4820   45.3550 C   0  0  0  0  0  0  0  0  0  0  0  0
   56.9460   27.2060   45.2470 C   0  0  0  0  0  0  0  0  0  0  0  0
   57.0690   26.1750   46.0980 C   0  0  0  0  0  0  0  0  0  0  0  0
   56.8460   24.7520   45.7570 C   0  0  0  0  0  0  0  0  0  0  0  0
   57.8540   24.0310   45.5250 O   0  0  0  0  0  0  0  0  0  0  0  0
   55.4900   24.1560   45.6260 C   0  0  0  0  0  0  0  0  0  0  0  0
   54.3420   24.9630   45.7190 C   0  0  0  0  0  0  0  0  0  0  0  0
   54.4500   26.3330   45.9380 O   0  0  0  0  0  0  0  0  0  0  0  0
   53.1100   24.4120   45.5720 N   0  0  0  0  0  0  0  0  0  0  0  0
   52.9580   23.0840   45.3420 C   0  0  0  0  0  0  0  0  0  0  0  0
   51.8060   22.5980   45.2030 O   0  0  0  0  0  0  0  0  0  0  0  0
   54.0470   22.2780   45.2660 N   0  0  0  0  0  0  0  0  0  0  0  0
   55.3020   22.7780   45.4090 C   0  0  0  0  0  0  0  0  0  0  0  0
   56.2850   21.9900   45.3560 O   0  0  0  0  0  0  0  0  0  0  0  0
   56.9990   29.7040   45.2250 C   0  0  0  0  0  0  0  0  0  0  0  0
   55.6250   29.7150   45.0090 O   0  0  0  0  0  0  0  0  0  0  0  0
   57.7215   33.7944   46.1543 H   0  0  0  0  0  0  0  0  0  0  0  0
   58.5060   33.3494   44.6009 H   0  0  0  0  0  0  0  0  0  0  0  0
   56.8694   34.0900   44.6009 H   0  0  0  0  0  0  0  0  0  0  0  0
   59.6294   31.8570   45.6397 H   0  0  0  0  0  0  0  0  0  0  0  0
   60.8550   29.6948   45.8091 H   0  0  0  0  0  0  0  0  0  0  0  0
   59.6256   27.5377   45.6060 H   0  0  0  0  0  0  0  0  0  0  0  0
   56.2439   27.0931   44.4078 H   0  0  0  0  0  0  0  0  0  0  0  0
   57.3593   26.4067   47.1334 H   0  0  0  0  0  0  0  0  0  0  0  0
  1  2  1  0
  2  3  1  0
  3  4  2  0
  4  5  1  0
  5  6  2  0
  6  7  1  0
  7  8  1  0
  8  9  2  3
  9 10  1  0
 10 11  2  0
 10 12  1  0
 12 13  2  0
 13 14  1  0
 13 15  1  0
 15 16  1  0
 16 17  2  0
 16 18  1  0
 18 19  1  0
 19 20  2  0
  7 21  2  0
 21 22  1  0
 21  3  1  0
 19 12  1  0
  1 23  1  0
  1 24  1  0
  1 25  1  0
  4 26  1  0
  5 27  1  0
  6 28  1  0
  8 29  1  0
  9 30  1  0
M  CHG  4  14  -1  15  -1  18  -1  22  -1
M  END
>  <UniqueID>  (92) 
87

>  <SMILES>  (92) 
COc1cccc(C=CC(=O)c2c([O-])[n-]c(=O)[n-]c2=O)c1[O-]

>  <Energy>  (92) 
45.173195075593945

>  <Genealogy>  (92) 
COc1cccc(C=CC(=O)c2c([O-])[n-]c(=O)[n-]c2=O)c1[O-] (protonated)
COc1cccc(C=CC(=O)c2c([O-])[n-]c(=O)[n-]c2=O)c1[O-] (3D coordinates assigned)
COc1cccc(C=CC(=O)c2c([O-])[n-]c(=O)[n-]c2=O)c1[O-] (optimized conformer: 45.173195075593945 kcal/mol)

>  <smiles>  (92) 
COc1cccc(C=CC(=O)c2c(O)[nH]c(=O)[nH]c2=O)c1O

>  <score_type>  (92) 
oracle

>  <origin>  (92) 
adg

>  <m_score__min__energy>  (92) 
-16.960000000000001

>  <m_primary>  (92) 
energy

$$$$
92:0
     RDKit          3D

 67 71  0  0  0  0  0  0  0  0999 V2000
   54.2660   30.4520   51.9270 C   0  0  0  0  0  0  0  0  0  0  0  0
   55.5240   29.7920   52.0000 O   0  0  0  0  0  0  0  0  0  0  0  0
   56.7670   30.4450   51.9590 C   0  0  0  0  0  0  0  0  0  0  0  0
   57.9630   29.7710   51.6440 C   0  0  0  0  0  0  0  0  0  0  0  0
   59.1760   30.4660   51.6180 C   0  0  0  0  0  0  0  0  0  0  0  0
   59.2140   31.8410   51.8990 C   0  0  0  0  0  0  0  0  0  0  0  0
   60.5180   32.5820   51.8300 C   0  0  0  0  0  0  0  0  0  0  0  0
   60.3050   33.8760   51.1940 N   0  0  0  0  0  0  0  0  0  0  0  0
   60.8450   34.2140   49.9120 C   0  0  0  0  0  0  0  0  0  0  0  0
   62.0470   34.5800   49.8140 O   0  0  0  0  0  0  0  0  0  0  0  0
   59.9910   34.1330   48.7050 C   0  0  0  0  0  0  0  0  0  0  0  0
   58.9290   33.2160   48.6420 C   0  0  0  0  0  0  0  0  0  0  0  0
   58.1480   33.1100   47.4880 C   0  0  0  0  0  0  0  0  0  0  0  0
   58.4270   33.9050   46.3640 C   0  0  0  0  0  0  0  0  0  0  0  0
   57.6600   33.7430   45.1050 C   0  0  0  0  0  0  0  0  0  0  0  0
   56.6730   34.4920   44.8830 O   0  0  0  0  0  0  0  0  0  0  0  0
   57.9930   32.7440   44.1280 N   0  0  0  0  0  0  0  0  0  0  0  0
   57.7190   31.3360   44.2170 C   0  0  0  0  0  0  0  0  0  0  0  0
   56.7590   30.7920   43.3550 C   0  0  0  0  0  0  0  0  0  0  0  0
   56.4260   29.4390   43.4270 C   0  0  0  0  0  0  0  0  0  0  0  0
   57.0580   28.6140   44.3570 C   0  0  0  0  0  0  0  0  0  0  0  0
   58.0400   29.1340   45.2040 C   0  0  0  0  0  0  0  0  0  0  0  0
   58.4000   30.4940   45.1270 C   0  0  0  0  0  0  0  0  0  0  0  0
   59.4310   31.0340   45.9150 O   0  0  0  0  0  0  0  0  0  0  0  0
   60.0340   30.4030   47.0450 C   0  0  0  0  0  0  0  0  0  0  0  0
   61.2460   31.1560   47.5120 C   0  0  0  0  0  0  0  0  0  0  0  0
   61.7930   32.1860   46.7500 C   0  0  0  0  0  0  0  0  0  0  0  0
   62.9080   32.8700   47.2370 C   0  0  0  0  0  0  0  0  0  0  0  0
   63.4090   33.7890   46.5330 O   0  0  0  0  0  0  0  0  0  0  0  0
   63.4430   32.5410   48.4590 N   0  0  0  0  0  0  0  0  0  0  0  0
   64.5400   33.2090   48.9410 C   0  0  0  0  0  0  0  0  0  0  0  0
   65.0850   32.8830   50.1830 C   0  0  0  0  0  0  0  0  0  0  0  0
   64.5110   31.8710   50.9440 C   0  0  0  0  0  0  0  0  0  0  0  0
   63.3870   31.1880   50.4670 C   0  0  0  0  0  0  0  0  0  0  0  0
   62.7790   30.0790   51.2820 C   0  0  0  0  0  0  0  0  0  0  0  0
   62.8670   31.5320   49.2040 C   0  0  0  0  0  0  0  0  0  0  0  0
   61.7860   30.8640   48.7200 N   0  0  0  0  0  0  0  0  0  0  0  0
   59.4660   34.8460   46.4380 C   0  0  0  0  0  0  0  0  0  0  0  0
   60.2430   34.9570   47.5940 C   0  0  0  0  0  0  0  0  0  0  0  0
   58.0220   32.5120   52.2100 C   0  0  0  0  0  0  0  0  0  0  0  0
   56.8090   31.8150   52.2420 C   0  0  0  0  0  0  0  0  0  0  0  0
   53.8946   30.6468   52.9439 H   0  0  0  0  0  0  0  0  0  0  0  0
   54.3826   31.4051   51.3903 H   0  0  0  0  0  0  0  0  0  0  0  0
   53.5480   29.8144   51.3903 H   0  0  0  0  0  0  0  0  0  0  0  0
   57.9427   28.6947   51.4178 H   0  0  0  0  0  0  0  0  0  0  0  0
   60.1066   29.9319   51.3758 H   0  0  0  0  0  0  0  0  0  0  0  0
   60.9090   32.7326   52.8471 H   0  0  0  0  0  0  0  0  0  0  0  0
   61.2423   31.9983   51.2430 H   0  0  0  0  0  0  0  0  0  0  0  0
   58.7100   32.5754   49.5090 H   0  0  0  0  0  0  0  0  0  0  0  0
   57.3090   32.3992   47.4596 H   0  0  0  0  0  0  0  0  0  0  0  0
   56.2631   31.4369   42.6146 H   0  0  0  0  0  0  0  0  0  0  0  0
   55.6650   29.0231   42.7503 H   0  0  0  0  0  0  0  0  0  0  0  0
   56.7826   27.5511   44.4239 H   0  0  0  0  0  0  0  0  0  0  0  0
   58.5349   28.4779   45.9351 H   0  0  0  0  0  0  0  0  0  0  0  0
   59.3013   30.3608   47.8644 H   0  0  0  0  0  0  0  0  0  0  0  0
   60.3482   29.3912   46.7492 H   0  0  0  0  0  0  0  0  0  0  0  0
   61.3527   32.4563   45.7789 H   0  0  0  0  0  0  0  0  0  0  0  0
   64.9951   34.0109   48.3412 H   0  0  0  0  0  0  0  0  0  0  0  0
   65.9656   33.4246   50.5588 H   0  0  0  0  0  0  0  0  0  0  0  0
   64.9408   31.6072   51.9216 H   0  0  0  0  0  0  0  0  0  0  0  0
   62.9009   30.3013   52.3524 H   0  0  0  0  0  0  0  0  0  0  0  0
   61.7082   29.9942   51.0447 H   0  0  0  0  0  0  0  0  0  0  0  0
   63.2833   29.1307   51.0447 H   0  0  0  0  0  0  0  0  0  0  0  0
   59.6702   35.5016   45.5786 H   0  0  0  0  0  0  0  0  0  0  0  0
   61.0580   35.6946   47.6352 H   0  0  0  0  0  0  0  0  0  0  0  0
   58.0409   33.5897   52.4295 H   0  0  0  0  0  0  0  0  0  0  0  0
   55.8801   32.3487   52.4918 H   0  0  0  0  0  0  0  0  0  0  0  0
  1  2  1  0
  2  3  1  0
  3  4  2  0
  4  5  1  0
  5  6  2  0
  6  7  1  0
  7  8  1  0
  8  9  1  0
  9 10  2  0
  9 11  1  0
 11 12  2  0
 12 13  1  0
 13 14  2  0
 14 15  1  0
 15 16  2  0
 15 17  1  0
 17 18  1  0
 18 19  2  0
 19 20  1  0
 20 21  2  0
 21 22  1  0
 22 23  2  0
 23 24  1  0
 24 25  1  0
 25 26  1  0
 26 27  2  0
 27 28  1  0
 28 29  2  0
 28 30  1  0
 30 31  1  0
 31 32  2  0
 32 33  1  0
 33 34  2  0
 34 35  1  0
 34 36  1  0
 36 37  2  0
 14 38  1  0
 38 39  2  0
  6 40  1  0
 40 41  2  0
 41  3  1  0
 39 11  1  0
 23 18  1  0
 37 26  1  0
 36 30  1  0
  1 42  1  0
  1 43  1  0
  1 44  1  0
  4 45  1  0
  5 46  1  0
  7 47  1  0
  7 48  1  0
 12 49  1  0
 13 50  1  0
 19 51  1  0
 20 52  1  0
 21 53  1  0
 22 54  1  0
 25 55  1  0
 25 56  1  0
 27 57  1  0
 31 58  1  0
 32 59  1  0
 33 60  1  0
 35 61  1  0
 35 62  1  0
 35 63  1  0
 38 64  1  0
 39 65  1  0
 40 66  1  0
 41 67  1  0
M  CHG  2   8  -1  17  -1
M  END
>  <UniqueID>  (93) 
88

>  <SMILES>  (93) 
COc1ccc(C[N-]C(=O)c2ccc(C(=O)[N-]c3ccccc3OCc3cc(=O)n4cccc(C)c4n3)cc2)cc1

>  <Energy>  (93) 
84.03868250701002

>  <Genealogy>  (93) 
COc1ccc(C[N-]C(=O)c2ccc(C(=O)[N-]c3ccccc3OCc3cc(=O)n4cccc(C)c4n3)cc2)cc1 (protonated)
COc1ccc(C[N-]C(=O)c2ccc(C(=O)[N-]c3ccccc3OCc3cc(=O)n4cccc(C)c4n3)cc2)cc1 (3D coordinates assigned)
COc1ccc(C[N-]C(=O)c2ccc(C(=O)[N-]c3ccccc3OCc3cc(=O)n4cccc(C)c4n3)cc2)cc1 (optimized conformer: 84.03868250701002 kcal/mol)

>  <smiles>  (93) 
COc1ccc(CNC(=O)c2ccc(C(=O)Nc3ccccc3OCc3cc(=O)n4cccc(C)c4n3)cc2)cc1

>  <score_type>  (93) 
oracle

>  <origin>  (93) 
adg

>  <m_score__min__energy>  (93) 
-12.199999999999999

>  <m_primary>  (93) 
energy

$$$$
93:0
     RDKit          3D

 50 52  0  0  0  0  0  0  0  0999 V2000
   63.6990   32.3350   47.1770 C   0  0  0  0  0  0  0  0  0  0  0  0
   63.6940   33.0450   48.5040 C   0  0  0  0  0  0  0  0  0  0  0  0
   64.7490   32.8330   49.4080 C   0  0  0  0  0  0  0  0  0  0  0  0
   64.7620   33.4790   50.6460 C   0  0  0  0  0  0  0  0  0  0  0  0
   63.7190   34.3350   50.9990 C   0  0  0  0  0  0  0  0  0  0  0  0
   62.6600   34.5500   50.1150 C   0  0  0  0  0  0  0  0  0  0  0  0
   62.6390   33.9190   48.8570 C   0  0  0  0  0  0  0  0  0  0  0  0
   61.5240   34.1110   47.9690 N   0  0  0  0  0  0  0  0  0  0  0  0
   60.1570   34.1780   48.4110 C   0  0  0  0  0  0  0  0  0  0  0  0
   59.8760   34.0550   49.6330 O   0  0  0  0  0  0  0  0  0  0  0  0
   59.0880   34.3490   47.4740 N   0  0  0  0  0  0  0  0  0  0  0  0
   58.6280   33.3650   46.5390 C   0  0  0  0  0  0  0  0  0  0  0  0
   57.4340   33.5370   45.8190 C   0  0  0  0  0  0  0  0  0  0  0  0
   56.9910   32.5450   44.9400 C   0  0  0  0  0  0  0  0  0  0  0  0
   57.7290   31.3630   44.7770 C   0  0  0  0  0  0  0  0  0  0  0  0
   57.2290   30.2710   43.8710 C   0  0  0  0  0  0  0  0  0  0  0  0
   56.4640   29.2590   44.6620 C   0  0  0  0  0  0  0  0  0  0  0  0
   55.3740   29.5820   45.2080 O   0  0  0  0  0  0  0  0  0  0  0  0
   56.9610   27.9220   44.7720 N   0  0  0  0  0  0  0  0  0  0  0  0
   57.8780   27.5260   45.7960 C   0  0  0  0  0  0  0  0  0  0  0  0
   59.0240   28.3010   46.0140 C   0  0  0  0  0  0  0  0  0  0  0  0
   59.9310   27.9490   47.0170 C   0  0  0  0  0  0  0  0  0  0  0  0
   59.7010   26.8180   47.8020 C   0  0  0  0  0  0  0  0  0  0  0  0
   58.5660   26.0320   47.5830 C   0  0  0  0  0  0  0  0  0  0  0  0
   57.6480   26.3730   46.5770 C   0  0  0  0  0  0  0  0  0  0  0  0
   56.2390   25.3430   46.2970 S   0  0  0  0  0  0  0  0  0  0  0  0
   54.8460   26.3230   46.0000 N   0  0  0  0  0  0  0  0  0  0  0  0
   56.4680   24.4650   45.0980 O   0  0  0  0  0  0  0  0  0  0  0  0
   56.0000   24.4750   47.4980 O   0  0  0  0  0  0  0  0  0  0  0  0
   58.9030   31.1770   45.5240 C   0  0  0  0  0  0  0  0  0  0  0  0
   59.3440   32.1700   46.4040 C   0  0  0  0  0  0  0  0  0  0  0  0
   63.7067   31.2476   47.3430 H   0  0  0  0  0  0  0  0  0  0  0  0
   62.7989   32.6129   46.6091 H   0  0  0  0  0  0  0  0  0  0  0  0
   64.5951   32.6255   46.6091 H   0  0  0  0  0  0  0  0  0  0  0  0
   65.5706   32.1531   49.1384 H   0  0  0  0  0  0  0  0  0  0  0  0
   65.5960   33.3125   51.3437 H   0  0  0  0  0  0  0  0  0  0  0  0
   63.7308   34.8415   51.9754 H   0  0  0  0  0  0  0  0  0  0  0  0
   61.8352   35.2180   50.4040 H   0  0  0  0  0  0  0  0  0  0  0  0
   61.7260   34.2230   46.9510 H   0  0  0  0  0  0  0  0  0  0  0  0
   56.8449   34.4570   45.9478 H   0  0  0  0  0  0  0  0  0  0  0  0
   56.0596   32.6916   44.3734 H   0  0  0  0  0  0  0  0  0  0  0  0
   56.5714   30.7066   43.1043 H   0  0  0  0  0  0  0  0  0  0  0  0
   58.0879   29.7792   43.3910 H   0  0  0  0  0  0  0  0  0  0  0  0
   59.2107   29.1899   45.3935 H   0  0  0  0  0  0  0  0  0  0  0  0
   60.8270   28.5637   47.1881 H   0  0  0  0  0  0  0  0  0  0  0  0
   60.4138   26.5449   48.5940 H   0  0  0  0  0  0  0  0  0  0  0  0
   58.3909   25.1404   48.2030 H   0  0  0  0  0  0  0  0  0  0  0  0
   55.1440   27.0920   45.3600 H   0  0  0  0  0  0  0  0  0  0  0  0
   59.4786   30.2458   45.4165 H   0  0  0  0  0  0  0  0  0  0  0  0
   60.2589   32.0111   46.9936 H   0  0  0  0  0  0  0  0  0  0  0  0
  1  2  1  0
  2  3  2  0
  3  4  1  0
  4  5  2  0
  5  6  1  0
  6  7  2  0
  7  8  1  0
  8  9  1  0
  9 10  2  0
  9 11  1  0
 11 12  1  0
 12 13  2  0
 13 14  1  0
 14 15  2  0
 15 16  1  0
 16 17  1  0
 17 18  2  0
 17 19  1  0
 19 20  1  0
 20 21  2  0
 21 22  1  0
 22 23  2  0
 23 24  1  0
 24 25  2  0
 25 26  1  0
 26 27  1  0
 26 28  2  0
 26 29  2  0
 15 30  1  0
 30 31  2  0
  7  2  1  0
 31 12  1  0
 25 20  1  0
  1 32  1  0
  1 33  1  0
  1 34  1  0
  3 35  1  0
  4 36  1  0
  5 37  1  0
  6 38  1  0
  8 39  1  0
 13 40  1  0
 14 41  1  0
 16 42  1  0
 16 43  1  0
 21 44  1  0
 22 45  1  0
 23 46  1  0
 24 47  1  0
 27 48  1  0
 30 49  1  0
 31 50  1  0
M  CHG  3  11  -1  19  -1  27  -1
M  END
>  <UniqueID>  (94) 
89

>  <SMILES>  (94) 
Cc1ccccc1NC(=O)[N-]c1ccc(CC(=O)[N-]c2ccccc2S([NH-])(=O)=O)cc1

>  <Energy>  (94) 
65.08861421667362

>  <Genealogy>  (94) 
Cc1ccccc1NC(=O)[N-]c1ccc(CC(=O)[N-]c2ccccc2S([NH-])(=O)=O)cc1 (protonated)
Cc1ccccc1NC(=O)[N-]c1ccc(CC(=O)[N-]c2ccccc2S([NH-])(=O)=O)cc1 (3D coordinates assigned)
Cc1ccccc1NC(=O)[N-]c1ccc(CC(=O)[N-]c2ccccc2S([NH-])(=O)=O)cc1 (optimized conformer: 65.08861421667362 kcal/mol)

>  <smiles>  (94) 
Cc1ccccc1NC(=O)Nc1ccc(CC(=O)Nc2ccccc2S(N)(=O)=O)cc1

>  <score_type>  (94) 
oracle

>  <origin>  (94) 
adg

>  <m_score__min__energy>  (94) 
-15.65

>  <m_primary>  (94) 
energy

$$$$
94:0
     RDKit          3D

 48 50  0  0  0  0  0  0  0  0999 V2000
   55.1480   29.3370   45.1630 N   0  0  0  0  0  0  0  0  0  0  0  0
   56.5820   29.9420   44.4110 S   0  0  0  0  0  0  0  0  0  0  0  0
   56.6060   31.4410   44.5240 O   0  0  0  0  0  0  0  0  0  0  0  0
   56.5890   29.5640   42.9560 O   0  0  0  0  0  0  0  0  0  0  0  0
   57.9910   29.2450   45.2030 C   0  0  0  0  0  0  0  0  0  0  0  0
   59.0740   28.8090   44.4300 C   0  0  0  0  0  0  0  0  0  0  0  0
   60.2050   28.2710   45.0450 C   0  0  0  0  0  0  0  0  0  0  0  0
   60.2540   28.1490   46.4370 C   0  0  0  0  0  0  0  0  0  0  0  0
   59.1660   28.5470   47.2220 C   0  0  0  0  0  0  0  0  0  0  0  0
   59.2640   28.4110   48.6480 N   0  0  0  0  0  0  0  0  0  0  0  0
   59.3290   29.4710   49.6110 C   0  0  0  0  0  0  0  0  0  0  0  0
   58.2850   30.0680   49.9890 O   0  0  0  0  0  0  0  0  0  0  0  0
   60.6500   29.8430   50.2080 C   0  0  0  0  0  0  0  0  0  0  0  0
   60.8820   31.2460   50.0870 O   0  0  0  0  0  0  0  0  0  0  0  0
   62.0920   31.8450   49.6910 C   0  0  0  0  0  0  0  0  0  0  0  0
   63.1280   32.1090   50.6100 C   0  0  0  0  0  0  0  0  0  0  0  0
   64.3190   32.6990   50.1830 C   0  0  0  0  0  0  0  0  0  0  0  0
   64.4920   33.0370   48.8410 C   0  0  0  0  0  0  0  0  0  0  0  0
   63.4770   32.7790   47.9190 C   0  0  0  0  0  0  0  0  0  0  0  0
   62.2770   32.1750   48.3310 C   0  0  0  0  0  0  0  0  0  0  0  0
   61.2050   31.9240   47.3390 C   0  0  0  0  0  0  0  0  0  0  0  0
   61.2090   30.8350   46.7040 O   0  0  0  0  0  0  0  0  0  0  0  0
   60.1670   32.8930   47.0820 N   0  0  0  0  0  0  0  0  0  0  0  0
   58.8190   32.4500   46.7060 C   0  0  0  0  0  0  0  0  0  0  0  0
   58.2030   33.4420   45.7150 C   0  0  0  0  0  0  0  0  0  0  0  0
   58.2740   34.7630   46.2150 O   0  0  0  0  0  0  0  0  0  0  0  0
   59.6280   35.1620   46.3160 C   0  0  0  0  0  0  0  0  0  0  0  0
   60.3660   34.3200   47.3620 C   0  0  0  0  0  0  0  0  0  0  0  0
   58.0380   29.1140   46.6000 C   0  0  0  0  0  0  0  0  0  0  0  0
   54.3940   29.3540   44.4390 H   0  0  0  0  0  0  0  0  0  0  0  0
   59.0330   28.8909   43.3338 H   0  0  0  0  0  0  0  0  0  0  0  0
   61.0588   27.9426   44.4342 H   0  0  0  0  0  0  0  0  0  0  0  0
   61.1535   27.7375   46.9182 H   0  0  0  0  0  0  0  0  0  0  0  0
   60.6555   29.5668   51.2727 H   0  0  0  0  0  0  0  0  0  0  0  0
   61.4448   29.3058   49.6698 H   0  0  0  0  0  0  0  0  0  0  0  0
   62.9970   31.8484   51.6706 H   0  0  0  0  0  0  0  0  0  0  0  0
   65.1231   32.8978   50.9068 H   0  0  0  0  0  0  0  0  0  0  0  0
   65.4294   33.5073   48.5092 H   0  0  0  0  0  0  0  0  0  0  0  0
   63.6172   33.0503   46.8622 H   0  0  0  0  0  0  0  0  0  0  0  0
   58.8787   31.4563   46.2381 H   0  0  0  0  0  0  0  0  0  0  0  0
   58.1896   32.3991   47.6067 H   0  0  0  0  0  0  0  0  0  0  0  0
   58.7508   33.3872   44.7627 H   0  0  0  0  0  0  0  0  0  0  0  0
   57.1455   33.1788   45.5649 H   0  0  0  0  0  0  0  0  0  0  0  0
   60.1161   35.0324   45.3388 H   0  0  0  0  0  0  0  0  0  0  0  0
   59.6629   36.2174   46.6240 H   0  0  0  0  0  0  0  0  0  0  0  0
   61.4405   34.5528   47.3262 H   0  0  0  0  0  0  0  0  0  0  0  0
   59.9694   34.5528   48.3613 H   0  0  0  0  0  0  0  0  0  0  0  0
   57.1896   29.4560   47.2110 H   0  0  0  0  0  0  0  0  0  0  0  0
  1  2  1  0
  2  3  2  0
  2  4  2  0
  2  5  1  0
  5  6  2  0
  6  7  1  0
  7  8  2  0
  8  9  1  0
  9 10  1  0
 10 11  1  0
 11 12  2  0
 11 13  1  0
 13 14  1  0
 14 15  1  0
 15 16  2  0
 16 17  1  0
 17 18  2  0
 18 19  1  0
 19 20  2  0
 20 21  1  0
 21 22  2  0
 21 23  1  0
 23 24  1  0
 24 25  1  0
 25 26  1  0
 26 27  1  0
 27 28  1  0
  9 29  2  0
 29  5  1  0
 20 15  1  0
 28 23  1  0
  1 30  1  0
  6 31  1  0
  7 32  1  0
  8 33  1  0
 13 34  1  0
 13 35  1  0
 16 36  1  0
 17 37  1  0
 18 38  1  0
 19 39  1  0
 24 40  1  0
 24 41  1  0
 25 42  1  0
 25 43  1  0
 27 44  1  0
 27 45  1  0
 28 46  1  0
 28 47  1  0
 29 48  1  0
M  CHG  2   1  -1  10  -1
M  END
>  <UniqueID>  (95) 
90

>  <SMILES>  (95) 
[NH-]S(=O)(=O)c1cccc([N-]C(=O)COc2ccccc2C(=O)N2CCOCC2)c1

>  <Energy>  (95) 
59.64729898986022

>  <Genealogy>  (95) 
[NH-]S(=O)(=O)c1cccc([N-]C(=O)COc2ccccc2C(=O)N2CCOCC2)c1 (protonated)
[NH-]S(=O)(=O)c1cccc([N-]C(=O)COc2ccccc2C(=O)N2CCOCC2)c1 (3D coordinates assigned)
[NH-]S(=O)(=O)c1cccc([N-]C(=O)COc2ccccc2C(=O)N2CCOCC2)c1 (nonaromatic ring conformer: 59.64729898986022 kcal/mol)

>  <smiles>  (95) 
NS(=O)(=O)c1cccc(NC(=O)COc2ccccc2C(=O)N2CCOCC2)c1

>  <score_type>  (95) 
oracle

>  <origin>  (95) 
adg

>  <m_score__min__energy>  (95) 
-12.58

>  <m_primary>  (95) 
energy

$$$$
