0:0
     RDKit          3D

 36 37  0  0  0  0  0  0  0  0999 V2000
   57.7680   32.9150   47.3760 C   0  0  0  0  0  0  0  0  0  0  0  0
   58.9370   33.3650   46.6220 N   0  0  0  0  0  0  0  0  0  0  0  0
   60.2230   32.7740   46.8710 C   0  0  0  0  0  0  0  0  0  0  0  0
   61.3580   33.5950   46.9690 C   0  0  0  0  0  0  0  0  0  0  0  0
   62.6280   33.0370   47.1290 C   0  0  0  0  0  0  0  0  0  0  0  0
   62.7820   31.6500   47.1680 C   0  0  0  0  0  0  0  0  0  0  0  0
   61.6650   30.8190   47.0510 C   0  0  0  0  0  0  0  0  0  0  0  0
   60.3830   31.3660   46.9190 C   0  0  0  0  0  0  0  0  0  0  0  0
   59.2960   30.4880   46.8000 O   0  0  0  0  0  0  0  0  0  0  0  0
   58.4070   30.4710   45.7180 C   0  0  0  0  0  0  0  0  0  0  0  0
   58.6750   31.1830   44.5360 C   0  0  0  0  0  0  0  0  0  0  0  0
   57.7830   31.1270   43.4580 C   0  0  0  0  0  0  0  0  0  0  0  0
   58.0700   31.8360   42.2490 N   0  0  0  0  0  0  0  0  0  0  0  0
   56.6060   30.3720   43.5700 C   0  0  0  0  0  0  0  0  0  0  0  0
   56.3230   29.6880   44.7550 C   0  0  0  0  0  0  0  0  0  0  0  0
   55.1520   28.9490   44.8660 O   0  0  0  0  0  0  0  0  0  0  0  0
   57.2180   29.7430   45.8280 C   0  0  0  0  0  0  0  0  0  0  0  0
   58.6610   34.3620   45.2220 S   0  0  0  0  0  0  0  0  0  0  0  0
   56.9260   34.5560   44.8620 C   0  0  0  0  0  0  0  0  0  0  0  0
   59.2630   35.7190   45.4510 O   0  0  0  0  0  0  0  0  0  0  0  0
   59.3170   33.7230   44.0290 O   0  0  0  0  0  0  0  0  0  0  0  0
   57.9740   32.9943   48.4536 H   0  0  0  0  0  0  0  0  0  0  0  0
   56.9026   33.5443   47.1208 H   0  0  0  0  0  0  0  0  0  0  0  0
   57.5479   31.8679   47.1208 H   0  0  0  0  0  0  0  0  0  0  0  0
   61.2456   34.6881   46.9193 H   0  0  0  0  0  0  0  0  0  0  0  0
   63.5076   33.6906   47.2244 H   0  0  0  0  0  0  0  0  0  0  0  0
   63.7832   31.2112   47.2909 H   0  0  0  0  0  0  0  0  0  0  0  0
   61.7938   29.7266   47.0627 H   0  0  0  0  0  0  0  0  0  0  0  0
   59.5906   31.7876   44.4574 H   0  0  0  0  0  0  0  0  0  0  0  0
   58.3900   32.8300   42.2750 H   0  0  0  0  0  0  0  0  0  0  0  0
   57.9580   31.3740   41.3190 H   0  0  0  0  0  0  0  0  0  0  0  0
   55.9051   30.3184   42.7239 H   0  0  0  0  0  0  0  0  0  0  0  0
   56.9858   29.2114   46.7626 H   0  0  0  0  0  0  0  0  0  0  0  0
   56.3610   34.6192   45.8037 H   0  0  0  0  0  0  0  0  0  0  0  0
   56.7730   35.4769   44.2801 H   0  0  0  0  0  0  0  0  0  0  0  0
   56.5734   33.6917   44.2801 H   0  0  0  0  0  0  0  0  0  0  0  0
  1  2  1  0
  2  3  1  0
  3  4  2  0
  4  5  1  0
  5  6  2  0
  6  7  1  0
  7  8  2  0
  8  9  1  0
  9 10  1  0
 10 11  2  0
 11 12  1  0
 12 13  1  0
 12 14  2  0
 14 15  1  0
 15 16  1  0
 15 17  2  0
  2 18  1  0
 18 19  1  0
 18 20  2  0
 18 21  2  0
  8  3  1  0
 17 10  1  0
  1 22  1  0
  1 23  1  0
  1 24  1  0
  4 25  1  0
  5 26  1  0
  6 27  1  0
  7 28  1  0
 11 29  1  0
 13 30  1  0
 13 31  1  0
 14 32  1  0
 17 33  1  0
 19 34  1  0
 19 35  1  0
 19 36  1  0
M  CHG  1  16  -1
M  END
>  <UniqueID>  (1) 
1

>  <SMILES>  (1) 
CN(c1ccccc1Oc1cc(N)cc([O-])c1)S(C)(=O)=O

>  <Energy>  (1) 
42.89395506329965

>  <Genealogy>  (1) 
CN(c1ccccc1Oc1cc(N)cc([O-])c1)S(C)(=O)=O (protonated)
CN(c1ccccc1Oc1cc(N)cc([O-])c1)S(C)(=O)=O (3D coordinates assigned)
CN(c1ccccc1Oc1cc(N)cc([O-])c1)S(C)(=O)=O (optimized conformer: 42.89395506329965 kcal/mol)

>  <smiles>  (1) 
CN(c1ccccc1Oc1cc(N)cc(O)c1)S(C)(=O)=O

>  <score_type>  (1) 
oracle

>  <origin>  (1) 
adg

>  <m_score__min__energy>  (1) 
-10.359999999999999

>  <m_primary>  (1) 
energy

$$$$
1:0
     RDKit          3D

 50 52  0  0  0  0  0  0  0  0999 V2000
   56.5510   30.1780   43.5530 C   0  0  0  0  0  0  0  0  0  0  0  0
   56.6510   30.7190   44.8660 O   0  0  0  0  0  0  0  0  0  0  0  0
   57.4090   31.8510   45.2010 C   0  0  0  0  0  0  0  0  0  0  0  0
   57.8070   32.7120   44.1720 C   0  0  0  0  0  0  0  0  0  0  0  0
   58.5720   33.8470   44.4520 C   0  0  0  0  0  0  0  0  0  0  0  0
   58.9420   34.1360   45.7670 C   0  0  0  0  0  0  0  0  0  0  0  0
   58.5390   33.2940   46.8160 C   0  0  0  0  0  0  0  0  0  0  0  0
   58.9720   33.5850   48.2290 C   0  0  0  0  0  0  0  0  0  0  0  0
   59.9880   34.6510   48.2460 N   0  0  0  0  0  0  0  0  0  0  0  0
   61.3530   34.1320   48.4500 C   0  0  0  0  0  0  0  0  0  0  0  0
   61.7400   32.9590   47.5190 C   0  0  0  0  0  0  0  0  0  0  0  0
   62.0210   31.6190   48.2280 C   0  0  0  0  0  0  0  0  0  0  0  0
   60.7580   30.8270   48.6040 C   0  0  0  0  0  0  0  0  0  0  0  0
   60.2610   29.9740   47.4650 C   0  0  0  0  0  0  0  0  0  0  0  0
   60.8240   30.0970   46.1840 C   0  0  0  0  0  0  0  0  0  0  0  0
   60.3480   29.3230   45.1230 C   0  0  0  0  0  0  0  0  0  0  0  0
   59.3000   28.4140   45.3260 C   0  0  0  0  0  0  0  0  0  0  0  0
   58.8140   27.6330   44.2650 C   0  0  0  0  0  0  0  0  0  0  0  0
   57.7690   26.7310   44.4800 C   0  0  0  0  0  0  0  0  0  0  0  0
   57.2010   26.6000   45.7520 C   0  0  0  0  0  0  0  0  0  0  0  0
   55.8890   25.4650   46.0100 Cl  0  0  0  0  0  0  0  0  0  0  0  0
   57.6770   27.3730   46.8160 C   0  0  0  0  0  0  0  0  0  0  0  0
   58.7270   28.2830   46.6120 C   0  0  0  0  0  0  0  0  0  0  0  0
   59.2110   29.0640   47.6720 C   0  0  0  0  0  0  0  0  0  0  0  0
   57.7840   32.1450   46.5270 C   0  0  0  0  0  0  0  0  0  0  0  0
   56.3514   29.0981   43.6156 H   0  0  0  0  0  0  0  0  0  0  0  0
   55.7290   30.6722   43.0144 H   0  0  0  0  0  0  0  0  0  0  0  0
   57.4954   30.3457   43.0144 H   0  0  0  0  0  0  0  0  0  0  0  0
   57.5151   32.4933   43.1342 H   0  0  0  0  0  0  0  0  0  0  0  0
   58.8835   34.5143   43.6349 H   0  0  0  0  0  0  0  0  0  0  0  0
   59.5513   35.0263   45.9819 H   0  0  0  0  0  0  0  0  0  0  0  0
   58.0994   33.9067   48.8164 H   0  0  0  0  0  0  0  0  0  0  0  0
   59.4054   32.6724   48.6642 H   0  0  0  0  0  0  0  0  0  0  0  0
   59.7550   35.3640   48.9740 H   0  0  0  0  0  0  0  0  0  0  0  0
   59.9760   35.1360   47.3180 H   0  0  0  0  0  0  0  0  0  0  0  0
   62.0625   34.9550   48.2786 H   0  0  0  0  0  0  0  0  0  0  0  0
   61.3880   33.7402   49.4773 H   0  0  0  0  0  0  0  0  0  0  0  0
   60.9140   32.8014   46.8099 H   0  0  0  0  0  0  0  0  0  0  0  0
   62.6848   33.2520   47.0378 H   0  0  0  0  0  0  0  0  0  0  0  0
   62.6320   30.9960   47.5583 H   0  0  0  0  0  0  0  0  0  0  0  0
   62.5336   31.8619   49.1705 H   0  0  0  0  0  0  0  0  0  0  0  0
   60.9899   30.1756   49.4595 H   0  0  0  0  0  0  0  0  0  0  0  0
   59.9678   31.5502   48.8542 H   0  0  0  0  0  0  0  0  0  0  0  0
   61.6460   30.8082   46.0150 H   0  0  0  0  0  0  0  0  0  0  0  0
   60.7972   29.4271   44.1243 H   0  0  0  0  0  0  0  0  0  0  0  0
   59.2568   27.7316   43.2629 H   0  0  0  0  0  0  0  0  0  0  0  0
   57.3912   26.1214   43.6459 H   0  0  0  0  0  0  0  0  0  0  0  0
   57.2280   27.2679   47.8147 H   0  0  0  0  0  0  0  0  0  0  0  0
   58.7651   28.9631   48.6725 H   0  0  0  0  0  0  0  0  0  0  0  0
   57.4834   31.4700   47.3418 H   0  0  0  0  0  0  0  0  0  0  0  0
  1  2  1  0
  2  3  1  0
  3  4  2  0
  4  5  1  0
  5  6  2  0
  6  7  1  0
  7  8  1  0
  8  9  1  0
  9 10  1  0
 10 11  1  0
 11 12  1  0
 12 13  1  0
 13 14  1  0
 14 15  2  0
 15 16  1  0
 16 17  2  0
 17 18  1  0
 18 19  2  0
 19 20  1  0
 20 21  1  0
 20 22  2  0
 22 23  1  0
 23 24  2  0
  7 25  2  0
 25  3  1  0
 24 14  1  0
 23 17  1  0
  1 26  1  0
  1 27  1  0
  1 28  1  0
  4 29  1  0
  5 30  1  0
  6 31  1  0
  8 32  1  0
  8 33  1  0
  9 34  1  0
  9 35  1  0
 10 36  1  0
 10 37  1  0
 11 38  1  0
 11 39  1  0
 12 40  1  0
 12 41  1  0
 13 42  1  0
 13 43  1  0
 15 44  1  0
 16 45  1  0
 18 46  1  0
 19 47  1  0
 22 48  1  0
 24 49  1  0
 25 50  1  0
M  CHG  1   9   1
M  END
>  <UniqueID>  (2) 
2

>  <SMILES>  (2) 
COc1cccc(C[NH2+]CCCCc2ccc3ccc(Cl)cc3c2)c1

>  <Energy>  (2) 
50.056534445977455

>  <Genealogy>  (2) 
COc1cccc(C[NH2+]CCCCc2ccc3ccc(Cl)cc3c2)c1 (protonated)
COc1cccc(C[NH2+]CCCCc2ccc3ccc(Cl)cc3c2)c1 (3D coordinates assigned)
COc1cccc(C[NH2+]CCCCc2ccc3ccc(Cl)cc3c2)c1 (optimized conformer: 50.056534445977455 kcal/mol)

>  <smiles>  (2) 
COc1cccc(CNCCCCc2ccc3ccc(Cl)cc3c2)c1

>  <score_type>  (2) 
oracle

>  <origin>  (2) 
adg

>  <m_score__min__energy>  (2) 
-7.2999999999999998

>  <m_primary>  (2) 
energy

$$$$
2:0
     RDKit          3D

 44 47  0  0  0  0  0  0  0  0999 V2000
   54.8960   24.0950   46.7350 O   0  0  0  0  0  0  0  0  0  0  0  0
   55.8860   24.8380   46.5030 C   0  0  0  0  0  0  0  0  0  0  0  0
   55.6890   26.0920   46.0160 N   0  0  0  0  0  0  0  0  0  0  0  0
   56.7340   26.9200   45.7600 C   0  0  0  0  0  0  0  0  0  0  0  0
   56.5110   28.2130   45.2760 C   0  0  0  0  0  0  0  0  0  0  0  0
   57.5960   29.0720   45.0420 C   0  0  0  0  0  0  0  0  0  0  0  0
   57.2970   30.7260   44.5250 S   0  0  0  0  0  0  0  0  0  0  0  0
   55.9320   30.8260   43.9050 O   0  0  0  0  0  0  0  0  0  0  0  0
   58.3170   31.1530   43.5070 O   0  0  0  0  0  0  0  0  0  0  0  0
   57.3780   31.7580   45.9120 N   0  0  0  0  0  0  0  0  0  0  0  0
   58.2540   32.8820   45.9590 C   0  0  0  0  0  0  0  0  0  0  0  0
   58.2140   33.8370   44.9320 C   0  0  0  0  0  0  0  0  0  0  0  0
   59.0780   34.9350   44.9570 C   0  0  0  0  0  0  0  0  0  0  0  0
   59.9930   35.0830   46.0020 C   0  0  0  0  0  0  0  0  0  0  0  0
   60.0410   34.1360   47.0290 C   0  0  0  0  0  0  0  0  0  0  0  0
   59.1700   33.0350   47.0240 C   0  0  0  0  0  0  0  0  0  0  0  0
   59.2600   32.0610   48.0800 N   0  0  0  0  0  0  0  0  0  0  0  0
   59.1050   32.4850   49.4740 C   0  0  0  0  0  0  0  0  0  0  0  0
   58.4850   31.3490   50.2970 C   0  0  0  0  0  0  0  0  0  0  0  0
   59.1930   30.1380   50.1020 O   0  0  0  0  0  0  0  0  0  0  0  0
   59.0730   29.7210   48.7540 C   0  0  0  0  0  0  0  0  0  0  0  0
   59.7670   30.7130   47.8190 C   0  0  0  0  0  0  0  0  0  0  0  0
   58.9030   28.6270   45.2890 C   0  0  0  0  0  0  0  0  0  0  0  0
   59.1300   27.3310   45.7620 C   0  0  0  0  0  0  0  0  0  0  0  0
   58.0500   26.4730   46.0080 C   0  0  0  0  0  0  0  0  0  0  0  0
   58.2450   25.2130   46.4930 N   0  0  0  0  0  0  0  0  0  0  0  0
   57.1920   24.3890   46.7460 C   0  0  0  0  0  0  0  0  0  0  0  0
   57.3930   23.2280   47.1950 O   0  0  0  0  0  0  0  0  0  0  0  0
   55.4849   28.5569   45.0787 H   0  0  0  0  0  0  0  0  0  0  0  0
   57.4996   33.7210   44.1037 H   0  0  0  0  0  0  0  0  0  0  0  0
   59.0375   35.6840   44.1524 H   0  0  0  0  0  0  0  0  0  0  0  0
   60.6760   35.9451   46.0167 H   0  0  0  0  0  0  0  0  0  0  0  0
   60.7666   34.2543   47.8472 H   0  0  0  0  0  0  0  0  0  0  0  0
   60.0908   32.7410   49.8895 H   0  0  0  0  0  0  0  0  0  0  0  0
   58.4457   33.3646   49.5148 H   0  0  0  0  0  0  0  0  0  0  0  0
   58.5178   31.6175   51.3632 H   0  0  0  0  0  0  0  0  0  0  0  0
   57.4452   31.2046   49.9686 H   0  0  0  0  0  0  0  0  0  0  0  0
   59.5377   28.7306   48.6394 H   0  0  0  0  0  0  0  0  0  0  0  0
   58.0059   29.6737   48.4914 H   0  0  0  0  0  0  0  0  0  0  0  0
   60.8522   30.6879   47.9970 H   0  0  0  0  0  0  0  0  0  0  0  0
   59.5621   30.4387   46.7737 H   0  0  0  0  0  0  0  0  0  0  0  0
   59.7537   29.3010   45.1097 H   0  0  0  0  0  0  0  0  0  0  0  0
   60.1584   26.9843   45.9413 H   0  0  0  0  0  0  0  0  0  0  0  0
   59.2150   24.8720   46.6830 H   0  0  0  0  0  0  0  0  0  0  0  0
  1  2  2  0
  2  3  1  0
  3  4  1  0
  4  5  2  0
  5  6  1  0
  6  7  1  0
  7  8  2  0
  7  9  2  0
  7 10  1  0
 10 11  1  0
 11 12  2  0
 12 13  1  0
 13 14  2  0
 14 15  1  0
 15 16  2  0
 16 17  1  0
 17 18  1  0
 18 19  1  0
 19 20  1  0
 20 21  1  0
 21 22  1  0
  6 23  2  0
 23 24  1  0
 24 25  2  0
 25 26  1  0
 26 27  1  0
 27 28  2  0
 27  2  1  0
 25  4  1  0
 16 11  1  0
 22 17  1  0
  5 29  1  0
 12 30  1  0
 13 31  1  0
 14 32  1  0
 15 33  1  0
 18 34  1  0
 18 35  1  0
 19 36  1  0
 19 37  1  0
 21 38  1  0
 21 39  1  0
 22 40  1  0
 22 41  1  0
 23 42  1  0
 24 43  1  0
 26 44  1  0
M  CHG  2   3  -1  10  -1
M  END
>  <UniqueID>  (3) 
3

>  <SMILES>  (3) 
O=c1[n-]c2cc(S(=O)(=O)[N-]c3ccccc3N3CCOCC3)ccc2[nH]c1=O

>  <Energy>  (3) 
64.90407718134604

>  <Genealogy>  (3) 
O=c1[n-]c2cc(S(=O)(=O)[N-]c3ccccc3N3CCOCC3)ccc2[nH]c1=O (protonated)
O=c1[n-]c2cc(S(=O)(=O)[N-]c3ccccc3N3CCOCC3)ccc2[nH]c1=O (3D coordinates assigned)
O=c1[n-]c2cc(S(=O)(=O)[N-]c3ccccc3N3CCOCC3)ccc2[nH]c1=O (nonaromatic ring conformer: 64.90407718134604 kcal/mol)

>  <smiles>  (3) 
O=c1[nH]c2ccc(S(=O)(=O)Nc3ccccc3N3CCOCC3)cc2[nH]c1=O

>  <score_type>  (3) 
oracle

>  <origin>  (3) 
adg

>  <m_score__min__energy>  (3) 
-11.76

>  <m_primary>  (3) 
energy

$$$$
3:0
     RDKit          3D

 28 30  0  0  0  0  0  0  0  0999 V2000
   58.1480   27.1690   43.7590 Br  0  0  0  0  0  0  0  0  0  0  0  0
   57.7470   28.9840   44.2200 C   0  0  0  0  0  0  0  0  0  0  0  0
   56.4650   29.4870   44.1450 C   0  0  0  0  0  0  0  0  0  0  0  0
   56.1630   30.7680   44.4670 N   0  0  0  0  0  0  0  0  0  0  0  0
   57.1380   31.5840   44.8740 C   0  0  0  0  0  0  0  0  0  0  0  0
   57.1650   32.8650   45.2540 N   0  0  0  0  0  0  0  0  0  0  0  0
   58.4400   33.2270   45.5810 C   0  0  0  0  0  0  0  0  0  0  0  0
   58.7660   34.5960   46.0300 C   0  0  0  0  0  0  0  0  0  0  0  0
   59.7330   34.6550   47.5390 S   0  0  0  0  0  0  0  0  0  0  0  0
   61.1790   33.6380   47.5060 C   0  0  0  0  0  0  0  0  0  0  0  0
   62.3130   33.8930   46.7770 C   0  0  0  0  0  0  0  0  0  0  0  0
   63.4200   33.0660   46.7700 C   0  0  0  0  0  0  0  0  0  0  0  0
   63.4110   31.9200   47.5250 C   0  0  0  0  0  0  0  0  0  0  0  0
   62.2770   31.6520   48.2640 C   0  0  0  0  0  0  0  0  0  0  0  0
   61.1730   32.4810   48.2670 C   0  0  0  0  0  0  0  0  0  0  0  0
   59.1840   32.1370   45.3920 N   0  0  0  0  0  0  0  0  0  0  0  0
   58.4320   31.1170   44.9630 C   0  0  0  0  0  0  0  0  0  0  0  0
   58.7820   29.8100   44.6420 C   0  0  0  0  0  0  0  0  0  0  0  0
   55.6554   28.8217   43.8104 H   0  0  0  0  0  0  0  0  0  0  0  0
   56.3180   33.4750   45.2840 H   0  0  0  0  0  0  0  0  0  0  0  0
   59.3369   35.0951   45.2331 H   0  0  0  0  0  0  0  0  0  0  0  0
   57.8107   35.0980   46.2432 H   0  0  0  0  0  0  0  0  0  0  0  0
   62.3426   34.8061   46.1643 H   0  0  0  0  0  0  0  0  0  0  0  0
   64.3012   33.3241   46.1643 H   0  0  0  0  0  0  0  0  0  0  0  0
   64.2757   31.2403   47.5404 H   0  0  0  0  0  0  0  0  0  0  0  0
   62.2515   30.7389   48.8769 H   0  0  0  0  0  0  0  0  0  0  0  0
   60.2913   32.2233   48.8720 H   0  0  0  0  0  0  0  0  0  0  0  0
   59.8188   29.4504   44.7178 H   0  0  0  0  0  0  0  0  0  0  0  0
  1  2  1  0
  2  3  2  0
  3  4  1  0
  4  5  2  0
  5  6  1  0
  6  7  1  0
  7  8  1  0
  8  9  1  0
  9 10  1  0
 10 11  2  0
 11 12  1  0
 12 13  2  0
 13 14  1  0
 14 15  2  0
  7 16  2  0
 16 17  1  0
 17 18  2  0
 18  2  1  0
 17  5  1  0
 15 10  1  0
  3 19  1  0
  6 20  1  0
  8 21  1  0
  8 22  1  0
 11 23  1  0
 12 24  1  0
 13 25  1  0
 14 26  1  0
 15 27  1  0
 18 28  1  0
M  END
>  <smiles>  (4) 
Brc1cnc2[nH]c(CSc3ccccc3)nc2c1

>  <score_type>  (4) 
oracle

>  <origin>  (4) 
adg

>  <m_score__min__energy>  (4) 
-7.3799999999999999

>  <m_primary>  (4) 
energy

$$$$
4:0
     RDKit          3D

 32 33  0  0  0  0  0  0  0  0999 V2000
   55.5100   30.7480   44.1180 O   0  0  0  0  0  0  0  0  0  0  0  0
   55.7740   29.5190   44.0630 C   0  0  0  0  0  0  0  0  0  0  0  0
   55.8090   28.7120   45.2450 N   0  0  0  0  0  0  0  0  0  0  0  0
   56.8650   27.8250   45.6500 C   0  0  0  0  0  0  0  0  0  0  0  0
   56.6010   26.4750   45.9510 C   0  0  0  0  0  0  0  0  0  0  0  0
   57.6270   25.6320   46.3860 C   0  0  0  0  0  0  0  0  0  0  0  0
   58.9250   26.1210   46.5190 C   0  0  0  0  0  0  0  0  0  0  0  0
   59.2080   27.4500   46.1980 C   0  0  0  0  0  0  0  0  0  0  0  0
   58.1930   28.3070   45.7390 C   0  0  0  0  0  0  0  0  0  0  0  0
   58.5410   29.7030   45.3930 C   0  0  0  0  0  0  0  0  0  0  0  0
   59.6490   29.9430   44.8410 O   0  0  0  0  0  0  0  0  0  0  0  0
   57.6170   30.7750   45.6410 N   0  0  0  0  0  0  0  0  0  0  0  0
   57.9530   32.1720   45.3820 C   0  0  0  0  0  0  0  0  0  0  0  0
   58.5740   32.7940   46.6040 C   0  0  0  0  0  0  0  0  0  0  0  0
   58.5240   32.1370   47.8460 C   0  0  0  0  0  0  0  0  0  0  0  0
   59.1210   32.7130   48.9700 C   0  0  0  0  0  0  0  0  0  0  0  0
   59.7740   33.9450   48.8650 C   0  0  0  0  0  0  0  0  0  0  0  0
   59.8310   34.6020   47.6330 C   0  0  0  0  0  0  0  0  0  0  0  0
   59.2350   34.0290   46.5050 C   0  0  0  0  0  0  0  0  0  0  0  0
   55.9820   29.0554   43.0874 H   0  0  0  0  0  0  0  0  0  0  0  0
   55.5796   26.0811   45.8429 H   0  0  0  0  0  0  0  0  0  0  0  0
   57.4096   24.5803   46.6239 H   0  0  0  0  0  0  0  0  0  0  0  0
   59.7274   25.4594   46.8772 H   0  0  0  0  0  0  0  0  0  0  0  0
   60.2348   27.8298   46.3053 H   0  0  0  0  0  0  0  0  0  0  0  0
   56.6470   30.5540   45.9590 H   0  0  0  0  0  0  0  0  0  0  0  0
   58.6656   32.2250   44.5457 H   0  0  0  0  0  0  0  0  0  0  0  0
   57.0338   32.7205   45.1286 H   0  0  0  0  0  0  0  0  0  0  0  0
   58.0133   31.1666   47.9329 H   0  0  0  0  0  0  0  0  0  0  0  0
   59.0773   32.1961   49.9400 H   0  0  0  0  0  0  0  0  0  0  0  0
   60.2426   34.3968   49.7518 H   0  0  0  0  0  0  0  0  0  0  0  0
   60.3452   35.5709   47.5503 H   0  0  0  0  0  0  0  0  0  0  0  0
   59.2842   34.5478   45.5363 H   0  0  0  0  0  0  0  0  0  0  0  0
  1  2  2  0
  2  3  1  0
  3  4  1  0
  4  5  2  0
  5  6  1  0
  6  7  2  0
  7  8  1  0
  8  9  2  0
  9 10  1  0
 10 11  2  0
 10 12  1  0
 12 13  1  0
 13 14  1  0
 14 15  2  0
 15 16  1  0
 16 17  2  0
 17 18  1  0
 18 19  2  0
  9  4  1  0
 19 14  1  0
  2 20  1  0
  5 21  1  0
  6 22  1  0
  7 23  1  0
  8 24  1  0
 12 25  1  0
 13 26  1  0
 13 27  1  0
 15 28  1  0
 16 29  1  0
 17 30  1  0
 18 31  1  0
 19 32  1  0
M  CHG  1   3  -1
M  END
>  <UniqueID>  (5) 
4

>  <SMILES>  (5) 
O=C[N-]c1ccccc1C(=O)NCc1ccccc1

>  <Energy>  (5) 
38.776514568929954

>  <Genealogy>  (5) 
O=C[N-]c1ccccc1C(=O)NCc1ccccc1 (protonated)
O=C[N-]c1ccccc1C(=O)NCc1ccccc1 (3D coordinates assigned)
O=C[N-]c1ccccc1C(=O)NCc1ccccc1 (optimized conformer: 38.776514568929954 kcal/mol)

>  <smiles>  (5) 
O=CNc1ccccc1C(=O)NCc1ccccc1

>  <score_type>  (5) 
oracle

>  <origin>  (5) 
adg

>  <m_score__min__energy>  (5) 
-9.2400000000000002

>  <m_primary>  (5) 
energy

$$$$
5:0
     RDKit          3D

 30 31  0  0  0  0  0  0  0  0999 V2000
   55.2260   29.5610   44.7910 O   0  0  0  0  0  0  0  0  0  0  0  0
   56.1730   28.7520   44.9810 C   0  0  0  0  0  0  0  0  0  0  0  0
   57.5370   29.0700   44.4250 C   0  0  0  0  0  0  0  0  0  0  0  0
   57.9530   30.4910   44.7140 C   0  0  0  0  0  0  0  0  0  0  0  0
   57.7250   31.5080   43.7700 C   0  0  0  0  0  0  0  0  0  0  0  0
   58.1270   32.8200   44.0330 C   0  0  0  0  0  0  0  0  0  0  0  0
   58.7700   33.1300   45.2350 C   0  0  0  0  0  0  0  0  0  0  0  0
   59.2720   34.7780   45.5650 Cl  0  0  0  0  0  0  0  0  0  0  0  0
   59.0200   32.1210   46.1720 C   0  0  0  0  0  0  0  0  0  0  0  0
   58.6210   30.8080   45.9100 C   0  0  0  0  0  0  0  0  0  0  0  0
   55.8930   27.5020   45.6260 N   0  0  0  0  0  0  0  0  0  0  0  0
   56.7510   26.3560   45.6220 C   0  0  0  0  0  0  0  0  0  0  0  0
   56.3840   25.1810   44.9520 C   0  0  0  0  0  0  0  0  0  0  0  0
   57.2410   24.0780   44.9410 C   0  0  0  0  0  0  0  0  0  0  0  0
   58.4900   24.1400   45.5830 C   0  0  0  0  0  0  0  0  0  0  0  0
   59.3720   23.0020   45.5730 N   0  0  0  0  0  0  0  0  0  0  0  0
   58.9140   21.8410   45.5300 O   0  0  0  0  0  0  0  0  0  0  0  0
   60.7370   23.1760   45.6040 O   0  0  0  0  0  0  0  0  0  0  0  0
   58.8670   25.3360   46.2240 C   0  0  0  0  0  0  0  0  0  0  0  0
   58.0050   26.4370   46.2320 C   0  0  0  0  0  0  0  0  0  0  0  0
   58.2716   28.3870   44.8765 H   0  0  0  0  0  0  0  0  0  0  0  0
   57.4938   28.9462   43.3328 H   0  0  0  0  0  0  0  0  0  0  0  0
   57.2271   31.2691   42.8187 H   0  0  0  0  0  0  0  0  0  0  0  0
   57.9371   33.6109   43.2925 H   0  0  0  0  0  0  0  0  0  0  0  0
   59.5312   32.3620   47.1157 H   0  0  0  0  0  0  0  0  0  0  0  0
   58.8309   30.0166   46.6446 H   0  0  0  0  0  0  0  0  0  0  0  0
   55.4161   25.1271   44.4321 H   0  0  0  0  0  0  0  0  0  0  0  0
   56.9365   23.1547   44.4265 H   0  0  0  0  0  0  0  0  0  0  0  0
   59.8457   25.4045   46.7215 H   0  0  0  0  0  0  0  0  0  0  0  0
   58.3161   27.3718   46.7212 H   0  0  0  0  0  0  0  0  0  0  0  0
  1  2  2  0
  2  3  1  0
  3  4  1  0
  4  5  2  0
  5  6  1  0
  6  7  2  0
  7  8  1  0
  7  9  1  0
  9 10  2  0
  2 11  1  0
 11 12  1  0
 12 13  2  0
 13 14  1  0
 14 15  2  0
 15 16  1  0
 16 17  2  0
 16 18  1  0
 15 19  1  0
 19 20  2  0
 10  4  1  0
 20 12  1  0
  3 21  1  0
  3 22  1  0
  5 23  1  0
  6 24  1  0
  9 25  1  0
 10 26  1  0
 13 27  1  0
 14 28  1  0
 19 29  1  0
 20 30  1  0
M  CHG  3  11  -1  16   1  18  -1
M  END
>  <UniqueID>  (6) 
5

>  <SMILES>  (6) 
O=C(Cc1ccc(Cl)cc1)[N-]c1ccc([N+](=O)[O-])cc1

>  <Energy>  (6) 
36.31802529788784

>  <Genealogy>  (6) 
O=C(Cc1ccc(Cl)cc1)[N-]c1ccc([N+](=O)[O-])cc1 (protonated)
O=C(Cc1ccc(Cl)cc1)[N-]c1ccc([N+](=O)[O-])cc1 (3D coordinates assigned)
O=C(Cc1ccc(Cl)cc1)[N-]c1ccc([N+](=O)[O-])cc1 (optimized conformer: 36.31802529788784 kcal/mol)

>  <smiles>  (6) 
O=C(Cc1ccc(Cl)cc1)Nc1ccc([N+](=O)[O-])cc1

>  <score_type>  (6) 
oracle

>  <origin>  (6) 
adg

>  <m_score__min__energy>  (6) 
-9.2400000000000002

>  <m_primary>  (6) 
energy

$$$$
6:0
     RDKit          3D

 39 41  0  0  0  0  0  0  0  0999 V2000
   55.3974   25.8358   46.7981 H   0  0  0  0  0  0  0  0  0  0  0  0
   56.2780   26.3900   46.4410 C   0  0  0  0  0  0  0  0  0  0  0  0
   56.1220   27.4390   45.5890 N   0  0  0  0  0  0  0  0  0  0  0  0
   57.1780   28.1530   45.1120 C   0  0  0  0  0  0  0  0  0  0  0  0
   56.9380   29.1520   44.3090 N   0  0  0  0  0  0  0  0  0  0  0  0
   57.3050   30.5290   44.4900 C   0  0  0  0  0  0  0  0  0  0  0  0
   57.7140   31.0150   45.7430 C   0  0  0  0  0  0  0  0  0  0  0  0
   57.7172   30.3452   46.6156 H   0  0  0  0  0  0  0  0  0  0  0  0
   58.1170   32.3460   45.8860 C   0  0  0  0  0  0  0  0  0  0  0  0
   58.4107   32.7267   46.8753 H   0  0  0  0  0  0  0  0  0  0  0  0
   58.1480   33.1980   44.7710 C   0  0  0  0  0  0  0  0  0  0  0  0
   58.5460   34.6400   44.9320 C   0  0  0  0  0  0  0  0  0  0  0  0
   57.6691   35.2270   45.2427 H   0  0  0  0  0  0  0  0  0  0  0  0
   58.9280   35.0174   43.9720 H   0  0  0  0  0  0  0  0  0  0  0  0
   59.6190   34.7650   45.9700 C   0  0  0  0  0  0  0  0  0  0  0  0
   59.6640   35.8020   46.6880 O   0  0  0  0  0  0  0  0  0  0  0  0
   60.6340   33.7550   46.0790 N   0  0  0  0  0  0  0  0  0  0  0  0
   60.7180   33.0650   45.2980 H   0  0  0  0  0  0  0  0  0  0  0  0
   61.6170   33.7100   47.1260 C   0  0  0  0  0  0  0  0  0  0  0  0
   62.9650   33.4920   46.7950 C   0  0  0  0  0  0  0  0  0  0  0  0
   63.2571   33.3749   45.7410 H   0  0  0  0  0  0  0  0  0  0  0  0
   63.9370   33.4230   47.7970 C   0  0  0  0  0  0  0  0  0  0  0  0
   64.9921   33.2660   47.5285 H   0  0  0  0  0  0  0  0  0  0  0  0
   63.5710   33.5530   49.1390 C   0  0  0  0  0  0  0  0  0  0  0  0
   64.3380   33.5035   49.9259 H   0  0  0  0  0  0  0  0  0  0  0  0
   62.2300   33.7460   49.4810 C   0  0  0  0  0  0  0  0  0  0  0  0
   61.9409   33.8414   50.5380 H   0  0  0  0  0  0  0  0  0  0  0  0
   61.2550   33.8180   48.4810 C   0  0  0  0  0  0  0  0  0  0  0  0
   60.1993   33.9599   48.7555 H   0  0  0  0  0  0  0  0  0  0  0  0
   57.7640   32.7040   43.5150 C   0  0  0  0  0  0  0  0  0  0  0  0
   57.7800   33.3668   42.6372 H   0  0  0  0  0  0  0  0  0  0  0  0
   57.3610   31.3720   43.3750 C   0  0  0  0  0  0  0  0  0  0  0  0
   57.0865   30.9851   42.3825 H   0  0  0  0  0  0  0  0  0  0  0  0
   58.4810   27.8130   45.5360 C   0  0  0  0  0  0  0  0  0  0  0  0
   59.3481   28.3903   45.1826 H   0  0  0  0  0  0  0  0  0  0  0  0
   58.6590   26.7360   46.4090 C   0  0  0  0  0  0  0  0  0  0  0  0
   59.6706   26.4562   46.7383 H   0  0  0  0  0  0  0  0  0  0  0  0
   57.5550   26.0170   46.8620 C   0  0  0  0  0  0  0  0  0  0  0  0
   57.6886   25.1645   47.5442 H   0  0  0  0  0  0  0  0  0  0  0  0
  1  2  1  0
  2  3  1  0
  3  4  1  0
  4  5  2  0
  5  6  1  0
  6  7  2  0
  7  8  1  0
  7  9  1  0
  9 10  1  0
  9 11  2  0
 11 12  1  0
 12 13  1  0
 12 14  1  0
 12 15  1  0
 15 16  2  0
 15 17  1  0
 17 18  1  0
 17 19  1  0
 19 20  2  0
 20 21  1  0
 20 22  1  0
 22 23  1  0
 22 24  2  0
 24 25  1  0
 24 26  1  0
 26 27  1  0
 26 28  2  0
 28 29  1  0
 11 30  1  0
 30 31  1  0
 30 32  2  0
 32 33  1  0
  4 34  1  0
 34 35  1  0
 34 36  2  0
 36 37  1  0
 36 38  1  0
 38 39  1  0
 38  2  2  0
 32  6  1  0
 28 19  1  0
M  CHG  1   3  -1
M  END
>  <UniqueID>  (7) 
6

>  <SMILES>  (7) 
O=C(Cc1ccc(/N=c2\cccc[n-]2)cc1)Nc1ccccc1

>  <Energy>  (7) 
53.16093768575108

>  <Genealogy>  (7) 
O=C(Cc1ccc(N=c2cccc[n-]2)cc1)Nc1ccccc1 (protonated)
O=C(Cc1ccc(/N=c2\cccc[n-]2)cc1)Nc1ccccc1 (cis-trans isomerization)
O=C(Cc1ccc(/N=c2\cccc[n-]2)cc1)Nc1ccccc1 (3D coordinates assigned)
O=C(Cc1ccc(/N=c2\cccc[n-]2)cc1)Nc1ccccc1 (optimized conformer: 53.16093768575108 kcal/mol)

>  <smiles>  (7) 
O=C(Cc1ccc(N=c2cccc[nH]2)cc1)Nc1ccccc1

>  <score_type>  (7) 
oracle

>  <origin>  (7) 
adg

>  <m_score__min__energy>  (7) 
-9.7699999999999996

>  <m_primary>  (7) 
energy

$$$$
7:0
     RDKit          3D

 34 35  0  0  0  0  0  0  0  0999 V2000
   55.1510   29.3480   44.8540 N   0  0  0  0  0  0  0  0  0  0  0  0
   56.2340   29.9970   44.1750 C   0  0  0  0  0  0  0  0  0  0  0  0
   56.9810   29.2630   43.2050 N   0  0  0  0  0  0  0  0  0  0  0  0
   56.5920   31.2200   44.4480 N   0  0  0  0  0  0  0  0  0  0  0  0
   57.8900   31.8170   44.2940 C   0  0  0  0  0  0  0  0  0  0  0  0
   58.5330   31.6770   43.2180 O   0  0  0  0  0  0  0  0  0  0  0  0
   58.5130   32.5310   45.4340 C   0  0  0  0  0  0  0  0  0  0  0  0
   58.5300   33.9370   45.4760 C   0  0  0  0  0  0  0  0  0  0  0  0
   59.1200   34.6090   46.5500 C   0  0  0  0  0  0  0  0  0  0  0  0
   59.6960   33.8890   47.6070 C   0  0  0  0  0  0  0  0  0  0  0  0
   60.3610   34.6110   48.7410 C   0  0  0  0  0  0  0  0  0  0  0  0
   60.5970   33.4620   50.1370 S   0  0  0  0  0  0  0  0  0  0  0  0
   62.3300   33.1800   49.7690 C   0  0  0  0  0  0  0  0  0  0  0  0
   62.8230   33.4150   48.4830 C   0  0  0  0  0  0  0  0  0  0  0  0
   64.1750   33.1860   48.2160 C   0  0  0  0  0  0  0  0  0  0  0  0
   64.9970   32.7370   49.2010 N   0  0  0  0  0  0  0  0  0  0  0  0
   64.5390   32.4990   50.4600 C   0  0  0  0  0  0  0  0  0  0  0  0
   63.1930   32.7150   50.7670 C   0  0  0  0  0  0  0  0  0  0  0  0
   59.6960   32.4870   47.5630 C   0  0  0  0  0  0  0  0  0  0  0  0
   59.1060   31.8130   46.4890 C   0  0  0  0  0  0  0  0  0  0  0  0
   54.7900   29.6810   45.7730 H   0  0  0  0  0  0  0  0  0  0  0  0
   54.8140   28.4200   44.5170 H   0  0  0  0  0  0  0  0  0  0  0  0
   56.7310   28.2750   42.9790 H   0  0  0  0  0  0  0  0  0  0  0  0
   57.7870   29.7060   42.7090 H   0  0  0  0  0  0  0  0  0  0  0  0
   58.0750   34.5125   44.6564 H   0  0  0  0  0  0  0  0  0  0  0  0
   59.1327   35.7088   46.5665 H   0  0  0  0  0  0  0  0  0  0  0  0
   61.3385   34.9920   48.4103 H   0  0  0  0  0  0  0  0  0  0  0  0
   59.7290   35.4525   49.0612 H   0  0  0  0  0  0  0  0  0  0  0  0
   62.1534   33.7767   47.6888 H   0  0  0  0  0  0  0  0  0  0  0  0
   64.5747   33.3692   47.2077 H   0  0  0  0  0  0  0  0  0  0  0  0
   65.2286   32.1364   51.2365 H   0  0  0  0  0  0  0  0  0  0  0  0
   62.8162   32.5215   51.7822 H   0  0  0  0  0  0  0  0  0  0  0  0
   60.1628   31.9143   48.3780 H   0  0  0  0  0  0  0  0  0  0  0  0
   59.1055   30.7132   46.4688 H   0  0  0  0  0  0  0  0  0  0  0  0
  1  2  1  0
  2  3  1  0
  2  4  2  3
  4  5  1  0
  5  6  2  0
  5  7  1  0
  7  8  2  0
  8  9  1  0
  9 10  2  0
 10 11  1  0
 11 12  1  0
 12 13  1  0
 13 14  2  0
 14 15  1  0
 15 16  2  0
 16 17  1  0
 17 18  2  0
 10 19  1  0
 19 20  2  0
 20  7  1  0
 18 13  1  0
  1 21  1  0
  1 22  1  0
  3 23  1  0
  3 24  1  0
  8 25  1  0
  9 26  1  0
 11 27  1  0
 11 28  1  0
 14 29  1  0
 15 30  1  0
 17 31  1  0
 18 32  1  0
 19 33  1  0
 20 34  1  0
M  END
>  <UniqueID>  (8) 
7

>  <SMILES>  (8) 
NC(N)=NC(=O)c1ccc(CSc2ccncc2)cc1

>  <Energy>  (8) 
34.223905143937756

>  <Genealogy>  (8) 
NC(N)=NC(=O)c1ccc(CSc2ccncc2)cc1 (3D coordinates assigned)
NC(N)=NC(=O)c1ccc(CSc2ccncc2)cc1 (optimized conformer: 34.223905143937756 kcal/mol)

>  <smiles>  (8) 
NC(N)=NC(=O)c1ccc(CSc2ccncc2)cc1

>  <score_type>  (8) 
oracle

>  <origin>  (8) 
adg

>  <m_score__min__energy>  (8) 
-8.3200000000000003

>  <m_primary>  (8) 
energy

$$$$
8:0
     RDKit          3D

 70 72  0  0  0  0  0  0  0  0999 V2000
   57.3680   21.4870   46.2880 C   0  0  0  0  0  0  0  0  0  0  0  0
   57.2280   22.2110   47.4920 O   0  0  0  0  0  0  0  0  0  0  0  0
   56.0070   22.9260   47.4980 C   0  0  0  0  0  0  0  0  0  0  0  0
   55.0410   22.3370   46.4700 C   0  0  0  0  0  0  0  0  0  0  0  0
   54.0810   23.6740   45.6860 S   0  0  0  0  0  0  0  0  0  0  0  0
   55.5360   24.6470   45.2670 C   0  0  0  0  0  0  0  0  0  0  0  0
   55.8440   25.7630   46.0540 C   0  0  0  0  0  0  0  0  0  0  0  0
   56.9440   26.5640   45.7470 C   0  0  0  0  0  0  0  0  0  0  0  0
   57.7430   26.2720   44.6320 C   0  0  0  0  0  0  0  0  0  0  0  0
   58.8940   27.1770   44.2730 C   0  0  0  0  0  0  0  0  0  0  0  0
   59.6950   27.4830   45.4690 N   0  0  0  0  0  0  0  0  0  0  0  0
   60.0670   26.4000   46.3890 C   0  0  0  0  0  0  0  0  0  0  0  0
   60.0770   28.8550   45.7330 C   0  0  0  0  0  0  0  0  0  0  0  0
   61.1200   29.3230   45.2000 O   0  0  0  0  0  0  0  0  0  0  0  0
   59.2640   29.7690   46.6150 C   0  0  0  0  0  0  0  0  0  0  0  0
   57.7730   29.7460   46.2500 C   0  0  0  0  0  0  0  0  0  0  0  0
   57.5200   30.2860   44.8600 C   0  0  0  0  0  0  0  0  0  0  0  0
   56.8190   29.4900   43.9370 C   0  0  0  0  0  0  0  0  0  0  0  0
   56.5730   29.9530   42.6440 C   0  0  0  0  0  0  0  0  0  0  0  0
   57.0210   31.2160   42.2570 C   0  0  0  0  0  0  0  0  0  0  0  0
   57.7190   32.0190   43.1610 C   0  0  0  0  0  0  0  0  0  0  0  0
   57.9780   31.5670   44.4650 C   0  0  0  0  0  0  0  0  0  0  0  0
   58.7460   32.3860   45.3610 N   0  0  0  0  0  0  0  0  0  0  0  0
   58.1710   33.4310   46.1510 C   0  0  0  0  0  0  0  0  0  0  0  0
   56.9180   33.5380   46.2520 O   0  0  0  0  0  0  0  0  0  0  0  0
   59.0300   34.3210   46.8670 N   0  0  0  0  0  0  0  0  0  0  0  0
   60.3420   34.7370   46.3850 C   0  0  0  0  0  0  0  0  0  0  0  0
   61.4100   33.9070   47.0400 C   0  0  0  0  0  0  0  0  0  0  0  0
   62.7020   33.8340   46.4900 C   0  0  0  0  0  0  0  0  0  0  0  0
   63.6990   33.0930   47.1330 C   0  0  0  0  0  0  0  0  0  0  0  0
   63.4170   32.4250   48.3280 C   0  0  0  0  0  0  0  0  0  0  0  0
   64.3850   31.7080   48.9510 F   0  0  0  0  0  0  0  0  0  0  0  0
   62.1360   32.4990   48.8840 C   0  0  0  0  0  0  0  0  0  0  0  0
   61.1360   33.2380   48.2440 C   0  0  0  0  0  0  0  0  0  0  0  0
   57.4450   25.1470   43.8470 C   0  0  0  0  0  0  0  0  0  0  0  0
   56.3460   24.3270   44.1550 C   0  0  0  0  0  0  0  0  0  0  0  0
   56.0300   23.1440   43.2820 C   0  0  0  0  0  0  0  0  0  0  0  0
   57.5723   20.4307   46.5170 H   0  0  0  0  0  0  0  0  0  0  0  0
   56.4386   21.5626   45.7045 H   0  0  0  0  0  0  0  0  0  0  0  0
   58.2022   21.9036   45.7045 H   0  0  0  0  0  0  0  0  0  0  0  0
   55.5546   22.8628   48.4987 H   0  0  0  0  0  0  0  0  0  0  0  0
   56.2067   23.9765   47.2399 H   0  0  0  0  0  0  0  0  0  0  0  0
   55.6119   21.7976   45.6999 H   0  0  0  0  0  0  0  0  0  0  0  0
   54.3522   21.6438   46.9750 H   0  0  0  0  0  0  0  0  0  0  0  0
   55.2138   26.0102   46.9211 H   0  0  0  0  0  0  0  0  0  0  0  0
   57.1859   27.4287   46.3824 H   0  0  0  0  0  0  0  0  0  0  0  0
   59.5304   26.6767   43.5282 H   0  0  0  0  0  0  0  0  0  0  0  0
   58.4960   28.1152   43.8591 H   0  0  0  0  0  0  0  0  0  0  0  0
   59.9488   26.7440   47.4271 H   0  0  0  0  0  0  0  0  0  0  0  0
   59.4159   25.5307   46.2144 H   0  0  0  0  0  0  0  0  0  0  0  0
   61.1148   26.1143   46.2144 H   0  0  0  0  0  0  0  0  0  0  0  0
   59.3784   29.4473   47.6607 H   0  0  0  0  0  0  0  0  0  0  0  0
   59.6326   30.7954   46.4712 H   0  0  0  0  0  0  0  0  0  0  0  0
   57.4117   28.7082   46.2987 H   0  0  0  0  0  0  0  0  0  0  0  0
   57.2387   30.3881   46.9657 H   0  0  0  0  0  0  0  0  0  0  0  0
   56.4615   28.4938   44.2368 H   0  0  0  0  0  0  0  0  0  0  0  0
   56.0252   29.3214   41.9291 H   0  0  0  0  0  0  0  0  0  0  0  0
   56.8240   31.5800   41.2378 H   0  0  0  0  0  0  0  0  0  0  0  0
   58.0690   33.0141   42.8491 H   0  0  0  0  0  0  0  0  0  0  0  0
   59.7570   32.1740   45.5040 H   0  0  0  0  0  0  0  0  0  0  0  0
   60.3908   34.6009   45.2945 H   0  0  0  0  0  0  0  0  0  0  0  0
   60.5015   35.7967   46.6330 H   0  0  0  0  0  0  0  0  0  0  0  0
   62.9293   34.3610   45.5516 H   0  0  0  0  0  0  0  0  0  0  0  0
   64.7074   33.0358   46.6972 H   0  0  0  0  0  0  0  0  0  0  0  0
   61.9147   31.9754   49.8257 H   0  0  0  0  0  0  0  0  0  0  0  0
   60.1302   33.2955   48.6857 H   0  0  0  0  0  0  0  0  0  0  0  0
   58.0787   24.9046   42.9812 H   0  0  0  0  0  0  0  0  0  0  0  0
   55.7976   22.2739   43.9136 H   0  0  0  0  0  0  0  0  0  0  0  0
   55.1629   23.3782   42.6469 H   0  0  0  0  0  0  0  0  0  0  0  0
   56.8984   22.9146   42.6469 H   0  0  0  0  0  0  0  0  0  0  0  0
  1  2  1  0
  2  3  1  0
  3  4  1  0
  4  5  1  0
  5  6  1  0
  6  7  2  0
  7  8  1  0
  8  9  2  0
  9 10  1  0
 10 11  1  0
 11 12  1  0
 11 13  1  0
 13 14  2  0
 13 15  1  0
 15 16  1  0
 16 17  1  0
 17 18  2  0
 18 19  1  0
 19 20  2  0
 20 21  1  0
 21 22  2  0
 22 23  1  0
 23 24  1  0
 24 25  2  0
 24 26  1  0
 26 27  1  0
 27 28  1  0
 28 29  2  0
 29 30  1  0
 30 31  2  0
 31 32  1  0
 31 33  1  0
 33 34  2  0
  9 35  1  0
 35 36  2  0
 36 37  1  0
 36  6  1  0
 22 17  1  0
 34 28  1  0
  1 38  1  0
  1 39  1  0
  1 40  1  0
  3 41  1  0
  3 42  1  0
  4 43  1  0
  4 44  1  0
  7 45  1  0
  8 46  1  0
 10 47  1  0
 10 48  1  0
 12 49  1  0
 12 50  1  0
 12 51  1  0
 15 52  1  0
 15 53  1  0
 16 54  1  0
 16 55  1  0
 18 56  1  0
 19 57  1  0
 20 58  1  0
 21 59  1  0
 23 60  1  0
 27 61  1  0
 27 62  1  0
 29 63  1  0
 30 64  1  0
 33 65  1  0
 34 66  1  0
 35 67  1  0
 37 68  1  0
 37 69  1  0
 37 70  1  0
M  CHG  1  26  -1
M  END
>  <UniqueID>  (9) 
8

>  <SMILES>  (9) 
COCCSc1ccc(CN(C)C(=O)CCc2ccccc2NC(=O)[N-]Cc2ccc(F)cc2)cc1C

>  <Energy>  (9) 
65.08915159131459

>  <Genealogy>  (9) 
COCCSc1ccc(CN(C)C(=O)CCc2ccccc2NC(=O)[N-]Cc2ccc(F)cc2)cc1C (protonated)
COCCSc1ccc(CN(C)C(=O)CCc2ccccc2NC(=O)[N-]Cc2ccc(F)cc2)cc1C (3D coordinates assigned)
COCCSc1ccc(CN(C)C(=O)CCc2ccccc2NC(=O)[N-]Cc2ccc(F)cc2)cc1C (optimized conformer: 65.08915159131459 kcal/mol)

>  <smiles>  (9) 
COCCSc1ccc(CN(C)C(=O)CCc2ccccc2NC(=O)NCc2ccc(F)cc2)cc1C

>  <score_type>  (9) 
oracle

>  <origin>  (9) 
adg

>  <m_score__min__energy>  (9) 
-12.74

>  <m_primary>  (9) 
energy

$$$$
9:0
     RDKit          3D

 42 45  0  0  1  0  0  0  0  0999 V2000
   62.2760   31.5840   47.6200 C   0  0  0  0  0  0  0  0  0  0  0  0
   61.7400   30.3680   48.0670 O   0  0  0  0  0  0  0  0  0  0  0  0
   60.6760   29.7290   47.4500 C   0  0  0  0  0  0  0  0  0  0  0  0
   60.6130   29.4550   46.1100 C   0  0  0  0  0  0  0  0  0  0  0  0
   59.5150   28.8130   45.5760 C   0  0  0  0  0  0  0  0  0  0  0  0
   58.4300   28.4180   46.3580 C   0  0  0  0  0  0  0  0  0  0  0  0
   57.2470   27.7240   45.7650 C   0  0  0  0  0  0  0  0  0  0  0  0
   56.3780   28.6950   45.1940 N   0  0  0  0  0  0  0  0  0  0  0  0
   56.7010   29.7420   44.5370 C   0  0  0  0  0  0  0  0  0  0  0  0
   56.4390   29.7840   43.2020 C   0  0  0  0  0  0  0  0  0  0  0  0
   56.7860   30.9070   42.5010 C   0  0  0  0  0  0  0  0  0  0  0  0
   57.3810   31.9540   43.1430 N   0  0  0  0  0  0  0  0  0  0  0  0
   57.6420   31.9160   44.4670 C   0  0  0  0  0  0  0  0  0  0  0  0
   58.2760   33.0370   45.1360 C   0  0  0  0  0  0  0  0  0  0  0  0
   58.6520   34.1800   44.4960 C   0  0  0  0  0  0  0  0  0  0  0  0
   59.2630   35.2550   45.1550 C   0  0  0  0  0  0  0  0  0  0  0  0
   59.5090   35.1880   46.5020 C   0  0  0  0  0  0  0  0  0  0  0  0
   59.1360   34.0400   47.1600 C   0  0  0  0  0  0  0  0  0  0  0  0
   59.2730   33.7330   48.4970 C   0  0  0  0  0  0  0  0  0  0  0  0
   58.7590   32.5070   48.6380 N   0  0  0  0  0  0  0  0  0  0  0  0
   58.3200   32.0580   47.4680 N   0  0  0  0  0  0  0  0  0  0  0  0
   58.5250   32.9670   46.5010 C   0  0  0  0  0  0  0  0  0  0  0  0
   57.2850   30.7940   45.1120 N   0  0  0  0  0  0  0  0  0  0  0  0
   58.5260   28.7100   47.7030 C   0  0  0  0  0  0  0  0  0  0  0  0
   59.6130   29.3500   48.2570 C   0  0  0  0  0  0  0  0  0  0  0  0
   62.5495   32.2046   48.4861 H   0  0  0  0  0  0  0  0  0  0  0  0
   63.1713   31.3885   47.0116 H   0  0  0  0  0  0  0  0  0  0  0  0
   61.5276   32.1130   47.0116 H   0  0  0  0  0  0  0  0  0  0  0  0
   61.4451   29.7494   45.4536 H   0  0  0  0  0  0  0  0  0  0  0  0
   59.4946   28.6054   44.4960 H   0  0  0  0  0  0  0  0  0  0  0  0
   57.5825   27.0251   44.9846 H   0  0  0  0  0  0  0  0  0  0  0  0
   56.7145   27.1633   46.5474 H   0  0  0  0  0  0  0  0  0  0  0  0
   55.9584   28.9331   42.6971 H   0  0  0  0  0  0  0  0  0  0  0  0
   56.5855   30.9657   41.4210 H   0  0  0  0  0  0  0  0  0  0  0  0
   57.6110   32.7650   42.5340 H   0  0  0  0  0  0  0  0  0  0  0  0
   58.4677   34.2622   43.4147 H   0  0  0  0  0  0  0  0  0  0  0  0
   59.5461   36.1553   44.5899 H   0  0  0  0  0  0  0  0  0  0  0  0
   59.9872   36.0220   47.0366 H   0  0  0  0  0  0  0  0  0  0  0  0
   59.7130   34.3644   49.2830 H   0  0  0  0  0  0  0  0  0  0  0  0
   57.8890   31.1390   47.3500 H   0  0  0  0  0  0  0  0  0  0  0  0
   57.6962   28.4183   48.3636 H   0  0  0  0  0  0  0  0  0  0  0  0
   59.6380   29.5600   49.3365 H   0  0  0  0  0  0  0  0  0  0  0  0
  1  2  1  0
  2  3  1  0
  3  4  2  0
  4  5  1  0
  5  6  2  0
  6  7  1  0
  7  8  1  0
  8  9  2  0
  9 10  1  0
 10 11  2  0
 11 12  1  0
 12 13  1  0
 13 14  1  0
 14 15  2  0
 15 16  1  0
 16 17  2  0
 17 18  1  0
 18 19  1  0
 19 20  2  0
 20 21  1  0
 21 22  1  0
 13 23  2  0
  6 24  1  0
 24 25  2  0
 25  3  1  0
 23  9  1  0
 22 14  1  0
 22 18  2  0
  1 26  1  0
  1 27  1  0
  1 28  1  0
  4 29  1  0
  5 30  1  0
  7 31  1  0
  7 32  1  0
 10 33  1  0
 11 34  1  0
 12 35  1  0
 15 36  1  0
 16 37  1  0
 17 38  1  0
 19 39  1  0
 21 40  1  0
 24 41  1  0
 25 42  1  0
M  END
>  <smiles>  (10) 
COc1ccc(CN=c2cc[nH]c(-c3cccc4cn[nH]c34)n2)cc1

>  <score_type>  (10) 
oracle

>  <origin>  (10) 
adg

>  <m_score__min__energy>  (10) 
-8.9700000000000006

>  <m_primary>  (10) 
energy

$$$$
10:0
     RDKit          3D

 40 43  0  0  0  0  0  0  0  0999 V2000
   58.6400   34.2580   47.8400 O   0  0  0  0  0  0  0  0  0  0  0  0
   59.0520   33.2110   47.2700 C   0  0  0  0  0  0  0  0  0  0  0  0
   60.3390   32.6670   47.6060 N   0  0  0  0  0  0  0  0  0  0  0  0
   61.1100   33.1180   48.7320 C   0  0  0  0  0  0  0  0  0  0  0  0
   60.4570   33.4940   49.9180 C   0  0  0  0  0  0  0  0  0  0  0  0
   61.1890   33.8450   51.0530 C   0  0  0  0  0  0  0  0  0  0  0  0
   62.5830   33.8120   51.0240 C   0  0  0  0  0  0  0  0  0  0  0  0
   63.5020   34.2460   52.4540 Cl  0  0  0  0  0  0  0  0  0  0  0  0
   63.2480   33.4340   49.8550 C   0  0  0  0  0  0  0  0  0  0  0  0
   62.5260   33.0920   48.6950 C   0  0  0  0  0  0  0  0  0  0  0  0
   63.2380   32.7550   47.4910 N   0  0  0  0  0  0  0  0  0  0  0  0
   62.9450   31.7220   46.8550 O   0  0  0  0  0  0  0  0  0  0  0  0
   64.3510   33.4710   47.1140 O   0  0  0  0  0  0  0  0  0  0  0  0
   58.2080   32.5840   46.2370 C   0  0  0  0  0  0  0  0  0  0  0  0
   58.2370   31.2640   45.8310 C   0  0  0  0  0  0  0  0  0  0  0  0
   57.2620   31.2070   44.8590 C   0  0  0  0  0  0  0  0  0  0  0  0
   56.8880   30.0120   44.0430 C   0  0  0  0  0  0  0  0  0  0  0  0
   56.9640   28.8080   44.8640 N   0  0  0  0  0  0  0  0  0  0  0  0
   55.8980   28.1100   45.2460 N   0  0  0  0  0  0  0  0  0  0  0  0
   56.3460   27.0290   45.9240 C   0  0  0  0  0  0  0  0  0  0  0  0
   55.5950   26.1530   46.4290 O   0  0  0  0  0  0  0  0  0  0  0  0
   57.7200   27.0370   45.9620 C   0  0  0  0  0  0  0  0  0  0  0  0
   58.6590   26.1640   46.5060 C   0  0  0  0  0  0  0  0  0  0  0  0
   60.0190   26.4850   46.3340 C   0  0  0  0  0  0  0  0  0  0  0  0
   60.3970   27.6510   45.6290 C   0  0  0  0  0  0  0  0  0  0  0  0
   59.4190   28.5110   45.0900 C   0  0  0  0  0  0  0  0  0  0  0  0
   58.0790   28.1680   45.2820 C   0  0  0  0  0  0  0  0  0  0  0  0
   56.7260   32.3970   44.7200 O   0  0  0  0  0  0  0  0  0  0  0  0
   57.2690   33.2510   45.5370 N   0  0  0  0  0  0  0  0  0  0  0  0
   60.7610   31.9450   46.9820 H   0  0  0  0  0  0  0  0  0  0  0  0
   59.3577   33.5118   49.9521 H   0  0  0  0  0  0  0  0  0  0  0  0
   60.6658   34.1482   51.9719 H   0  0  0  0  0  0  0  0  0  0  0  0
   64.3475   33.4031   49.8403 H   0  0  0  0  0  0  0  0  0  0  0  0
   58.8837   30.4526   46.1962 H   0  0  0  0  0  0  0  0  0  0  0  0
   55.8613   30.1334   43.6673 H   0  0  0  0  0  0  0  0  0  0  0  0
   57.5843   29.9184   43.1966 H   0  0  0  0  0  0  0  0  0  0  0  0
   58.3500   25.2587   47.0491 H   0  0  0  0  0  0  0  0  0  0  0  0
   60.7931   25.8240   46.7510 H   0  0  0  0  0  0  0  0  0  0  0  0
   61.4632   27.8889   45.5001 H   0  0  0  0  0  0  0  0  0  0  0  0
   59.7011   29.4197   44.5380 H   0  0  0  0  0  0  0  0  0  0  0  0
  1  2  2  0
  2  3  1  0
  3  4  1  0
  4  5  2  0
  5  6  1  0
  6  7  2  0
  7  8  1  0
  7  9  1  0
  9 10  2  0
 10 11  1  0
 11 12  2  0
 11 13  1  0
  2 14  1  0
 14 15  1  0
 15 16  2  0
 16 17  1  0
 17 18  1  0
 18 19  1  0
 19 20  1  0
 20 21  2  0
 20 22  1  0
 22 23  2  0
 23 24  1  0
 24 25  2  0
 25 26  1  0
 26 27  2  0
 16 28  1  0
 28 29  1  0
 10  4  1  0
 29 14  2  0
 27 18  1  0
 27 22  1  0
  3 30  1  0
  5 31  1  0
  6 32  1  0
  9 33  1  0
 15 34  1  0
 17 35  1  0
 17 36  1  0
 23 37  1  0
 24 38  1  0
 25 39  1  0
 26 40  1  0
M  CHG  3  11   1  13  -1  19  -1
M  END
>  <UniqueID>  (11) 
9

>  <SMILES>  (11) 
O=C(Nc1ccc(Cl)cc1[N+](=O)[O-])c1cc(Cn2[n-]c(=O)c3ccccc32)on1

>  <Energy>  (11) 
121.50374393177947

>  <Genealogy>  (11) 
O=C(Nc1ccc(Cl)cc1[N+](=O)[O-])c1cc(Cn2[n-]c(=O)c3ccccc32)on1 (protonated)
O=C(Nc1ccc(Cl)cc1[N+](=O)[O-])c1cc(Cn2[n-]c(=O)c3ccccc32)on1 (3D coordinates assigned)
O=C(Nc1ccc(Cl)cc1[N+](=O)[O-])c1cc(Cn2[n-]c(=O)c3ccccc32)on1 (optimized conformer: 121.50374393177947 kcal/mol)

>  <smiles>  (11) 
O=C(Nc1ccc(Cl)cc1[N+](=O)[O-])c1cc(Cn2[nH]c(=O)c3ccccc32)on1

>  <score_type>  (11) 
oracle

>  <origin>  (11) 
adg

>  <m_score__min__energy>  (11) 
-11.18

>  <m_primary>  (11) 
energy

$$$$
11:0
     RDKit          3D

 43 45  0  0  1  0  0  0  0  0999 V2000
   57.6950   25.9320   46.5550 C   0  0  0  0  0  0  0  0  0  0  0  0
   58.2880   27.1440   46.1820 O   0  0  0  0  0  0  0  0  0  0  0  0
   59.0190   27.9750   47.0180 C   0  0  0  0  0  0  0  0  0  0  0  0
   59.9290   27.4800   47.9300 C   0  0  0  0  0  0  0  0  0  0  0  0
   60.6300   28.3710   48.7400 C   0  0  0  0  0  0  0  0  0  0  0  0
   60.4470   29.7290   48.6620 C   0  0  0  0  0  0  0  0  0  0  0  0
   59.5390   30.2190   47.7490 C   0  0  0  0  0  0  0  0  0  0  0  0
   59.3470   31.5830   47.6620 C   0  0  0  0  0  0  0  0  0  0  0  0
   60.0210   32.3680   48.4340 N   0  0  0  0  0  0  0  0  0  0  0  0
   61.3750   32.7210   48.1720 C   0  0  0  0  0  0  0  0  0  0  0  0
   61.6620   33.3910   46.9830 C   0  0  0  0  0  0  0  0  0  0  0  0
   62.9220   33.7710   46.6420 C   0  0  0  0  0  0  0  0  0  0  0  0
   63.9520   33.4850   47.5010 C   0  0  0  0  0  0  0  0  0  0  0  0
   63.7040   32.8220   48.6890 C   0  0  0  0  0  0  0  0  0  0  0  0
   64.8230   32.5180   49.6080 C   0  0  0  0  0  0  0  0  0  0  0  0
   62.4130   32.4340   49.0350 C   0  0  0  0  0  0  0  0  0  0  0  0
   58.4730   32.0820   46.7880 N   0  0  0  0  0  0  0  0  0  0  0  0
   57.7780   31.2500   45.9900 C   0  0  0  0  0  0  0  0  0  0  0  0
   56.9160   31.6550   45.1190 N   0  0  0  0  0  0  0  0  0  0  0  0
   57.0280   31.1110   43.7780 C   0  0  0  0  0  0  0  0  0  0  0  0
   56.1620   29.8910   43.7220 C   0  0  0  0  0  0  0  0  0  0  0  0
   56.2090   29.2200   42.6380 O   0  0  0  0  0  0  0  0  0  0  0  0
   55.3520   29.5070   44.7830 O   0  0  0  0  0  0  0  0  0  0  0  0
   57.9620   29.9030   46.0690 N   0  0  0  0  0  0  0  0  0  0  0  0
   58.8330   29.3530   46.9380 C   0  0  0  0  0  0  0  0  0  0  0  0
   57.6611   25.8628   47.6523 H   0  0  0  0  0  0  0  0  0  0  0  0
   56.6722   25.8852   46.1529 H   0  0  0  0  0  0  0  0  0  0  0  0
   58.2857   25.0957   46.1529 H   0  0  0  0  0  0  0  0  0  0  0  0
   60.0986   26.3966   48.0162 H   0  0  0  0  0  0  0  0  0  0  0  0
   61.3541   27.9728   49.4661 H   0  0  0  0  0  0  0  0  0  0  0  0
   61.0127   30.4109   49.3139 H   0  0  0  0  0  0  0  0  0  0  0  0
   60.8362   33.6211   46.2938 H   0  0  0  0  0  0  0  0  0  0  0  0
   63.1117   34.2978   45.6952 H   0  0  0  0  0  0  0  0  0  0  0  0
   64.9790   33.7840   47.2442 H   0  0  0  0  0  0  0  0  0  0  0  0
   64.4787   32.6115   50.6485 H   0  0  0  0  0  0  0  0  0  0  0  0
   65.1757   31.4915   49.4294 H   0  0  0  0  0  0  0  0  0  0  0  0
   65.6466   33.2250   49.4294 H   0  0  0  0  0  0  0  0  0  0  0  0
   62.2229   31.9068   49.9815 H   0  0  0  0  0  0  0  0  0  0  0  0
   58.3210   33.1120   46.7140 H   0  0  0  0  0  0  0  0  0  0  0  0
   56.6842   31.8515   43.0408 H   0  0  0  0  0  0  0  0  0  0  0  0
   58.0731   30.8594   43.5445 H   0  0  0  0  0  0  0  0  0  0  0  0
   55.3140   30.0880   45.6340 H   0  0  0  0  0  0  0  0  0  0  0  0
   57.4170   29.2650   45.4460 H   0  0  0  0  0  0  0  0  0  0  0  0
  1  2  1  0
  2  3  1  0
  3  4  2  0
  4  5  1  0
  5  6  2  0
  6  7  1  0
  7  8  1  0
  8  9  2  0
  9 10  1  0
 10 11  2  0
 11 12  1  0
 12 13  2  0
 13 14  1  0
 14 15  1  0
 14 16  2  0
  8 17  1  0
 17 18  1  0
 18 19  2  0
 19 20  1  0
 20 21  1  0
 21 22  2  0
 21 23  1  0
 18 24  1  0
 24 25  1  0
 25  3  1  0
 25  7  2  0
 16 10  1  0
  1 26  1  0
  1 27  1  0
  1 28  1  0
  4 29  1  0
  5 30  1  0
  6 31  1  0
 11 32  1  0
 12 33  1  0
 13 34  1  0
 15 35  1  0
 15 36  1  0
 15 37  1  0
 16 38  1  0
 17 39  1  0
 20 40  1  0
 20 41  1  0
 23 42  1  0
 24 43  1  0
M  END
>  <smiles>  (12) 
COc1cccc2c(=Nc3cccc(C)c3)[nH]c(=NCC(=O)O)[nH]c12

>  <score_type>  (12) 
oracle

>  <origin>  (12) 
adg

>  <m_score__min__energy>  (12) 
-8.2100000000000009

>  <m_primary>  (12) 
energy

$$$$
12:0
     RDKit          3D

 62 64  0  0  0  0  0  0  0  0999 V2000
   50.3500   24.9900   42.7380 C   0  0  0  0  0  0  0  0  0  0  0  0
   51.5570   24.0790   42.9450 C   0  0  0  0  0  0  0  0  0  0  0  0
   51.8000   23.8720   44.4100 C   0  0  0  0  0  0  0  0  0  0  0  0
   51.0090   24.3870   45.2460 O   0  0  0  0  0  0  0  0  0  0  0  0
   52.8510   22.9920   44.8350 N   0  0  0  0  0  0  0  0  0  0  0  0
   54.2300   23.3430   45.0330 C   0  0  0  0  0  0  0  0  0  0  0  0
   54.7460   23.6680   46.3010 C   0  0  0  0  0  0  0  0  0  0  0  0
   56.1030   23.9530   46.4550 C   0  0  0  0  0  0  0  0  0  0  0  0
   56.9640   23.9420   45.3510 C   0  0  0  0  0  0  0  0  0  0  0  0
   58.3650   24.1310   45.5770 N   0  0  0  0  0  0  0  0  0  0  0  0
   59.0020   25.3430   46.0000 C   0  0  0  0  0  0  0  0  0  0  0  0
   60.0260   25.2920   46.7360 O   0  0  0  0  0  0  0  0  0  0  0  0
   58.4740   26.6500   45.5470 C   0  0  0  0  0  0  0  0  0  0  0  0
   59.2220   27.4630   44.6660 C   0  0  0  0  0  0  0  0  0  0  0  0
   58.6850   28.6490   44.1700 C   0  0  0  0  0  0  0  0  0  0  0  0
   57.4050   29.0630   44.5610 C   0  0  0  0  0  0  0  0  0  0  0  0
   56.6530   30.4720   43.8160 S   0  0  0  0  0  0  0  0  0  0  0  0
   55.3440   30.7860   44.4880 O   0  0  0  0  0  0  0  0  0  0  0  0
   56.4030   30.1690   42.3660 O   0  0  0  0  0  0  0  0  0  0  0  0
   57.7060   31.8470   43.9450 N   0  0  0  0  0  0  0  0  0  0  0  0
   57.7220   32.7510   45.0570 C   0  0  0  0  0  0  0  0  0  0  0  0
   57.1200   33.8430   44.9540 O   0  0  0  0  0  0  0  0  0  0  0  0
   58.4370   32.4330   46.3080 C   0  0  0  0  0  0  0  0  0  0  0  0
   58.5070   31.1150   46.7730 C   0  0  0  0  0  0  0  0  0  0  0  0
   59.2230   30.8100   47.9430 C   0  0  0  0  0  0  0  0  0  0  0  0
   59.3270   29.4970   48.4290 O   0  0  0  0  0  0  0  0  0  0  0  0
   60.1420   28.4870   47.8490 C   0  0  0  0  0  0  0  0  0  0  0  0
   59.8790   31.8310   48.6480 C   0  0  0  0  0  0  0  0  0  0  0  0
   60.5960   31.4810   49.8020 O   0  0  0  0  0  0  0  0  0  0  0  0
   61.8610   30.8210   49.7750 C   0  0  0  0  0  0  0  0  0  0  0  0
   59.7920   33.1670   48.2010 C   0  0  0  0  0  0  0  0  0  0  0  0
   60.4220   34.1820   48.9410 O   0  0  0  0  0  0  0  0  0  0  0  0
   61.8090   34.2130   49.2610 C   0  0  0  0  0  0  0  0  0  0  0  0
   59.0600   33.4560   47.0350 C   0  0  0  0  0  0  0  0  0  0  0  0
   56.6800   28.2930   45.4780 C   0  0  0  0  0  0  0  0  0  0  0  0
   57.1990   27.0800   45.9570 C   0  0  0  0  0  0  0  0  0  0  0  0
   56.4480   23.6460   44.0780 C   0  0  0  0  0  0  0  0  0  0  0  0
   55.0840   23.3670   43.9230 C   0  0  0  0  0  0  0  0  0  0  0  0
   49.9478   25.2936   43.7158 H   0  0  0  0  0  0  0  0  0  0  0  0
   50.6572   25.8834   42.1745 H   0  0  0  0  0  0  0  0  0  0  0  0
   49.5751   24.4496   42.1745 H   0  0  0  0  0  0  0  0  0  0  0  0
   51.3656   23.1070   42.4669 H   0  0  0  0  0  0  0  0  0  0  0  0
   52.4443   24.5486   42.4953 H   0  0  0  0  0  0  0  0  0  0  0  0
   54.0772   23.6975   47.1738 H   0  0  0  0  0  0  0  0  0  0  0  0
   56.5003   24.1886   47.4533 H   0  0  0  0  0  0  0  0  0  0  0  0
   60.2362   27.1571   44.3695 H   0  0  0  0  0  0  0  0  0  0  0  0
   59.2686   29.2630   43.4683 H   0  0  0  0  0  0  0  0  0  0  0  0
   57.9982   30.3124   46.2190 H   0  0  0  0  0  0  0  0  0  0  0  0
   60.6179   27.8972   48.6462 H   0  0  0  0  0  0  0  0  0  0  0  0
   59.5204   27.8271   47.2260 H   0  0  0  0  0  0  0  0  0  0  0  0
   60.9183   28.9551   47.2260 H   0  0  0  0  0  0  0  0  0  0  0  0
   62.2034   30.6423   50.8050 H   0  0  0  0  0  0  0  0  0  0  0  0
   61.7619   29.8597   49.2496 H   0  0  0  0  0  0  0  0  0  0  0  0
   62.5928   31.4522   49.2496 H   0  0  0  0  0  0  0  0  0  0  0  0
   61.9332   34.2158   50.3540 H   0  0  0  0  0  0  0  0  0  0  0  0
   62.3028   33.3257   48.8381 H   0  0  0  0  0  0  0  0  0  0  0  0
   62.2626   35.1215   48.8381 H   0  0  0  0  0  0  0  0  0  0  0  0
   58.9757   34.4971   46.6900 H   0  0  0  0  0  0  0  0  0  0  0  0
   55.6962   28.6411   45.8258 H   0  0  0  0  0  0  0  0  0  0  0  0
   56.6088   26.4657   46.6529 H   0  0  0  0  0  0  0  0  0  0  0  0
   57.1150   23.6334   43.2034 H   0  0  0  0  0  0  0  0  0  0  0  0
   54.6798   23.1649   42.9201 H   0  0  0  0  0  0  0  0  0  0  0  0
  1  2  1  0
  2  3  1  0
  3  4  2  0
  3  5  1  0
  5  6  1  0
  6  7  2  0
  7  8  1  0
  8  9  2  0
  9 10  1  0
 10 11  1  0
 11 12  2  0
 11 13  1  0
 13 14  2  0
 14 15  1  0
 15 16  2  0
 16 17  1  0
 17 18  2  0
 17 19  2  0
 17 20  1  0
 20 21  1  0
 21 22  2  0
 21 23  1  0
 23 24  2  0
 24 25  1  0
 25 26  1  0
 26 27  1  0
 25 28  2  0
 28 29  1  0
 29 30  1  0
 28 31  1  0
 31 32  1  0
 32 33  1  0
 31 34  2  0
 16 35  1  0
 35 36  2  0
  9 37  1  0
 37 38  2  0
 38  6  1  0
 36 13  1  0
 34 23  1  0
  1 39  1  0
  1 40  1  0
  1 41  1  0
  2 42  1  0
  2 43  1  0
  7 44  1  0
  8 45  1  0
 14 46  1  0
 15 47  1  0
 24 48  1  0
 27 49  1  0
 27 50  1  0
 27 51  1  0
 30 52  1  0
 30 53  1  0
 30 54  1  0
 33 55  1  0
 33 56  1  0
 33 57  1  0
 34 58  1  0
 35 59  1  0
 36 60  1  0
 37 61  1  0
 38 62  1  0
M  CHG  3   5  -1  10  -1  20  -1
M  END
>  <UniqueID>  (13) 
10

>  <SMILES>  (13) 
CCC(=O)[N-]c1ccc([N-]C(=O)c2ccc(S(=O)(=O)[N-]C(=O)c3cc(OC)c(OC)c(OC)c3)cc2)cc1

>  <Energy>  (13) 
73.11128926699924

>  <Genealogy>  (13) 
CCC(=O)[N-]c1ccc([N-]C(=O)c2ccc(S(=O)(=O)[N-]C(=O)c3cc(OC)c(OC)c(OC)c3)cc2)cc1 (protonated)
CCC(=O)[N-]c1ccc([N-]C(=O)c2ccc(S(=O)(=O)[N-]C(=O)c3cc(OC)c(OC)c(OC)c3)cc2)cc1 (3D coordinates assigned)
CCC(=O)[N-]c1ccc([N-]C(=O)c2ccc(S(=O)(=O)[N-]C(=O)c3cc(OC)c(OC)c(OC)c3)cc2)cc1 (optimized conformer: 73.11128926699924 kcal/mol)

>  <smiles>  (13) 
CCC(=O)Nc1ccc(NC(=O)c2ccc(S(=O)(=O)NC(=O)c3cc(OC)c(OC)c(OC)c3)cc2)cc1

>  <score_type>  (13) 
oracle

>  <origin>  (13) 
adg

>  <m_score__min__energy>  (13) 
-12.75

>  <m_primary>  (13) 
energy

$$$$
13:0
     RDKit          3D

 59 61  0  0  0  0  0  0  0  0999 V2000
   55.6060   23.7010   44.0920 C   0  0  0  0  0  0  0  0  0  0  0  0
   54.9340   23.4840   45.4500 C   0  0  0  0  0  0  0  0  0  0  0  0
   55.4120   24.4400   46.4020 O   0  0  0  0  0  0  0  0  0  0  0  0
   55.9240   25.6970   46.0540 C   0  0  0  0  0  0  0  0  0  0  0  0
   55.1620   26.7050   46.0030 O   0  0  0  0  0  0  0  0  0  0  0  0
   57.3210   25.8120   45.7260 N   0  0  0  0  0  0  0  0  0  0  0  0
   58.0760   27.0390   45.7290 C   0  0  0  0  0  0  0  0  0  0  0  0
   57.9550   27.9850   44.6930 C   0  0  0  0  0  0  0  0  0  0  0  0
   58.6260   29.2060   44.7660 C   0  0  0  0  0  0  0  0  0  0  0  0
   59.4110   29.5130   45.8890 C   0  0  0  0  0  0  0  0  0  0  0  0
   60.0250   30.7210   45.9680 N   0  0  0  0  0  0  0  0  0  0  0  0
   60.7620   31.0610   47.0490 C   0  0  0  0  0  0  0  0  0  0  0  0
   61.5150   32.6820   47.1350 S   0  0  0  0  0  0  0  0  0  0  0  0
   60.0600   33.4850   47.9350 C   0  0  2  0  0  0  0  0  0  0  0  0
   60.2260   33.4970   49.3490 O   0  0  0  0  0  0  0  0  0  0  0  0
   59.8890   32.2370   49.9140 C   0  0  1  0  0  0  0  0  0  0  0  0
   60.2950   32.2130   51.4000 C   0  0  0  0  0  0  0  0  0  0  0  0
   60.1780   33.5200   51.9780 O   0  0  0  0  0  0  0  0  0  0  0  0
   59.1350   33.9030   52.8280 C   0  0  0  0  0  0  0  0  0  0  0  0
   59.1650   33.4750   54.2570 C   0  0  0  0  0  0  0  0  0  0  0  0
   58.1470   34.5630   52.3860 O   0  0  0  0  0  0  0  0  0  0  0  0
   58.3770   31.9290   49.6590 C   0  0  1  0  0  0  0  0  0  0  0  0
   57.5820   32.1370   50.8370 O   0  0  0  0  0  0  0  0  0  0  0  0
   56.9730   31.1010   51.5630 C   0  0  0  0  0  0  0  0  0  0  0  0
   55.7730   31.3980   52.4010 C   0  0  0  0  0  0  0  0  0  0  0  0
   57.3880   29.9040   51.4670 O   0  0  0  0  0  0  0  0  0  0  0  0
   57.8500   32.7540   48.6260 O   0  0  0  0  0  0  0  0  0  0  0  0
   58.7370   32.7780   47.5160 C   0  0  1  0  0  0  0  0  0  0  0  0
   58.0420   33.4960   46.3420 C   0  0  0  0  0  0  0  0  0  0  0  0
   56.6410   33.4930   46.5120 O   0  0  0  0  0  0  0  0  0  0  0  0
   60.9060   30.1860   48.0770 N   0  0  0  0  0  0  0  0  0  0  0  0
   60.3320   28.9550   48.0500 C   0  0  0  0  0  0  0  0  0  0  0  0
   60.5780   27.9650   49.3410 S   0  0  0  0  0  0  0  0  0  0  0  0
   59.5440   28.5800   46.9420 C   0  0  0  0  0  0  0  0  0  0  0  0
   58.8710   27.3430   46.8480 C   0  0  0  0  0  0  0  0  0  0  0  0
   56.6426   24.0357   44.2452 H   0  0  0  0  0  0  0  0  0  0  0  0
   55.6052   22.7569   43.5275 H   0  0  0  0  0  0  0  0  0  0  0  0
   55.0532   24.4663   43.5275 H   0  0  0  0  0  0  0  0  0  0  0  0
   53.8456   23.5972   45.3380 H   0  0  0  0  0  0  0  0  0  0  0  0
   55.1740   22.4723   45.8091 H   0  0  0  0  0  0  0  0  0  0  0  0
   57.8250   24.9270   45.4850 H   0  0  0  0  0  0  0  0  0  0  0  0
   57.3263   27.7594   43.8190 H   0  0  0  0  0  0  0  0  0  0  0  0
   58.5399   29.9297   43.9421 H   0  0  0  0  0  0  0  0  0  0  0  0
   59.9937   34.5278   47.5913 H   0  0  0  0  0  0  0  0  0  0  0  0
   60.4502   31.4256   49.4276 H   0  0  0  0  0  0  0  0  0  0  0  0
   59.6377   31.5178   51.9428 H   0  0  0  0  0  0  0  0  0  0  0  0
   61.3423   31.8851   51.4755 H   0  0  0  0  0  0  0  0  0  0  0  0
   59.1029   34.3607   54.9064 H   0  0  0  0  0  0  0  0  0  0  0  0
   58.3112   32.8116   54.4591 H   0  0  0  0  0  0  0  0  0  0  0  0
   60.1030   32.9372   54.4591 H   0  0  0  0  0  0  0  0  0  0  0  0
   58.3276   30.8706   49.3634 H   0  0  0  0  0  0  0  0  0  0  0  0
   56.0433   31.3311   53.4652 H   0  0  0  0  0  0  0  0  0  0  0  0
   55.4117   32.4127   52.1775 H   0  0  0  0  0  0  0  0  0  0  0  0
   54.9802   30.6690   52.1775 H   0  0  0  0  0  0  0  0  0  0  0  0
   58.9916   31.7587   47.1901 H   0  0  0  0  0  0  0  0  0  0  0  0
   58.3973   34.5359   46.2940 H   0  0  0  0  0  0  0  0  0  0  0  0
   58.2854   32.9650   45.4099 H   0  0  0  0  0  0  0  0  0  0  0  0
   56.4730   33.8750   47.4070 H   0  0  0  0  0  0  0  0  0  0  0  0
   58.9697   26.6077   47.6602 H   0  0  0  0  0  0  0  0  0  0  0  0
  1  2  1  0
  2  3  1  0
  3  4  1  0
  4  5  2  0
  4  6  1  0
  6  7  1  0
  7  8  2  0
  8  9  1  0
  9 10  2  0
 10 11  1  0
 11 12  1  0
 12 13  1  0
 13 14  1  0
 14 15  1  0
 15 16  1  0
 16 17  1  0
 17 18  1  0
 18 19  1  0
 19 20  1  0
 19 21  2  0
 16 22  1  0
 22 23  1  0
 23 24  1  0
 24 25  1  0
 24 26  2  0
 22 27  1  0
 27 28  1  0
 28 29  1  0
 29 30  1  0
 12 31  2  0
 31 32  1  0
 32 33  2  0
 32 34  1  0
 34 35  2  0
 35  7  1  0
 34 10  1  0
 28 14  1  0
  1 36  1  0
  1 37  1  0
  1 38  1  0
  2 39  1  0
  2 40  1  0
  6 41  1  0
  8 42  1  0
  9 43  1  0
 14 44  1  6
 16 45  1  6
 17 46  1  0
 17 47  1  0
 20 48  1  0
 20 49  1  0
 20 50  1  0
 22 51  1  6
 25 52  1  0
 25 53  1  0
 25 54  1  0
 28 55  1  6
 29 56  1  0
 29 57  1  0
 30 58  1  0
 35 59  1  0
M  CHG  1  11  -1
M  END
>  <UniqueID>  (14) 
11

>  <SMILES>  (14) 
CCOC(=O)Nc1ccc2[n-]c(S[C@@H]3O[C@@H](COC(C)=O)C(OC(C)=O)OC3CO)nc(=S)c2c1

>  <Energy>  (14) 
69.09691182950837

>  <Genealogy>  (14) 
CCOC(=O)Nc1ccc2[n-]c(SC3OC(COC(C)=O)C(OC(C)=O)OC3CO)nc(=S)c2c1 (protonated)
CCOC(=O)Nc1ccc2[n-]c(S[C@@H]3O[C@@H](COC(C)=O)C(OC(C)=O)OC3CO)nc(=S)c2c1 (chirality)
CCOC(=O)Nc1ccc2[n-]c(S[C@@H]3O[C@@H](COC(C)=O)C(OC(C)=O)OC3CO)nc(=S)c2c1 (3D coordinates assigned)
CCOC(=O)Nc1ccc2[n-]c(S[C@@H]3O[C@@H](COC(C)=O)C(OC(C)=O)OC3CO)nc(=S)c2c1 (nonaromatic ring conformer: 69.09691182950837 kcal/mol)

>  <smiles>  (14) 
CCOC(=O)Nc1ccc2[nH]c(SC3OC(COC(C)=O)C(OC(C)=O)OC3CO)nc(=S)c2c1

>  <score_type>  (14) 
oracle

>  <origin>  (14) 
adg

>  <m_score__min__energy>  (14) 
-8.8399999999999999

>  <m_primary>  (14) 
energy

$$$$
14:0
     RDKit          3D

 49 52  0  0  0  0  0  0  0  0999 V2000
   60.5420   27.5870   49.6010 O   0  0  0  0  0  0  0  0  0  0  0  0
   59.7600   28.2310   48.8540 C   0  0  0  0  0  0  0  0  0  0  0  0
   59.1700   29.5240   49.3500 C   0  0  0  0  0  0  0  0  0  0  0  0
   59.9420   30.6780   48.8570 N   0  0  0  0  0  0  0  0  0  0  0  0
   61.3490   30.6970   49.3170 C   0  0  0  0  0  0  0  0  0  0  0  0
   62.2100   31.7610   48.6690 C   0  0  0  0  0  0  0  0  0  0  0  0
   62.0360   32.1160   47.3190 C   0  0  0  0  0  0  0  0  0  0  0  0
   62.8270   33.1130   46.7400 C   0  0  0  0  0  0  0  0  0  0  0  0
   63.7740   33.7910   47.5110 C   0  0  0  0  0  0  0  0  0  0  0  0
   63.9230   33.4810   48.8630 C   0  0  0  0  0  0  0  0  0  0  0  0
   63.1420   32.4760   49.4440 C   0  0  0  0  0  0  0  0  0  0  0  0
   59.1090   32.2110   49.0710 S   0  0  0  0  0  0  0  0  0  0  0  0
   59.9490   33.0960   49.9490 O   0  0  0  0  0  0  0  0  0  0  0  0
   57.8010   31.9820   49.7750 O   0  0  0  0  0  0  0  0  0  0  0  0
   58.8100   33.0690   47.5510 C   0  0  0  0  0  0  0  0  0  0  0  0
   59.5270   34.2300   47.2280 C   0  0  0  0  0  0  0  0  0  0  0  0
   59.2620   34.9160   46.0390 C   0  0  0  0  0  0  0  0  0  0  0  0
   58.2980   34.4310   45.1510 C   0  0  0  0  0  0  0  0  0  0  0  0
   57.6140   33.2480   45.4420 C   0  0  0  0  0  0  0  0  0  0  0  0
   57.8790   32.5620   46.6320 C   0  0  0  0  0  0  0  0  0  0  0  0
   59.4600   27.7070   47.5520 N   0  0  0  0  0  0  0  0  0  0  0  0
   58.8290   28.4090   46.4740 C   0  0  0  0  0  0  0  0  0  0  0  0
   59.5670   29.2490   45.5990 C   0  0  0  0  0  0  0  0  0  0  0  0
   58.9260   29.9170   44.5400 C   0  0  0  0  0  0  0  0  0  0  0  0
   57.5520   29.7400   44.3980 C   0  0  0  0  0  0  0  0  0  0  0  0
   56.8370   28.9620   45.2490 C   0  0  0  0  0  0  0  0  0  0  0  0
   57.4340   28.2880   46.3100 C   0  0  0  0  0  0  0  0  0  0  0  0
   55.5080   28.9730   44.8750 O   0  0  0  0  0  0  0  0  0  0  0  0
   55.3800   29.8090   43.7160 C   0  0  0  0  0  0  0  0  0  0  0  0
   56.7090   30.2790   43.4470 O   0  0  0  0  0  0  0  0  0  0  0  0
   58.1325   29.6063   48.9940 H   0  0  0  0  0  0  0  0  0  0  0  0
   59.2004   29.5250   50.4496 H   0  0  0  0  0  0  0  0  0  0  0  0
   61.3524   30.8678   50.4037 H   0  0  0  0  0  0  0  0  0  0  0  0
   61.7835   29.7277   49.0311 H   0  0  0  0  0  0  0  0  0  0  0  0
   61.2720   31.6054   46.7144 H   0  0  0  0  0  0  0  0  0  0  0  0
   62.7034   33.3637   45.6761 H   0  0  0  0  0  0  0  0  0  0  0  0
   64.4020   34.5690   47.0524 H   0  0  0  0  0  0  0  0  0  0  0  0
   64.6563   34.0280   49.4737 H   0  0  0  0  0  0  0  0  0  0  0  0
   63.2571   32.2434   50.5129 H   0  0  0  0  0  0  0  0  0  0  0  0
   60.3020   34.6029   47.9137 H   0  0  0  0  0  0  0  0  0  0  0  0
   59.8127   35.8383   45.8022 H   0  0  0  0  0  0  0  0  0  0  0  0
   58.0779   34.9802   44.2237 H   0  0  0  0  0  0  0  0  0  0  0  0
   56.8673   32.8562   44.7356 H   0  0  0  0  0  0  0  0  0  0  0  0
   57.3544   31.6197   46.8484 H   0  0  0  0  0  0  0  0  0  0  0  0
   60.6488   29.3785   45.7505 H   0  0  0  0  0  0  0  0  0  0  0  0
   59.4911   30.5578   43.8472 H   0  0  0  0  0  0  0  0  0  0  0  0
   56.8342   27.6779   47.0014 H   0  0  0  0  0  0  0  0  0  0  0  0
   54.9946   29.2309   42.8632 H   0  0  0  0  0  0  0  0  0  0  0  0
   54.6748   30.6371   43.8803 H   0  0  0  0  0  0  0  0  0  0  0  0
  1  2  2  0
  2  3  1  0
  3  4  1  0
  4  5  1  0
  5  6  1  0
  6  7  2  0
  7  8  1  0
  8  9  2  0
  9 10  1  0
 10 11  2  0
  4 12  1  0
 12 13  2  0
 12 14  2  0
 12 15  1  0
 15 16  2  0
 16 17  1  0
 17 18  2  0
 18 19  1  0
 19 20  2  0
  2 21  1  0
 21 22  1  0
 22 23  2  0
 23 24  1  0
 24 25  2  0
 25 26  1  0
 26 27  2  0
 26 28  1  0
 28 29  1  0
 29 30  1  0
 11  6  1  0
 20 15  1  0
 27 22  1  0
 30 25  1  0
  3 31  1  0
  3 32  1  0
  5 33  1  0
  5 34  1  0
  7 35  1  0
  8 36  1  0
  9 37  1  0
 10 38  1  0
 11 39  1  0
 16 40  1  0
 17 41  1  0
 18 42  1  0
 19 43  1  0
 20 44  1  0
 23 45  1  0
 24 46  1  0
 27 47  1  0
 29 48  1  0
 29 49  1  0
M  CHG  1  21  -1
M  END
>  <UniqueID>  (15) 
12

>  <SMILES>  (15) 
O=C(CN(Cc1ccccc1)S(=O)(=O)c1ccccc1)[N-]c1ccc2c(c1)OCO2

>  <Energy>  (15) 
86.23340232924876

>  <Genealogy>  (15) 
O=C(CN(Cc1ccccc1)S(=O)(=O)c1ccccc1)[N-]c1ccc2c(c1)OCO2 (protonated)
O=C(CN(Cc1ccccc1)S(=O)(=O)c1ccccc1)[N-]c1ccc2c(c1)OCO2 (3D coordinates assigned)
O=C(CN(Cc1ccccc1)S(=O)(=O)c1ccccc1)[N-]c1ccc2c(c1)OCO2 (nonaromatic ring conformer: 86.23340232924876 kcal/mol)

>  <smiles>  (15) 
O=C(CN(Cc1ccccc1)S(=O)(=O)c1ccccc1)Nc1ccc2c(c1)OCO2

>  <score_type>  (15) 
oracle

>  <origin>  (15) 
adg

>  <m_score__min__energy>  (15) 
-10.41

>  <m_primary>  (15) 
energy

$$$$
15:0
     RDKit          3D

 31 32  0  0  0  0  0  0  0  0999 V2000
   55.0000   24.9020   45.7240 C   0  0  0  0  0  0  0  0  0  0  0  0
   55.4640   26.2190   46.0070 O   0  0  0  0  0  0  0  0  0  0  0  0
   56.7780   26.6600   45.7890 C   0  0  0  0  0  0  0  0  0  0  0  0
   57.8990   25.9530   46.2620 C   0  0  0  0  0  0  0  0  0  0  0  0
   59.1870   26.4360   46.0190 C   0  0  0  0  0  0  0  0  0  0  0  0
   59.3700   27.6210   45.3020 C   0  0  0  0  0  0  0  0  0  0  0  0
   58.2610   28.3360   44.8150 C   0  0  0  0  0  0  0  0  0  0  0  0
   58.4110   29.5570   44.0670 N   0  0  0  0  0  0  0  0  0  0  0  0
   57.4430   30.9750   44.3210 S   0  0  0  0  0  0  0  0  0  0  0  0
   56.0450   30.5580   44.6820 O   0  0  0  0  0  0  0  0  0  0  0  0
   57.4010   31.7800   43.0520 O   0  0  0  0  0  0  0  0  0  0  0  0
   58.1470   31.9660   45.5960 C   0  0  0  0  0  0  0  0  0  0  0  0
   58.8640   31.3710   46.6440 C   0  0  0  0  0  0  0  0  0  0  0  0
   59.4290   32.1640   47.6470 C   0  0  0  0  0  0  0  0  0  0  0  0
   59.2800   33.5550   47.6100 C   0  0  0  0  0  0  0  0  0  0  0  0
   59.9920   34.5490   48.8660 Cl  0  0  0  0  0  0  0  0  0  0  0  0
   58.5610   34.1510   46.5670 C   0  0  0  0  0  0  0  0  0  0  0  0
   57.9940   33.3590   45.5650 C   0  0  0  0  0  0  0  0  0  0  0  0
   56.9700   27.8460   45.0710 C   0  0  0  0  0  0  0  0  0  0  0  0
   54.8121   24.3688   46.6676 H   0  0  0  0  0  0  0  0  0  0  0  0
   54.0677   24.9587   45.1430 H   0  0  0  0  0  0  0  0  0  0  0  0
   55.7619   24.3618   45.1430 H   0  0  0  0  0  0  0  0  0  0  0  0
   57.7607   25.0178   46.8244 H   0  0  0  0  0  0  0  0  0  0  0  0
   60.0601   25.8815   46.3934 H   0  0  0  0  0  0  0  0  0  0  0  0
   60.3871   27.9970   45.1173 H   0  0  0  0  0  0  0  0  0  0  0  0
   59.1900   29.6360   43.3750 H   0  0  0  0  0  0  0  0  0  0  0  0
   58.9821   30.2779   46.6769 H   0  0  0  0  0  0  0  0  0  0  0  0
   59.9918   31.6938   48.4669 H   0  0  0  0  0  0  0  0  0  0  0  0
   58.4422   35.2441   46.5362 H   0  0  0  0  0  0  0  0  0  0  0  0
   57.4258   33.8302   44.7494 H   0  0  0  0  0  0  0  0  0  0  0  0
   56.0963   28.4029   44.7015 H   0  0  0  0  0  0  0  0  0  0  0  0
  1  2  1  0
  2  3  1  0
  3  4  2  0
  4  5  1  0
  5  6  2  0
  6  7  1  0
  7  8  1  0
  8  9  1  0
  9 10  2  0
  9 11  2  0
  9 12  1  0
 12 13  2  0
 13 14  1  0
 14 15  2  0
 15 16  1  0
 15 17  1  0
 17 18  2  0
  7 19  2  0
 19  3  1  0
 18 12  1  0
  1 20  1  0
  1 21  1  0
  1 22  1  0
  4 23  1  0
  5 24  1  0
  6 25  1  0
  8 26  1  0
 13 27  1  0
 14 28  1  0
 17 29  1  0
 18 30  1  0
 19 31  1  0
M  END
>  <UniqueID>  (16) 
13

>  <SMILES>  (16) 
COc1cccc(NS(=O)(=O)c2ccc(Cl)cc2)c1

>  <Energy>  (16) 
33.43508572625544

>  <Genealogy>  (16) 
COc1cccc(NS(=O)(=O)c2ccc(Cl)cc2)c1 (3D coordinates assigned)
COc1cccc(NS(=O)(=O)c2ccc(Cl)cc2)c1 (optimized conformer: 33.43508572625544 kcal/mol)

>  <smiles>  (16) 
COc1cccc(NS(=O)(=O)c2ccc(Cl)cc2)c1

>  <score_type>  (16) 
oracle

>  <origin>  (16) 
adg

>  <m_score__min__energy>  (16) 
-8.1099999999999994

>  <m_primary>  (16) 
energy

$$$$
16:0
     RDKit          3D

 71 74  0  0  0  0  0  0  0  0999 V2000
   56.9890   34.2390   44.8920 C   0  0  0  0  0  0  0  0  0  0  0  0
   58.1080   33.1870   44.7230 C   0  0  0  0  0  0  0  0  0  0  0  0
   58.1300   32.7340   43.2480 C   0  0  0  0  0  0  0  0  0  0  0  0
   59.4580   33.8360   45.0850 C   0  0  0  0  0  0  0  0  0  0  0  0
   57.8650   31.9860   45.6280 C   0  0  0  0  0  0  0  0  0  0  0  0
   57.1430   31.0330   45.2260 O   0  0  0  0  0  0  0  0  0  0  0  0
   58.3920   31.9660   46.9690 N   0  0  0  0  0  0  0  0  0  0  0  0
   58.5620   30.7880   47.7760 C   0  0  0  0  0  0  0  0  0  0  0  0
   58.5490   29.2840   47.1050 S   0  0  0  0  0  0  0  0  0  0  0  0
   58.7360   30.9480   49.1950 N   0  0  0  0  0  0  0  0  0  0  0  0
   59.4700   30.0430   50.0360 C   0  0  0  0  0  0  0  0  0  0  0  0
   60.7160   29.5280   49.6400 C   0  0  0  0  0  0  0  0  0  0  0  0
   61.4310   28.6790   50.4890 C   0  0  0  0  0  0  0  0  0  0  0  0
   60.9120   28.3350   51.7490 C   0  0  0  0  0  0  0  0  0  0  0  0
   61.6030   27.4930   52.6320 O   0  0  0  0  0  0  0  0  0  0  0  0
   62.9400   27.6550   53.0290 C   0  0  0  0  0  0  0  0  0  0  0  0
   63.3950   28.8350   53.6450 C   0  0  0  0  0  0  0  0  0  0  0  0
   64.7370   28.9640   54.0130 C   0  0  0  0  0  0  0  0  0  0  0  0
   65.6430   27.9260   53.7540 C   0  0  0  0  0  0  0  0  0  0  0  0
   67.3230   28.0920   54.2480 S   0  0  0  0  0  0  0  0  0  0  0  0
   67.4620   29.1510   55.3070 O   0  0  0  0  0  0  0  0  0  0  0  0
   67.7900   26.7820   54.8200 O   0  0  0  0  0  0  0  0  0  0  0  0
   68.2790   28.5240   52.8650 N   0  0  0  0  0  0  0  0  0  0  0  0
   68.8470   29.8730   52.7720 C   0  0  0  0  0  0  0  0  0  0  0  0
   67.8790   30.7950   52.0840 C   0  0  0  0  0  0  0  0  0  0  0  0
   68.2590   32.1100   51.7690 C   0  0  0  0  0  0  0  0  0  0  0  0
   67.3760   32.9550   51.0890 C   0  0  0  0  0  0  0  0  0  0  0  0
   66.1150   32.4890   50.7080 C   0  0  0  0  0  0  0  0  0  0  0  0
   65.7350   31.1770   51.0050 C   0  0  0  0  0  0  0  0  0  0  0  0
   66.6130   30.3290   51.6860 C   0  0  0  0  0  0  0  0  0  0  0  0
   68.4790   27.5730   51.8080 C   0  0  0  0  0  0  0  0  0  0  0  0
   69.1810   26.3840   52.0540 C   0  0  0  0  0  0  0  0  0  0  0  0
   69.3900   25.4630   51.0230 C   0  0  0  0  0  0  0  0  0  0  0  0
   68.8960   25.7240   49.7410 C   0  0  0  0  0  0  0  0  0  0  0  0
   68.1950   26.9070   49.4890 C   0  0  0  0  0  0  0  0  0  0  0  0
   67.9890   27.8300   50.5170 C   0  0  0  0  0  0  0  0  0  0  0  0
   65.1930   26.7560   53.1300 C   0  0  0  0  0  0  0  0  0  0  0  0
   63.8500   26.6260   52.7620 C   0  0  0  0  0  0  0  0  0  0  0  0
   59.6930   28.8840   52.1600 C   0  0  0  0  0  0  0  0  0  0  0  0
   58.9770   29.7340   51.3130 C   0  0  0  0  0  0  0  0  0  0  0  0
   56.8061   34.4109   45.9630 H   0  0  0  0  0  0  0  0  0  0  0  0
   57.2973   35.1819   44.4167 H   0  0  0  0  0  0  0  0  0  0  0  0
   56.0669   33.8731   44.4167 H   0  0  0  0  0  0  0  0  0  0  0  0
   58.1833   31.6362   43.2023 H   0  0  0  0  0  0  0  0  0  0  0  0
   57.2141   33.0779   42.7451 H   0  0  0  0  0  0  0  0  0  0  0  0
   59.0083   33.1650   42.7451 H   0  0  0  0  0  0  0  0  0  0  0  0
   59.5596   33.8849   46.1792 H   0  0  0  0  0  0  0  0  0  0  0  0
   60.2781   33.2337   44.6671 H   0  0  0  0  0  0  0  0  0  0  0  0
   59.4999   34.8527   44.6671 H   0  0  0  0  0  0  0  0  0  0  0  0
   58.6690   32.8750   47.4020 H   0  0  0  0  0  0  0  0  0  0  0  0
   58.3050   31.7900   49.6410 H   0  0  0  0  0  0  0  0  0  0  0  0
   61.1307   29.7945   48.6566 H   0  0  0  0  0  0  0  0  0  0  0  0
   62.4043   28.2782   50.1697 H   0  0  0  0  0  0  0  0  0  0  0  0
   62.6921   29.6589   53.8377 H   0  0  0  0  0  0  0  0  0  0  0  0
   65.0837   29.8833   54.5077 H   0  0  0  0  0  0  0  0  0  0  0  0
   69.0532   30.2515   53.7840 H   0  0  0  0  0  0  0  0  0  0  0  0
   69.7798   29.8315   52.1906 H   0  0  0  0  0  0  0  0  0  0  0  0
   69.2549   32.4767   52.0582 H   0  0  0  0  0  0  0  0  0  0  0  0
   67.6745   33.9873   50.8539 H   0  0  0  0  0  0  0  0  0  0  0  0
   65.4210   33.1549   50.1741 H   0  0  0  0  0  0  0  0  0  0  0  0
   64.7428   30.8111   50.7021 H   0  0  0  0  0  0  0  0  0  0  0  0
   66.3132   29.2949   51.9112 H   0  0  0  0  0  0  0  0  0  0  0  0
   69.5687   26.1752   53.0620 H   0  0  0  0  0  0  0  0  0  0  0  0
   69.9431   24.5329   51.2203 H   0  0  0  0  0  0  0  0  0  0  0  0
   69.0591   24.9982   48.9306 H   0  0  0  0  0  0  0  0  0  0  0  0
   67.8055   27.1111   48.4807 H   0  0  0  0  0  0  0  0  0  0  0  0
   67.4408   28.7619   50.3147 H   0  0  0  0  0  0  0  0  0  0  0  0
   65.8983   25.9363   52.9285 H   0  0  0  0  0  0  0  0  0  0  0  0
   63.5070   25.7095   52.2597 H   0  0  0  0  0  0  0  0  0  0  0  0
   59.2951   28.6449   53.1572 H   0  0  0  0  0  0  0  0  0  0  0  0
   58.0216   30.1633   51.6491 H   0  0  0  0  0  0  0  0  0  0  0  0
  1  2  1  0
  2  3  1  0
  2  4  1  0
  2  5  1  0
  5  6  2  0
  5  7  1  0
  7  8  1  0
  8  9  2  0
  8 10  1  0
 10 11  1  0
 11 12  2  0
 12 13  1  0
 13 14  2  0
 14 15  1  0
 15 16  1  0
 16 17  2  0
 17 18  1  0
 18 19  2  0
 19 20  1  0
 20 21  2  0
 20 22  2  0
 20 23  1  0
 23 24  1  0
 24 25  1  0
 25 26  2  0
 26 27  1  0
 27 28  2  0
 28 29  1  0
 29 30  2  0
 23 31  1  0
 31 32  2  0
 32 33  1  0
 33 34  2  0
 34 35  1  0
 35 36  2  0
 19 37  1  0
 37 38  2  0
 14 39  1  0
 39 40  2  0
 40 11  1  0
 38 16  1  0
 30 25  1  0
 36 31  1  0
  1 41  1  0
  1 42  1  0
  1 43  1  0
  3 44  1  0
  3 45  1  0
  3 46  1  0
  4 47  1  0
  4 48  1  0
  4 49  1  0
  7 50  1  0
 10 51  1  0
 12 52  1  0
 13 53  1  0
 17 54  1  0
 18 55  1  0
 24 56  1  0
 24 57  1  0
 26 58  1  0
 27 59  1  0
 28 60  1  0
 29 61  1  0
 30 62  1  0
 32 63  1  0
 33 64  1  0
 34 65  1  0
 35 66  1  0
 36 67  1  0
 37 68  1  0
 38 69  1  0
 39 70  1  0
 40 71  1  0
M  END
>  <UniqueID>  (17) 
14

>  <SMILES>  (17) 
CC(C)(C)C(=O)NC(=S)Nc1ccc(Oc2ccc(S(=O)(=O)N(Cc3ccccc3)c3ccccc3)cc2)cc1

>  <Energy>  (17) 
89.73419212842236

>  <Genealogy>  (17) 
CC(C)(C)C(=O)NC(=S)Nc1ccc(Oc2ccc(S(=O)(=O)N(Cc3ccccc3)c3ccccc3)cc2)cc1 (3D coordinates assigned)
CC(C)(C)C(=O)NC(=S)Nc1ccc(Oc2ccc(S(=O)(=O)N(Cc3ccccc3)c3ccccc3)cc2)cc1 (optimized conformer: 89.73419212842236 kcal/mol)

>  <smiles>  (17) 
CC(C)(C)C(=O)NC(=S)Nc1ccc(Oc2ccc(S(=O)(=O)N(Cc3ccccc3)c3ccccc3)cc2)cc1

>  <score_type>  (17) 
oracle

>  <origin>  (17) 
adg

>  <m_score__min__energy>  (17) 
-9.1300000000000008

>  <m_primary>  (17) 
energy

$$$$
17:0
     RDKit          3D

 34 35  0  0  0  0  0  0  0  0999 V2000
   57.0900   22.6960   47.6240 H   0  0  0  0  0  0  0  0  0  0  0  0
   57.2080   23.2130   46.7230 N   0  0  0  0  0  0  0  0  0  0  0  0
   56.4290   24.1890   46.3750 C   0  0  0  0  0  0  0  0  0  0  0  0
   56.9230   25.4980   46.3660 C   0  0  0  0  0  0  0  0  0  0  0  0
   57.9659   25.6974   46.6532 H   0  0  0  0  0  0  0  0  0  0  0  0
   56.0840   26.5510   45.9900 C   0  0  0  0  0  0  0  0  0  0  0  0
   56.5970   27.8880   45.9800 N   0  0  0  0  0  0  0  0  0  0  0  0
   56.3150   28.8870   44.9920 C   0  0  0  0  0  0  0  0  0  0  0  0
   55.1510   29.3530   44.8540 O   0  0  0  0  0  0  0  0  0  0  0  0
   57.4070   29.3480   44.0800 C   0  0  0  0  0  0  0  0  0  0  0  0
   58.3262   28.7846   44.2985 H   0  0  0  0  0  0  0  0  0  0  0  0
   57.1030   29.1760   43.0369 H   0  0  0  0  0  0  0  0  0  0  0  0
   57.6620   30.8150   44.2840 C   0  0  0  0  0  0  0  0  0  0  0  0
   57.8440   31.6630   43.1790 C   0  0  0  0  0  0  0  0  0  0  0  0
   57.7735   31.2571   42.1590 H   0  0  0  0  0  0  0  0  0  0  0  0
   58.1140   33.0190   43.3710 C   0  0  0  0  0  0  0  0  0  0  0  0
   58.2477   33.6797   42.5018 H   0  0  0  0  0  0  0  0  0  0  0  0
   58.2150   33.5400   44.6640 C   0  0  0  0  0  0  0  0  0  0  0  0
   58.4249   34.6100   44.8091 H   0  0  0  0  0  0  0  0  0  0  0  0
   58.0490   32.7000   45.7810 C   0  0  0  0  0  0  0  0  0  0  0  0
   58.1480   33.1730   47.0990 O   0  0  0  0  0  0  0  0  0  0  0  0
   58.9650   34.2680   47.5000 C   0  0  0  0  0  0  0  0  0  0  0  0
   59.0007   34.3159   48.5984 H   0  0  0  0  0  0  0  0  0  0  0  0
   59.9826   34.1299   47.1057 H   0  0  0  0  0  0  0  0  0  0  0  0
   58.5429   35.2041   47.1057 H   0  0  0  0  0  0  0  0  0  0  0  0
   57.7780   31.3410   45.5820 C   0  0  0  0  0  0  0  0  0  0  0  0
   57.6545   30.6778   46.4509 H   0  0  0  0  0  0  0  0  0  0  0  0
   54.7940   26.2920   45.6360 N   0  0  0  0  0  0  0  0  0  0  0  0
   54.2860   25.0300   45.6340 C   0  0  0  0  0  0  0  0  0  0  0  0
   52.9260   24.8160   45.2540 N   0  0  0  0  0  0  0  0  0  0  0  0
   52.4240   23.9410   45.5240 H   0  0  0  0  0  0  0  0  0  0  0  0
   52.4160   25.5370   44.6980 H   0  0  0  0  0  0  0  0  0  0  0  0
   55.0980   23.9520   46.0060 C   0  0  0  0  0  0  0  0  0  0  0  0
   54.6950   22.9285   46.0086 H   0  0  0  0  0  0  0  0  0  0  0  0
  1  2  1  0
  2  3  2  0
  3  4  1  0
  4  5  1  0
  4  6  2  0
  6  7  1  0
  7  8  1  0
  8  9  2  0
  8 10  1  0
 10 11  1  0
 10 12  1  0
 10 13  1  0
 13 14  2  0
 14 15  1  0
 14 16  1  0
 16 17  1  0
 16 18  2  0
 18 19  1  0
 18 20  1  0
 20 21  1  0
 21 22  1  0
 22 23  1  0
 22 24  1  0
 22 25  1  0
 20 26  2  0
 26 27  1  0
  6 28  1  0
 28 29  1  0
 29 30  1  0
 30 31  1  0
 30 32  1  0
 29 33  2  0
 33 34  1  0
 33  3  1  0
 26 13  1  0
M  CHG  2   7  -1  28  -1
M  END
>  <UniqueID>  (18) 
15

>  <SMILES>  (18) 
[H]/N=c1\cc(N)[n-]c([N-]C(=O)Cc2cccc(OC)c2)c1

>  <Energy>  (18) 
31.833468397235023

>  <Genealogy>  (18) 
COc1cccc(CC(=O)[N-]c2cc(=N)cc(N)[n-]2)c1 (protonated)
[H]/N=c1\cc(N)[n-]c([N-]C(=O)Cc2cccc(OC)c2)c1 (cis-trans isomerization)
[H]/N=c1\cc(N)[n-]c([N-]C(=O)Cc2cccc(OC)c2)c1 (3D coordinates assigned)
[H]/N=c1\cc(N)[n-]c([N-]C(=O)Cc2cccc(OC)c2)c1 (optimized conformer: 31.833468397235023 kcal/mol)

>  <smiles>  (18) 
COc1cccc(CC(=O)Nc2cc(=N)cc(N)[nH]2)c1

>  <score_type>  (18) 
oracle

>  <origin>  (18) 
adg

>  <m_score__min__energy>  (18) 
-10.5

>  <m_primary>  (18) 
energy

$$$$
18:0
     RDKit          3D

 40 43  0  0  0  0  0  0  0  0999 V2000
   60.4818   26.5935   45.7244 H   0  0  0  0  0  0  0  0  0  0  0  0
   59.6180   27.2450   45.5260 C   0  0  0  0  0  0  0  0  0  0  0  0
   59.6920   28.2190   44.5270 C   0  0  0  0  0  0  0  0  0  0  0  0
   60.6160   28.3364   43.9418 H   0  0  0  0  0  0  0  0  0  0  0  0
   58.5930   29.0450   44.2700 C   0  0  0  0  0  0  0  0  0  0  0  0
   58.6591   29.8155   43.4878 H   0  0  0  0  0  0  0  0  0  0  0  0
   57.4040   28.8960   45.0060 C   0  0  0  0  0  0  0  0  0  0  0  0
   56.2340   29.7690   44.7460 C   0  0  0  0  0  0  0  0  0  0  0  0
   55.1230   29.2460   44.4630 O   0  0  0  0  0  0  0  0  0  0  0  0
   56.3100   31.1970   44.8570 N   0  0  0  0  0  0  0  0  0  0  0  0
   57.4390   31.9520   45.3190 C   0  0  0  0  0  0  0  0  0  0  0  0
   57.8210   33.0990   44.6130 C   0  0  0  0  0  0  0  0  0  0  0  0
   57.2496   33.4105   43.7261 H   0  0  0  0  0  0  0  0  0  0  0  0
   58.9240   33.8510   45.0280 C   0  0  0  0  0  0  0  0  0  0  0  0
   59.1976   34.7672   44.4842 H   0  0  0  0  0  0  0  0  0  0  0  0
   59.6820   33.4440   46.1320 C   0  0  0  0  0  0  0  0  0  0  0  0
   60.7740   34.2630   46.5720 N   0  0  0  0  0  0  0  0  0  0  0  0
   61.8140   33.8560   47.2400 C   0  0  0  0  0  0  0  0  0  0  0  0
   63.1960   33.6520   46.7850 C   0  0  0  0  0  0  0  0  0  0  0  0
   63.6370   33.8500   45.6220 O   0  0  0  0  0  0  0  0  0  0  0  0
   64.0270   33.2860   47.8850 N   0  0  0  0  0  0  0  0  0  0  0  0
   65.0560   33.1140   47.8740 H   0  0  0  0  0  0  0  0  0  0  0  0
   63.1600   33.3010   49.0170 C   0  0  0  0  0  0  0  0  0  0  0  0
   63.5150   33.0370   50.3390 C   0  0  0  0  0  0  0  0  0  0  0  0
   64.5497   32.7736   50.6035 H   0  0  0  0  0  0  0  0  0  0  0  0
   62.5170   33.1160   51.3250 C   0  0  0  0  0  0  0  0  0  0  0  0
   62.7696   32.9098   52.3755 H   0  0  0  0  0  0  0  0  0  0  0  0
   61.1930   33.4580   50.9770 C   0  0  0  0  0  0  0  0  0  0  0  0
   60.4205   33.5167   51.7579 H   0  0  0  0  0  0  0  0  0  0  0  0
   60.8550   33.7240   49.6400 C   0  0  0  0  0  0  0  0  0  0  0  0
   59.8259   33.9924   49.3593 H   0  0  0  0  0  0  0  0  0  0  0  0
   61.8620   33.6380   48.6780 C   0  0  0  0  0  0  0  0  0  0  0  0
   59.2940   32.3010   46.8510 C   0  0  0  0  0  0  0  0  0  0  0  0
   59.8595   31.9971   47.7442 H   0  0  0  0  0  0  0  0  0  0  0  0
   58.1920   31.5490   46.4350 C   0  0  0  0  0  0  0  0  0  0  0  0
   57.9127   30.6374   46.9836 H   0  0  0  0  0  0  0  0  0  0  0  0
   57.3450   27.9230   46.0200 C   0  0  0  0  0  0  0  0  0  0  0  0
   56.4281   27.8097   46.6170 H   0  0  0  0  0  0  0  0  0  0  0  0
   58.4460   27.0990   46.2730 C   0  0  0  0  0  0  0  0  0  0  0  0
   58.3895   26.3343   47.0617 H   0  0  0  0  0  0  0  0  0  0  0  0
  1  2  1  0
  2  3  2  0
  3  4  1  0
  3  5  1  0
  5  6  1  0
  5  7  2  0
  7  8  1  0
  8  9  2  0
  8 10  1  0
 10 11  1  0
 11 12  2  0
 12 13  1  0
 12 14  1  0
 14 15  1  0
 14 16  2  0
 16 17  1  0
 17 18  2  0
 18 19  1  0
 19 20  2  0
 19 21  1  0
 21 22  1  0
 21 23  1  0
 23 24  2  0
 24 25  1  0
 24 26  1  0
 26 27  1  0
 26 28  2  0
 28 29  1  0
 28 30  1  0
 30 31  1  0
 30 32  2  0
 16 33  1  0
 33 34  1  0
 33 35  2  0
 35 36  1  0
  7 37  1  0
 37 38  1  0
 37 39  2  0
 39 40  1  0
 39  2  1  0
 35 11  1  0
 32 18  1  0
 32 23  1  0
M  CHG  1  10  -1
M  END
>  <UniqueID>  (19) 
16

>  <SMILES>  (19) 
O=C1Nc2ccccc2/C1=N/c1ccc([N-]C(=O)c2ccccc2)cc1

>  <Energy>  (19) 
90.88683475543449

>  <Genealogy>  (19) 
O=C1Nc2ccccc2C1=Nc1ccc([N-]C(=O)c2ccccc2)cc1 (protonated)
O=C1Nc2ccccc2/C1=N/c1ccc([N-]C(=O)c2ccccc2)cc1 (cis-trans isomerization)
O=C1Nc2ccccc2/C1=N/c1ccc([N-]C(=O)c2ccccc2)cc1 (3D coordinates assigned)
O=C1Nc2ccccc2/C1=N/c1ccc([N-]C(=O)c2ccccc2)cc1 (nonaromatic ring conformer: 90.88683475543449 kcal/mol)

>  <smiles>  (19) 
O=C1Nc2ccccc2C1=Nc1ccc(NC(=O)c2ccccc2)cc1

>  <score_type>  (19) 
oracle

>  <origin>  (19) 
adg

>  <m_score__min__energy>  (19) 
-10.91

>  <m_primary>  (19) 
energy

$$$$
19:0
     RDKit          3D

 69 72  0  0  0  0  0  0  0  0999 V2000
   58.0960   32.0070   43.0560 C   0  0  0  0  0  0  0  0  0  0  0  0
   58.2200   31.9860   44.4760 O   0  0  0  0  0  0  0  0  0  0  0  0
   58.8030   33.0130   45.2400 C   0  0  0  0  0  0  0  0  0  0  0  0
   58.7960   34.3590   44.8120 C   0  0  0  0  0  0  0  0  0  0  0  0
   59.4090   35.3500   45.5850 C   0  0  0  0  0  0  0  0  0  0  0  0
   60.0320   35.0140   46.7880 C   0  0  0  0  0  0  0  0  0  0  0  0
   60.0370   33.6860   47.2280 C   0  0  0  0  0  0  0  0  0  0  0  0
   59.4210   32.6820   46.4640 C   0  0  0  0  0  0  0  0  0  0  0  0
   59.4070   31.3230   46.9400 N   0  0  0  0  0  0  0  0  0  0  0  0
   59.8300   30.2300   46.0590 C   0  0  0  0  0  0  0  0  0  0  0  0
   60.6860   29.2140   46.8370 C   0  0  0  0  0  0  0  0  0  0  0  0
   60.2410   28.9860   48.2430 N   0  0  0  0  0  0  0  0  0  0  0  0
   60.3360   27.5590   48.6210 C   0  0  0  0  0  0  0  0  0  0  0  0
   60.2400   26.6550   47.3830 C   0  0  0  0  0  0  0  0  0  0  0  0
   58.8280   26.5250   46.8570 C   0  0  0  0  0  0  0  0  0  0  0  0
   57.8590   26.7560   47.6320 O   0  0  0  0  0  0  0  0  0  0  0  0
   58.5660   26.1990   45.4700 N   0  0  0  0  0  0  0  0  0  0  0  0
   58.9000   27.1160   44.3640 C   0  0  0  0  0  0  0  0  0  0  0  0
   57.7830   28.1040   44.1430 C   0  0  0  0  0  0  0  0  0  0  0  0
   57.1210   28.6780   45.2440 C   0  0  0  0  0  0  0  0  0  0  0  0
   56.0530   29.5590   45.0480 C   0  0  0  0  0  0  0  0  0  0  0  0
   55.6410   29.8770   43.7520 C   0  0  0  0  0  0  0  0  0  0  0  0
   56.3050   29.3280   42.6510 C   0  0  0  0  0  0  0  0  0  0  0  0
   57.3750   28.4480   42.8430 C   0  0  0  0  0  0  0  0  0  0  0  0
   58.0670   24.8880   45.1410 C   0  0  0  0  0  0  0  0  0  0  0  0
   58.4470   23.7750   45.9000 C   0  0  0  0  0  0  0  0  0  0  0  0
   57.9710   22.5030   45.5750 C   0  0  0  0  0  0  0  0  0  0  0  0
   57.1050   22.3150   44.4790 C   0  0  0  0  0  0  0  0  0  0  0  0
   56.6260   20.9500   44.1300 C   0  0  0  0  0  0  0  0  0  0  0  0
   56.6090   19.8430   45.1420 C   0  0  0  0  0  0  0  0  0  0  0  0
   56.2760   20.6870   42.9500 O   0  0  0  0  0  0  0  0  0  0  0  0
   56.7190   23.4400   43.7150 C   0  0  0  0  0  0  0  0  0  0  0  0
   55.8540   23.2970   42.6310 O   0  0  0  0  0  0  0  0  0  0  0  0
   57.2010   24.7160   44.0510 C   0  0  0  0  0  0  0  0  0  0  0  0
   58.8850   29.5000   48.5220 C   0  0  0  0  0  0  0  0  0  0  0  0
   58.8250   31.0060   48.2490 C   0  0  0  0  0  0  0  0  0  0  0  0
   57.0456   32.1849   42.7823 H   0  0  0  0  0  0  0  0  0  0  0  0
   58.7233   32.8117   42.6450 H   0  0  0  0  0  0  0  0  0  0  0  0
   58.4234   31.0406   42.6450 H   0  0  0  0  0  0  0  0  0  0  0  0
   58.3055   34.6292   43.8652 H   0  0  0  0  0  0  0  0  0  0  0  0
   59.4002   36.3959   45.2445 H   0  0  0  0  0  0  0  0  0  0  0  0
   60.5196   35.7943   47.3908 H   0  0  0  0  0  0  0  0  0  0  0  0
   60.5265   33.4269   48.1784 H   0  0  0  0  0  0  0  0  0  0  0  0
   58.9402   29.7225   45.6582 H   0  0  0  0  0  0  0  0  0  0  0  0
   60.4302   30.6466   45.2367 H   0  0  0  0  0  0  0  0  0  0  0  0
   60.6493   28.2526   46.3038 H   0  0  0  0  0  0  0  0  0  0  0  0
   61.7013   29.6337   46.8918 H   0  0  0  0  0  0  0  0  0  0  0  0
   61.2995   27.3827   49.1215 H   0  0  0  0  0  0  0  0  0  0  0  0
   59.5017   27.3187   49.2964 H   0  0  0  0  0  0  0  0  0  0  0  0
   60.8726   27.0787   46.5891 H   0  0  0  0  0  0  0  0  0  0  0  0
   60.5749   25.6505   47.6811 H   0  0  0  0  0  0  0  0  0  0  0  0
   59.8224   27.6617   44.6119 H   0  0  0  0  0  0  0  0  0  0  0  0
   59.0429   26.5285   43.4451 H   0  0  0  0  0  0  0  0  0  0  0  0
   57.4458   28.4320   46.2658 H   0  0  0  0  0  0  0  0  0  0  0  0
   55.5379   30.0011   45.9136 H   0  0  0  0  0  0  0  0  0  0  0  0
   54.7930   30.5603   43.5973 H   0  0  0  0  0  0  0  0  0  0  0  0
   55.9852   29.5887   41.6313 H   0  0  0  0  0  0  0  0  0  0  0  0
   57.8988   28.0238   41.9737 H   0  0  0  0  0  0  0  0  0  0  0  0
   59.1243   23.9030   46.7572 H   0  0  0  0  0  0  0  0  0  0  0  0
   58.2756   21.6374   46.1816 H   0  0  0  0  0  0  0  0  0  0  0  0
   56.6156   20.2720   46.1549 H   0  0  0  0  0  0  0  0  0  0  0  0
   55.7014   19.2364   45.0066 H   0  0  0  0  0  0  0  0  0  0  0  0
   57.4975   19.2088   45.0066 H   0  0  0  0  0  0  0  0  0  0  0  0
   56.0120   22.6000   41.9110 H   0  0  0  0  0  0  0  0  0  0  0  0
   56.8965   25.5882   43.4539 H   0  0  0  0  0  0  0  0  0  0  0  0
   58.1603   28.9840   47.8750 H   0  0  0  0  0  0  0  0  0  0  0  0
   58.6413   29.3163   49.5788 H   0  0  0  0  0  0  0  0  0  0  0  0
   57.7751   31.3337   48.2655 H   0  0  0  0  0  0  0  0  0  0  0  0
   59.4020   31.5280   49.0266 H   0  0  0  0  0  0  0  0  0  0  0  0
  1  2  1  0
  2  3  1  0
  3  4  2  0
  4  5  1  0
  5  6  2  0
  6  7  1  0
  7  8  2  0
  8  9  1  0
  9 10  1  0
 10 11  1  0
 11 12  1  0
 12 13  1  0
 13 14  1  0
 14 15  1  0
 15 16  2  0
 15 17  1  0
 17 18  1  0
 18 19  1  0
 19 20  2  0
 20 21  1  0
 21 22  2  0
 22 23  1  0
 23 24  2  0
 17 25  1  0
 25 26  2  0
 26 27  1  0
 27 28  2  0
 28 29  1  0
 29 30  1  0
 29 31  2  0
 28 32  1  0
 32 33  1  0
 32 34  2  0
 12 35  1  0
 35 36  1  0
  8  3  1  0
 36  9  1  0
 24 19  1  0
 34 25  1  0
  1 37  1  0
  1 38  1  0
  1 39  1  0
  4 40  1  0
  5 41  1  0
  6 42  1  0
  7 43  1  0
 10 44  1  0
 10 45  1  0
 11 46  1  0
 11 47  1  0
 13 48  1  0
 13 49  1  0
 14 50  1  0
 14 51  1  0
 18 52  1  0
 18 53  1  0
 20 54  1  0
 21 55  1  0
 22 56  1  0
 23 57  1  0
 24 58  1  0
 26 59  1  0
 27 60  1  0
 30 61  1  0
 30 62  1  0
 30 63  1  0
 33 64  1  0
 34 65  1  0
 35 66  1  0
 35 67  1  0
 36 68  1  0
 36 69  1  0
M  END
>  <UniqueID>  (20) 
17

>  <SMILES>  (20) 
COc1ccccc1N1CCN(CCC(=O)N(Cc2ccccc2)c2ccc(C(C)=O)c(O)c2)CC1

>  <Energy>  (20) 
90.23810658775172

>  <Genealogy>  (20) 
COc1ccccc1N1CCN(CCC(=O)N(Cc2ccccc2)c2ccc(C(C)=O)c(O)c2)CC1 (3D coordinates assigned)
COc1ccccc1N1CCN(CCC(=O)N(Cc2ccccc2)c2ccc(C(C)=O)c(O)c2)CC1 (nonaromatic ring conformer: 90.23810658775172 kcal/mol)

>  <smiles>  (20) 
COc1ccccc1N1CCN(CCC(=O)N(Cc2ccccc2)c2ccc(C(C)=O)c(O)c2)CC1

>  <score_type>  (20) 
oracle

>  <origin>  (20) 
adg

>  <m_score__min__energy>  (20) 
-10.43

>  <m_primary>  (20) 
energy

$$$$
20:0
     RDKit          3D

 54 57  0  0  0  0  0  0  0  0999 V2000
   55.7416   26.5908   46.9541 H   0  0  0  0  0  0  0  0  0  0  0  0
   56.6460   26.7520   46.3490 C   0  0  0  0  0  0  0  0  0  0  0  0
   56.7020   27.7920   45.4730 N   0  0  0  0  0  0  0  0  0  0  0  0
   57.8020   28.0270   44.7020 C   0  0  0  0  0  0  0  0  0  0  0  0
   57.8350   29.0280   43.8730 N   0  0  0  0  0  0  0  0  0  0  0  0
   56.8360   30.4390   44.0230 S   0  0  0  0  0  0  0  0  0  0  0  0
   55.4750   30.0460   44.5270 O   0  0  0  0  0  0  0  0  0  0  0  0
   56.6770   31.0770   42.6710 O   0  0  0  0  0  0  0  0  0  0  0  0
   57.5960   31.5900   45.1160 C   0  0  0  0  0  0  0  0  0  0  0  0
   57.5750   32.9590   44.8340 C   0  0  0  0  0  0  0  0  0  0  0  0
   57.1099   33.3204   43.9050 H   0  0  0  0  0  0  0  0  0  0  0  0
   58.1420   33.8680   45.7270 C   0  0  0  0  0  0  0  0  0  0  0  0
   58.0910   34.9454   45.5111 H   0  0  0  0  0  0  0  0  0  0  0  0
   58.7770   33.4250   46.8980 C   0  0  0  0  0  0  0  0  0  0  0  0
   59.4240   34.6610   48.0450 S   0  0  0  0  0  0  0  0  0  0  0  0
   61.1370   34.1110   47.9440 C   0  0  0  0  0  0  0  0  0  0  0  0
   61.8840   33.9380   49.1190 C   0  0  0  0  0  0  0  0  0  0  0  0
   61.4242   34.1461   50.0964 H   0  0  0  0  0  0  0  0  0  0  0  0
   63.2110   33.5020   49.0520 C   0  0  0  0  0  0  0  0  0  0  0  0
   63.7970   33.3810   49.9750 H   0  0  0  0  0  0  0  0  0  0  0  0
   63.7930   33.2200   47.8140 C   0  0  0  0  0  0  0  0  0  0  0  0
   64.8408   32.8896   47.7608 H   0  0  0  0  0  0  0  0  0  0  0  0
   63.0430   33.3580   46.6430 C   0  0  0  0  0  0  0  0  0  0  0  0
   63.4973   33.1241   45.6689 H   0  0  0  0  0  0  0  0  0  0  0  0
   61.7160   33.7930   46.7080 C   0  0  0  0  0  0  0  0  0  0  0  0
   61.1241   33.8860   45.7855 H   0  0  0  0  0  0  0  0  0  0  0  0
   58.7810   32.0410   47.1980 C   0  0  0  0  0  0  0  0  0  0  0  0
   59.2810   31.5020   48.4840 C   0  0  0  0  0  0  0  0  0  0  0  0
   58.5130   31.5830   49.4830 O   0  0  0  0  0  0  0  0  0  0  0  0
   60.6170   30.9330   48.6170 N   0  0  0  0  0  0  0  0  0  0  0  0
   61.2520   31.7260   48.8580 H   0  0  0  0  0  0  0  0  0  0  0  0
   60.7330   29.9640   49.7370 C   0  0  0  0  0  0  0  0  0  0  0  0
   61.7975   29.7409   49.9012 H   0  0  0  0  0  0  0  0  0  0  0  0
   60.2737   30.4236   50.6246 H   0  0  0  0  0  0  0  0  0  0  0  0
   59.9900   28.6450   49.4570 C   0  0  0  0  0  0  0  0  0  0  0  0
   60.1771   27.9426   50.2826 H   0  0  0  0  0  0  0  0  0  0  0  0
   58.9137   28.8557   49.3726 H   0  0  0  0  0  0  0  0  0  0  0  0
   60.4740   28.0210   48.1470 C   0  0  0  0  0  0  0  0  0  0  0  0
   61.5239   27.7125   48.2590 H   0  0  0  0  0  0  0  0  0  0  0  0
   59.8455   27.1487   47.9146 H   0  0  0  0  0  0  0  0  0  0  0  0
   60.3650   29.0280   47.0030 C   0  0  0  0  0  0  0  0  0  0  0  0
   60.8069   28.5929   46.0945 H   0  0  0  0  0  0  0  0  0  0  0  0
   59.3033   29.2610   46.8343 H   0  0  0  0  0  0  0  0  0  0  0  0
   61.1080   30.3250   47.3550 C   0  0  0  0  0  0  0  0  0  0  0  0
   62.1792   30.1000   47.4645 H   0  0  0  0  0  0  0  0  0  0  0  0
   60.9287   31.0454   46.5433 H   0  0  0  0  0  0  0  0  0  0  0  0
   58.1770   31.1410   46.3050 C   0  0  0  0  0  0  0  0  0  0  0  0
   58.1610   30.0676   46.5448 H   0  0  0  0  0  0  0  0  0  0  0  0
   58.9140   27.1820   44.8080 C   0  0  0  0  0  0  0  0  0  0  0  0
   59.8086   27.3618   44.1937 H   0  0  0  0  0  0  0  0  0  0  0  0
   58.8760   26.1080   45.7020 C   0  0  0  0  0  0  0  0  0  0  0  0
   59.7422   25.4361   45.7926 H   0  0  0  0  0  0  0  0  0  0  0  0
   57.7370   25.8890   46.4800 C   0  0  0  0  0  0  0  0  0  0  0  0
   57.6993   25.0474   47.1873 H   0  0  0  0  0  0  0  0  0  0  0  0
  1  2  1  0
  2  3  1  0
  3  4  1  0
  4  5  2  0
  5  6  1  0
  6  7  2  0
  6  8  2  0
  6  9  1  0
  9 10  2  0
 10 11  1  0
 10 12  1  0
 12 13  1  0
 12 14  2  0
 14 15  1  0
 15 16  1  0
 16 17  2  0
 17 18  1  0
 17 19  1  0
 19 20  1  0
 19 21  2  0
 21 22  1  0
 21 23  1  0
 23 24  1  0
 23 25  2  0
 25 26  1  0
 14 27  1  0
 27 28  1  0
 28 29  2  0
 28 30  1  0
 30 31  1  0
 30 32  1  0
 32 33  1  0
 32 34  1  0
 32 35  1  0
 35 36  1  0
 35 37  1  0
 35 38  1  0
 38 39  1  0
 38 40  1  0
 38 41  1  0
 41 42  1  0
 41 43  1  0
 41 44  1  0
 44 45  1  0
 44 46  1  0
 27 47  2  0
 47 48  1  0
  4 49  1  0
 49 50  1  0
 49 51  2  0
 51 52  1  0
 51 53  1  0
 53 54  1  0
 53  2  2  0
 47  9  1  0
 25 16  1  0
 44 30  1  0
M  CHG  2   3  -1  30   1
M  END
>  <UniqueID>  (21) 
18

>  <SMILES>  (21) 
O=C(c1cc(S(=O)(=O)/N=c2/cccc[n-]2)ccc1Sc1ccccc1)[NH+]1CCCCC1

>  <Energy>  (21) 
69.10898104582107

>  <Genealogy>  (21) 
O=C(c1cc(S(=O)(=O)N=c2cccc[n-]2)ccc1Sc1ccccc1)[NH+]1CCCCC1 (protonated)
O=C(c1cc(S(=O)(=O)/N=c2/cccc[n-]2)ccc1Sc1ccccc1)[NH+]1CCCCC1 (cis-trans isomerization)
O=C(c1cc(S(=O)(=O)/N=c2/cccc[n-]2)ccc1Sc1ccccc1)[NH+]1CCCCC1 (3D coordinates assigned)
O=C(c1cc(S(=O)(=O)/N=c2/cccc[n-]2)ccc1Sc1ccccc1)[NH+]1CCCCC1 (nonaromatic ring conformer: 69.10898104582107 kcal/mol)

>  <smiles>  (21) 
O=C(c1cc(S(=O)(=O)N=c2cccc[nH]2)ccc1Sc1ccccc1)N1CCCCC1

>  <score_type>  (21) 
oracle

>  <origin>  (21) 
adg

>  <m_score__min__energy>  (21) 
-10.529999999999999

>  <m_primary>  (21) 
energy

$$$$
21:0
     RDKit          3D

 41 44  0  0  0  0  0  0  0  0999 V2000
   62.4102   31.5284   47.6929 H   0  0  0  0  0  0  0  0  0  0  0  0
   61.5760   30.8590   47.9500 C   0  0  0  0  0  0  0  0  0  0  0  0
   61.0110   30.0440   46.9690 C   0  0  0  0  0  0  0  0  0  0  0  0
   61.4124   30.0581   45.9450 H   0  0  0  0  0  0  0  0  0  0  0  0
   59.9310   29.2060   47.2870 C   0  0  0  0  0  0  0  0  0  0  0  0
   59.3990   28.2980   46.3150 N   0  0  0  0  0  0  0  0  0  0  0  0
   58.2150   28.2920   45.7620 C   0  0  0  0  0  0  0  0  0  0  0  0
   57.2160   27.3200   46.0180 C   0  0  0  0  0  0  0  0  0  0  0  0
   57.1900   26.0030   46.4820 C   0  0  0  0  0  0  0  0  0  0  0  0
   58.3400   25.0770   46.7260 C   0  0  0  0  0  0  0  0  0  0  0  0
   58.4901   24.9562   47.8090 H   0  0  0  0  0  0  0  0  0  0  0  0
   58.1243   24.0975   46.2742 H   0  0  0  0  0  0  0  0  0  0  0  0
   59.2509   25.4966   46.2742 H   0  0  0  0  0  0  0  0  0  0  0  0
   55.9190   25.5410   46.4110 N   0  0  0  0  0  0  0  0  0  0  0  0
   55.1400   26.4730   45.8820 N   0  0  0  0  0  0  0  0  0  0  0  0
   55.9210   27.5300   45.6170 C   0  0  0  0  0  0  0  0  0  0  0  0
   55.5500   28.5990   44.8770 N   0  0  0  0  0  0  0  0  0  0  0  0
   56.4840   29.5200   44.5100 C   0  0  0  0  0  0  0  0  0  0  0  0
   56.1000   30.6110   43.7220 C   0  0  0  0  0  0  0  0  0  0  0  0
   55.0518   30.7155   43.4051 H   0  0  0  0  0  0  0  0  0  0  0  0
   57.0420   31.5680   43.3360 C   0  0  0  0  0  0  0  0  0  0  0  0
   56.7336   32.4221   42.7152 H   0  0  0  0  0  0  0  0  0  0  0  0
   58.3730   31.4430   43.7360 C   0  0  0  0  0  0  0  0  0  0  0  0
   59.1098   32.1990   43.4270 H   0  0  0  0  0  0  0  0  0  0  0  0
   58.7760   30.3630   44.5270 C   0  0  0  0  0  0  0  0  0  0  0  0
   59.8259   30.2803   44.8445 H   0  0  0  0  0  0  0  0  0  0  0  0
   57.8450   29.3780   44.9210 C   0  0  0  0  0  0  0  0  0  0  0  0
   59.4740   29.1410   48.6090 C   0  0  0  0  0  0  0  0  0  0  0  0
   58.6672   28.4407   48.8709 H   0  0  0  0  0  0  0  0  0  0  0  0
   60.0330   29.9590   49.6050 C   0  0  0  0  0  0  0  0  0  0  0  0
   59.5100   29.8840   50.9440 N   0  0  0  0  0  0  0  0  0  0  0  0
   60.0210   29.3110   51.6530 H   0  0  0  0  0  0  0  0  0  0  0  0
   58.1140   30.7490   51.5080 S   0  0  0  0  0  0  0  0  0  0  0  0
   56.9750   29.7830   51.6620 O   0  0  0  0  0  0  0  0  0  0  0  0
   57.7210   31.8010   50.5090 O   0  0  0  0  0  0  0  0  0  0  0  0
   58.4470   31.4880   53.0930 C   0  0  0  0  0  0  0  0  0  0  0  0
   58.1362   30.7984   53.8917 H   0  0  0  0  0  0  0  0  0  0  0  0
   59.5241   31.6921   53.1834 H   0  0  0  0  0  0  0  0  0  0  0  0
   57.8864   32.4301   53.1834 H   0  0  0  0  0  0  0  0  0  0  0  0
   61.0860   30.8280   49.2580 C   0  0  0  0  0  0  0  0  0  0  0  0
   61.5253   31.4864   50.0218 H   0  0  0  0  0  0  0  0  0  0  0  0
  1  2  1  0
  2  3  2  0
  3  4  1  0
  3  5  1  0
  5  6  1  0
  6  7  2  0
  7  8  1  0
  8  9  1  0
  9 10  1  0
 10 11  1  0
 10 12  1  0
 10 13  1  0
  9 14  2  0
 14 15  1  0
 15 16  1  0
 16 17  1  0
 17 18  1  0
 18 19  2  0
 19 20  1  0
 19 21  1  0
 21 22  1  0
 21 23  2  0
 23 24  1  0
 23 25  1  0
 25 26  1  0
 25 27  2  0
  5 28  2  0
 28 29  1  0
 28 30  1  0
 30 31  1  0
 31 32  1  0
 31 33  1  0
 33 34  2  0
 33 35  2  0
 33 36  1  0
 36 37  1  0
 36 38  1  0
 36 39  1  0
 30 40  2  0
 40 41  1  0
 40  2  1  0
 27  7  1  0
 16  8  2  0
 27 18  1  0
M  CHG  2  15  -1  17  -1
M  END
>  <UniqueID>  (22) 
19

>  <SMILES>  (22) 
Cc1n[n-]c2[n-]c3ccccc3/c(=N/c3cccc(NS(C)(=O)=O)c3)c12

>  <Energy>  (22) 
107.1000024857821

>  <Genealogy>  (22) 
Cc1n[n-]c2[n-]c3ccccc3c(=Nc3cccc(NS(C)(=O)=O)c3)c12 (protonated)
Cc1n[n-]c2[n-]c3ccccc3/c(=N/c3cccc(NS(C)(=O)=O)c3)c12 (cis-trans isomerization)
Cc1n[n-]c2[n-]c3ccccc3/c(=N/c3cccc(NS(C)(=O)=O)c3)c12 (3D coordinates assigned)
Cc1n[n-]c2[n-]c3ccccc3/c(=N/c3cccc(NS(C)(=O)=O)c3)c12 (optimized conformer: 107.1000024857821 kcal/mol)

>  <smiles>  (22) 
Cc1n[nH]c2[nH]c3ccccc3c(=Nc3cccc(NS(C)(=O)=O)c3)c12

>  <score_type>  (22) 
oracle

>  <origin>  (22) 
adg

>  <m_score__min__energy>  (22) 
-12.960000000000001

>  <m_primary>  (22) 
energy

$$$$
22:0
     RDKit          3D

 29 31  0  0  0  0  0  0  0  0999 V2000
   55.1390   25.3690   46.0230 N   0  0  0  0  0  0  0  0  0  0  0  0
   56.0660   26.2510   46.1300 C   0  0  0  0  0  0  0  0  0  0  0  0
   57.2670   26.1440   46.7240 N   0  0  0  0  0  0  0  0  0  0  0  0
   57.8710   27.3270   46.5740 C   0  0  0  0  0  0  0  0  0  0  0  0
   59.1080   27.6950   47.0130 N   0  0  0  0  0  0  0  0  0  0  0  0
   59.5500   28.9400   46.7650 C   0  0  0  0  0  0  0  0  0  0  0  0
   58.7240   29.8070   46.0690 C   0  0  0  0  0  0  0  0  0  0  0  0
   57.4720   29.4670   45.6120 C   0  0  0  0  0  0  0  0  0  0  0  0
   56.5980   30.2100   44.9360 O   0  0  0  0  0  0  0  0  0  0  0  0
   56.6760   31.3720   44.2270 C   0  0  0  0  0  0  0  0  0  0  0  0
   57.5370   32.4320   44.7840 C   0  0  0  0  0  0  0  0  0  0  0  0
   58.4660   33.1670   44.1230 C   0  0  0  0  0  0  0  0  0  0  0  0
   59.2140   34.1500   44.7350 C   0  0  0  0  0  0  0  0  0  0  0  0
   59.0630   34.4480   46.0710 C   0  0  0  0  0  0  0  0  0  0  0  0
   58.1120   33.7010   46.7690 C   0  0  0  0  0  0  0  0  0  0  0  0
   57.3640   32.7140   46.1430 C   0  0  0  0  0  0  0  0  0  0  0  0
   57.0930   28.1810   45.9040 N   0  0  0  0  0  0  0  0  0  0  0  0
   55.9700   27.4970   45.6330 N   0  0  0  0  0  0  0  0  0  0  0  0
   54.8050   24.9460   45.1440 H   0  0  0  0  0  0  0  0  0  0  0  0
   60.5445   29.2627   47.1068 H   0  0  0  0  0  0  0  0  0  0  0  0
   59.0900   30.8252   45.8705 H   0  0  0  0  0  0  0  0  0  0  0  0
   57.0567   31.1259   43.2248 H   0  0  0  0  0  0  0  0  0  0  0  0
   55.6581   31.7887   44.2427 H   0  0  0  0  0  0  0  0  0  0  0  0
   58.6294   32.9702   43.0531 H   0  0  0  0  0  0  0  0  0  0  0  0
   59.9505   34.7108   44.1409 H   0  0  0  0  0  0  0  0  0  0  0  0
   59.6590   35.2317   46.5615 H   0  0  0  0  0  0  0  0  0  0  0  0
   57.9522   33.8994   47.8391 H   0  0  0  0  0  0  0  0  0  0  0  0
   56.6238   32.1447   46.7244 H   0  0  0  0  0  0  0  0  0  0  0  0
   55.1490   27.8860   45.1110 H   0  0  0  0  0  0  0  0  0  0  0  0
  1  2  2  3
  2  3  1  0
  3  4  2  0
  4  5  1  0
  5  6  2  0
  6  7  1  0
  7  8  2  0
  8  9  1  0
  9 10  1  0
 10 11  1  0
 11 12  2  0
 12 13  1  0
 13 14  2  0
 14 15  1  0
 15 16  2  0
  8 17  1  0
 17 18  1  0
 18  2  1  0
 17  4  1  0
 16 11  1  0
  1 19  1  0
  6 20  1  0
  7 21  1  0
 10 22  1  0
 10 23  1  0
 12 24  1  0
 13 25  1  0
 14 26  1  0
 15 27  1  0
 16 28  1  0
 18 29  1  0
M  END
>  <smiles>  (23) 
N=c1nc2nccc(OCc3ccccc3)n2[nH]1

>  <score_type>  (23) 
oracle

>  <origin>  (23) 
adg

>  <m_score__min__energy>  (23) 
-7.4400000000000004

>  <m_primary>  (23) 
energy

$$$$
23:0
     RDKit          3D

 44 46  0  0  0  0  0  0  0  0999 V2000
   58.1160   33.0380   43.5110 C   0  0  0  0  0  0  0  0  0  0  0  0
   58.1500   33.9920   44.6330 N   0  0  0  0  0  0  0  0  0  0  0  0
   59.4800   34.0330   45.2770 C   0  0  0  0  0  0  0  0  0  0  0  0
   59.7950   32.7270   46.0270 C   0  0  0  0  0  0  0  0  0  0  0  0
   58.5930   32.1960   46.6790 N   0  0  0  0  0  0  0  0  0  0  0  0
   58.3880   30.7760   46.7680 C   0  0  0  0  0  0  0  0  0  0  0  0
   57.5600   29.8610   45.6200 S   0  0  0  0  0  0  0  0  0  0  0  0
   57.8320   28.4210   46.4430 C   0  0  0  0  0  0  0  0  0  0  0  0
   57.2890   26.8510   45.8920 S   0  0  0  0  0  0  0  0  0  0  0  0
   57.7950   26.6040   44.2050 C   0  0  0  0  0  0  0  0  0  0  0  0
   55.7910   26.7740   45.9940 O   0  0  0  0  0  0  0  0  0  0  0  0
   57.8960   25.7810   46.7560 O   0  0  0  0  0  0  0  0  0  0  0  0
   58.5380   28.6100   47.5780 N   0  0  0  0  0  0  0  0  0  0  0  0
   58.8530   29.9180   47.7700 C   0  0  0  0  0  0  0  0  0  0  0  0
   59.7180   30.4300   49.2140 S   0  0  0  0  0  0  0  0  0  0  0  0
   60.3110   29.2240   49.8870 O   0  0  0  0  0  0  0  0  0  0  0  0
   58.7450   31.0780   50.1590 O   0  0  0  0  0  0  0  0  0  0  0  0
   61.0140   31.5470   48.7970 C   0  0  0  0  0  0  0  0  0  0  0  0
   61.0480   32.8310   49.3580 C   0  0  0  0  0  0  0  0  0  0  0  0
   62.0700   33.7220   49.0130 C   0  0  0  0  0  0  0  0  0  0  0  0
   62.0940   34.9650   49.5540 F   0  0  0  0  0  0  0  0  0  0  0  0
   63.0640   33.3320   48.1100 C   0  0  0  0  0  0  0  0  0  0  0  0
   64.0530   34.1970   47.7740 F   0  0  0  0  0  0  0  0  0  0  0  0
   63.0390   32.0480   47.5550 C   0  0  0  0  0  0  0  0  0  0  0  0
   64.0030   31.6660   46.6810 F   0  0  0  0  0  0  0  0  0  0  0  0
   62.0180   31.1560   47.9000 C   0  0  0  0  0  0  0  0  0  0  0  0
   57.4760   33.1100   46.9150 C   0  0  0  0  0  0  0  0  0  0  0  0
   57.0350   33.7620   45.5910 C   0  0  0  0  0  0  0  0  0  0  0  0
   58.0794   32.0112   43.9038 H   0  0  0  0  0  0  0  0  0  0  0  0
   57.2240   33.2272   42.8957 H   0  0  0  0  0  0  0  0  0  0  0  0
   59.0192   33.1632   42.8957 H   0  0  0  0  0  0  0  0  0  0  0  0
   60.2452   34.1919   44.5029 H   0  0  0  0  0  0  0  0  0  0  0  0
   59.4793   34.8545   46.0086 H   0  0  0  0  0  0  0  0  0  0  0  0
   60.1751   31.9832   45.3113 H   0  0  0  0  0  0  0  0  0  0  0  0
   60.5500   32.9377   46.7987 H   0  0  0  0  0  0  0  0  0  0  0  0
   58.7834   26.1215   44.1855 H   0  0  0  0  0  0  0  0  0  0  0  0
   57.0633   25.9617   43.6930 H   0  0  0  0  0  0  0  0  0  0  0  0
   57.8513   27.5760   43.6930 H   0  0  0  0  0  0  0  0  0  0  0  0
   60.2693   33.1389   50.0713 H   0  0  0  0  0  0  0  0  0  0  0  0
   62.0029   30.1452   47.4663 H   0  0  0  0  0  0  0  0  0  0  0  0
   56.6319   32.5496   47.3432 H   0  0  0  0  0  0  0  0  0  0  0  0
   57.7967   33.8967   47.6138 H   0  0  0  0  0  0  0  0  0  0  0  0
   56.2952   33.1048   45.1105 H   0  0  0  0  0  0  0  0  0  0  0  0
   56.6210   34.7495   45.8430 H   0  0  0  0  0  0  0  0  0  0  0  0
  1  2  1  0
  2  3  1  0
  3  4  1  0
  4  5  1  0
  5  6  1  0
  6  7  1  0
  7  8  1  0
  8  9  1  0
  9 10  1  0
  9 11  2  0
  9 12  2  0
  8 13  2  0
 13 14  1  0
 14 15  1  0
 15 16  2  0
 15 17  2  0
 15 18  1  0
 18 19  2  0
 19 20  1  0
 20 21  1  0
 20 22  2  0
 22 23  1  0
 22 24  1  0
 24 25  1  0
 24 26  2  0
  5 27  1  0
 27 28  1  0
 28  2  1  0
 14  6  2  0
 26 18  1  0
  1 29  1  0
  1 30  1  0
  1 31  1  0
  3 32  1  0
  3 33  1  0
  4 34  1  0
  4 35  1  0
 10 36  1  0
 10 37  1  0
 10 38  1  0
 19 39  1  0
 26 40  1  0
 27 41  1  0
 27 42  1  0
 28 43  1  0
 28 44  1  0
M  END
>  <UniqueID>  (24) 
20

>  <SMILES>  (24) 
CN1CCN(c2sc(S(C)(=O)=O)nc2S(=O)(=O)c2cc(F)c(F)c(F)c2)CC1

>  <Energy>  (24) 
85.00121284189349

>  <Genealogy>  (24) 
CN1CCN(c2sc(S(C)(=O)=O)nc2S(=O)(=O)c2cc(F)c(F)c(F)c2)CC1 (3D coordinates assigned)
CN1CCN(c2sc(S(C)(=O)=O)nc2S(=O)(=O)c2cc(F)c(F)c(F)c2)CC1 (nonaromatic ring conformer: 85.00121284189349 kcal/mol)

>  <smiles>  (24) 
CN1CCN(c2sc(S(C)(=O)=O)nc2S(=O)(=O)c2cc(F)c(F)c(F)c2)CC1

>  <score_type>  (24) 
oracle

>  <origin>  (24) 
adg

>  <m_score__min__energy>  (24) 
-7.4800000000000004

>  <m_primary>  (24) 
energy

$$$$
24:0
     RDKit          3D

 52 55  0  0  0  0  0  0  0  0999 V2000
   57.5607   21.1744   42.4316 H   0  0  0  0  0  0  0  0  0  0  0  0
   56.9730   21.8350   43.0860 C   0  0  0  0  0  0  0  0  0  0  0  0
   55.8830   22.4810   42.5960 N   0  0  0  0  0  0  0  0  0  0  0  0
   55.1380   23.3160   43.3700 C   0  0  0  0  0  0  0  0  0  0  0  0
   54.2557   23.8162   42.9441 H   0  0  0  0  0  0  0  0  0  0  0  0
   55.4910   23.5420   44.7110 C   0  0  0  0  0  0  0  0  0  0  0  0
   54.6860   24.4900   45.5660 C   0  0  0  0  0  0  0  0  0  0  0  0
   53.8995   23.9220   46.0844 H   0  0  0  0  0  0  0  0  0  0  0  0
   54.2504   25.2578   44.9097 H   0  0  0  0  0  0  0  0  0  0  0  0
   59.4820   27.4720   47.1540 N   0  0  0  0  0  0  0  0  0  0  0  0
   58.3000   27.3710   46.6220 C   0  0  0  0  0  0  0  0  0  0  0  0
   57.7930   28.4100   45.9150 N   0  0  0  0  0  0  0  0  0  0  0  0
   56.5380   28.3440   45.3960 C   0  0  0  0  0  0  0  0  0  0  0  0
   56.0290   29.3380   44.7260 N   0  0  0  0  0  0  0  0  0  0  0  0
   56.7410   30.4470   44.1530 C   0  0  0  0  0  0  0  0  0  0  0  0
   57.4090   31.3330   45.0100 C   0  0  0  0  0  0  0  0  0  0  0  0
   57.4013   31.1538   46.0953 H   0  0  0  0  0  0  0  0  0  0  0  0
   58.0850   32.4430   44.4940 C   0  0  0  0  0  0  0  0  0  0  0  0
   58.6226   33.1223   45.1719 H   0  0  0  0  0  0  0  0  0  0  0  0
   58.0790   32.6910   43.1190 C   0  0  0  0  0  0  0  0  0  0  0  0
   58.6165   33.5610   42.7139 H   0  0  0  0  0  0  0  0  0  0  0  0
   57.3890   31.8320   42.2590 C   0  0  0  0  0  0  0  0  0  0  0  0
   57.3640   32.0870   40.9270 F   0  0  0  0  0  0  0  0  0  0  0  0
   56.7140   30.7200   42.7710 C   0  0  0  0  0  0  0  0  0  0  0  0
   56.1595   30.0554   42.0921 H   0  0  0  0  0  0  0  0  0  0  0  0
   55.7780   27.2420   45.6220 N   0  0  0  0  0  0  0  0  0  0  0  0
   56.2750   26.1980   46.3320 C   0  0  0  0  0  0  0  0  0  0  0  0
   55.5220   25.1630   46.5640 N   0  0  0  0  0  0  0  0  0  0  0  0
   59.7430   28.0770   48.4280 C   0  0  0  0  0  0  0  0  0  0  0  0
   60.6260   27.4830   49.3370 C   0  0  0  0  0  0  0  0  0  0  0  0
   61.1304   26.5409   49.0763 H   0  0  0  0  0  0  0  0  0  0  0  0
   60.8680   28.0830   50.5730 C   0  0  0  0  0  0  0  0  0  0  0  0
   61.5687   27.6126   51.2785 H   0  0  0  0  0  0  0  0  0  0  0  0
   60.2260   29.2820   50.9260 C   0  0  0  0  0  0  0  0  0  0  0  0
   60.4930   29.8690   52.2870 C   0  0  0  0  0  0  0  0  0  0  0  0
   60.1700   29.1588   53.0624 H   0  0  0  0  0  0  0  0  0  0  0  0
   61.5696   30.0666   52.3963 H   0  0  0  0  0  0  0  0  0  0  0  0
   59.9345   30.8103   52.3963 H   0  0  0  0  0  0  0  0  0  0  0  0
   59.3160   29.8770   50.0160 C   0  0  0  0  0  0  0  0  0  0  0  0
   58.4270   31.3580   50.4270 S   0  0  0  0  0  0  0  0  0  0  0  0
   58.1420   32.1290   49.1680 O   0  0  0  0  0  0  0  0  0  0  0  0
   59.2540   32.2010   51.3540 O   0  0  0  0  0  0  0  0  0  0  0  0
   56.9280   31.0090   51.2180 N   0  0  0  0  0  0  0  0  0  0  0  0
   56.2320   31.7260   50.9100 H   0  0  0  0  0  0  0  0  0  0  0  0
   56.6000   30.0780   50.8780 H   0  0  0  0  0  0  0  0  0  0  0  0
   59.1130   29.2800   48.7610 C   0  0  0  0  0  0  0  0  0  0  0  0
   58.4494   29.7654   48.0302 H   0  0  0  0  0  0  0  0  0  0  0  0
   57.5390   26.2630   46.8210 N   0  0  0  0  0  0  0  0  0  0  0  0
   56.6000   22.8600   45.2360 C   0  0  0  0  0  0  0  0  0  0  0  0
   56.8799   22.9961   46.2910 H   0  0  0  0  0  0  0  0  0  0  0  0
   57.3480   22.0090   44.4200 C   0  0  0  0  0  0  0  0  0  0  0  0
   58.2242   21.4807   44.8240 H   0  0  0  0  0  0  0  0  0  0  0  0
  1  2  1  0
  2  3  2  0
  3  4  1  0
  4  5  1  0
  4  6  2  0
  6  7  1  0
  7  8  1  0
  7  9  1  0
  7 10  1  0
 10 11  2  0
 11 12  1  0
 12 13  1  0
 13 14  2  3
 14 15  1  0
 15 16  2  0
 16 17  1  0
 16 18  1  0
 18 19  1  0
 18 20  2  0
 20 21  1  0
 20 22  1  0
 22 23  1  0
 22 24  2  0
 24 25  1  0
 13 26  1  0
 26 27  1  0
 27 28  2  0
 28 29  1  0
 29 30  2  0
 30 31  1  0
 30 32  1  0
 32 33  1  0
 32 34  2  0
 34 35  1  0
 35 36  1  0
 35 37  1  0
 35 38  1  0
 34 39  1  0
 39 40  1  0
 40 41  2  0
 40 42  2  0
 40 43  1  0
 43 44  1  0
 43 45  1  0
 39 46  2  0
 46 47  1  0
 27 48  1  0
  6 49  1  0
 49 50  1  0
 49 51  2  0
 51 52  1  0
 51  2  1  0
 48 11  1  0
 24 15  1  0
 46 29  1  0
M  CHG  3  12  -1  26  -1  48  -1
M  END
>  <UniqueID>  (25) 
21

>  <SMILES>  (25) 
Cc1ccc(/N=c2/[n-]c(=Nc3cccc(F)c3)[n-]/c(=N/Cc3cccnc3)[n-]2)cc1S(N)(=O)=O

>  <Energy>  (25) 
68.42753783298396

>  <Genealogy>  (25) 
Cc1ccc(N=c2[n-]c(=NCc3cccnc3)[n-]c(=Nc3cccc(F)c3)[n-]2)cc1S(N)(=O)=O (protonated)
Cc1ccc(/N=c2/[n-]c(=Nc3cccc(F)c3)[n-]/c(=N/Cc3cccnc3)[n-]2)cc1S(N)(=O)=O (cis-trans isomerization)
Cc1ccc(/N=c2/[n-]c(=Nc3cccc(F)c3)[n-]/c(=N/Cc3cccnc3)[n-]2)cc1S(N)(=O)=O (3D coordinates assigned)
Cc1ccc(/N=c2/[n-]c(=Nc3cccc(F)c3)[n-]/c(=N/Cc3cccnc3)[n-]2)cc1S(N)(=O)=O (optimized conformer: 68.42753783298396 kcal/mol)

>  <smiles>  (25) 
Cc1ccc(N=c2[nH]c(=NCc3cccnc3)[nH]c(=Nc3cccc(F)c3)[nH]2)cc1S(N)(=O)=O

>  <score_type>  (25) 
oracle

>  <origin>  (25) 
adg

>  <m_score__min__energy>  (25) 
-14.77

>  <m_primary>  (25) 
energy

$$$$
25:0
     RDKit          3D

 38 39  0  0  0  0  0  0  0  0999 V2000
   58.1340   27.0960   42.6700 C   0  0  0  0  0  0  0  0  0  0  0  0
   58.7010   26.9010   43.9620 O   0  0  0  0  0  0  0  0  0  0  0  0
   59.0800   27.9380   44.8320 C   0  0  0  0  0  0  0  0  0  0  0  0
   60.4220   28.3510   44.9490 C   0  0  0  0  0  0  0  0  0  0  0  0
   60.7710   29.3900   45.8150 C   0  0  0  0  0  0  0  0  0  0  0  0
   59.7910   30.0270   46.5740 C   0  0  0  0  0  0  0  0  0  0  0  0
   58.4580   29.6270   46.4730 C   0  0  0  0  0  0  0  0  0  0  0  0
   58.0900   28.5810   45.6090 C   0  0  0  0  0  0  0  0  0  0  0  0
   56.6330   28.2080   45.4990 C   0  0  0  0  0  0  0  0  0  0  0  0
   55.8680   29.3340   44.9790 N   0  0  0  0  0  0  0  0  0  0  0  0
   56.2530   30.0850   43.8230 C   0  0  0  0  0  0  0  0  0  0  0  0
   55.8780   29.7280   42.6730 O   0  0  0  0  0  0  0  0  0  0  0  0
   57.1610   31.2560   43.9800 C   0  0  0  0  0  0  0  0  0  0  0  0
   56.8490   31.9150   45.2020 O   0  0  0  0  0  0  0  0  0  0  0  0
   57.2420   33.2270   45.4850 C   0  0  0  0  0  0  0  0  0  0  0  0
   56.6920   34.1900   44.8830 O   0  0  0  0  0  0  0  0  0  0  0  0
   58.3040   33.4700   46.4950 C   0  0  0  0  0  0  0  0  0  0  0  0
   58.2630   32.7810   47.7190 C   0  0  0  0  0  0  0  0  0  0  0  0
   59.2480   32.9930   48.6810 C   0  0  0  0  0  0  0  0  0  0  0  0
   60.2780   33.8950   48.4200 C   0  0  0  0  0  0  0  0  0  0  0  0
   60.3180   34.5610   47.2360 N   0  0  0  0  0  0  0  0  0  0  0  0
   59.3690   34.3750   46.2740 C   0  0  0  0  0  0  0  0  0  0  0  0
   59.4560   35.0190   45.1950 O   0  0  0  0  0  0  0  0  0  0  0  0
   57.0985   27.4521   42.7740 H   0  0  0  0  0  0  0  0  0  0  0  0
   58.7249   27.8425   42.1191 H   0  0  0  0  0  0  0  0  0  0  0  0
   58.1407   26.1439   42.1191 H   0  0  0  0  0  0  0  0  0  0  0  0
   61.2007   27.8515   44.3539 H   0  0  0  0  0  0  0  0  0  0  0  0
   61.8214   29.7060   45.8980 H   0  0  0  0  0  0  0  0  0  0  0  0
   60.0687   30.8462   47.2536 H   0  0  0  0  0  0  0  0  0  0  0  0
   57.6891   30.1342   47.0742 H   0  0  0  0  0  0  0  0  0  0  0  0
   56.5270   27.3503   44.8185 H   0  0  0  0  0  0  0  0  0  0  0  0
   56.2520   27.9425   46.4962 H   0  0  0  0  0  0  0  0  0  0  0  0
   58.2062   30.9137   44.0005 H   0  0  0  0  0  0  0  0  0  0  0  0
   57.0281   31.9489   43.1361 H   0  0  0  0  0  0  0  0  0  0  0  0
   57.4480   32.0698   47.9188 H   0  0  0  0  0  0  0  0  0  0  0  0
   59.2132   32.4530   49.6387 H   0  0  0  0  0  0  0  0  0  0  0  0
   61.0601   34.0682   49.1739 H   0  0  0  0  0  0  0  0  0  0  0  0
   61.1010   35.2310   47.0640 H   0  0  0  0  0  0  0  0  0  0  0  0
  1  2  1  0
  2  3  1  0
  3  4  2  0
  4  5  1  0
  5  6  2  0
  6  7  1  0
  7  8  2  0
  8  9  1  0
  9 10  1  0
 10 11  1  0
 11 12  2  0
 11 13  1  0
 13 14  1  0
 14 15  1  0
 15 16  2  0
 15 17  1  0
 17 18  2  0
 18 19  1  0
 19 20  2  0
 20 21  1  0
 21 22  1  0
 22 23  2  0
  8  3  1  0
 22 17  1  0
  1 24  1  0
  1 25  1  0
  1 26  1  0
  4 27  1  0
  5 28  1  0
  6 29  1  0
  7 30  1  0
  9 31  1  0
  9 32  1  0
 13 33  1  0
 13 34  1  0
 18 35  1  0
 19 36  1  0
 20 37  1  0
 21 38  1  0
M  CHG  1  10  -1
M  END
>  <UniqueID>  (26) 
22

>  <SMILES>  (26) 
COc1ccccc1C[N-]C(=O)COC(=O)c1ccc[nH]c1=O

>  <Energy>  (26) 
35.140024487655865

>  <Genealogy>  (26) 
COc1ccccc1C[N-]C(=O)COC(=O)c1ccc[nH]c1=O (protonated)
COc1ccccc1C[N-]C(=O)COC(=O)c1ccc[nH]c1=O (3D coordinates assigned)
COc1ccccc1C[N-]C(=O)COC(=O)c1ccc[nH]c1=O (optimized conformer: 35.140024487655865 kcal/mol)

>  <smiles>  (26) 
COc1ccccc1CNC(=O)COC(=O)c1ccc[nH]c1=O

>  <score_type>  (26) 
oracle

>  <origin>  (26) 
adg

>  <m_score__min__energy>  (26) 
-9.1300000000000008

>  <m_primary>  (26) 
energy

$$$$
26:0
     RDKit          3D

 56 59  0  0  0  0  0  0  0  0999 V2000
   56.2750   29.3680   42.3410 C   0  0  0  0  0  0  0  0  0  0  0  0
   56.4960   30.4500   43.1020 C   0  0  0  0  0  0  0  0  0  0  0  0
   57.3800   31.5510   42.5830 C   0  0  0  0  0  0  0  0  0  0  0  0
   55.9090   30.5470   44.4900 C   0  0  0  0  0  0  0  0  0  0  0  0
   55.4460   29.2410   44.9500 N   0  0  0  0  0  0  0  0  0  0  0  0
   56.2710   28.1030   45.2420 C   0  0  0  0  0  0  0  0  0  0  0  0
   55.7540   27.1250   45.8410 O   0  0  0  0  0  0  0  0  0  0  0  0
   57.7140   28.0200   44.8160 C   0  0  0  0  0  0  0  0  0  0  0  0
   58.6070   28.3720   45.9410 N   0  0  0  0  0  0  0  0  0  0  0  0
   59.0000   27.4040   46.8530 C   0  0  0  0  0  0  0  0  0  0  0  0
   58.5410   26.0050   46.7550 C   0  0  0  0  0  0  0  0  0  0  0  0
   57.4580   25.5640   47.5290 C   0  0  0  0  0  0  0  0  0  0  0  0
   57.0270   24.2370   47.4390 C   0  0  0  0  0  0  0  0  0  0  0  0
   57.6710   23.3480   46.5730 C   0  0  0  0  0  0  0  0  0  0  0  0
   58.7460   23.7860   45.7940 C   0  0  0  0  0  0  0  0  0  0  0  0
   59.1800   25.1120   45.8810 C   0  0  0  0  0  0  0  0  0  0  0  0
   59.8730   27.7410   47.9020 C   0  0  0  0  0  0  0  0  0  0  0  0
   60.3100   29.0180   47.9840 N   0  0  0  0  0  0  0  0  0  0  0  0
   61.1400   29.5720   48.8830 C   0  0  0  0  0  0  0  0  0  0  0  0
   61.3150   30.9180   48.5650 C   0  0  0  0  0  0  0  0  0  0  0  0
   62.1560   31.8990   49.3000 C   0  0  0  0  0  0  0  0  0  0  0  0
   61.6500   33.1700   49.6290 C   0  0  0  0  0  0  0  0  0  0  0  0
   62.4400   34.0910   50.3190 C   0  0  0  0  0  0  0  0  0  0  0  0
   63.7430   33.7600   50.6920 C   0  0  0  0  0  0  0  0  0  0  0  0
   64.2700   32.5020   50.3810 C   0  0  0  0  0  0  0  0  0  0  0  0
   65.5840   32.2180   50.7800 O   0  0  0  0  0  0  0  0  0  0  0  0
   66.7080   33.0460   50.5020 C   0  0  0  0  0  0  0  0  0  0  0  0
   63.4730   31.5740   49.6820 C   0  0  0  0  0  0  0  0  0  0  0  0
   60.5520   31.1660   47.4230 C   0  0  0  0  0  0  0  0  0  0  0  0
   59.9520   29.9620   47.1070 C   0  0  0  0  0  0  0  0  0  0  0  0
   59.0930   29.6580   46.0530 C   0  0  0  0  0  0  0  0  0  0  0  0
   58.7770   30.5540   45.2200 O   0  0  0  0  0  0  0  0  0  0  0  0
   55.6302   28.5575   42.7114 H   0  0  0  0  0  0  0  0  0  0  0  0
   56.7386   29.2911   41.3464 H   0  0  0  0  0  0  0  0  0  0  0  0
   57.8195   32.0984   43.4299 H   0  0  0  0  0  0  0  0  0  0  0  0
   58.1838   31.1176   41.9698 H   0  0  0  0  0  0  0  0  0  0  0  0
   56.7831   32.2422   41.9698 H   0  0  0  0  0  0  0  0  0  0  0  0
   56.6784   30.9209   45.1815 H   0  0  0  0  0  0  0  0  0  0  0  0
   55.0514   31.2353   44.4626 H   0  0  0  0  0  0  0  0  0  0  0  0
   57.9354   26.9945   44.4852 H   0  0  0  0  0  0  0  0  0  0  0  0
   57.8832   28.7290   43.9921 H   0  0  0  0  0  0  0  0  0  0  0  0
   56.9470   26.2628   48.2077 H   0  0  0  0  0  0  0  0  0  0  0  0
   56.1801   23.8919   48.0503 H   0  0  0  0  0  0  0  0  0  0  0  0
   57.3317   22.3039   46.5047 H   0  0  0  0  0  0  0  0  0  0  0  0
   59.2510   23.0864   45.1117 H   0  0  0  0  0  0  0  0  0  0  0  0
   60.0232   25.4558   45.2638 H   0  0  0  0  0  0  0  0  0  0  0  0
   60.1919   26.9864   48.6361 H   0  0  0  0  0  0  0  0  0  0  0  0
   61.6056   29.0491   49.7315 H   0  0  0  0  0  0  0  0  0  0  0  0
   60.6235   33.4401   49.3401 H   0  0  0  0  0  0  0  0  0  0  0  0
   62.0335   35.0819   50.5697 H   0  0  0  0  0  0  0  0  0  0  0  0
   64.3595   34.4924   51.2337 H   0  0  0  0  0  0  0  0  0  0  0  0
   67.1606   33.3794   51.4475 H   0  0  0  0  0  0  0  0  0  0  0  0
   67.4487   32.4761   49.9218 H   0  0  0  0  0  0  0  0  0  0  0  0
   66.3833   33.9223   49.9218 H   0  0  0  0  0  0  0  0  0  0  0  0
   63.8834   30.5846   49.4316 H   0  0  0  0  0  0  0  0  0  0  0  0
   60.4496   32.1208   46.8864 H   0  0  0  0  0  0  0  0  0  0  0  0
  1  2  2  0
  2  3  1  0
  2  4  1  0
  4  5  1  0
  5  6  1  0
  6  7  2  0
  6  8  1  0
  8  9  1  0
  9 10  1  0
 10 11  1  0
 11 12  2  0
 12 13  1  0
 13 14  2  0
 14 15  1  0
 15 16  2  0
 10 17  2  0
 17 18  1  0
 18 19  1  0
 19 20  2  0
 20 21  1  0
 21 22  2  0
 22 23  1  0
 23 24  2  0
 24 25  1  0
 25 26  1  0
 26 27  1  0
 25 28  2  0
 20 29  1  0
 29 30  2  0
 30 31  1  0
 31 32  2  0
 31  9  1  0
 16 11  1  0
 30 18  1  0
 28 21  1  0
  1 33  1  0
  1 34  1  0
  3 35  1  0
  3 36  1  0
  3 37  1  0
  4 38  1  0
  4 39  1  0
  8 40  1  0
  8 41  1  0
 12 42  1  0
 13 43  1  0
 14 44  1  0
 15 45  1  0
 16 46  1  0
 17 47  1  0
 19 48  1  0
 22 49  1  0
 23 50  1  0
 24 51  1  0
 27 52  1  0
 27 53  1  0
 27 54  1  0
 28 55  1  0
 29 56  1  0
M  CHG  1   5  -1
M  END
>  <UniqueID>  (27) 
23

>  <SMILES>  (27) 
C=C(C)C[N-]C(=O)Cn1c(-c2ccccc2)cn2cc(-c3cccc(OC)c3)cc2c1=O

>  <Energy>  (27) 
98.4281776137121

>  <Genealogy>  (27) 
C=C(C)C[N-]C(=O)Cn1c(-c2ccccc2)cn2cc(-c3cccc(OC)c3)cc2c1=O (protonated)
C=C(C)C[N-]C(=O)Cn1c(-c2ccccc2)cn2cc(-c3cccc(OC)c3)cc2c1=O (3D coordinates assigned)
C=C(C)C[N-]C(=O)Cn1c(-c2ccccc2)cn2cc(-c3cccc(OC)c3)cc2c1=O (optimized conformer: 98.4281776137121 kcal/mol)

>  <smiles>  (27) 
C=C(C)CNC(=O)Cn1c(-c2ccccc2)cn2cc(-c3cccc(OC)c3)cc2c1=O

>  <score_type>  (27) 
oracle

>  <origin>  (27) 
adg

>  <m_score__min__energy>  (27) 
-9.3599999999999994

>  <m_primary>  (27) 
energy

$$$$
27:0
     RDKit          3D

 49 51  0  0  0  0  0  0  0  0999 V2000
   58.1070   26.8360   42.5560 C   0  0  0  0  0  0  0  0  0  0  0  0
   57.7390   27.9770   43.3240 O   0  0  0  0  0  0  0  0  0  0  0  0
   58.4040   28.4000   44.4860 C   0  0  0  0  0  0  0  0  0  0  0  0
   59.6610   27.8880   44.8570 C   0  0  0  0  0  0  0  0  0  0  0  0
   60.2880   28.3300   46.0230 C   0  0  0  0  0  0  0  0  0  0  0  0
   59.6660   29.2680   46.8510 C   0  0  0  0  0  0  0  0  0  0  0  0
   60.3600   29.7170   48.0290 N   0  0  0  0  0  0  0  0  0  0  0  0
   59.8390   29.9470   49.2000 C   0  0  0  0  0  0  0  0  0  0  0  0
   60.0880   29.1220   50.2550 N   0  0  0  0  0  0  0  0  0  0  0  0
   59.5650   29.3680   51.4830 C   0  0  0  0  0  0  0  0  0  0  0  0
   58.7620   30.4910   51.6840 C   0  0  0  0  0  0  0  0  0  0  0  0
   58.0530   30.8070   53.2630 S   0  0  0  0  0  0  0  0  0  0  0  0
   58.4710   32.1610   53.7650 O   0  0  0  0  0  0  0  0  0  0  0  0
   58.5330   29.7710   54.2410 O   0  0  0  0  0  0  0  0  0  0  0  0
   56.2990   30.7530   53.1200 C   0  0  0  0  0  0  0  0  0  0  0  0
   55.6800   31.2440   51.9640 C   0  0  0  0  0  0  0  0  0  0  0  0
   54.2890   31.1860   51.8310 C   0  0  0  0  0  0  0  0  0  0  0  0
   53.5010   30.6300   52.8570 C   0  0  0  0  0  0  0  0  0  0  0  0
   52.1030   30.5470   52.7730 O   0  0  0  0  0  0  0  0  0  0  0  0
   51.3620   30.6490   51.5610 C   0  0  0  0  0  0  0  0  0  0  0  0
   51.0240   32.0800   51.3120 C   0  0  0  0  0  0  0  0  0  0  0  0
   50.3540   32.7290   52.1600 O   0  0  0  0  0  0  0  0  0  0  0  0
   51.3950   32.6860   50.1190 O   0  0  0  0  0  0  0  0  0  0  0  0
   54.1280   30.1360   54.0080 C   0  0  0  0  0  0  0  0  0  0  0  0
   55.5180   30.1930   54.1390 C   0  0  0  0  0  0  0  0  0  0  0  0
   58.5180   31.3330   50.5960 C   0  0  0  0  0  0  0  0  0  0  0  0
   59.0640   31.0530   49.3820 N   0  0  0  0  0  0  0  0  0  0  0  0
   58.4270   29.8090   46.4690 C   0  0  0  0  0  0  0  0  0  0  0  0
   57.7860   29.3690   45.2930 C   0  0  0  0  0  0  0  0  0  0  0  0
   56.5400   29.8750   44.8890 O   0  0  0  0  0  0  0  0  0  0  0  0
   56.2820   30.4680   43.6200 C   0  0  0  0  0  0  0  0  0  0  0  0
   58.3735   26.0097   43.2315 H   0  0  0  0  0  0  0  0  0  0  0  0
   57.2611   26.5327   41.9216 H   0  0  0  0  0  0  0  0  0  0  0  0
   58.9707   27.0841   41.9216 H   0  0  0  0  0  0  0  0  0  0  0  0
   60.1527   27.1346   44.2240 H   0  0  0  0  0  0  0  0  0  0  0  0
   61.2795   27.9369   46.2922 H   0  0  0  0  0  0  0  0  0  0  0  0
   59.7738   28.6833   52.3182 H   0  0  0  0  0  0  0  0  0  0  0  0
   56.2900   31.6769   51.1575 H   0  0  0  0  0  0  0  0  0  0  0  0
   53.8087   31.5762   50.9215 H   0  0  0  0  0  0  0  0  0  0  0  0
   51.9662   30.2631   50.7267 H   0  0  0  0  0  0  0  0  0  0  0  0
   50.4369   30.0595   51.6427 H   0  0  0  0  0  0  0  0  0  0  0  0
   53.5213   29.6997   54.8152 H   0  0  0  0  0  0  0  0  0  0  0  0
   56.0002   29.7970   55.0449 H   0  0  0  0  0  0  0  0  0  0  0  0
   57.8839   32.2230   50.7213 H   0  0  0  0  0  0  0  0  0  0  0  0
   58.8740   31.6970   48.5810 H   0  0  0  0  0  0  0  0  0  0  0  0
   57.9534   30.5818   47.0923 H   0  0  0  0  0  0  0  0  0  0  0  0
   55.8469   31.4680   43.7642 H   0  0  0  0  0  0  0  0  0  0  0  0
   57.2235   30.5553   43.0579 H   0  0  0  0  0  0  0  0  0  0  0  0
   55.5763   29.8387   43.0579 H   0  0  0  0  0  0  0  0  0  0  0  0
  1  2  1  0
  2  3  1  0
  3  4  2  0
  4  5  1  0
  5  6  2  0
  6  7  1  0
  7  8  2  3
  8  9  1  0
  9 10  2  0
 10 11  1  0
 11 12  1  0
 12 13  2  0
 12 14  2  0
 12 15  1  0
 15 16  2  0
 16 17  1  0
 17 18  2  0
 18 19  1  0
 19 20  1  0
 20 21  1  0
 21 22  2  0
 21 23  1  0
 18 24  1  0
 24 25  2  0
 11 26  2  0
 26 27  1  0
  6 28  1  0
 28 29  2  0
 29 30  1  0
 30 31  1  0
 29  3  1  0
 27  8  1  0
 25 15  1  0
  1 32  1  0
  1 33  1  0
  1 34  1  0
  4 35  1  0
  5 36  1  0
 10 37  1  0
 16 38  1  0
 17 39  1  0
 20 40  1  0
 20 41  1  0
 24 42  1  0
 25 43  1  0
 26 44  1  0
 27 45  1  0
 28 46  1  0
 31 47  1  0
 31 48  1  0
 31 49  1  0
M  CHG  1  23  -1
M  END
>  <UniqueID>  (28) 
24

>  <SMILES>  (28) 
COc1ccc(N=c2ncc(S(=O)(=O)c3ccc(OCC(=O)[O-])cc3)c[nH]2)cc1OC

>  <Energy>  (28) 
57.66850156322272

>  <Genealogy>  (28) 
COc1ccc(N=c2ncc(S(=O)(=O)c3ccc(OCC(=O)[O-])cc3)c[nH]2)cc1OC (protonated)
COc1ccc(N=c2ncc(S(=O)(=O)c3ccc(OCC(=O)[O-])cc3)c[nH]2)cc1OC (3D coordinates assigned)
COc1ccc(N=c2ncc(S(=O)(=O)c3ccc(OCC(=O)[O-])cc3)c[nH]2)cc1OC (optimized conformer: 57.66850156322272 kcal/mol)

>  <smiles>  (28) 
COc1ccc(N=c2ncc(S(=O)(=O)c3ccc(OCC(=O)O)cc3)c[nH]2)cc1OC

>  <score_type>  (28) 
oracle

>  <origin>  (28) 
adg

>  <m_score__min__energy>  (28) 
-10.65

>  <m_primary>  (28) 
energy

$$$$
28:0
     RDKit          3D

 38 39  0  0  0  0  0  0  0  0999 V2000
   59.9890   33.8950   49.8560 C   0  0  0  0  0  0  0  0  0  0  0  0
   59.6110   32.5220   49.8850 O   0  0  0  0  0  0  0  0  0  0  0  0
   59.7360   31.6420   48.8010 C   0  0  0  0  0  0  0  0  0  0  0  0
   60.7120   31.9100   47.8360 C   0  0  0  0  0  0  0  0  0  0  0  0
   60.8750   31.0630   46.7360 C   0  0  0  0  0  0  0  0  0  0  0  0
   60.0620   29.9340   46.5800 C   0  0  0  0  0  0  0  0  0  0  0  0
   60.2730   29.1180   45.4560 O   0  0  0  0  0  0  0  0  0  0  0  0
   59.6860   27.8340   45.2400 C   0  0  0  0  0  0  0  0  0  0  0  0
   58.2290   27.9730   44.7950 C   0  0  0  0  0  0  0  0  0  0  0  0
   57.8770   29.3820   44.6340 N   0  0  0  0  0  0  0  0  0  0  0  0
   56.5370   29.8680   44.8060 C   0  0  0  0  0  0  0  0  0  0  0  0
   55.5760   29.0560   44.8740 O   0  0  0  0  0  0  0  0  0  0  0  0
   56.2630   31.2720   44.8360 N   0  0  0  0  0  0  0  0  0  0  0  0
   57.2260   32.3120   45.0610 C   0  0  0  0  0  0  0  0  0  0  0  0
   57.3760   32.9050   46.3300 C   0  0  0  0  0  0  0  0  0  0  0  0
   58.2990   33.9360   46.5210 C   0  0  0  0  0  0  0  0  0  0  0  0
   59.0680   34.3970   45.4500 C   0  0  0  0  0  0  0  0  0  0  0  0
   58.9080   33.8330   44.1820 C   0  0  0  0  0  0  0  0  0  0  0  0
   57.9840   32.8000   43.9820 C   0  0  0  0  0  0  0  0  0  0  0  0
   57.8020   32.1150   42.3730 Cl  0  0  0  0  0  0  0  0  0  0  0  0
   59.0800   29.6590   47.5510 C   0  0  0  0  0  0  0  0  0  0  0  0
   58.9180   30.5060   48.6520 C   0  0  0  0  0  0  0  0  0  0  0  0
   60.0919   34.2688   50.8854 H   0  0  0  0  0  0  0  0  0  0  0  0
   60.9494   33.9999   49.3301 H   0  0  0  0  0  0  0  0  0  0  0  0
   59.2176   34.4767   49.3301 H   0  0  0  0  0  0  0  0  0  0  0  0
   61.3568   32.7947   47.9434 H   0  0  0  0  0  0  0  0  0  0  0  0
   61.6488   31.2855   45.9865 H   0  0  0  0  0  0  0  0  0  0  0  0
   60.2528   27.3045   44.4600 H   0  0  0  0  0  0  0  0  0  0  0  0
   59.7151   27.2688   46.1833 H   0  0  0  0  0  0  0  0  0  0  0  0
   58.0922   27.4534   43.8351 H   0  0  0  0  0  0  0  0  0  0  0  0
   57.5780   27.5283   45.5621 H   0  0  0  0  0  0  0  0  0  0  0  0
   58.6220   30.0450   44.3210 H   0  0  0  0  0  0  0  0  0  0  0  0
   56.7637   32.5547   47.1741 H   0  0  0  0  0  0  0  0  0  0  0  0
   58.4205   34.3859   47.5174 H   0  0  0  0  0  0  0  0  0  0  0  0
   59.7994   35.2039   45.6049 H   0  0  0  0  0  0  0  0  0  0  0  0
   59.5097   34.2015   43.3381 H   0  0  0  0  0  0  0  0  0  0  0  0
   58.4368   28.7732   47.4430 H   0  0  0  0  0  0  0  0  0  0  0  0
   58.1478   30.2835   49.4051 H   0  0  0  0  0  0  0  0  0  0  0  0
  1  2  1  0
  2  3  1  0
  3  4  2  0
  4  5  1  0
  5  6  2  0
  6  7  1  0
  7  8  1  0
  8  9  1  0
  9 10  1  0
 10 11  1  0
 11 12  2  0
 11 13  1  0
 13 14  1  0
 14 15  2  0
 15 16  1  0
 16 17  2  0
 17 18  1  0
 18 19  2  0
 19 20  1  0
  6 21  1  0
 21 22  2  0
 22  3  1  0
 19 14  1  0
  1 23  1  0
  1 24  1  0
  1 25  1  0
  4 26  1  0
  5 27  1  0
  8 28  1  0
  8 29  1  0
  9 30  1  0
  9 31  1  0
 10 32  1  0
 15 33  1  0
 16 34  1  0
 17 35  1  0
 18 36  1  0
 21 37  1  0
 22 38  1  0
M  CHG  1  13  -1
M  END
>  <UniqueID>  (29) 
25

>  <SMILES>  (29) 
COc1ccc(OCCNC(=O)[N-]c2ccccc2Cl)cc1

>  <Energy>  (29) 
38.382521638084995

>  <Genealogy>  (29) 
COc1ccc(OCCNC(=O)[N-]c2ccccc2Cl)cc1 (protonated)
COc1ccc(OCCNC(=O)[N-]c2ccccc2Cl)cc1 (3D coordinates assigned)
COc1ccc(OCCNC(=O)[N-]c2ccccc2Cl)cc1 (optimized conformer: 38.382521638084995 kcal/mol)

>  <smiles>  (29) 
COc1ccc(OCCNC(=O)Nc2ccccc2Cl)cc1

>  <score_type>  (29) 
oracle

>  <origin>  (29) 
adg

>  <m_score__min__energy>  (29) 
-9.6400000000000006

>  <m_primary>  (29) 
energy

$$$$
29:0
     RDKit          3D

 44 46  0  0  0  0  0  0  0  0999 V2000
   63.5930   33.7580   48.6520 C   0  0  0  0  0  0  0  0  0  0  0  0
   62.4730   34.1610   49.3840 C   0  0  0  0  0  0  0  0  0  0  0  0
   61.2150   34.2050   48.7740 C   0  0  0  0  0  0  0  0  0  0  0  0
   61.0690   33.8320   47.4290 C   0  0  0  0  0  0  0  0  0  0  0  0
   59.7440   33.8810   46.7740 C   0  0  0  0  0  0  0  0  0  0  0  0
   59.6120   34.6140   45.5830 C   0  0  0  0  0  0  0  0  0  0  0  0
   58.3850   34.6810   44.9220 C   0  0  0  0  0  0  0  0  0  0  0  0
   57.2770   34.0110   45.4370 C   0  0  0  0  0  0  0  0  0  0  0  0
   57.3910   33.2670   46.6120 C   0  0  0  0  0  0  0  0  0  0  0  0
   58.6190   33.1890   47.2940 C   0  0  0  0  0  0  0  0  0  0  0  0
   58.7150   32.3130   48.5240 C   0  0  0  0  0  0  0  0  0  0  0  0
   59.0280   30.9240   48.1610 N   0  0  0  0  0  0  0  0  0  0  0  0
   60.4120   30.7600   47.6770 C   0  0  0  0  0  0  0  0  0  0  0  0
   60.4260   30.0580   46.3160 C   0  0  0  0  0  0  0  0  0  0  0  0
   59.3630   30.5640   45.4470 N   0  0  0  0  0  0  0  0  0  0  0  0
   58.1960   30.0280   45.2180 C   0  0  0  0  0  0  0  0  0  0  0  0
   57.8530   28.7320   45.6530 C   0  0  0  0  0  0  0  0  0  0  0  0
   56.5830   28.2240   45.3670 C   0  0  0  0  0  0  0  0  0  0  0  0
   55.6830   28.9740   44.6770 N   0  0  0  0  0  0  0  0  0  0  0  0
   55.9870   30.2300   44.2510 C   0  0  0  0  0  0  0  0  0  0  0  0
   57.2440   30.7760   44.5150 C   0  0  0  0  0  0  0  0  0  0  0  0
   62.2030   33.4500   46.6930 C   0  0  0  0  0  0  0  0  0  0  0  0
   63.4590   33.4080   47.3050 C   0  0  0  0  0  0  0  0  0  0  0  0
   64.5801   33.7161   49.1355 H   0  0  0  0  0  0  0  0  0  0  0  0
   62.5808   34.4441   50.4415 H   0  0  0  0  0  0  0  0  0  0  0  0
   60.3374   34.5330   49.3504 H   0  0  0  0  0  0  0  0  0  0  0  0
   60.4841   35.1401   45.1675 H   0  0  0  0  0  0  0  0  0  0  0  0
   58.2922   35.2633   43.9934 H   0  0  0  0  0  0  0  0  0  0  0  0
   56.3100   34.0688   44.9159 H   0  0  0  0  0  0  0  0  0  0  0  0
   56.5127   32.7367   47.0086 H   0  0  0  0  0  0  0  0  0  0  0  0
   59.5085   32.7004   49.1800 H   0  0  0  0  0  0  0  0  0  0  0  0
   57.7441   32.3288   49.0408 H   0  0  0  0  0  0  0  0  0  0  0  0
   58.3790   30.6520   47.3860 H   0  0  0  0  0  0  0  0  0  0  0  0
   60.8804   31.7504   47.5780 H   0  0  0  0  0  0  0  0  0  0  0  0
   60.9704   30.1461   48.3991 H   0  0  0  0  0  0  0  0  0  0  0  0
   61.3983   30.2331   45.8323 H   0  0  0  0  0  0  0  0  0  0  0  0
   60.2604   28.9826   46.4778 H   0  0  0  0  0  0  0  0  0  0  0  0
   58.5794   28.1251   46.2133 H   0  0  0  0  0  0  0  0  0  0  0  0
   56.3101   27.2123   45.7018 H   0  0  0  0  0  0  0  0  0  0  0  0
   54.7380   28.5790   44.4720 H   0  0  0  0  0  0  0  0  0  0  0  0
   55.2397   30.8169   43.6968 H   0  0  0  0  0  0  0  0  0  0  0  0
   57.4863   31.7924   44.1713 H   0  0  0  0  0  0  0  0  0  0  0  0
   62.1021   33.1828   45.6307 H   0  0  0  0  0  0  0  0  0  0  0  0
   64.3423   33.0995   46.7266 H   0  0  0  0  0  0  0  0  0  0  0  0
  1  2  2  0
  2  3  1  0
  3  4  2  0
  4  5  1  0
  5  6  2  0
  6  7  1  0
  7  8  2  0
  8  9  1  0
  9 10  2  0
 10 11  1  0
 11 12  1  0
 12 13  1  0
 13 14  1  0
 14 15  1  0
 15 16  2  3
 16 17  1  0
 17 18  2  0
 18 19  1  0
 19 20  1  0
 20 21  2  0
  4 22  1  0
 22 23  2  0
 23  1  1  0
 10  5  1  0
 21 16  1  0
  1 24  1  0
  2 25  1  0
  3 26  1  0
  6 27  1  0
  7 28  1  0
  8 29  1  0
  9 30  1  0
 11 31  1  0
 11 32  1  0
 12 33  1  0
 13 34  1  0
 13 35  1  0
 14 36  1  0
 14 37  1  0
 17 38  1  0
 18 39  1  0
 19 40  1  0
 20 41  1  0
 21 42  1  0
 22 43  1  0
 23 44  1  0
M  END
>  <UniqueID>  (30) 
26

>  <SMILES>  (30) 
c1ccc(-c2ccccc2CNCCN=c2cc[nH]cc2)cc1

>  <Energy>  (30) 
53.278342126239075

>  <Genealogy>  (30) 
c1ccc(-c2ccccc2CNCCN=c2cc[nH]cc2)cc1 (3D coordinates assigned)
c1ccc(-c2ccccc2CNCCN=c2cc[nH]cc2)cc1 (optimized conformer: 53.278342126239075 kcal/mol)

>  <smiles>  (30) 
c1ccc(-c2ccccc2CNCCN=c2cc[nH]cc2)cc1

>  <score_type>  (30) 
oracle

>  <origin>  (30) 
adg

>  <m_score__min__energy>  (30) 
-7.7599999999999998

>  <m_primary>  (30) 
energy

$$$$
30:0
     RDKit          3D

 59 62  0  0  0  0  0  0  0  0999 V2000
   59.0600   33.1530   51.3080 C   0  0  0  0  0  0  0  0  0  0  0  0
   59.4430   33.2230   49.9390 O   0  0  0  0  0  0  0  0  0  0  0  0
   60.7400   32.9810   49.4580 C   0  0  0  0  0  0  0  0  0  0  0  0
   61.8400   33.7610   49.8650 C   0  0  0  0  0  0  0  0  0  0  0  0
   63.1210   33.4850   49.3800 C   0  0  0  0  0  0  0  0  0  0  0  0
   63.3200   32.4310   48.4890 C   0  0  0  0  0  0  0  0  0  0  0  0
   62.2390   31.6510   48.0740 C   0  0  0  0  0  0  0  0  0  0  0  0
   60.9430   31.9220   48.5460 C   0  0  0  0  0  0  0  0  0  0  0  0
   59.7940   31.0370   48.1290 C   0  0  0  0  0  0  0  0  0  0  0  0
   59.6260   31.0880   46.6670 N   0  0  0  0  0  0  0  0  0  0  0  0
   59.8250   29.8680   45.9220 C   0  0  0  0  0  0  0  0  0  0  0  0
   60.7660   29.0910   46.2420 O   0  0  0  0  0  0  0  0  0  0  0  0
   58.9320   29.5050   44.8550 N   0  0  0  0  0  0  0  0  0  0  0  0
   59.0910   28.2490   44.1170 C   0  0  0  0  0  0  0  0  0  0  0  0
   58.4180   27.1190   44.8390 C   0  0  0  0  0  0  0  0  0  0  0  0
   57.3930   26.5780   44.3410 O   0  0  0  0  0  0  0  0  0  0  0  0
   58.8940   26.7060   46.1270 N   0  0  0  0  0  0  0  0  0  0  0  0
   58.2360   25.6390   46.8780 C   0  0  0  0  0  0  0  0  0  0  0  0
   57.9320   24.4690   45.9810 C   0  0  0  0  0  0  0  0  0  0  0  0
   58.9740   23.6600   45.5020 C   0  0  0  0  0  0  0  0  0  0  0  0
   58.6990   22.5950   44.6390 C   0  0  0  0  0  0  0  0  0  0  0  0
   57.3820   22.3390   44.2250 C   0  0  0  0  0  0  0  0  0  0  0  0
   57.0850   21.1740   43.3290 C   0  0  0  0  0  0  0  0  0  0  0  0
   56.3410   23.1460   44.7080 C   0  0  0  0  0  0  0  0  0  0  0  0
   56.6150   24.2110   45.5710 C   0  0  0  0  0  0  0  0  0  0  0  0
   57.5990   30.5470   44.5040 S   0  0  0  0  0  0  0  0  0  0  0  0
   57.3460   30.5670   43.0220 O   0  0  0  0  0  0  0  0  0  0  0  0
   56.3720   30.0850   45.2370 O   0  0  0  0  0  0  0  0  0  0  0  0
   58.0680   32.1400   45.0450 C   0  0  0  0  0  0  0  0  0  0  0  0
   57.4800   33.2800   44.4810 C   0  0  0  0  0  0  0  0  0  0  0  0
   57.8910   34.5510   44.8850 C   0  0  0  0  0  0  0  0  0  0  0  0
   58.8980   34.6880   45.8430 C   0  0  0  0  0  0  0  0  0  0  0  0
   59.4820   33.5540   46.4140 C   0  0  0  0  0  0  0  0  0  0  0  0
   59.0600   32.2630   46.0370 C   0  0  0  0  0  0  0  0  0  0  0  0
   59.9426   33.3143   51.9444 H   0  0  0  0  0  0  0  0  0  0  0  0
   58.3092   33.9288   51.5188 H   0  0  0  0  0  0  0  0  0  0  0  0
   58.6322   32.1618   51.5188 H   0  0  0  0  0  0  0  0  0  0  0  0
   61.6896   34.5927   50.5691 H   0  0  0  0  0  0  0  0  0  0  0  0
   63.9741   34.1004   49.7017 H   0  0  0  0  0  0  0  0  0  0  0  0
   64.3304   32.2137   48.1124 H   0  0  0  0  0  0  0  0  0  0  0  0
   62.4025   30.8191   47.3732 H   0  0  0  0  0  0  0  0  0  0  0  0
   60.0014   30.0013   48.4362 H   0  0  0  0  0  0  0  0  0  0  0  0
   58.8711   31.3908   48.6118 H   0  0  0  0  0  0  0  0  0  0  0  0
   58.6419   28.3577   43.1188 H   0  0  0  0  0  0  0  0  0  0  0  0
   60.1642   28.0236   44.0310 H   0  0  0  0  0  0  0  0  0  0  0  0
   59.7280   27.1880   46.5300 H   0  0  0  0  0  0  0  0  0  0  0  0
   58.8983   25.3082   47.6916 H   0  0  0  0  0  0  0  0  0  0  0  0
   57.2916   26.0253   47.2891 H   0  0  0  0  0  0  0  0  0  0  0  0
   60.0110   23.8646   45.8067 H   0  0  0  0  0  0  0  0  0  0  0  0
   59.5189   21.9542   44.2824 H   0  0  0  0  0  0  0  0  0  0  0  0
   56.8593   20.2886   43.9415 H   0  0  0  0  0  0  0  0  0  0  0  0
   56.2186   21.4112   42.6941 H   0  0  0  0  0  0  0  0  0  0  0  0
   57.9592   20.9675   42.6941 H   0  0  0  0  0  0  0  0  0  0  0  0
   55.3036   22.9396   44.4060 H   0  0  0  0  0  0  0  0  0  0  0  0
   55.7946   24.8496   45.9303 H   0  0  0  0  0  0  0  0  0  0  0  0
   56.6938   33.1730   43.7192 H   0  0  0  0  0  0  0  0  0  0  0  0
   57.4217   35.4451   44.4488 H   0  0  0  0  0  0  0  0  0  0  0  0
   59.2321   35.6905   46.1487 H   0  0  0  0  0  0  0  0  0  0  0  0
   60.2780   33.6699   47.1643 H   0  0  0  0  0  0  0  0  0  0  0  0
  1  2  1  0
  2  3  1  0
  3  4  2  0
  4  5  1  0
  5  6  2  0
  6  7  1  0
  7  8  2  0
  8  9  1  0
  9 10  1  0
 10 11  1  0
 11 12  2  0
 11 13  1  0
 13 14  1  0
 14 15  1  0
 15 16  2  0
 15 17  1  0
 17 18  1  0
 18 19  1  0
 19 20  2  0
 20 21  1  0
 21 22  2  0
 22 23  1  0
 22 24  1  0
 24 25  2  0
 13 26  1  0
 26 27  2  0
 26 28  2  0
 26 29  1  0
 29 30  2  0
 30 31  1  0
 31 32  2  0
 32 33  1  0
 33 34  2  0
  8  3  1  0
 34 10  1  0
 25 19  1  0
 34 29  1  0
  1 35  1  0
  1 36  1  0
  1 37  1  0
  4 38  1  0
  5 39  1  0
  6 40  1  0
  7 41  1  0
  9 42  1  0
  9 43  1  0
 14 44  1  0
 14 45  1  0
 17 46  1  0
 18 47  1  0
 18 48  1  0
 20 49  1  0
 21 50  1  0
 23 51  1  0
 23 52  1  0
 23 53  1  0
 24 54  1  0
 25 55  1  0
 30 56  1  0
 31 57  1  0
 32 58  1  0
 33 59  1  0
M  END
>  <UniqueID>  (31) 
27

>  <SMILES>  (31) 
COc1ccccc1CN1C(=O)N(CC(=O)NCc2ccc(C)cc2)S(=O)(=O)c2ccccc21

>  <Energy>  (31) 
65.98284882091602

>  <Genealogy>  (31) 
COc1ccccc1CN1C(=O)N(CC(=O)NCc2ccc(C)cc2)S(=O)(=O)c2ccccc21 (3D coordinates assigned)
COc1ccccc1CN1C(=O)N(CC(=O)NCc2ccc(C)cc2)S(=O)(=O)c2ccccc21 (nonaromatic ring conformer: 65.98284882091602 kcal/mol)

>  <smiles>  (31) 
COc1ccccc1CN1C(=O)N(CC(=O)NCc2ccc(C)cc2)S(=O)(=O)c2ccccc21

>  <score_type>  (31) 
oracle

>  <origin>  (31) 
adg

>  <m_score__min__energy>  (31) 
-9.3100000000000005

>  <m_primary>  (31) 
energy

$$$$
31:0
     RDKit          3D

 39 41  0  0  1  0  0  0  0  0999 V2000
   57.1080   28.6440   42.8760 N   0  0  0  0  0  0  0  0  0  0  0  0
   56.2920   29.7230   43.9310 S   0  0  0  0  0  0  0  0  0  0  0  0
   56.0830   29.0170   45.2530 O   0  0  0  0  0  0  0  0  0  0  0  0
   54.9260   30.0480   43.3910 O   0  0  0  0  0  0  0  0  0  0  0  0
   57.2360   31.1990   44.1600 C   0  0  0  0  0  0  0  0  0  0  0  0
   57.7450   31.9100   43.1110 C   0  0  0  0  0  0  0  0  0  0  0  0
   58.4670   33.0480   43.3990 C   0  0  0  0  0  0  0  0  0  0  0  0
   58.6660   33.4500   44.6940 C   0  0  0  0  0  0  0  0  0  0  0  0
   58.1590   32.7450   45.7900 C   0  0  0  0  0  0  0  0  0  0  0  0
   58.3690   33.1670   47.1210 N   0  0  0  0  0  0  0  0  0  0  0  0
   59.2650   32.6220   47.8000 N   0  0  0  0  0  0  0  0  0  0  0  0
   58.9340   31.5130   48.6290 C   0  0  0  0  0  0  0  0  0  0  0  0
   58.9270   30.1620   48.3210 C   0  0  0  0  0  0  0  0  0  0  0  0
   59.2660   29.5480   47.0440 C   0  0  0  0  0  0  0  0  0  0  0  0
   58.4630   28.6090   46.4340 C   0  0  0  0  0  0  0  0  0  0  0  0
   58.7970   28.0230   45.2070 C   0  0  0  0  0  0  0  0  0  0  0  0
   57.9560   27.0830   44.6300 O   0  0  0  0  0  0  0  0  0  0  0  0
   59.9560   28.3640   44.5520 C   0  0  0  0  0  0  0  0  0  0  0  0
   60.7660   29.2960   45.1460 C   0  0  0  0  0  0  0  0  0  0  0  0
   60.4320   29.8790   46.3690 C   0  0  0  0  0  0  0  0  0  0  0  0
   61.3450   30.8060   46.8500 O   0  0  0  0  0  0  0  0  0  0  0  0
   58.5400   29.5550   49.4570 N   0  0  0  0  0  0  0  0  0  0  0  0
   58.3180   30.4670   50.4170 N   0  0  0  0  0  0  0  0  0  0  0  0
   58.5510   31.6960   49.9490 C   0  0  0  0  0  0  0  0  0  0  0  0
   58.4300   32.7600   50.6060 O   0  0  0  0  0  0  0  0  0  0  0  0
   57.4360   31.6020   45.4600 C   0  0  0  0  0  0  0  0  0  0  0  0
   56.7230   27.6590   42.9250 H   0  0  0  0  0  0  0  0  0  0  0  0
   58.1390   28.6670   42.9860 H   0  0  0  0  0  0  0  0  0  0  0  0
   57.5843   31.5856   42.0723 H   0  0  0  0  0  0  0  0  0  0  0  0
   58.8903   33.6431   42.5764 H   0  0  0  0  0  0  0  0  0  0  0  0
   59.2484   34.3647   44.8788 H   0  0  0  0  0  0  0  0  0  0  0  0
   57.5270   28.3093   46.9282 H   0  0  0  0  0  0  0  0  0  0  0  0
   56.9900   27.2250   44.4350 H   0  0  0  0  0  0  0  0  0  0  0  0
   60.2232   27.9064   43.5880 H   0  0  0  0  0  0  0  0  0  0  0  0
   61.7009   29.5914   44.6474 H   0  0  0  0  0  0  0  0  0  0  0  0
   61.1410   31.6970   47.2390 H   0  0  0  0  0  0  0  0  0  0  0  0
   58.4030   28.5460   49.6670 H   0  0  0  0  0  0  0  0  0  0  0  0
   58.0050   30.2760   51.4130 H   0  0  0  0  0  0  0  0  0  0  0  0
   57.0071   30.9964   46.2719 H   0  0  0  0  0  0  0  0  0  0  0  0
  1  2  1  0
  2  3  2  0
  2  4  2  0
  2  5  1  0
  5  6  2  0
  6  7  1  0
  7  8  2  0
  8  9  1  0
  9 10  1  0
 10 11  2  0
 11 12  1  0
 12 13  2  0
 13 14  1  0
 14 15  2  0
 15 16  1  0
 16 17  1  0
 16 18  2  0
 18 19  1  0
 19 20  2  0
 20 21  1  0
 13 22  1  0
 22 23  1  0
 23 24  1  0
 24 25  2  0
  9 26  2  0
 26  5  1  0
 24 12  1  0
 20 14  1  0
  1 27  1  0
  1 28  1  0
  6 29  1  0
  7 30  1  0
  8 31  1  0
 15 32  1  0
 17 33  1  0
 18 34  1  0
 19 35  1  0
 21 36  1  0
 22 37  1  0
 23 38  1  0
 26 39  1  0
M  END
>  <smiles>  (32) 
NS(=O)(=O)c1cccc(N=Nc2c(-c3cc(O)ccc3O)[nH][nH]c2=O)c1

>  <score_type>  (32) 
oracle

>  <origin>  (32) 
adg

>  <m_score__min__energy>  (32) 
-8.2400000000000002

>  <m_primary>  (32) 
energy

$$$$
32:0
     RDKit          3D

 60 63  0  0  0  0  0  0  0  0999 V2000
   61.2071   30.6027   54.2877 H   0  0  0  0  0  0  0  0  0  0  0  0
   60.9050   30.4030   53.2490 C   0  0  0  0  0  0  0  0  0  0  0  0
   61.1570   29.1910   52.6920 N   0  0  0  0  0  0  0  0  0  0  0  0
   60.7960   28.9040   51.4140 C   0  0  0  0  0  0  0  0  0  0  0  0
   61.0156   27.9117   50.9931 H   0  0  0  0  0  0  0  0  0  0  0  0
   60.1450   29.8660   50.6290 C   0  0  0  0  0  0  0  0  0  0  0  0
   59.7030   29.4840   48.9600 S   0  0  0  0  0  0  0  0  0  0  0  0
   58.4290   28.6870   48.9520 O   0  0  0  0  0  0  0  0  0  0  0  0
   60.7920   28.6700   48.3160 O   0  0  0  0  0  0  0  0  0  0  0  0
   59.4650   30.9760   48.0940 N   0  0  0  0  0  0  0  0  0  0  0  0
   60.3900   31.1070   46.9630 C   0  0  1  0  0  0  0  0  0  0  0  0
   60.1741   32.0322   46.4085 H   0  0  0  0  0  0  0  0  0  0  0  0
   61.8010   31.1710   47.4990 C   0  0  0  0  0  0  0  0  0  0  0  0
   62.7620   30.8560   46.7490 O   0  0  0  0  0  0  0  0  0  0  0  0
   62.0790   31.4450   48.8810 N   0  0  0  0  0  0  0  0  0  0  0  0
   63.3470   31.7840   49.4540 C   0  0  0  0  0  0  0  0  0  0  0  0
   64.1330   32.8280   48.9350 C   0  0  0  0  0  0  0  0  0  0  0  0
   63.7671   33.4165   48.0807 H   0  0  0  0  0  0  0  0  0  0  0  0
   65.3770   33.1210   49.5000 C   0  0  0  0  0  0  0  0  0  0  0  0
   65.9806   33.9489   49.0997 H   0  0  0  0  0  0  0  0  0  0  0  0
   65.8560   32.3630   50.5740 C   0  0  0  0  0  0  0  0  0  0  0  0
   67.5560   32.7650   51.3450 Br  0  0  0  0  0  0  0  0  0  0  0  0
   65.0920   31.3020   51.0710 C   0  0  0  0  0  0  0  0  0  0  0  0
   65.4711   30.6977   51.9083 H   0  0  0  0  0  0  0  0  0  0  0  0
   63.8480   31.0080   50.5060 C   0  0  0  0  0  0  0  0  0  0  0  0
   63.2591   30.1620   50.8901 H   0  0  0  0  0  0  0  0  0  0  0  0
   60.2100   29.9370   45.9640 C   0  0  0  0  0  0  0  0  0  0  0  0
   60.7830   30.1676   45.0538 H   0  0  0  0  0  0  0  0  0  0  0  0
   60.5677   29.0279   46.4695 H   0  0  0  0  0  0  0  0  0  0  0  0
   58.7730   29.6830   45.5700 C   0  0  0  0  0  0  0  0  0  0  0  0
   58.0360   30.6640   44.8840 C   0  0  0  0  0  0  0  0  0  0  0  0
   58.5096   31.6223   44.6243 H   0  0  0  0  0  0  0  0  0  0  0  0
   56.7040   30.4280   44.5300 C   0  0  0  0  0  0  0  0  0  0  0  0
   56.1314   31.2026   43.9990 H   0  0  0  0  0  0  0  0  0  0  0  0
   56.0990   29.2090   44.8500 C   0  0  0  0  0  0  0  0  0  0  0  0
   54.7790   28.9720   44.4890 O   0  0  0  0  0  0  0  0  0  0  0  0
   56.8240   28.2280   45.5320 C   0  0  0  0  0  0  0  0  0  0  0  0
   56.3485   27.2683   45.7827 H   0  0  0  0  0  0  0  0  0  0  0  0
   58.1530   28.4650   45.8960 C   0  0  0  0  0  0  0  0  0  0  0  0
   58.7166   27.6933   46.4409 H   0  0  0  0  0  0  0  0  0  0  0  0
   59.8890   31.1400   51.1740 C   0  0  0  0  0  0  0  0  0  0  0  0
   59.2880   32.0370   50.4390 N   0  0  0  0  0  0  0  0  0  0  0  0
   59.6010   33.4340   50.3620 C   0  0  0  0  0  0  0  0  0  0  0  0
   59.0040   34.2420   51.1210 O   0  0  0  0  0  0  0  0  0  0  0  0
   60.4860   33.9600   49.2680 C   0  0  0  0  0  0  0  0  0  0  0  0
   60.8489   34.9617   49.5417 H   0  0  0  0  0  0  0  0  0  0  0  0
   61.3403   33.2802   49.1335 H   0  0  0  0  0  0  0  0  0  0  0  0
   59.7110   34.0440   47.9820 C   0  0  0  0  0  0  0  0  0  0  0  0
   58.3990   33.5460   47.9120 C   0  0  0  0  0  0  0  0  0  0  0  0
   57.9277   33.1153   48.8078 H   0  0  0  0  0  0  0  0  0  0  0  0
   57.6900   33.5960   46.7070 C   0  0  0  0  0  0  0  0  0  0  0  0
   56.6615   33.2089   46.6581 H   0  0  0  0  0  0  0  0  0  0  0  0
   58.2870   34.1370   45.5660 C   0  0  0  0  0  0  0  0  0  0  0  0
   57.7271   34.1799   44.6201 H   0  0  0  0  0  0  0  0  0  0  0  0
   59.5960   34.6240   45.6260 C   0  0  0  0  0  0  0  0  0  0  0  0
   60.0648   35.0505   44.7269 H   0  0  0  0  0  0  0  0  0  0  0  0
   60.3100   34.5700   46.8260 C   0  0  0  0  0  0  0  0  0  0  0  0
   61.3449   34.9408   46.8652 H   0  0  0  0  0  0  0  0  0  0  0  0
   60.2640   31.3960   52.5080 C   0  0  0  0  0  0  0  0  0  0  0  0
   60.0522   32.3748   52.9631 H   0  0  0  0  0  0  0  0  0  0  0  0
  1  2  1  0
  2  3  1  0
  3  4  1  0
  4  5  1  0
  4  6  2  0
  6  7  1  0
  7  8  2  0
  7  9  2  0
  7 10  1  0
 10 11  1  0
 11 12  1  6
 11 13  1  0
 13 14  2  0
 13 15  1  0
 15 16  1  0
 16 17  2  0
 17 18  1  0
 17 19  1  0
 19 20  1  0
 19 21  2  0
 21 22  1  0
 21 23  1  0
 23 24  1  0
 23 25  2  0
 25 26  1  0
 11 27  1  0
 27 28  1  0
 27 29  1  0
 27 30  1  0
 30 31  2  0
 31 32  1  0
 31 33  1  0
 33 34  1  0
 33 35  2  0
 35 36  1  0
 35 37  1  0
 37 38  1  0
 37 39  2  0
 39 40  1  0
  6 41  1  0
 41 42  2  0
 42 43  1  0
 43 44  2  0
 43 45  1  0
 45 46  1  0
 45 47  1  0
 45 48  1  0
 48 49  2  0
 49 50  1  0
 49 51  1  0
 51 52  1  0
 51 53  2  0
 53 54  1  0
 53 55  1  0
 55 56  1  0
 55 57  2  0
 57 58  1  0
 41 59  1  0
 59 60  1  0
 59  2  2  0
 25 16  1  0
 39 30  1  0
 57 48  1  0
M  CHG  4   3  -1  10  -1  15  -1  36  -1
M  END
>  <UniqueID>  (33) 
28

>  <SMILES>  (33) 
O=C(Cc1ccccc1)/N=c1\cc[n-]cc1S(=O)(=O)[N-][C@H](Cc1ccc([O-])cc1)C(=O)[N-]c1ccc(Br)cc1

>  <Energy>  (33) 
75.08820334667041

>  <Genealogy>  (33) 
O=C(Cc1ccccc1)N=c1cc[n-]cc1S(=O)(=O)[N-]C(Cc1ccc([O-])cc1)C(=O)[N-]c1ccc(Br)cc1 (protonated)
O=C(Cc1ccccc1)N=c1cc[n-]cc1S(=O)(=O)[N-][C@H](Cc1ccc([O-])cc1)C(=O)[N-]c1ccc(Br)cc1 (chirality)
O=C(Cc1ccccc1)/N=c1\cc[n-]cc1S(=O)(=O)[N-][C@H](Cc1ccc([O-])cc1)C(=O)[N-]c1ccc(Br)cc1 (cis-trans isomerization)
O=C(Cc1ccccc1)/N=c1\cc[n-]cc1S(=O)(=O)[N-][C@H](Cc1ccc([O-])cc1)C(=O)[N-]c1ccc(Br)cc1 (3D coordinates assigned)
O=C(Cc1ccccc1)/N=c1\cc[n-]cc1S(=O)(=O)[N-][C@H](Cc1ccc([O-])cc1)C(=O)[N-]c1ccc(Br)cc1 (optimized conformer: 75.08820334667041 kcal/mol)

>  <smiles>  (33) 
O=C(Cc1ccccc1)N=c1cc[nH]cc1S(=O)(=O)NC(Cc1ccc(O)cc1)C(=O)Nc1ccc(Br)cc1

>  <score_type>  (33) 
oracle

>  <origin>  (33) 
adg

>  <m_score__min__energy>  (33) 
-15.619999999999999

>  <m_primary>  (33) 
energy

$$$$
33:0
     RDKit          3D

 28 29  0  0  0  0  0  0  0  0999 V2000
   54.7710   29.5580   44.9280 H   0  0  0  0  0  0  0  0  0  0  0  0
   55.1600   30.4410   44.5250 N   0  0  0  0  0  0  0  0  0  0  0  0
   56.8790   30.2680   44.4990 S   0  0  0  0  0  0  0  0  0  0  0  0
   57.4810   31.0720   45.6170 O   0  0  0  0  0  0  0  0  0  0  0  0
   57.4120   30.7840   43.1930 O   0  0  0  0  0  0  0  0  0  0  0  0
   57.3030   28.5710   44.6890 C   0  0  0  0  0  0  0  0  0  0  0  0
   57.2340   27.9630   45.9500 C   0  0  0  0  0  0  0  0  0  0  0  0
   56.9051   28.5463   46.8227 H   0  0  0  0  0  0  0  0  0  0  0  0
   57.5820   26.6170   46.1020 C   0  0  0  0  0  0  0  0  0  0  0  0
   57.5393   26.1490   47.0966 H   0  0  0  0  0  0  0  0  0  0  0  0
   57.9860   25.8600   44.9890 C   0  0  0  0  0  0  0  0  0  0  0  0
   58.3780   24.4820   45.1140 N   0  0  0  0  0  0  0  0  0  0  0  0
   57.5970   23.4380   45.1320 C   0  0  0  0  0  0  0  0  0  0  0  0
   58.0639   22.4421   45.1182 H   0  0  0  0  0  0  0  0  0  0  0  0
   56.1180   23.5140   45.1700 C   0  0  0  0  0  0  0  0  0  0  0  0
   55.3440   23.0760   44.0760 C   0  0  0  0  0  0  0  0  0  0  0  0
   55.9260   22.5210   42.9360 O   0  0  0  0  0  0  0  0  0  0  0  0
   56.2760   23.0820   42.1690 H   0  0  0  0  0  0  0  0  0  0  0  0
   53.9900   23.1790   44.1290 N   0  0  0  0  0  0  0  0  0  0  0  0
   53.3620   23.7020   45.2110 C   0  0  0  0  0  0  0  0  0  0  0  0
   51.7330   23.8040   45.2380 S   0  0  0  0  0  0  0  0  0  0  0  0
   54.0860   24.1490   46.2670 N   0  0  0  0  0  0  0  0  0  0  0  0
   55.4420   24.0760   46.2690 C   0  0  0  0  0  0  0  0  0  0  0  0
   56.0800   24.5320   47.2550 O   0  0  0  0  0  0  0  0  0  0  0  0
   58.0940   26.4830   43.7400 C   0  0  0  0  0  0  0  0  0  0  0  0
   58.4543   25.9101   42.8728 H   0  0  0  0  0  0  0  0  0  0  0  0
   57.7470   27.8280   43.5880 C   0  0  0  0  0  0  0  0  0  0  0  0
   57.8229   28.3051   42.5997 H   0  0  0  0  0  0  0  0  0  0  0  0
  1  2  1  0
  2  3  1  0
  3  4  2  0
  3  5  2  0
  3  6  1  0
  6  7  2  0
  7  8  1  0
  7  9  1  0
  9 10  1  0
  9 11  2  0
 11 12  1  0
 12 13  2  0
 13 14  1  0
 13 15  1  0
 15 16  2  0
 16 17  1  0
 17 18  1  0
 16 19  1  0
 19 20  1  0
 20 21  2  0
 20 22  1  0
 22 23  1  0
 23 24  2  0
 11 25  1  0
 25 26  1  0
 25 27  2  0
 27 28  1  0
 27  6  1  0
 23 15  1  0
M  CHG  3   2  -1  19  -1  22  -1
M  END
>  <UniqueID>  (34) 
29

>  <SMILES>  (34) 
[NH-]S(=O)(=O)c1ccc(/N=C\c2c(O)[n-]c(=S)[n-]c2=O)cc1

>  <Energy>  (34) 
43.187947619947295

>  <Genealogy>  (34) 
[NH-]S(=O)(=O)c1ccc(N=Cc2c(O)[n-]c(=S)[n-]c2=O)cc1 (protonated)
[NH-]S(=O)(=O)c1ccc(/N=C\c2c(O)[n-]c(=S)[n-]c2=O)cc1 (cis-trans isomerization)
[NH-]S(=O)(=O)c1ccc(/N=C\c2c(O)[n-]c(=S)[n-]c2=O)cc1 (3D coordinates assigned)
[NH-]S(=O)(=O)c1ccc(/N=C\c2c(O)[n-]c(=S)[n-]c2=O)cc1 (optimized conformer: 43.187947619947295 kcal/mol)

>  <smiles>  (34) 
NS(=O)(=O)c1ccc(N=Cc2c(O)[nH]c(=S)[nH]c2=O)cc1

>  <score_type>  (34) 
oracle

>  <origin>  (34) 
adg

>  <m_score__min__energy>  (34) 
-12.26

>  <m_primary>  (34) 
energy

$$$$
34:0
     RDKit          3D

 38 40  0  0  0  0  0  0  0  0999 V2000
   58.4980   27.5230   47.5240 C   0  0  0  0  0  0  0  0  0  0  0  0
   58.2670   27.2000   46.0730 C   0  0  0  0  0  0  0  0  0  0  0  0
   57.9850   25.8750   45.6960 C   0  0  0  0  0  0  0  0  0  0  0  0
   57.7700   25.5500   44.3550 C   0  0  0  0  0  0  0  0  0  0  0  0
   57.8470   26.5390   43.3750 C   0  0  0  0  0  0  0  0  0  0  0  0
   58.1370   27.8570   43.7310 C   0  0  0  0  0  0  0  0  0  0  0  0
   58.3420   28.2050   45.0790 C   0  0  0  0  0  0  0  0  0  0  0  0
   58.6800   29.5590   45.4320 N   0  0  0  0  0  0  0  0  0  0  0  0
   57.8050   30.6770   45.2050 C   0  0  0  0  0  0  0  0  0  0  0  0
   56.6070   30.4800   44.8590 O   0  0  0  0  0  0  0  0  0  0  0  0
   58.2900   32.0580   45.4120 C   0  0  0  0  0  0  0  0  0  0  0  0
   57.5870   33.1600   44.9140 C   0  0  0  0  0  0  0  0  0  0  0  0
   58.0800   34.4410   45.1430 C   0  0  0  0  0  0  0  0  0  0  0  0
   59.2630   34.6030   45.8640 C   0  0  0  0  0  0  0  0  0  0  0  0
   59.6970   35.7640   46.0910 O   0  0  0  0  0  0  0  0  0  0  0  0
   59.9270   33.4980   46.3290 N   0  0  0  0  0  0  0  0  0  0  0  0
   61.1600   33.6190   47.0610 C   0  0  0  0  0  0  0  0  0  0  0  0
   62.3880   33.5750   46.3780 C   0  0  0  0  0  0  0  0  0  0  0  0
   63.5920   33.6630   47.0810 C   0  0  0  0  0  0  0  0  0  0  0  0
   63.5830   33.7920   48.4720 C   0  0  0  0  0  0  0  0  0  0  0  0
   62.3690   33.8320   49.1620 C   0  0  0  0  0  0  0  0  0  0  0  0
   61.1570   33.7440   48.4670 C   0  0  0  0  0  0  0  0  0  0  0  0
   59.6540   33.8360   49.3760 Cl  0  0  0  0  0  0  0  0  0  0  0  0
   59.4430   32.2730   46.1000 N   0  0  0  0  0  0  0  0  0  0  0  0
   57.9724   26.7881   48.1514 H   0  0  0  0  0  0  0  0  0  0  0  0
   59.5758   27.4861   47.7408 H   0  0  0  0  0  0  0  0  0  0  0  0
   58.1147   28.5310   47.7408 H   0  0  0  0  0  0  0  0  0  0  0  0
   57.9334   25.0885   46.4633 H   0  0  0  0  0  0  0  0  0  0  0  0
   57.5396   24.5125   44.0714 H   0  0  0  0  0  0  0  0  0  0  0  0
   57.6788   26.2799   42.3193 H   0  0  0  0  0  0  0  0  0  0  0  0
   58.2059   28.6301   42.9515 H   0  0  0  0  0  0  0  0  0  0  0  0
   59.5770   29.7250   45.9410 H   0  0  0  0  0  0  0  0  0  0  0  0
   56.6550   33.0156   44.3478 H   0  0  0  0  0  0  0  0  0  0  0  0
   57.5408   35.3192   44.7583 H   0  0  0  0  0  0  0  0  0  0  0  0
   62.4009   33.4706   45.2830 H   0  0  0  0  0  0  0  0  0  0  0  0
   64.5484   33.6307   46.5386 H   0  0  0  0  0  0  0  0  0  0  0  0
   64.5319   33.8621   49.0240 H   0  0  0  0  0  0  0  0  0  0  0  0
   62.3654   33.9332   50.2573 H   0  0  0  0  0  0  0  0  0  0  0  0
  1  2  1  0
  2  3  2  0
  3  4  1  0
  4  5  2  0
  5  6  1  0
  6  7  2  0
  7  8  1  0
  8  9  1  0
  9 10  2  0
  9 11  1  0
 11 12  1  0
 12 13  2  0
 13 14  1  0
 14 15  2  0
 14 16  1  0
 16 17  1  0
 17 18  2  0
 18 19  1  0
 19 20  2  0
 20 21  1  0
 21 22  2  0
 22 23  1  0
 16 24  1  0
  7  2  1  0
 24 11  2  0
 22 17  1  0
  1 25  1  0
  1 26  1  0
  1 27  1  0
  3 28  1  0
  4 29  1  0
  5 30  1  0
  6 31  1  0
  8 32  1  0
 12 33  1  0
 13 34  1  0
 18 35  1  0
 19 36  1  0
 20 37  1  0
 21 38  1  0
M  END
>  <UniqueID>  (35) 
30

>  <SMILES>  (35) 
Cc1ccccc1NC(=O)c1ccc(=O)n(-c2ccccc2Cl)n1

>  <Energy>  (35) 
53.70036343155002

>  <Genealogy>  (35) 
Cc1ccccc1NC(=O)c1ccc(=O)n(-c2ccccc2Cl)n1 (3D coordinates assigned)
Cc1ccccc1NC(=O)c1ccc(=O)n(-c2ccccc2Cl)n1 (optimized conformer: 53.70036343155002 kcal/mol)

>  <smiles>  (35) 
Cc1ccccc1NC(=O)c1ccc(=O)n(-c2ccccc2Cl)n1

>  <score_type>  (35) 
oracle

>  <origin>  (35) 
adg

>  <m_score__min__energy>  (35) 
-8.6600000000000001

>  <m_primary>  (35) 
energy

$$$$
35:0
     RDKit          3D

 47 50  0  0  0  0  0  0  0  0999 V2000
   59.3790   22.2100   44.9100 C   0  0  0  0  0  0  0  0  0  0  0  0
   58.8190   22.9440   45.9980 O   0  0  0  0  0  0  0  0  0  0  0  0
   58.1070   24.1500   45.8600 C   0  0  0  0  0  0  0  0  0  0  0  0
   56.7070   24.1830   45.7250 C   0  0  0  0  0  0  0  0  0  0  0  0
   56.0380   25.4040   45.6170 C   0  0  0  0  0  0  0  0  0  0  0  0
   56.7470   26.6070   45.6470 C   0  0  0  0  0  0  0  0  0  0  0  0
   56.0210   27.8400   45.5920 N   0  0  0  0  0  0  0  0  0  0  0  0
   56.4350   29.1780   44.5640 S   0  0  0  0  0  0  0  0  0  0  0  0
   57.0130   28.6480   43.2830 O   0  0  0  0  0  0  0  0  0  0  0  0
   55.2000   29.9710   44.2590 O   0  0  0  0  0  0  0  0  0  0  0  0
   57.5990   30.2180   45.3800 C   0  0  0  0  0  0  0  0  0  0  0  0
   58.3350   29.7450   46.4750 C   0  0  0  0  0  0  0  0  0  0  0  0
   59.1550   30.6150   47.2000 C   0  0  0  0  0  0  0  0  0  0  0  0
   59.2560   31.9700   46.8370 C   0  0  0  0  0  0  0  0  0  0  0  0
   60.0640   32.8930   47.6620 C   0  0  0  0  0  0  0  0  0  0  0  0
   59.6440   34.0320   48.3210 C   0  0  0  0  0  0  0  0  0  0  0  0
   60.6860   34.5680   48.9750 N   0  0  0  0  0  0  0  0  0  0  0  0
   61.7060   33.7300   48.6880 C   0  0  0  0  0  0  0  0  0  0  0  0
   63.1100   33.8880   49.1950 C   0  0  0  0  0  0  0  0  0  0  0  0
   64.2160   33.4480   48.2490 C   0  0  0  0  0  0  0  0  0  0  0  0
   63.8620   32.5900   49.4520 C   0  0  0  0  0  0  0  0  0  0  0  0
   61.3410   32.7390   47.9080 O   0  0  0  0  0  0  0  0  0  0  0  0
   58.5410   32.4300   45.7160 C   0  0  0  0  0  0  0  0  0  0  0  0
   57.7190   31.5600   44.9940 C   0  0  0  0  0  0  0  0  0  0  0  0
   58.1460   26.5770   45.7420 C   0  0  0  0  0  0  0  0  0  0  0  0
   58.8290   25.3530   45.8670 C   0  0  0  0  0  0  0  0  0  0  0  0
   60.2230   25.2920   46.0090 O   0  0  0  0  0  0  0  0  0  0  0  0
   61.0460   26.3910   46.3920 C   0  0  0  0  0  0  0  0  0  0  0  0
   60.0025   21.3927   45.3014 H   0  0  0  0  0  0  0  0  0  0  0  0
   58.5690   21.7909   44.2949 H   0  0  0  0  0  0  0  0  0  0  0  0
   59.9971   22.8805   44.2949 H   0  0  0  0  0  0  0  0  0  0  0  0
   56.1367   23.2426   45.7044 H   0  0  0  0  0  0  0  0  0  0  0  0
   54.9436   25.4185   45.5074 H   0  0  0  0  0  0  0  0  0  0  0  0
   58.2673   28.6860   46.7649 H   0  0  0  0  0  0  0  0  0  0  0  0
   59.7256   30.2367   48.0610 H   0  0  0  0  0  0  0  0  0  0  0  0
   58.6204   34.4347   48.3113 H   0  0  0  0  0  0  0  0  0  0  0  0
   62.9008   34.8000   49.7733 H   0  0  0  0  0  0  0  0  0  0  0  0
   63.9669   33.1024   47.2348 H   0  0  0  0  0  0  0  0  0  0  0  0
   65.1396   33.9067   47.8662 H   0  0  0  0  0  0  0  0  0  0  0  0
   63.3563   31.6237   49.3087 H   0  0  0  0  0  0  0  0  0  0  0  0
   64.4227   32.1707   50.3004 H   0  0  0  0  0  0  0  0  0  0  0  0
   58.6295   33.4816   45.4056 H   0  0  0  0  0  0  0  0  0  0  0  0
   57.1641   31.9301   44.1193 H   0  0  0  0  0  0  0  0  0  0  0  0
   58.7143   27.5185   45.7186 H   0  0  0  0  0  0  0  0  0  0  0  0
   61.0907   26.4506   47.4895 H   0  0  0  0  0  0  0  0  0  0  0  0
   62.0601   26.2469   45.9910 H   0  0  0  0  0  0  0  0  0  0  0  0
   60.6223   27.3236   45.9910 H   0  0  0  0  0  0  0  0  0  0  0  0
  1  2  1  0
  2  3  1  0
  3  4  2  0
  4  5  1  0
  5  6  2  0
  6  7  1  0
  7  8  1  0
  8  9  2  0
  8 10  2  0
  8 11  1  0
 11 12  2  0
 12 13  1  0
 13 14  2  0
 14 15  1  0
 15 16  2  0
 16 17  1  0
 17 18  2  0
 18 19  1  0
 19 20  1  0
 20 21  1  0
 18 22  1  0
 14 23  1  0
 23 24  2  0
  6 25  1  0
 25 26  2  0
 26 27  1  0
 27 28  1  0
 26  3  1  0
 24 11  1  0
 22 15  1  0
 21 19  1  0
  1 29  1  0
  1 30  1  0
  1 31  1  0
  4 32  1  0
  5 33  1  0
 12 34  1  0
 13 35  1  0
 16 36  1  0
 19 37  1  0
 20 38  1  0
 20 39  1  0
 21 40  1  0
 21 41  1  0
 23 42  1  0
 24 43  1  0
 25 44  1  0
 28 45  1  0
 28 46  1  0
 28 47  1  0
M  CHG  1   7  -1
M  END
>  <UniqueID>  (36) 
31

>  <SMILES>  (36) 
COc1ccc([N-]S(=O)(=O)c2ccc(-c3cnc(C4CC4)o3)cc2)cc1OC

>  <Energy>  (36) 
347.1682710236864

>  <Genealogy>  (36) 
COc1ccc([N-]S(=O)(=O)c2ccc(-c3cnc(C4CC4)o3)cc2)cc1OC (protonated)
COc1ccc([N-]S(=O)(=O)c2ccc(-c3cnc(C4CC4)o3)cc2)cc1OC (3D coordinates assigned)
COc1ccc([N-]S(=O)(=O)c2ccc(-c3cnc(C4CC4)o3)cc2)cc1OC (nonaromatic ring conformer: 347.1682710236864 kcal/mol)

>  <smiles>  (36) 
COc1ccc(NS(=O)(=O)c2ccc(-c3cnc(C4CC4)o3)cc2)cc1OC

>  <score_type>  (36) 
oracle

>  <origin>  (36) 
adg

>  <m_score__min__energy>  (36) 
-9.3499999999999996

>  <m_primary>  (36) 
energy

$$$$
36:0
     RDKit          3D

 46 48  0  0  0  0  0  0  0  0999 V2000
   55.8970   29.6310   44.4840 C   0  0  0  0  0  0  0  0  0  0  0  0
   56.7760   30.8020   44.2470 C   0  0  0  0  0  0  0  0  0  0  0  0
   57.0920   31.0720   42.9610 N   0  0  0  0  0  0  0  0  0  0  0  0
   57.8830   32.1150   42.6600 C   0  0  0  0  0  0  0  0  0  0  0  0
   58.3920   32.9290   43.6410 C   0  0  0  0  0  0  0  0  0  0  0  0
   58.0420   32.6190   44.9600 C   0  0  0  0  0  0  0  0  0  0  0  0
   58.5730   33.4700   46.0550 C   0  0  0  0  0  0  0  0  0  0  0  0
   58.7280   32.6860   47.2440 N   0  0  0  0  0  0  0  0  0  0  0  0
   60.0400   32.7370   47.7880 C   0  0  0  0  0  0  0  0  0  0  0  0
   60.8150   31.5380   47.6260 C   0  0  0  0  0  0  0  0  0  0  0  0
   60.0100   30.4320   47.7290 N   0  0  0  0  0  0  0  0  0  0  0  0
   59.2130   29.3360   47.8320 C   0  0  0  0  0  0  0  0  0  0  0  0
   58.9130   28.6420   46.5140 C   0  0  0  0  0  0  0  0  0  0  0  0
   58.0330   27.5990   46.4320 C   0  0  0  0  0  0  0  0  0  0  0  0
   57.7570   26.9640   45.2380 C   0  0  0  0  0  0  0  0  0  0  0  0
   58.4040   27.4210   44.1160 C   0  0  0  0  0  0  0  0  0  0  0  0
   58.1320   26.6970   42.5350 Cl  0  0  0  0  0  0  0  0  0  0  0  0
   59.3000   28.4750   44.1590 C   0  0  0  0  0  0  0  0  0  0  0  0
   59.5730   29.1110   45.3720 C   0  0  0  0  0  0  0  0  0  0  0  0
   62.1600   31.6110   47.4040 C   0  0  0  0  0  0  0  0  0  0  0  0
   63.0930   32.6210   47.7360 C   0  0  0  0  0  0  0  0  0  0  0  0
   62.8600   33.6960   48.5590 C   0  0  0  0  0  0  0  0  0  0  0  0
   61.6720   34.3010   48.9150 C   0  0  0  0  0  0  0  0  0  0  0  0
   60.4300   33.9180   48.4100 C   0  0  0  0  0  0  0  0  0  0  0  0
   59.5320   34.8050   48.5580 O   0  0  0  0  0  0  0  0  0  0  0  0
   57.2420   31.5610   45.2370 N   0  0  0  0  0  0  0  0  0  0  0  0
   55.7792   29.4741   45.5664 H   0  0  0  0  0  0  0  0  0  0  0  0
   54.9117   29.8144   44.0307 H   0  0  0  0  0  0  0  0  0  0  0  0
   56.3483   28.7361   44.0307 H   0  0  0  0  0  0  0  0  0  0  0  0
   58.1275   32.3207   41.6074 H   0  0  0  0  0  0  0  0  0  0  0  0
   59.0430   33.7829   43.4021 H   0  0  0  0  0  0  0  0  0  0  0  0
   59.5492   33.8809   45.7581 H   0  0  0  0  0  0  0  0  0  0  0  0
   57.8698   34.2930   46.2504 H   0  0  0  0  0  0  0  0  0  0  0  0
   58.3770   31.7130   47.1310 H   0  0  0  0  0  0  0  0  0  0  0  0
   58.1040   33.0950   47.9790 H   0  0  0  0  0  0  0  0  0  0  0  0
   60.9060   29.6910   47.0560 H   0  0  0  0  0  0  0  0  0  0  0  0
   59.7099   28.6123   48.4948 H   0  0  0  0  0  0  0  0  0  0  0  0
   58.2477   29.6899   48.2231 H   0  0  0  0  0  0  0  0  0  0  0  0
   57.5287   27.2548   47.3470 H   0  0  0  0  0  0  0  0  0  0  0  0
   57.0471   26.1253   45.1871 H   0  0  0  0  0  0  0  0  0  0  0  0
   59.7973   28.8119   43.2374 H   0  0  0  0  0  0  0  0  0  0  0  0
   60.2815   29.9506   45.4281 H   0  0  0  0  0  0  0  0  0  0  0  0
   62.5881   30.7427   46.8817 H   0  0  0  0  0  0  0  0  0  0  0  0
   64.0972   32.5381   47.2947 H   0  0  0  0  0  0  0  0  0  0  0  0
   63.7608   34.1443   49.0034 H   0  0  0  0  0  0  0  0  0  0  0  0
   61.7067   35.1306   49.6365 H   0  0  0  0  0  0  0  0  0  0  0  0
  1  2  1  0
  2  3  2  0
  3  4  1  0
  4  5  2  0
  5  6  1  0
  6  7  1  0
  7  8  1  0
  8  9  1  0
  9 10  2  0
 10 11  1  0
 11 12  1  0
 12 13  1  0
 13 14  2  0
 14 15  1  0
 15 16  2  0
 16 17  1  0
 16 18  1  0
 18 19  2  0
 10 20  1  0
 20 21  2  0
 21 22  1  0
 22 23  2  0
 23 24  1  0
 24 25  2  0
  6 26  2  0
 26  2  1  0
 24  9  1  0
 19 13  1  0
  1 27  1  0
  1 28  1  0
  1 29  1  0
  4 30  1  0
  5 31  1  0
  7 32  1  0
  7 33  1  0
  8 34  1  0
  8 35  1  0
 11 36  1  0
 12 37  1  0
 12 38  1  0
 14 39  1  0
 15 40  1  0
 18 41  1  0
 19 42  1  0
 20 43  1  0
 21 44  1  0
 22 45  1  0
 23 46  1  0
M  CHG  1   8   1
M  END
>  <UniqueID>  (37) 
32

>  <SMILES>  (37) 
Cc1nccc(C[NH2+]c2c(NCc3ccc(Cl)cc3)ccccc2=O)n1

>  <Energy>  (37) 
263.00264658961976

>  <Genealogy>  (37) 
Cc1nccc(C[NH2+]c2c(NCc3ccc(Cl)cc3)ccccc2=O)n1 (protonated)
Cc1nccc(C[NH2+]c2c(NCc3ccc(Cl)cc3)ccccc2=O)n1 (3D coordinates assigned)
Cc1nccc(C[NH2+]c2c(NCc3ccc(Cl)cc3)ccccc2=O)n1 (optimized conformer: 263.00264658961976 kcal/mol)

>  <smiles>  (37) 
Cc1nccc(CNc2c(NCc3ccc(Cl)cc3)ccccc2=O)n1

>  <score_type>  (37) 
oracle

>  <origin>  (37) 
adg

>  <m_score__min__energy>  (37) 
-6.0099999999999998

>  <m_primary>  (37) 
energy

$$$$
37:0
     RDKit          3D

 70 73  0  0  0  0  0  0  0  0999 V2000
   66.7870   32.2510   50.5090 C   0  0  0  0  0  0  0  0  0  0  0  0
   66.1240   33.5030   51.0830 C   0  0  0  0  0  0  0  0  0  0  0  0
   64.6410   33.2740   51.4510 C   0  0  1  0  0  0  0  0  0  0  0  0
   64.3600   33.6750   52.9000 C   0  0  0  0  0  0  0  0  0  0  0  0
   63.8030   34.0660   50.6050 O   0  0  0  0  0  0  0  0  0  0  0  0
   63.4990   33.7870   49.2610 C   0  0  0  0  0  0  0  0  0  0  0  0
   62.1820   33.9720   48.8310 C   0  0  0  0  0  0  0  0  0  0  0  0
   61.8310   33.7200   47.4930 C   0  0  0  0  0  0  0  0  0  0  0  0
   60.4750   33.9230   47.0310 N   0  0  0  0  0  0  0  0  0  0  0  0
   59.3610   34.2610   47.9040 C   0  0  0  0  0  0  0  0  0  0  0  0
   58.1160   34.2080   47.0290 C   0  0  0  0  0  0  0  0  0  0  0  0
   58.6240   34.3090   45.5890 C   0  0  2  0  0  0  0  0  0  0  0  0
   57.8560   33.4930   44.7010 O   0  0  0  0  0  0  0  0  0  0  0  0
   57.7850   32.0900   44.7420 C   0  0  0  0  0  0  0  0  0  0  0  0
   58.2440   31.3340   45.8380 C   0  0  0  0  0  0  0  0  0  0  0  0
   58.1350   29.9420   45.8290 C   0  0  0  0  0  0  0  0  0  0  0  0
   57.5740   29.2760   44.7260 C   0  0  0  0  0  0  0  0  0  0  0  0
   57.3960   27.7730   44.7580 C   0  0  1  0  0  0  0  0  0  0  0  0
   58.7290   27.1040   45.1110 C   0  0  0  0  0  0  0  0  0  0  0  0
   56.3730   27.4190   45.7420 N   0  0  0  0  0  0  0  0  0  0  0  0
   55.8500   26.1080   46.0000 C   0  0  0  0  0  0  0  0  0  0  0  0
   54.6120   25.9200   45.8590 O   0  0  0  0  0  0  0  0  0  0  0  0
   56.7320   24.9340   46.3480 C   0  0  0  0  0  0  0  0  0  0  0  0
   56.8340   23.9700   45.1930 C   0  0  0  0  0  0  0  0  0  0  0  0
   55.9200   24.0310   44.1270 C   0  0  0  0  0  0  0  0  0  0  0  0
   56.0150   23.1250   43.0640 C   0  0  0  0  0  0  0  0  0  0  0  0
   57.0130   22.1470   43.0640 C   0  0  0  0  0  0  0  0  0  0  0  0
   57.9190   22.0720   44.1260 C   0  0  0  0  0  0  0  0  0  0  0  0
   57.8320   22.9770   45.1880 C   0  0  0  0  0  0  0  0  0  0  0  0
   57.1080   30.0340   43.6400 C   0  0  0  0  0  0  0  0  0  0  0  0
   57.2180   31.4260   43.6490 C   0  0  0  0  0  0  0  0  0  0  0  0
   60.0670   33.8190   45.6390 C   0  0  0  0  0  0  0  0  0  0  0  0
   62.8320   33.2740   46.6130 C   0  0  0  0  0  0  0  0  0  0  0  0
   64.1330   33.0900   47.0780 C   0  0  0  0  0  0  0  0  0  0  0  0
   64.4440   33.3450   48.3780 N   0  0  0  0  0  0  0  0  0  0  0  0
   67.1283   31.6065   51.3325 H   0  0  0  0  0  0  0  0  0  0  0  0
   66.0612   31.7024   49.8907 H   0  0  0  0  0  0  0  0  0  0  0  0
   67.6486   32.5431   49.8907 H   0  0  0  0  0  0  0  0  0  0  0  0
   66.6691   33.8065   51.9890 H   0  0  0  0  0  0  0  0  0  0  0  0
   66.1585   34.2833   50.3085 H   0  0  0  0  0  0  0  0  0  0  0  0
   64.4297   32.2024   51.3203 H   0  0  0  0  0  0  0  0  0  0  0  0
   64.8565   32.9665   53.5794 H   0  0  0  0  0  0  0  0  0  0  0  0
   64.7463   34.6889   53.0814 H   0  0  0  0  0  0  0  0  0  0  0  0
   63.2752   33.6580   53.0814 H   0  0  0  0  0  0  0  0  0  0  0  0
   61.4169   34.3162   49.5424 H   0  0  0  0  0  0  0  0  0  0  0  0
   59.2833   33.5329   48.7249 H   0  0  0  0  0  0  0  0  0  0  0  0
   59.4920   35.2528   48.3613 H   0  0  0  0  0  0  0  0  0  0  0  0
   57.5789   33.2603   47.1816 H   0  0  0  0  0  0  0  0  0  0  0  0
   57.4121   35.0178   47.2712 H   0  0  0  0  0  0  0  0  0  0  0  0
   58.5410   35.3383   45.2101 H   0  0  0  0  0  0  0  0  0  0  0  0
   58.6905   31.8425   46.7052 H   0  0  0  0  0  0  0  0  0  0  0  0
   58.4914   29.3616   46.6928 H   0  0  0  0  0  0  0  0  0  0  0  0
   57.0725   27.4200   43.7677 H   0  0  0  0  0  0  0  0  0  0  0  0
   58.8344   27.0511   46.2047 H   0  0  0  0  0  0  0  0  0  0  0  0
   58.7518   26.0877   44.6908 H   0  0  0  0  0  0  0  0  0  0  0  0
   59.5575   27.6931   44.6908 H   0  0  0  0  0  0  0  0  0  0  0  0
   57.7378   25.3022   46.5985 H   0  0  0  0  0  0  0  0  0  0  0  0
   56.2887   24.4062   47.2053 H   0  0  0  0  0  0  0  0  0  0  0  0
   55.1271   24.7934   44.1280 H   0  0  0  0  0  0  0  0  0  0  0  0
   55.3030   23.1831   42.2276 H   0  0  0  0  0  0  0  0  0  0  0  0
   57.0858   21.4358   42.2280 H   0  0  0  0  0  0  0  0  0  0  0  0
   58.7019   21.2993   44.1260 H   0  0  0  0  0  0  0  0  0  0  0  0
   58.5457   22.9130   46.0226 H   0  0  0  0  0  0  0  0  0  0  0  0
   56.6530   29.5277   42.7759 H   0  0  0  0  0  0  0  0  0  0  0  0
   56.8551   32.0064   42.7879 H   0  0  0  0  0  0  0  0  0  0  0  0
   60.1285   32.7746   45.2992 H   0  0  0  0  0  0  0  0  0  0  0  0
   60.7185   34.4135   44.9816 H   0  0  0  0  0  0  0  0  0  0  0  0
   62.5892   33.0706   45.5596 H   0  0  0  0  0  0  0  0  0  0  0  0
   64.9141   32.7361   46.3891 H   0  0  0  0  0  0  0  0  0  0  0  0
   65.4300   33.1910   48.6780 H   0  0  0  0  0  0  0  0  0  0  0  0
  1  2  1  0
  2  3  1  0
  3  4  1  0
  3  5  1  0
  5  6  1  0
  6  7  2  0
  7  8  1  0
  8  9  1  0
  9 10  1  0
 10 11  1  0
 11 12  1  0
 12 13  1  0
 13 14  1  0
 14 15  2  0
 15 16  1  0
 16 17  2  0
 17 18  1  0
 18 19  1  0
 18 20  1  0
 20 21  1  0
 21 22  2  0
 21 23  1  0
 23 24  1  0
 24 25  2  0
 25 26  1  0
 26 27  2  0
 27 28  1  0
 28 29  2  0
 17 30  1  0
 30 31  2  0
 12 32  1  0
  8 33  2  0
 33 34  1  0
 34 35  2  0
 35  6  1  0
 32  9  1  0
 31 14  1  0
 29 24  1  0
  1 36  1  0
  1 37  1  0
  1 38  1  0
  2 39  1  0
  2 40  1  0
  3 41  1  1
  4 42  1  0
  4 43  1  0
  4 44  1  0
  7 45  1  0
 10 46  1  0
 10 47  1  0
 11 48  1  0
 11 49  1  0
 12 50  1  6
 15 51  1  0
 16 52  1  0
 18 53  1  6
 19 54  1  0
 19 55  1  0
 19 56  1  0
 23 57  1  0
 23 58  1  0
 25 59  1  0
 26 60  1  0
 27 61  1  0
 28 62  1  0
 29 63  1  0
 30 64  1  0
 31 65  1  0
 32 66  1  0
 32 67  1  0
 33 68  1  0
 34 69  1  0
 35 70  1  0
M  CHG  2  20  -1  35   1
M  END
>  <UniqueID>  (38) 
33

>  <SMILES>  (38) 
CC[C@@H](C)Oc1cc(N2CC[C@H](Oc3ccc(C(C)[N-]C(=O)Cc4ccccc4)cc3)C2)cc[nH+]1

>  <Energy>  (38) 
67.1283171446709

>  <Genealogy>  (38) 
CCC(C)Oc1cc(N2CCC(Oc3ccc(C(C)[N-]C(=O)Cc4ccccc4)cc3)C2)cc[nH+]1 (protonated)
CC[C@@H](C)Oc1cc(N2CC[C@H](Oc3ccc(C(C)[N-]C(=O)Cc4ccccc4)cc3)C2)cc[nH+]1 (chirality)
CC[C@@H](C)Oc1cc(N2CC[C@H](Oc3ccc(C(C)[N-]C(=O)Cc4ccccc4)cc3)C2)cc[nH+]1 (3D coordinates assigned)
CC[C@@H](C)Oc1cc(N2CC[C@H](Oc3ccc(C(C)[N-]C(=O)Cc4ccccc4)cc3)C2)cc[nH+]1 (nonaromatic ring conformer: 67.1283171446709 kcal/mol)

>  <smiles>  (38) 
CCC(C)Oc1cc(N2CCC(Oc3ccc(C(C)NC(=O)Cc4ccccc4)cc3)C2)ccn1

>  <score_type>  (38) 
oracle

>  <origin>  (38) 
adg

>  <m_score__min__energy>  (38) 
-10.460000000000001

>  <m_primary>  (38) 
energy

$$$$
38:0
     RDKit          3D

 40 41  0  0  0  0  0  0  0  0999 V2000
   59.2300   35.0760   45.0780 C   0  0  0  0  0  0  0  0  0  0  0  0
   58.5540   34.1960   45.9710 O   0  0  0  0  0  0  0  0  0  0  0  0
   58.8860   32.8450   46.1640 C   0  0  0  0  0  0  0  0  0  0  0  0
   58.0050   31.8020   45.8190 C   0  0  0  0  0  0  0  0  0  0  0  0
   58.3670   30.4610   46.0330 C   0  0  0  0  0  0  0  0  0  0  0  0
   57.5020   29.3990   45.7080 C   0  0  0  0  0  0  0  0  0  0  0  0
   56.2420   29.6710   45.1650 O   0  0  0  0  0  0  0  0  0  0  0  0
   56.0690   29.8890   43.7700 C   0  0  0  0  0  0  0  0  0  0  0  0
   57.9080   28.0660   45.9390 C   0  0  0  0  0  0  0  0  0  0  0  0
   57.0510   26.9180   45.5570 C   0  0  0  0  0  0  0  0  0  0  0  0
   55.6260   27.0050   45.6300 N   0  0  0  0  0  0  0  0  0  0  0  0
   57.5780   25.8440   45.1610 O   0  0  0  0  0  0  0  0  0  0  0  0
   59.1690   27.8390   46.5150 C   0  0  0  0  0  0  0  0  0  0  0  0
   59.9820   28.8800   46.8300 N   0  0  0  0  0  0  0  0  0  0  0  0
   59.6210   30.1680   46.6070 C   0  0  0  0  0  0  0  0  0  0  0  0
   60.4960   31.2030   46.9490 C   0  0  0  0  0  0  0  0  0  0  0  0
   60.1410   32.5440   46.7150 C   0  0  0  0  0  0  0  0  0  0  0  0
   60.9920   33.6060   47.0590 O   0  0  0  0  0  0  0  0  0  0  0  0
   62.3720   33.5000   47.2840 C   0  0  0  0  0  0  0  0  0  0  0  0
   63.1920   33.7280   46.3520 O   0  0  0  0  0  0  0  0  0  0  0  0
   62.8550   33.1860   48.6010 N   0  0  0  0  0  0  0  0  0  0  0  0
   61.8920   32.9520   49.6800 C   0  0  0  0  0  0  0  0  0  0  0  0
   64.2960   33.0960   48.8490 C   0  0  0  0  0  0  0  0  0  0  0  0
   59.8001   35.8182   45.6561 H   0  0  0  0  0  0  0  0  0  0  0  0
   59.9182   34.4976   44.4441 H   0  0  0  0  0  0  0  0  0  0  0  0
   58.4937   35.5919   44.4441 H   0  0  0  0  0  0  0  0  0  0  0  0
   57.0253   32.0388   45.3783 H   0  0  0  0  0  0  0  0  0  0  0  0
   55.3922   30.7419   43.6133 H   0  0  0  0  0  0  0  0  0  0  0  0
   57.0440   30.1052   43.3090 H   0  0  0  0  0  0  0  0  0  0  0  0
   55.6370   28.9885   43.3090 H   0  0  0  0  0  0  0  0  0  0  0  0
   55.1450   27.9060   45.8380 H   0  0  0  0  0  0  0  0  0  0  0  0
   55.0400   26.1700   45.4040 H   0  0  0  0  0  0  0  0  0  0  0  0
   59.5007   26.8090   46.7126 H   0  0  0  0  0  0  0  0  0  0  0  0
   61.4692   30.9672   47.4044 H   0  0  0  0  0  0  0  0  0  0  0  0
   62.3932   33.0738   50.6516 H   0  0  0  0  0  0  0  0  0  0  0  0
   61.0678   33.6760   49.5993 H   0  0  0  0  0  0  0  0  0  0  0  0
   61.4919   31.9305   49.5993 H   0  0  0  0  0  0  0  0  0  0  0  0
   64.4814   33.0844   49.9332 H   0  0  0  0  0  0  0  0  0  0  0  0
   64.6883   32.1716   48.4000 H   0  0  0  0  0  0  0  0  0  0  0  0
   64.8003   33.9644   48.4000 H   0  0  0  0  0  0  0  0  0  0  0  0
  1  2  1  0
  2  3  1  0
  3  4  2  0
  4  5  1  0
  5  6  2  0
  6  7  1  0
  7  8  1  0
  6  9  1  0
  9 10  1  0
 10 11  1  0
 10 12  2  0
  9 13  2  0
 13 14  1  0
 14 15  2  0
 15 16  1  0
 16 17  2  0
 17 18  1  0
 18 19  1  0
 19 20  2  0
 19 21  1  0
 21 22  1  0
 21 23  1  0
 17  3  1  0
 15  5  1  0
  1 24  1  0
  1 25  1  0
  1 26  1  0
  4 27  1  0
  8 28  1  0
  8 29  1  0
  8 30  1  0
 11 31  1  0
 11 32  1  0
 13 33  1  0
 16 34  1  0
 22 35  1  0
 22 36  1  0
 22 37  1  0
 23 38  1  0
 23 39  1  0
 23 40  1  0
M  END
>  <UniqueID>  (39) 
34

>  <SMILES>  (39) 
COc1cc2c(OC)c(C(N)=O)cnc2cc1OC(=O)N(C)C

>  <Energy>  (39) 
52.762807327979736

>  <Genealogy>  (39) 
COc1cc2c(OC)c(C(N)=O)cnc2cc1OC(=O)N(C)C (3D coordinates assigned)
COc1cc2c(OC)c(C(N)=O)cnc2cc1OC(=O)N(C)C (optimized conformer: 52.762807327979736 kcal/mol)

>  <smiles>  (39) 
COc1cc2c(OC)c(C(N)=O)cnc2cc1OC(=O)N(C)C

>  <score_type>  (39) 
oracle

>  <origin>  (39) 
adg

>  <m_score__min__energy>  (39) 
-6.4000000000000004

>  <m_primary>  (39) 
energy

$$$$
39:0
     RDKit          3D

 25 25  0  0  0  0  0  0  0  0999 V2000
   59.2880   34.8990   47.2630 C   0  0  0  0  0  0  0  0  0  0  0  0
   58.6160   34.2170   45.7650 S   0  0  0  0  0  0  0  0  0  0  0  0
   57.1710   34.6100   45.6370 O   0  0  0  0  0  0  0  0  0  0  0  0
   59.3690   34.7610   44.5840 O   0  0  0  0  0  0  0  0  0  0  0  0
   58.7540   32.4620   45.8090 C   0  0  0  0  0  0  0  0  0  0  0  0
   59.8410   31.8580   46.4460 C   0  0  0  0  0  0  0  0  0  0  0  0
   59.9400   30.4680   46.4950 C   0  0  0  0  0  0  0  0  0  0  0  0
   58.9540   29.6570   45.9110 C   0  0  0  0  0  0  0  0  0  0  0  0
   59.0950   28.2310   45.9960 N   0  0  0  0  0  0  0  0  0  0  0  0
   57.8490   30.2640   45.2640 C   0  0  0  0  0  0  0  0  0  0  0  0
   56.5710   29.3030   44.5050 S   0  0  0  0  0  0  0  0  0  0  0  0
   56.9920   28.8920   42.8780 N   0  0  0  0  0  0  0  0  0  0  0  0
   55.2950   30.0970   44.4870 O   0  0  0  0  0  0  0  0  0  0  0  0
   56.3670   28.0340   45.2850 O   0  0  0  0  0  0  0  0  0  0  0  0
   57.7600   31.6660   45.2290 C   0  0  0  0  0  0  0  0  0  0  0  0
   58.8133   34.4172   48.1305 H   0  0  0  0  0  0  0  0  0  0  0  0
   60.3730   34.7205   47.2927 H   0  0  0  0  0  0  0  0  0  0  0  0
   59.0935   35.9813   47.2927 H   0  0  0  0  0  0  0  0  0  0  0  0
   60.6204   32.4804   46.9099 H   0  0  0  0  0  0  0  0  0  0  0  0
   60.8005   30.0016   46.9970 H   0  0  0  0  0  0  0  0  0  0  0  0
   59.8560   27.7730   46.5410 H   0  0  0  0  0  0  0  0  0  0  0  0
   58.4310   27.6050   45.4900 H   0  0  0  0  0  0  0  0  0  0  0  0
   57.9810   29.1990   42.7300 H   0  0  0  0  0  0  0  0  0  0  0  0
   56.9920   27.8490   42.8170 H   0  0  0  0  0  0  0  0  0  0  0  0
   56.8983   32.1436   44.7396 H   0  0  0  0  0  0  0  0  0  0  0  0
  1  2  1  0
  2  3  2  0
  2  4  2  0
  2  5  1  0
  5  6  2  0
  6  7  1  0
  7  8  2  0
  8  9  1  0
  8 10  1  0
 10 11  1  0
 11 12  1  0
 11 13  2  0
 11 14  2  0
 10 15  2  0
 15  5  1  0
  1 16  1  0
  1 17  1  0
  1 18  1  0
  6 19  1  0
  7 20  1  0
  9 21  1  0
  9 22  1  0
 12 23  1  0
 12 24  1  0
 15 25  1  0
M  END
>  <UniqueID>  (40) 
35

>  <SMILES>  (40) 
CS(=O)(=O)c1ccc(N)c(S(N)(=O)=O)c1

>  <Energy>  (40) 
20.839072803480146

>  <Genealogy>  (40) 
CS(=O)(=O)c1ccc(N)c(S(N)(=O)=O)c1 (3D coordinates assigned)
CS(=O)(=O)c1ccc(N)c(S(N)(=O)=O)c1 (optimized conformer: 20.839072803480146 kcal/mol)

>  <smiles>  (40) 
CS(=O)(=O)c1ccc(N)c(S(N)(=O)=O)c1

>  <score_type>  (40) 
oracle

>  <origin>  (40) 
adg

>  <m_score__min__energy>  (40) 
-6.5899999999999999

>  <m_primary>  (40) 
energy

$$$$
40:0
     RDKit          3D

 48 50  0  0  0  0  0  0  0  0999 V2000
   54.7830   26.3370   45.9880 N   0  0  0  0  0  0  0  0  0  0  0  0
   56.2630   25.4710   46.2030 S   0  0  0  0  0  0  0  0  0  0  0  0
   56.4320   24.5020   45.0680 O   0  0  0  0  0  0  0  0  0  0  0  0
   56.2170   24.7050   47.4950 O   0  0  0  0  0  0  0  0  0  0  0  0
   57.6100   26.6040   46.2470 C   0  0  0  0  0  0  0  0  0  0  0  0
   58.9230   26.1700   46.0170 C   0  0  0  0  0  0  0  0  0  0  0  0
   59.9830   27.0800   46.0670 C   0  0  0  0  0  0  0  0  0  0  0  0
   59.7410   28.4400   46.3310 C   0  0  0  0  0  0  0  0  0  0  0  0
   60.8870   29.4170   46.4070 C   0  0  0  0  0  0  0  0  0  0  0  0
   60.9120   30.2230   47.7230 C   0  0  0  0  0  0  0  0  0  0  0  0
   61.7780   31.4190   47.6690 N   0  0  0  0  0  0  0  0  0  0  0  0
   61.1360   32.6690   48.1220 C   0  0  0  0  0  0  0  0  0  0  0  0
   60.2240   33.2750   47.0790 C   0  0  0  0  0  0  0  0  0  0  0  0
   60.1690   34.6660   46.9010 C   0  0  0  0  0  0  0  0  0  0  0  0
   59.3750   35.2160   45.8930 C   0  0  0  0  0  0  0  0  0  0  0  0
   58.6240   34.3850   45.0580 C   0  0  0  0  0  0  0  0  0  0  0  0
   58.6440   32.9920   45.2390 C   0  0  0  0  0  0  0  0  0  0  0  0
   57.8480   32.1100   44.3540 C   0  0  0  0  0  0  0  0  0  0  0  0
   57.8930   32.2760   42.9570 C   0  0  0  0  0  0  0  0  0  0  0  0
   57.1370   31.4490   42.1220 C   0  0  0  0  0  0  0  0  0  0  0  0
   56.3210   30.4570   42.6710 C   0  0  0  0  0  0  0  0  0  0  0  0
   56.2640   30.2860   44.0560 C   0  0  0  0  0  0  0  0  0  0  0  0
   55.4550   29.3360   44.5870 F   0  0  0  0  0  0  0  0  0  0  0  0
   57.0320   31.0990   44.8960 C   0  0  0  0  0  0  0  0  0  0  0  0
   59.4360   32.4460   46.2630 C   0  0  0  0  0  0  0  0  0  0  0  0
   58.4260   28.8660   46.5730 C   0  0  0  0  0  0  0  0  0  0  0  0
   57.3680   27.9540   46.5260 C   0  0  0  0  0  0  0  0  0  0  0  0
   54.7590   27.0920   46.7090 H   0  0  0  0  0  0  0  0  0  0  0  0
   59.1197   25.1104   45.7966 H   0  0  0  0  0  0  0  0  0  0  0  0
   61.0123   26.7303   45.8989 H   0  0  0  0  0  0  0  0  0  0  0  0
   61.8300   28.8571   46.3219 H   0  0  0  0  0  0  0  0  0  0  0  0
   60.7583   30.1367   45.5851 H   0  0  0  0  0  0  0  0  0  0  0  0
   59.8859   30.5469   47.9517 H   0  0  0  0  0  0  0  0  0  0  0  0
   61.3250   29.5610   48.4984 H   0  0  0  0  0  0  0  0  0  0  0  0
   62.6400   31.2600   48.2400 H   0  0  0  0  0  0  0  0  0  0  0  0
   62.1000   31.5480   46.6800 H   0  0  0  0  0  0  0  0  0  0  0  0
   60.5433   32.4524   49.0230 H   0  0  0  0  0  0  0  0  0  0  0  0
   61.9362   33.3965   48.3228 H   0  0  0  0  0  0  0  0  0  0  0  0
   60.7541   35.3258   47.5586 H   0  0  0  0  0  0  0  0  0  0  0  0
   59.3406   36.3069   45.7558 H   0  0  0  0  0  0  0  0  0  0  0  0
   58.0139   34.8237   44.2547 H   0  0  0  0  0  0  0  0  0  0  0  0
   58.5271   33.0614   42.5199 H   0  0  0  0  0  0  0  0  0  0  0  0
   57.1845   31.5793   41.0308 H   0  0  0  0  0  0  0  0  0  0  0  0
   55.7230   29.8102   42.0122 H   0  0  0  0  0  0  0  0  0  0  0  0
   56.9982   30.9477   45.9850 H   0  0  0  0  0  0  0  0  0  0  0  0
   59.4392   31.3584   46.4275 H   0  0  0  0  0  0  0  0  0  0  0  0
   58.2268   29.9235   46.8009 H   0  0  0  0  0  0  0  0  0  0  0  0
   56.3397   28.2990   46.7092 H   0  0  0  0  0  0  0  0  0  0  0  0
  1  2  1  0
  2  3  2  0
  2  4  2  0
  2  5  1  0
  5  6  2  0
  6  7  1  0
  7  8  2  0
  8  9  1  0
  9 10  1  0
 10 11  1  0
 11 12  1  0
 12 13  1  0
 13 14  2  0
 14 15  1  0
 15 16  2  0
 16 17  1  0
 17 18  1  0
 18 19  2  0
 19 20  1  0
 20 21  2  0
 21 22  1  0
 22 23  1  0
 22 24  2  0
 17 25  2  0
  8 26  1  0
 26 27  2  0
 27  5  1  0
 25 13  1  0
 24 18  1  0
  1 28  1  0
  6 29  1  0
  7 30  1  0
  9 31  1  0
  9 32  1  0
 10 33  1  0
 10 34  1  0
 11 35  1  0
 11 36  1  0
 12 37  1  0
 12 38  1  0
 14 39  1  0
 15 40  1  0
 16 41  1  0
 19 42  1  0
 20 43  1  0
 21 44  1  0
 24 45  1  0
 25 46  1  0
 26 47  1  0
 27 48  1  0
M  CHG  2   1  -1  11   1
M  END
>  <UniqueID>  (41) 
36

>  <SMILES>  (41) 
[NH-]S(=O)(=O)c1ccc(CC[NH2+]Cc2cccc(-c3cccc(F)c3)c2)cc1

>  <Energy>  (41) 
51.914617828393965

>  <Genealogy>  (41) 
[NH-]S(=O)(=O)c1ccc(CC[NH2+]Cc2cccc(-c3cccc(F)c3)c2)cc1 (protonated)
[NH-]S(=O)(=O)c1ccc(CC[NH2+]Cc2cccc(-c3cccc(F)c3)c2)cc1 (3D coordinates assigned)
[NH-]S(=O)(=O)c1ccc(CC[NH2+]Cc2cccc(-c3cccc(F)c3)c2)cc1 (optimized conformer: 51.914617828393965 kcal/mol)

>  <smiles>  (41) 
NS(=O)(=O)c1ccc(CCNCc2cccc(-c3cccc(F)c3)c2)cc1

>  <score_type>  (41) 
oracle

>  <origin>  (41) 
adg

>  <m_score__min__energy>  (41) 
-10.800000000000001

>  <m_primary>  (41) 
energy

$$$$
41:0
     RDKit          3D

 49 51  0  0  0  0  0  0  0  0999 V2000
   59.6820   33.7770   50.3440 C   0  0  0  0  0  0  0  0  0  0  0  0
   60.9330   33.1010   50.4260 O   0  0  0  0  0  0  0  0  0  0  0  0
   61.9080   33.0970   49.4150 C   0  0  0  0  0  0  0  0  0  0  0  0
   62.7770   34.1930   49.2250 C   0  0  0  0  0  0  0  0  0  0  0  0
   63.7070   34.1880   48.1840 C   0  0  0  0  0  0  0  0  0  0  0  0
   63.7810   33.0980   47.3170 C   0  0  0  0  0  0  0  0  0  0  0  0
   62.9350   32.0040   47.4950 C   0  0  0  0  0  0  0  0  0  0  0  0
   62.0060   31.9810   48.5500 C   0  0  0  0  0  0  0  0  0  0  0  0
   61.1390   30.7930   48.7210 C   0  0  0  0  0  0  0  0  0  0  0  0
   60.9430   30.3330   49.8790 O   0  0  0  0  0  0  0  0  0  0  0  0
   60.4800   30.2010   47.5890 N   0  0  0  0  0  0  0  0  0  0  0  0
   59.8790   28.8950   47.6060 C   0  0  0  0  0  0  0  0  0  0  0  0
   60.0000   28.1520   48.6180 O   0  0  0  0  0  0  0  0  0  0  0  0
   59.1240   28.4150   46.4240 C   0  0  0  0  0  0  0  0  0  0  0  0
   58.1500   29.2580   45.8640 C   0  0  0  0  0  0  0  0  0  0  0  0
   57.4580   28.8900   44.7060 C   0  0  0  0  0  0  0  0  0  0  0  0
   56.3280   30.0050   43.9430 S   0  0  0  0  0  0  0  0  0  0  0  0
   54.9540   29.4030   43.8460 O   0  0  0  0  0  0  0  0  0  0  0  0
   56.8100   30.3100   42.5520 O   0  0  0  0  0  0  0  0  0  0  0  0
   56.2670   31.4780   44.8560 N   0  0  0  0  0  0  0  0  0  0  0  0
   57.3920   32.3130   45.1650 C   0  0  0  0  0  0  0  0  0  0  0  0
   57.8400   32.3710   46.4910 C   0  0  0  0  0  0  0  0  0  0  0  0
   58.9240   33.1850   46.8380 C   0  0  0  0  0  0  0  0  0  0  0  0
   59.5720   33.9430   45.8590 C   0  0  0  0  0  0  0  0  0  0  0  0
   60.6200   34.7330   46.1970 F   0  0  0  0  0  0  0  0  0  0  0  0
   59.1410   33.8830   44.5310 C   0  0  0  0  0  0  0  0  0  0  0  0
   58.0580   33.0690   44.1820 C   0  0  0  0  0  0  0  0  0  0  0  0
   57.7070   27.6450   44.1200 C   0  0  0  0  0  0  0  0  0  0  0  0
   58.6460   26.7790   44.6820 C   0  0  0  0  0  0  0  0  0  0  0  0
   59.3780   27.1550   45.8220 C   0  0  0  0  0  0  0  0  0  0  0  0
   60.4170   26.2090   46.3620 C   0  0  0  0  0  0  0  0  0  0  0  0
   59.3074   33.9794   51.3583 H   0  0  0  0  0  0  0  0  0  0  0  0
   59.8132   34.7270   49.8052 H   0  0  0  0  0  0  0  0  0  0  0  0
   58.9592   33.1467   49.8052 H   0  0  0  0  0  0  0  0  0  0  0  0
   62.7209   35.0578   49.9025 H   0  0  0  0  0  0  0  0  0  0  0  0
   64.3826   35.0452   48.0472 H   0  0  0  0  0  0  0  0  0  0  0  0
   64.5079   33.1014   46.4914 H   0  0  0  0  0  0  0  0  0  0  0  0
   62.9950   31.1508   46.8033 H   0  0  0  0  0  0  0  0  0  0  0  0
   60.4480   30.7470   46.6990 H   0  0  0  0  0  0  0  0  0  0  0  0
   57.9282   30.2226   46.3438 H   0  0  0  0  0  0  0  0  0  0  0  0
   57.3363   31.7727   47.2646 H   0  0  0  0  0  0  0  0  0  0  0  0
   59.2664   33.2283   47.8825 H   0  0  0  0  0  0  0  0  0  0  0  0
   59.6537   34.4762   43.7595 H   0  0  0  0  0  0  0  0  0  0  0  0
   57.7254   33.0195   43.1346 H   0  0  0  0  0  0  0  0  0  0  0  0
   57.1608   27.3472   43.2128 H   0  0  0  0  0  0  0  0  0  0  0  0
   58.8153   25.7914   44.2281 H   0  0  0  0  0  0  0  0  0  0  0  0
   60.3950   26.2290   47.4616 H   0  0  0  0  0  0  0  0  0  0  0  0
   60.2030   25.1892   46.0095 H   0  0  0  0  0  0  0  0  0  0  0  0
   61.4123   26.5175   46.0095 H   0  0  0  0  0  0  0  0  0  0  0  0
  1  2  1  0
  2  3  1  0
  3  4  2  0
  4  5  1  0
  5  6  2  0
  6  7  1  0
  7  8  2  0
  8  9  1  0
  9 10  2  0
  9 11  1  0
 11 12  1  0
 12 13  2  0
 12 14  1  0
 14 15  2  0
 15 16  1  0
 16 17  1  0
 17 18  2  0
 17 19  2  0
 17 20  1  0
 20 21  1  0
 21 22  2  0
 22 23  1  0
 23 24  2  0
 24 25  1  0
 24 26  1  0
 26 27  2  0
 16 28  2  0
 28 29  1  0
 29 30  2  0
 30 31  1  0
  8  3  1  0
 30 14  1  0
 27 21  1  0
  1 32  1  0
  1 33  1  0
  1 34  1  0
  4 35  1  0
  5 36  1  0
  6 37  1  0
  7 38  1  0
 11 39  1  0
 15 40  1  0
 22 41  1  0
 23 42  1  0
 26 43  1  0
 27 44  1  0
 28 45  1  0
 29 46  1  0
 31 47  1  0
 31 48  1  0
 31 49  1  0
M  CHG  1  20  -1
M  END
>  <UniqueID>  (42) 
37

>  <SMILES>  (42) 
COc1ccccc1C(=O)NC(=O)c1cc(S(=O)(=O)[N-]c2ccc(F)cc2)ccc1C

>  <Energy>  (42) 
62.4756796934177

>  <Genealogy>  (42) 
COc1ccccc1C(=O)NC(=O)c1cc(S(=O)(=O)[N-]c2ccc(F)cc2)ccc1C (protonated)
COc1ccccc1C(=O)NC(=O)c1cc(S(=O)(=O)[N-]c2ccc(F)cc2)ccc1C (3D coordinates assigned)
COc1ccccc1C(=O)NC(=O)c1cc(S(=O)(=O)[N-]c2ccc(F)cc2)ccc1C (optimized conformer: 62.4756796934177 kcal/mol)

>  <smiles>  (42) 
COc1ccccc1C(=O)NC(=O)c1cc(S(=O)(=O)Nc2ccc(F)cc2)ccc1C

>  <score_type>  (42) 
oracle

>  <origin>  (42) 
adg

>  <m_score__min__energy>  (42) 
-10.41

>  <m_primary>  (42) 
energy

$$$$
42:0
     RDKit          3D

 75 79  0  0  0  0  0  0  0  0999 V2000
   57.1018   26.1415   44.1339 H   0  0  0  0  0  0  0  0  0  0  0  0
   56.7580   25.1830   44.5500 C   0  0  0  0  0  0  0  0  0  0  0  0
   56.7440   24.0450   43.7420 C   0  0  0  0  0  0  0  0  0  0  0  0
   57.0803   24.1122   42.6968 H   0  0  0  0  0  0  0  0  0  0  0  0
   56.3020   22.8120   44.2570 C   0  0  0  0  0  0  0  0  0  0  0  0
   56.2750   21.6450   43.4780 O   0  0  0  0  0  0  0  0  0  0  0  0
   57.4080   21.0950   42.8120 C   0  0  0  0  0  0  0  0  0  0  0  0
   58.1357   20.7417   43.5574 H   0  0  0  0  0  0  0  0  0  0  0  0
   57.0893   20.2513   42.1822 H   0  0  0  0  0  0  0  0  0  0  0  0
   57.8738   21.8673   42.1822 H   0  0  0  0  0  0  0  0  0  0  0  0
   55.8690   22.7350   45.5890 C   0  0  0  0  0  0  0  0  0  0  0  0
   55.4540   21.4900   46.0870 O   0  0  0  0  0  0  0  0  0  0  0  0
   54.1030   21.0340   46.0770 C   0  0  0  0  0  0  0  0  0  0  0  0
   53.6484   21.2588   45.1009 H   0  0  0  0  0  0  0  0  0  0  0  0
   54.0837   19.9482   46.2522 H   0  0  0  0  0  0  0  0  0  0  0  0
   53.3130   21.7390   47.1800 C   0  0  0  0  0  0  0  0  0  0  0  0
   52.8635   20.9722   47.8280 H   0  0  0  0  0  0  0  0  0  0  0  0
   54.0230   22.3842   47.7181 H   0  0  0  0  0  0  0  0  0  0  0  0
   52.1830   22.6560   46.6550 C   0  0  0  0  0  0  0  0  0  0  0  0
   51.2230   22.2043   46.9455 H   0  0  0  0  0  0  0  0  0  0  0  0
   52.3752   23.6426   47.1019 H   0  0  0  0  0  0  0  0  0  0  0  0
   52.1490   22.8860   45.1900 N   0  0  0  0  0  0  0  0  0  0  0  0
   52.8730   24.0860   44.7470 C   0  0  0  0  0  0  0  0  0  0  0  0
   53.2151   24.6530   45.6254 H   0  0  0  0  0  0  0  0  0  0  0  0
   53.7419   23.7876   44.1421 H   0  0  0  0  0  0  0  0  0  0  0  0
   52.2039   24.7155   44.1421 H   0  0  0  0  0  0  0  0  0  0  0  0
   50.8040   22.8030   44.5990 C   0  0  0  0  0  0  0  0  0  0  0  0
   50.0531   22.7567   45.4015 H   0  0  0  0  0  0  0  0  0  0  0  0
   50.6214   23.6916   43.9768 H   0  0  0  0  0  0  0  0  0  0  0  0
   50.7320   21.8987   43.9768 H   0  0  0  0  0  0  0  0  0  0  0  0
   55.8630   23.8950   46.3880 C   0  0  0  0  0  0  0  0  0  0  0  0
   55.4814   23.8441   47.4184 H   0  0  0  0  0  0  0  0  0  0  0  0
   56.3400   25.1180   45.8820 C   0  0  0  0  0  0  0  0  0  0  0  0
   56.3340   26.3310   46.6570 N   0  0  0  0  0  0  0  0  0  0  0  0
   57.2750   27.2260   46.7500 C   0  0  0  0  0  0  0  0  0  0  0  0
   57.3910   28.2340   45.8450 N   0  0  0  0  0  0  0  0  0  0  0  0
   58.3780   29.1560   45.9670 C   0  0  0  0  0  0  0  0  0  0  0  0
   58.4910   30.1790   45.0170 O   0  0  0  0  0  0  0  0  0  0  0  0
   58.3640   31.5380   45.3360 C   0  0  0  0  0  0  0  0  0  0  0  0
   57.2380   32.2210   44.8610 C   0  0  0  0  0  0  0  0  0  0  0  0
   56.4532   31.6695   44.3226 H   0  0  0  0  0  0  0  0  0  0  0  0
   57.1020   33.5940   45.0640 C   0  0  0  0  0  0  0  0  0  0  0  0
   56.2140   34.1189   44.6819 H   0  0  0  0  0  0  0  0  0  0  0  0
   58.0880   34.3050   45.7500 C   0  0  0  0  0  0  0  0  0  0  0  0
   57.9887   35.3922   45.8843 H   0  0  0  0  0  0  0  0  0  0  0  0
   59.2050   33.6340   46.2680 C   0  0  0  0  0  0  0  0  0  0  0  0
   60.1920   34.3330   46.9710 C   0  0  0  0  0  0  0  0  0  0  0  0
   60.1066   35.4216   47.1043 H   0  0  0  0  0  0  0  0  0  0  0  0
   61.2830   33.6490   47.5020 C   0  0  0  0  0  0  0  0  0  0  0  0
   62.0676   34.1963   48.0451 H   0  0  0  0  0  0  0  0  0  0  0  0
   61.3760   32.2610   47.3410 C   0  0  0  0  0  0  0  0  0  0  0  0
   62.5210   31.5050   47.9460 C   0  0  0  0  0  0  0  0  0  0  0  0
   62.4518   31.5507   49.0429 H   0  0  0  0  0  0  0  0  0  0  0  0
   62.4807   30.4554   47.6195 H   0  0  0  0  0  0  0  0  0  0  0  0
   63.4704   31.9544   47.6195 H   0  0  0  0  0  0  0  0  0  0  0  0
   60.3950   31.5870   46.6740 N   0  0  0  0  0  0  0  0  0  0  0  0
   60.4600   30.5450   46.6280 H   0  0  0  0  0  0  0  0  0  0  0  0
   59.3380   32.2360   46.0930 C   0  0  0  0  0  0  0  0  0  0  0  0
   59.2460   29.0750   47.0070 N   0  0  0  0  0  0  0  0  0  0  0  0
   59.1230   28.0950   47.9380 C   0  0  0  0  0  0  0  0  0  0  0  0
   60.0110   28.0600   49.0750 N   0  0  0  0  0  0  0  0  0  0  0  0
   60.5310   29.3180   49.6260 C   0  0  0  0  0  0  0  0  0  0  0  0
   61.3584   29.6737   48.9944 H   0  0  0  0  0  0  0  0  0  0  0  0
   59.7175   30.0583   49.6438 H   0  0  0  0  0  0  0  0  0  0  0  0
   61.0420   29.1150   51.0560 C   0  0  0  0  0  0  0  0  0  0  0  0
   61.5787   30.0195   51.3784 H   0  0  0  0  0  0  0  0  0  0  0  0
   60.1806   28.9243   51.7130 H   0  0  0  0  0  0  0  0  0  0  0  0
   61.9180   28.0070   51.1270 O   0  0  0  0  0  0  0  0  0  0  0  0
   61.1990   26.8220   50.8500 C   0  0  0  0  0  0  0  0  0  0  0  0
   61.8549   25.9550   51.0175 H   0  0  0  0  0  0  0  0  0  0  0  0
   60.3252   26.7764   51.5167 H   0  0  0  0  0  0  0  0  0  0  0  0
   60.7100   26.8080   49.4000 C   0  0  0  0  0  0  0  0  0  0  0  0
   61.5737   26.6920   48.7288 H   0  0  0  0  0  0  0  0  0  0  0  0
   60.0107   25.9688   49.2708 H   0  0  0  0  0  0  0  0  0  0  0  0
   58.1340   27.1710   47.8010 N   0  0  0  0  0  0  0  0  0  0  0  0
  1  2  1  0
  2  3  2  0
  3  4  1  0
  3  5  1  0
  5  6  1  0
  6  7  1  0
  7  8  1  0
  7  9  1  0
  7 10  1  0
  5 11  2  0
 11 12  1  0
 12 13  1  0
 13 14  1  0
 13 15  1  0
 13 16  1  0
 16 17  1  0
 16 18  1  0
 16 19  1  0
 19 20  1  0
 19 21  1  0
 19 22  1  0
 22 23  1  0
 23 24  1  0
 23 25  1  0
 23 26  1  0
 22 27  1  0
 27 28  1  0
 27 29  1  0
 27 30  1  0
 11 31  1  0
 31 32  1  0
 31 33  2  0
 33 34  1  0
 34 35  2  0
 35 36  1  0
 36 37  2  0
 37 38  1  0
 38 39  1  0
 39 40  2  0
 40 41  1  0
 40 42  1  0
 42 43  1  0
 42 44  2  0
 44 45  1  0
 44 46  1  0
 46 47  2  0
 47 48  1  0
 47 49  1  0
 49 50  1  0
 49 51  2  0
 51 52  1  0
 52 53  1  0
 52 54  1  0
 52 55  1  0
 51 56  1  0
 56 57  1  0
 56 58  2  0
 37 59  1  0
 59 60  1  0
 60 61  1  0
 61 62  1  0
 62 63  1  0
 62 64  1  0
 62 65  1  0
 65 66  1  0
 65 67  1  0
 65 68  1  0
 68 69  1  0
 69 70  1  0
 69 71  1  0
 69 72  1  0
 72 73  1  0
 72 74  1  0
 60 75  2  0
 33  2  1  0
 75 35  1  0
 58 39  1  0
 72 61  1  0
 58 46  1  0
M  CHG  2  56   1  59  -1
M  END
>  <UniqueID>  (43) 
38

>  <SMILES>  (43) 
COc1ccc(/N=c2\nc(Oc3cccc4ccc(C)[nH+]c34)[n-]c(N3CCOCC3)n2)cc1OCCCN(C)C

>  <Energy>  (43) 
98.3144793960246

>  <Genealogy>  (43) 
COc1ccc(N=c2nc(Oc3cccc4ccc(C)[nH+]c34)[n-]c(N3CCOCC3)n2)cc1OCCCN(C)C (protonated)
COc1ccc(/N=c2\nc(Oc3cccc4ccc(C)[nH+]c34)[n-]c(N3CCOCC3)n2)cc1OCCCN(C)C (cis-trans isomerization)
COc1ccc(/N=c2\nc(Oc3cccc4ccc(C)[nH+]c34)[n-]c(N3CCOCC3)n2)cc1OCCCN(C)C (3D coordinates assigned)
COc1ccc(/N=c2\nc(Oc3cccc4ccc(C)[nH+]c34)[n-]c(N3CCOCC3)n2)cc1OCCCN(C)C (nonaromatic ring conformer: 98.3144793960246 kcal/mol)

>  <smiles>  (43) 
COc1ccc(N=c2nc(Oc3cccc4ccc(C)nc34)[nH]c(N3CCOCC3)n2)cc1OCCCN(C)C

>  <score_type>  (43) 
oracle

>  <origin>  (43) 
adg

>  <m_score__min__energy>  (43) 
-9.0700000000000003

>  <m_primary>  (43) 
energy

$$$$
43:0
     RDKit          3D

 60 62  0  0  0  0  0  0  0  0999 V2000
   66.4900   31.3550   51.5830 C   0  0  0  0  0  0  0  0  0  0  0  0
   65.7730   32.0610   50.4750 C   0  0  0  0  0  0  0  0  0  0  0  0
   66.4240   32.8140   49.7050 O   0  0  0  0  0  0  0  0  0  0  0  0
   64.3560   31.9020   50.3260 N   0  0  0  0  0  0  0  0  0  0  0  0
   63.5640   32.5210   49.2970 C   0  0  0  0  0  0  0  0  0  0  0  0
   63.7140   32.1890   47.9380 C   0  0  0  0  0  0  0  0  0  0  0  0
   62.9630   32.8490   46.9620 C   0  0  0  0  0  0  0  0  0  0  0  0
   62.0470   33.8480   47.3260 C   0  0  0  0  0  0  0  0  0  0  0  0
   61.2880   34.5700   46.3450 N   0  0  0  0  0  0  0  0  0  0  0  0
   59.8600   34.7040   46.3310 C   0  0  0  0  0  0  0  0  0  0  0  0
   59.3460   35.7260   46.8590 O   0  0  0  0  0  0  0  0  0  0  0  0
   58.9820   33.7040   45.6770 C   0  0  0  0  0  0  0  0  0  0  0  0
   58.8950   33.6280   44.2750 C   0  0  0  0  0  0  0  0  0  0  0  0
   58.0730   32.6750   43.6680 C   0  0  0  0  0  0  0  0  0  0  0  0
   57.3080   31.7960   44.4500 C   0  0  0  0  0  0  0  0  0  0  0  0
   56.4500   30.7510   43.7960 C   0  0  0  0  0  0  0  0  0  0  0  0
   55.9330   29.8380   44.8190 N   0  0  0  0  0  0  0  0  0  0  0  0
   57.0150   28.4980   45.0730 S   0  0  0  0  0  0  0  0  0  0  0  0
   56.2440   27.3420   45.6420 O   0  0  0  0  0  0  0  0  0  0  0  0
   57.6160   28.0710   43.7630 O   0  0  0  0  0  0  0  0  0  0  0  0
   58.2870   28.9610   46.2000 C   0  0  0  0  0  0  0  0  0  0  0  0
   58.1670   28.6630   47.5630 C   0  0  0  0  0  0  0  0  0  0  0  0
   59.1990   28.9900   48.4460 C   0  0  0  0  0  0  0  0  0  0  0  0
   60.3640   29.6200   47.9770 C   0  0  0  0  0  0  0  0  0  0  0  0
   61.4900   29.9580   48.9320 C   0  0  0  0  0  0  0  0  0  0  0  0
   61.0950   29.9210   50.3600 N   0  0  0  0  0  0  0  0  0  0  0  0
   60.4190   31.1560   50.7920 C   0  0  0  0  0  0  0  0  0  0  0  0
   62.2210   29.6000   51.2570 C   0  0  0  0  0  0  0  0  0  0  0  0
   60.4730   29.9310   46.6130 C   0  0  0  0  0  0  0  0  0  0  0  0
   59.4440   29.5950   45.7300 C   0  0  0  0  0  0  0  0  0  0  0  0
   57.3940   31.8700   45.8480 C   0  0  0  0  0  0  0  0  0  0  0  0
   58.2150   32.8230   46.4570 C   0  0  0  0  0  0  0  0  0  0  0  0
   61.8400   34.1220   48.6830 C   0  0  0  0  0  0  0  0  0  0  0  0
   62.5890   33.4620   49.6610 C   0  0  0  0  0  0  0  0  0  0  0  0
   66.1186   31.7207   52.5517 H   0  0  0  0  0  0  0  0  0  0  0  0
   66.3090   30.2727   51.5058 H   0  0  0  0  0  0  0  0  0  0  0  0
   67.5693   31.5527   51.5058 H   0  0  0  0  0  0  0  0  0  0  0  0
   63.8520   31.4010   51.0940 H   0  0  0  0  0  0  0  0  0  0  0  0
   64.4268   31.4052   47.6421 H   0  0  0  0  0  0  0  0  0  0  0  0
   63.0905   32.5840   45.9020 H   0  0  0  0  0  0  0  0  0  0  0  0
   59.4777   34.3231   43.6527 H   0  0  0  0  0  0  0  0  0  0  0  0
   58.0252   32.6134   42.5708 H   0  0  0  0  0  0  0  0  0  0  0  0
   55.6095   31.2369   43.2787 H   0  0  0  0  0  0  0  0  0  0  0  0
   57.0495   30.1858   43.0672 H   0  0  0  0  0  0  0  0  0  0  0  0
   57.2582   28.1704   47.9392 H   0  0  0  0  0  0  0  0  0  0  0  0
   59.0989   28.7527   49.5154 H   0  0  0  0  0  0  0  0  0  0  0  0
   62.3039   29.2341   48.7785 H   0  0  0  0  0  0  0  0  0  0  0  0
   61.7977   30.9908   48.7115 H   0  0  0  0  0  0  0  0  0  0  0  0
   60.3968   31.1966   51.8910 H   0  0  0  0  0  0  0  0  0  0  0  0
   60.9655   32.0282   50.4038 H   0  0  0  0  0  0  0  0  0  0  0  0
   59.3898   31.1657   50.4038 H   0  0  0  0  0  0  0  0  0  0  0  0
   61.8944   29.6931   52.3033 H   0  0  0  0  0  0  0  0  0  0  0  0
   62.5580   28.5700   51.0684 H   0  0  0  0  0  0  0  0  0  0  0  0
   63.0504   30.2975   51.0684 H   0  0  0  0  0  0  0  0  0  0  0  0
   61.3722   30.4414   46.2376 H   0  0  0  0  0  0  0  0  0  0  0  0
   59.5430   29.8296   44.6599 H   0  0  0  0  0  0  0  0  0  0  0  0
   56.8115   31.1735   46.4690 H   0  0  0  0  0  0  0  0  0  0  0  0
   58.2608   32.8835   47.5544 H   0  0  0  0  0  0  0  0  0  0  0  0
   61.0827   34.8618   48.9816 H   0  0  0  0  0  0  0  0  0  0  0  0
   62.4128   33.6819   50.7243 H   0  0  0  0  0  0  0  0  0  0  0  0
  1  2  1  0
  2  3  2  0
  2  4  1  0
  4  5  1  0
  5  6  2  0
  6  7  1  0
  7  8  2  0
  8  9  1  0
  9 10  1  0
 10 11  2  0
 10 12  1  0
 12 13  2  0
 13 14  1  0
 14 15  2  0
 15 16  1  0
 16 17  1  0
 17 18  1  0
 18 19  2  0
 18 20  2  0
 18 21  1  0
 21 22  2  0
 22 23  1  0
 23 24  2  0
 24 25  1  0
 25 26  1  0
 26 27  1  0
 26 28  1  0
 24 29  1  0
 29 30  2  0
 15 31  1  0
 31 32  2  0
  8 33  1  0
 33 34  2  0
 34  5  1  0
 32 12  1  0
 30 21  1  0
  1 35  1  0
  1 36  1  0
  1 37  1  0
  4 38  1  0
  6 39  1  0
  7 40  1  0
 13 41  1  0
 14 42  1  0
 16 43  1  0
 16 44  1  0
 22 45  1  0
 23 46  1  0
 25 47  1  0
 25 48  1  0
 27 49  1  0
 27 50  1  0
 27 51  1  0
 28 52  1  0
 28 53  1  0
 28 54  1  0
 29 55  1  0
 30 56  1  0
 31 57  1  0
 32 58  1  0
 33 59  1  0
 34 60  1  0
M  CHG  2   9  -1  17  -1
M  END
>  <UniqueID>  (44) 
39

>  <SMILES>  (44) 
CC(=O)Nc1ccc([N-]C(=O)c2ccc(C[N-]S(=O)(=O)c3ccc(CN(C)C)cc3)cc2)cc1

>  <Energy>  (44) 
65.7279865826777

>  <Genealogy>  (44) 
CC(=O)Nc1ccc([N-]C(=O)c2ccc(C[N-]S(=O)(=O)c3ccc(CN(C)C)cc3)cc2)cc1 (protonated)
CC(=O)Nc1ccc([N-]C(=O)c2ccc(C[N-]S(=O)(=O)c3ccc(CN(C)C)cc3)cc2)cc1 (3D coordinates assigned)
CC(=O)Nc1ccc([N-]C(=O)c2ccc(C[N-]S(=O)(=O)c3ccc(CN(C)C)cc3)cc2)cc1 (optimized conformer: 65.7279865826777 kcal/mol)

>  <smiles>  (44) 
CC(=O)Nc1ccc(NC(=O)c2ccc(CNS(=O)(=O)c3ccc(CN(C)C)cc3)cc2)cc1

>  <score_type>  (44) 
oracle

>  <origin>  (44) 
adg

>  <m_score__min__energy>  (44) 
-11.539999999999999

>  <m_primary>  (44) 
energy

$$$$
44:0
     RDKit          3D

 30 31  0  0  0  0  0  0  0  0999 V2000
   58.5660   32.7210   45.6360 C   0  0  0  0  0  0  0  0  0  0  0  0
   58.1390   32.3150   44.2520 C   0  0  0  0  0  0  0  0  0  0  0  0
   58.5340   33.0810   43.1430 C   0  0  0  0  0  0  0  0  0  0  0  0
   58.1370   32.7170   41.8540 C   0  0  0  0  0  0  0  0  0  0  0  0
   57.3470   31.5830   41.6600 C   0  0  0  0  0  0  0  0  0  0  0  0
   56.9450   30.8140   42.7550 C   0  0  0  0  0  0  0  0  0  0  0  0
   57.3200   31.1830   44.0600 C   0  0  0  0  0  0  0  0  0  0  0  0
   56.9220   30.3950   45.1940 N   0  0  0  0  0  0  0  0  0  0  0  0
   56.3310   29.0880   45.1510 C   0  0  0  0  0  0  0  0  0  0  0  0
   55.1710   28.9670   44.6760 O   0  0  0  0  0  0  0  0  0  0  0  0
   57.0740   27.8780   45.5830 C   0  0  0  0  0  0  0  0  0  0  0  0
   58.4770   27.8880   45.5800 C   0  0  0  0  0  0  0  0  0  0  0  0
   59.1940   26.7630   45.9790 C   0  0  0  0  0  0  0  0  0  0  0  0
   58.5210   25.6070   46.3750 C   0  0  0  0  0  0  0  0  0  0  0  0
   57.1150   25.5580   46.3760 C   0  0  0  0  0  0  0  0  0  0  0  0
   56.4420   24.3470   46.7820 N   0  0  0  0  0  0  0  0  0  0  0  0
   55.2060   24.2340   46.6440 O   0  0  0  0  0  0  0  0  0  0  0  0
   57.1310   23.3080   47.3660 O   0  0  0  0  0  0  0  0  0  0  0  0
   56.3920   26.7080   45.9810 C   0  0  0  0  0  0  0  0  0  0  0  0
   55.0000   26.7050   46.0060 O   0  0  0  0  0  0  0  0  0  0  0  0
   57.9786   32.1625   46.3796 H   0  0  0  0  0  0  0  0  0  0  0  0
   59.6347   32.4978   45.7703 H   0  0  0  0  0  0  0  0  0  0  0  0
   58.3970   33.7996   45.7703 H   0  0  0  0  0  0  0  0  0  0  0  0
   59.1601   33.9734   43.2904 H   0  0  0  0  0  0  0  0  0  0  0  0
   58.4473   33.3247   40.9912 H   0  0  0  0  0  0  0  0  0  0  0  0
   57.0405   31.2943   40.6438 H   0  0  0  0  0  0  0  0  0  0  0  0
   56.3317   29.9148   42.5960 H   0  0  0  0  0  0  0  0  0  0  0  0
   59.0152   28.7923   45.2597 H   0  0  0  0  0  0  0  0  0  0  0  0
   60.2938   26.7859   45.9820 H   0  0  0  0  0  0  0  0  0  0  0  0
   59.0961   24.7238   46.6900 H   0  0  0  0  0  0  0  0  0  0  0  0
  1  2  1  0
  2  3  2  0
  3  4  1  0
  4  5  2  0
  5  6  1  0
  6  7  2  0
  7  8  1  0
  8  9  1  0
  9 10  2  0
  9 11  1  0
 11 12  2  0
 12 13  1  0
 13 14  2  0
 14 15  1  0
 15 16  1  0
 16 17  2  0
 16 18  1  0
 15 19  2  0
 19 20  1  0
  7  2  1  0
 19 11  1  0
  1 21  1  0
  1 22  1  0
  1 23  1  0
  3 24  1  0
  4 25  1  0
  5 26  1  0
  6 27  1  0
 12 28  1  0
 13 29  1  0
 14 30  1  0
M  CHG  4   8  -1  16   1  18  -1  20  -1
M  END
>  <UniqueID>  (45) 
40

>  <SMILES>  (45) 
Cc1ccccc1[N-]C(=O)c1cccc([N+](=O)[O-])c1[O-]

>  <Energy>  (45) 
42.079696516454455

>  <Genealogy>  (45) 
Cc1ccccc1[N-]C(=O)c1cccc([N+](=O)[O-])c1[O-] (protonated)
Cc1ccccc1[N-]C(=O)c1cccc([N+](=O)[O-])c1[O-] (3D coordinates assigned)
Cc1ccccc1[N-]C(=O)c1cccc([N+](=O)[O-])c1[O-] (optimized conformer: 42.079696516454455 kcal/mol)

>  <smiles>  (45) 
Cc1ccccc1NC(=O)c1cccc([N+](=O)[O-])c1O

>  <score_type>  (45) 
oracle

>  <origin>  (45) 
adg

>  <m_score__min__energy>  (45) 
-13.279999999999999

>  <m_primary>  (45) 
energy

$$$$
45:0
     RDKit          3D

 43 44  0  0  0  0  0  0  0  0999 V2000
   54.7910   23.7260   44.8590 C   0  0  0  0  0  0  0  0  0  0  0  0
   55.5880   23.0080   44.0620 C   0  0  0  0  0  0  0  0  0  0  0  0
   57.0010   23.4280   43.7740 C   0  0  0  0  0  0  0  0  0  0  0  0
   57.1300   24.8800   43.8830 N   0  0  0  0  0  0  0  0  0  0  0  0
   57.9830   25.5150   44.8520 C   0  0  0  0  0  0  0  0  0  0  0  0
   58.7160   24.8090   45.5970 O   0  0  0  0  0  0  0  0  0  0  0  0
   58.0290   26.9920   44.9790 C   0  0  0  0  0  0  0  0  0  0  0  0
   58.3170   27.5820   46.2220 C   0  0  0  0  0  0  0  0  0  0  0  0
   58.3610   28.9720   46.3560 C   0  0  0  0  0  0  0  0  0  0  0  0
   58.1140   29.8040   45.2530 C   0  0  0  0  0  0  0  0  0  0  0  0
   58.1490   31.2420   45.3930 N   0  0  0  0  0  0  0  0  0  0  0  0
   57.8230   32.0340   44.1950 C   0  0  0  0  0  0  0  0  0  0  0  0
   58.4540   33.4260   44.1790 C   0  0  0  0  0  0  0  0  0  0  0  0
   57.9280   34.3300   45.3090 C   0  0  0  0  0  0  0  0  0  0  0  0
   58.7280   34.2900   46.5540 N   0  0  0  0  0  0  0  0  0  0  0  0
   59.7770   35.3180   46.6430 C   0  0  0  0  0  0  0  0  0  0  0  0
   59.1260   32.9500   47.0260 C   0  0  0  0  0  0  0  0  0  0  0  0
   58.1050   31.8140   46.7540 C   0  0  0  0  0  0  0  0  0  0  0  0
   57.8040   29.2160   44.0160 C   0  0  0  0  0  0  0  0  0  0  0  0
   57.7620   27.8260   43.8790 C   0  0  0  0  0  0  0  0  0  0  0  0
   53.7605   23.3926   45.0511 H   0  0  0  0  0  0  0  0  0  0  0  0
   55.1655   24.6504   45.3230 H   0  0  0  0  0  0  0  0  0  0  0  0
   55.1993   22.0859   43.6053 H   0  0  0  0  0  0  0  0  0  0  0  0
   57.6769   22.9482   44.4971 H   0  0  0  0  0  0  0  0  0  0  0  0
   57.2646   23.1208   42.7512 H   0  0  0  0  0  0  0  0  0  0  0  0
   56.6830   25.4570   43.1360 H   0  0  0  0  0  0  0  0  0  0  0  0
   58.5094   26.9436   47.0969 H   0  0  0  0  0  0  0  0  0  0  0  0
   58.5913   29.4183   47.3347 H   0  0  0  0  0  0  0  0  0  0  0  0
   58.1761   31.4840   43.3102 H   0  0  0  0  0  0  0  0  0  0  0  0
   56.7326   32.1790   44.1965 H   0  0  0  0  0  0  0  0  0  0  0  0
   59.5431   33.3200   44.2913 H   0  0  0  0  0  0  0  0  0  0  0  0
   58.1878   33.9004   43.2229 H   0  0  0  0  0  0  0  0  0  0  0  0
   57.9168   35.3668   44.9417 H   0  0  0  0  0  0  0  0  0  0  0  0
   56.9278   33.9532   45.5692 H   0  0  0  0  0  0  0  0  0  0  0  0
   59.9936   35.5303   47.7004 H   0  0  0  0  0  0  0  0  0  0  0  0
   60.6894   34.9547   46.1476 H   0  0  0  0  0  0  0  0  0  0  0  0
   59.4322   36.2376   46.1476 H   0  0  0  0  0  0  0  0  0  0  0  0
   60.0703   32.6827   46.5292 H   0  0  0  0  0  0  0  0  0  0  0  0
   59.2062   33.0275   48.1203 H   0  0  0  0  0  0  0  0  0  0  0  0
   58.2997   31.0026   47.4707 H   0  0  0  0  0  0  0  0  0  0  0  0
   57.1083   32.2665   46.8630 H   0  0  0  0  0  0  0  0  0  0  0  0
   57.5922   29.8557   43.1466 H   0  0  0  0  0  0  0  0  0  0  0  0
   57.5182   27.3809   42.9031 H   0  0  0  0  0  0  0  0  0  0  0  0
  1  2  2  0
  2  3  1  0
  3  4  1  0
  4  5  1  0
  5  6  2  0
  5  7  1  0
  7  8  2  0
  8  9  1  0
  9 10  2  0
 10 11  1  0
 11 12  1  0
 12 13  1  0
 13 14  1  0
 14 15  1  0
 15 16  1  0
 15 17  1  0
 17 18  1  0
 10 19  1  0
 19 20  2  0
 20  7  1  0
 18 11  1  0
  1 21  1  0
  1 22  1  0
  2 23  1  0
  3 24  1  0
  3 25  1  0
  4 26  1  0
  8 27  1  0
  9 28  1  0
 12 29  1  0
 12 30  1  0
 13 31  1  0
 13 32  1  0
 14 33  1  0
 14 34  1  0
 16 35  1  0
 16 36  1  0
 16 37  1  0
 17 38  1  0
 17 39  1  0
 18 40  1  0
 18 41  1  0
 19 42  1  0
 20 43  1  0
M  END
>  <UniqueID>  (46) 
41

>  <SMILES>  (46) 
C=CCNC(=O)c1ccc(N2CCCN(C)CC2)cc1

>  <Energy>  (46) 
60.59808824418104

>  <Genealogy>  (46) 
C=CCNC(=O)c1ccc(N2CCCN(C)CC2)cc1 (3D coordinates assigned)
C=CCNC(=O)c1ccc(N2CCCN(C)CC2)cc1 (nonaromatic ring conformer: 60.59808824418104 kcal/mol)

>  <smiles>  (46) 
C=CCNC(=O)c1ccc(N2CCCN(C)CC2)cc1

>  <score_type>  (46) 
oracle

>  <origin>  (46) 
adg

>  <m_score__min__energy>  (46) 
-4.4100000000000001

>  <m_primary>  (46) 
energy

$$$$
46:0
     RDKit          3D

 57 59  0  0  0  0  0  0  0  0999 V2000
   59.6410   26.6890   45.8610 C   0  0  0  0  0  0  0  0  0  0  0  0
   59.9770   28.0120   46.4170 N   0  0  0  0  0  0  0  0  0  0  0  0
   60.4960   28.9410   45.3890 C   0  0  0  0  0  0  0  0  0  0  0  0
   59.3830   29.5120   44.5000 C   0  0  0  0  0  0  0  0  0  0  0  0
   58.3610   30.1590   45.3360 N   0  0  0  0  0  0  0  0  0  0  0  0
   57.1080   30.8940   44.3560 S   0  0  0  0  0  0  0  0  0  0  0  0
   57.2650   30.3700   42.9560 O   0  0  0  0  0  0  0  0  0  0  0  0
   55.7540   30.4810   44.8680 O   0  0  0  0  0  0  0  0  0  0  0  0
   57.2520   32.6460   44.3590 N   0  0  0  0  0  0  0  0  0  0  0  0
   58.5430   33.0960   43.8180 C   0  0  0  0  0  0  0  0  0  0  0  0
   56.9080   33.2670   45.6560 C   0  0  0  0  0  0  0  0  0  0  0  0
   58.0670   33.4420   46.6100 C   0  0  0  0  0  0  0  0  0  0  0  0
   58.2590   34.5760   47.1200 O   0  0  0  0  0  0  0  0  0  0  0  0
   59.0050   32.3750   46.8360 N   0  0  0  0  0  0  0  0  0  0  0  0
   60.3900   32.5880   47.1690 C   0  0  0  0  0  0  0  0  0  0  0  0
   61.1100   33.5300   46.4120 C   0  0  0  0  0  0  0  0  0  0  0  0
   62.4530   33.7920   46.6850 C   0  0  0  0  0  0  0  0  0  0  0  0
   63.1020   33.1050   47.7100 C   0  0  0  0  0  0  0  0  0  0  0  0
   62.4140   32.1470   48.4570 C   0  0  0  0  0  0  0  0  0  0  0  0
   61.0590   31.8690   48.2010 C   0  0  0  0  0  0  0  0  0  0  0  0
   60.4130   30.8150   48.9440 N   0  0  0  0  0  0  0  0  0  0  0  0
   59.0620   30.9820   49.4880 C   0  0  0  0  0  0  0  0  0  0  0  0
   59.1080   30.7400   50.9980 C   0  0  0  0  0  0  0  0  0  0  0  0
   59.6740   29.4720   51.2830 O   0  0  0  0  0  0  0  0  0  0  0  0
   61.0300   29.4380   50.8650 C   0  0  0  0  0  0  0  0  0  0  0  0
   61.1380   29.6070   49.3470 C   0  0  0  0  0  0  0  0  0  0  0  0
   57.7680   29.1880   46.2700 C   0  0  0  0  0  0  0  0  0  0  0  0
   58.8570   28.6000   47.1820 C   0  0  0  0  0  0  0  0  0  0  0  0
   59.4611   25.9807   46.6832 H   0  0  0  0  0  0  0  0  0  0  0  0
   58.7351   26.7705   45.2424 H   0  0  0  0  0  0  0  0  0  0  0  0
   60.4761   26.3284   45.2424 H   0  0  0  0  0  0  0  0  0  0  0  0
   61.0083   29.7742   45.8923 H   0  0  0  0  0  0  0  0  0  0  0  0
   61.1839   28.3756   44.7431 H   0  0  0  0  0  0  0  0  0  0  0  0
   59.8115   30.2524   43.8085 H   0  0  0  0  0  0  0  0  0  0  0  0
   58.9201   28.6948   43.9274 H   0  0  0  0  0  0  0  0  0  0  0  0
   59.2253   33.3338   44.6474 H   0  0  0  0  0  0  0  0  0  0  0  0
   58.9804   32.2973   43.2009 H   0  0  0  0  0  0  0  0  0  0  0  0
   58.3892   33.9935   43.2009 H   0  0  0  0  0  0  0  0  0  0  0  0
   56.4788   34.2597   45.4554 H   0  0  0  0  0  0  0  0  0  0  0  0
   56.2064   32.5781   46.1492 H   0  0  0  0  0  0  0  0  0  0  0  0
   58.7810   31.4530   46.4050 H   0  0  0  0  0  0  0  0  0  0  0  0
   60.6076   34.0671   45.5940 H   0  0  0  0  0  0  0  0  0  0  0  0
   62.9994   34.5401   46.0919 H   0  0  0  0  0  0  0  0  0  0  0  0
   64.1583   33.3182   47.9306 H   0  0  0  0  0  0  0  0  0  0  0  0
   62.9383   31.6025   49.2561 H   0  0  0  0  0  0  0  0  0  0  0  0
   58.7058   32.0032   49.2874 H   0  0  0  0  0  0  0  0  0  0  0  0
   58.3758   30.2647   49.0141 H   0  0  0  0  0  0  0  0  0  0  0  0
   59.7186   31.5231   51.4712 H   0  0  0  0  0  0  0  0  0  0  0  0
   58.0817   30.7671   51.3930 H   0  0  0  0  0  0  0  0  0  0  0  0
   61.5795   30.2534   51.3582 H   0  0  0  0  0  0  0  0  0  0  0  0
   61.4588   28.4635   51.1416 H   0  0  0  0  0  0  0  0  0  0  0  0
   62.1962   29.7006   49.0616 H   0  0  0  0  0  0  0  0  0  0  0  0
   60.7026   28.7301   48.8456 H   0  0  0  0  0  0  0  0  0  0  0  0
   57.0101   29.6927   46.8870 H   0  0  0  0  0  0  0  0  0  0  0  0
   57.3013   28.3743   45.6955 H   0  0  0  0  0  0  0  0  0  0  0  0
   59.2505   29.4017   47.8242 H   0  0  0  0  0  0  0  0  0  0  0  0
   58.3983   27.7957   47.7759 H   0  0  0  0  0  0  0  0  0  0  0  0
  1  2  1  0
  2  3  1  0
  3  4  1  0
  4  5  1  0
  5  6  1  0
  6  7  2  0
  6  8  2  0
  6  9  1  0
  9 10  1  0
  9 11  1  0
 11 12  1  0
 12 13  2  0
 12 14  1  0
 14 15  1  0
 15 16  2  0
 16 17  1  0
 17 18  2  0
 18 19  1  0
 19 20  2  0
 20 21  1  0
 21 22  1  0
 22 23  1  0
 23 24  1  0
 24 25  1  0
 25 26  1  0
  5 27  1  0
 27 28  1  0
 28  2  1  0
 20 15  1  0
 26 21  1  0
  1 29  1  0
  1 30  1  0
  1 31  1  0
  3 32  1  0
  3 33  1  0
  4 34  1  0
  4 35  1  0
 10 36  1  0
 10 37  1  0
 10 38  1  0
 11 39  1  0
 11 40  1  0
 14 41  1  0
 16 42  1  0
 17 43  1  0
 18 44  1  0
 19 45  1  0
 22 46  1  0
 22 47  1  0
 23 48  1  0
 23 49  1  0
 25 50  1  0
 25 51  1  0
 26 52  1  0
 26 53  1  0
 27 54  1  0
 27 55  1  0
 28 56  1  0
 28 57  1  0
M  END
>  <UniqueID>  (47) 
42

>  <SMILES>  (47) 
CN1CCN(S(=O)(=O)N(C)CC(=O)Nc2ccccc2N2CCOCC2)CC1

>  <Energy>  (47) 
74.16045657396315

>  <Genealogy>  (47) 
CN1CCN(S(=O)(=O)N(C)CC(=O)Nc2ccccc2N2CCOCC2)CC1 (3D coordinates assigned)
CN1CCN(S(=O)(=O)N(C)CC(=O)Nc2ccccc2N2CCOCC2)CC1 (nonaromatic ring conformer: 74.16045657396315 kcal/mol)

>  <smiles>  (47) 
CN1CCN(S(=O)(=O)N(C)CC(=O)Nc2ccccc2N2CCOCC2)CC1

>  <score_type>  (47) 
oracle

>  <origin>  (47) 
adg

>  <m_score__min__energy>  (47) 
-8.6099999999999994

>  <m_primary>  (47) 
energy

$$$$
47:0
     RDKit          3D

 56 58  0  0  0  0  0  0  0  0999 V2000
   57.6590   31.9650   42.3520 C   0  0  0  0  0  0  0  0  0  0  0  0
   58.1820   33.0760   43.2650 C   0  0  0  0  0  0  0  0  0  0  0  0
   57.7260   32.9240   44.6970 C   0  0  0  0  0  0  0  0  0  0  0  0
   56.5590   32.5040   44.9330 O   0  0  0  0  0  0  0  0  0  0  0  0
   58.5900   33.2640   45.8040 N   0  0  0  0  0  0  0  0  0  0  0  0
   58.2540   32.7510   47.1430 C   0  0  0  0  0  0  0  0  0  0  0  0
   59.2310   33.2510   48.2140 C   0  0  0  0  0  0  0  0  0  0  0  0
   60.6110   33.1440   47.7260 N   0  0  0  0  0  0  0  0  0  0  0  0
   61.6480   32.6590   48.5950 C   0  0  0  0  0  0  0  0  0  0  0  0
   62.6580   33.5350   49.0220 C   0  0  0  0  0  0  0  0  0  0  0  0
   63.6940   33.0750   49.8380 C   0  0  0  0  0  0  0  0  0  0  0  0
   63.7260   31.7390   50.2410 C   0  0  0  0  0  0  0  0  0  0  0  0
   62.7220   30.8590   49.8300 C   0  0  0  0  0  0  0  0  0  0  0  0
   61.6810   31.3050   48.9970 C   0  0  0  0  0  0  0  0  0  0  0  0
   60.6100   30.4190   48.6340 N   0  0  0  0  0  0  0  0  0  0  0  0
   60.3390   30.0260   47.2770 C   0  0  0  0  0  0  0  0  0  0  0  0
   61.0590   30.4680   46.3400 O   0  0  0  0  0  0  0  0  0  0  0  0
   59.2170   29.1100   46.9520 C   0  0  0  0  0  0  0  0  0  0  0  0
   59.2110   27.7780   47.3940 C   0  0  0  0  0  0  0  0  0  0  0  0
   58.1440   26.9330   47.0850 C   0  0  0  0  0  0  0  0  0  0  0  0
   57.0540   27.4050   46.3310 C   0  0  0  0  0  0  0  0  0  0  0  0
   55.9650   26.5820   46.0000 O   0  0  0  0  0  0  0  0  0  0  0  0
   56.0750   25.2200   45.5990 C   0  0  0  0  0  0  0  0  0  0  0  0
   57.0410   28.7360   45.8930 C   0  0  0  0  0  0  0  0  0  0  0  0
   55.9390   29.1810   45.1450 O   0  0  0  0  0  0  0  0  0  0  0  0
   56.0190   29.7210   43.8300 C   0  0  0  0  0  0  0  0  0  0  0  0
   58.1220   29.5840   46.2100 C   0  0  0  0  0  0  0  0  0  0  0  0
   60.9600   33.5900   46.3710 C   0  0  0  0  0  0  0  0  0  0  0  0
   59.7420   34.1690   45.6470 C   0  0  0  0  0  0  0  0  0  0  0  0
   57.2701   31.1389   42.9655 H   0  0  0  0  0  0  0  0  0  0  0  0
   56.8528   32.3612   41.7171 H   0  0  0  0  0  0  0  0  0  0  0  0
   58.4781   31.5962   41.7171 H   0  0  0  0  0  0  0  0  0  0  0  0
   59.2817   33.0595   43.2433 H   0  0  0  0  0  0  0  0  0  0  0  0
   57.7792   34.0283   42.8898 H   0  0  0  0  0  0  0  0  0  0  0  0
   57.2389   33.0835   47.4058 H   0  0  0  0  0  0  0  0  0  0  0  0
   58.3187   31.6534   47.1113 H   0  0  0  0  0  0  0  0  0  0  0  0
   59.0080   34.3025   48.4476 H   0  0  0  0  0  0  0  0  0  0  0  0
   59.1199   32.6353   49.1188 H   0  0  0  0  0  0  0  0  0  0  0  0
   62.6335   34.5902   48.7121 H   0  0  0  0  0  0  0  0  0  0  0  0
   64.4854   33.7662   50.1634 H   0  0  0  0  0  0  0  0  0  0  0  0
   64.5431   31.3786   50.8832 H   0  0  0  0  0  0  0  0  0  0  0  0
   62.7461   29.8100   50.1603 H   0  0  0  0  0  0  0  0  0  0  0  0
   59.9910   30.0810   49.4040 H   0  0  0  0  0  0  0  0  0  0  0  0
   60.0541   27.3968   47.9888 H   0  0  0  0  0  0  0  0  0  0  0  0
   58.1554   25.8898   47.4337 H   0  0  0  0  0  0  0  0  0  0  0  0
   56.1268   24.5782   46.4909 H   0  0  0  0  0  0  0  0  0  0  0  0
   55.1963   24.9426   44.9982 H   0  0  0  0  0  0  0  0  0  0  0  0
   56.9868   25.0872   44.9982 H   0  0  0  0  0  0  0  0  0  0  0  0
   56.1800   30.8076   43.8890 H   0  0  0  0  0  0  0  0  0  0  0  0
   56.8579   29.2547   43.2925 H   0  0  0  0  0  0  0  0  0  0  0  0
   55.0810   29.5179   43.2925 H   0  0  0  0  0  0  0  0  0  0  0  0
   58.1079   30.6306   45.8719 H   0  0  0  0  0  0  0  0  0  0  0  0
   61.7390   34.3638   46.4376 H   0  0  0  0  0  0  0  0  0  0  0  0
   61.3230   32.7217   45.8016 H   0  0  0  0  0  0  0  0  0  0  0  0
   59.4954   35.1515   46.0759 H   0  0  0  0  0  0  0  0  0  0  0  0
   59.9741   34.2786   44.5774 H   0  0  0  0  0  0  0  0  0  0  0  0
  1  2  1  0
  2  3  1  0
  3  4  2  0
  3  5  1  0
  5  6  1  0
  6  7  1  0
  7  8  1  0
  8  9  1  0
  9 10  2  0
 10 11  1  0
 11 12  2  0
 12 13  1  0
 13 14  2  0
 14 15  1  0
 15 16  1  0
 16 17  2  0
 16 18  1  0
 18 19  2  0
 19 20  1  0
 20 21  2  0
 21 22  1  0
 22 23  1  0
 21 24  1  0
 24 25  1  0
 25 26  1  0
 24 27  2  0
  8 28  1  0
 28 29  1  0
 29  5  1  0
 14  9  1  0
 27 18  1  0
  1 30  1  0
  1 31  1  0
  1 32  1  0
  2 33  1  0
  2 34  1  0
  6 35  1  0
  6 36  1  0
  7 37  1  0
  7 38  1  0
 10 39  1  0
 11 40  1  0
 12 41  1  0
 13 42  1  0
 15 43  1  0
 19 44  1  0
 20 45  1  0
 23 46  1  0
 23 47  1  0
 23 48  1  0
 26 49  1  0
 26 50  1  0
 26 51  1  0
 27 52  1  0
 28 53  1  0
 28 54  1  0
 29 55  1  0
 29 56  1  0
M  END
>  <UniqueID>  (48) 
43

>  <SMILES>  (48) 
CCC(=O)N1CCN(c2ccccc2NC(=O)c2ccc(OC)c(OC)c2)CC1

>  <Energy>  (48) 
66.46959774451527

>  <Genealogy>  (48) 
CCC(=O)N1CCN(c2ccccc2NC(=O)c2ccc(OC)c(OC)c2)CC1 (3D coordinates assigned)
CCC(=O)N1CCN(c2ccccc2NC(=O)c2ccc(OC)c(OC)c2)CC1 (nonaromatic ring conformer: 66.46959774451527 kcal/mol)

>  <smiles>  (48) 
CCC(=O)N1CCN(c2ccccc2NC(=O)c2ccc(OC)c(OC)c2)CC1

>  <score_type>  (48) 
oracle

>  <origin>  (48) 
adg

>  <m_score__min__energy>  (48) 
-8.0899999999999999

>  <m_primary>  (48) 
energy

$$$$
48:0
     RDKit          3D

 35 37  0  0  0  0  0  0  0  0999 V2000
   59.1051   29.4457   47.8386 H   0  0  0  0  0  0  0  0  0  0  0  0
   59.5920   30.1380   47.1360 C   0  0  0  0  0  0  0  0  0  0  0  0
   59.3860   30.0040   45.8630 N   0  0  0  0  0  0  0  0  0  0  0  0
   58.1040   29.8200   45.3170 N   0  0  0  0  0  0  0  0  0  0  0  0
   57.3700   30.6640   44.5520 C   0  0  0  0  0  0  0  0  0  0  0  0
   57.8190   32.0030   44.0300 C   0  0  0  0  0  0  0  0  0  0  0  0
   58.6717   31.8542   43.3512 H   0  0  0  0  0  0  0  0  0  0  0  0
   56.9738   32.4681   43.5015 H   0  0  0  0  0  0  0  0  0  0  0  0
   58.2390   32.9210   45.1500 C   0  0  0  0  0  0  0  0  0  0  0  0
   57.7050   32.7590   46.4400 C   0  0  0  0  0  0  0  0  0  0  0  0
   56.9715   31.9623   46.6329 H   0  0  0  0  0  0  0  0  0  0  0  0
   58.1020   33.6060   47.4790 C   0  0  0  0  0  0  0  0  0  0  0  0
   57.6855   33.4694   48.4879 H   0  0  0  0  0  0  0  0  0  0  0  0
   59.0260   34.6250   47.2390 C   0  0  0  0  0  0  0  0  0  0  0  0
   59.3416   35.2860   48.0597 H   0  0  0  0  0  0  0  0  0  0  0  0
   59.5500   34.8050   45.9550 C   0  0  0  0  0  0  0  0  0  0  0  0
   60.2757   35.6096   45.7651 H   0  0  0  0  0  0  0  0  0  0  0  0
   59.1520   33.9630   44.9130 C   0  0  0  0  0  0  0  0  0  0  0  0
   59.5557   34.1167   43.9014 H   0  0  0  0  0  0  0  0  0  0  0  0
   56.0980   30.2210   44.4280 N   0  0  0  0  0  0  0  0  0  0  0  0
   56.0180   29.0990   45.1300 N   0  0  0  0  0  0  0  0  0  0  0  0
   55.1540   28.5250   45.2450 H   0  0  0  0  0  0  0  0  0  0  0  0
   57.2200   28.8800   45.6820 C   0  0  0  0  0  0  0  0  0  0  0  0
   57.4790   27.9250   46.4610 O   0  0  0  0  0  0  0  0  0  0  0  0
   60.4690   31.2040   47.6580 C   0  0  0  0  0  0  0  0  0  0  0  0
   60.4010   31.6170   49.0020 C   0  0  0  0  0  0  0  0  0  0  0  0
   59.6933   31.1309   49.6896 H   0  0  0  0  0  0  0  0  0  0  0  0
   61.2300   32.6430   49.4660 C   0  0  0  0  0  0  0  0  0  0  0  0
   61.1743   32.9609   50.5176 H   0  0  0  0  0  0  0  0  0  0  0  0
   62.1290   33.2650   48.5960 C   0  0  0  0  0  0  0  0  0  0  0  0
   62.7810   34.0713   48.9631 H   0  0  0  0  0  0  0  0  0  0  0  0
   62.2000   32.8630   47.2600 C   0  0  0  0  0  0  0  0  0  0  0  0
   62.9071   33.3546   46.5757 H   0  0  0  0  0  0  0  0  0  0  0  0
   61.3740   31.8370   46.7910 C   0  0  0  0  0  0  0  0  0  0  0  0
   61.4334   31.5243   45.7381 H   0  0  0  0  0  0  0  0  0  0  0  0
  1  2  1  0
  2  3  2  0
  3  4  1  0
  4  5  1  0
  5  6  1  0
  6  7  1  0
  6  8  1  0
  6  9  1  0
  9 10  2  0
 10 11  1  0
 10 12  1  0
 12 13  1  0
 12 14  2  0
 14 15  1  0
 14 16  1  0
 16 17  1  0
 16 18  2  0
 18 19  1  0
  5 20  2  0
 20 21  1  0
 21 22  1  0
 21 23  1  0
 23 24  2  0
  2 25  1  0
 25 26  2  0
 26 27  1  0
 26 28  1  0
 28 29  1  0
 28 30  2  0
 30 31  1  0
 30 32  1  0
 32 33  1  0
 32 34  2  0
 34 35  1  0
 23  4  1  0
 34 25  1  0
 18  9  1  0
M  END
>  <UniqueID>  (49) 
44

>  <SMILES>  (49) 
O=c1[nH]nc(Cc2ccccc2)n1/N=C/c1ccccc1

>  <Energy>  (49) 
78.58986415337937

>  <Genealogy>  (49) 
O=c1[nH]nc(Cc2ccccc2)n1/N=C/c1ccccc1 (cis-trans isomerization)
O=c1[nH]nc(Cc2ccccc2)n1/N=C/c1ccccc1 (3D coordinates assigned)
O=c1[nH]nc(Cc2ccccc2)n1/N=C/c1ccccc1 (optimized conformer: 78.58986415337937 kcal/mol)

>  <smiles>  (49) 
O=c1[nH]nc(Cc2ccccc2)n1N=Cc1ccccc1

>  <score_type>  (49) 
oracle

>  <origin>  (49) 
adg

>  <m_score__min__energy>  (49) 
-7.7800000000000002

>  <m_primary>  (49) 
energy

$$$$
49:0
     RDKit          3D

 32 33  0  0  1  0  0  0  0  0999 V2000
   55.3080   21.8330   48.5170 C   0  0  0  0  0  0  0  0  0  0  0  0
   55.1930   23.1470   47.9080 N   0  0  0  0  0  0  0  0  0  0  0  0
   56.3200   23.6600   47.2360 C   0  0  0  0  0  0  0  0  0  0  0  0
   57.3840   22.9620   47.1900 O   0  0  0  0  0  0  0  0  0  0  0  0
   56.3460   24.9620   46.5800 C   0  0  0  0  0  0  0  0  0  0  0  0
   57.5030   25.6110   46.2130 C   0  0  0  0  0  0  0  0  0  0  0  0
   57.0710   26.8010   45.6280 C   0  0  0  0  0  0  0  0  0  0  0  0
   57.8790   27.6820   45.1570 N   0  0  0  0  0  0  0  0  0  0  0  0
   57.5880   29.0930   45.2590 C   0  0  0  0  0  0  0  0  0  0  0  0
   56.3780   29.3900   45.3290 O   0  0  0  0  0  0  0  0  0  0  0  0
   58.6260   30.0360   45.2760 N   0  0  0  0  0  0  0  0  0  0  0  0
   58.4870   31.4360   45.3710 C   0  0  0  0  0  0  0  0  0  0  0  0
   58.9140   32.2090   46.4180 C   0  0  0  0  0  0  0  0  0  0  0  0
   58.7430   33.6010   46.4450 C   0  0  0  0  0  0  0  0  0  0  0  0
   59.3120   34.5240   47.8140 Cl  0  0  0  0  0  0  0  0  0  0  0  0
   58.1170   34.2360   45.3820 C   0  0  0  0  0  0  0  0  0  0  0  0
   57.6980   33.4550   44.3500 C   0  0  0  0  0  0  0  0  0  0  0  0
   57.8690   32.0930   44.3250 C   0  0  0  0  0  0  0  0  0  0  0  0
   57.2700   31.2080   42.9110 Cl  0  0  0  0  0  0  0  0  0  0  0  0
   55.7330   26.8480   45.6520 N   0  0  0  0  0  0  0  0  0  0  0  0
   55.3010   25.7310   46.2300 N   0  0  0  0  0  0  0  0  0  0  0  0
   55.2991   21.9344   49.6123 H   0  0  0  0  0  0  0  0  0  0  0  0
   54.4612   21.2065   48.1999 H   0  0  0  0  0  0  0  0  0  0  0  0
   56.2507   21.3631   48.1999 H   0  0  0  0  0  0  0  0  0  0  0  0
   54.3100   23.7180   47.9490 H   0  0  0  0  0  0  0  0  0  0  0  0
   58.5388   25.2672   46.3506 H   0  0  0  0  0  0  0  0  0  0  0  0
   59.6120   29.6320   45.2080 H   0  0  0  0  0  0  0  0  0  0  0  0
   59.4096   31.7199   47.2696 H   0  0  0  0  0  0  0  0  0  0  0  0
   57.9658   35.3255   45.3741 H   0  0  0  0  0  0  0  0  0  0  0  0
   57.1992   33.9369   43.4962 H   0  0  0  0  0  0  0  0  0  0  0  0
   55.1420   27.6170   45.2870 H   0  0  0  0  0  0  0  0  0  0  0  0
   54.2920   25.5070   46.3780 H   0  0  0  0  0  0  0  0  0  0  0  0
  1  2  1  0
  2  3  1  0
  3  4  2  0
  3  5  1  0
  5  6  2  0
  6  7  1  0
  7  8  2  0
  8  9  1  0
  9 10  2  0
  9 11  1  0
 11 12  1  0
 12 13  2  0
 13 14  1  0
 14 15  1  0
 14 16  2  0
 16 17  1  0
 17 18  2  0
 18 19  1  0
  7 20  1  0
 20 21  1  0
 21  5  1  0
 18 12  1  0
  1 22  1  0
  1 23  1  0
  1 24  1  0
  2 25  1  0
  6 26  1  0
 11 27  1  0
 13 28  1  0
 16 29  1  0
 17 30  1  0
 20 31  1  0
 21 32  1  0
M  END
>  <smiles>  (50) 
CNC(=O)c1cc(=NC(=O)Nc2cc(Cl)ccc2Cl)[nH][nH]1

>  <score_type>  (50) 
oracle

>  <origin>  (50) 
adg

>  <m_score__min__energy>  (50) 
-7.7199999999999998

>  <m_primary>  (50) 
energy

$$$$
50:0
     RDKit          3D

 48 49  0  0  0  0  0  0  0  0999 V2000
   56.2510   29.4510   42.5690 C   0  0  0  0  0  0  0  0  0  0  0  0
   56.8840   29.8280   44.1920 S   0  0  0  0  0  0  0  0  0  0  0  0
   58.3770   29.6680   44.1380 O   0  0  0  0  0  0  0  0  0  0  0  0
   56.5820   31.2620   44.5250 O   0  0  0  0  0  0  0  0  0  0  0  0
   56.2790   28.7680   45.4480 N   0  0  0  0  0  0  0  0  0  0  0  0
   57.0590   27.5520   45.7630 C   0  0  1  0  0  0  0  0  0  0  0  0
   58.0050   27.6940   46.9820 C   0  0  0  0  0  0  0  0  0  0  0  0
   58.8310   28.9550   46.9180 C   0  0  0  0  0  0  0  0  0  0  0  0
   60.2030   28.8900   46.6310 C   0  0  0  0  0  0  0  0  0  0  0  0
   60.9510   30.0620   46.5050 C   0  0  0  0  0  0  0  0  0  0  0  0
   60.3380   31.3070   46.6620 C   0  0  0  0  0  0  0  0  0  0  0  0
   58.9660   31.3930   46.9540 C   0  0  0  0  0  0  0  0  0  0  0  0
   58.3050   32.7120   47.1130 C   0  0  0  0  0  0  0  0  0  0  0  0
   57.0380   32.9550   46.4890 N   0  0  0  0  0  0  0  0  0  0  0  0
   58.8700   33.6570   47.8050 N   0  0  0  0  0  0  0  0  0  0  0  0
   58.2200   30.2090   47.0890 C   0  0  0  0  0  0  0  0  0  0  0  0
   56.1580   26.3350   45.8560 C   0  0  0  0  0  0  0  0  0  0  0  0
   54.9990   26.4550   46.3330 O   0  0  0  0  0  0  0  0  0  0  0  0
   56.6100   25.0290   45.4350 N   0  0  0  0  0  0  0  0  0  0  0  0
   56.1260   23.8410   46.1620 C   0  0  0  0  0  0  0  0  0  0  0  0
   55.1820   23.0250   45.2810 C   0  0  0  0  0  0  0  0  0  0  0  0
   56.0240   22.5620   43.7800 S   0  0  0  0  0  0  0  0  0  0  0  0
   55.1900   22.9390   42.5880 O   0  0  0  0  0  0  0  0  0  0  0  0
   56.2780   21.0800   43.7660 O   0  0  0  0  0  0  0  0  0  0  0  0
   57.5760   23.4380   43.7360 C   0  0  0  0  0  0  0  0  0  0  0  0
   57.3780   24.8930   44.1800 C   0  0  0  0  0  0  0  0  0  0  0  0
   55.3094   28.8902   42.6638 H   0  0  0  0  0  0  0  0  0  0  0  0
   56.0669   30.3867   42.0208 H   0  0  0  0  0  0  0  0  0  0  0  0
   56.9860   28.8434   42.0208 H   0  0  0  0  0  0  0  0  0  0  0  0
   57.7422   27.4025   44.9139 H   0  0  0  0  0  0  0  0  0  0  0  0
   57.3994   27.7133   47.9001 H   0  0  0  0  0  0  0  0  0  0  0  0
   58.6951   26.8374   46.9758 H   0  0  0  0  0  0  0  0  0  0  0  0
   60.6909   27.9122   46.5049 H   0  0  0  0  0  0  0  0  0  0  0  0
   62.0265   30.0047   46.2814 H   0  0  0  0  0  0  0  0  0  0  0  0
   60.9329   32.2262   46.5564 H   0  0  0  0  0  0  0  0  0  0  0  0
   56.5810   33.8910   46.5540 H   0  0  0  0  0  0  0  0  0  0  0  0
   56.5240   32.1900   46.0010 H   0  0  0  0  0  0  0  0  0  0  0  0
   59.1750   34.5440   47.3450 H   0  0  0  0  0  0  0  0  0  0  0  0
   59.0610   33.5530   48.8260 H   0  0  0  0  0  0  0  0  0  0  0  0
   57.1483   30.2647   47.3307 H   0  0  0  0  0  0  0  0  0  0  0  0
   56.9851   23.2164   46.4482 H   0  0  0  0  0  0  0  0  0  0  0  0
   55.5815   24.1695   47.0595 H   0  0  0  0  0  0  0  0  0  0  0  0
   54.8684   22.1189   45.8202 H   0  0  0  0  0  0  0  0  0  0  0  0
   54.2965   23.6290   45.0339 H   0  0  0  0  0  0  0  0  0  0  0  0
   58.2899   22.9459   44.4128 H   0  0  0  0  0  0  0  0  0  0  0  0
   57.9643   23.4273   42.7069 H   0  0  0  0  0  0  0  0  0  0  0  0
   58.3679   25.3496   44.3268 H   0  0  0  0  0  0  0  0  0  0  0  0
   56.7986   25.3951   43.3912 H   0  0  0  0  0  0  0  0  0  0  0  0
  1  2  1  0
  2  3  2  0
  2  4  2  0
  2  5  1  0
  5  6  1  0
  6  7  1  0
  7  8  1  0
  8  9  2  0
  9 10  1  0
 10 11  2  0
 11 12  1  0
 12 13  1  0
 13 14  1  0
 13 15  2  0
 12 16  2  0
  6 17  1  0
 17 18  2  0
 17 19  1  0
 19 20  1  0
 20 21  1  0
 21 22  1  0
 22 23  2  0
 22 24  2  0
 22 25  1  0
 25 26  1  0
 16  8  1  0
 26 19  1  0
  1 27  1  0
  1 28  1  0
  1 29  1  0
  6 30  1  6
  7 31  1  0
  7 32  1  0
  9 33  1  0
 10 34  1  0
 11 35  1  0
 14 36  1  0
 14 37  1  0
 15 38  1  0
 15 39  1  0
 16 40  1  0
 20 41  1  0
 20 42  1  0
 21 43  1  0
 21 44  1  0
 25 45  1  0
 25 46  1  0
 26 47  1  0
 26 48  1  0
M  CHG  2   5  -1  15   1
M  END
>  <UniqueID>  (51) 
45

>  <SMILES>  (51) 
CS(=O)(=O)[N-][C@@H](Cc1cccc(C(N)=[NH2+])c1)C(=O)N1CCS(=O)(=O)CC1

>  <Energy>  (51) 
46.25903364236848

>  <Genealogy>  (51) 
CS(=O)(=O)[N-]C(Cc1cccc(C(N)=[NH2+])c1)C(=O)N1CCS(=O)(=O)CC1 (protonated)
CS(=O)(=O)[N-][C@@H](Cc1cccc(C(N)=[NH2+])c1)C(=O)N1CCS(=O)(=O)CC1 (chirality)
CS(=O)(=O)[N-][C@@H](Cc1cccc(C(N)=[NH2+])c1)C(=O)N1CCS(=O)(=O)CC1 (3D coordinates assigned)
CS(=O)(=O)[N-][C@@H](Cc1cccc(C(N)=[NH2+])c1)C(=O)N1CCS(=O)(=O)CC1 (nonaromatic ring conformer: 46.25903364236848 kcal/mol)

>  <smiles>  (51) 
CS(=O)(=O)NC(Cc1cccc(C(=N)N)c1)C(=O)N1CCS(=O)(=O)CC1

>  <score_type>  (51) 
oracle

>  <origin>  (51) 
adg

>  <m_score__min__energy>  (51) 
-9.0899999999999999

>  <m_primary>  (51) 
energy

$$$$
51:0
     RDKit          3D

 44 46  0  0  1  0  0  0  0  0999 V2000
   62.5640   33.3990   47.2110 C   0  0  0  0  0  0  0  0  0  0  0  0
   61.1910   33.8060   47.6040 C   0  0  0  0  0  0  0  0  0  0  0  0
   60.9830   34.2240   48.7940 O   0  0  0  0  0  0  0  0  0  0  0  0
   60.0970   33.7270   46.6400 C   0  0  0  0  0  0  0  0  0  0  0  0
   59.6560   34.8710   46.0220 C   0  0  0  0  0  0  0  0  0  0  0  0
   58.6230   34.7480   45.1220 C   0  0  0  0  0  0  0  0  0  0  0  0
   58.0390   33.5120   44.8410 C   0  0  0  0  0  0  0  0  0  0  0  0
   58.4750   32.3560   45.4570 C   0  0  0  0  0  0  0  0  0  0  0  0
   57.8680   31.0660   45.1650 C   0  0  0  0  0  0  0  0  0  0  0  0
   58.4560   29.8870   45.5790 C   0  0  0  0  0  0  0  0  0  0  0  0
   57.8620   28.6530   45.2930 C   0  0  0  0  0  0  0  0  0  0  0  0
   58.4180   27.5570   45.6840 N   0  0  0  0  0  0  0  0  0  0  0  0
   58.0030   26.3290   45.1520 C   0  0  0  0  0  0  0  0  0  0  0  0
   57.7850   26.0880   43.8080 C   0  0  0  0  0  0  0  0  0  0  0  0
   57.3710   24.8310   43.3620 C   0  0  0  0  0  0  0  0  0  0  0  0
   57.1630   23.7850   44.2430 C   0  0  0  0  0  0  0  0  0  0  0  0
   56.6450   22.1990   43.7290 S   0  0  0  0  0  0  0  0  0  0  0  0
   58.0600   21.2140   43.5650 N   0  0  0  0  0  0  0  0  0  0  0  0
   55.9220   22.2170   42.4360 O   0  0  0  0  0  0  0  0  0  0  0  0
   55.7570   21.5690   44.7850 O   0  0  0  0  0  0  0  0  0  0  0  0
   57.3820   24.0320   45.5830 C   0  0  0  0  0  0  0  0  0  0  0  0
   57.7920   25.2750   46.0200 C   0  0  0  0  0  0  0  0  0  0  0  0
   56.7080   28.5930   44.6090 N   0  0  0  0  0  0  0  0  0  0  0  0
   56.1460   29.7460   44.2110 C   0  0  0  0  0  0  0  0  0  0  0  0
   55.0200   29.7020   43.5420 N   0  0  0  0  0  0  0  0  0  0  0  0
   56.7160   30.9550   44.4850 N   0  0  0  0  0  0  0  0  0  0  0  0
   59.5120   32.4920   46.3570 C   0  0  0  0  0  0  0  0  0  0  0  0
   63.1662   33.2205   48.1141 H   0  0  0  0  0  0  0  0  0  0  0  0
   62.5162   32.4764   46.6139 H   0  0  0  0  0  0  0  0  0  0  0  0
   63.0267   34.1986   46.6139 H   0  0  0  0  0  0  0  0  0  0  0  0
   60.1114   35.8487   46.2383 H   0  0  0  0  0  0  0  0  0  0  0  0
   58.2477   35.6468   44.6108 H   0  0  0  0  0  0  0  0  0  0  0  0
   57.2150   33.4578   44.1143 H   0  0  0  0  0  0  0  0  0  0  0  0
   59.4018   29.9185   46.1398 H   0  0  0  0  0  0  0  0  0  0  0  0
   57.9399   26.8978   43.0798 H   0  0  0  0  0  0  0  0  0  0  0  0
   57.2067   24.6691   42.2865 H   0  0  0  0  0  0  0  0  0  0  0  0
   58.4370   20.9430   44.5160 H   0  0  0  0  0  0  0  0  0  0  0  0
   57.8750   20.3440   43.0450 H   0  0  0  0  0  0  0  0  0  0  0  0
   57.2272   23.2251   46.3144 H   0  0  0  0  0  0  0  0  0  0  0  0
   57.9565   25.4321   47.0962 H   0  0  0  0  0  0  0  0  0  0  0  0
   56.2750   27.6880   44.4000 H   0  0  0  0  0  0  0  0  0  0  0  0
   55.0820   29.2770   42.5920 H   0  0  0  0  0  0  0  0  0  0  0  0
   56.1910   31.7770   44.1280 H   0  0  0  0  0  0  0  0  0  0  0  0
   59.8909   31.5954   46.8694 H   0  0  0  0  0  0  0  0  0  0  0  0
  1  2  1  0
  2  3  2  0
  2  4  1  0
  4  5  2  0
  5  6  1  0
  6  7  2  0
  7  8  1  0
  8  9  1  0
  9 10  2  0
 10 11  1  0
 11 12  2  0
 12 13  1  0
 13 14  2  0
 14 15  1  0
 15 16  2  0
 16 17  1  0
 17 18  1  0
 17 19  2  0
 17 20  2  0
 16 21  1  0
 21 22  2  0
 11 23  1  0
 23 24  1  0
 24 25  2  3
 24 26  1  0
  8 27  2  0
 27  4  1  0
 26  9  1  0
 22 13  1  0
  1 28  1  0
  1 29  1  0
  1 30  1  0
  5 31  1  0
  6 32  1  0
  7 33  1  0
 10 34  1  0
 14 35  1  0
 15 36  1  0
 18 37  1  0
 18 38  1  0
 21 39  1  0
 22 40  1  0
 23 41  1  0
 25 42  1  0
 26 43  1  0
 27 44  1  0
M  END
>  <smiles>  (52) 
CC(=O)c1cccc(-c2cc(=Nc3ccc(S(N)(=O)=O)cc3)[nH]c(=N)[nH]2)c1

>  <score_type>  (52) 
oracle

>  <origin>  (52) 
adg

>  <m_score__min__energy>  (52) 
-10.050000000000001

>  <m_primary>  (52) 
energy

$$$$
52:0
     RDKit          3D

 38 40  0  0  0  0  0  0  0  0999 V2000
   55.0610   29.7960   54.4420 O   0  0  0  0  0  0  0  0  0  0  0  0
   54.9790   30.0640   53.2130 C   0  0  0  0  0  0  0  0  0  0  0  0
   53.7230   29.8600   52.5460 N   0  0  0  0  0  0  0  0  0  0  0  0
   52.8480   30.7720   52.2190 C   0  0  0  0  0  0  0  0  0  0  0  0
   52.7390   31.2940   50.9120 C   0  0  0  0  0  0  0  0  0  0  0  0
   51.7770   32.2690   50.6370 C   0  0  0  0  0  0  0  0  0  0  0  0
   50.9430   32.7000   51.6190 N   0  0  0  0  0  0  0  0  0  0  0  0
   51.0110   32.2030   52.8810 C   0  0  0  0  0  0  0  0  0  0  0  0
   51.9590   31.2280   53.2000 C   0  0  0  0  0  0  0  0  0  0  0  0
   56.1480   30.6480   52.5120 C   0  0  0  0  0  0  0  0  0  0  0  0
   56.2700   32.0400   52.3590 C   0  0  0  0  0  0  0  0  0  0  0  0
   57.3490   32.5830   51.6570 C   0  0  0  0  0  0  0  0  0  0  0  0
   58.3210   31.7420   51.1010 C   0  0  0  0  0  0  0  0  0  0  0  0
   59.6350   32.4050   50.1330 S   0  0  0  0  0  0  0  0  0  0  0  0
   60.9370   31.8570   50.6440 O   0  0  0  0  0  0  0  0  0  0  0  0
   59.6670   33.9050   50.2240 O   0  0  0  0  0  0  0  0  0  0  0  0
   59.4270   31.9370   48.4770 N   0  0  0  0  0  0  0  0  0  0  0  0
   59.0810   32.8270   47.4050 C   0  0  0  0  0  0  0  0  0  0  0  0
   57.8680   32.7100   46.6970 C   0  0  0  0  0  0  0  0  0  0  0  0
   57.5780   33.5860   45.6470 C   0  0  0  0  0  0  0  0  0  0  0  0
   58.4860   34.5880   45.3000 C   0  0  0  0  0  0  0  0  0  0  0  0
   59.6860   34.7180   46.0050 C   0  0  0  0  0  0  0  0  0  0  0  0
   59.9830   33.8430   47.0550 C   0  0  0  0  0  0  0  0  0  0  0  0
   61.1540   33.9760   47.7260 F   0  0  0  0  0  0  0  0  0  0  0  0
   58.2200   30.3570   51.2740 C   0  0  0  0  0  0  0  0  0  0  0  0
   57.1440   29.8120   51.9810 C   0  0  0  0  0  0  0  0  0  0  0  0
   53.4072   30.9354   50.1152 H   0  0  0  0  0  0  0  0  0  0  0  0
   51.6947   32.6885   49.6235 H   0  0  0  0  0  0  0  0  0  0  0  0
   50.3184   32.5689   53.6533 H   0  0  0  0  0  0  0  0  0  0  0  0
   52.0071   30.8191   54.2201 H   0  0  0  0  0  0  0  0  0  0  0  0
   55.5109   32.7062   52.7949 H   0  0  0  0  0  0  0  0  0  0  0  0
   57.4352   33.6734   51.5408 H   0  0  0  0  0  0  0  0  0  0  0  0
   57.1467   31.9263   46.9717 H   0  0  0  0  0  0  0  0  0  0  0  0
   56.6328   33.4857   45.0933 H   0  0  0  0  0  0  0  0  0  0  0  0
   58.2572   35.2751   44.4720 H   0  0  0  0  0  0  0  0  0  0  0  0
   60.3987   35.5106   45.7333 H   0  0  0  0  0  0  0  0  0  0  0  0
   58.9902   29.6946   50.8521 H   0  0  0  0  0  0  0  0  0  0  0  0
   57.0771   28.7231   52.1221 H   0  0  0  0  0  0  0  0  0  0  0  0
  1  2  2  0
  2  3  1  0
  3  4  2  3
  4  5  1  0
  5  6  2  0
  6  7  1  0
  7  8  1  0
  8  9  2  0
  2 10  1  0
 10 11  2  0
 11 12  1  0
 12 13  2  0
 13 14  1  0
 14 15  2  0
 14 16  2  0
 14 17  1  0
 17 18  1  0
 18 19  2  0
 19 20  1  0
 20 21  2  0
 21 22  1  0
 22 23  2  0
 23 24  1  0
 13 25  1  0
 25 26  2  0
  9  4  1  0
 26 10  1  0
 23 18  1  0
  5 27  1  0
  6 28  1  0
  8 29  1  0
  9 30  1  0
 11 31  1  0
 12 32  1  0
 19 33  1  0
 20 34  1  0
 21 35  1  0
 22 36  1  0
 25 37  1  0
 26 38  1  0
M  CHG  2   7  -1  17  -1
M  END
>  <UniqueID>  (53) 
46

>  <SMILES>  (53) 
O=C(N=c1cc[n-]cc1)c1ccc(S(=O)(=O)[N-]c2ccccc2F)cc1

>  <Energy>  (53) 
55.33780997020183

>  <Genealogy>  (53) 
O=C(N=c1cc[n-]cc1)c1ccc(S(=O)(=O)[N-]c2ccccc2F)cc1 (protonated)
O=C(N=c1cc[n-]cc1)c1ccc(S(=O)(=O)[N-]c2ccccc2F)cc1 (3D coordinates assigned)
O=C(N=c1cc[n-]cc1)c1ccc(S(=O)(=O)[N-]c2ccccc2F)cc1 (optimized conformer: 55.33780997020183 kcal/mol)

>  <smiles>  (53) 
O=C(N=c1cc[nH]cc1)c1ccc(S(=O)(=O)Nc2ccccc2F)cc1

>  <score_type>  (53) 
oracle

>  <origin>  (53) 
adg

>  <m_score__min__energy>  (53) 
-11.029999999999999

>  <m_primary>  (53) 
energy

$$$$
53:0
     RDKit          3D

 52 55  0  0  0  0  0  0  0  0999 V2000
   59.8070   34.5460   54.3330 C   0  0  0  0  0  0  0  0  0  0  0  0
   60.7190   33.6850   53.6580 O   0  0  0  0  0  0  0  0  0  0  0  0
   60.8240   33.5690   52.2630 C   0  0  0  0  0  0  0  0  0  0  0  0
   62.0300   33.8160   51.5810 C   0  0  0  0  0  0  0  0  0  0  0  0
   62.1040   33.6780   50.1880 C   0  0  0  0  0  0  0  0  0  0  0  0
   63.3040   33.9470   49.5180 C   0  0  0  0  0  0  0  0  0  0  0  0
   63.3580   33.8240   48.1320 C   0  0  0  0  0  0  0  0  0  0  0  0
   62.2620   33.4230   47.4380 N   0  0  0  0  0  0  0  0  0  0  0  0
   61.0790   33.1310   48.0450 C   0  0  0  0  0  0  0  0  0  0  0  0
   59.9640   32.6620   47.1950 C   0  0  0  0  0  0  0  0  0  0  0  0
   59.3520   31.4220   47.4390 C   0  0  0  0  0  0  0  0  0  0  0  0
   58.2690   31.0070   46.6600 C   0  0  0  0  0  0  0  0  0  0  0  0
   57.7990   31.8160   45.6100 C   0  0  0  0  0  0  0  0  0  0  0  0
   56.6440   31.4570   44.8410 N   0  0  0  0  0  0  0  0  0  0  0  0
   56.4160   29.9060   44.1000 S   0  0  0  0  0  0  0  0  0  0  0  0
   55.0820   29.3490   44.5090 O   0  0  0  0  0  0  0  0  0  0  0  0
   56.4490   30.0600   42.6060 O   0  0  0  0  0  0  0  0  0  0  0  0
   57.6840   28.8120   44.6510 C   0  0  0  0  0  0  0  0  0  0  0  0
   59.0300   29.0780   44.3710 C   0  0  0  0  0  0  0  0  0  0  0  0
   60.0280   28.2390   44.8720 C   0  0  0  0  0  0  0  0  0  0  0  0
   59.6880   27.1270   45.6500 C   0  0  0  0  0  0  0  0  0  0  0  0
   58.3390   26.8370   45.9230 C   0  0  0  0  0  0  0  0  0  0  0  0
   57.9440   25.6630   46.7810 C   0  0  0  0  0  0  0  0  0  0  0  0
   58.5820   25.7440   48.0070 F   0  0  0  0  0  0  0  0  0  0  0  0
   56.5770   25.6280   47.0010 F   0  0  0  0  0  0  0  0  0  0  0  0
   58.3230   24.4900   46.1540 F   0  0  0  0  0  0  0  0  0  0  0  0
   57.3430   27.6940   45.4250 C   0  0  0  0  0  0  0  0  0  0  0  0
   58.4580   33.0160   45.3220 C   0  0  0  0  0  0  0  0  0  0  0  0
   59.5340   33.4390   46.1090 C   0  0  0  0  0  0  0  0  0  0  0  0
   60.9630   33.2790   49.4540 C   0  0  0  0  0  0  0  0  0  0  0  0
   59.7480   33.0750   50.1400 C   0  0  0  0  0  0  0  0  0  0  0  0
   59.6800   33.2020   51.5400 C   0  0  0  0  0  0  0  0  0  0  0  0
   58.4910   32.9700   52.2510 O   0  0  0  0  0  0  0  0  0  0  0  0
   57.4220   32.1470   51.7930 C   0  0  0  0  0  0  0  0  0  0  0  0
   59.9296   34.4303   55.4200 H   0  0  0  0  0  0  0  0  0  0  0  0
   60.0101   35.5894   54.0502 H   0  0  0  0  0  0  0  0  0  0  0  0
   58.7770   34.2833   54.0502 H   0  0  0  0  0  0  0  0  0  0  0  0
   62.9231   34.1203   52.1465 H   0  0  0  0  0  0  0  0  0  0  0  0
   64.1972   34.2531   50.0824 H   0  0  0  0  0  0  0  0  0  0  0  0
   64.2918   34.0525   47.5975 H   0  0  0  0  0  0  0  0  0  0  0  0
   59.7265   30.7752   48.2461 H   0  0  0  0  0  0  0  0  0  0  0  0
   57.7818   30.0432   46.8689 H   0  0  0  0  0  0  0  0  0  0  0  0
   59.3016   29.9485   43.7559 H   0  0  0  0  0  0  0  0  0  0  0  0
   61.0847   28.4532   44.6542 H   0  0  0  0  0  0  0  0  0  0  0  0
   60.4795   26.4763   46.0501 H   0  0  0  0  0  0  0  0  0  0  0  0
   56.2855   27.4856   45.6446 H   0  0  0  0  0  0  0  0  0  0  0  0
   58.1279   33.6305   44.4715 H   0  0  0  0  0  0  0  0  0  0  0  0
   60.0451   34.3846   45.8755 H   0  0  0  0  0  0  0  0  0  0  0  0
   58.8420   32.8133   49.5738 H   0  0  0  0  0  0  0  0  0  0  0  0
   56.8827   31.7318   52.6572 H   0  0  0  0  0  0  0  0  0  0  0  0
   56.7311   32.7485   51.1841 H   0  0  0  0  0  0  0  0  0  0  0  0
   57.8269   31.3252   51.1841 H   0  0  0  0  0  0  0  0  0  0  0  0
  1  2  1  0
  2  3  1  0
  3  4  2  0
  4  5  1  0
  5  6  2  0
  6  7  1  0
  7  8  2  0
  8  9  1  0
  9 10  1  0
 10 11  2  0
 11 12  1  0
 12 13  2  0
 13 14  1  0
 14 15  1  0
 15 16  2  0
 15 17  2  0
 15 18  1  0
 18 19  2  0
 19 20  1  0
 20 21  2  0
 21 22  1  0
 22 23  1  0
 23 24  1  0
 23 25  1  0
 23 26  1  0
 22 27  2  0
 13 28  1  0
 28 29  2  0
  9 30  2  0
 30 31  1  0
 31 32  2  0
 32 33  1  0
 33 34  1  0
 32  3  1  0
 30  5  1  0
 29 10  1  0
 27 18  1  0
  1 35  1  0
  1 36  1  0
  1 37  1  0
  4 38  1  0
  6 39  1  0
  7 40  1  0
 11 41  1  0
 12 42  1  0
 19 43  1  0
 20 44  1  0
 21 45  1  0
 27 46  1  0
 28 47  1  0
 29 48  1  0
 31 49  1  0
 34 50  1  0
 34 51  1  0
 34 52  1  0
M  CHG  1  14  -1
M  END
>  <UniqueID>  (54) 
47

>  <SMILES>  (54) 
COc1cc2ccnc(-c3ccc([N-]S(=O)(=O)c4cccc(C(F)(F)F)c4)cc3)c2cc1OC

>  <Energy>  (54) 
69.49703815111094

>  <Genealogy>  (54) 
COc1cc2ccnc(-c3ccc([N-]S(=O)(=O)c4cccc(C(F)(F)F)c4)cc3)c2cc1OC (protonated)
COc1cc2ccnc(-c3ccc([N-]S(=O)(=O)c4cccc(C(F)(F)F)c4)cc3)c2cc1OC (3D coordinates assigned)
COc1cc2ccnc(-c3ccc([N-]S(=O)(=O)c4cccc(C(F)(F)F)c4)cc3)c2cc1OC (optimized conformer: 69.49703815111094 kcal/mol)

>  <smiles>  (54) 
COc1cc2ccnc(-c3ccc(NS(=O)(=O)c4cccc(C(F)(F)F)c4)cc3)c2cc1OC

>  <score_type>  (54) 
oracle

>  <origin>  (54) 
adg

>  <m_score__min__energy>  (54) 
-10.300000000000001

>  <m_primary>  (54) 
energy

$$$$
54:0
     RDKit          3D

 66 70  0  0  1  0  0  0  0  0999 V2000
   56.4320   22.3370   48.7710 C   0  0  0  0  0  0  0  0  0  0  0  0
   57.3590   22.3300   47.7210 O   0  0  0  0  0  0  0  0  0  0  0  0
   57.0900   22.2610   46.3810 C   0  0  0  0  0  0  0  0  0  0  0  0
   56.7700   21.0240   45.8440 C   0  0  0  0  0  0  0  0  0  0  0  0
   56.4820   20.8450   44.5090 C   0  0  0  0  0  0  0  0  0  0  0  0
   56.5180   21.9670   43.6790 C   0  0  0  0  0  0  0  0  0  0  0  0
   56.2360   21.8510   42.3220 O   0  0  0  0  0  0  0  0  0  0  0  0
   56.8410   23.1970   44.2410 C   0  0  0  0  0  0  0  0  0  0  0  0
   57.1250   23.3510   45.5710 C   0  0  0  0  0  0  0  0  0  0  0  0
   57.4590   24.6580   46.1230 C   0  0  0  0  0  0  0  0  0  0  0  0
   57.6430   25.7010   45.3540 N   0  0  0  0  0  0  0  0  0  0  0  0
   58.4730   26.7560   45.8820 C   0  0  0  0  0  0  0  0  0  0  0  0
   58.4540   26.9870   47.2360 C   0  0  0  0  0  0  0  0  0  0  0  0
   59.2410   27.9930   47.7530 C   0  0  0  0  0  0  0  0  0  0  0  0
   60.0510   28.7800   46.9630 C   0  0  0  0  0  0  0  0  0  0  0  0
   60.8120   29.7860   47.6220 N   0  0  0  0  0  0  0  0  0  0  0  0
   60.6720   30.9990   47.2080 C   0  0  0  0  0  0  0  0  0  0  0  0
   59.6830   31.3980   46.3880 N   0  0  0  0  0  0  0  0  0  0  0  0
   59.5980   32.7030   45.9920 C   0  0  0  0  0  0  0  0  0  0  0  0
   58.5140   33.0280   45.1510 N   0  0  0  0  0  0  0  0  0  0  0  0
   58.0100   34.4070   45.2410 C   0  0  0  0  0  0  0  0  0  0  0  0
   57.8700   32.1740   44.2480 C   0  0  0  0  0  0  0  0  0  0  0  0
   57.1110   31.0740   44.5930 C   0  0  0  0  0  0  0  0  0  0  0  0
   56.5100   30.2510   43.6550 C   0  0  0  0  0  0  0  0  0  0  0  0
   56.6430   30.4970   42.3100 C   0  0  0  0  0  0  0  0  0  0  0  0
   57.3940   31.5890   41.9390 C   0  0  0  0  0  0  0  0  0  0  0  0
   57.9850   32.3970   42.8670 C   0  0  0  0  0  0  0  0  0  0  0  0
   60.5180   33.5670   46.4400 N   0  0  0  0  0  0  0  0  0  0  0  0
   61.4960   33.1440   47.2570 C   0  0  0  0  0  0  0  0  0  0  0  0
   62.3760   33.9880   47.6810 N   0  0  0  0  0  0  0  0  0  0  0  0
   63.1400   33.7260   48.8530 C   0  0  0  0  0  0  0  0  0  0  0  0
   62.7270   34.1330   50.1180 C   0  0  0  0  0  0  0  0  0  0  0  0
   63.5310   33.8350   51.1910 C   0  0  0  0  0  0  0  0  0  0  0  0
   64.7310   33.1430   51.0290 C   0  0  0  0  0  0  0  0  0  0  0  0
   65.1370   32.7380   49.7630 C   0  0  0  0  0  0  0  0  0  0  0  0
   64.3370   33.0320   48.6730 C   0  0  0  0  0  0  0  0  0  0  0  0
   61.6070   31.8830   47.6610 N   0  0  0  0  0  0  0  0  0  0  0  0
   60.0710   28.5510   45.6200 C   0  0  0  0  0  0  0  0  0  0  0  0
   59.2760   27.5310   45.0830 C   0  0  0  0  0  0  0  0  0  0  0  0
   56.9668   22.3330   49.7323 H   0  0  0  0  0  0  0  0  0  0  0  0
   55.8074   23.2399   48.7027 H   0  0  0  0  0  0  0  0  0  0  0  0
   55.7938   21.4436   48.7027 H   0  0  0  0  0  0  0  0  0  0  0  0
   56.7450   20.1497   46.5110 H   0  0  0  0  0  0  0  0  0  0  0  0
   56.2319   19.8509   44.1100 H   0  0  0  0  0  0  0  0  0  0  0  0
   56.5840   22.5780   41.7050 H   0  0  0  0  0  0  0  0  0  0  0  0
   56.8695   24.0830   43.5898 H   0  0  0  0  0  0  0  0  0  0  0  0
   57.5589   24.7706   47.2127 H   0  0  0  0  0  0  0  0  0  0  0  0
   57.8202   26.3781   47.8975 H   0  0  0  0  0  0  0  0  0  0  0  0
   59.2221   28.1749   48.8377 H   0  0  0  0  0  0  0  0  0  0  0  0
   57.9062   34.6911   46.2986 H   0  0  0  0  0  0  0  0  0  0  0  0
   58.7170   35.0889   44.7459 H   0  0  0  0  0  0  0  0  0  0  0  0
   57.0299   34.4722   44.7459 H   0  0  0  0  0  0  0  0  0  0  0  0
   56.9776   30.8407   45.6597 H   0  0  0  0  0  0  0  0  0  0  0  0
   55.9175   29.3877   43.9920 H   0  0  0  0  0  0  0  0  0  0  0  0
   56.1684   29.8474   41.5598 H   0  0  0  0  0  0  0  0  0  0  0  0
   57.5209   31.8159   40.8702 H   0  0  0  0  0  0  0  0  0  0  0  0
   58.5751   33.2574   42.5185 H   0  0  0  0  0  0  0  0  0  0  0  0
   60.4960   34.5540   46.1890 H   0  0  0  0  0  0  0  0  0  0  0  0
   61.7818   34.6788   50.2550 H   0  0  0  0  0  0  0  0  0  0  0  0
   63.2220   34.1486   52.1990 H   0  0  0  0  0  0  0  0  0  0  0  0
   65.3572   32.9174   51.9047 H   0  0  0  0  0  0  0  0  0  0  0  0
   66.0819   32.1909   49.6293 H   0  0  0  0  0  0  0  0  0  0  0  0
   64.6447   32.7186   47.6645 H   0  0  0  0  0  0  0  0  0  0  0  0
   62.3680   31.5860   48.2880 H   0  0  0  0  0  0  0  0  0  0  0  0
   60.7067   29.1626   44.9628 H   0  0  0  0  0  0  0  0  0  0  0  0
   59.2954   27.3471   43.9987 H   0  0  0  0  0  0  0  0  0  0  0  0
  1  2  1  0
  2  3  1  0
  3  4  2  0
  4  5  1  0
  5  6  2  0
  6  7  1  0
  6  8  1  0
  8  9  2  0
  9 10  1  0
 10 11  2  0
 11 12  1  0
 12 13  2  0
 13 14  1  0
 14 15  2  0
 15 16  1  0
 16 17  2  0
 17 18  1  0
 18 19  2  0
 19 20  1  0
 20 21  1  0
 20 22  1  0
 22 23  2  0
 23 24  1  0
 24 25  2  0
 25 26  1  0
 26 27  2  0
 19 28  1  0
 28 29  1  0
 29 30  2  0
 30 31  1  0
 31 32  2  0
 32 33  1  0
 33 34  2  0
 34 35  1  0
 35 36  2  0
 29 37  1  0
 15 38  1  0
 38 39  2  0
  9  3  1  0
 39 12  1  0
 37 17  1  0
 27 22  1  0
 36 31  1  0
  1 40  1  0
  1 41  1  0
  1 42  1  0
  4 43  1  0
  5 44  1  0
  7 45  1  0
  8 46  1  0
 10 47  1  0
 13 48  1  0
 14 49  1  0
 21 50  1  0
 21 51  1  0
 21 52  1  0
 23 53  1  0
 24 54  1  0
 25 55  1  0
 26 56  1  0
 27 57  1  0
 28 58  1  0
 32 59  1  0
 33 60  1  0
 34 61  1  0
 35 62  1  0
 36 63  1  0
 37 64  1  0
 38 65  1  0
 39 66  1  0
M  END
>  <smiles>  (55) 
COc1ccc(O)cc1C=Nc1ccc(N=c2nc(N(C)c3ccccc3)[nH]c(=Nc3ccccc3)[nH]2)cc1

>  <score_type>  (55) 
oracle

>  <origin>  (55) 
adg

>  <m_score__min__energy>  (55) 
-10.630000000000001

>  <m_primary>  (55) 
energy

$$$$
55:0
     RDKit          3D

 27 29  0  0  1  0  0  0  0  0999 V2000
   64.1590   33.6170   47.1390 O   0  0  0  0  0  0  0  0  0  0  0  0
   62.8940   33.0550   47.2170 C   0  0  0  0  0  0  0  0  0  0  0  0
   62.8200   31.7110   47.5190 C   0  0  0  0  0  0  0  0  0  0  0  0
   61.5670   31.1440   47.6000 C   0  0  0  0  0  0  0  0  0  0  0  0
   60.4020   31.8860   47.3870 C   0  0  0  0  0  0  0  0  0  0  0  0
   59.1770   31.1700   47.5020 N   0  0  0  0  0  0  0  0  0  0  0  0
   58.3610   31.0550   46.5300 C   0  0  0  0  0  0  0  0  0  0  0  0
   57.8570   32.1310   45.8980 N   0  0  0  0  0  0  0  0  0  0  0  0
   56.9960   32.0040   44.8720 C   0  0  0  0  0  0  0  0  0  0  0  0
   56.6170   30.7610   44.4560 N   0  0  0  0  0  0  0  0  0  0  0  0
   57.0840   29.6400   45.0450 C   0  0  0  0  0  0  0  0  0  0  0  0
   56.8960   28.3130   44.8580 N   0  0  0  0  0  0  0  0  0  0  0  0
   57.6350   27.6290   45.7600 C   0  0  0  0  0  0  0  0  0  0  0  0
   58.3300   28.5260   46.5650 C   0  0  0  0  0  0  0  0  0  0  0  0
   59.4290   28.1520   47.8880 Cl  0  0  0  0  0  0  0  0  0  0  0  0
   57.9690   29.7870   46.0980 C   0  0  0  0  0  0  0  0  0  0  0  0
   60.4760   33.2240   47.0860 C   0  0  0  0  0  0  0  0  0  0  0  0
   61.7390   33.7950   47.0050 C   0  0  0  0  0  0  0  0  0  0  0  0
   64.9150   33.0170   46.8510 H   0  0  0  0  0  0  0  0  0  0  0  0
   63.7281   31.1139   47.6889 H   0  0  0  0  0  0  0  0  0  0  0  0
   61.4808   30.0739   47.8398 H   0  0  0  0  0  0  0  0  0  0  0  0
   58.1490   33.0810   46.2190 H   0  0  0  0  0  0  0  0  0  0  0  0
   56.5991   32.8989   44.3704 H   0  0  0  0  0  0  0  0  0  0  0  0
   56.2700   27.9130   44.1210 H   0  0  0  0  0  0  0  0  0  0  0  0
   57.6799   26.5332   45.8444 H   0  0  0  0  0  0  0  0  0  0  0  0
   59.5681   33.8212   46.9154 H   0  0  0  0  0  0  0  0  0  0  0  0
   61.8268   34.8651   46.7658 H   0  0  0  0  0  0  0  0  0  0  0  0
  1  2  1  0
  2  3  2  0
  3  4  1  0
  4  5  2  0
  5  6  1  0
  6  7  2  0
  7  8  1  0
  8  9  1  0
  9 10  2  0
 10 11  1  0
 11 12  1  0
 12 13  1  0
 13 14  2  0
 14 15  1  0
 14 16  1  0
  5 17  1  0
 17 18  2  0
 18  2  1  0
 16  7  1  0
 16 11  2  0
  1 19  1  0
  3 20  1  0
  4 21  1  0
  8 22  1  0
  9 23  1  0
 12 24  1  0
 13 25  1  0
 17 26  1  0
 18 27  1  0
M  END
>  <smiles>  (56) 
Oc1ccc(N=c2[nH]cnc3[nH]cc(Cl)c23)cc1

>  <score_type>  (56) 
oracle

>  <origin>  (56) 
adg

>  <m_score__min__energy>  (56) 
-6.4699999999999998

>  <m_primary>  (56) 
energy

$$$$
56:0
     RDKit          3D

 39 41  0  0  0  0  0  0  0  0999 V2000
   60.2540   33.8910   49.8000 C   0  0  0  0  0  0  0  0  0  0  0  0
   61.5920   33.6390   49.1550 C   0  0  0  0  0  0  0  0  0  0  0  0
   62.7450   33.6340   49.9600 C   0  0  0  0  0  0  0  0  0  0  0  0
   64.0000   33.3830   49.4020 C   0  0  0  0  0  0  0  0  0  0  0  0
   64.1210   33.1390   48.0340 C   0  0  0  0  0  0  0  0  0  0  0  0
   62.9880   33.1580   47.2170 C   0  0  0  0  0  0  0  0  0  0  0  0
   61.7200   33.4230   47.7600 C   0  0  0  0  0  0  0  0  0  0  0  0
   60.5520   33.4580   46.8510 C   0  0  0  0  0  0  0  0  0  0  0  0
   60.2550   34.6190   46.1260 C   0  0  0  0  0  0  0  0  0  0  0  0
   59.1790   34.6360   45.2420 C   0  0  0  0  0  0  0  0  0  0  0  0
   58.9150   35.7530   44.5200 F   0  0  0  0  0  0  0  0  0  0  0  0
   58.3820   33.5010   45.0850 C   0  0  0  0  0  0  0  0  0  0  0  0
   58.6260   32.3310   45.8360 C   0  0  0  0  0  0  0  0  0  0  0  0
   57.7610   31.0880   45.5880 C   0  0  1  0  0  0  0  0  0  0  0  0
   56.7980   31.1480   44.3750 C   0  0  0  0  0  0  0  0  0  0  0  0
   56.1270   29.8390   44.0640 C   0  0  0  0  0  0  0  0  0  0  0  0
   56.4370   29.1860   43.0340 O   0  0  0  0  0  0  0  0  0  0  0  0
   55.1590   29.3370   44.9250 O   0  0  0  0  0  0  0  0  0  0  0  0
   58.5840   29.8220   45.5190 C   0  0  0  0  0  0  0  0  0  0  0  0
   59.6710   29.6910   44.7250 N   0  0  0  0  0  0  0  0  0  0  0  0
   60.2720   28.4810   44.8760 C   0  0  0  0  0  0  0  0  0  0  0  0
   59.6760   27.6350   45.8030 C   0  0  0  0  0  0  0  0  0  0  0  0
   58.3510   28.4370   46.4550 S   0  0  0  0  0  0  0  0  0  0  0  0
   59.7570   32.3130   46.6810 C   0  0  0  0  0  0  0  0  0  0  0  0
   60.3647   33.8702   50.8942 H   0  0  0  0  0  0  0  0  0  0  0  0
   59.8764   34.8760   49.4884 H   0  0  0  0  0  0  0  0  0  0  0  0
   59.5440   33.1108   49.4884 H   0  0  0  0  0  0  0  0  0  0  0  0
   62.6574   33.8296   51.0389 H   0  0  0  0  0  0  0  0  0  0  0  0
   64.8946   33.3777   50.0421 H   0  0  0  0  0  0  0  0  0  0  0  0
   65.1094   32.9314   47.5981 H   0  0  0  0  0  0  0  0  0  0  0  0
   63.0898   32.9637   46.1391 H   0  0  0  0  0  0  0  0  0  0  0  0
   60.8732   35.5196   46.2552 H   0  0  0  0  0  0  0  0  0  0  0  0
   57.5508   33.5185   44.3648 H   0  0  0  0  0  0  0  0  0  0  0  0
   57.1123   31.0731   46.4763 H   0  0  0  0  0  0  0  0  0  0  0  0
   56.0187   31.8945   44.5881 H   0  0  0  0  0  0  0  0  0  0  0  0
   57.4065   31.4112   43.4972 H   0  0  0  0  0  0  0  0  0  0  0  0
   61.1666   28.1923   44.3048 H   0  0  0  0  0  0  0  0  0  0  0  0
   60.0118   26.6205   46.0638 H   0  0  0  0  0  0  0  0  0  0  0  0
   60.0195   31.3876   47.2145 H   0  0  0  0  0  0  0  0  0  0  0  0
  1  2  1  0
  2  3  2  0
  3  4  1  0
  4  5  2  0
  5  6  1  0
  6  7  2  0
  7  8  1  0
  8  9  2  0
  9 10  1  0
 10 11  1  0
 10 12  2  0
 12 13  1  0
 13 14  1  0
 14 15  1  0
 15 16  1  0
 16 17  2  0
 16 18  1  0
 14 19  1  0
 19 20  2  0
 20 21  1  0
 21 22  2  0
 22 23  1  0
 13 24  2  0
  7  2  1  0
 24  8  1  0
 23 19  1  0
  1 25  1  0
  1 26  1  0
  1 27  1  0
  3 28  1  0
  4 29  1  0
  5 30  1  0
  6 31  1  0
  9 32  1  0
 12 33  1  0
 14 34  1  1
 15 35  1  0
 15 36  1  0
 21 37  1  0
 22 38  1  0
 24 39  1  0
M  CHG  1  18  -1
M  END
>  <UniqueID>  (57) 
48

>  <SMILES>  (57) 
Cc1ccccc1-c1cc(F)cc([C@@H](CC(=O)[O-])c2nccs2)c1

>  <Energy>  (57) 
82.54806256811803

>  <Genealogy>  (57) 
Cc1ccccc1-c1cc(F)cc(C(CC(=O)[O-])c2nccs2)c1 (protonated)
Cc1ccccc1-c1cc(F)cc([C@@H](CC(=O)[O-])c2nccs2)c1 (chirality)
Cc1ccccc1-c1cc(F)cc([C@@H](CC(=O)[O-])c2nccs2)c1 (3D coordinates assigned)
Cc1ccccc1-c1cc(F)cc([C@@H](CC(=O)[O-])c2nccs2)c1 (optimized conformer: 82.54806256811803 kcal/mol)

>  <smiles>  (57) 
Cc1ccccc1-c1cc(F)cc(C(CC(=O)O)c2nccs2)c1

>  <score_type>  (57) 
oracle

>  <origin>  (57) 
adg

>  <m_score__min__energy>  (57) 
-11.130000000000001

>  <m_primary>  (57) 
energy

$$$$
57:0
     RDKit          3D

 31 32  0  0  0  0  0  0  0  0999 V2000
   54.2320   26.7140   45.3520 H   0  0  0  0  0  0  0  0  0  0  0  0
   55.0630   26.4310   45.8570 O   0  0  0  0  0  0  0  0  0  0  0  0
   56.2750   27.1070   45.7220 C   0  0  0  0  0  0  0  0  0  0  0  0
   57.4620   26.4530   46.0680 C   0  0  0  0  0  0  0  0  0  0  0  0
   57.4280   25.4202   46.4449 H   0  0  0  0  0  0  0  0  0  0  0  0
   58.6920   27.1060   45.9370 C   0  0  0  0  0  0  0  0  0  0  0  0
   59.6192   26.5897   46.2262 H   0  0  0  0  0  0  0  0  0  0  0  0
   58.7490   28.4150   45.4390 C   0  0  0  0  0  0  0  0  0  0  0  0
   60.0610   29.0880   45.3290 C   0  0  0  0  0  0  0  0  0  0  0  0
   60.6297   28.9551   44.3968 H   0  0  0  0  0  0  0  0  0  0  0  0
   60.5890   29.8290   46.2640 N   0  0  0  0  0  0  0  0  0  0  0  0
   60.3510   31.2250   46.5100 C   0  0  0  0  0  0  0  0  0  0  0  0
   61.3270   31.9710   47.1760 C   0  0  0  0  0  0  0  0  0  0  0  0
   62.2464   31.4745   47.5199 H   0  0  0  0  0  0  0  0  0  0  0  0
   61.1530   33.3470   47.4140 C   0  0  0  0  0  0  0  0  0  0  0  0
   62.1750   34.0860   48.1190 N   0  0  0  0  0  0  0  0  0  0  0  0
   63.3050   34.2430   47.6100 O   0  0  0  0  0  0  0  0  0  0  0  0
   61.9250   34.6570   49.3460 O   0  0  0  0  0  0  0  0  0  0  0  0
   59.9730   33.9750   46.9530 C   0  0  0  0  0  0  0  0  0  0  0  0
   59.7550   35.3310   47.1830 O   0  0  0  0  0  0  0  0  0  0  0  0
   59.0010   33.2340   46.2560 C   0  0  0  0  0  0  0  0  0  0  0  0
   57.7600   33.9090   45.7420 C   0  0  0  0  0  0  0  0  0  0  0  0
   57.1458   34.2431   46.5912 H   0  0  0  0  0  0  0  0  0  0  0  0
   58.0422   34.7779   45.1293 H   0  0  0  0  0  0  0  0  0  0  0  0
   57.1839   33.1999   45.1293 H   0  0  0  0  0  0  0  0  0  0  0  0
   59.2060   31.8680   46.0190 C   0  0  0  0  0  0  0  0  0  0  0  0
   58.4631   31.2962   45.4436 H   0  0  0  0  0  0  0  0  0  0  0  0
   57.5530   29.0820   45.1210 C   0  0  0  0  0  0  0  0  0  0  0  0
   57.5849   30.1233   44.7679 H   0  0  0  0  0  0  0  0  0  0  0  0
   56.3220   28.4290   45.2510 C   0  0  0  0  0  0  0  0  0  0  0  0
   55.1530   29.1020   44.9150 O   0  0  0  0  0  0  0  0  0  0  0  0
  1  2  1  0
  2  3  1  0
  3  4  2  0
  4  5  1  0
  4  6  1  0
  6  7  1  0
  6  8  2  0
  8  9  1  0
  9 10  1  0
  9 11  2  0
 11 12  1  0
 12 13  2  0
 13 14  1  0
 13 15  1  0
 15 16  1  0
 16 17  2  0
 16 18  1  0
 15 19  2  0
 19 20  1  0
 19 21  1  0
 21 22  1  0
 22 23  1  0
 22 24  1  0
 22 25  1  0
 21 26  2  0
 26 27  1  0
  8 28  1  0
 28 29  1  0
 28 30  2  0
 30 31  1  0
 30  3  1  0
 26 12  1  0
M  CHG  4  16   1  18  -1  20  -1  31  -1
M  END
>  <UniqueID>  (58) 
49

>  <SMILES>  (58) 
Cc1cc(/N=C\c2ccc(O)c([O-])c2)cc([N+](=O)[O-])c1[O-]

>  <Energy>  (58) 
45.91700032823264

>  <Genealogy>  (58) 
Cc1cc(N=Cc2ccc(O)c([O-])c2)cc([N+](=O)[O-])c1[O-] (protonated)
Cc1cc(/N=C\c2ccc(O)c([O-])c2)cc([N+](=O)[O-])c1[O-] (cis-trans isomerization)
Cc1cc(/N=C\c2ccc(O)c([O-])c2)cc([N+](=O)[O-])c1[O-] (3D coordinates assigned)
Cc1cc(/N=C\c2ccc(O)c([O-])c2)cc([N+](=O)[O-])c1[O-] (optimized conformer: 45.91700032823264 kcal/mol)

>  <smiles>  (58) 
Cc1cc(N=Cc2ccc(O)c(O)c2)cc([N+](=O)[O-])c1O

>  <score_type>  (58) 
oracle

>  <origin>  (58) 
adg

>  <m_score__min__energy>  (58) 
-12.199999999999999

>  <m_primary>  (58) 
energy

$$$$
58:0
     RDKit          3D

 60 62  0  0  0  0  0  0  0  0999 V2000
   61.6940   33.7750   51.2660 C   0  0  0  0  0  0  0  0  0  0  0  0
   60.7260   32.5830   51.2770 C   0  0  0  0  0  0  0  0  0  0  0  0
   60.1340   32.2140   49.9600 N   0  0  0  0  0  0  0  0  0  0  0  0
   59.5520   30.8440   49.8680 C   0  0  0  0  0  0  0  0  0  0  0  0
   60.5250   29.7300   49.4590 C   0  0  0  0  0  0  0  0  0  0  0  0
   59.3670   33.2900   49.2690 C   0  0  0  0  0  0  0  0  0  0  0  0
   58.4170   32.8160   48.1490 C   0  0  0  0  0  0  0  0  0  0  0  0
   59.1630   32.5880   46.9010 N   0  0  0  0  0  0  0  0  0  0  0  0
   60.1880   33.5070   46.4830 C   0  0  0  0  0  0  0  0  0  0  0  0
   59.9030   34.4440   45.6880 O   0  0  0  0  0  0  0  0  0  0  0  0
   61.5810   33.3600   46.9340 C   0  0  0  0  0  0  0  0  0  0  0  0
   62.7080   33.8470   46.2990 C   0  0  0  0  0  0  0  0  0  0  0  0
   63.7720   33.4970   47.0990 C   0  0  0  0  0  0  0  0  0  0  0  0
   63.2300   32.8180   48.1800 C   0  0  0  0  0  0  0  0  0  0  0  0
   63.9650   32.2380   49.3280 C   0  0  0  0  0  0  0  0  0  0  0  0
   63.4200   31.1910   50.0970 C   0  0  0  0  0  0  0  0  0  0  0  0
   64.1310   30.6620   51.1780 C   0  0  0  0  0  0  0  0  0  0  0  0
   65.3920   31.1670   51.5040 C   0  0  0  0  0  0  0  0  0  0  0  0
   66.2760   30.5040   52.8630 Cl  0  0  0  0  0  0  0  0  0  0  0  0
   65.9460   32.2010   50.7430 C   0  0  0  0  0  0  0  0  0  0  0  0
   65.2380   32.7320   49.6590 C   0  0  0  0  0  0  0  0  0  0  0  0
   61.9240   32.7570   48.0490 O   0  0  0  0  0  0  0  0  0  0  0  0
   58.9390   31.3920   46.1360 C   0  0  0  0  0  0  0  0  0  0  0  0
   59.8380   30.3230   46.2140 C   0  0  0  0  0  0  0  0  0  0  0  0
   59.6330   29.1720   45.4530 C   0  0  0  0  0  0  0  0  0  0  0  0
   58.5240   29.0700   44.5970 C   0  0  0  0  0  0  0  0  0  0  0  0
   58.3310   27.8170   43.7850 C   0  0  0  0  0  0  0  0  0  0  0  0
   57.6110   30.1470   44.5120 C   0  0  0  0  0  0  0  0  0  0  0  0
   56.4100   30.0840   43.6050 C   0  0  0  0  0  0  0  0  0  0  0  0
   57.8320   31.3010   45.2810 C   0  0  0  0  0  0  0  0  0  0  0  0
   61.9298   34.0654   52.3004 H   0  0  0  0  0  0  0  0  0  0  0  0
   62.6200   33.4906   50.7448 H   0  0  0  0  0  0  0  0  0  0  0  0
   61.2256   34.6229   50.7448 H   0  0  0  0  0  0  0  0  0  0  0  0
   61.2730   31.7079   51.6578 H   0  0  0  0  0  0  0  0  0  0  0  0
   59.8797   32.8922   51.9080 H   0  0  0  0  0  0  0  0  0  0  0  0
   60.9860   32.1290   49.3530 H   0  0  0  0  0  0  0  0  0  0  0  0
   59.1392   30.5859   50.8544 H   0  0  0  0  0  0  0  0  0  0  0  0
   58.8002   30.8925   49.0665 H   0  0  0  0  0  0  0  0  0  0  0  0
   60.9393   29.2557   50.3609 H   0  0  0  0  0  0  0  0  0  0  0  0
   59.9901   28.9771   48.8615 H   0  0  0  0  0  0  0  0  0  0  0  0
   61.3430   30.1587   48.8615 H   0  0  0  0  0  0  0  0  0  0  0  0
   58.7643   33.8150   50.0247 H   0  0  0  0  0  0  0  0  0  0  0  0
   60.1173   33.9274   48.7782 H   0  0  0  0  0  0  0  0  0  0  0  0
   57.9333   31.8776   48.4579 H   0  0  0  0  0  0  0  0  0  0  0  0
   57.6593   33.5938   47.9730 H   0  0  0  0  0  0  0  0  0  0  0  0
   62.7467   34.4006   45.3493 H   0  0  0  0  0  0  0  0  0  0  0  0
   64.8355   33.7120   46.9178 H   0  0  0  0  0  0  0  0  0  0  0  0
   62.4283   30.7871   49.8451 H   0  0  0  0  0  0  0  0  0  0  0  0
   63.6963   29.8458   51.7737 H   0  0  0  0  0  0  0  0  0  0  0  0
   66.9401   32.5977   50.9969 H   0  0  0  0  0  0  0  0  0  0  0  0
   65.6814   33.5422   49.0616 H   0  0  0  0  0  0  0  0  0  0  0  0
   60.7115   30.3904   46.8792 H   0  0  0  0  0  0  0  0  0  0  0  0
   60.3458   28.3372   45.5239 H   0  0  0  0  0  0  0  0  0  0  0  0
   58.1988   26.9590   44.4606 H   0  0  0  0  0  0  0  0  0  0  0  0
   57.4389   27.9250   43.1506 H   0  0  0  0  0  0  0  0  0  0  0  0
   59.2142   27.6515   43.1506 H   0  0  0  0  0  0  0  0  0  0  0  0
   55.4941   30.0360   44.2122 H   0  0  0  0  0  0  0  0  0  0  0  0
   56.3824   30.9819   42.9702 H   0  0  0  0  0  0  0  0  0  0  0  0
   56.4765   29.1881   42.9702 H   0  0  0  0  0  0  0  0  0  0  0  0
   57.1281   32.1435   45.2116 H   0  0  0  0  0  0  0  0  0  0  0  0
  1  2  1  0
  2  3  1  0
  3  4  1  0
  4  5  1  0
  3  6  1  0
  6  7  1  0
  7  8  1  0
  8  9  1  0
  9 10  2  0
  9 11  1  0
 11 12  2  0
 12 13  1  0
 13 14  2  0
 14 15  1  0
 15 16  2  0
 16 17  1  0
 17 18  2  0
 18 19  1  0
 18 20  1  0
 20 21  2  0
 14 22  1  0
  8 23  1  0
 23 24  2  0
 24 25  1  0
 25 26  2  0
 26 27  1  0
 26 28  1  0
 28 29  1  0
 28 30  2  0
 22 11  1  0
 30 23  1  0
 21 15  1  0
  1 31  1  0
  1 32  1  0
  1 33  1  0
  2 34  1  0
  2 35  1  0
  3 36  1  0
  4 37  1  0
  4 38  1  0
  5 39  1  0
  5 40  1  0
  5 41  1  0
  6 42  1  0
  6 43  1  0
  7 44  1  0
  7 45  1  0
 12 46  1  0
 13 47  1  0
 16 48  1  0
 17 49  1  0
 20 50  1  0
 21 51  1  0
 24 52  1  0
 25 53  1  0
 27 54  1  0
 27 55  1  0
 27 56  1  0
 29 57  1  0
 29 58  1  0
 29 59  1  0
 30 60  1  0
M  CHG  1   3   1
M  END
>  <UniqueID>  (59) 
50

>  <SMILES>  (59) 
CC[NH+](CC)CCN(C(=O)c1ccc(-c2ccc(Cl)cc2)o1)c1ccc(C)c(C)c1

>  <Energy>  (59) 
111.28507297286636

>  <Genealogy>  (59) 
CC[NH+](CC)CCN(C(=O)c1ccc(-c2ccc(Cl)cc2)o1)c1ccc(C)c(C)c1 (protonated)
CC[NH+](CC)CCN(C(=O)c1ccc(-c2ccc(Cl)cc2)o1)c1ccc(C)c(C)c1 (3D coordinates assigned)
CC[NH+](CC)CCN(C(=O)c1ccc(-c2ccc(Cl)cc2)o1)c1ccc(C)c(C)c1 (optimized conformer: 111.28507297286636 kcal/mol)

>  <smiles>  (59) 
CCN(CC)CCN(C(=O)c1ccc(-c2ccc(Cl)cc2)o1)c1ccc(C)c(C)c1

>  <score_type>  (59) 
oracle

>  <origin>  (59) 
adg

>  <m_score__min__energy>  (59) 
-6.9800000000000004

>  <m_primary>  (59) 
energy

$$$$
59:0
     RDKit          3D

 44 47  0  0  0  0  0  0  0  0999 V2000
   58.1450   26.9440   42.9770 C   0  0  0  0  0  0  0  0  0  0  0  0
   58.2060   28.2080   43.7800 C   0  0  0  0  0  0  0  0  0  0  0  0
   57.0750   29.0490   43.8650 C   0  0  0  0  0  0  0  0  0  0  0  0
   57.1240   30.2070   44.6540 C   0  0  0  0  0  0  0  0  0  0  0  0
   58.2790   30.4920   45.3140 N   0  0  0  0  0  0  0  0  0  0  0  0
   58.5990   31.4860   46.1680 C   0  0  0  0  0  0  0  0  0  0  0  0
   57.7070   32.5110   46.6260 N   0  0  0  0  0  0  0  0  0  0  0  0
   57.6460   33.8300   45.9950 C   0  0  0  0  0  0  0  0  0  0  0  0
   58.8640   34.6830   46.3320 C   0  0  0  0  0  0  0  0  0  0  0  0
   59.2940   34.6460   44.8710 C   0  0  0  0  0  0  0  0  0  0  0  0
   58.0760   33.7970   44.5300 C   0  0  0  0  0  0  0  0  0  0  0  0
   59.8760   31.2380   46.6620 C   0  0  0  0  0  0  0  0  0  0  0  0
   60.6180   32.0270   47.6700 C   0  0  0  0  0  0  0  0  0  0  0  0
   61.9800   32.3020   47.4630 C   0  0  0  0  0  0  0  0  0  0  0  0
   62.6940   33.0280   48.3750 N   0  0  0  0  0  0  0  0  0  0  0  0
   64.1240   33.2550   48.1550 C   0  0  0  0  0  0  0  0  0  0  0  0
   62.1030   33.4790   49.5210 C   0  0  0  0  0  0  0  0  0  0  0  0
   60.7480   33.2480   49.7590 C   0  0  0  0  0  0  0  0  0  0  0  0
   59.9970   32.5320   48.8260 C   0  0  0  0  0  0  0  0  0  0  0  0
   58.7630   32.3670   49.0220 O   0  0  0  0  0  0  0  0  0  0  0  0
   60.3450   30.1020   46.0980 N   0  0  0  0  0  0  0  0  0  0  0  0
   59.3560   29.6830   45.2860 C   0  0  0  0  0  0  0  0  0  0  0  0
   59.3630   28.5170   44.5220 C   0  0  0  0  0  0  0  0  0  0  0  0
   58.1033   26.0798   43.6562 H   0  0  0  0  0  0  0  0  0  0  0  0
   57.2464   26.9556   42.3427 H   0  0  0  0  0  0  0  0  0  0  0  0
   59.0406   26.8690   42.3427 H   0  0  0  0  0  0  0  0  0  0  0  0
   56.1575   28.7962   43.3134 H   0  0  0  0  0  0  0  0  0  0  0  0
   56.2496   30.8691   44.7374 H   0  0  0  0  0  0  0  0  0  0  0  0
   57.1920   32.3510   47.5230 H   0  0  0  0  0  0  0  0  0  0  0  0
   56.6333   34.1580   46.2722 H   0  0  0  0  0  0  0  0  0  0  0  0
   58.6189   35.6893   46.7027 H   0  0  0  0  0  0  0  0  0  0  0  0
   59.5596   34.3716   47.1252 H   0  0  0  0  0  0  0  0  0  0  0  0
   59.3053   35.6311   44.3817 H   0  0  0  0  0  0  0  0  0  0  0  0
   60.3033   34.3046   44.5975 H   0  0  0  0  0  0  0  0  0  0  0  0
   57.3677   34.2827   43.8427 H   0  0  0  0  0  0  0  0  0  0  0  0
   58.1944   32.8376   44.0051 H   0  0  0  0  0  0  0  0  0  0  0  0
   62.4780   31.9286   46.5560 H   0  0  0  0  0  0  0  0  0  0  0  0
   64.6359   33.3363   49.1252 H   0  0  0  0  0  0  0  0  0  0  0  0
   64.5459   32.4126   47.5873 H   0  0  0  0  0  0  0  0  0  0  0  0
   64.2643   34.1867   47.5873 H   0  0  0  0  0  0  0  0  0  0  0  0
   62.7008   34.0291   50.2626 H   0  0  0  0  0  0  0  0  0  0  0  0
   60.2746   33.6279   50.6764 H   0  0  0  0  0  0  0  0  0  0  0  0
   61.2680   29.6410   46.2650 H   0  0  0  0  0  0  0  0  0  0  0  0
   60.2442   27.8589   44.4992 H   0  0  0  0  0  0  0  0  0  0  0  0
  1  2  1  0
  2  3  1  0
  3  4  2  0
  4  5  1  0
  5  6  1  0
  6  7  1  0
  7  8  1  0
  8  9  1  0
  9 10  1  0
 10 11  1  0
  6 12  2  0
 12 13  1  0
 13 14  2  0
 14 15  1  0
 15 16  1  0
 15 17  1  0
 17 18  2  0
 18 19  1  0
 19 20  2  0
 12 21  1  0
 21 22  2  0
 22 23  1  0
 23  2  2  0
 22  5  1  0
 11  8  1  0
 19 13  1  0
  1 24  1  0
  1 25  1  0
  1 26  1  0
  3 27  1  0
  4 28  1  0
  7 29  1  0
  8 30  1  0
  9 31  1  0
  9 32  1  0
 10 33  1  0
 10 34  1  0
 11 35  1  0
 11 36  1  0
 14 37  1  0
 16 38  1  0
 16 39  1  0
 16 40  1  0
 17 41  1  0
 18 42  1  0
 21 43  1  0
 23 44  1  0
M  CHG  1  21   1
M  END
>  <UniqueID>  (60) 
51

>  <SMILES>  (60) 
Cc1ccn2c(NC3CCC3)c(-c3cn(C)ccc3=O)[nH+]c2c1

>  <Energy>  (60) 
151.43023421929308

>  <Genealogy>  (60) 
Cc1ccn2c(NC3CCC3)c(-c3cn(C)ccc3=O)[nH+]c2c1 (protonated)
Cc1ccn2c(NC3CCC3)c(-c3cn(C)ccc3=O)[nH+]c2c1 (3D coordinates assigned)
Cc1ccn2c(NC3CCC3)c(-c3cn(C)ccc3=O)[nH+]c2c1 (nonaromatic ring conformer: 151.43023421929308 kcal/mol)

>  <smiles>  (60) 
Cc1ccn2c(NC3CCC3)c(-c3cn(C)ccc3=O)nc2c1

>  <score_type>  (60) 
oracle

>  <origin>  (60) 
adg

>  <m_score__min__energy>  (60) 
-5.7800000000000002

>  <m_primary>  (60) 
energy

$$$$
60:0
     RDKit          3D

 42 44  0  0  0  0  0  0  0  0999 V2000
   59.9302   29.9523   50.0462 H   0  0  0  0  0  0  0  0  0  0  0  0
   59.8400   29.6620   48.9890 C   0  0  0  0  0  0  0  0  0  0  0  0
   60.7730   30.1220   48.0590 C   0  0  0  0  0  0  0  0  0  0  0  0
   61.5998   30.7704   48.3846 H   0  0  0  0  0  0  0  0  0  0  0  0
   60.6580   29.7600   46.7160 C   0  0  0  0  0  0  0  0  0  0  0  0
   61.4005   30.1189   45.9881 H   0  0  0  0  0  0  0  0  0  0  0  0
   59.6000   28.9400   46.2870 C   0  0  0  0  0  0  0  0  0  0  0  0
   59.5080   28.5350   44.8410 C   0  0  0  0  0  0  0  0  0  0  0  0
   60.5180   28.4866   44.4079 H   0  0  0  0  0  0  0  0  0  0  0  0
   59.0311   27.5467   44.7645 H   0  0  0  0  0  0  0  0  0  0  0  0
   58.7130   29.5190   44.1150 N   0  0  0  0  0  0  0  0  0  0  0  0
   57.4650   29.7750   44.3710 C   0  0  0  0  0  0  0  0  0  0  0  0
   56.8610   31.0010   44.3380 C   0  0  0  0  0  0  0  0  0  0  0  0
   57.4350   32.1290   44.0410 N   0  0  0  0  0  0  0  0  0  0  0  0
   57.4360   33.3160   44.8520 C   0  0  0  0  0  0  0  0  0  0  0  0
   56.6450   34.2640   44.5940 O   0  0  0  0  0  0  0  0  0  0  0  0
   58.3690   33.4260   45.9980 C   0  0  0  0  0  0  0  0  0  0  0  0
   59.5940   34.1060   45.8610 C   0  0  0  0  0  0  0  0  0  0  0  0
   59.8616   34.5590   44.8950 H   0  0  0  0  0  0  0  0  0  0  0  0
   60.4730   34.2100   46.9430 C   0  0  0  0  0  0  0  0  0  0  0  0
   61.4314   34.7357   46.8203 H   0  0  0  0  0  0  0  0  0  0  0  0
   60.1400   33.6480   48.1840 C   0  0  0  0  0  0  0  0  0  0  0  0
   61.1020   33.7250   49.3320 C   0  0  0  0  0  0  0  0  0  0  0  0
   60.5459   33.6805   50.2800 H   0  0  0  0  0  0  0  0  0  0  0  0
   61.8045   32.8802   49.2790 H   0  0  0  0  0  0  0  0  0  0  0  0
   61.6612   34.6708   49.2790 H   0  0  0  0  0  0  0  0  0  0  0  0
   58.9300   32.9520   48.3190 C   0  0  0  0  0  0  0  0  0  0  0  0
   58.6729   32.4848   49.2811 H   0  0  0  0  0  0  0  0  0  0  0  0
   58.0490   32.8480   47.2400 C   0  0  0  0  0  0  0  0  0  0  0  0
   57.0975   32.3099   47.3624 H   0  0  0  0  0  0  0  0  0  0  0  0
   55.5630   30.8370   44.6630 N   0  0  0  0  0  0  0  0  0  0  0  0
   55.4230   29.5540   44.8770 O   0  0  0  0  0  0  0  0  0  0  0  0
   56.5270   28.8780   44.7150 N   0  0  0  0  0  0  0  0  0  0  0  0
   56.6260   27.8450   44.8390 H   0  0  0  0  0  0  0  0  0  0  0  0
   58.6640   28.4600   47.2270 C   0  0  0  0  0  0  0  0  0  0  0  0
   57.6310   27.6160   46.7870 O   0  0  0  0  0  0  0  0  0  0  0  0
   57.7500   26.2070   46.6290 C   0  0  0  0  0  0  0  0  0  0  0  0
   57.7904   25.7291   47.6190 H   0  0  0  0  0  0  0  0  0  0  0  0
   56.8809   25.8257   46.0729 H   0  0  0  0  0  0  0  0  0  0  0  0
   58.6708   25.9769   46.0729 H   0  0  0  0  0  0  0  0  0  0  0  0
   58.7920   28.8340   48.5810 C   0  0  0  0  0  0  0  0  0  0  0  0
   58.0622   28.4714   49.3198 H   0  0  0  0  0  0  0  0  0  0  0  0
  1  2  1  0
  2  3  2  0
  3  4  1  0
  3  5  1  0
  5  6  1  0
  5  7  2  0
  7  8  1  0
  8  9  1  0
  8 10  1  0
  8 11  1  0
 11 12  2  0
 12 13  1  0
 13 14  2  0
 14 15  1  0
 15 16  2  0
 15 17  1  0
 17 18  2  0
 18 19  1  0
 18 20  1  0
 20 21  1  0
 20 22  2  0
 22 23  1  0
 23 24  1  0
 23 25  1  0
 23 26  1  0
 22 27  1  0
 27 28  1  0
 27 29  2  0
 29 30  1  0
 13 31  1  0
 31 32  1  0
 32 33  1  0
 33 34  1  0
  7 35  1  0
 35 36  1  0
 36 37  1  0
 37 38  1  0
 37 39  1  0
 37 40  1  0
 35 41  2  0
 41 42  1  0
 41  2  1  0
 33 12  1  0
 29 17  1  0
M  CHG  1  31  -1
M  END
>  <UniqueID>  (61) 
52

>  <SMILES>  (61) 
COc1ccccc1C/N=c1\[nH]o[n-]\c1=N/C(=O)c1ccc(C)cc1

>  <Energy>  (61) 
83.69049026199956

>  <Genealogy>  (61) 
COc1ccccc1CN=c1[nH]o[n-]c1=NC(=O)c1ccc(C)cc1 (protonated)
COc1ccccc1C/N=c1\[nH]o[n-]\c1=N/C(=O)c1ccc(C)cc1 (cis-trans isomerization)
COc1ccccc1C/N=c1\[nH]o[n-]\c1=N/C(=O)c1ccc(C)cc1 (3D coordinates assigned)
COc1ccccc1C/N=c1\[nH]o[n-]\c1=N/C(=O)c1ccc(C)cc1 (optimized conformer: 83.69049026199956 kcal/mol)

>  <smiles>  (61) 
COc1ccccc1CN=c1[nH]o[nH]c1=NC(=O)c1ccc(C)cc1

>  <score_type>  (61) 
oracle

>  <origin>  (61) 
adg

>  <m_score__min__energy>  (61) 
-9.9800000000000004

>  <m_primary>  (61) 
energy

$$$$
61:0
     RDKit          3D

 40 43  0  0  0  0  0  0  0  0999 V2000
   66.3490   33.4930   50.4980 O   0  0  0  0  0  0  0  0  0  0  0  0
   65.1420   33.5030   50.1330 C   0  0  0  0  0  0  0  0  0  0  0  0
   64.8050   33.0610   48.8930 N   0  0  0  0  0  0  0  0  0  0  0  0
   63.5100   33.0590   48.4740 C   0  0  0  0  0  0  0  0  0  0  0  0
   63.2360   32.6260   47.3200 O   0  0  0  0  0  0  0  0  0  0  0  0
   62.5150   33.5090   49.3040 N   0  0  0  0  0  0  0  0  0  0  0  0
   61.1390   33.5290   48.8700 C   0  0  0  0  0  0  0  0  0  0  0  0
   60.8870   33.7510   47.6130 N   0  0  0  0  0  0  0  0  0  0  0  0
   59.6440   33.8500   46.8900 C   0  0  0  0  0  0  0  0  0  0  0  0
   59.7180   34.4740   45.6360 C   0  0  0  0  0  0  0  0  0  0  0  0
   58.5800   34.6570   44.8490 C   0  0  0  0  0  0  0  0  0  0  0  0
   57.3440   34.2100   45.3040 C   0  0  0  0  0  0  0  0  0  0  0  0
   57.2460   33.5670   46.5360 C   0  0  0  0  0  0  0  0  0  0  0  0
   58.3790   33.3590   47.3370 C   0  0  0  0  0  0  0  0  0  0  0  0
   58.1580   32.6630   48.5320 O   0  0  0  0  0  0  0  0  0  0  0  0
   59.1480   32.1680   49.4190 C   0  0  2  0  0  0  0  0  0  0  0  0
   58.4650   31.5310   50.6080 C   0  0  0  0  0  0  0  0  0  0  0  0
   58.7980   30.2250   51.0090 C   0  0  0  0  0  0  0  0  0  0  0  0
   58.1410   29.6300   52.0910 C   0  0  0  0  0  0  0  0  0  0  0  0
   57.1420   30.3280   52.7740 C   0  0  0  0  0  0  0  0  0  0  0  0
   56.7950   31.6210   52.3740 C   0  0  0  0  0  0  0  0  0  0  0  0
   57.4490   32.2200   51.2940 C   0  0  0  0  0  0  0  0  0  0  0  0
   60.0500   33.3110   49.8750 C   0  0  0  0  0  0  0  0  0  0  0  0
   62.8280   33.9620   50.5550 C   0  0  0  0  0  0  0  0  0  0  0  0
   64.1490   33.9660   50.9970 C   0  0  0  0  0  0  0  0  0  0  0  0
   64.5690   34.6060   52.7530 Br  0  0  0  0  0  0  0  0  0  0  0  0
   65.5530   32.7130   48.2510 H   0  0  0  0  0  0  0  0  0  0  0  0
   60.6921   34.8260   45.2656 H   0  0  0  0  0  0  0  0  0  0  0  0
   58.6604   35.1538   43.8709 H   0  0  0  0  0  0  0  0  0  0  0  0
   56.4437   34.3642   44.6910 H   0  0  0  0  0  0  0  0  0  0  0  0
   56.2640   33.2166   46.8866 H   0  0  0  0  0  0  0  0  0  0  0  0
   59.7681   31.4166   48.9083 H   0  0  0  0  0  0  0  0  0  0  0  0
   59.5787   29.6688   50.4694 H   0  0  0  0  0  0  0  0  0  0  0  0
   58.4113   28.6109   52.4046 H   0  0  0  0  0  0  0  0  0  0  0  0
   56.6286   29.8597   53.6267 H   0  0  0  0  0  0  0  0  0  0  0  0
   56.0057   32.1684   52.9101 H   0  0  0  0  0  0  0  0  0  0  0  0
   57.1676   33.2356   50.9789 H   0  0  0  0  0  0  0  0  0  0  0  0
   59.4537   34.2302   49.9727 H   0  0  0  0  0  0  0  0  0  0  0  0
   60.4979   33.0551   50.8465 H   0  0  0  0  0  0  0  0  0  0  0  0
   62.0299   34.3265   51.2184 H   0  0  0  0  0  0  0  0  0  0  0  0
  1  2  2  0
  2  3  1  0
  3  4  1  0
  4  5  2  0
  4  6  1  0
  6  7  1  0
  7  8  2  0
  8  9  1  0
  9 10  2  0
 10 11  1  0
 11 12  2  0
 12 13  1  0
 13 14  2  0
 14 15  1  0
 15 16  1  0
 16 17  1  0
 17 18  2  0
 18 19  1  0
 19 20  2  0
 20 21  1  0
 21 22  2  0
 16 23  1  0
  6 24  1  0
 24 25  2  0
 25 26  1  0
 25  2  1  0
 23  7  1  0
 14  9  1  0
 22 17  1  0
  3 27  1  0
 10 28  1  0
 11 29  1  0
 12 30  1  0
 13 31  1  0
 16 32  1  6
 18 33  1  0
 19 34  1  0
 20 35  1  0
 21 36  1  0
 22 37  1  0
 23 38  1  0
 23 39  1  0
 24 40  1  0
M  END
>  <UniqueID>  (62) 
53

>  <SMILES>  (62) 
O=c1[nH]c(=O)n(C2=Nc3ccccc3O[C@H](c3ccccc3)C2)cc1Br

>  <Energy>  (62) 
63.30992363822019

>  <Genealogy>  (62) 
O=c1[nH]c(=O)n(C2=Nc3ccccc3O[C@H](c3ccccc3)C2)cc1Br (chirality)
O=c1[nH]c(=O)n(C2=Nc3ccccc3O[C@H](c3ccccc3)C2)cc1Br (3D coordinates assigned)
O=c1[nH]c(=O)n(C2=Nc3ccccc3O[C@H](c3ccccc3)C2)cc1Br (nonaromatic ring conformer: 63.30992363822019 kcal/mol)

>  <smiles>  (62) 
O=c1[nH]c(=O)n(C2=Nc3ccccc3OC(c3ccccc3)C2)cc1Br

>  <score_type>  (62) 
oracle

>  <origin>  (62) 
adg

>  <m_score__min__energy>  (62) 
-6.2400000000000002

>  <m_primary>  (62) 
energy

$$$$
62:0
     RDKit          3D

 32 33  0  0  0  0  0  0  0  0999 V2000
   63.7400   32.9390   47.2470 C   0  0  0  0  0  0  0  0  0  0  0  0
   62.3800   33.5270   47.4770 C   0  0  0  0  0  0  0  0  0  0  0  0
   61.9020   33.7090   48.7830 C   0  0  0  0  0  0  0  0  0  0  0  0
   60.6220   34.2230   48.9960 C   0  0  0  0  0  0  0  0  0  0  0  0
   59.8030   34.5460   47.9110 C   0  0  0  0  0  0  0  0  0  0  0  0
   60.2560   34.3450   46.5930 C   0  0  0  0  0  0  0  0  0  0  0  0
   59.4350   34.6530   45.4500 N   0  0  0  0  0  0  0  0  0  0  0  0
   58.0030   34.3620   45.3570 C   0  0  0  0  0  0  0  0  0  0  0  0
   57.7640   33.1160   44.5450 C   0  0  0  0  0  0  0  0  0  0  0  0
   58.1200   33.0840   43.1880 C   0  0  0  0  0  0  0  0  0  0  0  0
   57.8980   31.9330   42.4300 C   0  0  0  0  0  0  0  0  0  0  0  0
   57.3160   30.8070   43.0150 C   0  0  0  0  0  0  0  0  0  0  0  0
   56.9410   30.8210   44.3700 C   0  0  0  0  0  0  0  0  0  0  0  0
   56.3380   29.6600   44.9700 N   0  0  0  0  0  0  0  0  0  0  0  0
   55.1420   29.3760   44.7490 O   0  0  0  0  0  0  0  0  0  0  0  0
   57.0700   28.8420   45.7990 O   0  0  0  0  0  0  0  0  0  0  0  0
   57.1660   31.9860   45.1280 C   0  0  0  0  0  0  0  0  0  0  0  0
   61.5490   33.8330   46.3890 C   0  0  0  0  0  0  0  0  0  0  0  0
   64.2186   32.7321   48.2156 H   0  0  0  0  0  0  0  0  0  0  0  0
   63.6431   32.0024   46.6783 H   0  0  0  0  0  0  0  0  0  0  0  0
   64.3560   33.6512   46.6783 H   0  0  0  0  0  0  0  0  0  0  0  0
   62.5375   33.4460   49.6415 H   0  0  0  0  0  0  0  0  0  0  0  0
   60.2564   34.3745   50.0224 H   0  0  0  0  0  0  0  0  0  0  0  0
   58.7991   34.9595   48.0874 H   0  0  0  0  0  0  0  0  0  0  0  0
   59.8910   35.0700   44.6060 H   0  0  0  0  0  0  0  0  0  0  0  0
   57.5977   34.2165   46.3692 H   0  0  0  0  0  0  0  0  0  0  0  0
   57.5019   35.2074   44.8628 H   0  0  0  0  0  0  0  0  0  0  0  0
   58.5756   33.9691   42.7199 H   0  0  0  0  0  0  0  0  0  0  0  0
   58.1827   31.9132   41.3677 H   0  0  0  0  0  0  0  0  0  0  0  0
   57.1496   29.9024   42.4116 H   0  0  0  0  0  0  0  0  0  0  0  0
   56.8707   32.0118   46.1873 H   0  0  0  0  0  0  0  0  0  0  0  0
   61.9136   33.6703   45.3640 H   0  0  0  0  0  0  0  0  0  0  0  0
  1  2  1  0
  2  3  2  0
  3  4  1  0
  4  5  2  0
  5  6  1  0
  6  7  1  0
  7  8  1  0
  8  9  1  0
  9 10  2  0
 10 11  1  0
 11 12  2  0
 12 13  1  0
 13 14  1  0
 14 15  2  0
 14 16  1  0
 13 17  2  0
  6 18  2  0
 18  2  1  0
 17  9  1  0
  1 19  1  0
  1 20  1  0
  1 21  1  0
  3 22  1  0
  4 23  1  0
  5 24  1  0
  7 25  1  0
  8 26  1  0
  8 27  1  0
 10 28  1  0
 11 29  1  0
 12 30  1  0
 17 31  1  0
 18 32  1  0
M  CHG  2  14   1  16  -1
M  END
>  <UniqueID>  (63) 
54

>  <SMILES>  (63) 
Cc1cccc(NCc2cccc([N+](=O)[O-])c2)c1

>  <Energy>  (63) 
32.00755509899437

>  <Genealogy>  (63) 
Cc1cccc(NCc2cccc([N+](=O)[O-])c2)c1 (3D coordinates assigned)
Cc1cccc(NCc2cccc([N+](=O)[O-])c2)c1 (optimized conformer: 32.00755509899437 kcal/mol)

>  <smiles>  (63) 
Cc1cccc(NCc2cccc([N+](=O)[O-])c2)c1

>  <score_type>  (63) 
oracle

>  <origin>  (63) 
adg

>  <m_score__min__energy>  (63) 
-7.46

>  <m_primary>  (63) 
energy

$$$$
63:0
     RDKit          3D

 51 54  0  0  0  0  0  0  0  0999 V2000
   59.3000   30.9780   46.4410 O   0  0  0  0  0  0  0  0  0  0  0  0
   60.1210   31.7440   47.0080 C   0  0  0  0  0  0  0  0  0  0  0  0
   60.8750   31.2560   47.9890 O   0  0  0  0  0  0  0  0  0  0  0  0
   61.7980   31.9740   48.6190 C   0  0  0  0  0  0  0  0  0  0  0  0
   62.5570   31.3900   49.6460 C   0  0  0  0  0  0  0  0  0  0  0  0
   62.2770   30.0650   50.0170 O   0  0  0  0  0  0  0  0  0  0  0  0
   61.3110   29.6890   50.9960 C   0  0  0  0  0  0  0  0  0  0  0  0
   59.9940   29.2870   50.3110 C   0  0  0  0  0  0  0  0  0  0  0  0
   60.1390   29.1140   48.8520 N   0  0  0  0  0  0  0  0  0  0  0  0
   59.6760   27.8070   48.3460 C   0  0  0  0  0  0  0  0  0  0  0  0
   59.2840   27.8490   46.8850 C   0  0  0  0  0  0  0  0  0  0  0  0
   57.9960   27.4530   46.4860 C   0  0  0  0  0  0  0  0  0  0  0  0
   57.6380   27.4670   45.1340 C   0  0  0  0  0  0  0  0  0  0  0  0
   58.5650   27.8720   44.1660 C   0  0  0  0  0  0  0  0  0  0  0  0
   59.8560   28.2510   44.5510 C   0  0  0  0  0  0  0  0  0  0  0  0
   60.2210   28.2320   45.9040 C   0  0  0  0  0  0  0  0  0  0  0  0
   63.5630   32.1510   50.2750 C   0  0  0  0  0  0  0  0  0  0  0  0
   63.7840   33.4800   49.9000 C   0  0  0  0  0  0  0  0  0  0  0  0
   63.0110   34.0670   48.8940 C   0  0  0  0  0  0  0  0  0  0  0  0
   62.0250   33.3140   48.2420 C   0  0  0  0  0  0  0  0  0  0  0  0
   61.2470   33.8630   47.2220 C   0  0  0  0  0  0  0  0  0  0  0  0
   60.2680   33.0850   46.5950 C   0  0  0  0  0  0  0  0  0  0  0  0
   59.4720   33.6950   45.5670 N   0  0  0  0  0  0  0  0  0  0  0  0
   57.7530   33.5340   45.3740 S   0  0  0  0  0  0  0  0  0  0  0  0
   57.1800   34.8470   44.9290 O   0  0  0  0  0  0  0  0  0  0  0  0
   57.1340   33.1700   46.6980 O   0  0  0  0  0  0  0  0  0  0  0  0
   57.3890   32.3100   44.1720 C   0  0  0  0  0  0  0  0  0  0  0  0
   57.6800   32.3860   42.8180 C   0  0  0  0  0  0  0  0  0  0  0  0
   57.2600   31.2550   42.1060 C   0  0  0  0  0  0  0  0  0  0  0  0
   56.6400   30.2960   42.9000 C   0  0  0  0  0  0  0  0  0  0  0  0
   56.6120   30.8540   44.4890 S   0  0  0  0  0  0  0  0  0  0  0  0
   61.6940   28.8369   51.5767 H   0  0  0  0  0  0  0  0  0  0  0  0
   61.1237   30.5428   51.6638 H   0  0  0  0  0  0  0  0  0  0  0  0
   59.6474   28.3375   50.7450 H   0  0  0  0  0  0  0  0  0  0  0  0
   59.2715   30.0993   50.4786 H   0  0  0  0  0  0  0  0  0  0  0  0
   61.1480   29.2310   48.5940 H   0  0  0  0  0  0  0  0  0  0  0  0
   59.6170   29.8850   48.3710 H   0  0  0  0  0  0  0  0  0  0  0  0
   60.4869   27.0744   48.4714 H   0  0  0  0  0  0  0  0  0  0  0  0
   58.7809   27.5275   48.9211 H   0  0  0  0  0  0  0  0  0  0  0  0
   57.2648   27.1300   47.2417 H   0  0  0  0  0  0  0  0  0  0  0  0
   56.6264   27.1593   44.8307 H   0  0  0  0  0  0  0  0  0  0  0  0
   58.2789   27.8923   43.1041 H   0  0  0  0  0  0  0  0  0  0  0  0
   60.5858   28.5645   43.7900 H   0  0  0  0  0  0  0  0  0  0  0  0
   61.2411   28.5167   46.2011 H   0  0  0  0  0  0  0  0  0  0  0  0
   64.1781   31.6967   51.0658 H   0  0  0  0  0  0  0  0  0  0  0  0
   64.5698   34.0662   50.3990 H   0  0  0  0  0  0  0  0  0  0  0  0
   63.1763   35.1180   48.6146 H   0  0  0  0  0  0  0  0  0  0  0  0
   61.4034   34.9065   46.9113 H   0  0  0  0  0  0  0  0  0  0  0  0
   58.1871   33.2439   42.3523 H   0  0  0  0  0  0  0  0  0  0  0  0
   57.4066   31.1366   41.0223 H   0  0  0  0  0  0  0  0  0  0  0  0
   56.2359   29.3349   42.5493 H   0  0  0  0  0  0  0  0  0  0  0  0
  1  2  2  0
  2  3  1  0
  3  4  1  0
  4  5  2  0
  5  6  1  0
  6  7  1  0
  7  8  1  0
  8  9  1  0
  9 10  1  0
 10 11  1  0
 11 12  2  0
 12 13  1  0
 13 14  2  0
 14 15  1  0
 15 16  2  0
  5 17  1  0
 17 18  2  0
 18 19  1  0
 19 20  2  0
 20 21  1  0
 21 22  2  0
 22 23  1  0
 23 24  1  0
 24 25  2  0
 24 26  2  0
 24 27  1  0
 27 28  2  0
 28 29  1  0
 29 30  2  0
 30 31  1  0
 22  2  1  0
 31 27  1  0
 20  4  1  0
 16 11  1  0
  7 32  1  0
  7 33  1  0
  8 34  1  0
  8 35  1  0
  9 36  1  0
  9 37  1  0
 10 38  1  0
 10 39  1  0
 12 40  1  0
 13 41  1  0
 14 42  1  0
 15 43  1  0
 16 44  1  0
 17 45  1  0
 18 46  1  0
 19 47  1  0
 21 48  1  0
 28 49  1  0
 29 50  1  0
 30 51  1  0
M  CHG  2   9   1  23  -1
M  END
>  <UniqueID>  (64) 
55

>  <SMILES>  (64) 
O=c1oc2c(OCC[NH2+]Cc3ccccc3)cccc2cc1[N-]S(=O)(=O)c1cccs1

>  <Energy>  (64) 
91.48823355341402

>  <Genealogy>  (64) 
O=c1oc2c(OCC[NH2+]Cc3ccccc3)cccc2cc1[N-]S(=O)(=O)c1cccs1 (protonated)
O=c1oc2c(OCC[NH2+]Cc3ccccc3)cccc2cc1[N-]S(=O)(=O)c1cccs1 (3D coordinates assigned)
O=c1oc2c(OCC[NH2+]Cc3ccccc3)cccc2cc1[N-]S(=O)(=O)c1cccs1 (optimized conformer: 91.48823355341402 kcal/mol)

>  <smiles>  (64) 
O=c1oc2c(OCCNCc3ccccc3)cccc2cc1NS(=O)(=O)c1cccs1

>  <score_type>  (64) 
oracle

>  <origin>  (64) 
adg

>  <m_score__min__energy>  (64) 
-8.0299999999999994

>  <m_primary>  (64) 
energy

$$$$
64:0
     RDKit          3D

 36 38  0  0  0  0  0  0  0  0999 V2000
   56.2760   30.3870   44.8600 O   0  0  0  0  0  0  0  0  0  0  0  0
   57.3740   29.7710   44.9380 C   0  0  0  0  0  0  0  0  0  0  0  0
   58.5820   30.4920   45.2460 N   0  0  0  0  0  0  0  0  0  0  0  0
   58.6160   31.8890   45.5860 C   0  0  0  0  0  0  0  0  0  0  0  0
   58.1190   32.8710   44.7100 C   0  0  0  0  0  0  0  0  0  0  0  0
   58.1410   34.2210   45.0780 C   0  0  0  0  0  0  0  0  0  0  0  0
   58.6440   34.5990   46.3250 C   0  0  0  0  0  0  0  0  0  0  0  0
   59.1180   33.6280   47.2110 C   0  0  0  0  0  0  0  0  0  0  0  0
   59.0960   32.2780   46.8470 C   0  0  0  0  0  0  0  0  0  0  0  0
   57.3910   28.3070   44.6980 C   0  0  0  0  0  0  0  0  0  0  0  0
   57.7680   27.7720   43.4540 C   0  0  0  0  0  0  0  0  0  0  0  0
   57.7730   26.3890   43.2490 C   0  0  0  0  0  0  0  0  0  0  0  0
   57.3940   25.5110   44.2790 C   0  0  0  0  0  0  0  0  0  0  0  0
   57.4010   24.0410   44.0590 C   0  0  0  0  0  0  0  0  0  0  0  0
   56.5880   23.4630   43.0650 C   0  0  0  0  0  0  0  0  0  0  0  0
   56.5980   22.0790   42.8600 C   0  0  0  0  0  0  0  0  0  0  0  0
   57.4140   21.2600   43.6420 C   0  0  0  0  0  0  0  0  0  0  0  0
   58.2250   21.8220   44.6310 C   0  0  0  0  0  0  0  0  0  0  0  0
   58.2200   23.2040   44.8410 C   0  0  0  0  0  0  0  0  0  0  0  0
   57.0040   26.0480   45.5180 C   0  0  0  0  0  0  0  0  0  0  0  0
   56.9990   27.4300   45.7230 C   0  0  0  0  0  0  0  0  0  0  0  0
   59.5000   30.0020   45.1780 H   0  0  0  0  0  0  0  0  0  0  0  0
   57.7114   32.5765   43.7317 H   0  0  0  0  0  0  0  0  0  0  0  0
   57.7616   34.9856   44.3841 H   0  0  0  0  0  0  0  0  0  0  0  0
   58.6670   35.6613   46.6096 H   0  0  0  0  0  0  0  0  0  0  0  0
   59.5086   33.9257   48.1953 H   0  0  0  0  0  0  0  0  0  0  0  0
   59.4571   31.5158   47.5531 H   0  0  0  0  0  0  0  0  0  0  0  0
   58.0612   28.4463   42.6359 H   0  0  0  0  0  0  0  0  0  0  0  0
   58.0765   25.9842   42.2723 H   0  0  0  0  0  0  0  0  0  0  0  0
   55.9416   24.1030   42.4464 H   0  0  0  0  0  0  0  0  0  0  0  0
   55.9612   21.6352   42.0806 H   0  0  0  0  0  0  0  0  0  0  0  0
   57.4185   20.1721   43.4796 H   0  0  0  0  0  0  0  0  0  0  0  0
   58.8688   21.1757   45.2457 H   0  0  0  0  0  0  0  0  0  0  0  0
   58.8599   23.6404   45.6221 H   0  0  0  0  0  0  0  0  0  0  0  0
   56.7002   25.3746   46.3330 H   0  0  0  0  0  0  0  0  0  0  0  0
   56.6851   27.8352   46.6963 H   0  0  0  0  0  0  0  0  0  0  0  0
  1  2  2  0
  2  3  1  0
  3  4  1  0
  4  5  2  0
  5  6  1  0
  6  7  2  0
  7  8  1  0
  8  9  2  0
  2 10  1  0
 10 11  2  0
 11 12  1  0
 12 13  2  0
 13 14  1  0
 14 15  2  0
 15 16  1  0
 16 17  2  0
 17 18  1  0
 18 19  2  0
 13 20  1  0
 20 21  2  0
  9  4  1  0
 21 10  1  0
 19 14  1  0
  3 22  1  0
  5 23  1  0
  6 24  1  0
  7 25  1  0
  8 26  1  0
  9 27  1  0
 11 28  1  0
 12 29  1  0
 15 30  1  0
 16 31  1  0
 17 32  1  0
 18 33  1  0
 19 34  1  0
 20 35  1  0
 21 36  1  0
M  END
>  <UniqueID>  (65) 
56

>  <SMILES>  (65) 
O=C(Nc1ccccc1)c1ccc(-c2ccccc2)cc1

>  <Energy>  (65) 
51.24569335356012

>  <Genealogy>  (65) 
O=C(Nc1ccccc1)c1ccc(-c2ccccc2)cc1 (3D coordinates assigned)
O=C(Nc1ccccc1)c1ccc(-c2ccccc2)cc1 (optimized conformer: 51.24569335356012 kcal/mol)

>  <smiles>  (65) 
O=C(Nc1ccccc1)c1ccc(-c2ccccc2)cc1

>  <score_type>  (65) 
oracle

>  <origin>  (65) 
adg

>  <m_score__min__energy>  (65) 
-7.8600000000000003

>  <m_primary>  (65) 
energy

$$$$
65:0
     RDKit          3D

 47 49  0  0  0  0  0  0  0  0999 V2000
   58.5700   34.1880   52.3730 C   0  0  0  0  0  0  0  0  0  0  0  0
   58.8800   33.0430   51.4030 C   0  0  0  0  0  0  0  0  0  0  0  0
   57.6900   32.2000   51.1310 N   0  0  2  0  0  0  0  0  0  0  0  0
   56.6910   32.3460   52.2050 C   0  0  0  0  0  0  0  0  0  0  0  0
   57.9840   30.7940   50.8870 C   0  0  0  0  0  0  0  0  0  0  0  0
   57.3910   29.9260   51.5840 O   0  0  0  0  0  0  0  0  0  0  0  0
   58.9060   30.3050   49.8300 C   0  0  0  0  0  0  0  0  0  0  0  0
   59.6000   29.1040   50.0540 C   0  0  0  0  0  0  0  0  0  0  0  0
   60.5080   28.6210   49.1090 C   0  0  0  0  0  0  0  0  0  0  0  0
   60.7540   29.3440   47.9440 C   0  0  0  0  0  0  0  0  0  0  0  0
   60.0950   30.5540   47.7200 C   0  0  0  0  0  0  0  0  0  0  0  0
   59.1620   31.0420   48.6550 C   0  0  0  0  0  0  0  0  0  0  0  0
   58.5410   32.2830   48.4720 O   0  0  0  0  0  0  0  0  0  0  0  0
   58.4940   33.0190   47.2750 C   0  0  0  0  0  0  0  0  0  0  0  0
   57.3150   33.1050   46.5130 C   0  0  0  0  0  0  0  0  0  0  0  0
   57.2770   33.8830   45.3540 C   0  0  0  0  0  0  0  0  0  0  0  0
   58.4060   34.5940   44.9520 C   0  0  0  0  0  0  0  0  0  0  0  0
   59.5770   34.5350   45.7110 C   0  0  0  0  0  0  0  0  0  0  0  0
   59.6330   33.7500   46.8750 C   0  0  0  0  0  0  0  0  0  0  0  0
   60.8780   33.7190   47.6790 C   0  0  0  0  0  0  0  0  0  0  0  0
   62.0780   33.2340   47.1250 C   0  0  0  0  0  0  0  0  0  0  0  0
   63.2440   33.1920   47.8930 C   0  0  0  0  0  0  0  0  0  0  0  0
   63.2280   33.6370   49.2180 C   0  0  0  0  0  0  0  0  0  0  0  0
   62.0440   34.1270   49.7760 C   0  0  0  0  0  0  0  0  0  0  0  0
   60.8740   34.1710   49.0110 C   0  0  0  0  0  0  0  0  0  0  0  0
   58.6674   33.8283   53.4080 H   0  0  0  0  0  0  0  0  0  0  0  0
   59.2770   35.0135   52.2037 H   0  0  0  0  0  0  0  0  0  0  0  0
   57.5431   34.5441   52.2037 H   0  0  0  0  0  0  0  0  0  0  0  0
   59.2360   33.4698   50.4537 H   0  0  0  0  0  0  0  0  0  0  0  0
   59.6460   32.4051   51.8680 H   0  0  0  0  0  0  0  0  0  0  0  0
   57.2370   32.5700   50.2610 H   0  0  0  0  0  0  0  0  0  0  0  0
   57.1902   32.2730   53.1825 H   0  0  0  0  0  0  0  0  0  0  0  0
   56.1985   33.3257   52.1170 H   0  0  0  0  0  0  0  0  0  0  0  0
   55.9388   31.5483   52.1170 H   0  0  0  0  0  0  0  0  0  0  0  0
   59.4267   28.5391   50.9818 H   0  0  0  0  0  0  0  0  0  0  0  0
   61.0295   27.6686   49.2849 H   0  0  0  0  0  0  0  0  0  0  0  0
   61.4681   28.9611   47.2000 H   0  0  0  0  0  0  0  0  0  0  0  0
   60.3059   31.1301   46.8070 H   0  0  0  0  0  0  0  0  0  0  0  0
   56.4169   32.5558   46.8321 H   0  0  0  0  0  0  0  0  0  0  0  0
   56.3543   33.9347   44.7574 H   0  0  0  0  0  0  0  0  0  0  0  0
   58.3750   35.2023   44.0360 H   0  0  0  0  0  0  0  0  0  0  0  0
   60.4618   35.1072   45.3952 H   0  0  0  0  0  0  0  0  0  0  0  0
   62.0975   32.8862   46.0816 H   0  0  0  0  0  0  0  0  0  0  0  0
   64.1767   32.8080   47.4542 H   0  0  0  0  0  0  0  0  0  0  0  0
   64.1471   33.6015   49.8214 H   0  0  0  0  0  0  0  0  0  0  0  0
   62.0323   34.4785   50.8183 H   0  0  0  0  0  0  0  0  0  0  0  0
   59.9456   34.5612   49.4534 H   0  0  0  0  0  0  0  0  0  0  0  0
  1  2  1  0
  2  3  1  0
  3  4  1  0
  3  5  1  0
  5  6  2  0
  5  7  1  0
  7  8  2  0
  8  9  1  0
  9 10  2  0
 10 11  1  0
 11 12  2  0
 12 13  1  0
 13 14  1  0
 14 15  2  0
 15 16  1  0
 16 17  2  0
 17 18  1  0
 18 19  2  0
 19 20  1  0
 20 21  2  0
 21 22  1  0
 22 23  2  0
 23 24  1  0
 24 25  2  0
 12  7  1  0
 19 14  1  0
 25 20  1  0
  1 26  1  0
  1 27  1  0
  1 28  1  0
  2 29  1  0
  2 30  1  0
  3 31  1  6
  4 32  1  0
  4 33  1  0
  4 34  1  0
  8 35  1  0
  9 36  1  0
 10 37  1  0
 11 38  1  0
 15 39  1  0
 16 40  1  0
 17 41  1  0
 18 42  1  0
 21 43  1  0
 22 44  1  0
 23 45  1  0
 24 46  1  0
 25 47  1  0
M  CHG  1   3   1
M  END
>  <UniqueID>  (66) 
57

>  <SMILES>  (66) 
CC[N@H+](C)C(=O)c1ccccc1Oc1ccccc1-c1ccccc1

>  <Energy>  (66) 
70.51099488576395

>  <Genealogy>  (66) 
CC[NH+](C)C(=O)c1ccccc1Oc1ccccc1-c1ccccc1 (protonated)
CC[N@H+](C)C(=O)c1ccccc1Oc1ccccc1-c1ccccc1 (chirality)
CC[N@H+](C)C(=O)c1ccccc1Oc1ccccc1-c1ccccc1 (3D coordinates assigned)
CC[N@H+](C)C(=O)c1ccccc1Oc1ccccc1-c1ccccc1 (optimized conformer: 70.51099488576395 kcal/mol)

>  <smiles>  (66) 
CCN(C)C(=O)c1ccccc1Oc1ccccc1-c1ccccc1

>  <score_type>  (66) 
oracle

>  <origin>  (66) 
adg

>  <m_score__min__energy>  (66) 
-6.8799999999999999

>  <m_primary>  (66) 
energy

$$$$
66:0
     RDKit          3D

 33 35  0  0  0  0  0  0  0  0999 V2000
   58.3560   34.7460   45.0290 O   0  0  0  0  0  0  0  0  0  0  0  0
   58.1760   33.9630   46.0010 C   0  0  0  0  0  0  0  0  0  0  0  0
   58.9210   34.2050   47.2610 C   0  0  0  0  0  0  0  0  0  0  0  0
   59.6140   33.0010   47.7420 N   0  0  0  0  0  0  0  0  0  0  0  0
   58.9100   32.0030   48.4650 C   0  0  0  0  0  0  0  0  0  0  0  0
   57.8740   32.4110   49.0950 O   0  0  0  0  0  0  0  0  0  0  0  0
   59.2800   30.5890   48.5320 C   0  0  0  0  0  0  0  0  0  0  0  0
   61.0900   30.4220   48.7720 S   0  0  0  0  0  0  0  0  0  0  0  0
   61.7680   31.8010   47.8470 C   0  0  0  0  0  0  0  0  0  0  0  0
   63.1030   31.7440   47.5380 C   0  0  0  0  0  0  0  0  0  0  0  0
   63.7630   32.7280   46.8320 C   0  0  0  0  0  0  0  0  0  0  0  0
   63.0120   33.8130   46.4310 C   0  0  0  0  0  0  0  0  0  0  0  0
   61.6560   33.8870   46.7370 C   0  0  0  0  0  0  0  0  0  0  0  0
   61.0130   32.8810   47.4510 C   0  0  0  0  0  0  0  0  0  0  0  0
   57.2780   32.8620   45.9070 N   0  0  0  0  0  0  0  0  0  0  0  0
   57.2000   32.1360   44.8370 C   0  0  0  0  0  0  0  0  0  0  0  0
   56.6690   30.9000   44.9210 N   0  0  0  0  0  0  0  0  0  0  0  0
   56.5610   30.0950   43.8310 C   0  0  0  0  0  0  0  0  0  0  0  0
   57.0270   30.6120   42.6240 C   0  0  0  0  0  0  0  0  0  0  0  0
   57.5680   31.8940   42.5820 C   0  0  0  0  0  0  0  0  0  0  0  0
   57.6580   32.6660   43.6880 N   0  0  0  0  0  0  0  0  0  0  0  0
   59.6660   34.9949   47.0848 H   0  0  0  0  0  0  0  0  0  0  0  0
   58.1925   34.5025   48.0297 H   0  0  0  0  0  0  0  0  0  0  0  0
   58.7560   30.1154   49.3752 H   0  0  0  0  0  0  0  0  0  0  0  0
   58.9948   30.0972   47.5903 H   0  0  0  0  0  0  0  0  0  0  0  0
   63.6778   30.8671   47.8708 H   0  0  0  0  0  0  0  0  0  0  0  0
   64.8356   32.6512   46.6002 H   0  0  0  0  0  0  0  0  0  0  0  0
   63.4885   34.6267   45.8646 H   0  0  0  0  0  0  0  0  0  0  0  0
   61.0785   34.7628   46.4060 H   0  0  0  0  0  0  0  0  0  0  0  0
   56.1276   29.0863   43.8985 H   0  0  0  0  0  0  0  0  0  0  0  0
   56.9676   30.0085   41.7063 H   0  0  0  0  0  0  0  0  0  0  0  0
   57.9323   32.2897   41.6224 H   0  0  0  0  0  0  0  0  0  0  0  0
   58.0720   33.6270   43.6180 H   0  0  0  0  0  0  0  0  0  0  0  0
  1  2  2  0
  2  3  1  0
  3  4  1  0
  4  5  1  0
  5  6  2  0
  5  7  1  0
  7  8  1  0
  8  9  1  0
  9 10  2  0
 10 11  1  0
 11 12  2  0
 12 13  1  0
 13 14  2  0
  2 15  1  0
 15 16  2  3
 16 17  1  0
 17 18  2  0
 18 19  1  0
 19 20  2  0
 20 21  1  0
 14  4  1  0
 21 16  1  0
 14  9  1  0
  3 22  1  0
  3 23  1  0
  7 24  1  0
  7 25  1  0
 10 26  1  0
 11 27  1  0
 12 28  1  0
 13 29  1  0
 18 30  1  0
 19 31  1  0
 20 32  1  0
 21 33  1  0
M  END
>  <smiles>  (67) 
O=C(CN1C(=O)CSc2ccccc21)N=c1nccc[nH]1

>  <score_type>  (67) 
oracle

>  <origin>  (67) 
adg

>  <m_score__min__energy>  (67) 
-7

>  <m_primary>  (67) 
energy

$$$$
67:0
     RDKit          3D

 64 67  0  0  0  0  0  0  0  0999 V2000
   68.5050   34.1990   50.4730 C   0  0  0  0  0  0  0  0  0  0  0  0
   67.3760   33.4000   51.1380 C   0  0  0  0  0  0  0  0  0  0  0  0
   66.2730   34.3490   51.6250 C   0  0  0  0  0  0  0  0  0  0  0  0
   66.7930   32.3520   50.1720 C   0  0  0  0  0  0  0  0  0  0  0  0
   65.3240   32.3140   50.2750 N   0  0  0  0  0  0  0  0  0  0  0  0
   64.6550   32.6210   48.9970 C   0  0  0  0  0  0  0  0  0  0  0  0
   63.2180   33.0400   49.2050 C   0  0  0  0  0  0  0  0  0  0  0  0
   62.8530   33.8170   50.3130 C   0  0  0  0  0  0  0  0  0  0  0  0
   61.5270   34.2190   50.4820 C   0  0  0  0  0  0  0  0  0  0  0  0
   60.5580   33.8580   49.5450 C   0  0  0  0  0  0  0  0  0  0  0  0
   60.9020   33.0820   48.4220 C   0  0  0  0  0  0  0  0  0  0  0  0
   59.8720   32.7170   47.4160 C   0  0  0  0  0  0  0  0  0  0  0  0
   58.9710   31.6520   47.4930 C   0  0  0  0  0  0  0  0  0  0  0  0
   58.1230   31.5500   46.3850 C   0  0  0  0  0  0  0  0  0  0  0  0
   58.3610   32.5220   45.4200 C   0  0  0  0  0  0  0  0  0  0  0  0
   57.5920   32.6930   44.1430 C   0  0  0  0  0  0  0  0  0  0  0  0
   57.8860   31.6220   43.1690 N   0  0  2  0  0  0  0  0  0  0  0  0
   57.4180   31.9650   41.8160 C   0  0  0  0  0  0  0  0  0  0  0  0
   57.1040   30.1490   43.6890 S   0  0  0  0  0  0  0  0  0  0  0  0
   56.4670   29.4550   42.5150 O   0  0  0  0  0  0  0  0  0  0  0  0
   56.0280   30.4690   44.6940 O   0  0  0  0  0  0  0  0  0  0  0  0
   58.2730   29.0900   44.4100 N   0  0  0  0  0  0  0  0  0  0  0  0
   59.6990   29.3950   44.5070 C   0  0  0  0  0  0  0  0  0  0  0  0
   60.2950   28.3420   45.4750 C   0  0  0  0  0  0  0  0  0  0  0  0
   59.0990   27.5800   45.9380 C   0  0  0  0  0  0  0  0  0  0  0  0
   59.0530   26.5140   46.8410 C   0  0  0  0  0  0  0  0  0  0  0  0
   57.8100   25.9080   47.0960 C   0  0  0  0  0  0  0  0  0  0  0  0
   56.6510   26.3630   46.4370 C   0  0  0  0  0  0  0  0  0  0  0  0
   56.7280   27.4280   45.5210 C   0  0  0  0  0  0  0  0  0  0  0  0
   57.9730   28.0250   45.3010 C   0  0  0  0  0  0  0  0  0  0  0  0
   59.6050   33.5190   45.9520 S   0  0  0  0  0  0  0  0  0  0  0  0
   62.2390   32.6700   48.2680 C   0  0  0  0  0  0  0  0  0  0  0  0
   69.1416   34.6495   51.2488 H   0  0  0  0  0  0  0  0  0  0  0  0
   69.1102   33.5270   49.8468 H   0  0  0  0  0  0  0  0  0  0  0  0
   68.0725   34.9932   49.8468 H   0  0  0  0  0  0  0  0  0  0  0  0
   67.7970   32.8664   52.0029 H   0  0  0  0  0  0  0  0  0  0  0  0
   66.2589   34.3611   52.7248 H   0  0  0  0  0  0  0  0  0  0  0  0
   66.4704   35.3639   51.2496 H   0  0  0  0  0  0  0  0  0  0  0  0
   65.2989   34.0023   51.2496 H   0  0  0  0  0  0  0  0  0  0  0  0
   67.0767   32.6124   49.1416 H   0  0  0  0  0  0  0  0  0  0  0  0
   67.1933   31.3625   50.4378 H   0  0  0  0  0  0  0  0  0  0  0  0
   65.0230   31.3700   50.6150 H   0  0  0  0  0  0  0  0  0  0  0  0
   65.1962   33.4388   48.4987 H   0  0  0  0  0  0  0  0  0  0  0  0
   64.6609   31.7107   48.3795 H   0  0  0  0  0  0  0  0  0  0  0  0
   63.6136   34.1108   51.0514 H   0  0  0  0  0  0  0  0  0  0  0  0
   61.2448   34.8227   51.3572 H   0  0  0  0  0  0  0  0  0  0  0  0
   59.5164   34.1826   49.6851 H   0  0  0  0  0  0  0  0  0  0  0  0
   58.9320   30.9581   48.3457 H   0  0  0  0  0  0  0  0  0  0  0  0
   57.3456   30.7779   46.2871 H   0  0  0  0  0  0  0  0  0  0  0  0
   56.5162   32.6783   44.3722 H   0  0  0  0  0  0  0  0  0  0  0  0
   57.8915   33.6511   43.6932 H   0  0  0  0  0  0  0  0  0  0  0  0
   58.9180   31.4470   43.1410 H   0  0  0  0  0  0  0  0  0  0  0  0
   56.5327   32.6139   41.8878 H   0  0  0  0  0  0  0  0  0  0  0  0
   58.2168   32.4931   41.2746 H   0  0  0  0  0  0  0  0  0  0  0  0
   57.1549   31.0443   41.2746 H   0  0  0  0  0  0  0  0  0  0  0  0
   60.1747   29.3179   43.5182 H   0  0  0  0  0  0  0  0  0  0  0  0
   59.8686   30.4191   44.8710 H   0  0  0  0  0  0  0  0  0  0  0  0
   61.0031   27.6827   44.9516 H   0  0  0  0  0  0  0  0  0  0  0  0
   60.8630   28.7927   46.3022 H   0  0  0  0  0  0  0  0  0  0  0  0
   59.9665   26.1580   47.3398 H   0  0  0  0  0  0  0  0  0  0  0  0
   57.7424   25.0760   47.8124 H   0  0  0  0  0  0  0  0  0  0  0  0
   55.6819   25.8836   46.6395 H   0  0  0  0  0  0  0  0  0  0  0  0
   55.8313   27.7821   44.9913 H   0  0  0  0  0  0  0  0  0  0  0  0
   62.5207   32.0508   47.4035 H   0  0  0  0  0  0  0  0  0  0  0  0
  1  2  1  0
  2  3  1  0
  2  4  1  0
  4  5  1  0
  5  6  1  0
  6  7  1  0
  7  8  2  0
  8  9  1  0
  9 10  2  0
 10 11  1  0
 11 12  1  0
 12 13  2  0
 13 14  1  0
 14 15  2  0
 15 16  1  0
 16 17  1  0
 17 18  1  0
 17 19  1  0
 19 20  2  0
 19 21  2  0
 19 22  1  0
 22 23  1  0
 23 24  1  0
 24 25  1  0
 25 26  2  0
 26 27  1  0
 27 28  2  0
 28 29  1  0
 29 30  2  0
 15 31  1  0
 11 32  2  0
 32  7  1  0
 31 12  1  0
 30 22  1  0
 30 25  1  0
  1 33  1  0
  1 34  1  0
  1 35  1  0
  2 36  1  0
  3 37  1  0
  3 38  1  0
  3 39  1  0
  4 40  1  0
  4 41  1  0
  5 42  1  0
  6 43  1  0
  6 44  1  0
  8 45  1  0
  9 46  1  0
 10 47  1  0
 13 48  1  0
 14 49  1  0
 16 50  1  0
 16 51  1  0
 17 52  1  6
 18 53  1  0
 18 54  1  0
 18 55  1  0
 23 56  1  0
 23 57  1  0
 24 58  1  0
 24 59  1  0
 26 60  1  0
 27 61  1  0
 28 62  1  0
 29 63  1  0
 32 64  1  0
M  CHG  1  17   1
M  END
>  <UniqueID>  (68) 
58

>  <SMILES>  (68) 
CC(C)CNCc1cccc(-c2ccc(C[N@H+](C)S(=O)(=O)N3CCc4ccccc43)s2)c1

>  <Energy>  (68) 
102.73593771454682

>  <Genealogy>  (68) 
CC(C)CNCc1cccc(-c2ccc(C[NH+](C)S(=O)(=O)N3CCc4ccccc43)s2)c1 (protonated)
CC(C)CNCc1cccc(-c2ccc(C[N@H+](C)S(=O)(=O)N3CCc4ccccc43)s2)c1 (chirality)
CC(C)CNCc1cccc(-c2ccc(C[N@H+](C)S(=O)(=O)N3CCc4ccccc43)s2)c1 (3D coordinates assigned)
CC(C)CNCc1cccc(-c2ccc(C[N@H+](C)S(=O)(=O)N3CCc4ccccc43)s2)c1 (nonaromatic ring conformer: 102.73593771454682 kcal/mol)

>  <smiles>  (68) 
CC(C)CNCc1cccc(-c2ccc(CN(C)S(=O)(=O)N3CCc4ccccc43)s2)c1

>  <score_type>  (68) 
oracle

>  <origin>  (68) 
adg

>  <m_score__min__energy>  (68) 
-8.2400000000000002

>  <m_primary>  (68) 
energy

$$$$
68:0
     RDKit          3D

 44 45  0  0  0  0  0  0  0  0999 V2000
   58.8330   29.5200   48.5360 C   0  0  0  0  0  0  0  0  0  0  0  0
   60.0610   30.1150   49.2310 C   0  0  0  0  0  0  0  0  0  0  0  0
   61.1580   30.4500   48.2160 C   0  0  0  0  0  0  0  0  0  0  0  0
   59.6770   31.3380   50.0160 C   0  0  0  0  0  0  0  0  0  0  0  0
   60.1350   31.5040   51.1790 O   0  0  0  0  0  0  0  0  0  0  0  0
   58.8470   32.3360   49.4050 N   0  0  0  0  0  0  0  0  0  0  0  0
   59.0760   32.9680   48.1370 C   0  0  0  0  0  0  0  0  0  0  0  0
   60.2700   33.6710   47.9410 C   0  0  0  0  0  0  0  0  0  0  0  0
   60.5160   34.3240   46.7310 C   0  0  0  0  0  0  0  0  0  0  0  0
   59.5720   34.2750   45.7020 C   0  0  0  0  0  0  0  0  0  0  0  0
   58.3840   33.5460   45.8680 C   0  0  0  0  0  0  0  0  0  0  0  0
   57.3470   33.5080   44.7750 C   0  0  0  0  0  0  0  0  0  0  0  0
   57.3270   32.1500   44.1470 C   0  0  0  0  0  0  0  0  0  0  0  0
   57.7160   32.0020   42.9580 O   0  0  0  0  0  0  0  0  0  0  0  0
   56.8090   31.0390   44.8860 N   0  0  0  0  0  0  0  0  0  0  0  0
   57.4830   29.7860   45.0570 C   0  0  0  0  0  0  0  0  0  0  0  0
   58.8830   29.7600   45.0410 C   0  0  0  0  0  0  0  0  0  0  0  0
   59.5690   28.5620   45.2610 C   0  0  0  0  0  0  0  0  0  0  0  0
   58.8610   27.3850   45.5230 C   0  0  0  0  0  0  0  0  0  0  0  0
   57.4610   27.4050   45.5730 C   0  0  0  0  0  0  0  0  0  0  0  0
   56.5570   25.9390   45.9410 S   0  0  0  0  0  0  0  0  0  0  0  0
   54.8670   26.2970   45.9790 N   0  0  0  0  0  0  0  0  0  0  0  0
   56.9900   25.4010   47.2760 O   0  0  0  0  0  0  0  0  0  0  0  0
   56.8180   24.8940   44.8920 O   0  0  0  0  0  0  0  0  0  0  0  0
   56.7740   28.6030   45.3320 C   0  0  0  0  0  0  0  0  0  0  0  0
   58.1520   32.8750   47.0820 C   0  0  0  0  0  0  0  0  0  0  0  0
   58.1154   29.1723   49.2937 H   0  0  0  0  0  0  0  0  0  0  0  0
   58.3591   30.2884   47.9075 H   0  0  0  0  0  0  0  0  0  0  0  0
   59.1424   28.6719   47.9075 H   0  0  0  0  0  0  0  0  0  0  0  0
   60.4601   29.3618   49.9263 H   0  0  0  0  0  0  0  0  0  0  0  0
   62.0779   30.7309   48.7497 H   0  0  0  0  0  0  0  0  0  0  0  0
   61.3543   29.5709   47.5847 H   0  0  0  0  0  0  0  0  0  0  0  0
   60.8297   31.2888   47.5847 H   0  0  0  0  0  0  0  0  0  0  0  0
   61.0197   33.7096   48.7450 H   0  0  0  0  0  0  0  0  0  0  0  0
   61.4553   34.8783   46.5878 H   0  0  0  0  0  0  0  0  0  0  0  0
   59.7604   34.8093   44.7591 H   0  0  0  0  0  0  0  0  0  0  0  0
   56.3574   33.7283   45.2018 H   0  0  0  0  0  0  0  0  0  0  0  0
   57.5948   34.2595   44.0109 H   0  0  0  0  0  0  0  0  0  0  0  0
   59.4456   30.6866   44.8544 H   0  0  0  0  0  0  0  0  0  0  0  0
   60.6684   28.5452   45.2279 H   0  0  0  0  0  0  0  0  0  0  0  0
   59.4036   26.4428   45.6900 H   0  0  0  0  0  0  0  0  0  0  0  0
   54.7400   27.0920   46.6450 H   0  0  0  0  0  0  0  0  0  0  0  0
   55.6744   28.6178   45.3581 H   0  0  0  0  0  0  0  0  0  0  0  0
   57.2401   32.2726   47.2069 H   0  0  0  0  0  0  0  0  0  0  0  0
  1  2  1  0
  2  3  1  0
  2  4  1  0
  4  5  2  0
  4  6  1  0
  6  7  1  0
  7  8  2  0
  8  9  1  0
  9 10  2  0
 10 11  1  0
 11 12  1  0
 12 13  1  0
 13 14  2  0
 13 15  1  0
 15 16  1  0
 16 17  2  0
 17 18  1  0
 18 19  2  0
 19 20  1  0
 20 21  1  0
 21 22  1  0
 21 23  2  0
 21 24  2  0
 20 25  2  0
 11 26  2  0
 26  7  1  0
 25 16  1  0
  1 27  1  0
  1 28  1  0
  1 29  1  0
  2 30  1  0
  3 31  1  0
  3 32  1  0
  3 33  1  0
  8 34  1  0
  9 35  1  0
 10 36  1  0
 12 37  1  0
 12 38  1  0
 17 39  1  0
 18 40  1  0
 19 41  1  0
 22 42  1  0
 25 43  1  0
 26 44  1  0
M  CHG  3   6  -1  15  -1  22  -1
M  END
>  <UniqueID>  (69) 
59

>  <SMILES>  (69) 
CC(C)C(=O)[N-]c1cccc(CC(=O)[N-]c2cccc(S([NH-])(=O)=O)c2)c1

>  <Energy>  (69) 
42.674815606254505

>  <Genealogy>  (69) 
CC(C)C(=O)[N-]c1cccc(CC(=O)[N-]c2cccc(S([NH-])(=O)=O)c2)c1 (protonated)
CC(C)C(=O)[N-]c1cccc(CC(=O)[N-]c2cccc(S([NH-])(=O)=O)c2)c1 (3D coordinates assigned)
CC(C)C(=O)[N-]c1cccc(CC(=O)[N-]c2cccc(S([NH-])(=O)=O)c2)c1 (optimized conformer: 42.674815606254505 kcal/mol)

>  <smiles>  (69) 
CC(C)C(=O)Nc1cccc(CC(=O)Nc2cccc(S(N)(=O)=O)c2)c1

>  <score_type>  (69) 
oracle

>  <origin>  (69) 
adg

>  <m_score__min__energy>  (69) 
-13.94

>  <m_primary>  (69) 
energy

$$$$
69:0
     RDKit          3D

 58 59  0  0  0  0  0  0  0  0999 V2000
   57.0350   33.3990   45.6390 C   0  0  0  0  0  0  0  0  0  0  0  0
   57.8770   32.2180   45.1660 C   0  0  0  0  0  0  0  0  0  0  0  0
   57.0100   31.0540   44.8560 N   0  0  0  0  0  0  0  0  0  0  0  0
   56.8460   30.8190   43.4000 C   0  0  0  0  0  0  0  0  0  0  0  0
   57.6030   31.8130   42.5040 C   0  0  0  0  0  0  0  0  0  0  0  0
   57.4050   29.8350   45.5940 C   0  0  0  0  0  0  0  0  0  0  0  0
   56.9040   28.5830   44.8650 C   0  0  0  0  0  0  0  0  0  0  0  0
   58.0200   27.5390   44.7370 C   0  0  0  0  0  0  0  0  0  0  0  0
   57.9610   26.5800   45.8490 N   0  0  0  0  0  0  0  0  0  0  0  0
   56.8320   25.6470   45.9440 C   0  0  0  0  0  0  0  0  0  0  0  0
   57.0870   24.4560   45.0750 C   0  0  0  0  0  0  0  0  0  0  0  0
   56.3450   24.0850   43.9610 C   0  0  0  0  0  0  0  0  0  0  0  0
   56.7390   22.8540   43.4230 C   0  0  0  0  0  0  0  0  0  0  0  0
   57.7760   22.2460   44.1180 C   0  0  0  0  0  0  0  0  0  0  0  0
   58.2020   23.2420   45.4050 S   0  0  0  0  0  0  0  0  0  0  0  0
   59.0910   26.4280   46.7330 C   0  0  0  0  0  0  0  0  0  0  0  0
   59.9700   25.5550   46.5010 O   0  0  0  0  0  0  0  0  0  0  0  0
   59.2420   27.2800   47.8690 N   0  0  0  0  0  0  0  0  0  0  0  0
   59.5500   28.6770   47.7800 C   0  0  0  0  0  0  0  0  0  0  0  0
   58.9490   29.5600   48.6790 C   0  0  0  0  0  0  0  0  0  0  0  0
   59.2060   30.9310   48.6100 C   0  0  0  0  0  0  0  0  0  0  0  0
   60.0730   31.4580   47.6270 C   0  0  0  0  0  0  0  0  0  0  0  0
   60.3320   32.8880   47.5460 N   0  0  0  0  0  0  0  0  0  0  0  0
   61.5050   33.3990   46.8250 C   0  0  0  0  0  0  0  0  0  0  0  0
   59.4170   33.8510   48.1750 C   0  0  0  0  0  0  0  0  0  0  0  0
   60.6720   30.5550   46.7210 C   0  0  0  0  0  0  0  0  0  0  0  0
   60.4130   29.1840   46.7960 C   0  0  0  0  0  0  0  0  0  0  0  0
   57.0193   33.4210   46.7387 H   0  0  0  0  0  0  0  0  0  0  0  0
   57.4706   34.3351   45.2597 H   0  0  0  0  0  0  0  0  0  0  0  0
   56.0080   33.2924   45.2597 H   0  0  0  0  0  0  0  0  0  0  0  0
   58.4315   32.5078   44.2612 H   0  0  0  0  0  0  0  0  0  0  0  0
   58.5779   31.9371   45.9659 H   0  0  0  0  0  0  0  0  0  0  0  0
   57.2093   29.8060   43.1725 H   0  0  0  0  0  0  0  0  0  0  0  0
   55.7764   30.9520   43.1804 H   0  0  0  0  0  0  0  0  0  0  0  0
   58.1497   32.5309   43.1331 H   0  0  0  0  0  0  0  0  0  0  0  0
   58.3150   31.2655   41.8689 H   0  0  0  0  0  0  0  0  0  0  0  0
   56.8859   32.3538   41.8689 H   0  0  0  0  0  0  0  0  0  0  0  0
   58.5017   29.7962   45.6691 H   0  0  0  0  0  0  0  0  0  0  0  0
   56.9582   29.8657   46.5987 H   0  0  0  0  0  0  0  0  0  0  0  0
   56.0672   28.1477   45.4309 H   0  0  0  0  0  0  0  0  0  0  0  0
   56.5768   28.8723   43.8554 H   0  0  0  0  0  0  0  0  0  0  0  0
   57.9018   26.9981   43.7865 H   0  0  0  0  0  0  0  0  0  0  0  0
   58.9918   28.0536   44.7636 H   0  0  0  0  0  0  0  0  0  0  0  0
   56.7150   25.3197   46.9877 H   0  0  0  0  0  0  0  0  0  0  0  0
   55.9135   26.1516   45.6098 H   0  0  0  0  0  0  0  0  0  0  0  0
   55.5309   24.6960   43.5440 H   0  0  0  0  0  0  0  0  0  0  0  0
   56.2706   22.4097   42.5324 H   0  0  0  0  0  0  0  0  0  0  0  0
   58.2391   21.2796   43.8698 H   0  0  0  0  0  0  0  0  0  0  0  0
   58.2663   29.1720   49.4493 H   0  0  0  0  0  0  0  0  0  0  0  0
   58.7268   31.6097   49.3309 H   0  0  0  0  0  0  0  0  0  0  0  0
   62.2646   33.7299   47.5485 H   0  0  0  0  0  0  0  0  0  0  0  0
   61.9232   32.6015   46.1932 H   0  0  0  0  0  0  0  0  0  0  0  0
   61.2058   34.2483   46.1932 H   0  0  0  0  0  0  0  0  0  0  0  0
   59.4944   33.7695   49.2692 H   0  0  0  0  0  0  0  0  0  0  0  0
   59.6870   34.8708   47.8633 H   0  0  0  0  0  0  0  0  0  0  0  0
   58.3848   33.6335   47.8633 H   0  0  0  0  0  0  0  0  0  0  0  0
   61.3522   30.9366   45.9452 H   0  0  0  0  0  0  0  0  0  0  0  0
   60.8883   28.4979   46.0796 H   0  0  0  0  0  0  0  0  0  0  0  0
  1  2  1  0
  2  3  1  0
  3  4  1  0
  4  5  1  0
  3  6  1  0
  6  7  1  0
  7  8  1  0
  8  9  1  0
  9 10  1  0
 10 11  1  0
 11 12  2  0
 12 13  1  0
 13 14  2  0
 14 15  1  0
  9 16  1  0
 16 17  2  0
 16 18  1  0
 18 19  1  0
 19 20  2  0
 20 21  1  0
 21 22  2  0
 22 23  1  0
 23 24  1  0
 23 25  1  0
 22 26  1  0
 26 27  2  0
 15 11  1  0
 27 19  1  0
  1 28  1  0
  1 29  1  0
  1 30  1  0
  2 31  1  0
  2 32  1  0
  4 33  1  0
  4 34  1  0
  5 35  1  0
  5 36  1  0
  5 37  1  0
  6 38  1  0
  6 39  1  0
  7 40  1  0
  7 41  1  0
  8 42  1  0
  8 43  1  0
 10 44  1  0
 10 45  1  0
 12 46  1  0
 13 47  1  0
 14 48  1  0
 20 49  1  0
 21 50  1  0
 24 51  1  0
 24 52  1  0
 24 53  1  0
 25 54  1  0
 25 55  1  0
 25 56  1  0
 26 57  1  0
 27 58  1  0
M  CHG  1  18  -1
M  END
>  <UniqueID>  (70) 
60

>  <SMILES>  (70) 
CCN(CC)CCCN(Cc1cccs1)C(=O)[N-]c1ccc(N(C)C)cc1

>  <Energy>  (70) 
85.83598679974978

>  <Genealogy>  (70) 
CCN(CC)CCCN(Cc1cccs1)C(=O)[N-]c1ccc(N(C)C)cc1 (protonated)
CCN(CC)CCCN(Cc1cccs1)C(=O)[N-]c1ccc(N(C)C)cc1 (3D coordinates assigned)
CCN(CC)CCCN(Cc1cccs1)C(=O)[N-]c1ccc(N(C)C)cc1 (optimized conformer: 85.83598679974978 kcal/mol)

>  <smiles>  (70) 
CCN(CC)CCCN(Cc1cccs1)C(=O)Nc1ccc(N(C)C)cc1

>  <score_type>  (70) 
oracle

>  <origin>  (70) 
adg

>  <m_score__min__energy>  (70) 
-8

>  <m_primary>  (70) 
energy

$$$$
70:0
     RDKit          3D

 48 50  0  0  0  0  0  0  0  0999 V2000
   56.1950   30.8690   51.7220 C   0  0  0  0  0  0  0  0  0  0  0  0
   57.3520   30.0490   51.6060 O   0  0  0  0  0  0  0  0  0  0  0  0
   58.1980   30.0890   50.4930 C   0  0  0  0  0  0  0  0  0  0  0  0
   58.4010   29.0440   49.8170 O   0  0  0  0  0  0  0  0  0  0  0  0
   58.8190   31.3740   50.0960 C   0  0  0  0  0  0  0  0  0  0  0  0
   58.9350   32.3860   51.0660 C   0  0  0  0  0  0  0  0  0  0  0  0
   59.4840   33.6260   50.7430 C   0  0  0  0  0  0  0  0  0  0  0  0
   59.9470   33.8690   49.4520 C   0  0  0  0  0  0  0  0  0  0  0  0
   59.8540   32.8750   48.4770 C   0  0  0  0  0  0  0  0  0  0  0  0
   59.2810   31.6230   48.7760 C   0  0  0  0  0  0  0  0  0  0  0  0
   59.2900   30.5770   47.7840 N   0  0  0  0  0  0  0  0  0  0  0  0
   60.3890   30.3280   46.8940 C   0  0  0  0  0  0  0  0  0  0  0  0
   61.2350   31.2320   46.6540 O   0  0  0  0  0  0  0  0  0  0  0  0
   60.5480   28.9820   46.2500 C   0  0  0  0  0  0  0  0  0  0  0  0
   60.4310   27.6470   47.4960 S   0  0  0  0  0  0  0  0  0  0  0  0
   58.7850   27.1410   47.0100 C   0  0  0  0  0  0  0  0  0  0  0  0
   58.3950   25.8490   47.1640 N   0  0  0  0  0  0  0  0  0  0  0  0
   57.1800   25.4320   46.7240 C   0  0  0  0  0  0  0  0  0  0  0  0
   56.8350   24.2320   46.8840 O   0  0  0  0  0  0  0  0  0  0  0  0
   56.3220   26.3320   46.0890 C   0  0  0  0  0  0  0  0  0  0  0  0
   56.7400   27.6620   45.9370 C   0  0  0  0  0  0  0  0  0  0  0  0
   55.9480   28.6340   45.2480 N   0  0  0  0  0  0  0  0  0  0  0  0
   56.4150   29.4260   43.7800 S   0  0  0  0  0  0  0  0  0  0  0  0
   57.3610   28.5370   43.0220 O   0  0  0  0  0  0  0  0  0  0  0  0
   55.2020   29.7170   42.9420 O   0  0  0  0  0  0  0  0  0  0  0  0
   57.2300   30.9330   44.1820 C   0  0  0  0  0  0  0  0  0  0  0  0
   57.6910   31.7730   43.1590 C   0  0  0  0  0  0  0  0  0  0  0  0
   58.3230   32.9800   43.4720 C   0  0  0  0  0  0  0  0  0  0  0  0
   58.5000   33.3520   44.8080 C   0  0  0  0  0  0  0  0  0  0  0  0
   59.2850   34.8700   45.2010 Cl  0  0  0  0  0  0  0  0  0  0  0  0
   58.0470   32.5130   45.8330 C   0  0  0  0  0  0  0  0  0  0  0  0
   57.4160   31.3050   45.5210 C   0  0  0  0  0  0  0  0  0  0  0  0
   57.9530   28.0360   46.4190 N   0  0  0  0  0  0  0  0  0  0  0  0
   55.9658   31.0314   52.7855 H   0  0  0  0  0  0  0  0  0  0  0  0
   56.3817   31.8375   51.2351 H   0  0  0  0  0  0  0  0  0  0  0  0
   55.3430   30.3720   51.2351 H   0  0  0  0  0  0  0  0  0  0  0  0
   58.5881   32.1965   52.0925 H   0  0  0  0  0  0  0  0  0  0  0  0
   59.5516   34.4132   51.5083 H   0  0  0  0  0  0  0  0  0  0  0  0
   60.3865   34.8456   49.2007 H   0  0  0  0  0  0  0  0  0  0  0  0
   60.2325   33.0712   47.4630 H   0  0  0  0  0  0  0  0  0  0  0  0
   58.4980   29.8960   47.7790 H   0  0  0  0  0  0  0  0  0  0  0  0
   59.7553   28.8454   45.4997 H   0  0  0  0  0  0  0  0  0  0  0  0
   61.5385   28.9339   45.7740 H   0  0  0  0  0  0  0  0  0  0  0  0
   55.3400   26.0051   45.7163 H   0  0  0  0  0  0  0  0  0  0  0  0
   57.5551   31.4817   42.1070 H   0  0  0  0  0  0  0  0  0  0  0  0
   58.6814   33.6377   42.6664 H   0  0  0  0  0  0  0  0  0  0  0  0
   58.1876   32.8043   46.8844 H   0  0  0  0  0  0  0  0  0  0  0  0
   57.0647   30.6450   46.3278 H   0  0  0  0  0  0  0  0  0  0  0  0
  1  2  1  0
  2  3  1  0
  3  4  2  0
  3  5  1  0
  5  6  2  0
  6  7  1  0
  7  8  2  0
  8  9  1  0
  9 10  2  0
 10 11  1  0
 11 12  1  0
 12 13  2  0
 12 14  1  0
 14 15  1  0
 15 16  1  0
 16 17  2  0
 17 18  1  0
 18 19  2  0
 18 20  1  0
 20 21  2  0
 21 22  1  0
 22 23  1  0
 23 24  2  0
 23 25  2  0
 23 26  1  0
 26 27  2  0
 27 28  1  0
 28 29  2  0
 29 30  1  0
 29 31  1  0
 31 32  2  0
 21 33  1  0
 10  5  1  0
 33 16  1  0
 32 26  1  0
  1 34  1  0
  1 35  1  0
  1 36  1  0
  6 37  1  0
  7 38  1  0
  8 39  1  0
  9 40  1  0
 11 41  1  0
 14 42  1  0
 14 43  1  0
 20 44  1  0
 27 45  1  0
 28 46  1  0
 31 47  1  0
 32 48  1  0
M  CHG  2  22  -1  33  -1
M  END
>  <UniqueID>  (71) 
61

>  <SMILES>  (71) 
COC(=O)c1ccccc1NC(=O)CSc1nc(=O)cc([N-]S(=O)(=O)c2ccc(Cl)cc2)[n-]1

>  <Energy>  (71) 
49.65315039436433

>  <Genealogy>  (71) 
COC(=O)c1ccccc1NC(=O)CSc1nc(=O)cc([N-]S(=O)(=O)c2ccc(Cl)cc2)[n-]1 (protonated)
COC(=O)c1ccccc1NC(=O)CSc1nc(=O)cc([N-]S(=O)(=O)c2ccc(Cl)cc2)[n-]1 (3D coordinates assigned)
COC(=O)c1ccccc1NC(=O)CSc1nc(=O)cc([N-]S(=O)(=O)c2ccc(Cl)cc2)[n-]1 (optimized conformer: 49.65315039436433 kcal/mol)

>  <smiles>  (71) 
COC(=O)c1ccccc1NC(=O)CSc1nc(=O)cc(NS(=O)(=O)c2ccc(Cl)cc2)[nH]1

>  <score_type>  (71) 
oracle

>  <origin>  (71) 
adg

>  <m_score__min__energy>  (71) 
-12.029999999999999

>  <m_primary>  (71) 
energy

$$$$
71:0
     RDKit          3D

 62 65  0  0  0  0  0  0  0  0999 V2000
   61.2070   32.0340   51.0650 N   0  0  0  0  0  0  0  0  0  0  0  0
   62.2640   31.1850   50.5210 C   0  0  0  0  0  0  0  0  0  0  0  0
   61.8030   30.5040   49.2280 C   0  0  0  0  0  0  0  0  0  0  0  0
   60.6580   29.5070   49.4560 C   0  0  0  0  0  0  0  0  0  0  0  0
   59.3450   30.1640   49.3690 N   0  0  0  0  0  0  0  0  0  0  0  0
   58.3860   30.0590   50.4780 C   0  0  0  0  0  0  0  0  0  0  0  0
   57.7810   31.4230   50.8230 C   0  0  0  0  0  0  0  0  0  0  0  0
   58.7110   32.4880   50.4580 N   0  0  0  0  0  0  0  0  0  0  0  0
   58.8530   30.5180   48.0690 C   0  0  0  0  0  0  0  0  0  0  0  0
   58.8120   31.8270   47.6800 N   0  0  0  0  0  0  0  0  0  0  0  0
   58.3500   32.1980   46.4420 C   0  0  0  0  0  0  0  0  0  0  0  0
   58.2600   33.6490   46.0660 C   0  0  0  0  0  0  0  0  0  0  0  0
   58.8580   34.5660   47.1420 C   0  0  0  0  0  0  0  0  0  0  0  0
   60.3060   34.2310   47.3780 C   0  0  0  0  0  0  0  0  0  0  0  0
   61.1300   33.8460   46.3070 C   0  0  0  0  0  0  0  0  0  0  0  0
   62.4830   33.5690   46.5250 C   0  0  0  0  0  0  0  0  0  0  0  0
   63.0290   33.6880   47.8110 C   0  0  0  0  0  0  0  0  0  0  0  0
   64.3770   33.4200   48.0390 O   0  0  0  0  0  0  0  0  0  0  0  0
   62.2130   34.0810   48.8780 C   0  0  0  0  0  0  0  0  0  0  0  0
   60.8590   34.3540   48.6640 C   0  0  0  0  0  0  0  0  0  0  0  0
   57.8810   31.2490   45.5740 N   0  0  0  0  0  0  0  0  0  0  0  0
   57.9140   29.9510   45.9580 C   0  0  0  0  0  0  0  0  0  0  0  0
   57.4970   28.8320   45.2770 C   0  0  0  0  0  0  0  0  0  0  0  0
   57.7460   27.7760   46.1620 C   0  0  0  0  0  0  0  0  0  0  0  0
   57.4570   26.3480   45.8830 C   0  0  0  0  0  0  0  0  0  0  0  0
   58.5200   25.4550   45.6510 C   0  0  0  0  0  0  0  0  0  0  0  0
   58.2690   24.1040   45.3970 C   0  0  0  0  0  0  0  0  0  0  0  0
   56.9570   23.6290   45.3670 C   0  0  0  0  0  0  0  0  0  0  0  0
   55.8920   24.5050   45.5840 C   0  0  0  0  0  0  0  0  0  0  0  0
   56.1320   25.8610   45.8330 C   0  0  0  0  0  0  0  0  0  0  0  0
   55.0460   26.7150   45.9990 O   0  0  0  0  0  0  0  0  0  0  0  0
   58.2980   28.2330   47.3160 N   0  0  0  0  0  0  0  0  0  0  0  0
   58.3850   29.5640   47.1720 C   0  0  0  0  0  0  0  0  0  0  0  0
   60.4100   31.4160   51.3390 H   0  0  0  0  0  0  0  0  0  0  0  0
   60.8550   32.6510   50.2960 H   0  0  0  0  0  0  0  0  0  0  0  0
   63.1489   31.8027   50.3077 H   0  0  0  0  0  0  0  0  0  0  0  0
   62.5086   30.4086   51.2608 H   0  0  0  0  0  0  0  0  0  0  0  0
   61.4602   31.2783   48.5260 H   0  0  0  0  0  0  0  0  0  0  0  0
   62.6584   29.9400   48.8277 H   0  0  0  0  0  0  0  0  0  0  0  0
   60.7140   28.7178   48.6918 H   0  0  0  0  0  0  0  0  0  0  0  0
   60.7654   29.0834   50.4655 H   0  0  0  0  0  0  0  0  0  0  0  0
   57.5776   29.3715   50.1885 H   0  0  0  0  0  0  0  0  0  0  0  0
   58.9195   29.6824   51.3632 H   0  0  0  0  0  0  0  0  0  0  0  0
   56.8401   31.5550   50.2686 H   0  0  0  0  0  0  0  0  0  0  0  0
   57.5860   31.4686   51.9046 H   0  0  0  0  0  0  0  0  0  0  0  0
   59.2640   32.7390   51.3100 H   0  0  0  0  0  0  0  0  0  0  0  0
   59.3930   32.0930   49.7710 H   0  0  0  0  0  0  0  0  0  0  0  0
   58.8063   33.8052   45.1241 H   0  0  0  0  0  0  0  0  0  0  0  0
   57.1954   33.9043   45.9590 H   0  0  0  0  0  0  0  0  0  0  0  0
   58.7782   35.6119   46.8108 H   0  0  0  0  0  0  0  0  0  0  0  0
   58.3028   34.4208   48.0804 H   0  0  0  0  0  0  0  0  0  0  0  0
   60.7094   33.7623   45.2940 H   0  0  0  0  0  0  0  0  0  0  0  0
   63.1211   33.2568   45.6851 H   0  0  0  0  0  0  0  0  0  0  0  0
   64.9000   32.7890   47.4420 H   0  0  0  0  0  0  0  0  0  0  0  0
   62.6385   34.1753   49.8880 H   0  0  0  0  0  0  0  0  0  0  0  0
   60.2236   34.6665   49.5058 H   0  0  0  0  0  0  0  0  0  0  0  0
   57.0657   28.7784   44.2665 H   0  0  0  0  0  0  0  0  0  0  0  0
   59.5563   25.8234   45.6698 H   0  0  0  0  0  0  0  0  0  0  0  0
   59.1070   23.4137   45.2204 H   0  0  0  0  0  0  0  0  0  0  0  0
   56.7621   22.5641   45.1723 H   0  0  0  0  0  0  0  0  0  0  0  0
   54.8591   24.1276   45.5591 H   0  0  0  0  0  0  0  0  0  0  0  0
   58.6180   27.6700   48.1330 H   0  0  0  0  0  0  0  0  0  0  0  0
  1  2  1  0
  2  3  1  0
  3  4  1  0
  4  5  1  0
  5  6  1  0
  6  7  1  0
  7  8  1  0
  5  9  1  0
  9 10  2  0
 10 11  1  0
 11 12  1  0
 12 13  1  0
 13 14  1  0
 14 15  2  0
 15 16  1  0
 16 17  2  0
 17 18  1  0
 17 19  1  0
 19 20  2  0
 11 21  2  0
 21 22  1  0
 22 23  1  0
 23 24  2  0
 24 25  1  0
 25 26  2  0
 26 27  1  0
 27 28  2  0
 28 29  1  0
 29 30  2  0
 30 31  1  0
 24 32  1  0
 32 33  1  0
 33  9  1  0
 20 14  1  0
 33 22  2  0
 30 25  1  0
  1 34  1  0
  1 35  1  0
  2 36  1  0
  2 37  1  0
  3 38  1  0
  3 39  1  0
  4 40  1  0
  4 41  1  0
  6 42  1  0
  6 43  1  0
  7 44  1  0
  7 45  1  0
  8 46  1  0
  8 47  1  0
 12 48  1  0
 12 49  1  0
 13 50  1  0
 13 51  1  0
 15 52  1  0
 16 53  1  0
 18 54  1  0
 19 55  1  0
 20 56  1  0
 23 57  1  0
 26 58  1  0
 27 59  1  0
 28 60  1  0
 29 61  1  0
 32 62  1  0
M  CHG  1  31  -1
M  END
>  <UniqueID>  (72) 
62

>  <SMILES>  (72) 
NCCCN(CCN)c1nc(CCc2ccc(O)cc2)nc2cc(-c3ccccc3[O-])[nH]c12

>  <Energy>  (72) 
97.82296096514213

>  <Genealogy>  (72) 
NCCCN(CCN)c1nc(CCc2ccc(O)cc2)nc2cc(-c3ccccc3[O-])[nH]c12 (protonated)
NCCCN(CCN)c1nc(CCc2ccc(O)cc2)nc2cc(-c3ccccc3[O-])[nH]c12 (3D coordinates assigned)
NCCCN(CCN)c1nc(CCc2ccc(O)cc2)nc2cc(-c3ccccc3[O-])[nH]c12 (optimized conformer: 97.82296096514213 kcal/mol)

>  <smiles>  (72) 
NCCCN(CCN)c1nc(CCc2ccc(O)cc2)nc2cc(-c3ccccc3O)[nH]c12

>  <score_type>  (72) 
oracle

>  <origin>  (72) 
adg

>  <m_score__min__energy>  (72) 
-12.869999999999999

>  <m_primary>  (72) 
energy

$$$$
72:0
     RDKit          3D

 38 40  0  0  0  0  0  0  0  0999 V2000
   55.1370   28.6120   45.6340 H   0  0  0  0  0  0  0  0  0  0  0  0
   55.2320   29.1790   44.7620 N   0  0  0  0  0  0  0  0  0  0  0  0
   56.5140   29.4350   44.1930 C   0  0  0  0  0  0  0  0  0  0  0  0
   56.6180   29.6050   42.9490 O   0  0  0  0  0  0  0  0  0  0  0  0
   57.7060   29.5370   45.0670 C   0  0  0  0  0  0  0  0  0  0  0  0
   58.1540   30.7680   45.6050 C   0  0  0  0  0  0  0  0  0  0  0  0
   57.5170   32.0900   45.2300 C   0  0  0  0  0  0  0  0  0  0  0  0
   57.5166   32.1928   44.1348 H   0  0  0  0  0  0  0  0  0  0  0  0
   56.4869   32.1081   45.6155 H   0  0  0  0  0  0  0  0  0  0  0  0
   58.2800   33.2390   45.8340 C   0  0  0  0  0  0  0  0  0  0  0  0
   58.3510   33.3810   47.2310 C   0  0  0  0  0  0  0  0  0  0  0  0
   57.8344   32.6604   47.8820 H   0  0  0  0  0  0  0  0  0  0  0  0
   59.0760   34.4350   47.7960 C   0  0  0  0  0  0  0  0  0  0  0  0
   59.1274   34.5414   48.8896 H   0  0  0  0  0  0  0  0  0  0  0  0
   59.7350   35.3530   46.9750 C   0  0  0  0  0  0  0  0  0  0  0  0
   60.3048   36.1810   47.4220 H   0  0  0  0  0  0  0  0  0  0  0  0
   59.6700   35.2190   45.5850 C   0  0  0  0  0  0  0  0  0  0  0  0
   60.1895   35.9419   44.9388 H   0  0  0  0  0  0  0  0  0  0  0  0
   58.9460   34.1680   45.0150 C   0  0  0  0  0  0  0  0  0  0  0  0
   58.8970   34.0671   43.9207 H   0  0  0  0  0  0  0  0  0  0  0  0
   59.2680   30.7870   46.3960 N   0  0  0  0  0  0  0  0  0  0  0  0
   59.6250   31.7110   46.7230 H   0  0  0  0  0  0  0  0  0  0  0  0
   59.9450   29.6390   46.7020 C   0  0  0  0  0  0  0  0  0  0  0  0
   61.0100   29.6420   47.4560 N   0  0  0  0  0  0  0  0  0  0  0  0
   61.7230   30.7870   47.9480 C   0  0  0  0  0  0  0  0  0  0  0  0
   61.8830   30.9500   49.3290 C   0  0  0  0  0  0  0  0  0  0  0  0
   61.4982   30.1844   50.0188 H   0  0  0  0  0  0  0  0  0  0  0  0
   62.5300   32.0820   49.8360 C   0  0  0  0  0  0  0  0  0  0  0  0
   62.6712   32.1945   50.9211 H   0  0  0  0  0  0  0  0  0  0  0  0
   62.9970   33.0700   48.9650 C   0  0  0  0  0  0  0  0  0  0  0  0
   63.5118   33.9564   49.3642 H   0  0  0  0  0  0  0  0  0  0  0  0
   62.8100   32.9320   47.5860 C   0  0  0  0  0  0  0  0  0  0  0  0
   63.3750   34.1850   46.4940 Cl  0  0  0  0  0  0  0  0  0  0  0  0
   62.1630   31.8000   47.0770 C   0  0  0  0  0  0  0  0  0  0  0  0
   61.9983   31.7024   45.9938 H   0  0  0  0  0  0  0  0  0  0  0  0
   59.5330   28.4620   46.1730 N   0  0  0  0  0  0  0  0  0  0  0  0
   58.4440   28.3810   45.3720 C   0  0  0  0  0  0  0  0  0  0  0  0
   58.1000   27.2560   44.9200 O   0  0  0  0  0  0  0  0  0  0  0  0
  1  2  1  0
  2  3  1  0
  3  4  2  0
  3  5  1  0
  5  6  2  0
  6  7  1  0
  7  8  1  0
  7  9  1  0
  7 10  1  0
 10 11  2  0
 11 12  1  0
 11 13  1  0
 13 14  1  0
 13 15  2  0
 15 16  1  0
 15 17  1  0
 17 18  1  0
 17 19  2  0
 19 20  1  0
  6 21  1  0
 21 22  1  0
 21 23  1  0
 23 24  2  0
 24 25  1  0
 25 26  2  0
 26 27  1  0
 26 28  1  0
 28 29  1  0
 28 30  2  0
 30 31  1  0
 30 32  1  0
 32 33  1  0
 32 34  2  0
 34 35  1  0
 23 36  1  0
 36 37  1  0
 37 38  2  0
 37  5  1  0
 19 10  1  0
 34 25  1  0
M  CHG  2   2  -1  36  -1
M  END
>  <UniqueID>  (73) 
63

>  <SMILES>  (73) 
[NH-]C(=O)c1c(Cc2ccccc2)[nH]/c(=N\c2cccc(Cl)c2)[n-]c1=O

>  <Energy>  (73) 
56.1178090575767

>  <Genealogy>  (73) 
[NH-]C(=O)c1c(Cc2ccccc2)[nH]c(=Nc2cccc(Cl)c2)[n-]c1=O (protonated)
[NH-]C(=O)c1c(Cc2ccccc2)[nH]/c(=N\c2cccc(Cl)c2)[n-]c1=O (cis-trans isomerization)
[NH-]C(=O)c1c(Cc2ccccc2)[nH]/c(=N\c2cccc(Cl)c2)[n-]c1=O (3D coordinates assigned)
[NH-]C(=O)c1c(Cc2ccccc2)[nH]/c(=N\c2cccc(Cl)c2)[n-]c1=O (optimized conformer: 56.1178090575767 kcal/mol)

>  <smiles>  (73) 
NC(=O)c1c(Cc2ccccc2)[nH]c(=Nc2cccc(Cl)c2)[nH]c1=O

>  <score_type>  (73) 
oracle

>  <origin>  (73) 
adg

>  <m_score__min__energy>  (73) 
-12.720000000000001

>  <m_primary>  (73) 
energy

$$$$
73:0
     RDKit          3D

 43 45  0  0  0  0  0  0  0  0999 V2000
   60.7810   29.3330   48.5640 O   0  0  0  0  0  0  0  0  0  0  0  0
   60.6180   29.8290   47.4160 C   0  0  0  0  0  0  0  0  0  0  0  0
   61.3450   31.0090   47.0360 N   0  0  0  0  0  0  0  0  0  0  0  0
   61.9630   31.9060   47.9720 C   0  0  0  0  0  0  0  0  0  0  0  0
   61.3850   32.1680   49.2290 C   0  0  0  0  0  0  0  0  0  0  0  0
   61.9960   33.0630   50.1140 C   0  0  0  0  0  0  0  0  0  0  0  0
   63.1780   33.7130   49.7490 C   0  0  0  0  0  0  0  0  0  0  0  0
   63.7680   34.5820   50.6070 F   0  0  0  0  0  0  0  0  0  0  0  0
   63.7480   33.4750   48.4950 C   0  0  0  0  0  0  0  0  0  0  0  0
   63.1390   32.5810   47.6070 C   0  0  0  0  0  0  0  0  0  0  0  0
   59.7440   29.1380   46.4440 C   0  0  0  0  0  0  0  0  0  0  0  0
   58.6850   29.8400   45.8390 C   0  0  0  0  0  0  0  0  0  0  0  0
   57.8010   29.1850   44.9710 C   0  0  0  0  0  0  0  0  0  0  0  0
   56.3870   30.0190   44.3280 S   0  0  0  0  0  0  0  0  0  0  0  0
   55.1510   29.3440   44.8510 O   0  0  0  0  0  0  0  0  0  0  0  0
   56.3700   29.9480   42.8270 O   0  0  0  0  0  0  0  0  0  0  0  0
   56.3930   31.6800   44.8530 N   0  0  0  0  0  0  0  0  0  0  0  0
   57.5390   32.4150   44.3070 C   0  0  0  0  0  0  0  0  0  0  0  0
   58.2400   33.2180   45.3730 C   0  0  0  0  0  0  0  0  0  0  0  0
   59.1020   34.2700   45.0190 C   0  0  0  0  0  0  0  0  0  0  0  0
   59.7730   34.9950   46.0090 C   0  0  0  0  0  0  0  0  0  0  0  0
   59.5810   34.6840   47.3570 C   0  0  0  0  0  0  0  0  0  0  0  0
   58.7080   33.6540   47.7190 C   0  0  0  0  0  0  0  0  0  0  0  0
   58.0330   32.9290   46.7320 C   0  0  0  0  0  0  0  0  0  0  0  0
   57.9980   27.8330   44.6700 C   0  0  0  0  0  0  0  0  0  0  0  0
   59.0650   27.1370   45.2390 C   0  0  0  0  0  0  0  0  0  0  0  0
   59.9350   27.7800   46.1250 C   0  0  0  0  0  0  0  0  0  0  0  0
   60.9760   27.0790   46.6420 F   0  0  0  0  0  0  0  0  0  0  0  0
   61.5380   31.1540   46.0190 H   0  0  0  0  0  0  0  0  0  0  0  0
   60.4490   31.6668   49.5164 H   0  0  0  0  0  0  0  0  0  0  0  0
   61.5452   33.2553   51.0988 H   0  0  0  0  0  0  0  0  0  0  0  0
   64.6757   33.9906   48.2060 H   0  0  0  0  0  0  0  0  0  0  0  0
   63.5845   32.4059   46.6166 H   0  0  0  0  0  0  0  0  0  0  0  0
   58.5500   30.9113   46.0491 H   0  0  0  0  0  0  0  0  0  0  0  0
   58.2510   31.6966   43.8746 H   0  0  0  0  0  0  0  0  0  0  0  0
   57.1686   33.1102   43.5392 H   0  0  0  0  0  0  0  0  0  0  0  0
   59.2495   34.5242   43.9590 H   0  0  0  0  0  0  0  0  0  0  0  0
   60.4532   35.8117   45.7255 H   0  0  0  0  0  0  0  0  0  0  0  0
   60.1167   35.2495   48.1337 H   0  0  0  0  0  0  0  0  0  0  0  0
   58.5519   33.4136   48.7810 H   0  0  0  0  0  0  0  0  0  0  0  0
   57.3364   32.1283   47.0212 H   0  0  0  0  0  0  0  0  0  0  0  0
   57.3103   27.3177   43.9833 H   0  0  0  0  0  0  0  0  0  0  0  0
   59.2226   26.0773   44.9894 H   0  0  0  0  0  0  0  0  0  0  0  0
  1  2  2  0
  2  3  1  0
  3  4  1  0
  4  5  2  0
  5  6  1  0
  6  7  2  0
  7  8  1  0
  7  9  1  0
  9 10  2  0
  2 11  1  0
 11 12  2  0
 12 13  1  0
 13 14  1  0
 14 15  2  0
 14 16  2  0
 14 17  1  0
 17 18  1  0
 18 19  1  0
 19 20  2  0
 20 21  1  0
 21 22  2  0
 22 23  1  0
 23 24  2  0
 13 25  2  0
 25 26  1  0
 26 27  2  0
 27 28  1  0
 10  4  1  0
 27 11  1  0
 24 19  1  0
  3 29  1  0
  5 30  1  0
  6 31  1  0
  9 32  1  0
 10 33  1  0
 12 34  1  0
 18 35  1  0
 18 36  1  0
 20 37  1  0
 21 38  1  0
 22 39  1  0
 23 40  1  0
 24 41  1  0
 25 42  1  0
 26 43  1  0
M  CHG  1  17  -1
M  END
>  <UniqueID>  (74) 
64

>  <SMILES>  (74) 
O=C(Nc1ccc(F)cc1)c1cc(S(=O)(=O)[N-]Cc2ccccc2)ccc1F

>  <Energy>  (74) 
47.69527491460776

>  <Genealogy>  (74) 
O=C(Nc1ccc(F)cc1)c1cc(S(=O)(=O)[N-]Cc2ccccc2)ccc1F (protonated)
O=C(Nc1ccc(F)cc1)c1cc(S(=O)(=O)[N-]Cc2ccccc2)ccc1F (3D coordinates assigned)
O=C(Nc1ccc(F)cc1)c1cc(S(=O)(=O)[N-]Cc2ccccc2)ccc1F (optimized conformer: 47.69527491460776 kcal/mol)

>  <smiles>  (74) 
O=C(Nc1ccc(F)cc1)c1cc(S(=O)(=O)NCc2ccccc2)ccc1F

>  <score_type>  (74) 
oracle

>  <origin>  (74) 
adg

>  <m_score__min__energy>  (74) 
-10.52

>  <m_primary>  (74) 
energy

$$$$
74:0
     RDKit          3D

 35 37  0  0  0  0  0  0  0  0999 V2000
   57.7700   32.2800   42.6780 C   0  0  0  0  0  0  0  0  0  0  0  0
   57.6440   31.7910   44.3870 S   0  0  0  0  0  0  0  0  0  0  0  0
   56.2550   31.2820   44.6600 O   0  0  0  0  0  0  0  0  0  0  0  0
   58.6330   30.6860   44.6350 O   0  0  0  0  0  0  0  0  0  0  0  0
   58.0000   33.1490   45.4280 N   0  0  0  0  0  0  0  0  0  0  0  0
   58.0560   32.7310   46.8540 C   0  0  0  0  0  0  0  0  0  0  0  0
   59.4600   32.5990   47.3790 C   0  0  0  0  0  0  0  0  0  0  0  0
   60.3780   33.5130   47.0490 C   0  0  0  0  0  0  0  0  0  0  0  0
   61.7680   33.4010   47.5430 C   0  0  0  0  0  0  0  0  0  0  0  0
   62.8980   33.2170   46.7480 C   0  0  0  0  0  0  0  0  0  0  0  0
   64.0170   33.2210   47.5050 N   0  0  0  0  0  0  0  0  0  0  0  0
   63.6090   33.3980   48.7730 C   0  0  0  0  0  0  0  0  0  0  0  0
   64.4140   33.4510   49.9100 C   0  0  0  0  0  0  0  0  0  0  0  0
   63.7850   33.6120   51.1550 C   0  0  0  0  0  0  0  0  0  0  0  0
   62.3790   33.7000   51.2410 C   0  0  0  0  0  0  0  0  0  0  0  0
   61.7860   33.8290   52.4530 F   0  0  0  0  0  0  0  0  0  0  0  0
   61.5880   33.6420   50.0770 C   0  0  0  0  0  0  0  0  0  0  0  0
   60.2390   33.6680   50.1730 F   0  0  0  0  0  0  0  0  0  0  0  0
   62.2400   33.5090   48.8440 C   0  0  0  0  0  0  0  0  0  0  0  0
   59.9860   34.5620   46.0470 C   0  0  0  0  0  0  0  0  0  0  0  0
   59.1880   33.8850   44.9240 C   0  0  0  0  0  0  0  0  0  0  0  0
   58.0441   33.3437   42.6202 H   0  0  0  0  0  0  0  0  0  0  0  0
   58.5416   31.6749   42.1794 H   0  0  0  0  0  0  0  0  0  0  0  0
   56.8021   32.1232   42.1794 H   0  0  0  0  0  0  0  0  0  0  0  0
   57.5257   33.4811   47.4591 H   0  0  0  0  0  0  0  0  0  0  0  0
   57.5872   31.7382   46.9220 H   0  0  0  0  0  0  0  0  0  0  0  0
   59.7295   31.7549   48.0308 H   0  0  0  0  0  0  0  0  0  0  0  0
   62.8810   33.0866   45.6559 H   0  0  0  0  0  0  0  0  0  0  0  0
   64.9980   33.1070   47.1680 H   0  0  0  0  0  0  0  0  0  0  0  0
   65.5083   33.3692   49.8341 H   0  0  0  0  0  0  0  0  0  0  0  0
   64.3926   33.6700   52.0701 H   0  0  0  0  0  0  0  0  0  0  0  0
   59.3648   35.3278   46.5346 H   0  0  0  0  0  0  0  0  0  0  0  0
   60.8841   35.0449   45.6344 H   0  0  0  0  0  0  0  0  0  0  0  0
   58.8498   34.6575   44.2177 H   0  0  0  0  0  0  0  0  0  0  0  0
   59.8513   33.1532   44.4398 H   0  0  0  0  0  0  0  0  0  0  0  0
  1  2  1  0
  2  3  2  0
  2  4  2  0
  2  5  1  0
  5  6  1  0
  6  7  1  0
  7  8  2  0
  8  9  1  0
  9 10  2  0
 10 11  1  0
 11 12  1  0
 12 13  2  0
 13 14  1  0
 14 15  2  0
 15 16  1  0
 15 17  1  0
 17 18  1  0
 17 19  2  0
  8 20  1  0
 20 21  1  0
 21  5  1  0
 19  9  1  0
 19 12  1  0
  1 22  1  0
  1 23  1  0
  1 24  1  0
  6 25  1  0
  6 26  1  0
  7 27  1  0
 10 28  1  0
 11 29  1  0
 13 30  1  0
 14 31  1  0
 20 32  1  0
 20 33  1  0
 21 34  1  0
 21 35  1  0
M  END
>  <UniqueID>  (75) 
65

>  <SMILES>  (75) 
CS(=O)(=O)N1CC=C(c2c[nH]c3ccc(F)c(F)c23)CC1

>  <Energy>  (75) 
77.73266753661905

>  <Genealogy>  (75) 
CS(=O)(=O)N1CC=C(c2c[nH]c3ccc(F)c(F)c23)CC1 (3D coordinates assigned)
CS(=O)(=O)N1CC=C(c2c[nH]c3ccc(F)c(F)c23)CC1 (nonaromatic ring conformer: 77.73266753661905 kcal/mol)

>  <smiles>  (75) 
CS(=O)(=O)N1CC=C(c2c[nH]c3ccc(F)c(F)c23)CC1

>  <score_type>  (75) 
oracle

>  <origin>  (75) 
adg

>  <m_score__min__energy>  (75) 
-7.9199999999999999

>  <m_primary>  (75) 
energy

$$$$
75:0
     RDKit          3D

 40 43  0  0  0  0  0  0  0  0999 V2000
   54.2070   25.9610   45.7390 N   0  0  0  0  0  0  0  0  0  0  0  0
   55.1960   24.5470   45.8480 S   0  0  0  0  0  0  0  0  0  0  0  0
   54.7830   23.7620   47.0610 O   0  0  0  0  0  0  0  0  0  0  0  0
   55.0080   23.7050   44.6170 O   0  0  0  0  0  0  0  0  0  0  0  0
   56.8880   25.0130   45.9840 C   0  0  0  0  0  0  0  0  0  0  0  0
   57.8940   24.1690   45.4980 C   0  0  0  0  0  0  0  0  0  0  0  0
   59.2350   24.5390   45.6100 C   0  0  0  0  0  0  0  0  0  0  0  0
   59.5800   25.7620   46.1930 C   0  0  0  0  0  0  0  0  0  0  0  0
   58.5810   26.6390   46.6570 C   0  0  0  0  0  0  0  0  0  0  0  0
   58.9350   27.8980   47.2700 N   0  0  0  0  0  0  0  0  0  0  0  0
   58.4340   29.0130   46.4910 C   0  0  0  0  0  0  0  0  0  0  0  0
   57.3350   28.8130   45.6420 C   0  0  0  0  0  0  0  0  0  0  0  0
   56.8190   29.8840   44.9140 C   0  0  0  0  0  0  0  0  0  0  0  0
   55.8320   29.7080   44.1530 O   0  0  0  0  0  0  0  0  0  0  0  0
   57.3600   31.0900   45.0180 O   0  0  0  0  0  0  0  0  0  0  0  0
   58.4050   31.3510   45.8000 C   0  0  0  0  0  0  0  0  0  0  0  0
   58.9930   30.3160   46.5730 C   0  0  0  0  0  0  0  0  0  0  0  0
   60.1020   30.6170   47.3850 C   0  0  0  0  0  0  0  0  0  0  0  0
   60.6140   31.9140   47.4440 C   0  0  0  0  0  0  0  0  0  0  0  0
   60.0340   32.9410   46.6900 C   0  0  0  0  0  0  0  0  0  0  0  0
   60.5530   34.2430   46.7520 C   0  0  0  0  0  0  0  0  0  0  0  0
   59.9750   35.2670   45.9980 C   0  0  0  0  0  0  0  0  0  0  0  0
   58.8790   34.9990   45.1770 C   0  0  0  0  0  0  0  0  0  0  0  0
   58.3530   33.7060   45.1040 C   0  0  0  0  0  0  0  0  0  0  0  0
   58.9230   32.6620   45.8590 C   0  0  0  0  0  0  0  0  0  0  0  0
   57.2330   26.2420   46.5650 C   0  0  0  0  0  0  0  0  0  0  0  0
   54.7670   26.6900   45.2430 H   0  0  0  0  0  0  0  0  0  0  0  0
   57.6266   23.2117   45.0267 H   0  0  0  0  0  0  0  0  0  0  0  0
   60.0225   23.8667   45.2387 H   0  0  0  0  0  0  0  0  0  0  0  0
   60.6396   26.0411   46.2899 H   0  0  0  0  0  0  0  0  0  0  0  0
   59.9800   27.9400   47.3400 H   0  0  0  0  0  0  0  0  0  0  0  0
   58.5840   27.9660   48.2520 H   0  0  0  0  0  0  0  0  0  0  0  0
   56.8822   27.8147   45.5512 H   0  0  0  0  0  0  0  0  0  0  0  0
   60.5713   29.8202   47.9807 H   0  0  0  0  0  0  0  0  0  0  0  0
   61.4794   32.1308   48.0875 H   0  0  0  0  0  0  0  0  0  0  0  0
   61.4180   34.4582   47.3966 H   0  0  0  0  0  0  0  0  0  0  0  0
   60.3846   36.2865   46.0515 H   0  0  0  0  0  0  0  0  0  0  0  0
   58.4272   35.8085   44.5849 H   0  0  0  0  0  0  0  0  0  0  0  0
   57.4895   33.5025   44.4537 H   0  0  0  0  0  0  0  0  0  0  0  0
   56.4431   26.9022   46.9525 H   0  0  0  0  0  0  0  0  0  0  0  0
  1  2  1  0
  2  3  2  0
  2  4  2  0
  2  5  1  0
  5  6  2  0
  6  7  1  0
  7  8  2  0
  8  9  1  0
  9 10  1  0
 10 11  1  0
 11 12  2  0
 12 13  1  0
 13 14  2  0
 13 15  1  0
 15 16  1  0
 16 17  2  0
 17 18  1  0
 18 19  2  0
 19 20  1  0
 20 21  2  0
 21 22  1  0
 22 23  2  0
 23 24  1  0
 24 25  2  0
  9 26  2  0
 26  5  1  0
 17 11  1  0
 25 20  1  0
 25 16  1  0
  1 27  1  0
  6 28  1  0
  7 29  1  0
  8 30  1  0
 10 31  1  0
 10 32  1  0
 12 33  1  0
 18 34  1  0
 19 35  1  0
 21 36  1  0
 22 37  1  0
 23 38  1  0
 24 39  1  0
 26 40  1  0
M  CHG  2   1  -1  10   1
M  END
>  <UniqueID>  (76) 
66

>  <SMILES>  (76) 
[NH-]S(=O)(=O)c1cccc([NH2+]c2cc(=O)oc3c2ccc2ccccc23)c1

>  <Energy>  (76) 
57.84291700196358

>  <Genealogy>  (76) 
[NH-]S(=O)(=O)c1cccc([NH2+]c2cc(=O)oc3c2ccc2ccccc23)c1 (protonated)
[NH-]S(=O)(=O)c1cccc([NH2+]c2cc(=O)oc3c2ccc2ccccc23)c1 (3D coordinates assigned)
[NH-]S(=O)(=O)c1cccc([NH2+]c2cc(=O)oc3c2ccc2ccccc23)c1 (optimized conformer: 57.84291700196358 kcal/mol)

>  <smiles>  (76) 
NS(=O)(=O)c1cccc(Nc2cc(=O)oc3c2ccc2ccccc23)c1

>  <score_type>  (76) 
oracle

>  <origin>  (76) 
adg

>  <m_score__min__energy>  (76) 
-10.199999999999999

>  <m_primary>  (76) 
energy

$$$$
76:0
     RDKit          3D

 41 43  0  0  0  0  0  0  0  0999 V2000
   58.7190   29.0010   48.9700 O   0  0  0  0  0  0  0  0  0  0  0  0
   59.8890   28.8280   48.5300 C   0  0  0  0  0  0  0  0  0  0  0  0
   60.3120   27.5190   48.1350 N   0  0  0  0  0  0  0  0  0  0  0  0
   60.0470   26.9570   46.8170 C   0  0  0  0  0  0  0  0  0  0  0  0
   58.7510   27.4890   46.2910 C   0  0  0  0  0  0  0  0  0  0  0  0
   58.6840   28.7480   45.7810 N   0  0  0  0  0  0  0  0  0  0  0  0
   57.5230   29.2490   45.2870 C   0  0  0  0  0  0  0  0  0  0  0  0
   57.5260   30.5850   44.6770 C   0  0  0  0  0  0  0  0  0  0  0  0
   58.2340   30.7910   43.6570 O   0  0  0  0  0  0  0  0  0  0  0  0
   56.7010   31.6440   45.1810 N   0  0  0  0  0  0  0  0  0  0  0  0
   57.0110   33.0700   45.0830 C   0  0  0  0  0  0  0  0  0  0  0  0
   58.0250   33.4710   46.1220 C   0  0  0  0  0  0  0  0  0  0  0  0
   58.0830   32.7920   47.3500 C   0  0  0  0  0  0  0  0  0  0  0  0
   59.0350   33.1510   48.3100 C   0  0  0  0  0  0  0  0  0  0  0  0
   59.9380   34.1870   48.0480 C   0  0  0  0  0  0  0  0  0  0  0  0
   60.8640   34.5310   48.9780 F   0  0  0  0  0  0  0  0  0  0  0  0
   59.8870   34.8670   46.8280 C   0  0  0  0  0  0  0  0  0  0  0  0
   58.9310   34.5160   45.8710 C   0  0  0  0  0  0  0  0  0  0  0  0
   56.3590   28.4710   45.3360 C   0  0  0  0  0  0  0  0  0  0  0  0
   55.1460   28.9620   44.8620 O   0  0  0  0  0  0  0  0  0  0  0  0
   56.4410   27.1860   45.8820 C   0  0  0  0  0  0  0  0  0  0  0  0
   55.4180   26.4550   45.9450 O   0  0  0  0  0  0  0  0  0  0  0  0
   57.6290   26.7230   46.3460 N   0  0  0  0  0  0  0  0  0  0  0  0
   60.8230   29.9710   48.4270 C   0  0  0  0  0  0  0  0  0  0  0  0
   61.1060   30.5550   47.1810 C   0  0  0  0  0  0  0  0  0  0  0  0
   61.9830   31.6400   47.1100 C   0  0  0  0  0  0  0  0  0  0  0  0
   62.5630   32.1260   48.2390 N   0  0  0  0  0  0  0  0  0  0  0  0
   62.3140   31.5790   49.4580 C   0  0  0  0  0  0  0  0  0  0  0  0
   61.4450   30.4920   49.5750 C   0  0  0  0  0  0  0  0  0  0  0  0
   60.8610   27.2345   46.1312 H   0  0  0  0  0  0  0  0  0  0  0  0
   59.9854   25.8615   46.8947 H   0  0  0  0  0  0  0  0  0  0  0  0
   57.4164   33.2827   44.0828 H   0  0  0  0  0  0  0  0  0  0  0  0
   56.0877   33.6434   45.2526 H   0  0  0  0  0  0  0  0  0  0  0  0
   57.3769   31.9745   47.5578 H   0  0  0  0  0  0  0  0  0  0  0  0
   59.0737   32.6183   49.2717 H   0  0  0  0  0  0  0  0  0  0  0  0
   60.5997   35.6789   46.6210 H   0  0  0  0  0  0  0  0  0  0  0  0
   58.8873   35.0604   44.9162 H   0  0  0  0  0  0  0  0  0  0  0  0
   60.6396   30.1601   46.2664 H   0  0  0  0  0  0  0  0  0  0  0  0
   62.2049   32.1026   46.1370 H   0  0  0  0  0  0  0  0  0  0  0  0
   62.7981   31.9934   50.3546 H   0  0  0  0  0  0  0  0  0  0  0  0
   61.2482   30.0456   50.5609 H   0  0  0  0  0  0  0  0  0  0  0  0
  1  2  2  0
  2  3  1  0
  3  4  1  0
  4  5  1  0
  5  6  2  0
  6  7  1  0
  7  8  1  0
  8  9  2  0
  8 10  1  0
 10 11  1  0
 11 12  1  0
 12 13  2  0
 13 14  1  0
 14 15  2  0
 15 16  1  0
 15 17  1  0
 17 18  2  0
  7 19  2  0
 19 20  1  0
 19 21  1  0
 21 22  2  0
 21 23  1  0
  2 24  1  0
 24 25  2  0
 25 26  1  0
 26 27  2  0
 27 28  1  0
 28 29  2  0
 23  5  1  0
 29 24  1  0
 18 12  1  0
  4 30  1  0
  4 31  1  0
 11 32  1  0
 11 33  1  0
 13 34  1  0
 14 35  1  0
 17 36  1  0
 18 37  1  0
 25 38  1  0
 26 39  1  0
 28 40  1  0
 29 41  1  0
M  CHG  4   3  -1  10  -1  20  -1  23  -1
M  END
>  <UniqueID>  (77) 
67

>  <SMILES>  (77) 
O=C([N-]Cc1nc(C(=O)[N-]Cc2ccc(F)cc2)c([O-])c(=O)[n-]1)c1ccncc1

>  <Energy>  (77) 
44.36350099267645

>  <Genealogy>  (77) 
O=C([N-]Cc1nc(C(=O)[N-]Cc2ccc(F)cc2)c([O-])c(=O)[n-]1)c1ccncc1 (protonated)
O=C([N-]Cc1nc(C(=O)[N-]Cc2ccc(F)cc2)c([O-])c(=O)[n-]1)c1ccncc1 (3D coordinates assigned)
O=C([N-]Cc1nc(C(=O)[N-]Cc2ccc(F)cc2)c([O-])c(=O)[n-]1)c1ccncc1 (optimized conformer: 44.36350099267645 kcal/mol)

>  <smiles>  (77) 
O=C(NCc1nc(C(=O)NCc2ccc(F)cc2)c(O)c(=O)[nH]1)c1ccncc1

>  <score_type>  (77) 
oracle

>  <origin>  (77) 
adg

>  <m_score__min__energy>  (77) 
-16

>  <m_primary>  (77) 
energy

$$$$
77:0
     RDKit          3D

 35 37  0  0  0  0  0  0  0  0999 V2000
   57.8770   26.3200   44.7350 C   0  0  0  0  0  0  0  0  0  0  0  0
   56.8310   27.0850   45.9600 S   0  0  0  0  0  0  0  0  0  0  0  0
   57.6560   27.6350   47.0920 O   0  0  0  0  0  0  0  0  0  0  0  0
   55.8930   26.0450   46.5070 O   0  0  0  0  0  0  0  0  0  0  0  0
   55.8910   28.3520   45.2350 N   0  0  0  0  0  0  0  0  0  0  0  0
   56.3820   29.6300   44.8070 C   0  0  0  0  0  0  0  0  0  0  0  0
   55.5640   30.5850   44.7180 O   0  0  0  0  0  0  0  0  0  0  0  0
   57.8190   29.8710   44.4320 C   0  0  0  0  0  0  0  0  0  0  0  0
   58.3790   31.0320   45.1980 C   0  0  0  0  0  0  0  0  0  0  0  0
   58.9080   30.8440   46.4960 C   0  0  0  0  0  0  0  0  0  0  0  0
   59.4250   31.9500   47.1860 C   0  0  0  0  0  0  0  0  0  0  0  0
   60.1440   31.7500   48.8170 S   0  0  0  0  0  0  0  0  0  0  0  0
   61.7050   32.4500   48.3000 C   0  0  0  0  0  0  0  0  0  0  0  0
   62.5600   31.9140   47.3490 C   0  0  0  0  0  0  0  0  0  0  0  0
   63.7120   32.6830   47.1570 C   0  0  0  0  0  0  0  0  0  0  0  0
   63.7590   33.8250   47.9500 C   0  0  0  0  0  0  0  0  0  0  0  0
   62.3660   33.8750   48.8940 S   0  0  0  0  0  0  0  0  0  0  0  0
   59.3770   33.1600   46.5680 N   0  0  0  0  0  0  0  0  0  0  0  0
   59.8060   34.3280   47.0160 N   0  0  0  0  0  0  0  0  0  0  0  0
   59.5690   35.2500   46.0540 C   0  0  0  0  0  0  0  0  0  0  0  0
   58.9640   34.6400   44.9580 C   0  0  0  0  0  0  0  0  0  0  0  0
   58.8700   33.3200   45.3420 C   0  0  0  0  0  0  0  0  0  0  0  0
   58.3640   32.2800   44.6370 N   0  0  0  0  0  0  0  0  0  0  0  0
   58.6671   25.7421   45.2368 H   0  0  0  0  0  0  0  0  0  0  0  0
   57.2744   25.6480   44.1063 H   0  0  0  0  0  0  0  0  0  0  0  0
   58.3348   27.0979   44.1063 H   0  0  0  0  0  0  0  0  0  0  0  0
   58.4077   28.9702   44.6601 H   0  0  0  0  0  0  0  0  0  0  0  0
   57.8706   30.0986   43.3570 H   0  0  0  0  0  0  0  0  0  0  0  0
   58.9139   29.8454   46.9574 H   0  0  0  0  0  0  0  0  0  0  0  0
   62.3537   30.9817   46.8029 H   0  0  0  0  0  0  0  0  0  0  0  0
   64.5060   32.4107   46.4461 H   0  0  0  0  0  0  0  0  0  0  0  0
   64.5690   34.5692   47.9587 H   0  0  0  0  0  0  0  0  0  0  0  0
   60.2500   34.5010   47.9460 H   0  0  0  0  0  0  0  0  0  0  0  0
   59.8167   36.3193   46.1268 H   0  0  0  0  0  0  0  0  0  0  0  0
   58.6394   35.1008   44.0134 H   0  0  0  0  0  0  0  0  0  0  0  0
  1  2  1  0
  2  3  2  0
  2  4  2  0
  2  5  1  0
  5  6  1  0
  6  7  2  0
  6  8  1  0
  8  9  1  0
  9 10  1  0
 10 11  2  0
 11 12  1  0
 12 13  1  0
 13 14  2  0
 14 15  1  0
 15 16  2  0
 16 17  1  0
 11 18  1  0
 18 19  1  0
 19 20  2  0
 20 21  1  0
 21 22  2  0
 22 23  1  0
 23  9  2  0
 17 13  1  0
 22 18  1  0
  1 24  1  0
  1 25  1  0
  1 26  1  0
  8 27  1  0
  8 28  1  0
 10 29  1  0
 14 30  1  0
 15 31  1  0
 16 32  1  0
 19 33  1  0
 20 34  1  0
 21 35  1  0
M  CHG  2   5  -1  19   1
M  END
>  <UniqueID>  (78) 
68

>  <SMILES>  (78) 
CS(=O)(=O)[N-]C(=O)Cc1cc(Sc2cccs2)n2[nH+]ccc2n1

>  <Energy>  (78) 
93.54609965186984

>  <Genealogy>  (78) 
CS(=O)(=O)[N-]C(=O)Cc1cc(Sc2cccs2)n2[nH+]ccc2n1 (protonated)
CS(=O)(=O)[N-]C(=O)Cc1cc(Sc2cccs2)n2[nH+]ccc2n1 (3D coordinates assigned)
CS(=O)(=O)[N-]C(=O)Cc1cc(Sc2cccs2)n2[nH+]ccc2n1 (optimized conformer: 93.54609965186984 kcal/mol)

>  <smiles>  (78) 
CS(=O)(=O)NC(=O)Cc1cc(Sc2cccs2)n2nccc2n1

>  <score_type>  (78) 
oracle

>  <origin>  (78) 
adg

>  <m_score__min__energy>  (78) 
-9.1400000000000006

>  <m_primary>  (78) 
energy

$$$$
78:0
     RDKit          3D

 34 36  0  0  0  0  0  0  0  0999 V2000
   58.1230   32.3640   42.1240 C   0  0  0  0  0  0  0  0  0  0  0  0
   57.8160   32.2840   43.5570 N   0  0  0  0  0  0  0  0  0  0  0  0
   57.7210   33.5340   44.3280 C   0  0  0  0  0  0  0  0  0  0  0  0
   58.5600   33.4600   45.5780 C   0  0  0  0  0  0  0  0  0  0  0  0
   59.9060   33.6640   45.5370 N   0  0  0  0  0  0  0  0  0  0  0  0
   60.7600   33.5930   46.6170 C   0  0  0  0  0  0  0  0  0  0  0  0
   62.1280   33.8390   46.3840 C   0  0  0  0  0  0  0  0  0  0  0  0
   63.0590   33.7880   47.4200 C   0  0  0  0  0  0  0  0  0  0  0  0
   62.6500   33.4910   48.7150 C   0  0  0  0  0  0  0  0  0  0  0  0
   61.3060   33.2420   48.9840 C   0  0  0  0  0  0  0  0  0  0  0  0
   60.3360   33.2840   47.9580 C   0  0  0  0  0  0  0  0  0  0  0  0
   58.9930   33.0220   48.2830 C   0  0  0  0  0  0  0  0  0  0  0  0
   58.6260   32.7500   49.4580 O   0  0  0  0  0  0  0  0  0  0  0  0
   57.8510   33.0760   47.0540 S   0  0  0  0  0  0  0  0  0  0  0  0
   57.5510   30.9960   44.1690 C   0  0  0  0  0  0  0  0  0  0  0  0
   58.5970   30.2180   44.6980 C   0  0  0  0  0  0  0  0  0  0  0  0
   58.3300   28.9830   45.2930 C   0  0  0  0  0  0  0  0  0  0  0  0
   57.0150   28.5290   45.3630 C   0  0  0  0  0  0  0  0  0  0  0  0
   56.0080   29.2860   44.8570 N   0  0  0  0  0  0  0  0  0  0  0  0
   56.2390   30.4910   44.2710 C   0  0  0  0  0  0  0  0  0  0  0  0
   59.1795   32.6393   41.9902 H   0  0  0  0  0  0  0  0  0  0  0  0
   57.9362   31.3872   41.6539 H   0  0  0  0  0  0  0  0  0  0  0  0
   57.4833   33.1254   41.6539 H   0  0  0  0  0  0  0  0  0  0  0  0
   58.0751   34.3689   43.7055 H   0  0  0  0  0  0  0  0  0  0  0  0
   56.6713   33.6892   44.6179 H   0  0  0  0  0  0  0  0  0  0  0  0
   60.3170   33.8920   44.6030 H   0  0  0  0  0  0  0  0  0  0  0  0
   62.4675   34.0758   45.3649 H   0  0  0  0  0  0  0  0  0  0  0  0
   64.1213   33.9835   47.2121 H   0  0  0  0  0  0  0  0  0  0  0  0
   63.3890   33.4525   49.5289 H   0  0  0  0  0  0  0  0  0  0  0  0
   60.9948   33.0087   50.0129 H   0  0  0  0  0  0  0  0  0  0  0  0
   59.6325   30.5850   44.6426 H   0  0  0  0  0  0  0  0  0  0  0  0
   59.1501   28.3748   45.7023 H   0  0  0  0  0  0  0  0  0  0  0  0
   56.7925   27.5573   45.8282 H   0  0  0  0  0  0  0  0  0  0  0  0
   55.3962   31.0758   43.8738 H   0  0  0  0  0  0  0  0  0  0  0  0
  1  2  1  0
  2  3  1  0
  3  4  1  0
  4  5  2  0
  5  6  1  0
  6  7  2  0
  7  8  1  0
  8  9  2  0
  9 10  1  0
 10 11  2  0
 11 12  1  0
 12 13  2  0
 12 14  1  0
  2 15  1  0
 15 16  2  0
 16 17  1  0
 17 18  2  0
 18 19  1  0
 19 20  2  0
 14  4  1  0
 20 15  1  0
 11  6  1  0
  1 21  1  0
  1 22  1  0
  1 23  1  0
  3 24  1  0
  3 25  1  0
  5 26  1  0
  7 27  1  0
  8 28  1  0
  9 29  1  0
 10 30  1  0
 16 31  1  0
 17 32  1  0
 18 33  1  0
 20 34  1  0
M  CHG  1   5   1
M  END
>  <UniqueID>  (79) 
69

>  <SMILES>  (79) 
CN(Cc1[nH+]c2ccccc2c(=O)s1)c1cccnc1

>  <Energy>  (79) 
48.77378804831615

>  <Genealogy>  (79) 
CN(Cc1[nH+]c2ccccc2c(=O)s1)c1cccnc1 (protonated)
CN(Cc1[nH+]c2ccccc2c(=O)s1)c1cccnc1 (3D coordinates assigned)
CN(Cc1[nH+]c2ccccc2c(=O)s1)c1cccnc1 (optimized conformer: 48.77378804831615 kcal/mol)

>  <smiles>  (79) 
CN(Cc1nc2ccccc2c(=O)s1)c1cccnc1

>  <score_type>  (79) 
oracle

>  <origin>  (79) 
adg

>  <m_score__min__energy>  (79) 
-5.7300000000000004

>  <m_primary>  (79) 
energy

$$$$
79:0
     RDKit          3D

 45 47  0  0  0  0  0  0  0  0999 V2000
   56.8400   20.7210   42.6340 C   0  0  0  0  0  0  0  0  0  0  0  0
   55.9650   21.4760   43.4650 O   0  0  0  0  0  0  0  0  0  0  0  0
   56.3850   22.4720   44.3600 C   0  0  0  0  0  0  0  0  0  0  0  0
   57.6390   23.0590   44.1620 C   0  0  0  0  0  0  0  0  0  0  0  0
   58.1020   24.0550   45.0250 C   0  0  0  0  0  0  0  0  0  0  0  0
   57.3110   24.4830   46.1010 C   0  0  0  0  0  0  0  0  0  0  0  0
   57.8180   25.5300   47.0560 C   0  0  0  0  0  0  0  0  0  0  0  0
   57.8470   26.8440   46.4030 N   0  0  0  0  0  0  0  0  0  0  0  0
   59.1330   27.4780   46.0770 C   0  0  0  0  0  0  0  0  0  0  0  0
   59.0530   28.9950   46.2780 C   0  0  0  0  0  0  0  0  0  0  0  0
   57.9350   29.5660   45.5130 N   0  0  0  0  0  0  0  0  0  0  0  0
   58.0230   30.9260   45.0580 C   0  0  0  0  0  0  0  0  0  0  0  0
   58.0220   31.1930   43.6820 C   0  0  0  0  0  0  0  0  0  0  0  0
   58.1070   32.5080   43.2190 C   0  0  0  0  0  0  0  0  0  0  0  0
   58.1000   32.7600   41.8870 F   0  0  0  0  0  0  0  0  0  0  0  0
   58.2000   33.5640   44.1280 C   0  0  0  0  0  0  0  0  0  0  0  0
   58.2120   33.3080   45.5020 C   0  0  0  0  0  0  0  0  0  0  0  0
   58.1300   31.9850   45.9810 C   0  0  0  0  0  0  0  0  0  0  0  0
   58.1610   31.6870   47.3520 O   0  0  0  0  0  0  0  0  0  0  0  0
   58.8700   32.4450   48.3270 C   0  0  0  0  0  0  0  0  0  0  0  0
   56.7000   28.8340   45.4080 C   0  0  0  0  0  0  0  0  0  0  0  0
   55.6860   29.3530   44.8670 O   0  0  0  0  0  0  0  0  0  0  0  0
   56.6400   27.4600   45.9220 C   0  0  0  0  0  0  0  0  0  0  0  0
   55.5420   26.8420   45.9500 O   0  0  0  0  0  0  0  0  0  0  0  0
   56.0550   23.8920   46.3080 C   0  0  0  0  0  0  0  0  0  0  0  0
   55.5920   22.8950   45.4430 C   0  0  0  0  0  0  0  0  0  0  0  0
   57.5238   20.1310   43.2620 H   0  0  0  0  0  0  0  0  0  0  0  0
   56.2495   20.0443   41.9989 H   0  0  0  0  0  0  0  0  0  0  0  0
   57.4229   21.4043   41.9989 H   0  0  0  0  0  0  0  0  0  0  0  0
   58.2663   22.7334   43.3191 H   0  0  0  0  0  0  0  0  0  0  0  0
   59.0917   24.5057   44.8598 H   0  0  0  0  0  0  0  0  0  0  0  0
   57.1537   25.5746   47.9316 H   0  0  0  0  0  0  0  0  0  0  0  0
   58.8381   25.2639   47.3699 H   0  0  0  0  0  0  0  0  0  0  0  0
   59.9150   27.0673   46.7326 H   0  0  0  0  0  0  0  0  0  0  0  0
   59.3728   27.2721   45.0234 H   0  0  0  0  0  0  0  0  0  0  0  0
   58.9053   29.2096   47.3467 H   0  0  0  0  0  0  0  0  0  0  0  0
   59.9904   29.4472   45.9220 H   0  0  0  0  0  0  0  0  0  0  0  0
   57.9540   30.3630   42.9634 H   0  0  0  0  0  0  0  0  0  0  0  0
   58.2639   34.5993   43.7620 H   0  0  0  0  0  0  0  0  0  0  0  0
   58.2859   34.1437   46.2134 H   0  0  0  0  0  0  0  0  0  0  0  0
   58.5675   32.1216   49.3339 H   0  0  0  0  0  0  0  0  0  0  0  0
   59.9510   32.2859   48.2001 H   0  0  0  0  0  0  0  0  0  0  0  0
   58.6392   33.5130   48.2001 H   0  0  0  0  0  0  0  0  0  0  0  0
   55.4314   24.2145   47.1549 H   0  0  0  0  0  0  0  0  0  0  0  0
   54.6045   22.4399   45.6098 H   0  0  0  0  0  0  0  0  0  0  0  0
  1  2  1  0
  2  3  1  0
  3  4  2  0
  4  5  1  0
  5  6  2  0
  6  7  1  0
  7  8  1  0
  8  9  1  0
  9 10  1  0
 10 11  1  0
 11 12  1  0
 12 13  2  0
 13 14  1  0
 14 15  1  0
 14 16  2  0
 16 17  1  0
 17 18  2  0
 18 19  1  0
 19 20  1  0
 11 21  1  0
 21 22  2  0
 21 23  1  0
 23 24  2  0
  6 25  1  0
 25 26  2  0
 26  3  1  0
 23  8  1  0
 18 12  1  0
  1 27  1  0
  1 28  1  0
  1 29  1  0
  4 30  1  0
  5 31  1  0
  7 32  1  0
  7 33  1  0
  9 34  1  0
  9 35  1  0
 10 36  1  0
 10 37  1  0
 13 38  1  0
 16 39  1  0
 17 40  1  0
 20 41  1  0
 20 42  1  0
 20 43  1  0
 25 44  1  0
 26 45  1  0
M  END
>  <UniqueID>  (80) 
70

>  <SMILES>  (80) 
COc1ccc(CN2CCN(c3cc(F)ccc3OC)C(=O)C2=O)cc1

>  <Energy>  (80) 
49.51766795447972

>  <Genealogy>  (80) 
COc1ccc(CN2CCN(c3cc(F)ccc3OC)C(=O)C2=O)cc1 (3D coordinates assigned)
COc1ccc(CN2CCN(c3cc(F)ccc3OC)C(=O)C2=O)cc1 (nonaromatic ring conformer: 49.51766795447972 kcal/mol)

>  <smiles>  (80) 
COc1ccc(CN2CCN(c3cc(F)ccc3OC)C(=O)C2=O)cc1

>  <score_type>  (80) 
oracle

>  <origin>  (80) 
adg

>  <m_score__min__energy>  (80) 
-7.3200000000000003

>  <m_primary>  (80) 
energy

$$$$
80:0
     RDKit          3D

 30 32  0  0  0  0  0  0  0  0999 V2000
   56.9830   24.8460   46.8280 N   0  0  0  0  0  0  0  0  0  0  0  0
   56.4780   26.1030   46.3730 C   0  0  0  0  0  0  0  0  0  0  0  0
   55.2780   26.1790   45.9990 O   0  0  0  0  0  0  0  0  0  0  0  0
   57.3390   27.3050   46.3750 C   0  0  0  0  0  0  0  0  0  0  0  0
   58.8400   27.3810   47.1640 S   0  0  0  0  0  0  0  0  0  0  0  0
   59.1250   28.9870   46.7920 C   0  0  0  0  0  0  0  0  0  0  0  0
   60.2130   29.7170   47.1360 N   0  0  0  0  0  0  0  0  0  0  0  0
   60.3100   31.0250   46.7510 C   0  0  0  0  0  0  0  0  0  0  0  0
   61.5080   31.8120   47.1410 C   0  0  0  0  0  0  0  0  0  0  0  0
   62.5290   31.2270   47.9160 C   0  0  0  0  0  0  0  0  0  0  0  0
   63.6610   31.9650   48.2720 C   0  0  0  0  0  0  0  0  0  0  0  0
   63.7920   33.2910   47.8580 C   0  0  0  0  0  0  0  0  0  0  0  0
   62.7920   33.8820   47.0840 C   0  0  0  0  0  0  0  0  0  0  0  0
   61.6560   33.1510   46.7230 C   0  0  0  0  0  0  0  0  0  0  0  0
   60.6910   33.7620   45.9880 F   0  0  0  0  0  0  0  0  0  0  0  0
   59.2700   31.6020   45.9830 C   0  0  0  0  0  0  0  0  0  0  0  0
   58.1480   30.8380   45.6300 C   0  0  0  0  0  0  0  0  0  0  0  0
   58.0800   29.5070   46.0530 C   0  0  0  0  0  0  0  0  0  0  0  0
   57.0630   28.5650   45.8040 C   0  0  0  0  0  0  0  0  0  0  0  0
   55.9020   28.8540   45.0130 N   0  0  0  0  0  0  0  0  0  0  0  0
   56.3590   24.0090   46.8500 H   0  0  0  0  0  0  0  0  0  0  0  0
   57.9780   24.7310   47.1180 H   0  0  0  0  0  0  0  0  0  0  0  0
   62.4343   30.1811   48.2434 H   0  0  0  0  0  0  0  0  0  0  0  0
   64.4507   31.4995   48.8800 H   0  0  0  0  0  0  0  0  0  0  0  0
   64.6830   33.8704   48.1415 H   0  0  0  0  0  0  0  0  0  0  0  0
   62.8980   34.9268   46.7568 H   0  0  0  0  0  0  0  0  0  0  0  0
   59.3421   32.6518   45.6624 H   0  0  0  0  0  0  0  0  0  0  0  0
   57.3366   31.2777   45.0315 H   0  0  0  0  0  0  0  0  0  0  0  0
   55.1490   28.1450   44.8800 H   0  0  0  0  0  0  0  0  0  0  0  0
   55.7370   29.7980   44.6060 H   0  0  0  0  0  0  0  0  0  0  0  0
  1  2  1  0
  2  3  2  0
  2  4  1  0
  4  5  1  0
  5  6  1  0
  6  7  2  0
  7  8  1  0
  8  9  1  0
  9 10  2  0
 10 11  1  0
 11 12  2  0
 12 13  1  0
 13 14  2  0
 14 15  1  0
  8 16  2  0
 16 17  1  0
 17 18  2  0
 18 19  1  0
 19 20  1  0
 19  4  2  0
 18  6  1  0
 14  9  1  0
  1 21  1  0
  1 22  1  0
 10 23  1  0
 11 24  1  0
 12 25  1  0
 13 26  1  0
 16 27  1  0
 17 28  1  0
 20 29  1  0
 20 30  1  0
M  END
>  <UniqueID>  (81) 
71

>  <SMILES>  (81) 
NC(=O)c1sc2nc(-c3ccccc3F)ccc2c1N

>  <Energy>  (81) 
71.84028601212734

>  <Genealogy>  (81) 
NC(=O)c1sc2nc(-c3ccccc3F)ccc2c1N (3D coordinates assigned)
NC(=O)c1sc2nc(-c3ccccc3F)ccc2c1N (optimized conformer: 71.84028601212734 kcal/mol)

>  <smiles>  (81) 
NC(=O)c1sc2nc(-c3ccccc3F)ccc2c1N

>  <score_type>  (81) 
oracle

>  <origin>  (81) 
adg

>  <m_score__min__energy>  (81) 
-6.8499999999999996

>  <m_primary>  (81) 
energy

$$$$
81:0
     RDKit          3D

 49 52  0  0  0  0  0  0  0  0999 V2000
   60.6730   30.8810   46.8090 O   0  0  0  0  0  0  0  0  0  0  0  0
   59.9790   31.1850   47.8180 C   0  0  0  0  0  0  0  0  0  0  0  0
   58.5270   31.5520   47.6000 C   0  0  0  0  0  0  0  0  0  0  0  0
   58.1000   31.4040   46.1850 N   0  0  0  0  0  0  0  0  0  0  0  0
   57.8000   32.5210   45.4280 C   0  0  0  0  0  0  0  0  0  0  0  0
   57.7810   34.1930   46.1160 S   0  0  0  0  0  0  0  0  0  0  0  0
   59.4650   34.5760   45.5360 C   0  0  0  0  0  0  0  0  0  0  0  0
   60.4390   34.3440   46.6530 C   0  0  0  0  0  0  0  0  0  0  0  0
   60.0520   34.5710   47.9850 C   0  0  0  0  0  0  0  0  0  0  0  0
   60.9470   34.3200   49.0310 C   0  0  0  0  0  0  0  0  0  0  0  0
   62.2290   33.8380   48.7550 C   0  0  0  0  0  0  0  0  0  0  0  0
   63.0950   33.6020   49.7710 F   0  0  0  0  0  0  0  0  0  0  0  0
   62.6170   33.6000   47.4330 C   0  0  0  0  0  0  0  0  0  0  0  0
   61.7240   33.8430   46.3850 C   0  0  0  0  0  0  0  0  0  0  0  0
   57.5020   32.4010   44.1070 N   0  0  0  0  0  0  0  0  0  0  0  0
   57.4560   31.1990   43.4890 C   0  0  0  0  0  0  0  0  0  0  0  0
   57.2010   31.1440   42.2560 O   0  0  0  0  0  0  0  0  0  0  0  0
   57.6730   30.0320   44.2280 C   0  0  0  0  0  0  0  0  0  0  0  0
   57.5840   28.7630   43.6230 C   0  0  0  0  0  0  0  0  0  0  0  0
   57.7600   27.6080   44.3810 C   0  0  0  0  0  0  0  0  0  0  0  0
   58.0120   27.7030   45.7440 C   0  0  0  0  0  0  0  0  0  0  0  0
   58.1110   28.9540   46.3590 C   0  0  0  0  0  0  0  0  0  0  0  0
   57.9700   30.1490   45.6100 C   0  0  0  0  0  0  0  0  0  0  0  0
   60.5710   31.0830   49.1280 N   0  0  0  0  0  0  0  0  0  0  0  0
   59.9150   31.4390   50.3760 C   0  0  0  0  0  0  0  0  0  0  0  0
   60.9490   31.2000   51.4690 C   0  0  0  0  0  0  0  0  0  0  0  0
   62.0450   30.3500   50.8380 C   0  0  0  0  0  0  0  0  0  0  0  0
   61.9000   30.5310   49.3340 C   0  0  0  0  0  0  0  0  0  0  0  0
   57.9018   30.8980   48.2256 H   0  0  0  0  0  0  0  0  0  0  0  0
   58.4098   32.6116   47.8713 H   0  0  0  0  0  0  0  0  0  0  0  0
   59.7181   33.9245   44.6866 H   0  0  0  0  0  0  0  0  0  0  0  0
   59.5144   35.6274   45.2165 H   0  0  0  0  0  0  0  0  0  0  0  0
   59.0422   34.9472   48.2059 H   0  0  0  0  0  0  0  0  0  0  0  0
   60.6409   34.5024   50.0717 H   0  0  0  0  0  0  0  0  0  0  0  0
   63.6268   33.2208   47.2170 H   0  0  0  0  0  0  0  0  0  0  0  0
   62.0284   33.6413   45.3474 H   0  0  0  0  0  0  0  0  0  0  0  0
   57.3030   33.2640   43.5490 H   0  0  0  0  0  0  0  0  0  0  0  0
   57.3744   28.6839   42.5461 H   0  0  0  0  0  0  0  0  0  0  0  0
   57.6995   26.6204   43.9005 H   0  0  0  0  0  0  0  0  0  0  0  0
   58.1343   26.7882   46.3425 H   0  0  0  0  0  0  0  0  0  0  0  0
   58.3013   29.0121   47.4409 H   0  0  0  0  0  0  0  0  0  0  0  0
   59.6102   32.4958   50.3610 H   0  0  0  0  0  0  0  0  0  0  0  0
   59.0054   30.8427   50.5407 H   0  0  0  0  0  0  0  0  0  0  0  0
   61.3626   32.1574   51.8187 H   0  0  0  0  0  0  0  0  0  0  0  0
   60.5031   30.6975   52.3400 H   0  0  0  0  0  0  0  0  0  0  0  0
   63.0353   30.6940   51.1710 H   0  0  0  0  0  0  0  0  0  0  0  0
   61.9534   29.2929   51.1281 H   0  0  0  0  0  0  0  0  0  0  0  0
   62.6657   31.2245   48.9560 H   0  0  0  0  0  0  0  0  0  0  0  0
   62.0311   29.5799   48.7972 H   0  0  0  0  0  0  0  0  0  0  0  0
  1  2  2  0
  2  3  1  0
  3  4  1  0
  4  5  1  0
  5  6  1  0
  6  7  1  0
  7  8  1  0
  8  9  2  0
  9 10  1  0
 10 11  2  0
 11 12  1  0
 11 13  1  0
 13 14  2  0
  5 15  2  0
 15 16  1  0
 16 17  2  0
 16 18  1  0
 18 19  2  0
 19 20  1  0
 20 21  2  0
 21 22  1  0
 22 23  2  0
  2 24  1  0
 24 25  1  0
 25 26  1  0
 26 27  1  0
 27 28  1  0
 23  4  1  0
 28 24  1  0
 14  8  1  0
 23 18  1  0
  3 29  1  0
  3 30  1  0
  7 31  1  0
  7 32  1  0
  9 33  1  0
 10 34  1  0
 13 35  1  0
 14 36  1  0
 15 37  1  0
 19 38  1  0
 20 39  1  0
 21 40  1  0
 22 41  1  0
 25 42  1  0
 25 43  1  0
 26 44  1  0
 26 45  1  0
 27 46  1  0
 27 47  1  0
 28 48  1  0
 28 49  1  0
M  CHG  1  15   1
M  END
>  <UniqueID>  (82) 
72

>  <SMILES>  (82) 
O=C(Cn1c(SCc2ccc(F)cc2)[nH+]c(=O)c2ccccc21)N1CCCC1

>  <Energy>  (82) 
60.34965842092496

>  <Genealogy>  (82) 
O=C(Cn1c(SCc2ccc(F)cc2)[nH+]c(=O)c2ccccc21)N1CCCC1 (protonated)
O=C(Cn1c(SCc2ccc(F)cc2)[nH+]c(=O)c2ccccc21)N1CCCC1 (3D coordinates assigned)
O=C(Cn1c(SCc2ccc(F)cc2)[nH+]c(=O)c2ccccc21)N1CCCC1 (nonaromatic ring conformer: 60.34965842092496 kcal/mol)

>  <smiles>  (82) 
O=C(Cn1c(SCc2ccc(F)cc2)nc(=O)c2ccccc21)N1CCCC1

>  <score_type>  (82) 
oracle

>  <origin>  (82) 
adg

>  <m_score__min__energy>  (82) 
-6.8200000000000003

>  <m_primary>  (82) 
energy

$$$$
82:0
     RDKit          3D

 34 36  0  0  0  0  0  0  0  0999 V2000
   57.3880   29.6260   50.5030 H   0  0  0  0  0  0  0  0  0  0  0  0
   57.7060   30.1510   51.2830 O   0  0  0  0  0  0  0  0  0  0  0  0
   57.7310   31.4940   50.8820 C   0  0  0  0  0  0  0  0  0  0  0  0
   57.8591   32.1297   51.7705 H   0  0  0  0  0  0  0  0  0  0  0  0
   56.7827   31.7188   50.3720 H   0  0  0  0  0  0  0  0  0  0  0  0
   58.8880   31.7710   49.8960 C   0  0  0  0  0  0  0  0  0  0  0  0
   59.4532   32.6385   50.2674 H   0  0  0  0  0  0  0  0  0  0  0  0
   58.4223   31.9425   48.9143 H   0  0  0  0  0  0  0  0  0  0  0  0
   59.8380   30.6450   49.7150 N   0  0  1  0  0  0  0  0  0  0  0  0
   59.9900   30.1740   50.6390 H   0  0  0  0  0  0  0  0  0  0  0  0
   59.3340   29.6550   48.8080 C   0  0  0  0  0  0  0  0  0  0  0  0
   58.3030   28.9830   49.0840 O   0  0  0  0  0  0  0  0  0  0  0  0
   60.1160   29.4500   47.5880 C   0  0  0  0  0  0  0  0  0  0  0  0
   59.8310   28.5910   46.6010 C   0  0  0  0  0  0  0  0  0  0  0  0
   60.6603   28.1245   46.0491 H   0  0  0  0  0  0  0  0  0  0  0  0
   58.4780   28.2550   46.2350 N   0  0  0  0  0  0  0  0  0  0  0  0
   57.9470   27.0780   46.6980 C   0  0  0  0  0  0  0  0  0  0  0  0
   58.6320   26.3090   47.4300 O   0  0  0  0  0  0  0  0  0  0  0  0
   56.6330   26.7280   46.3670 C   0  0  0  0  0  0  0  0  0  0  0  0
   56.1280   25.6540   46.7900 O   0  0  0  0  0  0  0  0  0  0  0  0
   55.8940   27.5510   45.5830 N   0  0  0  0  0  0  0  0  0  0  0  0
   56.4030   28.7120   45.1020 C   0  0  0  0  0  0  0  0  0  0  0  0
   55.6130   29.5360   44.2950 C   0  0  0  0  0  0  0  0  0  0  0  0
   54.5803   29.2425   44.0556 H   0  0  0  0  0  0  0  0  0  0  0  0
   56.1320   30.7310   43.7920 C   0  0  0  0  0  0  0  0  0  0  0  0
   55.5052   31.3794   43.1622 H   0  0  0  0  0  0  0  0  0  0  0  0
   57.4460   31.1050   44.0870 C   0  0  0  0  0  0  0  0  0  0  0  0
   58.0920   32.6060   43.4530 Cl  0  0  0  0  0  0  0  0  0  0  0  0
   58.2460   30.2840   44.8880 C   0  0  0  0  0  0  0  0  0  0  0  0
   59.2831   30.5786   45.1065 H   0  0  0  0  0  0  0  0  0  0  0  0
   57.7330   29.0790   45.4190 C   0  0  0  0  0  0  0  0  0  0  0  0
   61.5390   30.5110   47.5120 S   0  0  0  0  0  0  0  0  0  0  0  0
   61.1090   31.0720   49.1670 C   0  0  0  0  0  0  0  0  0  0  0  0
   62.1360   31.6280   50.0090 S   0  0  0  0  0  0  0  0  0  0  0  0
  1  2  1  0
  2  3  1  0
  3  4  1  0
  3  5  1  0
  3  6  1  0
  6  7  1  0
  6  8  1  0
  6  9  1  0
  9 10  1  1
  9 11  1  0
 11 12  2  0
 11 13  1  0
 13 14  2  0
 14 15  1  0
 14 16  1  0
 16 17  1  0
 17 18  2  0
 17 19  1  0
 19 20  2  0
 19 21  1  0
 21 22  1  0
 22 23  2  0
 23 24  1  0
 23 25  1  0
 25 26  1  0
 25 27  2  0
 27 28  1  0
 27 29  1  0
 29 30  1  0
 29 31  2  0
 13 32  1  0
 32 33  1  0
 33 34  2  0
 33  9  1  0
 31 16  1  0
 31 22  1  0
M  CHG  2   9   1  21  -1
M  END
>  <UniqueID>  (83) 
73

>  <SMILES>  (83) 
O=C1/C(=C\n2c(=O)c(=O)[n-]c3ccc(Cl)cc32)SC(=S)[N@H+]1CCO

>  <Energy>  (83) 
69.75875001786088

>  <Genealogy>  (83) 
O=C1C(=Cn2c(=O)c(=O)[n-]c3ccc(Cl)cc32)SC(=S)[NH+]1CCO (protonated)
O=C1C(=Cn2c(=O)c(=O)[n-]c3ccc(Cl)cc32)SC(=S)[N@H+]1CCO (chirality)
O=C1/C(=C\n2c(=O)c(=O)[n-]c3ccc(Cl)cc32)SC(=S)[N@H+]1CCO (cis-trans isomerization)
O=C1/C(=C\n2c(=O)c(=O)[n-]c3ccc(Cl)cc32)SC(=S)[N@H+]1CCO (3D coordinates assigned)
O=C1/C(=C\n2c(=O)c(=O)[n-]c3ccc(Cl)cc32)SC(=S)[N@H+]1CCO (nonaromatic ring conformer: 69.75875001786088 kcal/mol)

>  <smiles>  (83) 
O=C1C(=Cn2c(=O)c(=O)[nH]c3ccc(Cl)cc32)SC(=S)N1CCO

>  <score_type>  (83) 
oracle

>  <origin>  (83) 
adg

>  <m_score__min__energy>  (83) 
-7.8499999999999996

>  <m_primary>  (83) 
energy

$$$$
83:0
     RDKit          3D

 36 38  0  0  0  0  0  0  0  0999 V2000
   65.2580   33.0220   50.1010 C   0  0  0  0  0  0  0  0  0  0  0  0
   64.5190   32.4210   49.0420 O   0  0  0  0  0  0  0  0  0  0  0  0
   63.3960   33.0020   48.4310 C   0  0  0  0  0  0  0  0  0  0  0  0
   63.4500   33.2650   47.0580 C   0  0  0  0  0  0  0  0  0  0  0  0
   62.3580   33.8420   46.4020 C   0  0  0  0  0  0  0  0  0  0  0  0
   61.1900   34.1550   47.1130 C   0  0  0  0  0  0  0  0  0  0  0  0
   60.0280   34.8080   46.4150 C   0  0  0  0  0  0  0  0  0  0  0  0
   58.7080   34.4080   47.0780 C   0  0  0  0  0  0  0  0  0  0  0  0
   58.1630   33.2130   46.4430 N   0  0  0  0  0  0  0  0  0  0  0  0
   57.5430   33.1460   45.1560 C   0  0  0  0  0  0  0  0  0  0  0  0
   57.1410   34.1500   44.5100 O   0  0  0  0  0  0  0  0  0  0  0  0
   57.4810   31.7620   44.7000 C   0  0  0  0  0  0  0  0  0  0  0  0
   56.9670   31.2100   43.5280 C   0  0  0  0  0  0  0  0  0  0  0  0
   57.0660   29.8180   43.3550 C   0  0  0  0  0  0  0  0  0  0  0  0
   57.6740   29.0150   44.3440 C   0  0  0  0  0  0  0  0  0  0  0  0
   58.1890   29.5970   45.5170 C   0  0  0  0  0  0  0  0  0  0  0  0
   58.0750   30.9780   45.6670 C   0  0  0  0  0  0  0  0  0  0  0  0
   58.5180   31.8590   46.7410 C   0  0  0  0  0  0  0  0  0  0  0  0
   59.1450   31.5020   47.7720 O   0  0  0  0  0  0  0  0  0  0  0  0
   61.1380   33.9040   48.4930 C   0  0  0  0  0  0  0  0  0  0  0  0
   62.2290   33.3270   49.1480 C   0  0  0  0  0  0  0  0  0  0  0  0
   64.8500   32.6902   51.0672 H   0  0  0  0  0  0  0  0  0  0  0  0
   66.3140   32.7232   50.0268 H   0  0  0  0  0  0  0  0  0  0  0  0
   65.1807   34.1168   50.0268 H   0  0  0  0  0  0  0  0  0  0  0  0
   64.3585   33.0160   46.4900 H   0  0  0  0  0  0  0  0  0  0  0  0
   62.4152   34.0513   45.3236 H   0  0  0  0  0  0  0  0  0  0  0  0
   60.1424   35.9008   46.4675 H   0  0  0  0  0  0  0  0  0  0  0  0
   60.0127   34.4771   45.3661 H   0  0  0  0  0  0  0  0  0  0  0  0
   58.8850   34.2035   48.1442 H   0  0  0  0  0  0  0  0  0  0  0  0
   57.9879   35.2320   46.9663 H   0  0  0  0  0  0  0  0  0  0  0  0
   56.4980   31.8442   42.7613 H   0  0  0  0  0  0  0  0  0  0  0  0
   56.6668   29.3515   42.4423 H   0  0  0  0  0  0  0  0  0  0  0  0
   57.7456   27.9273   44.1967 H   0  0  0  0  0  0  0  0  0  0  0  0
   58.6673   28.9805   46.2924 H   0  0  0  0  0  0  0  0  0  0  0  0
   60.2330   34.1631   49.0622 H   0  0  0  0  0  0  0  0  0  0  0  0
   62.1758   33.1259   50.2282 H   0  0  0  0  0  0  0  0  0  0  0  0
  1  2  1  0
  2  3  1  0
  3  4  2  0
  4  5  1  0
  5  6  2  0
  6  7  1  0
  7  8  1  0
  8  9  1  0
  9 10  1  0
 10 11  2  0
 10 12  1  0
 12 13  2  0
 13 14  1  0
 14 15  2  0
 15 16  1  0
 16 17  2  0
 17 18  1  0
 18 19  2  0
  6 20  1  0
 20 21  2  0
 21  3  1  0
 18  9  1  0
 17 12  1  0
  1 22  1  0
  1 23  1  0
  1 24  1  0
  4 25  1  0
  5 26  1  0
  7 27  1  0
  7 28  1  0
  8 29  1  0
  8 30  1  0
 13 31  1  0
 14 32  1  0
 15 33  1  0
 16 34  1  0
 20 35  1  0
 21 36  1  0
M  END
>  <UniqueID>  (84) 
74

>  <SMILES>  (84) 
COc1ccc(CCN2C(=O)c3ccccc3C2=O)cc1

>  <Energy>  (84) 
65.9033602555425

>  <Genealogy>  (84) 
COc1ccc(CCN2C(=O)c3ccccc3C2=O)cc1 (3D coordinates assigned)
COc1ccc(CCN2C(=O)c3ccccc3C2=O)cc1 (nonaromatic ring conformer: 65.9033602555425 kcal/mol)

>  <smiles>  (84) 
COc1ccc(CCN2C(=O)c3ccccc3C2=O)cc1

>  <score_type>  (84) 
oracle

>  <origin>  (84) 
adg

>  <m_score__min__energy>  (84) 
-7.1600000000000001

>  <m_primary>  (84) 
energy

$$$$
84:0
     RDKit          3D

 29 31  0  0  0  0  0  0  0  0999 V2000
   60.2771   35.4237   45.0322 H   0  0  0  0  0  0  0  0  0  0  0  0
   59.5270   34.6310   45.1700 C   0  0  0  0  0  0  0  0  0  0  0  0
   59.0680   33.9090   44.1920 N   0  0  0  0  0  0  0  0  0  0  0  0
   59.3580   33.9980   43.1930 H   0  0  0  0  0  0  0  0  0  0  0  0
   58.1550   32.9570   44.7310 C   0  0  0  0  0  0  0  0  0  0  0  0
   57.4800   32.0660   43.9930 C   0  0  0  0  0  0  0  0  0  0  0  0
   57.1586   32.3650   42.9844 H   0  0  0  0  0  0  0  0  0  0  0  0
   57.1440   30.7100   44.4550 C   0  0  0  0  0  0  0  0  0  0  0  0
   55.8810   30.1330   44.4270 C   0  0  0  0  0  0  0  0  0  0  0  0
   54.9608   30.6515   44.1197 H   0  0  0  0  0  0  0  0  0  0  0  0
   55.9420   28.8430   44.8310 N   0  0  0  0  0  0  0  0  0  0  0  0
   55.1450   28.1720   44.9010 H   0  0  0  0  0  0  0  0  0  0  0  0
   57.2380   28.5950   45.0870 C   0  0  0  0  0  0  0  0  0  0  0  0
   57.8020   27.3830   45.4830 C   0  0  0  0  0  0  0  0  0  0  0  0
   57.1739   26.4994   45.6693 H   0  0  0  0  0  0  0  0  0  0  0  0
   59.1990   27.3250   45.6370 C   0  0  0  0  0  0  0  0  0  0  0  0
   59.6753   26.3875   45.9599 H   0  0  0  0  0  0  0  0  0  0  0  0
   59.9940   28.4650   45.3790 C   0  0  0  0  0  0  0  0  0  0  0  0
   61.0862   28.4072   45.4959 H   0  0  0  0  0  0  0  0  0  0  0  0
   59.3980   29.6720   44.9740 C   0  0  0  0  0  0  0  0  0  0  0  0
   60.0079   30.5613   44.7570 H   0  0  0  0  0  0  0  0  0  0  0  0
   58.0070   29.7060   44.8560 C   0  0  0  0  0  0  0  0  0  0  0  0
   58.1030   33.2070   46.1630 C   0  0  0  0  0  0  0  0  0  0  0  0
   57.3930   32.6190   47.0200 O   0  0  0  0  0  0  0  0  0  0  0  0
   58.9650   34.2980   46.4430 N   0  0  0  0  0  0  0  0  0  0  0  0
   59.5540   34.6150   47.7360 C   0  0  0  0  0  0  0  0  0  0  0  0
   58.8912   34.2583   48.5382 H   0  0  0  0  0  0  0  0  0  0  0  0
   60.5336   34.1222   47.8234 H   0  0  0  0  0  0  0  0  0  0  0  0
   59.6823   35.7040   47.8234 H   0  0  0  0  0  0  0  0  0  0  0  0
  1  2  1  0
  2  3  2  0
  3  4  1  0
  3  5  1  0
  5  6  2  0
  6  7  1  0
  6  8  1  0
  8  9  2  0
  9 10  1  0
  9 11  1  0
 11 12  1  0
 11 13  1  0
 13 14  2  0
 14 15  1  0
 14 16  1  0
 16 17  1  0
 16 18  2  0
 18 19  1  0
 18 20  1  0
 20 21  1  0
 20 22  2  0
  5 23  1  0
 23 24  2  0
 23 25  1  0
 25 26  1  0
 26 27  1  0
 26 28  1  0
 26 29  1  0
 25  2  1  0
 22  8  1  0
 22 13  1  0
M  CHG  1   3   1
M  END
>  <UniqueID>  (85) 
75

>  <SMILES>  (85) 
CN1C=[NH+]/C(=C/c2c[nH]c3ccccc23)C1=O

>  <Energy>  (85) 
98.93638736452654

>  <Genealogy>  (85) 
CN1C=[NH+]C(=Cc2c[nH]c3ccccc23)C1=O (protonated)
CN1C=[NH+]/C(=C/c2c[nH]c3ccccc23)C1=O (cis-trans isomerization)
CN1C=[NH+]/C(=C/c2c[nH]c3ccccc23)C1=O (3D coordinates assigned)
CN1C=[NH+]/C(=C/c2c[nH]c3ccccc23)C1=O (nonaromatic ring conformer: 98.93638736452654 kcal/mol)

>  <smiles>  (85) 
CN1C=NC(=Cc2c[nH]c3ccccc23)C1=O

>  <score_type>  (85) 
oracle

>  <origin>  (85) 
adg

>  <m_score__min__energy>  (85) 
-5.6699999999999999

>  <m_primary>  (85) 
energy

$$$$
85:0
     RDKit          3D

 63 65  0  0  0  0  0  0  0  0999 V2000
   64.0650   33.5040   52.0300 C   0  0  0  0  0  0  0  0  0  0  0  0
   63.4680   34.3780   50.9280 C   0  0  0  0  0  0  0  0  0  0  0  0
   62.6110   33.5900   50.0280 N   0  0  0  0  0  0  0  0  0  0  0  0
   61.3280   34.1460   49.5570 C   0  0  0  0  0  0  0  0  0  0  0  0
   60.1340   33.5140   50.2720 C   0  0  0  0  0  0  0  0  0  0  0  0
   63.1570   32.4080   49.3990 C   0  0  0  0  0  0  0  0  0  0  0  0
   64.3940   32.3330   49.1750 O   0  0  0  0  0  0  0  0  0  0  0  0
   62.2970   31.2660   49.0300 C   0  0  0  0  0  0  0  0  0  0  0  0
   61.9440   31.0470   47.6880 C   0  0  0  0  0  0  0  0  0  0  0  0
   61.1460   29.9550   47.3380 C   0  0  0  0  0  0  0  0  0  0  0  0
   60.6870   29.0750   48.3270 C   0  0  0  0  0  0  0  0  0  0  0  0
   59.8770   27.9100   47.9470 C   0  0  0  0  0  0  0  0  0  0  0  0
   59.7190   26.9840   48.7910 O   0  0  0  0  0  0  0  0  0  0  0  0
   59.2490   27.8350   46.6490 N   0  0  0  0  0  0  0  0  0  0  0  0
   58.1810   26.8620   46.3880 C   0  0  0  0  0  0  0  0  0  0  0  0
   57.0550   27.5670   45.6310 C   0  0  0  0  0  0  0  0  0  0  0  0
   57.5130   28.1210   44.3340 N   0  0  0  0  0  0  0  0  0  0  0  0
   56.5510   29.5120   43.8930 S   0  0  0  0  0  0  0  0  0  0  0  0
   55.1830   29.3990   44.5100 O   0  0  0  0  0  0  0  0  0  0  0  0
   56.4010   29.5770   42.3970 O   0  0  0  0  0  0  0  0  0  0  0  0
   57.3210   30.9840   44.4860 C   0  0  0  0  0  0  0  0  0  0  0  0
   57.7140   31.0670   45.8270 C   0  0  0  0  0  0  0  0  0  0  0  0
   58.3760   32.2050   46.2970 C   0  0  0  0  0  0  0  0  0  0  0  0
   58.6460   33.2730   45.4310 C   0  0  0  0  0  0  0  0  0  0  0  0
   59.5270   34.6850   46.0040 S   0  0  0  0  0  0  0  0  0  0  0  0
   61.1960   34.2110   46.3910 C   0  0  0  0  0  0  0  0  0  0  0  0
   59.5350   35.7480   44.9400 O   0  0  0  0  0  0  0  0  0  0  0  0
   58.8620   35.2390   47.2330 O   0  0  0  0  0  0  0  0  0  0  0  0
   58.2570   33.1870   44.0870 C   0  0  0  0  0  0  0  0  0  0  0  0
   57.5960   32.0490   43.6170 C   0  0  0  0  0  0  0  0  0  0  0  0
   58.9630   28.4260   44.2540 C   0  0  0  0  0  0  0  0  0  0  0  0
   59.5840   28.8150   45.6070 C   0  0  0  0  0  0  0  0  0  0  0  0
   61.0180   29.3010   49.6710 C   0  0  0  0  0  0  0  0  0  0  0  0
   61.8150   30.3960   50.0230 C   0  0  0  0  0  0  0  0  0  0  0  0
   63.7864   33.9119   53.0128 H   0  0  0  0  0  0  0  0  0  0  0  0
   63.6776   32.4789   51.9352 H   0  0  0  0  0  0  0  0  0  0  0  0
   65.1608   33.4920   51.9352 H   0  0  0  0  0  0  0  0  0  0  0  0
   62.8665   35.1753   51.3890 H   0  0  0  0  0  0  0  0  0  0  0  0
   64.2922   34.8051   50.3379 H   0  0  0  0  0  0  0  0  0  0  0  0
   61.3207   35.2300   49.7436 H   0  0  0  0  0  0  0  0  0  0  0  0
   61.2362   33.9268   48.4830 H   0  0  0  0  0  0  0  0  0  0  0  0
   60.2763   33.5893   51.3601 H   0  0  0  0  0  0  0  0  0  0  0  0
   59.2130   34.0427   49.9852 H   0  0  0  0  0  0  0  0  0  0  0  0
   60.0534   32.4551   49.9852 H   0  0  0  0  0  0  0  0  0  0  0  0
   62.2976   31.7386   46.9091 H   0  0  0  0  0  0  0  0  0  0  0  0
   60.8777   29.7859   46.2847 H   0  0  0  0  0  0  0  0  0  0  0  0
   58.5744   26.0337   45.7805 H   0  0  0  0  0  0  0  0  0  0  0  0
   57.8004   26.4572   47.3374 H   0  0  0  0  0  0  0  0  0  0  0  0
   56.2481   26.8436   45.4421 H   0  0  0  0  0  0  0  0  0  0  0  0
   56.7043   28.4051   46.2512 H   0  0  0  0  0  0  0  0  0  0  0  0
   57.5012   30.2340   46.5132 H   0  0  0  0  0  0  0  0  0  0  0  0
   58.6862   32.2623   47.3508 H   0  0  0  0  0  0  0  0  0  0  0  0
   61.3231   34.1749   47.4830 H   0  0  0  0  0  0  0  0  0  0  0  0
   61.4035   33.2184   45.9647 H   0  0  0  0  0  0  0  0  0  0  0  0
   61.8942   34.9464   45.9647 H   0  0  0  0  0  0  0  0  0  0  0  0
   58.4728   34.0184   43.3998 H   0  0  0  0  0  0  0  0  0  0  0  0
   57.2906   31.9888   42.5620 H   0  0  0  0  0  0  0  0  0  0  0  0
   59.4856   27.5357   43.8742 H   0  0  0  0  0  0  0  0  0  0  0  0
   59.0750   29.2924   43.5856 H   0  0  0  0  0  0  0  0  0  0  0  0
   60.6776   28.8634   45.4988 H   0  0  0  0  0  0  0  0  0  0  0  0
   59.1792   29.7929   45.9067 H   0  0  0  0  0  0  0  0  0  0  0  0
   60.6505   28.6164   50.4497 H   0  0  0  0  0  0  0  0  0  0  0  0
   62.0648   30.5762   51.0790 H   0  0  0  0  0  0  0  0  0  0  0  0
  1  2  1  0
  2  3  1  0
  3  4  1  0
  4  5  1  0
  3  6  1  0
  6  7  2  0
  6  8  1  0
  8  9  2  0
  9 10  1  0
 10 11  2  0
 11 12  1  0
 12 13  2  0
 12 14  1  0
 14 15  1  0
 15 16  1  0
 16 17  1  0
 17 18  1  0
 18 19  2  0
 18 20  2  0
 18 21  1  0
 21 22  2  0
 22 23  1  0
 23 24  2  0
 24 25  1  0
 25 26  1  0
 25 27  2  0
 25 28  2  0
 24 29  1  0
 29 30  2  0
 17 31  1  0
 31 32  1  0
 11 33  1  0
 33 34  2  0
 34  8  1  0
 32 14  1  0
 30 21  1  0
  1 35  1  0
  1 36  1  0
  1 37  1  0
  2 38  1  0
  2 39  1  0
  4 40  1  0
  4 41  1  0
  5 42  1  0
  5 43  1  0
  5 44  1  0
  9 45  1  0
 10 46  1  0
 15 47  1  0
 15 48  1  0
 16 49  1  0
 16 50  1  0
 22 51  1  0
 23 52  1  0
 26 53  1  0
 26 54  1  0
 26 55  1  0
 29 56  1  0
 30 57  1  0
 31 58  1  0
 31 59  1  0
 32 60  1  0
 32 61  1  0
 33 62  1  0
 34 63  1  0
M  END
>  <UniqueID>  (86) 
76

>  <SMILES>  (86) 
CCN(CC)C(=O)c1ccc(C(=O)N2CCN(S(=O)(=O)c3ccc(S(C)(=O)=O)cc3)CC2)cc1

>  <Energy>  (86) 
75.16074520787036

>  <Genealogy>  (86) 
CCN(CC)C(=O)c1ccc(C(=O)N2CCN(S(=O)(=O)c3ccc(S(C)(=O)=O)cc3)CC2)cc1 (3D coordinates assigned)
CCN(CC)C(=O)c1ccc(C(=O)N2CCN(S(=O)(=O)c3ccc(S(C)(=O)=O)cc3)CC2)cc1 (nonaromatic ring conformer: 75.16074520787036 kcal/mol)

>  <smiles>  (86) 
CCN(CC)C(=O)c1ccc(C(=O)N2CCN(S(=O)(=O)c3ccc(S(C)(=O)=O)cc3)CC2)cc1

>  <score_type>  (86) 
oracle

>  <origin>  (86) 
adg

>  <m_score__min__energy>  (86) 
-9.6300000000000008

>  <m_primary>  (86) 
energy

$$$$
86:0
     RDKit          3D

 36 38  0  0  0  0  0  0  0  0999 V2000
   56.2470   27.0920   46.0310 O   0  0  0  0  0  0  0  0  0  0  0  0
   56.5660   28.1690   45.4650 C   0  0  0  0  0  0  0  0  0  0  0  0
   55.5160   29.0010   44.9510 N   0  0  0  0  0  0  0  0  0  0  0  0
   55.5270   29.7570   43.7040 C   0  0  0  0  0  0  0  0  0  0  0  0
   56.5120   30.8830   43.7590 C   0  0  0  0  0  0  0  0  0  0  0  0
   57.1970   31.4160   42.6830 C   0  0  0  0  0  0  0  0  0  0  0  0
   57.9850   32.4140   43.2090 C   0  0  0  0  0  0  0  0  0  0  0  0
   57.7240   32.4380   44.5680 C   0  0  0  0  0  0  0  0  0  0  0  0
   56.8380   31.5170   44.8630 O   0  0  0  0  0  0  0  0  0  0  0  0
   58.0000   28.5130   45.3470 C   0  0  0  0  0  0  0  0  0  0  0  0
   58.8000   28.2360   44.2500 C   0  0  0  0  0  0  0  0  0  0  0  0
   60.0410   28.7620   44.5410 C   0  0  0  0  0  0  0  0  0  0  0  0
   59.9170   29.3340   45.7910 C   0  0  0  0  0  0  0  0  0  0  0  0
   60.9960   30.0640   46.5250 C   0  0  0  0  0  0  0  0  0  0  0  0
   60.3880   30.6440   48.1410 S   0  0  0  0  0  0  0  0  0  0  0  0
   59.9080   32.2700   47.5560 C   0  0  0  0  0  0  0  0  0  0  0  0
   58.5720   32.6860   47.6550 C   0  0  0  0  0  0  0  0  0  0  0  0
   58.1970   33.9550   47.2070 C   0  0  0  0  0  0  0  0  0  0  0  0
   59.1520   34.8060   46.6420 C   0  0  0  0  0  0  0  0  0  0  0  0
   60.4810   34.3870   46.5250 C   0  0  0  0  0  0  0  0  0  0  0  0
   60.8610   33.1210   46.9860 C   0  0  0  0  0  0  0  0  0  0  0  0
   58.7000   29.1580   46.2510 O   0  0  0  0  0  0  0  0  0  0  0  0
   55.7993   29.0827   42.8786 H   0  0  0  0  0  0  0  0  0  0  0  0
   54.5242   30.1805   43.5460 H   0  0  0  0  0  0  0  0  0  0  0  0
   57.1270   31.1076   41.6294 H   0  0  0  0  0  0  0  0  0  0  0  0
   58.6827   33.0629   42.6593 H   0  0  0  0  0  0  0  0  0  0  0  0
   58.1888   33.1249   45.2906 H   0  0  0  0  0  0  0  0  0  0  0  0
   58.5050   27.7045   43.3332 H   0  0  0  0  0  0  0  0  0  0  0  0
   60.9411   28.7320   43.9094 H   0  0  0  0  0  0  0  0  0  0  0  0
   61.8493   29.3876   46.6808 H   0  0  0  0  0  0  0  0  0  0  0  0
   61.3062   30.9344   45.9282 H   0  0  0  0  0  0  0  0  0  0  0  0
   57.8178   32.0114   48.0864 H   0  0  0  0  0  0  0  0  0  0  0  0
   57.1515   34.2845   47.2986 H   0  0  0  0  0  0  0  0  0  0  0  0
   58.8577   35.8055   46.2894 H   0  0  0  0  0  0  0  0  0  0  0  0
   61.2289   35.0531   46.0701 H   0  0  0  0  0  0  0  0  0  0  0  0
   61.9082   32.7955   46.9001 H   0  0  0  0  0  0  0  0  0  0  0  0
  1  2  2  0
  2  3  1  0
  3  4  1  0
  4  5  1  0
  5  6  2  0
  6  7  1  0
  7  8  2  0
  8  9  1  0
  2 10  1  0
 10 11  2  0
 11 12  1  0
 12 13  2  0
 13 14  1  0
 14 15  1  0
 15 16  1  0
 16 17  2  0
 17 18  1  0
 18 19  2  0
 19 20  1  0
 20 21  2  0
 13 22  1  0
  9  5  1  0
 22 10  1  0
 21 16  1  0
  4 23  1  0
  4 24  1  0
  6 25  1  0
  7 26  1  0
  8 27  1  0
 11 28  1  0
 12 29  1  0
 14 30  1  0
 14 31  1  0
 17 32  1  0
 18 33  1  0
 19 34  1  0
 20 35  1  0
 21 36  1  0
M  CHG  1   3  -1
M  END
>  <UniqueID>  (87) 
77

>  <SMILES>  (87) 
O=C([N-]Cc1ccco1)c1ccc(CSc2ccccc2)o1

>  <Energy>  (87) 
80.42200067025797

>  <Genealogy>  (87) 
O=C([N-]Cc1ccco1)c1ccc(CSc2ccccc2)o1 (protonated)
O=C([N-]Cc1ccco1)c1ccc(CSc2ccccc2)o1 (3D coordinates assigned)
O=C([N-]Cc1ccco1)c1ccc(CSc2ccccc2)o1 (optimized conformer: 80.42200067025797 kcal/mol)

>  <smiles>  (87) 
O=C(NCc1ccco1)c1ccc(CSc2ccccc2)o1

>  <score_type>  (87) 
oracle

>  <origin>  (87) 
adg

>  <m_score__min__energy>  (87) 
-10.85

>  <m_primary>  (87) 
energy

$$$$
87:0
     RDKit          3D

 45 47  0  0  0  0  0  0  0  0999 V2000
   59.6550   35.6580   46.3900 C   0  0  0  0  0  0  0  0  0  0  0  0
   59.0270   34.3870   45.8990 C   0  0  0  0  0  0  0  0  0  0  0  0
   59.0240   34.0890   44.5280 C   0  0  0  0  0  0  0  0  0  0  0  0
   58.4140   32.9220   44.0610 C   0  0  0  0  0  0  0  0  0  0  0  0
   57.7920   32.0430   44.9600 C   0  0  0  0  0  0  0  0  0  0  0  0
   57.0020   30.5820   44.3770 S   0  0  0  0  0  0  0  0  0  0  0  0
   55.5100   30.7120   44.5310 O   0  0  0  0  0  0  0  0  0  0  0  0
   57.3180   30.4010   42.9190 O   0  0  0  0  0  0  0  0  0  0  0  0
   57.5910   29.2070   45.2800 N   0  0  0  0  0  0  0  0  0  0  0  0
   56.6430   28.0950   45.2230 C   0  0  0  0  0  0  0  0  0  0  0  0
   57.4590   26.8340   45.4060 C   0  0  0  0  0  0  0  0  0  0  0  0
   58.8040   27.1670   44.7900 C   0  0  0  0  0  0  0  0  0  0  0  0
   58.8600   28.7010   44.7370 C   0  0  2  0  0  0  0  0  0  0  0  0
   60.0010   29.2440   45.5550 C   0  0  0  0  0  0  0  0  0  0  0  0
   61.1800   28.8750   45.2990 O   0  0  0  0  0  0  0  0  0  0  0  0
   59.7370   30.1160   46.6660 N   0  0  0  0  0  0  0  0  0  0  0  0
   60.7570   30.8240   47.3910 C   0  0  0  0  0  0  0  0  0  0  0  0
   61.1430   30.4310   48.6860 C   0  0  0  0  0  0  0  0  0  0  0  0
   62.1540   31.1210   49.3600 C   0  0  0  0  0  0  0  0  0  0  0  0
   62.7970   32.2000   48.7470 C   0  0  0  0  0  0  0  0  0  0  0  0
   62.4360   32.5860   47.4510 C   0  0  0  0  0  0  0  0  0  0  0  0
   63.1020   33.6920   46.8150 C   0  0  0  0  0  0  0  0  0  0  0  0
   63.6380   34.5820   46.3050 N   0  0  0  0  0  0  0  0  0  0  0  0
   61.4230   31.8940   46.7730 C   0  0  0  0  0  0  0  0  0  0  0  0
   57.7730   32.3510   46.3260 C   0  0  0  0  0  0  0  0  0  0  0  0
   58.3840   33.5180   46.7940 C   0  0  0  0  0  0  0  0  0  0  0  0
   59.6581   35.6643   47.4900 H   0  0  0  0  0  0  0  0  0  0  0  0
   60.6889   35.7229   46.0200 H   0  0  0  0  0  0  0  0  0  0  0  0
   59.0784   36.5186   46.0200 H   0  0  0  0  0  0  0  0  0  0  0  0
   59.5043   34.7776   43.8172 H   0  0  0  0  0  0  0  0  0  0  0  0
   58.4215   32.6919   42.9854 H   0  0  0  0  0  0  0  0  0  0  0  0
   55.8983   28.1873   46.0273 H   0  0  0  0  0  0  0  0  0  0  0  0
   56.0962   28.0833   44.2686 H   0  0  0  0  0  0  0  0  0  0  0  0
   57.5683   26.5918   46.4734 H   0  0  0  0  0  0  0  0  0  0  0  0
   56.9880   25.9565   44.9390 H   0  0  0  0  0  0  0  0  0  0  0  0
   59.6206   26.7734   45.4130 H   0  0  0  0  0  0  0  0  0  0  0  0
   58.9190   26.7188   43.7921 H   0  0  0  0  0  0  0  0  0  0  0  0
   59.0155   29.0236   43.6969 H   0  0  0  0  0  0  0  0  0  0  0  0
   58.7580   30.1610   47.0320 H   0  0  0  0  0  0  0  0  0  0  0  0
   60.6466   29.5768   49.1698 H   0  0  0  0  0  0  0  0  0  0  0  0
   62.4446   30.8142   50.3756 H   0  0  0  0  0  0  0  0  0  0  0  0
   63.5871   32.7460   49.2833 H   0  0  0  0  0  0  0  0  0  0  0  0
   61.1482   32.1913   45.7502 H   0  0  0  0  0  0  0  0  0  0  0  0
   57.2752   31.6718   47.0337 H   0  0  0  0  0  0  0  0  0  0  0  0
   58.3607   33.7560   47.8677 H   0  0  0  0  0  0  0  0  0  0  0  0
  1  2  1  0
  2  3  2  0
  3  4  1  0
  4  5  2  0
  5  6  1  0
  6  7  2  0
  6  8  2  0
  6  9  1  0
  9 10  1  0
 10 11  1  0
 11 12  1  0
 12 13  1  0
 13 14  1  0
 14 15  2  0
 14 16  1  0
 16 17  1  0
 17 18  2  0
 18 19  1  0
 19 20  2  0
 20 21  1  0
 21 22  1  0
 22 23  3  0
 21 24  2  0
  5 25  1  0
 25 26  2  0
 26  2  1  0
 13  9  1  0
 24 17  1  0
  1 27  1  0
  1 28  1  0
  1 29  1  0
  3 30  1  0
  4 31  1  0
 10 32  1  0
 10 33  1  0
 11 34  1  0
 11 35  1  0
 12 36  1  0
 12 37  1  0
 13 38  1  6
 16 39  1  0
 18 40  1  0
 19 41  1  0
 20 42  1  0
 24 43  1  0
 25 44  1  0
 26 45  1  0
M  END
>  <UniqueID>  (88) 
78

>  <SMILES>  (88) 
Cc1ccc(S(=O)(=O)N2CCC[C@@H]2C(=O)Nc2cccc(C#N)c2)cc1

>  <Energy>  (88) 
48.34128385499288

>  <Genealogy>  (88) 
Cc1ccc(S(=O)(=O)N2CCC[C@@H]2C(=O)Nc2cccc(C#N)c2)cc1 (chirality)
Cc1ccc(S(=O)(=O)N2CCC[C@@H]2C(=O)Nc2cccc(C#N)c2)cc1 (3D coordinates assigned)
Cc1ccc(S(=O)(=O)N2CCC[C@@H]2C(=O)Nc2cccc(C#N)c2)cc1 (nonaromatic ring conformer: 48.34128385499288 kcal/mol)

>  <smiles>  (88) 
Cc1ccc(S(=O)(=O)N2CCCC2C(=O)Nc2cccc(C#N)c2)cc1

>  <score_type>  (88) 
oracle

>  <origin>  (88) 
adg

>  <m_score__min__energy>  (88) 
-9.5199999999999996

>  <m_primary>  (88) 
energy

$$$$
88:0
     RDKit          3D

 58 61  0  0  0  0  0  0  0  0999 V2000
   55.1870   29.3650   44.8740 O   0  0  0  0  0  0  0  0  0  0  0  0
   56.3680   29.7990   44.8580 C   0  0  0  0  0  0  0  0  0  0  0  0
   56.5890   31.1510   44.4370 N   0  0  0  0  0  0  0  0  0  0  0  0
   57.3940   32.1300   45.1090 C   0  0  0  0  0  0  0  0  0  0  0  0
   57.7840   31.9760   46.4530 C   0  0  0  0  0  0  0  0  0  0  0  0
   58.5560   32.9590   47.0800 C   0  0  0  0  0  0  0  0  0  0  0  0
   58.9280   34.1080   46.3780 C   0  0  0  0  0  0  0  0  0  0  0  0
   59.6730   35.0610   46.9900 F   0  0  0  0  0  0  0  0  0  0  0  0
   58.5230   34.2770   45.0490 C   0  0  0  0  0  0  0  0  0  0  0  0
   57.7560   33.2930   44.4190 C   0  0  0  0  0  0  0  0  0  0  0  0
   57.4630   28.9230   45.2020 N   0  0  0  0  0  0  0  0  0  0  0  0
   58.6210   28.7810   44.2960 C   0  0  0  0  0  0  0  0  0  0  0  0
   59.9770   28.7180   45.0270 C   0  0  0  0  0  0  0  0  0  0  0  0
   60.2950   30.0070   45.7980 C   0  0  0  0  0  0  0  0  0  0  0  0
   60.9490   29.7310   47.0960 N   0  0  0  0  0  0  0  0  0  0  0  0
   60.0560   28.9390   47.9760 C   0  0  0  0  0  0  0  0  0  0  0  0
   59.2730   29.8400   48.9500 C   0  0  0  0  0  0  0  0  0  0  0  0
   60.0980   30.6220   49.8060 O   0  0  0  0  0  0  0  0  0  0  0  0
   61.3950   30.8620   49.2810 C   0  0  0  0  0  0  0  0  0  0  0  0
   61.4140   30.9810   47.7490 C   0  0  0  0  0  0  0  0  0  0  0  0
   57.4010   28.1170   46.4340 C   0  0  0  0  0  0  0  0  0  0  0  0
   56.8740   26.7500   46.1390 C   0  0  0  0  0  0  0  0  0  0  0  0
   57.5190   25.7800   45.3980 C   0  0  0  0  0  0  0  0  0  0  0  0
   56.5770   24.7720   45.2960 C   0  0  0  0  0  0  0  0  0  0  0  0
   56.6950   23.4990   44.5510 C   0  0  0  0  0  0  0  0  0  0  0  0
   56.2100   23.3720   43.2360 C   0  0  0  0  0  0  0  0  0  0  0  0
   56.2910   22.1450   42.5680 C   0  0  0  0  0  0  0  0  0  0  0  0
   56.8560   21.0370   43.2030 C   0  0  0  0  0  0  0  0  0  0  0  0
   57.3440   21.1540   44.5060 C   0  0  0  0  0  0  0  0  0  0  0  0
   57.2650   22.3760   45.1790 C   0  0  0  0  0  0  0  0  0  0  0  0
   55.4990   25.1410   45.9530 O   0  0  0  0  0  0  0  0  0  0  0  0
   55.6390   26.3290   46.4690 N   0  0  0  0  0  0  0  0  0  0  0  0
   57.4802   31.0787   47.0121 H   0  0  0  0  0  0  0  0  0  0  0  0
   58.8703   32.8275   48.1259 H   0  0  0  0  0  0  0  0  0  0  0  0
   58.8089   35.1859   44.4993 H   0  0  0  0  0  0  0  0  0  0  0  0
   57.4353   33.4331   43.3761 H   0  0  0  0  0  0  0  0  0  0  0  0
   58.4962   27.8549   43.7157 H   0  0  0  0  0  0  0  0  0  0  0  0
   58.6414   29.6770   43.6582 H   0  0  0  0  0  0  0  0  0  0  0  0
   59.9548   27.8790   45.7381 H   0  0  0  0  0  0  0  0  0  0  0  0
   60.7593   28.5850   44.2652 H   0  0  0  0  0  0  0  0  0  0  0  0
   60.9661   30.6292   45.1877 H   0  0  0  0  0  0  0  0  0  0  0  0
   59.3455   30.5244   45.9999 H   0  0  0  0  0  0  0  0  0  0  0  0
   59.3413   28.3830   47.3515 H   0  0  0  0  0  0  0  0  0  0  0  0
   60.6784   28.2521   48.5683 H   0  0  0  0  0  0  0  0  0  0  0  0
   58.6428   30.5216   48.3599 H   0  0  0  0  0  0  0  0  0  0  0  0
   58.6850   29.1729   49.5975 H   0  0  0  0  0  0  0  0  0  0  0  0
   61.7779   31.8000   49.7095 H   0  0  0  0  0  0  0  0  0  0  0  0
   62.0221   29.9993   49.5502 H   0  0  0  0  0  0  0  0  0  0  0  0
   60.7541   31.8078   47.4473 H   0  0  0  0  0  0  0  0  0  0  0  0
   62.4505   31.1687   47.4321 H   0  0  0  0  0  0  0  0  0  0  0  0
   58.4108   28.0312   46.8617 H   0  0  0  0  0  0  0  0  0  0  0  0
   56.7271   28.6115   47.1491 H   0  0  0  0  0  0  0  0  0  0  0  0
   58.5389   25.8031   44.9867 H   0  0  0  0  0  0  0  0  0  0  0  0
   55.7649   24.2418   42.7306 H   0  0  0  0  0  0  0  0  0  0  0  0
   55.9088   22.0531   41.5406 H   0  0  0  0  0  0  0  0  0  0  0  0
   56.9166   20.0728   42.6771 H   0  0  0  0  0  0  0  0  0  0  0  0
   57.7920   20.2816   45.0042 H   0  0  0  0  0  0  0  0  0  0  0  0
   57.6506   22.4607   46.2057 H   0  0  0  0  0  0  0  0  0  0  0  0
  1  2  2  0
  2  3  1  0
  3  4  1  0
  4  5  2  0
  5  6  1  0
  6  7  2  0
  7  8  1  0
  7  9  1  0
  9 10  2  0
  2 11  1  0
 11 12  1  0
 12 13  1  0
 13 14  1  0
 14 15  1  0
 15 16  1  0
 16 17  1  0
 17 18  1  0
 18 19  1  0
 19 20  1  0
 11 21  1  0
 21 22  1  0
 22 23  1  0
 23 24  2  0
 24 25  1  0
 25 26  2  0
 26 27  1  0
 27 28  2  0
 28 29  1  0
 29 30  2  0
 24 31  1  0
 31 32  1  0
 10  4  1  0
 20 15  1  0
 32 22  2  0
 30 25  1  0
  5 33  1  0
  6 34  1  0
  9 35  1  0
 10 36  1  0
 12 37  1  0
 12 38  1  0
 13 39  1  0
 13 40  1  0
 14 41  1  0
 14 42  1  0
 16 43  1  0
 16 44  1  0
 17 45  1  0
 17 46  1  0
 19 47  1  0
 19 48  1  0
 20 49  1  0
 20 50  1  0
 21 51  1  0
 21 52  1  0
 23 53  1  0
 26 54  1  0
 27 55  1  0
 28 56  1  0
 29 57  1  0
 30 58  1  0
M  CHG  1   3  -1
M  END
>  <UniqueID>  (89) 
79

>  <SMILES>  (89) 
O=C([N-]c1ccc(F)cc1)N(CCCN1CCOCC1)Cc1cc(-c2ccccc2)on1

>  <Energy>  (89) 
105.87513801159669

>  <Genealogy>  (89) 
O=C([N-]c1ccc(F)cc1)N(CCCN1CCOCC1)Cc1cc(-c2ccccc2)on1 (protonated)
O=C([N-]c1ccc(F)cc1)N(CCCN1CCOCC1)Cc1cc(-c2ccccc2)on1 (3D coordinates assigned)
O=C([N-]c1ccc(F)cc1)N(CCCN1CCOCC1)Cc1cc(-c2ccccc2)on1 (nonaromatic ring conformer: 105.87513801159669 kcal/mol)

>  <smiles>  (89) 
O=C(Nc1ccc(F)cc1)N(CCCN1CCOCC1)Cc1cc(-c2ccccc2)on1

>  <score_type>  (89) 
oracle

>  <origin>  (89) 
adg

>  <m_score__min__energy>  (89) 
-11.029999999999999

>  <m_primary>  (89) 
energy

$$$$
89:0
     RDKit          3D

 33 35  0  0  0  0  0  0  0  0999 V2000
   61.9640   32.1240   47.4650 C   0  0  0  0  0  0  0  0  0  0  0  0
   61.3580   33.8410   47.4350 S   0  0  0  0  0  0  0  0  0  0  0  0
   59.8990   33.4440   46.4390 C   0  0  0  0  0  0  0  0  0  0  0  0
   59.5840   32.0840   46.3650 C   0  0  0  0  0  0  0  0  0  0  0  0
   58.5850   31.3930   45.6390 C   0  0  0  0  0  0  0  0  0  0  0  0
   57.4180   32.0050   45.1280 C   0  0  0  0  0  0  0  0  0  0  0  0
   57.1980   33.3670   44.9340 C   0  0  0  0  0  0  0  0  0  0  0  0
   58.0350   34.4510   45.1400 C   0  0  0  0  0  0  0  0  0  0  0  0
   59.2460   34.5100   45.8130 C   0  0  0  0  0  0  0  0  0  0  0  0
   59.7790   35.6510   45.8930 O   0  0  0  0  0  0  0  0  0  0  0  0
   56.3980   31.2420   44.7670 O   0  0  0  0  0  0  0  0  0  0  0  0
   56.3770   29.9280   44.8490 C   0  0  0  0  0  0  0  0  0  0  0  0
   55.3090   29.3390   44.5220 O   0  0  0  0  0  0  0  0  0  0  0  0
   57.5180   29.2050   45.2670 C   0  0  0  0  0  0  0  0  0  0  0  0
   57.3750   27.8060   45.4110 C   0  0  0  0  0  0  0  0  0  0  0  0
   58.2690   26.8260   45.8470 C   0  0  0  0  0  0  0  0  0  0  0  0
   57.7620   25.6950   46.0890 O   0  0  0  0  0  0  0  0  0  0  0  0
   59.6580   26.9470   45.9860 C   0  0  0  0  0  0  0  0  0  0  0  0
   60.4090   25.7800   46.3740 N   0  0  0  0  0  0  0  0  0  0  0  0
   60.4000   28.0870   45.6980 C   0  0  0  0  0  0  0  0  0  0  0  0
   59.9820   29.3970   45.5260 C   0  0  0  0  0  0  0  0  0  0  0  0
   58.6880   29.9590   45.5360 C   0  0  0  0  0  0  0  0  0  0  0  0
   62.0803   31.7944   48.5080 H   0  0  0  0  0  0  0  0  0  0  0  0
   61.2419   31.4713   46.9526 H   0  0  0  0  0  0  0  0  0  0  0  0
   62.9358   32.0691   46.9526 H   0  0  0  0  0  0  0  0  0  0  0  0
   60.2263   31.4364   46.9799 H   0  0  0  0  0  0  0  0  0  0  0  0
   56.1972   33.6229   44.5559 H   0  0  0  0  0  0  0  0  0  0  0  0
   57.6896   35.4017   44.7077 H   0  0  0  0  0  0  0  0  0  0  0  0
   56.3836   27.4212   45.1297 H   0  0  0  0  0  0  0  0  0  0  0  0
   59.9380   24.8630   46.5430 H   0  0  0  0  0  0  0  0  0  0  0  0
   61.4480   25.7960   46.4840 H   0  0  0  0  0  0  0  0  0  0  0  0
   61.4826   27.9245   45.5904 H   0  0  0  0  0  0  0  0  0  0  0  0
   60.7940   30.1185   45.3529 H   0  0  0  0  0  0  0  0  0  0  0  0
  1  2  1  0
  2  3  1  0
  3  4  2  0
  4  5  1  0
  5  6  2  0
  6  7  1  0
  7  8  2  0
  8  9  1  0
  9 10  2  0
  6 11  1  0
 11 12  1  0
 12 13  2  0
 12 14  1  0
 14 15  2  0
 15 16  1  0
 16 17  2  0
 16 18  1  0
 18 19  1  0
 18 20  2  0
 20 21  1  0
 21 22  2  0
  9  3  1  0
 22 14  1  0
 22  5  1  0
  1 23  1  0
  1 24  1  0
  1 25  1  0
  4 26  1  0
  7 27  1  0
  8 28  1  0
 15 29  1  0
 19 30  1  0
 19 31  1  0
 20 32  1  0
 21 33  1  0
M  END
>  <UniqueID>  (90) 
80

>  <SMILES>  (90) 
CSc1cc2c(ccc1=O)oc(=O)c1cc(=O)c(N)ccc12

>  <Energy>  (90) 
104.24094902734733

>  <Genealogy>  (90) 
CSc1cc2c(ccc1=O)oc(=O)c1cc(=O)c(N)ccc12 (3D coordinates assigned)
CSc1cc2c(ccc1=O)oc(=O)c1cc(=O)c(N)ccc12 (optimized conformer: 104.24094902734733 kcal/mol)

>  <smiles>  (90) 
CSc1cc2c(ccc1=O)oc(=O)c1cc(=O)c(N)ccc12

>  <score_type>  (90) 
oracle

>  <origin>  (90) 
adg

>  <m_score__min__energy>  (90) 
-7.9900000000000002

>  <m_primary>  (90) 
energy

$$$$
90:0
     RDKit          3D

 34 35  0  0  0  0  0  0  0  0999 V2000
   62.8070   34.0220   49.4110 C   0  0  0  0  0  0  0  0  0  0  0  0
   61.6790   33.9670   48.4240 C   0  0  0  0  0  0  0  0  0  0  0  0
   61.9170   33.5780   47.0970 C   0  0  0  0  0  0  0  0  0  0  0  0
   60.8600   33.4920   46.1870 C   0  0  0  0  0  0  0  0  0  0  0  0
   59.5520   33.7850   46.5950 C   0  0  0  0  0  0  0  0  0  0  0  0
   58.2290   33.6910   45.4380 S   0  0  0  0  0  0  0  0  0  0  0  0
   58.1270   34.9610   44.6410 O   0  0  0  0  0  0  0  0  0  0  0  0
   56.9450   33.4810   46.1890 O   0  0  0  0  0  0  0  0  0  0  0  0
   58.4810   32.3600   44.3530 N   0  0  0  0  0  0  0  0  0  0  0  0
   58.2150   30.9860   44.6930 C   0  0  0  0  0  0  0  0  0  0  0  0
   56.9330   30.4620   44.4670 C   0  0  0  0  0  0  0  0  0  0  0  0
   56.6390   29.1350   44.7920 C   0  0  0  0  0  0  0  0  0  0  0  0
   57.6240   28.3100   45.3500 C   0  0  0  0  0  0  0  0  0  0  0  0
   57.2510   26.6380   45.7490 S   0  0  0  0  0  0  0  0  0  0  0  0
   55.5480   26.4640   45.9870 N   0  0  0  0  0  0  0  0  0  0  0  0
   57.6970   25.7450   44.6270 O   0  0  0  0  0  0  0  0  0  0  0  0
   57.9590   26.2420   47.0150 O   0  0  0  0  0  0  0  0  0  0  0  0
   58.9110   28.8220   45.5650 C   0  0  0  0  0  0  0  0  0  0  0  0
   59.2070   30.1480   45.2380 C   0  0  0  0  0  0  0  0  0  0  0  0
   59.3080   34.1520   47.9260 C   0  0  0  0  0  0  0  0  0  0  0  0
   60.3640   34.2370   48.8370 C   0  0  0  0  0  0  0  0  0  0  0  0
   62.4011   34.0022   50.4332 H   0  0  0  0  0  0  0  0  0  0  0  0
   63.4673   33.1550   49.2618 H   0  0  0  0  0  0  0  0  0  0  0  0
   63.3798   34.9491   49.2618 H   0  0  0  0  0  0  0  0  0  0  0  0
   62.9404   33.3396   46.7715 H   0  0  0  0  0  0  0  0  0  0  0  0
   61.0556   33.1932   45.1466 H   0  0  0  0  0  0  0  0  0  0  0  0
   58.7660   32.5930   43.3760 H   0  0  0  0  0  0  0  0  0  0  0  0
   56.1522   31.1017   44.0299 H   0  0  0  0  0  0  0  0  0  0  0  0
   55.6301   28.7368   44.6089 H   0  0  0  0  0  0  0  0  0  0  0  0
   55.1460   27.4270   46.0370 H   0  0  0  0  0  0  0  0  0  0  0  0
   59.6921   28.1767   45.9934 H   0  0  0  0  0  0  0  0  0  0  0  0
   60.2209   30.5396   45.4073 H   0  0  0  0  0  0  0  0  0  0  0  0
   58.2818   34.3738   48.2541 H   0  0  0  0  0  0  0  0  0  0  0  0
   60.1646   34.5165   49.8820 H   0  0  0  0  0  0  0  0  0  0  0  0
  1  2  1  0
  2  3  2  0
  3  4  1  0
  4  5  2  0
  5  6  1  0
  6  7  2  0
  6  8  2  0
  6  9  1  0
  9 10  1  0
 10 11  2  0
 11 12  1  0
 12 13  2  0
 13 14  1  0
 14 15  1  0
 14 16  2  0
 14 17  2  0
 13 18  1  0
 18 19  2  0
  5 20  1  0
 20 21  2  0
 21  2  1  0
 19 10  1  0
  1 22  1  0
  1 23  1  0
  1 24  1  0
  3 25  1  0
  4 26  1  0
  9 27  1  0
 11 28  1  0
 12 29  1  0
 15 30  1  0
 18 31  1  0
 19 32  1  0
 20 33  1  0
 21 34  1  0
M  CHG  1  15  -1
M  END
>  <UniqueID>  (91) 
81

>  <SMILES>  (91) 
Cc1ccc(S(=O)(=O)Nc2ccc(S([NH-])(=O)=O)cc2)cc1

>  <Energy>  (91) 
36.034775858770466

>  <Genealogy>  (91) 
Cc1ccc(S(=O)(=O)Nc2ccc(S([NH-])(=O)=O)cc2)cc1 (protonated)
Cc1ccc(S(=O)(=O)Nc2ccc(S([NH-])(=O)=O)cc2)cc1 (3D coordinates assigned)
Cc1ccc(S(=O)(=O)Nc2ccc(S([NH-])(=O)=O)cc2)cc1 (optimized conformer: 36.034775858770466 kcal/mol)

>  <smiles>  (91) 
Cc1ccc(S(=O)(=O)Nc2ccc(S(N)(=O)=O)cc2)cc1

>  <score_type>  (91) 
oracle

>  <origin>  (91) 
adg

>  <m_score__min__energy>  (91) 
-10.99

>  <m_primary>  (91) 
energy

$$$$
91:0
     RDKit          3D

 29 30  0  0  0  0  0  0  0  0999 V2000
   55.3900   31.3970   44.4930 H   0  0  0  0  0  0  0  0  0  0  0  0
   56.3900   31.4570   44.6510 O   0  0  0  0  0  0  0  0  0  0  0  0
   57.1580   30.3220   44.8950 C   0  0  0  0  0  0  0  0  0  0  0  0
   58.5510   30.4150   45.0040 C   0  0  0  0  0  0  0  0  0  0  0  0
   59.0455   31.3915   44.8949 H   0  0  0  0  0  0  0  0  0  0  0  0
   59.3150   29.2710   45.2510 C   0  0  0  0  0  0  0  0  0  0  0  0
   60.4093   29.3530   45.3272 H   0  0  0  0  0  0  0  0  0  0  0  0
   58.6990   28.0170   45.4030 C   0  0  0  0  0  0  0  0  0  0  0  0
   59.5570   26.8330   45.6560 C   0  0  0  0  0  0  0  0  0  0  0  0
   60.3579   26.6105   44.9356 H   0  0  0  0  0  0  0  0  0  0  0  0
   59.4130   26.0180   46.7120 C   0  0  0  0  0  0  0  0  0  0  0  0
   60.2519   25.9137   47.4158 H   0  0  0  0  0  0  0  0  0  0  0  0
   58.1730   25.2540   46.9690 C   0  0  0  0  0  0  0  0  0  0  0  0
   57.6910   25.2730   48.1330 O   0  0  0  0  0  0  0  0  0  0  0  0
   57.4730   24.4760   45.9220 C   0  0  0  0  0  0  0  0  0  0  0  0
   58.1940   23.5360   45.1660 C   0  0  0  0  0  0  0  0  0  0  0  0
   59.2662   23.3855   45.3602 H   0  0  0  0  0  0  0  0  0  0  0  0
   57.5580   22.7910   44.1690 C   0  0  0  0  0  0  0  0  0  0  0  0
   58.1279   22.0501   43.5891 H   0  0  0  0  0  0  0  0  0  0  0  0
   56.2000   22.9860   43.9080 C   0  0  0  0  0  0  0  0  0  0  0  0
   55.5680   22.2420   42.9180 O   0  0  0  0  0  0  0  0  0  0  0  0
   55.4760   23.9330   44.6390 C   0  0  0  0  0  0  0  0  0  0  0  0
   54.4071   24.0873   44.4300 H   0  0  0  0  0  0  0  0  0  0  0  0
   56.1080   24.6850   45.6360 C   0  0  0  0  0  0  0  0  0  0  0  0
   55.3770   25.6510   46.3200 O   0  0  0  0  0  0  0  0  0  0  0  0
   57.2980   27.9280   45.2770 C   0  0  0  0  0  0  0  0  0  0  0  0
   56.8012   26.9515   45.3749 H   0  0  0  0  0  0  0  0  0  0  0  0
   56.5350   29.0750   45.0280 C   0  0  0  0  0  0  0  0  0  0  0  0
   55.1530   28.9710   44.9090 O   0  0  0  0  0  0  0  0  0  0  0  0
  1  2  1  0
  2  3  1  0
  3  4  2  0
  4  5  1  0
  4  6  1  0
  6  7  1  0
  6  8  2  0
  8  9  1  0
  9 10  1  0
  9 11  2  0
 11 12  1  0
 11 13  1  0
 13 14  2  0
 13 15  1  0
 15 16  2  0
 16 17  1  0
 16 18  1  0
 18 19  1  0
 18 20  2  0
 20 21  1  0
 20 22  1  0
 22 23  1  0
 22 24  2  0
 24 25  1  0
  8 26  1  0
 26 27  1  0
 26 28  2  0
 28 29  1  0
 28  3  1  0
 24 15  1  0
M  CHG  3  21  -1  25  -1  29  -1
M  END
>  <UniqueID>  (92) 
82

>  <SMILES>  (92) 
O=C(/C=C/c1ccc(O)c([O-])c1)c1ccc([O-])cc1[O-]

>  <Energy>  (92) 
38.58179945408117

>  <Genealogy>  (92) 
O=C(C=Cc1ccc(O)c([O-])c1)c1ccc([O-])cc1[O-] (protonated)
O=C(/C=C/c1ccc(O)c([O-])c1)c1ccc([O-])cc1[O-] (cis-trans isomerization)
O=C(/C=C/c1ccc(O)c([O-])c1)c1ccc([O-])cc1[O-] (3D coordinates assigned)
O=C(/C=C/c1ccc(O)c([O-])c1)c1ccc([O-])cc1[O-] (optimized conformer: 38.58179945408117 kcal/mol)

>  <smiles>  (92) 
O=C(C=Cc1ccc(O)c(O)c1)c1ccc(O)cc1O

>  <score_type>  (92) 
oracle

>  <origin>  (92) 
adg

>  <m_score__min__energy>  (92) 
-15.67

>  <m_primary>  (92) 
energy

$$$$
92:0
     RDKit          3D

 35 37  0  0  0  0  0  0  0  0999 V2000
   54.2130   22.3060   45.6250 O   0  0  0  0  0  0  0  0  0  0  0  0
   55.0560   23.2410   45.6330 C   0  0  0  0  0  0  0  0  0  0  0  0
   56.3840   22.9930   45.2960 C   0  0  0  0  0  0  0  0  0  0  0  0
   57.2860   24.0540   45.3200 C   0  0  0  0  0  0  0  0  0  0  0  0
   56.8730   25.3090   45.6710 N   0  0  0  0  0  0  0  0  0  0  0  0
   57.8350   26.3840   45.6960 C   0  0  0  0  0  0  0  0  0  0  0  0
   58.9370   26.3400   46.5600 C   0  0  0  0  0  0  0  0  0  0  0  0
   59.8430   27.3530   46.5660 N   0  0  0  0  0  0  0  0  0  0  0  0
   59.7180   28.4330   45.7510 C   0  0  0  0  0  0  0  0  0  0  0  0
   58.6320   28.5290   44.8640 C   0  0  0  0  0  0  0  0  0  0  0  0
   58.4570   29.6540   43.9840 N   0  0  0  0  0  0  0  0  0  0  0  0
   57.5080   31.0550   44.3760 S   0  0  0  0  0  0  0  0  0  0  0  0
   57.4280   31.9460   43.1690 O   0  0  0  0  0  0  0  0  0  0  0  0
   56.1220   30.6220   44.7590 O   0  0  0  0  0  0  0  0  0  0  0  0
   58.2300   31.9100   45.7360 C   0  0  0  0  0  0  0  0  0  0  0  0
   58.5770   31.2190   46.9060 C   0  0  0  0  0  0  0  0  0  0  0  0
   59.1400   31.9060   47.9860 C   0  0  0  0  0  0  0  0  0  0  0  0
   59.3620   33.2850   47.9020 C   0  0  0  0  0  0  0  0  0  0  0  0
   60.1290   34.2220   49.3780 Br  0  0  0  0  0  0  0  0  0  0  0  0
   59.0200   33.9760   46.7340 C   0  0  0  0  0  0  0  0  0  0  0  0
   58.4580   33.2900   45.6530 C   0  0  0  0  0  0  0  0  0  0  0  0
   57.6950   27.4870   44.8410 C   0  0  0  0  0  0  0  0  0  0  0  0
   55.5570   25.5270   45.9900 C   0  0  0  0  0  0  0  0  0  0  0  0
   55.1460   26.6820   46.2910 O   0  0  0  0  0  0  0  0  0  0  0  0
   54.6700   24.4960   45.9700 N   0  0  0  0  0  0  0  0  0  0  0  0
   56.7136   21.9813   45.0169 H   0  0  0  0  0  0  0  0  0  0  0  0
   58.3393   23.8807   45.0544 H   0  0  0  0  0  0  0  0  0  0  0  0
   59.0694   25.4824   47.2360 H   0  0  0  0  0  0  0  0  0  0  0  0
   60.4697   29.2353   45.7856 H   0  0  0  0  0  0  0  0  0  0  0  0
   58.8620   29.6130   43.0210 H   0  0  0  0  0  0  0  0  0  0  0  0
   58.4060   30.1345   46.9742 H   0  0  0  0  0  0  0  0  0  0  0  0
   59.4088   31.3614   48.9032 H   0  0  0  0  0  0  0  0  0  0  0  0
   59.1935   35.0601   46.6663 H   0  0  0  0  0  0  0  0  0  0  0  0
   58.1941   33.8352   44.7348 H   0  0  0  0  0  0  0  0  0  0  0  0
   56.8430   27.5346   44.1469 H   0  0  0  0  0  0  0  0  0  0  0  0
  1  2  2  0
  2  3  1  0
  3  4  2  0
  4  5  1  0
  5  6  1  0
  6  7  2  0
  7  8  1  0
  8  9  2  0
  9 10  1  0
 10 11  1  0
 11 12  1  0
 12 13  2  0
 12 14  2  0
 12 15  1  0
 15 16  2  0
 16 17  1  0
 17 18  2  0
 18 19  1  0
 18 20  1  0
 20 21  2  0
 10 22  2  0
  5 23  1  0
 23 24  2  0
 23 25  1  0
 25  2  1  0
 22  6  1  0
 21 15  1  0
  3 26  1  0
  4 27  1  0
  7 28  1  0
  9 29  1  0
 11 30  1  0
 16 31  1  0
 17 32  1  0
 20 33  1  0
 21 34  1  0
 22 35  1  0
M  CHG  1  25  -1
M  END
>  <UniqueID>  (93) 
83

>  <SMILES>  (93) 
O=c1ccn(-c2cncc(NS(=O)(=O)c3ccc(Br)cc3)c2)c(=O)[n-]1

>  <Energy>  (93) 
50.46632128884592

>  <Genealogy>  (93) 
O=c1ccn(-c2cncc(NS(=O)(=O)c3ccc(Br)cc3)c2)c(=O)[n-]1 (protonated)
O=c1ccn(-c2cncc(NS(=O)(=O)c3ccc(Br)cc3)c2)c(=O)[n-]1 (3D coordinates assigned)
O=c1ccn(-c2cncc(NS(=O)(=O)c3ccc(Br)cc3)c2)c(=O)[n-]1 (optimized conformer: 50.46632128884592 kcal/mol)

>  <smiles>  (93) 
O=c1ccn(-c2cncc(NS(=O)(=O)c3ccc(Br)cc3)c2)c(=O)[nH]1

>  <score_type>  (93) 
oracle

>  <origin>  (93) 
adg

>  <m_score__min__energy>  (93) 
-10.98

>  <m_primary>  (93) 
energy

$$$$
93:0
     RDKit          3D

 41 43  0  0  0  0  0  0  0  0999 V2000
   58.0280   31.8554   41.5446 H   0  0  0  0  0  0  0  0  0  0  0  0
   57.7430   31.8480   42.6070 C   0  0  0  0  0  0  0  0  0  0  0  0
   57.0300   30.8060   43.1120 N   0  0  0  0  0  0  0  0  0  0  0  0
   56.6720   30.7760   44.4230 C   0  0  0  0  0  0  0  0  0  0  0  0
   55.9990   29.7600   44.8780 N   0  0  0  0  0  0  0  0  0  0  0  0
   56.5810   28.4660   45.2410 C   0  0  0  0  0  0  0  0  0  0  0  0
   56.0428   28.0613   46.1108 H   0  0  0  0  0  0  0  0  0  0  0  0
   56.4894   27.7877   44.3799 H   0  0  0  0  0  0  0  0  0  0  0  0
   58.0410   28.6060   45.5870 C   0  0  0  0  0  0  0  0  0  0  0  0
   59.0140   28.5360   44.5780 C   0  0  0  0  0  0  0  0  0  0  0  0
   58.7082   28.3989   43.5303 H   0  0  0  0  0  0  0  0  0  0  0  0
   60.3710   28.6400   44.9000 C   0  0  0  0  0  0  0  0  0  0  0  0
   61.1299   28.5848   44.1056 H   0  0  0  0  0  0  0  0  0  0  0  0
   60.7640   28.8140   46.2300 C   0  0  0  0  0  0  0  0  0  0  0  0
   61.8317   28.8958   46.4816 H   0  0  0  0  0  0  0  0  0  0  0  0
   59.8010   28.8840   47.2400 C   0  0  0  0  0  0  0  0  0  0  0  0
   60.1116   29.0204   48.2864 H   0  0  0  0  0  0  0  0  0  0  0  0
   58.4440   28.7810   46.9230 C   0  0  0  0  0  0  0  0  0  0  0  0
   57.6887   28.8370   47.7208 H   0  0  0  0  0  0  0  0  0  0  0  0
   57.0220   31.8050   45.2410 N   0  0  0  0  0  0  0  0  0  0  0  0
   57.7310   32.8640   44.7760 C   0  0  0  0  0  0  0  0  0  0  0  0
   58.1540   34.2010   45.8920 S   0  0  0  0  0  0  0  0  0  0  0  0
   58.7210   33.1140   47.2490 C   0  0  0  0  0  0  0  0  0  0  0  0
   58.3512   32.0941   47.0672 H   0  0  0  0  0  0  0  0  0  0  0  0
   58.3272   33.5126   48.1956 H   0  0  0  0  0  0  0  0  0  0  0  0
   60.2310   33.0790   47.3430 C   0  0  0  0  0  0  0  0  0  0  0  0
   60.9810   33.8540   46.4400 C   0  0  0  0  0  0  0  0  0  0  0  0
   60.4622   34.4900   45.7076 H   0  0  0  0  0  0  0  0  0  0  0  0
   62.3760   33.8250   46.4630 C   0  0  0  0  0  0  0  0  0  0  0  0
   62.9496   34.4362   45.7506 H   0  0  0  0  0  0  0  0  0  0  0  0
   63.0440   33.0230   47.3870 C   0  0  0  0  0  0  0  0  0  0  0  0
   64.1437   33.0022   47.4031 H   0  0  0  0  0  0  0  0  0  0  0  0
   62.3190   32.2470   48.2910 C   0  0  0  0  0  0  0  0  0  0  0  0
   62.8529   31.6123   49.0135 H   0  0  0  0  0  0  0  0  0  0  0  0
   60.9120   32.2670   48.2890 C   0  0  0  0  0  0  0  0  0  0  0  0
   60.1710   31.3970   49.2700 C   0  0  0  0  0  0  0  0  0  0  0  0
   60.4286   31.6995   50.2957 H   0  0  0  0  0  0  0  0  0  0  0  0
   59.0878   31.5104   49.1154 H   0  0  0  0  0  0  0  0  0  0  0  0
   60.4553   30.3457   49.1154 H   0  0  0  0  0  0  0  0  0  0  0  0
   58.1130   32.9070   43.4350 C   0  0  0  0  0  0  0  0  0  0  0  0
   58.6917   33.7553   43.0407 H   0  0  0  0  0  0  0  0  0  0  0  0
  1  2  1  0
  2  3  1  0
  3  4  1  0
  4  5  2  0
  5  6  1  0
  6  7  1  0
  6  8  1  0
  6  9  1  0
  9 10  2  0
 10 11  1  0
 10 12  1  0
 12 13  1  0
 12 14  2  0
 14 15  1  0
 14 16  1  0
 16 17  1  0
 16 18  2  0
 18 19  1  0
  4 20  1  0
 20 21  2  0
 21 22  1  0
 22 23  1  0
 23 24  1  0
 23 25  1  0
 23 26  1  0
 26 27  2  0
 27 28  1  0
 27 29  1  0
 29 30  1  0
 29 31  2  0
 31 32  1  0
 31 33  1  0
 33 34  1  0
 33 35  2  0
 35 36  1  0
 36 37  1  0
 36 38  1  0
 36 39  1  0
 21 40  1  0
 40 41  1  0
 40  2  2  0
 18  9  1  0
 35 26  1  0
M  CHG  1   3  -1
M  END
>  <UniqueID>  (94) 
84

>  <SMILES>  (94) 
Cc1ccccc1CSc1cc[n-]/c(=N/Cc2ccccc2)n1

>  <Energy>  (94) 
36.9421076325368

>  <Genealogy>  (94) 
Cc1ccccc1CSc1cc[n-]c(=NCc2ccccc2)n1 (protonated)
Cc1ccccc1CSc1cc[n-]/c(=N/Cc2ccccc2)n1 (cis-trans isomerization)
Cc1ccccc1CSc1cc[n-]/c(=N/Cc2ccccc2)n1 (3D coordinates assigned)
Cc1ccccc1CSc1cc[n-]/c(=N/Cc2ccccc2)n1 (optimized conformer: 36.9421076325368 kcal/mol)

>  <smiles>  (94) 
Cc1ccccc1CSc1cc[nH]c(=NCc2ccccc2)n1

>  <score_type>  (94) 
oracle

>  <origin>  (94) 
adg

>  <m_score__min__energy>  (94) 
-9.7100000000000009

>  <m_primary>  (94) 
energy

$$$$
94:0
     RDKit          3D

 68 73  0  0  0  0  0  0  0  0999 V2000
   65.9370   26.7840   54.5990 C   0  0  0  0  0  0  0  0  0  0  0  0
   64.5550   27.0740   54.7770 O   0  0  0  0  0  0  0  0  0  0  0  0
   63.6540   27.3090   53.7280 C   0  0  0  0  0  0  0  0  0  0  0  0
   62.3880   26.6960   53.6700 C   0  0  0  0  0  0  0  0  0  0  0  0
   61.5270   26.9610   52.6010 C   0  0  0  0  0  0  0  0  0  0  0  0
   61.9210   27.8240   51.5680 C   0  0  0  0  0  0  0  0  0  0  0  0
   61.0050   28.0860   50.4430 C   0  0  0  0  0  0  0  0  0  0  0  0
   60.5480   27.1170   49.6250 N   0  0  0  0  0  0  0  0  0  0  0  0
   59.8020   27.6880   48.6900 N   0  0  0  0  0  0  0  0  0  0  0  0
   59.1640   26.9540   47.6240 C   0  0  0  0  0  0  0  0  0  0  0  0
   57.8120   27.1940   47.3190 C   0  0  0  0  0  0  0  0  0  0  0  0
   57.1710   26.4700   46.3090 C   0  0  0  0  0  0  0  0  0  0  0  0
   57.8710   25.4960   45.5940 C   0  0  0  0  0  0  0  0  0  0  0  0
   59.2150   25.2460   45.8870 C   0  0  0  0  0  0  0  0  0  0  0  0
   59.8610   25.9690   46.8940 C   0  0  0  0  0  0  0  0  0  0  0  0
   59.7780   29.0230   48.8880 C   0  0  0  0  0  0  0  0  0  0  0  0
   60.5280   29.3150   50.0080 C   0  0  0  0  0  0  0  0  0  0  0  0
   60.9280   30.6930   50.4410 C   0  0  0  0  0  0  0  0  0  0  0  0
   60.5620   31.6530   49.3810 N   0  0  0  0  0  0  0  0  0  0  0  0
   59.2980   32.3510   49.6910 C   0  0  0  0  0  0  0  0  0  0  0  0
   58.9200   33.3750   48.5990 C   0  0  0  0  0  0  0  0  0  0  0  0
   59.8790   33.3330   47.3920 C   0  0  0  0  0  0  0  0  0  0  0  0
   59.6830   32.0980   46.6020 N   0  0  0  0  0  0  0  0  0  0  0  0
   60.6330   31.1530   46.4150 C   0  0  0  0  0  0  0  0  0  0  0  0
   60.1070   30.1300   45.6630 C   0  0  0  0  0  0  0  0  0  0  0  0
   60.7110   28.9600   45.2150 C   0  0  0  0  0  0  0  0  0  0  0  0
   59.9340   28.0700   44.4620 C   0  0  0  0  0  0  0  0  0  0  0  0
   58.5800   28.3550   44.1900 C   0  0  0  0  0  0  0  0  0  0  0  0
   57.9700   29.5440   44.6610 C   0  0  0  0  0  0  0  0  0  0  0  0
   56.5270   29.7830   44.3900 C   0  0  0  0  0  0  0  0  0  0  0  0
   55.5150   28.9670   44.9710 N   0  0  0  0  0  0  0  0  0  0  0  0
   56.1800   30.7230   43.6230 O   0  0  0  0  0  0  0  0  0  0  0  0
   58.7920   30.4300   45.3920 C   0  0  0  0  0  0  0  0  0  0  0  0
   58.5540   31.6630   45.9790 C   0  0  0  0  0  0  0  0  0  0  0  0
   61.3300   33.5120   47.8980 C   0  0  0  0  0  0  0  0  0  0  0  0
   61.6480   32.6230   49.1230 C   0  0  0  0  0  0  0  0  0  0  0  0
   63.1730   28.4520   51.6390 C   0  0  0  0  0  0  0  0  0  0  0  0
   64.0330   28.1910   52.7090 C   0  0  0  0  0  0  0  0  0  0  0  0
   66.4200   26.6827   55.5821 H   0  0  0  0  0  0  0  0  0  0  0  0
   66.0451   25.8436   54.0387 H   0  0  0  0  0  0  0  0  0  0  0  0
   66.4140   27.6016   54.0387 H   0  0  0  0  0  0  0  0  0  0  0  0
   62.0754   26.0066   54.4681 H   0  0  0  0  0  0  0  0  0  0  0  0
   60.5337   26.4894   52.5698 H   0  0  0  0  0  0  0  0  0  0  0  0
   57.2540   27.9581   47.8801 H   0  0  0  0  0  0  0  0  0  0  0  0
   56.1140   26.6679   46.0774 H   0  0  0  0  0  0  0  0  0  0  0  0
   57.3653   24.9258   44.8008 H   0  0  0  0  0  0  0  0  0  0  0  0
   59.7656   24.4783   45.3236 H   0  0  0  0  0  0  0  0  0  0  0  0
   60.9191   25.7685   47.1183 H   0  0  0  0  0  0  0  0  0  0  0  0
   59.2487   29.7556   48.2609 H   0  0  0  0  0  0  0  0  0  0  0  0
   60.4040   30.9539   51.3723 H   0  0  0  0  0  0  0  0  0  0  0  0
   62.0133   30.7279   50.6165 H   0  0  0  0  0  0  0  0  0  0  0  0
   58.4924   31.6066   49.7740 H   0  0  0  0  0  0  0  0  0  0  0  0
   59.4342   32.8969   50.6362 H   0  0  0  0  0  0  0  0  0  0  0  0
   57.9009   33.1558   48.2476 H   0  0  0  0  0  0  0  0  0  0  0  0
   58.9874   34.3785   49.0444 H   0  0  0  0  0  0  0  0  0  0  0  0
   59.6592   34.1616   46.7027 H   0  0  0  0  0  0  0  0  0  0  0  0
   61.6615   31.1965   46.8027 H   0  0  0  0  0  0  0  0  0  0  0  0
   61.7642   28.7406   45.4444 H   0  0  0  0  0  0  0  0  0  0  0  0
   60.3837   27.1416   44.0800 H   0  0  0  0  0  0  0  0  0  0  0  0
   57.9861   27.6407   43.6010 H   0  0  0  0  0  0  0  0  0  0  0  0
   54.5600   29.3470   45.1540 H   0  0  0  0  0  0  0  0  0  0  0  0
   57.5984   32.2068   45.9462 H   0  0  0  0  0  0  0  0  0  0  0  0
   62.0216   33.2499   47.0838 H   0  0  0  0  0  0  0  0  0  0  0  0
   61.4469   34.5607   48.2088 H   0  0  0  0  0  0  0  0  0  0  0  0
   62.5817   32.0732   48.9337 H   0  0  0  0  0  0  0  0  0  0  0  0
   61.7498   33.2721   50.0052 H   0  0  0  0  0  0  0  0  0  0  0  0
   63.4794   29.1532   50.8488 H   0  0  0  0  0  0  0  0  0  0  0  0
   65.0161   28.6827   52.7510 H   0  0  0  0  0  0  0  0  0  0  0  0
  1  2  1  0
  2  3  1  0
  3  4  2  0
  4  5  1  0
  5  6  2  0
  6  7  1  0
  7  8  2  0
  8  9  1  0
  9 10  1  0
 10 11  2  0
 11 12  1  0
 12 13  2  0
 13 14  1  0
 14 15  2  0
  9 16  1  0
 16 17  2  0
 17 18  1  0
 18 19  1  0
 19 20  1  0
 20 21  1  0
 21 22  1  0
 22 23  1  0
 23 24  1  0
 24 25  2  0
 25 26  1  0
 26 27  2  0
 27 28  1  0
 28 29  2  0
 29 30  1  0
 30 31  1  0
 30 32  2  0
 29 33  1  0
 33 34  2  0
 22 35  1  0
 35 36  1  0
  6 37  1  0
 37 38  2  0
 38  3  1  0
 17  7  1  0
 36 19  1  0
 15 10  1  0
 34 23  1  0
 33 25  1  0
  1 39  1  0
  1 40  1  0
  1 41  1  0
  4 42  1  0
  5 43  1  0
 11 44  1  0
 12 45  1  0
 13 46  1  0
 14 47  1  0
 15 48  1  0
 16 49  1  0
 18 50  1  0
 18 51  1  0
 20 52  1  0
 20 53  1  0
 21 54  1  0
 21 55  1  0
 22 56  1  0
 24 57  1  0
 26 58  1  0
 27 59  1  0
 28 60  1  0
 31 61  1  0
 34 62  1  0
 35 63  1  0
 35 64  1  0
 36 65  1  0
 36 66  1  0
 37 67  1  0
 38 68  1  0
M  CHG  1  31  -1
M  END
>  <UniqueID>  (95) 
85

>  <SMILES>  (95) 
COc1ccc(-c2nn(-c3ccccc3)cc2CN2CCC(n3cc4cccc(C([NH-])=O)c4c3)CC2)cc1

>  <Energy>  (95) 
149.21175141449788

>  <Genealogy>  (95) 
COc1ccc(-c2nn(-c3ccccc3)cc2CN2CCC(n3cc4cccc(C([NH-])=O)c4c3)CC2)cc1 (protonated)
COc1ccc(-c2nn(-c3ccccc3)cc2CN2CCC(n3cc4cccc(C([NH-])=O)c4c3)CC2)cc1 (3D coordinates assigned)
COc1ccc(-c2nn(-c3ccccc3)cc2CN2CCC(n3cc4cccc(C([NH-])=O)c4c3)CC2)cc1 (nonaromatic ring conformer: 149.21175141449788 kcal/mol)

>  <smiles>  (95) 
COc1ccc(-c2nn(-c3ccccc3)cc2CN2CCC(n3cc4cccc(C(N)=O)c4c3)CC2)cc1

>  <score_type>  (95) 
oracle

>  <origin>  (95) 
adg

>  <m_score__min__energy>  (95) 
-13.92

>  <m_primary>  (95) 
energy

$$$$
95:0
     RDKit          3D

 45 47  0  0  0  0  0  0  0  0999 V2000
   56.5260   23.1550   43.1580 C   0  0  0  0  0  0  0  0  0  0  0  0
   57.1940   23.8100   44.2320 O   0  0  0  0  0  0  0  0  0  0  0  0
   57.3410   25.2010   44.3430 C   0  0  0  0  0  0  0  0  0  0  0  0
   57.7620   26.0030   43.2670 C   0  0  0  0  0  0  0  0  0  0  0  0
   57.8940   27.3850   43.4240 C   0  0  0  0  0  0  0  0  0  0  0  0
   57.6090   27.9950   44.6580 C   0  0  0  0  0  0  0  0  0  0  0  0
   57.7500   29.4630   44.8260 C   0  0  0  0  0  0  0  0  0  0  0  0
   57.2100   30.3470   43.8760 C   0  0  0  0  0  0  0  0  0  0  0  0
   57.3490   31.7290   44.0310 C   0  0  0  0  0  0  0  0  0  0  0  0
   58.0280   32.2530   45.1420 C   0  0  0  0  0  0  0  0  0  0  0  0
   58.2200   33.7390   45.2880 C   0  0  0  0  0  0  0  0  0  0  0  0
   57.9840   34.2330   46.7290 C   0  0  0  0  0  0  0  0  0  0  0  0
   59.1560   34.9670   47.2850 N   0  0  0  0  0  0  0  0  0  0  0  0
   60.3160   34.9370   46.3700 C   0  0  0  0  0  0  0  0  0  0  0  0
   61.2190   33.7820   46.7910 C   0  0  0  0  0  0  0  0  0  0  0  0
   60.6770   33.3010   48.1240 C   0  0  0  0  0  0  0  0  0  0  0  0
   59.6530   34.3470   48.5240 C   0  0  0  0  0  0  0  0  0  0  0  0
   58.5710   31.3760   46.0910 C   0  0  0  0  0  0  0  0  0  0  0  0
   58.4330   29.9930   45.9370 C   0  0  0  0  0  0  0  0  0  0  0  0
   57.1880   27.1890   45.7320 C   0  0  0  0  0  0  0  0  0  0  0  0
   57.0570   25.8060   45.5740 C   0  0  0  0  0  0  0  0  0  0  0  0
   56.6550   25.0490   46.6240 F   0  0  0  0  0  0  0  0  0  0  0  0
   55.7957   22.4389   43.5627 H   0  0  0  0  0  0  0  0  0  0  0  0
   56.0044   23.9014   42.5409 H   0  0  0  0  0  0  0  0  0  0  0  0
   57.2620   22.6188   42.5409 H   0  0  0  0  0  0  0  0  0  0  0  0
   57.9888   25.5392   42.2957 H   0  0  0  0  0  0  0  0  0  0  0  0
   58.2238   28.0011   42.5745 H   0  0  0  0  0  0  0  0  0  0  0  0
   56.6733   29.9476   43.0028 H   0  0  0  0  0  0  0  0  0  0  0  0
   56.9241   32.4095   43.2784 H   0  0  0  0  0  0  0  0  0  0  0  0
   59.2497   33.9909   44.9943 H   0  0  0  0  0  0  0  0  0  0  0  0
   57.4791   34.2337   44.6428 H   0  0  0  0  0  0  0  0  0  0  0  0
   57.1137   34.9057   46.7322 H   0  0  0  0  0  0  0  0  0  0  0  0
   57.8165   33.3479   47.3603 H   0  0  0  0  0  0  0  0  0  0  0  0
   58.8940   35.9600   47.4940 H   0  0  0  0  0  0  0  0  0  0  0  0
   59.9722   34.7844   45.3363 H   0  0  0  0  0  0  0  0  0  0  0  0
   60.8654   35.8887   46.4184 H   0  0  0  0  0  0  0  0  0  0  0  0
   61.1792   32.9732   46.0465 H   0  0  0  0  0  0  0  0  0  0  0  0
   62.2700   34.0968   46.8702 H   0  0  0  0  0  0  0  0  0  0  0  0
   60.2021   32.3146   48.0164 H   0  0  0  0  0  0  0  0  0  0  0  0
   61.4696   33.1850   48.8779 H   0  0  0  0  0  0  0  0  0  0  0  0
   58.8225   33.8727   49.0673 H   0  0  0  0  0  0  0  0  0  0  0  0
   60.1043   35.1022   49.1843 H   0  0  0  0  0  0  0  0  0  0  0  0
   59.1089   31.7781   46.9622 H   0  0  0  0  0  0  0  0  0  0  0  0
   58.8612   29.3144   46.6894 H   0  0  0  0  0  0  0  0  0  0  0  0
   56.9601   27.6509   46.7039 H   0  0  0  0  0  0  0  0  0  0  0  0
  1  2  1  0
  2  3  1  0
  3  4  2  0
  4  5  1  0
  5  6  2  0
  6  7  1  0
  7  8  2  0
  8  9  1  0
  9 10  2  0
 10 11  1  0
 11 12  1  0
 12 13  1  0
 13 14  1  0
 14 15  1  0
 15 16  1  0
 16 17  1  0
 10 18  1  0
 18 19  2  0
  6 20  1  0
 20 21  2  0
 21 22  1  0
 21  3  1  0
 19  7  1  0
 17 13  1  0
  1 23  1  0
  1 24  1  0
  1 25  1  0
  4 26  1  0
  5 27  1  0
  8 28  1  0
  9 29  1  0
 11 30  1  0
 11 31  1  0
 12 32  1  0
 12 33  1  0
 13 34  1  0
 14 35  1  0
 14 36  1  0
 15 37  1  0
 15 38  1  0
 16 39  1  0
 16 40  1  0
 17 41  1  0
 17 42  1  0
 18 43  1  0
 19 44  1  0
 20 45  1  0
M  CHG  1  13   1
M  END
>  <UniqueID>  (96) 
86

>  <SMILES>  (96) 
COc1ccc(-c2ccc(CC[NH+]3CCCC3)cc2)cc1F

>  <Energy>  (96) 
54.45730767211066

>  <Genealogy>  (96) 
COc1ccc(-c2ccc(CC[NH+]3CCCC3)cc2)cc1F (protonated)
COc1ccc(-c2ccc(CC[NH+]3CCCC3)cc2)cc1F (3D coordinates assigned)
COc1ccc(-c2ccc(CC[NH+]3CCCC3)cc2)cc1F (nonaromatic ring conformer: 54.45730767211066 kcal/mol)

>  <smiles>  (96) 
COc1ccc(-c2ccc(CCN3CCCC3)cc2)cc1F

>  <score_type>  (96) 
oracle

>  <origin>  (96) 
adg

>  <m_score__min__energy>  (96) 
-5.3799999999999999

>  <m_primary>  (96) 
energy

$$$$
96:0
     RDKit          3D

 39 41  0  0  1  0  0  0  0  0999 V2000
   53.6510   24.7730   45.9540 O   0  0  0  0  0  0  0  0  0  0  0  0
   54.8180   25.1220   45.6290 N   0  0  0  0  0  0  0  0  0  0  0  0
   55.1830   26.3950   45.9950 O   0  0  0  0  0  0  0  0  0  0  0  0
   55.6610   24.2250   44.9360 C   0  0  0  0  0  0  0  0  0  0  0  0
   55.1850   23.6020   43.8040 C   0  0  0  0  0  0  0  0  0  0  0  0
   55.9420   22.7090   43.0650 C   0  0  0  0  0  0  0  0  0  0  0  0
   57.2290   22.4180   43.4630 C   0  0  0  0  0  0  0  0  0  0  0  0
   57.7150   23.0460   44.6100 C   0  0  0  0  0  0  0  0  0  0  0  0
   56.9570   23.9350   45.3420 C   0  0  0  0  0  0  0  0  0  0  0  0
   57.4570   24.6130   46.5640 C   0  0  0  0  0  0  0  0  0  0  0  0
   56.6050   29.5910   45.2290 N   0  0  0  0  0  0  0  0  0  0  0  0
   57.4210   28.8770   45.9400 C   0  0  0  0  0  0  0  0  0  0  0  0
   59.1750   27.4100   47.4830 C   0  0  0  0  0  0  0  0  0  0  0  0
   59.0190   28.7670   47.6700 C   0  0  0  0  0  0  0  0  0  0  0  0
   58.1640   29.4700   46.9150 N   0  0  0  0  0  0  0  0  0  0  0  0
   58.4080   26.8240   46.4820 C   0  0  0  0  0  0  0  0  0  0  0  0
   58.5310   25.5550   46.2830 N   0  0  0  0  0  0  0  0  0  0  0  0
   57.0700   30.6610   44.4510 C   0  0  0  0  0  0  0  0  0  0  0  0
   57.6830   31.7880   44.9720 C   0  0  0  0  0  0  0  0  0  0  0  0
   58.1080   32.7930   44.1120 C   0  0  0  0  0  0  0  0  0  0  0  0
   57.9270   32.6810   42.7430 C   0  0  0  0  0  0  0  0  0  0  0  0
   57.3170   31.5600   42.2090 C   0  0  0  0  0  0  0  0  0  0  0  0
   56.8970   30.5670   43.0700 C   0  0  0  0  0  0  0  0  0  0  0  0
   57.5490   27.5430   45.7280 N   0  0  0  0  0  0  0  0  0  0  0  0
   54.1597   23.8233   43.4728 H   0  0  0  0  0  0  0  0  0  0  0  0
   55.5194   22.2352   42.1667 H   0  0  0  0  0  0  0  0  0  0  0  0
   57.8532   21.7130   42.8943 H   0  0  0  0  0  0  0  0  0  0  0  0
   58.7398   22.8239   44.9423 H   0  0  0  0  0  0  0  0  0  0  0  0
   56.6232   25.1584   47.0302 H   0  0  0  0  0  0  0  0  0  0  0  0
   57.8603   23.8385   47.2329 H   0  0  0  0  0  0  0  0  0  0  0  0
   59.8722   26.8197   48.0957 H   0  0  0  0  0  0  0  0  0  0  0  0
   59.6036   29.2788   48.4486 H   0  0  0  0  0  0  0  0  0  0  0  0
   58.0730   30.5050   47.0890 H   0  0  0  0  0  0  0  0  0  0  0  0
   57.8322   31.8867   46.0574 H   0  0  0  0  0  0  0  0  0  0  0  0
   58.5947   33.6896   44.5235 H   0  0  0  0  0  0  0  0  0  0  0  0
   58.2699   33.4871   42.0776 H   0  0  0  0  0  0  0  0  0  0  0  0
   57.1702   31.4626   41.1232 H   0  0  0  0  0  0  0  0  0  0  0  0
   56.4101   29.6726   42.6541 H   0  0  0  0  0  0  0  0  0  0  0  0
   56.9840   27.0870   44.9850 H   0  0  0  0  0  0  0  0  0  0  0  0
  1  2  2  0
  2  3  1  0
  2  4  1  0
  4  5  2  0
  5  6  1  0
  6  7  2  0
  7  8  1  0
  8  9  2  0
  9 10  1  0
 10 11  1  0
 11 12  2  0
 12 13  1  0
 13 14  2  0
 14 15  1  0
 15 16  1  0
 16 17  2  0
 17 18  1  0
 18 19  2  0
 19 20  1  0
 20 21  2  0
 21 22  1  0
 22 23  2  0
 16 24  1  0
  9  4  1  0
 24 12  1  0
 23 18  1  0
  5 25  1  0
  6 26  1  0
  7 27  1  0
  8 28  1  0
 10 29  1  0
 10 30  1  0
 13 31  1  0
 14 32  1  0
 15 33  1  0
 19 34  1  0
 20 35  1  0
 21 36  1  0
 22 37  1  0
 23 38  1  0
 24 39  1  0
M  CHG  2   2   1   3  -1
M  END
>  <smiles>  (97) 
O=[N+]([O-])c1ccccc1CN=c1cc[nH]c(=Nc2ccccc2)[nH]1

>  <score_type>  (97) 
oracle

>  <origin>  (97) 
adg

>  <m_score__min__energy>  (97) 
-8.7300000000000004

>  <m_primary>  (97) 
energy

$$$$
