0:0
     RDKit          3D

 41 43  0  0  0  0  0  0  0  0999 V2000
   57.4317   32.2694   47.8365 H   0  0  0  0  0  0  0  0  0  0  0  0
   58.3170   32.8580   47.5540 C   0  0  0  0  0  0  0  0  0  0  0  0
   58.4120   33.3010   46.2850 C   0  0  0  0  0  0  0  0  0  0  0  0
   57.3410   32.9890   45.3060 C   0  0  0  0  0  0  0  0  0  0  0  0
   56.6190   33.9240   44.8690 O   0  0  0  0  0  0  0  0  0  0  0  0
   57.0620   31.6480   44.8710 N   0  0  0  0  0  0  0  0  0  0  0  0
   57.7090   30.5750   45.2290 C   0  0  0  0  0  0  0  0  0  0  0  0
   59.0300   30.6350   45.5640 N   0  0  0  0  0  0  0  0  0  0  0  0
   59.7350   29.5330   45.9280 C   0  0  0  0  0  0  0  0  0  0  0  0
   60.7978   29.6237   46.1967 H   0  0  0  0  0  0  0  0  0  0  0  0
   59.1110   28.2860   45.9610 C   0  0  0  0  0  0  0  0  0  0  0  0
   59.6754   27.3899   46.2584 H   0  0  0  0  0  0  0  0  0  0  0  0
   57.7640   28.1870   45.6130 C   0  0  0  0  0  0  0  0  0  0  0  0
   57.2629   27.2080   45.6324 H   0  0  0  0  0  0  0  0  0  0  0  0
   57.0440   29.3370   45.2370 C   0  0  0  0  0  0  0  0  0  0  0  0
   55.6870   29.2880   44.8750 O   0  0  0  0  0  0  0  0  0  0  0  0
   55.1730   29.7230   43.6210 C   0  0  0  0  0  0  0  0  0  0  0  0
   54.3431   30.4253   43.7886 H   0  0  0  0  0  0  0  0  0  0  0  0
   55.9695   30.2255   43.0526 H   0  0  0  0  0  0  0  0  0  0  0  0
   54.8091   28.8544   43.0526 H   0  0  0  0  0  0  0  0  0  0  0  0
   59.6330   34.0560   45.8060 C   0  0  0  0  0  0  0  0  0  0  0  0
   59.3134   34.8353   45.0986 H   0  0  0  0  0  0  0  0  0  0  0  0
   60.3106   33.3349   45.3255 H   0  0  0  0  0  0  0  0  0  0  0  0
   60.3880   34.7160   46.9580 C   0  0  0  0  0  0  0  0  0  0  0  0
   59.8137   35.5777   47.3292 H   0  0  0  0  0  0  0  0  0  0  0  0
   61.3719   35.0607   46.6072 H   0  0  0  0  0  0  0  0  0  0  0  0
   60.5620   33.7430   48.0350 N   0  0  0  0  0  0  0  0  0  0  0  0
   61.8310   33.6020   48.7000 C   0  0  0  0  0  0  0  0  0  0  0  0
   62.9370   33.0680   48.0160 C   0  0  0  0  0  0  0  0  0  0  0  0
   62.8260   32.6500   46.7300 F   0  0  0  0  0  0  0  0  0  0  0  0
   64.1550   32.9300   48.6820 C   0  0  0  0  0  0  0  0  0  0  0  0
   65.0271   32.5156   48.1551 H   0  0  0  0  0  0  0  0  0  0  0  0
   64.2650   33.3180   50.0160 C   0  0  0  0  0  0  0  0  0  0  0  0
   65.2230   33.2173   50.5471 H   0  0  0  0  0  0  0  0  0  0  0  0
   63.1460   33.8360   50.6710 C   0  0  0  0  0  0  0  0  0  0  0  0
   63.2211   34.1419   51.7249 H   0  0  0  0  0  0  0  0  0  0  0  0
   61.9630   33.9640   50.0110 N   0  0  0  0  0  0  0  0  0  0  0  0
   61.1480   34.3640   50.5260 H   0  0  0  0  0  0  0  0  0  0  0  0
   59.3620   33.1280   48.6060 C   0  0  0  0  0  0  0  0  0  0  0  0
   58.9394   33.8064   49.3618 H   0  0  0  0  0  0  0  0  0  0  0  0
   59.6513   32.1666   49.0554 H   0  0  0  0  0  0  0  0  0  0  0  0
  1  2  1  0
  2  3  2  0
  3  4  1  0
  4  5  2  0
  4  6  1  0
  6  7  2  0
  7  8  1  0
  8  9  1  0
  9 10  1  0
  9 11  2  0
 11 12  1  0
 11 13  1  0
 13 14  1  0
 13 15  2  0
 15 16  1  0
 16 17  1  0
 17 18  1  0
 17 19  1  0
 17 20  1  0
  3 21  1  0
 21 22  1  0
 21 23  1  0
 21 24  1  0
 24 25  1  0
 24 26  1  0
 24 27  1  0
 27 28  1  0
 28 29  2  0
 29 30  1  0
 29 31  1  0
 31 32  1  0
 31 33  2  0
 33 34  1  0
 33 35  1  0
 35 36  1  0
 35 37  2  0
 37 38  1  0
 27 39  1  0
 39 40  1  0
 39 41  1  0
 39  2  1  0
 15  7  1  0
 37 28  1  0
M  CHG  2   8  -1  37   1
M  END
>  <UniqueID>  (1) 
1

>  <SMILES>  (1) 
COc1ccc[n-]/c1=N\C(=O)C1=CCN(c2[nH+]cccc2F)CC1

>  <Energy>  (1) 
56.219136601284546

>  <Genealogy>  (1) 
COc1ccc[n-]c1=NC(=O)C1=CCN(c2[nH+]cccc2F)CC1 (protonated)
COc1ccc[n-]/c1=N\C(=O)C1=CCN(c2[nH+]cccc2F)CC1 (cis-trans isomerization)
COc1ccc[n-]/c1=N\C(=O)C1=CCN(c2[nH+]cccc2F)CC1 (3D coordinates assigned)
COc1ccc[n-]/c1=N\C(=O)C1=CCN(c2[nH+]cccc2F)CC1 (nonaromatic ring conformer: 56.219136601284546 kcal/mol)

>  <smiles>  (1) 
COc1ccc[nH]c1=NC(=O)C1=CCN(c2ncccc2F)CC1

>  <score_type>  (1) 
oracle

>  <origin>  (1) 
adg

>  <m_score__min__energy>  (1) 
-7.5999999999999996

>  <m_primary>  (1) 
energy

$$$$
1:0
     RDKit          3D

 36 38  0  0  0  0  0  0  0  0999 V2000
   63.3210   31.7190   47.1370 C   0  0  0  0  0  0  0  0  0  0  0  0
   63.4220   33.0710   46.8010 C   0  0  0  0  0  0  0  0  0  0  0  0
   62.3000   33.9000   46.8770 C   0  0  0  0  0  0  0  0  0  0  0  0
   61.0520   33.3800   47.2820 C   0  0  0  0  0  0  0  0  0  0  0  0
   59.8200   34.2670   47.4140 C   0  0  0  0  0  0  0  0  0  0  0  0
   59.6570   35.1750   46.1760 C   0  0  0  0  0  0  0  0  0  0  0  0
   59.1000   34.4140   44.9620 C   0  0  0  0  0  0  0  0  0  0  0  0
   58.0180   33.4900   45.3410 N   0  0  0  0  0  0  0  0  0  0  0  0
   57.5870   32.4570   44.4250 C   0  0  0  0  0  0  0  0  0  0  0  0
   56.9850   31.3330   44.9070 N   0  0  0  0  0  0  0  0  0  0  0  0
   56.5810   30.3350   44.0800 C   0  0  0  0  0  0  0  0  0  0  0  0
   56.7820   30.4480   42.7080 C   0  0  0  0  0  0  0  0  0  0  0  0
   57.3980   31.5980   42.2210 C   0  0  0  0  0  0  0  0  0  0  0  0
   57.7890   32.5790   43.0780 N   0  0  0  0  0  0  0  0  0  0  0  0
   57.4330   33.5970   46.6860 C   0  0  0  0  0  0  0  0  0  0  0  0
   58.5270   33.4660   47.7540 C   0  0  0  0  0  0  0  0  0  0  0  0
   60.9690   32.0190   47.6310 C   0  0  0  0  0  0  0  0  0  0  0  0
   62.0960   31.1950   47.5540 C   0  0  0  0  0  0  0  0  0  0  0  0
   64.2054   31.0680   47.0731 H   0  0  0  0  0  0  0  0  0  0  0  0
   64.3880   33.4843   46.4755 H   0  0  0  0  0  0  0  0  0  0  0  0
   62.3899   34.9656   46.6193 H   0  0  0  0  0  0  0  0  0  0  0  0
   59.9839   34.9239   48.2810 H   0  0  0  0  0  0  0  0  0  0  0  0
   58.9670   35.9941   46.4268 H   0  0  0  0  0  0  0  0  0  0  0  0
   60.6527   35.5563   45.9056 H   0  0  0  0  0  0  0  0  0  0  0  0
   58.7081   35.1414   44.2358 H   0  0  0  0  0  0  0  0  0  0  0  0
   59.9180   33.8205   44.5277 H   0  0  0  0  0  0  0  0  0  0  0  0
   56.0957   29.4388   44.4939 H   0  0  0  0  0  0  0  0  0  0  0  0
   56.4620   29.6480   42.0242 H   0  0  0  0  0  0  0  0  0  0  0  0
   57.5688   31.7133   41.1405 H   0  0  0  0  0  0  0  0  0  0  0  0
   58.2350   33.4320   42.6760 H   0  0  0  0  0  0  0  0  0  0  0  0
   56.9391   34.5743   46.7903 H   0  0  0  0  0  0  0  0  0  0  0  0
   56.7002   32.7882   46.8231 H   0  0  0  0  0  0  0  0  0  0  0  0
   58.1280   33.8366   48.7097 H   0  0  0  0  0  0  0  0  0  0  0  0
   58.8063   32.4033   47.8054 H   0  0  0  0  0  0  0  0  0  0  0  0
   60.0092   31.5999   47.9673 H   0  0  0  0  0  0  0  0  0  0  0  0
   62.0172   30.1312   47.8227 H   0  0  0  0  0  0  0  0  0  0  0  0
  1  2  2  0
  2  3  1  0
  3  4  2  0
  4  5  1  0
  5  6  1  0
  6  7  1  0
  7  8  1  0
  8  9  1  0
  9 10  2  0
 10 11  1  0
 11 12  2  0
 12 13  1  0
 13 14  2  0
  8 15  1  0
 15 16  1  0
  4 17  1  0
 17 18  2  0
 18  1  1  0
 16  5  1  0
 14  9  1  0
  1 19  1  0
  2 20  1  0
  3 21  1  0
  5 22  1  0
  6 23  1  0
  6 24  1  0
  7 25  1  0
  7 26  1  0
 11 27  1  0
 12 28  1  0
 13 29  1  0
 14 30  1  0
 15 31  1  0
 15 32  1  0
 16 33  1  0
 16 34  1  0
 17 35  1  0
 18 36  1  0
M  CHG  1  14   1
M  END
>  <UniqueID>  (2) 
2

>  <SMILES>  (2) 
c1ccc(C2CCN(c3nccc[nH+]3)CC2)cc1

>  <Energy>  (2) 
44.44327254895894

>  <Genealogy>  (2) 
c1ccc(C2CCN(c3nccc[nH+]3)CC2)cc1 (protonated)
c1ccc(C2CCN(c3nccc[nH+]3)CC2)cc1 (3D coordinates assigned)
c1ccc(C2CCN(c3nccc[nH+]3)CC2)cc1 (nonaromatic ring conformer: 44.44327254895894 kcal/mol)

>  <smiles>  (2) 
c1ccc(C2CCN(c3ncccn3)CC2)cc1

>  <score_type>  (2) 
oracle

>  <origin>  (2) 
adg

>  <m_score__min__energy>  (2) 
-6.2300000000000004

>  <m_primary>  (2) 
energy

$$$$
2:0
     RDKit          3D

 55 58  0  0  0  0  0  0  0  0999 V2000
   60.8480   30.3050   47.4340 C   0  0  0  0  0  0  0  0  0  0  0  0
   60.5050   29.9060   46.1100 O   0  0  0  0  0  0  0  0  0  0  0  0
   59.6220   28.8610   45.7940 C   0  0  0  0  0  0  0  0  0  0  0  0
   59.9970   27.5100   45.9340 C   0  0  0  0  0  0  0  0  0  0  0  0
   59.0980   26.4890   45.6210 C   0  0  0  0  0  0  0  0  0  0  0  0
   57.8170   26.7990   45.1680 C   0  0  0  0  0  0  0  0  0  0  0  0
   57.4300   28.1320   45.0250 C   0  0  0  0  0  0  0  0  0  0  0  0
   58.3250   29.1690   45.3290 C   0  0  0  0  0  0  0  0  0  0  0  0
   57.7720   30.8400   45.1470 S   0  0  0  0  0  0  0  0  0  0  0  0
   56.2950   30.8340   44.8700 O   0  0  0  0  0  0  0  0  0  0  0  0
   58.4600   31.5120   43.9920 O   0  0  0  0  0  0  0  0  0  0  0  0
   58.0620   31.7220   46.6190 N   0  0  0  0  0  0  0  0  0  0  0  0
   58.7220   33.0030   46.3560 C   0  0  0  0  0  0  0  0  0  0  0  0
   58.7650   33.8690   47.6180 C   0  0  0  0  0  0  0  0  0  0  0  0
   60.0060   33.5960   48.4300 C   0  0  0  0  0  0  0  0  0  0  0  0
   60.0950   33.2700   49.7810 C   0  0  0  0  0  0  0  0  0  0  0  0
   58.9190   33.2160   50.7260 C   0  0  0  0  0  0  0  0  0  0  0  0
   58.5370   31.8290   50.9730 N   0  0  0  0  0  0  0  0  0  0  0  0
   59.2330   30.7290   50.6450 C   0  0  0  0  0  0  0  0  0  0  0  0
   58.4810   29.6550   51.0670 C   0  0  0  0  0  0  0  0  0  0  0  0
   57.3540   30.1330   51.6340 N   0  0  0  0  0  0  0  0  0  0  0  0
   57.4130   31.4550   51.5630 N   0  0  0  0  0  0  0  0  0  0  0  0
   61.3990   33.1000   50.1480 N   0  0  0  0  0  0  0  0  0  0  0  0
   61.8590   32.9020   51.5280 C   0  0  0  0  0  0  0  0  0  0  0  0
   62.1460   33.2970   49.0190 C   0  0  0  0  0  0  0  0  0  0  0  0
   63.5610   33.2480   48.8120 C   0  0  0  0  0  0  0  0  0  0  0  0
   64.5810   32.8840   49.8750 C   0  0  0  0  0  0  0  0  0  0  0  0
   64.3500   31.6210   50.3940 F   0  0  0  0  0  0  0  0  0  0  0  0
   65.8550   32.8700   49.3410 F   0  0  0  0  0  0  0  0  0  0  0  0
   64.5040   33.7810   50.9230 F   0  0  0  0  0  0  0  0  0  0  0  0
   64.0240   33.5020   47.4940 C   0  0  0  0  0  0  0  0  0  0  0  0
   63.1380   33.7970   46.4460 C   0  0  0  0  0  0  0  0  0  0  0  0
   61.7640   33.8450   46.6750 C   0  0  0  0  0  0  0  0  0  0  0  0
   61.3020   33.5910   47.9630 C   0  0  0  0  0  0  0  0  0  0  0  0
   60.3080   29.6768   48.1577 H   0  0  0  0  0  0  0  0  0  0  0  0
   61.9315   30.1876   47.5832 H   0  0  0  0  0  0  0  0  0  0  0  0
   60.5693   31.3586   47.5832 H   0  0  0  0  0  0  0  0  0  0  0  0
   61.0059   27.2579   46.2927 H   0  0  0  0  0  0  0  0  0  0  0  0
   59.4013   25.4375   45.7321 H   0  0  0  0  0  0  0  0  0  0  0  0
   57.1105   25.9923   44.9230 H   0  0  0  0  0  0  0  0  0  0  0  0
   56.4163   28.3715   44.6715 H   0  0  0  0  0  0  0  0  0  0  0  0
   59.7504   32.8141   46.0145 H   0  0  0  0  0  0  0  0  0  0  0  0
   58.1509   33.5387   45.5834 H   0  0  0  0  0  0  0  0  0  0  0  0
   58.7549   34.9292   47.3251 H   0  0  0  0  0  0  0  0  0  0  0  0
   57.8871   33.6263   48.2348 H   0  0  0  0  0  0  0  0  0  0  0  0
   59.1953   33.6923   51.6782 H   0  0  0  0  0  0  0  0  0  0  0  0
   58.0692   33.7483   50.2739 H   0  0  0  0  0  0  0  0  0  0  0  0
   60.2095   30.6926   50.1398 H   0  0  0  0  0  0  0  0  0  0  0  0
   58.7517   28.5942   50.9605 H   0  0  0  0  0  0  0  0  0  0  0  0
   61.0784   33.2380   52.2265 H   0  0  0  0  0  0  0  0  0  0  0  0
   62.0665   31.8349   51.6958 H   0  0  0  0  0  0  0  0  0  0  0  0
   62.7767   33.4848   51.6958 H   0  0  0  0  0  0  0  0  0  0  0  0
   65.1042   33.4667   47.2890 H   0  0  0  0  0  0  0  0  0  0  0  0
   63.5308   33.9916   45.4371 H   0  0  0  0  0  0  0  0  0  0  0  0
   61.0634   34.0775   45.8594 H   0  0  0  0  0  0  0  0  0  0  0  0
  1  2  1  0
  2  3  1  0
  3  4  2  0
  4  5  1  0
  5  6  2  0
  6  7  1  0
  7  8  2  0
  8  9  1  0
  9 10  2  0
  9 11  2  0
  9 12  1  0
 12 13  1  0
 13 14  1  0
 14 15  1  0
 15 16  2  0
 16 17  1  0
 17 18  1  0
 18 19  1  0
 19 20  2  0
 20 21  1  0
 21 22  2  0
 16 23  1  0
 23 24  1  0
 23 25  1  0
 25 26  2  0
 26 27  1  0
 27 28  1  0
 27 29  1  0
 27 30  1  0
 26 31  1  0
 31 32  2  0
 32 33  1  0
 33 34  2  0
  8  3  1  0
 34 15  1  0
 22 18  1  0
 34 25  1  0
  1 35  1  0
  1 36  1  0
  1 37  1  0
  4 38  1  0
  5 39  1  0
  6 40  1  0
  7 41  1  0
 13 42  1  0
 13 43  1  0
 14 44  1  0
 14 45  1  0
 17 46  1  0
 17 47  1  0
 19 48  1  0
 20 49  1  0
 24 50  1  0
 24 51  1  0
 24 52  1  0
 31 53  1  0
 32 54  1  0
 33 55  1  0
M  CHG  1  12  -1
M  END
>  <UniqueID>  (3) 
3

>  <SMILES>  (3) 
COc1ccccc1S(=O)(=O)[N-]CCc1c(Cn2ccnn2)n(C)c2c(C(F)(F)F)cccc12

>  <Energy>  (3) 
132.041464825899

>  <Genealogy>  (3) 
COc1ccccc1S(=O)(=O)[N-]CCc1c(Cn2ccnn2)n(C)c2c(C(F)(F)F)cccc12 (protonated)
COc1ccccc1S(=O)(=O)[N-]CCc1c(Cn2ccnn2)n(C)c2c(C(F)(F)F)cccc12 (3D coordinates assigned)
COc1ccccc1S(=O)(=O)[N-]CCc1c(Cn2ccnn2)n(C)c2c(C(F)(F)F)cccc12 (optimized conformer: 132.041464825899 kcal/mol)

>  <smiles>  (3) 
COc1ccccc1S(=O)(=O)NCCc1c(Cn2ccnn2)n(C)c2c(C(F)(F)F)cccc12

>  <score_type>  (3) 
oracle

>  <origin>  (3) 
adg

>  <m_score__min__energy>  (3) 
-10.710000000000001

>  <m_primary>  (3) 
energy

$$$$
3:0
     RDKit          3D

 31 32  0  0  0  0  0  0  0  0999 V2000
   56.2351   23.2843   46.0063 H   0  0  0  0  0  0  0  0  0  0  0  0
   55.7900   24.2900   45.9870 C   0  0  0  0  0  0  0  0  0  0  0  0
   54.5270   24.6630   45.5840 C   0  0  0  0  0  0  0  0  0  0  0  0
   53.4700   23.7550   45.0550 C   0  0  0  0  0  0  0  0  0  0  0  0
   52.9308   23.2918   45.8944 H   0  0  0  0  0  0  0  0  0  0  0  0
   52.7643   24.3328   44.4401 H   0  0  0  0  0  0  0  0  0  0  0  0
   53.9348   22.9703   44.4401 H   0  0  0  0  0  0  0  0  0  0  0  0
   54.3990   25.9650   45.7050 O   0  0  0  0  0  0  0  0  0  0  0  0
   55.4890   26.5020   46.1700 N   0  0  0  0  0  0  0  0  0  0  0  0
   56.3610   25.4950   46.3620 C   0  0  0  0  0  0  0  0  0  0  0  0
   57.5710   25.6890   46.8010 N   0  0  0  0  0  0  0  0  0  0  0  0
   58.6330   26.3440   46.0930 C   0  0  0  0  0  0  0  0  0  0  0  0
   59.7530   25.7740   46.0230 O   0  0  0  0  0  0  0  0  0  0  0  0
   58.4350   27.6340   45.3940 C   0  0  0  0  0  0  0  0  0  0  0  0
   58.4060   28.9060   45.9560 C   0  0  0  0  0  0  0  0  0  0  0  0
   58.5580   29.2690   47.4020 C   0  0  0  0  0  0  0  0  0  0  0  0
   58.2087   28.4348   48.0281 H   0  0  0  0  0  0  0  0  0  0  0  0
   59.6169   29.4724   47.6196 H   0  0  0  0  0  0  0  0  0  0  0  0
   57.9600   30.1662   47.6196 H   0  0  0  0  0  0  0  0  0  0  0  0
   58.2090   29.7900   44.9050 C   0  0  0  0  0  0  0  0  0  0  0  0
   58.0810   31.2770   45.0190 C   0  0  0  0  0  0  0  0  0  0  0  0
   58.0564   31.5626   46.0810 H   0  0  0  0  0  0  0  0  0  0  0  0
   58.9411   31.7576   44.5299 H   0  0  0  0  0  0  0  0  0  0  0  0
   57.1514   31.6036   44.5299 H   0  0  0  0  0  0  0  0  0  0  0  0
   58.0770   29.1170   43.7470 N   0  0  0  0  0  0  0  0  0  0  0  0
   57.8990   29.5310   42.8040 H   0  0  0  0  0  0  0  0  0  0  0  0
   58.2180   27.8080   44.0330 C   0  0  0  0  0  0  0  0  0  0  0  0
   58.1380   26.7240   43.0050 C   0  0  0  0  0  0  0  0  0  0  0  0
   58.0659   25.7476   43.5065 H   0  0  0  0  0  0  0  0  0  0  0  0
   57.2489   26.8798   42.3763 H   0  0  0  0  0  0  0  0  0  0  0  0
   59.0403   26.7476   42.3763 H   0  0  0  0  0  0  0  0  0  0  0  0
  1  2  1  0
  2  3  2  0
  3  4  1  0
  4  5  1  0
  4  6  1  0
  4  7  1  0
  3  8  1  0
  8  9  1  0
  9 10  1  0
 10 11  2  0
 11 12  1  0
 12 13  2  0
 12 14  1  0
 14 15  1  0
 15 16  1  0
 16 17  1  0
 16 18  1  0
 16 19  1  0
 15 20  2  0
 20 21  1  0
 21 22  1  0
 21 23  1  0
 21 24  1  0
 20 25  1  0
 25 26  1  0
 25 27  1  0
 27 28  1  0
 28 29  1  0
 28 30  1  0
 28 31  1  0
 10  2  1  0
 27 14  2  0
M  CHG  1   9  -1
M  END
>  <UniqueID>  (4) 
4

>  <SMILES>  (4) 
Cc1c/c(=N\C(=O)c2c(C)[nH]c(C)c2C)[n-]o1

>  <Energy>  (4) 
91.7020016293947

>  <Genealogy>  (4) 
Cc1cc(=NC(=O)c2c(C)[nH]c(C)c2C)[n-]o1 (protonated)
Cc1c/c(=N\C(=O)c2c(C)[nH]c(C)c2C)[n-]o1 (cis-trans isomerization)
Cc1c/c(=N\C(=O)c2c(C)[nH]c(C)c2C)[n-]o1 (3D coordinates assigned)
Cc1c/c(=N\C(=O)c2c(C)[nH]c(C)c2C)[n-]o1 (optimized conformer: 91.7020016293947 kcal/mol)

>  <smiles>  (4) 
Cc1cc(=NC(=O)c2c(C)[nH]c(C)c2C)[nH]o1

>  <score_type>  (4) 
oracle

>  <origin>  (4) 
adg

>  <m_score__min__energy>  (4) 
-8.7400000000000002

>  <m_primary>  (4) 
energy

$$$$
4:0
     RDKit          3D

 34 35  0  0  0  0  0  0  0  0999 V2000
   54.4769   25.3998   45.8671 H   0  0  0  0  0  0  0  0  0  0  0  0
   55.5310   25.6900   45.9880 C   0  0  0  0  0  0  0  0  0  0  0  0
   55.8910   26.9940   45.8920 N   0  0  0  0  0  0  0  0  0  0  0  0
   57.1760   27.4240   46.0270 C   0  0  0  0  0  0  0  0  0  0  0  0
   57.3730   28.7130   45.9550 N   0  0  0  0  0  0  0  0  0  0  0  0
   56.6610   29.7100   45.2160 C   0  0  0  0  0  0  0  0  0  0  0  0
   55.4700   29.4910   44.8730 O   0  0  0  0  0  0  0  0  0  0  0  0
   57.3460   30.9430   44.7690 C   0  0  0  0  0  0  0  0  0  0  0  0
   58.0580   31.8600   45.5400 C   0  0  0  0  0  0  0  0  0  0  0  0
   58.2860   31.7930   47.0230 C   0  0  0  0  0  0  0  0  0  0  0  0
   57.3592   32.0654   47.5491 H   0  0  0  0  0  0  0  0  0  0  0  0
   58.5797   30.7706   47.3030 H   0  0  0  0  0  0  0  0  0  0  0  0
   59.0861   32.4940   47.3030 H   0  0  0  0  0  0  0  0  0  0  0  0
   58.5040   32.8470   44.7290 N   0  0  0  0  0  0  0  0  0  0  0  0
   59.2850   34.0190   45.1180 C   0  0  0  0  0  0  0  0  0  0  0  0
   59.3279   34.0833   46.2153 H   0  0  0  0  0  0  0  0  0  0  0  0
   60.3049   33.9299   44.7158 H   0  0  0  0  0  0  0  0  0  0  0  0
   58.8101   34.9261   44.7158 H   0  0  0  0  0  0  0  0  0  0  0  0
   58.1030   32.6080   43.4920 N   0  0  0  0  0  0  0  0  0  0  0  0
   58.3040   33.2190   42.6690 H   0  0  0  0  0  0  0  0  0  0  0  0
   57.3970   31.4610   43.4780 C   0  0  0  0  0  0  0  0  0  0  0  0
   56.7760   30.8820   42.2460 C   0  0  0  0  0  0  0  0  0  0  0  0
   55.9992   30.1578   42.5326 H   0  0  0  0  0  0  0  0  0  0  0  0
   56.3236   31.6882   41.6498 H   0  0  0  0  0  0  0  0  0  0  0  0
   57.5486   30.3744   41.6498 H   0  0  0  0  0  0  0  0  0  0  0  0
   58.2080   26.4490   46.2100 C   0  0  0  0  0  0  0  0  0  0  0  0
   59.6860   26.7520   46.1850 C   0  0  0  0  0  0  0  0  0  0  0  0
   60.0620   26.8291   47.2159 H   0  0  0  0  0  0  0  0  0  0  0  0
   60.2171   25.9441   45.6605 H   0  0  0  0  0  0  0  0  0  0  0  0
   59.8564   27.7038   45.6605 H   0  0  0  0  0  0  0  0  0  0  0  0
   57.8290   25.1010   46.3480 C   0  0  0  0  0  0  0  0  0  0  0  0
   58.5968   24.3381   46.5444 H   0  0  0  0  0  0  0  0  0  0  0  0
   56.4940   24.7210   46.2390 C   0  0  0  0  0  0  0  0  0  0  0  0
   56.2052   23.6654   46.3504 H   0  0  0  0  0  0  0  0  0  0  0  0
  1  2  1  0
  2  3  1  0
  3  4  1  0
  4  5  2  0
  5  6  1  0
  6  7  2  0
  6  8  1  0
  8  9  2  0
  9 10  1  0
 10 11  1  0
 10 12  1  0
 10 13  1  0
  9 14  1  0
 14 15  1  0
 15 16  1  0
 15 17  1  0
 15 18  1  0
 14 19  1  0
 19 20  1  0
 19 21  2  0
 21 22  1  0
 22 23  1  0
 22 24  1  0
 22 25  1  0
  4 26  1  0
 26 27  1  0
 27 28  1  0
 27 29  1  0
 27 30  1  0
 26 31  2  0
 31 32  1  0
 31 33  1  0
 33 34  1  0
 33  2  2  0
 21  8  1  0
M  CHG  2   3  -1  19   1
M  END
>  <UniqueID>  (5) 
5

>  <SMILES>  (5) 
Cc1[nH+]n(C)c(C)c1C(=O)/N=c1/[n-]cccc1C

>  <Energy>  (5) 
80.4179645001762

>  <Genealogy>  (5) 
Cc1[nH+]n(C)c(C)c1C(=O)N=c1[n-]cccc1C (protonated)
Cc1[nH+]n(C)c(C)c1C(=O)/N=c1/[n-]cccc1C (cis-trans isomerization)
Cc1[nH+]n(C)c(C)c1C(=O)/N=c1/[n-]cccc1C (3D coordinates assigned)
Cc1[nH+]n(C)c(C)c1C(=O)/N=c1/[n-]cccc1C (optimized conformer: 80.4179645001762 kcal/mol)

>  <smiles>  (5) 
Cc1nn(C)c(C)c1C(=O)N=c1[nH]cccc1C

>  <score_type>  (5) 
oracle

>  <origin>  (5) 
adg

>  <m_score__min__energy>  (5) 
-7.0999999999999996

>  <m_primary>  (5) 
energy

$$$$
5:0
     RDKit          3D

 56 60  0  0  0  0  0  0  0  0999 V2000
   56.6990   26.5950   45.6190 C   0  0  0  0  0  0  0  0  0  0  0  0
   57.5340   27.6810   46.2400 C   0  0  0  0  0  0  0  0  0  0  0  0
   58.3770   27.3830   47.3230 C   0  0  0  0  0  0  0  0  0  0  0  0
   59.1680   28.3780   47.9050 C   0  0  0  0  0  0  0  0  0  0  0  0
   59.9770   28.0600   48.9480 N   0  0  0  0  0  0  0  0  0  0  0  0
   60.7730   28.9750   49.5540 C   0  0  0  0  0  0  0  0  0  0  0  0
   61.4790   28.6170   50.5340 O   0  0  0  0  0  0  0  0  0  0  0  0
   60.7910   30.3080   49.1030 C   0  0  0  0  0  0  0  0  0  0  0  0
   61.6500   31.3100   49.7760 C   0  0  0  0  0  0  0  0  0  0  0  0
   61.2290   32.4890   49.9170 O   0  0  0  0  0  0  0  0  0  0  0  0
   62.9470   30.9410   50.2690 N   0  0  0  0  0  0  0  0  0  0  0  0
   63.9580   31.9010   50.6200 C   0  0  0  0  0  0  0  0  0  0  0  0
   65.0820   32.0550   49.8040 C   0  0  0  0  0  0  0  0  0  0  0  0
   66.0580   33.0020   50.1230 C   0  0  0  0  0  0  0  0  0  0  0  0
   65.8900   33.8260   51.2530 C   0  0  0  0  0  0  0  0  0  0  0  0
   66.8640   34.8330   51.6180 N   0  0  0  0  0  0  0  0  0  0  0  0
   68.2840   34.6730   51.2670 C   0  0  0  0  0  0  0  0  0  0  0  0
   69.0090   36.0210   51.2730 C   0  0  0  0  0  0  0  0  0  0  0  0
   68.7520   36.7240   52.4700 O   0  0  0  0  0  0  0  0  0  0  0  0
   67.3870   37.0850   52.5100 C   0  0  0  0  0  0  0  0  0  0  0  0
   66.4980   35.8420   52.6250 C   0  0  0  0  0  0  0  0  0  0  0  0
   64.7750   33.6620   52.0200 N   0  0  0  0  0  0  0  0  0  0  0  0
   63.8190   32.7360   51.7370 C   0  0  0  0  0  0  0  0  0  0  0  0
   59.9550   30.6800   48.0210 C   0  0  0  0  0  0  0  0  0  0  0  0
   59.9900   32.0710   47.5100 C   0  0  0  0  0  0  0  0  0  0  0  0
   58.8630   32.8980   47.6450 C   0  0  0  0  0  0  0  0  0  0  0  0
   58.8860   34.2020   47.1420 C   0  0  0  0  0  0  0  0  0  0  0  0
   60.0290   34.6850   46.4980 C   0  0  0  0  0  0  0  0  0  0  0  0
   61.1530   33.8650   46.3580 C   0  0  0  0  0  0  0  0  0  0  0  0
   61.1350   32.5600   46.8600 C   0  0  0  0  0  0  0  0  0  0  0  0
   59.1330   29.7000   47.4100 C   0  0  0  0  0  0  0  0  0  0  0  0
   58.2970   29.9910   46.3120 C   0  0  0  0  0  0  0  0  0  0  0  0
   57.5020   28.9950   45.7330 C   0  0  0  0  0  0  0  0  0  0  0  0
   56.4760   29.4270   44.3660 Cl  0  0  0  0  0  0  0  0  0  0  0  0
   56.2344   25.9908   46.4122 H   0  0  0  0  0  0  0  0  0  0  0  0
   55.9139   27.0474   44.9953 H   0  0  0  0  0  0  0  0  0  0  0  0
   57.3380   25.9525   44.9953 H   0  0  0  0  0  0  0  0  0  0  0  0
   58.4153   26.3568   47.7171 H   0  0  0  0  0  0  0  0  0  0  0  0
   63.1760   29.9270   50.3800 H   0  0  0  0  0  0  0  0  0  0  0  0
   65.1985   31.4284   48.9075 H   0  0  0  0  0  0  0  0  0  0  0  0
   66.9546   33.1039   49.4940 H   0  0  0  0  0  0  0  0  0  0  0  0
   68.7618   34.0050   51.9988 H   0  0  0  0  0  0  0  0  0  0  0  0
   68.3476   34.2469   50.2549 H   0  0  0  0  0  0  0  0  0  0  0  0
   70.0915   35.8485   51.1816 H   0  0  0  0  0  0  0  0  0  0  0  0
   68.6437   36.6212   50.4266 H   0  0  0  0  0  0  0  0  0  0  0  0
   67.2114   37.7355   53.3795 H   0  0  0  0  0  0  0  0  0  0  0  0
   67.1349   37.6136   51.5789 H   0  0  0  0  0  0  0  0  0  0  0  0
   66.6165   35.4073   53.6285 H   0  0  0  0  0  0  0  0  0  0  0  0
   65.4537   36.1427   52.4544 H   0  0  0  0  0  0  0  0  0  0  0  0
   62.9357   32.6426   52.3859 H   0  0  0  0  0  0  0  0  0  0  0  0
   57.9608   32.5190   48.1473 H   0  0  0  0  0  0  0  0  0  0  0  0
   58.0034   34.8491   47.2531 H   0  0  0  0  0  0  0  0  0  0  0  0
   60.0442   35.7108   46.1011 H   0  0  0  0  0  0  0  0  0  0  0  0
   62.0522   34.2469   45.8525 H   0  0  0  0  0  0  0  0  0  0  0  0
   62.0190   31.9154   46.7456 H   0  0  0  0  0  0  0  0  0  0  0  0
   58.2694   31.0129   45.9058 H   0  0  0  0  0  0  0  0  0  0  0  0
  1  2  1  0
  2  3  2  0
  3  4  1  0
  4  5  1  0
  5  6  1  0
  6  7  2  0
  6  8  1  0
  8  9  1  0
  9 10  2  0
  9 11  1  0
 11 12  1  0
 12 13  2  0
 13 14  1  0
 14 15  2  0
 15 16  1  0
 16 17  1  0
 17 18  1  0
 18 19  1  0
 19 20  1  0
 20 21  1  0
 15 22  1  0
 22 23  2  0
  8 24  2  0
 24 25  1  0
 25 26  2  0
 26 27  1  0
 27 28  2  0
 28 29  1  0
 29 30  2  0
 24 31  1  0
 31 32  1  0
 32 33  2  0
 33 34  1  0
 33  2  1  0
 31  4  2  0
 23 12  1  0
 30 25  1  0
 21 16  1  0
  1 35  1  0
  1 36  1  0
  1 37  1  0
  3 38  1  0
 11 39  1  0
 13 40  1  0
 14 41  1  0
 17 42  1  0
 17 43  1  0
 18 44  1  0
 18 45  1  0
 20 46  1  0
 20 47  1  0
 21 48  1  0
 21 49  1  0
 23 50  1  0
 26 51  1  0
 27 52  1  0
 28 53  1  0
 29 54  1  0
 30 55  1  0
 32 56  1  0
M  CHG  1   5  -1
M  END
>  <UniqueID>  (6) 
6

>  <SMILES>  (6) 
Cc1cc2[n-]c(=O)c(C(=O)Nc3ccc(N4CCOCC4)nc3)c(-c3ccccc3)c2cc1Cl

>  <Energy>  (6) 
89.66908085774645

>  <Genealogy>  (6) 
Cc1cc2[n-]c(=O)c(C(=O)Nc3ccc(N4CCOCC4)nc3)c(-c3ccccc3)c2cc1Cl (protonated)
Cc1cc2[n-]c(=O)c(C(=O)Nc3ccc(N4CCOCC4)nc3)c(-c3ccccc3)c2cc1Cl (3D coordinates assigned)
Cc1cc2[n-]c(=O)c(C(=O)Nc3ccc(N4CCOCC4)nc3)c(-c3ccccc3)c2cc1Cl (nonaromatic ring conformer: 89.66908085774645 kcal/mol)

>  <smiles>  (6) 
Cc1cc2[nH]c(=O)c(C(=O)Nc3ccc(N4CCOCC4)nc3)c(-c3ccccc3)c2cc1Cl

>  <score_type>  (6) 
oracle

>  <origin>  (6) 
adg

>  <m_score__min__energy>  (6) 
-9.6699999999999999

>  <m_primary>  (6) 
energy

$$$$
6:0
     RDKit          3D

 41 45  0  0  0  0  0  0  0  0999 V2000
   55.5190   28.6780   44.8680 O   0  0  0  0  0  0  0  0  0  0  0  0
   56.6720   29.1070   45.1320 C   0  0  0  0  0  0  0  0  0  0  0  0
   57.5040   28.3500   46.0210 N   0  0  0  0  0  0  0  0  0  0  0  0
   58.6150   28.8570   46.7740 C   0  0  0  0  0  0  0  0  0  0  0  0
   59.8110   29.1440   46.1070 C   0  0  0  0  0  0  0  0  0  0  0  0
   60.9080   29.6540   46.8090 C   0  0  0  0  0  0  0  0  0  0  0  0
   60.8110   29.9100   48.1880 C   0  0  0  0  0  0  0  0  0  0  0  0
   61.8960   30.4020   48.9270 O   0  0  0  0  0  0  0  0  0  0  0  0
   62.6470   31.5420   48.6060 C   0  0  0  0  0  0  0  0  0  0  0  0
   62.3240   32.3970   47.5260 C   0  0  0  0  0  0  0  0  0  0  0  0
   63.1140   33.5410   47.2750 C   0  0  0  0  0  0  0  0  0  0  0  0
   64.1830   33.8370   48.0720 N   0  0  0  0  0  0  0  0  0  0  0  0
   64.4740   33.0180   49.1130 C   0  0  0  0  0  0  0  0  0  0  0  0
   65.4790   33.1750   49.9870 N   0  0  0  0  0  0  0  0  0  0  0  0
   65.3780   32.1310   50.8410 C   0  0  0  0  0  0  0  0  0  0  0  0
   64.3020   31.3130   50.5020 C   0  0  0  0  0  0  0  0  0  0  0  0
   63.7380   31.9030   49.3920 C   0  0  0  0  0  0  0  0  0  0  0  0
   59.6130   29.6250   48.8540 C   0  0  0  0  0  0  0  0  0  0  0  0
   59.5060   29.8590   50.1860 F   0  0  0  0  0  0  0  0  0  0  0  0
   58.5160   29.1170   48.1520 C   0  0  0  0  0  0  0  0  0  0  0  0
   57.1020   30.3990   44.5610 C   0  0  0  0  0  0  0  0  0  0  0  0
   57.0210   30.7180   43.2050 C   0  0  0  0  0  0  0  0  0  0  0  0
   57.6460   32.2640   42.9980 S   0  0  0  0  0  0  0  0  0  0  0  0
   58.0020   32.4580   44.6280 C   0  0  0  0  0  0  0  0  0  0  0  0
   58.6160   33.6540   45.2130 C   0  0  0  0  0  0  0  0  0  0  0  0
   58.6890   33.9740   46.5500 C   0  0  0  0  0  0  0  0  0  0  0  0
   59.3290   35.1530   46.6750 N   0  0  0  0  0  0  0  0  0  0  0  0
   59.6170   35.4970   45.4020 C   0  0  0  0  0  0  0  0  0  0  0  0
   59.1950   34.6080   44.5310 O   0  0  0  0  0  0  0  0  0  0  0  0
   57.6570   31.3660   45.3430 N   0  0  0  0  0  0  0  0  0  0  0  0
   59.8890   28.9675   45.0241 H   0  0  0  0  0  0  0  0  0  0  0  0
   61.8510   29.8557   46.2797 H   0  0  0  0  0  0  0  0  0  0  0  0
   61.4601   32.1716   46.8835 H   0  0  0  0  0  0  0  0  0  0  0  0
   62.8658   34.1996   46.4297 H   0  0  0  0  0  0  0  0  0  0  0  0
   66.1900   33.9390   50.0050 H   0  0  0  0  0  0  0  0  0  0  0  0
   66.0546   31.9517   51.6895 H   0  0  0  0  0  0  0  0  0  0  0  0
   63.9738   30.3946   51.0107 H   0  0  0  0  0  0  0  0  0  0  0  0
   57.5714   28.9199   48.6801 H   0  0  0  0  0  0  0  0  0  0  0  0
   56.6188   30.0713   42.4113 H   0  0  0  0  0  0  0  0  0  0  0  0
   58.2913   33.3684   47.3777 H   0  0  0  0  0  0  0  0  0  0  0  0
   60.1468   36.4201   45.1241 H   0  0  0  0  0  0  0  0  0  0  0  0
  1  2  2  0
  2  3  1  0
  3  4  1  0
  4  5  2  0
  5  6  1  0
  6  7  2  0
  7  8  1  0
  8  9  1  0
  9 10  2  0
 10 11  1  0
 11 12  2  0
 12 13  1  0
 13 14  1  0
 14 15  1  0
 15 16  2  0
 16 17  1  0
  7 18  1  0
 18 19  1  0
 18 20  2  0
  2 21  1  0
 21 22  2  0
 22 23  1  0
 23 24  1  0
 24 25  1  0
 25 26  2  0
 26 27  1  0
 27 28  2  0
 28 29  1  0
 24 30  2  0
 20  4  1  0
 30 21  1  0
 17  9  1  0
 29 25  1  0
 17 13  2  0
  5 31  1  0
  6 32  1  0
 10 33  1  0
 11 34  1  0
 14 35  1  0
 15 36  1  0
 16 37  1  0
 20 38  1  0
 22 39  1  0
 26 40  1  0
 28 41  1  0
M  CHG  1   3  -1
M  END
>  <UniqueID>  (7) 
7

>  <SMILES>  (7) 
O=C([N-]c1ccc(Oc2ccnc3[nH]ccc23)c(F)c1)c1csc(-c2cnco2)n1

>  <Energy>  (7) 
152.16835816921136

>  <Genealogy>  (7) 
O=C([N-]c1ccc(Oc2ccnc3[nH]ccc23)c(F)c1)c1csc(-c2cnco2)n1 (protonated)
O=C([N-]c1ccc(Oc2ccnc3[nH]ccc23)c(F)c1)c1csc(-c2cnco2)n1 (3D coordinates assigned)
O=C([N-]c1ccc(Oc2ccnc3[nH]ccc23)c(F)c1)c1csc(-c2cnco2)n1 (optimized conformer: 152.16835816921136 kcal/mol)

>  <smiles>  (7) 
O=C(Nc1ccc(Oc2ccnc3[nH]ccc23)c(F)c1)c1csc(-c2cnco2)n1

>  <score_type>  (7) 
oracle

>  <origin>  (7) 
adg

>  <m_score__min__energy>  (7) 
-10.609999999999999

>  <m_primary>  (7) 
energy

$$$$
7:0
     RDKit          3D

 46 48  0  0  0  0  0  0  0  0999 V2000
   61.5580   30.4220   50.0090 C   0  0  0  0  0  0  0  0  0  0  0  0
   61.6130   30.5070   48.5890 O   0  0  0  0  0  0  0  0  0  0  0  0
   60.7190   29.8600   47.7230 C   0  0  0  0  0  0  0  0  0  0  0  0
   60.8930   29.8530   46.3260 C   0  0  0  0  0  0  0  0  0  0  0  0
   59.9570   29.2210   45.5020 C   0  0  0  0  0  0  0  0  0  0  0  0
   58.8330   28.5920   46.0580 C   0  0  0  0  0  0  0  0  0  0  0  0
   57.7840   27.9760   45.1680 C   0  0  0  0  0  0  0  0  0  0  0  0
   56.5010   28.6770   45.2900 N   0  0  0  0  0  0  0  0  0  0  0  0
   56.3790   29.9960   44.1580 S   0  0  0  0  0  0  0  0  0  0  0  0
   54.9530   30.4660   44.1030 O   0  0  0  0  0  0  0  0  0  0  0  0
   56.7890   29.5370   42.7850 O   0  0  0  0  0  0  0  0  0  0  0  0
   57.3940   31.3330   44.6900 C   0  0  0  0  0  0  0  0  0  0  0  0
   57.7710   32.3200   43.7720 C   0  0  0  0  0  0  0  0  0  0  0  0
   58.4890   33.4400   44.1950 C   0  0  0  0  0  0  0  0  0  0  0  0
   58.8450   33.5910   45.5480 C   0  0  0  0  0  0  0  0  0  0  0  0
   59.5550   34.8080   46.0060 C   0  0  0  0  0  0  0  0  0  0  0  0
   59.6070   35.8220   45.2580 O   0  0  0  0  0  0  0  0  0  0  0  0
   60.2470   34.8010   47.2650 N   0  0  0  0  0  0  0  0  0  0  0  0
   61.3640   34.1980   47.5670 C   0  0  0  0  0  0  0  0  0  0  0  0
   61.7070   34.0740   48.9200 C   0  0  0  0  0  0  0  0  0  0  0  0
   62.9010   33.4480   49.2770 C   0  0  0  0  0  0  0  0  0  0  0  0
   63.7520   32.9610   48.2860 C   0  0  0  0  0  0  0  0  0  0  0  0
   63.3970   33.1170   46.9460 C   0  0  0  0  0  0  0  0  0  0  0  0
   62.2280   33.7290   46.6090 N   0  0  0  0  0  0  0  0  0  0  0  0
   58.4880   32.5820   46.4600 C   0  0  0  0  0  0  0  0  0  0  0  0
   57.7720   31.4600   46.0330 C   0  0  0  0  0  0  0  0  0  0  0  0
   58.6770   28.5710   47.4520 C   0  0  0  0  0  0  0  0  0  0  0  0
   59.6120   29.2050   48.2750 C   0  0  0  0  0  0  0  0  0  0  0  0
   62.1058   31.2686   50.4485 H   0  0  0  0  0  0  0  0  0  0  0  0
   60.5088   30.4538   50.3379 H   0  0  0  0  0  0  0  0  0  0  0  0
   62.0169   29.4779   50.3379 H   0  0  0  0  0  0  0  0  0  0  0  0
   61.7693   30.3470   45.8808 H   0  0  0  0  0  0  0  0  0  0  0  0
   60.1027   29.2169   44.4117 H   0  0  0  0  0  0  0  0  0  0  0  0
   58.1239   28.0305   44.1232 H   0  0  0  0  0  0  0  0  0  0  0  0
   57.6383   26.9303   45.4765 H   0  0  0  0  0  0  0  0  0  0  0  0
   57.5000   32.2126   42.7113 H   0  0  0  0  0  0  0  0  0  0  0  0
   58.7787   34.2103   43.4651 H   0  0  0  0  0  0  0  0  0  0  0  0
   61.0369   34.4690   49.6977 H   0  0  0  0  0  0  0  0  0  0  0  0
   63.1706   33.3388   50.3378 H   0  0  0  0  0  0  0  0  0  0  0  0
   64.6926   32.4595   48.5576 H   0  0  0  0  0  0  0  0  0  0  0  0
   64.0656   32.7433   46.1565 H   0  0  0  0  0  0  0  0  0  0  0  0
   62.0450   33.8640   45.5920 H   0  0  0  0  0  0  0  0  0  0  0  0
   58.7744   32.6764   47.5178 H   0  0  0  0  0  0  0  0  0  0  0  0
   57.5043   30.6738   46.7542 H   0  0  0  0  0  0  0  0  0  0  0  0
   57.8154   28.0535   47.8991 H   0  0  0  0  0  0  0  0  0  0  0  0
   59.4767   29.1891   49.3665 H   0  0  0  0  0  0  0  0  0  0  0  0
  1  2  1  0
  2  3  1  0
  3  4  2  0
  4  5  1  0
  5  6  2  0
  6  7  1  0
  7  8  1  0
  8  9  1  0
  9 10  2  0
  9 11  2  0
  9 12  1  0
 12 13  2  0
 13 14  1  0
 14 15  2  0
 15 16  1  0
 16 17  2  0
 16 18  1  0
 18 19  2  3
 19 20  1  0
 20 21  2  0
 21 22  1  0
 22 23  2  0
 23 24  1  0
 15 25  1  0
 25 26  2  0
  6 27  1  0
 27 28  2  0
 28  3  1  0
 26 12  1  0
 24 19  1  0
  1 29  1  0
  1 30  1  0
  1 31  1  0
  4 32  1  0
  5 33  1  0
  7 34  1  0
  7 35  1  0
 13 36  1  0
 14 37  1  0
 20 38  1  0
 21 39  1  0
 22 40  1  0
 23 41  1  0
 24 42  1  0
 25 43  1  0
 26 44  1  0
 27 45  1  0
 28 46  1  0
M  CHG  1   8  -1
M  END
>  <UniqueID>  (8) 
8

>  <SMILES>  (8) 
COc1ccc(C[N-]S(=O)(=O)c2ccc(C(=O)N=c3cccc[nH]3)cc2)cc1

>  <Energy>  (8) 
49.3610711441612

>  <Genealogy>  (8) 
COc1ccc(C[N-]S(=O)(=O)c2ccc(C(=O)N=c3cccc[nH]3)cc2)cc1 (protonated)
COc1ccc(C[N-]S(=O)(=O)c2ccc(C(=O)N=c3cccc[nH]3)cc2)cc1 (3D coordinates assigned)
COc1ccc(C[N-]S(=O)(=O)c2ccc(C(=O)N=c3cccc[nH]3)cc2)cc1 (optimized conformer: 49.3610711441612 kcal/mol)

>  <smiles>  (8) 
COc1ccc(CNS(=O)(=O)c2ccc(C(=O)N=c3cccc[nH]3)cc2)cc1

>  <score_type>  (8) 
oracle

>  <origin>  (8) 
adg

>  <m_score__min__energy>  (8) 
-10.720000000000001

>  <m_primary>  (8) 
energy

$$$$
8:0
     RDKit          3D

 47 49  0  0  1  0  0  0  0  0999 V2000
   65.3990   32.2580   50.1150 C   0  0  0  0  0  0  0  0  0  0  0  0
   64.8990   33.4580   49.5980 O   0  0  0  0  0  0  0  0  0  0  0  0
   63.7050   33.5530   48.8980 C   0  0  0  0  0  0  0  0  0  0  0  0
   63.7600   33.3370   47.5310 C   0  0  0  0  0  0  0  0  0  0  0  0
   62.6210   33.4130   46.7590 C   0  0  0  0  0  0  0  0  0  0  0  0
   61.3780   33.7080   47.3320 C   0  0  0  0  0  0  0  0  0  0  0  0
   60.1870   33.7770   46.4940 C   0  0  0  0  0  0  0  0  0  0  0  0
   59.5060   32.6430   46.2510 N   0  0  0  0  0  0  0  0  0  0  0  0
   58.3950   32.6240   45.4930 C   0  0  0  0  0  0  0  0  0  0  0  0
   57.7780   31.5760   45.2740 N   0  0  0  0  0  0  0  0  0  0  0  0
   57.9730   30.4180   44.5640 C   0  0  0  0  0  0  0  0  0  0  0  0
   57.9130   29.0590   45.0570 C   0  0  0  0  0  0  0  0  0  0  0  0
   59.0450   28.2920   45.3430 C   0  0  0  0  0  0  0  0  0  0  0  0
   58.9710   26.9880   45.7720 C   0  0  0  0  0  0  0  0  0  0  0  0
   57.7490   26.3730   45.9390 C   0  0  0  0  0  0  0  0  0  0  0  0
   57.7490   25.0650   46.3720 O   0  0  0  0  0  0  0  0  0  0  0  0
   57.7760   24.0400   45.3910 C   0  0  0  0  0  0  0  0  0  0  0  0
   56.6130   27.1030   45.6660 C   0  0  0  0  0  0  0  0  0  0  0  0
   56.6780   28.4090   45.2360 C   0  0  0  0  0  0  0  0  0  0  0  0
   55.5130   29.1250   44.9670 O   0  0  0  0  0  0  0  0  0  0  0  0
   55.3160   29.7110   43.7000 C   0  0  0  0  0  0  0  0  0  0  0  0
   57.9430   33.7970   44.9530 C   0  0  0  0  0  0  0  0  0  0  0  0
   58.6180   34.9580   45.1850 C   0  0  0  0  0  0  0  0  0  0  0  0
   59.7230   34.9140   45.9510 N   0  0  0  0  0  0  0  0  0  0  0  0
   61.3660   33.9170   48.6930 C   0  0  0  0  0  0  0  0  0  0  0  0
   62.4970   33.8440   49.4800 C   0  0  0  0  0  0  0  0  0  0  0  0
   65.3826   32.2973   51.2142 H   0  0  0  0  0  0  0  0  0  0  0  0
   64.7747   31.4212   49.7687 H   0  0  0  0  0  0  0  0  0  0  0  0
   66.4328   32.1121   49.7687 H   0  0  0  0  0  0  0  0  0  0  0  0
   64.7240   33.1021   47.0561 H   0  0  0  0  0  0  0  0  0  0  0  0
   62.6895   33.2391   45.6750 H   0  0  0  0  0  0  0  0  0  0  0  0
   57.2280   30.4561   43.7556 H   0  0  0  0  0  0  0  0  0  0  0  0
   59.0593   30.4947   44.4085 H   0  0  0  0  0  0  0  0  0  0  0  0
   60.0372   28.7507   45.2198 H   0  0  0  0  0  0  0  0  0  0  0  0
   59.8953   26.4305   45.9838 H   0  0  0  0  0  0  0  0  0  0  0  0
   57.8019   23.0585   45.8869 H   0  0  0  0  0  0  0  0  0  0  0  0
   56.8757   24.1099   44.7628 H   0  0  0  0  0  0  0  0  0  0  0  0
   58.6714   24.1572   44.7628 H   0  0  0  0  0  0  0  0  0  0  0  0
   55.6284   26.6299   45.7950 H   0  0  0  0  0  0  0  0  0  0  0  0
   54.9678   30.7469   43.8253 H   0  0  0  0  0  0  0  0  0  0  0  0
   56.2646   29.7079   43.1431 H   0  0  0  0  0  0  0  0  0  0  0  0
   54.5619   29.1355   43.1431 H   0  0  0  0  0  0  0  0  0  0  0  0
   57.0352   33.8030   44.3319 H   0  0  0  0  0  0  0  0  0  0  0  0
   58.2676   35.9084   44.7561 H   0  0  0  0  0  0  0  0  0  0  0  0
   60.2240   35.8110   46.1150 H   0  0  0  0  0  0  0  0  0  0  0  0
   60.4070   34.1540   49.1769 H   0  0  0  0  0  0  0  0  0  0  0  0
   62.4308   34.0175   50.5642 H   0  0  0  0  0  0  0  0  0  0  0  0
  1  2  1  0
  2  3  1  0
  3  4  2  0
  4  5  1  0
  5  6  2  0
  6  7  1  0
  7  8  2  0
  8  9  1  0
  9 10  2  0
 10 11  1  0
 11 12  1  0
 12 13  2  0
 13 14  1  0
 14 15  2  0
 15 16  1  0
 16 17  1  0
 15 18  1  0
 18 19  2  0
 19 20  1  0
 20 21  1  0
  9 22  1  0
 22 23  2  0
 23 24  1  0
  6 25  1  0
 25 26  2  0
 26  3  1  0
 24  7  1  0
 19 12  1  0
  1 27  1  0
  1 28  1  0
  1 29  1  0
  4 30  1  0
  5 31  1  0
 11 32  1  0
 11 33  1  0
 13 34  1  0
 14 35  1  0
 17 36  1  0
 17 37  1  0
 17 38  1  0
 18 39  1  0
 21 40  1  0
 21 41  1  0
 21 42  1  0
 22 43  1  0
 23 44  1  0
 24 45  1  0
 25 46  1  0
 26 47  1  0
M  END
>  <smiles>  (9) 
COc1ccc(-c2nc(=NCc3ccc(OC)cc3OC)cc[nH]2)cc1

>  <score_type>  (9) 
oracle

>  <origin>  (9) 
adg

>  <m_score__min__energy>  (9) 
-7.5199999999999996

>  <m_primary>  (9) 
energy

$$$$
9:0
     RDKit          3D

 53 54  0  0  0  0  0  0  0  0999 V2000
   55.8310   29.7110   44.4820 C   0  0  0  0  0  0  0  0  0  0  0  0
   56.5370   29.8360   43.1330 C   0  0  0  0  0  0  0  0  0  0  0  0
   57.2720   31.1750   42.9590 C   0  0  0  0  0  0  0  0  0  0  0  0
   57.4490   31.9570   44.2780 C   0  0  0  0  0  0  0  0  0  0  0  0
   58.3230   33.2080   44.0990 C   0  0  0  0  0  0  0  0  0  0  0  0
   57.9550   34.2870   45.1240 C   0  0  0  0  0  0  0  0  0  0  0  0
   59.2100   34.9690   45.6820 C   0  0  0  0  0  0  0  0  0  0  0  0
   59.4240   34.6700   47.1740 C   0  0  0  0  0  0  0  0  0  0  0  0
   60.0740   33.3650   47.3820 N   0  0  0  0  0  0  0  0  0  0  0  0
   59.3510   32.1470   47.1020 C   0  0  0  0  0  0  0  0  0  0  0  0
   58.1540   32.0240   47.4830 O   0  0  0  0  0  0  0  0  0  0  0  0
   59.9620   31.0960   46.3350 N   0  0  0  0  0  0  0  0  0  0  0  0
   59.5310   29.7240   46.3710 C   0  0  0  0  0  0  0  0  0  0  0  0
   59.2370   29.1260   47.6060 C   0  0  0  0  0  0  0  0  0  0  0  0
   58.7930   27.8010   47.6620 C   0  0  0  0  0  0  0  0  0  0  0  0
   58.6230   27.0690   46.4860 C   0  0  0  0  0  0  0  0  0  0  0  0
   58.8910   27.6620   45.2490 C   0  0  0  0  0  0  0  0  0  0  0  0
   59.3370   28.9850   45.1880 C   0  0  0  0  0  0  0  0  0  0  0  0
   61.3990   33.3040   47.9460 C   0  0  0  0  0  0  0  0  0  0  0  0
   61.5770   33.4570   49.2710 C   0  0  0  0  0  0  0  0  0  0  0  0
   62.9320   33.4060   49.9320 C   0  0  0  0  0  0  0  0  0  0  0  0
   64.0610   33.1840   48.9640 C   0  0  0  0  0  0  0  0  0  0  0  0
   65.2440   33.1220   49.3920 O   0  0  0  0  0  0  0  0  0  0  0  0
   63.8030   33.0360   47.5250 C   0  0  0  0  0  0  0  0  0  0  0  0
   62.5600   33.0950   47.0520 C   0  0  0  0  0  0  0  0  0  0  0  0
   56.5633   29.8407   45.2925 H   0  0  0  0  0  0  0  0  0  0  0  0
   55.0541   30.4856   44.5624 H   0  0  0  0  0  0  0  0  0  0  0  0
   55.3673   28.7168   44.5624 H   0  0  0  0  0  0  0  0  0  0  0  0
   57.2697   29.0203   43.0444 H   0  0  0  0  0  0  0  0  0  0  0  0
   55.7642   29.7820   42.3520 H   0  0  0  0  0  0  0  0  0  0  0  0
   58.2679   30.9732   42.5377 H   0  0  0  0  0  0  0  0  0  0  0  0
   56.6557   31.7980   42.2941 H   0  0  0  0  0  0  0  0  0  0  0  0
   56.4581   32.2664   44.6420 H   0  0  0  0  0  0  0  0  0  0  0  0
   57.9515   31.2946   44.9982 H   0  0  0  0  0  0  0  0  0  0  0  0
   59.3792   32.9309   44.2320 H   0  0  0  0  0  0  0  0  0  0  0  0
   58.1544   33.6116   43.0897 H   0  0  0  0  0  0  0  0  0  0  0  0
   57.3212   35.0432   44.6378 H   0  0  0  0  0  0  0  0  0  0  0  0
   57.4174   33.8094   45.9564 H   0  0  0  0  0  0  0  0  0  0  0  0
   60.0858   34.6112   45.1207 H   0  0  0  0  0  0  0  0  0  0  0  0
   59.0782   36.0556   45.5729 H   0  0  0  0  0  0  0  0  0  0  0  0
   60.0585   35.4571   47.6075 H   0  0  0  0  0  0  0  0  0  0  0  0
   58.4387   34.6432   47.6623 H   0  0  0  0  0  0  0  0  0  0  0  0
   60.7160   31.3560   45.6600 H   0  0  0  0  0  0  0  0  0  0  0  0
   59.3564   29.7026   48.5351 H   0  0  0  0  0  0  0  0  0  0  0  0
   58.5774   27.3349   48.6348 H   0  0  0  0  0  0  0  0  0  0  0  0
   58.2781   26.0255   46.5326 H   0  0  0  0  0  0  0  0  0  0  0  0
   58.7506   27.0865   44.3221 H   0  0  0  0  0  0  0  0  0  0  0  0
   59.5374   29.4510   44.2120 H   0  0  0  0  0  0  0  0  0  0  0  0
   60.6923   33.6274   49.9022 H   0  0  0  0  0  0  0  0  0  0  0  0
   63.1019   34.3598   50.4529 H   0  0  0  0  0  0  0  0  0  0  0  0
   62.9240   32.5503   50.6231 H   0  0  0  0  0  0  0  0  0  0  0  0
   64.6432   32.8753   46.8335 H   0  0  0  0  0  0  0  0  0  0  0  0
   62.3917   32.9858   45.9705 H   0  0  0  0  0  0  0  0  0  0  0  0
  1  2  1  0
  2  3  1  0
  3  4  1  0
  4  5  1  0
  5  6  1  0
  6  7  1  0
  7  8  1  0
  8  9  1  0
  9 10  1  0
 10 11  2  0
 10 12  1  0
 12 13  1  0
 13 14  2  0
 14 15  1  0
 15 16  2  0
 16 17  1  0
 17 18  2  0
  9 19  1  0
 19 20  2  0
 20 21  1  0
 21 22  1  0
 22 23  2  0
 22 24  1  0
 24 25  2  0
 18 13  1  0
 25 19  1  0
  1 26  1  0
  1 27  1  0
  1 28  1  0
  2 29  1  0
  2 30  1  0
  3 31  1  0
  3 32  1  0
  4 33  1  0
  4 34  1  0
  5 35  1  0
  5 36  1  0
  6 37  1  0
  6 38  1  0
  7 39  1  0
  7 40  1  0
  8 41  1  0
  8 42  1  0
 12 43  1  0
 14 44  1  0
 15 45  1  0
 16 46  1  0
 17 47  1  0
 18 48  1  0
 20 49  1  0
 21 50  1  0
 21 51  1  0
 24 52  1  0
 25 53  1  0
M  END
>  <UniqueID>  (10) 
9

>  <SMILES>  (10) 
CCCCCCCCN(C(=O)Nc1ccccc1)C1=CCC(=O)C=C1

>  <Energy>  (10) 
48.043845483334614

>  <Genealogy>  (10) 
CCCCCCCCN(C(=O)Nc1ccccc1)C1=CCC(=O)C=C1 (3D coordinates assigned)
CCCCCCCCN(C(=O)Nc1ccccc1)C1=CCC(=O)C=C1 (nonaromatic ring conformer: 48.043845483334614 kcal/mol)

>  <smiles>  (10) 
CCCCCCCCN(C(=O)Nc1ccccc1)C1=CCC(=O)C=C1

>  <score_type>  (10) 
oracle

>  <origin>  (10) 
adg

>  <m_score__min__energy>  (10) 
-7.5

>  <m_primary>  (10) 
energy

$$$$
10:0
     RDKit          3D

 55 58  0  0  0  0  0  0  0  0999 V2000
   58.2160   33.0762   42.5147 H   0  0  0  0  0  0  0  0  0  0  0  0
   57.7440   32.2530   43.0710 C   0  0  0  0  0  0  0  0  0  0  0  0
   57.7700   32.2410   44.4740 C   0  0  0  0  0  0  0  0  0  0  0  0
   58.4310   33.3240   45.2480 C   0  0  0  0  0  0  0  0  0  0  0  0
   59.0020   34.4120   44.5710 C   0  0  0  0  0  0  0  0  0  0  0  0
   58.9626   34.4631   43.4729 H   0  0  0  0  0  0  0  0  0  0  0  0
   59.6190   35.4270   45.2980 C   0  0  0  0  0  0  0  0  0  0  0  0
   60.0617   36.2871   44.7743 H   0  0  0  0  0  0  0  0  0  0  0  0
   59.6760   35.3540   46.6870 C   0  0  0  0  0  0  0  0  0  0  0  0
   60.1554   36.1582   47.2644 H   0  0  0  0  0  0  0  0  0  0  0  0
   59.1160   34.2440   47.3480 C   0  0  0  0  0  0  0  0  0  0  0  0
   59.1590   34.1140   48.6460 N   0  0  0  0  0  0  0  0  0  0  0  0
   60.3160   33.7710   49.4750 C   0  0  0  0  0  0  0  0  0  0  0  0
   59.9899   33.1032   50.2860 H   0  0  0  0  0  0  0  0  0  0  0  0
   60.7385   34.7016   49.8819 H   0  0  0  0  0  0  0  0  0  0  0  0
   61.3900   33.0740   48.6640 C   0  0  0  0  0  0  0  0  0  0  0  0
   62.6220   33.7330   48.4920 C   0  0  0  0  0  0  0  0  0  0  0  0
   62.7781   34.7196   48.9528 H   0  0  0  0  0  0  0  0  0  0  0  0
   63.6470   33.1530   47.7460 C   0  0  0  0  0  0  0  0  0  0  0  0
   64.6023   33.6831   47.6182 H   0  0  0  0  0  0  0  0  0  0  0  0
   63.4610   31.9030   47.1630 C   0  0  0  0  0  0  0  0  0  0  0  0
   64.2662   31.4517   46.5647 H   0  0  0  0  0  0  0  0  0  0  0  0
   62.2570   31.2210   47.3350 C   0  0  0  0  0  0  0  0  0  0  0  0
   62.1211   30.2337   46.8694 H   0  0  0  0  0  0  0  0  0  0  0  0
   61.2140   31.7790   48.0960 C   0  0  0  0  0  0  0  0  0  0  0  0
   59.7110   30.8460   48.2860 S   0  0  0  0  0  0  0  0  0  0  0  0
   58.6970   31.6390   49.0600 O   0  0  0  0  0  0  0  0  0  0  0  0
   59.1570   30.5100   46.9300 O   0  0  0  0  0  0  0  0  0  0  0  0
   59.9790   29.3270   49.1780 C   0  0  0  0  0  0  0  0  0  0  0  0
   59.9439   29.5257   50.2593 H   0  0  0  0  0  0  0  0  0  0  0  0
   59.1948   28.6027   48.9127 H   0  0  0  0  0  0  0  0  0  0  0  0
   60.9637   28.9148   48.9127 H   0  0  0  0  0  0  0  0  0  0  0  0
   58.5100   33.2660   46.6130 N   0  0  0  0  0  0  0  0  0  0  0  0
   58.1280   32.4370   47.1190 H   0  0  0  0  0  0  0  0  0  0  0  0
   57.1950   31.2010   45.1390 N   0  0  0  0  0  0  0  0  0  0  0  0
   56.5760   30.1680   44.5030 C   0  0  0  0  0  0  0  0  0  0  0  0
   56.0550   29.2170   45.2260 N   0  0  0  0  0  0  0  0  0  0  0  0
   56.5030   27.8260   45.3180 C   0  0  0  0  0  0  0  0  0  0  0  0
   55.9807   27.3337   46.1516 H   0  0  0  0  0  0  0  0  0  0  0  0
   56.2742   27.3193   44.3688 H   0  0  0  0  0  0  0  0  0  0  0  0
   57.9890   27.7550   45.5560 C   0  0  0  0  0  0  0  0  0  0  0  0
   58.8800   28.3290   44.6350 C   0  0  0  0  0  0  0  0  0  0  0  0
   58.4911   28.8236   43.7327 H   0  0  0  0  0  0  0  0  0  0  0  0
   60.2590   28.2750   44.8590 C   0  0  0  0  0  0  0  0  0  0  0  0
   60.9515   28.7208   44.1298 H   0  0  0  0  0  0  0  0  0  0  0  0
   60.7590   27.6560   46.0070 C   0  0  0  0  0  0  0  0  0  0  0  0
   61.8445   27.6113   46.1796 H   0  0  0  0  0  0  0  0  0  0  0  0
   59.8790   27.0930   46.9370 C   0  0  0  0  0  0  0  0  0  0  0  0
   60.3640   26.4990   48.0550 F   0  0  0  0  0  0  0  0  0  0  0  0
   58.4990   27.1450   46.7160 C   0  0  0  0  0  0  0  0  0  0  0  0
   57.8095   26.7069   47.4527 H   0  0  0  0  0  0  0  0  0  0  0  0
   56.5240   30.1670   43.0950 C   0  0  0  0  0  0  0  0  0  0  0  0
   56.0217   29.3484   42.5586 H   0  0  0  0  0  0  0  0  0  0  0  0
   57.1150   31.2130   42.3880 C   0  0  0  0  0  0  0  0  0  0  0  0
   57.0850   31.2178   41.2884 H   0  0  0  0  0  0  0  0  0  0  0  0
  1  2  1  0
  2  3  2  0
  3  4  1  0
  4  5  2  0
  5  6  1  0
  5  7  1  0
  7  8  1  0
  7  9  2  0
  9 10  1  0
  9 11  1  0
 11 12  2  0
 12 13  1  0
 13 14  1  0
 13 15  1  0
 13 16  1  0
 16 17  2  0
 17 18  1  0
 17 19  1  0
 19 20  1  0
 19 21  2  0
 21 22  1  0
 21 23  1  0
 23 24  1  0
 23 25  2  0
 25 26  1  0
 26 27  2  0
 26 28  2  0
 26 29  1  0
 29 30  1  0
 29 31  1  0
 29 32  1  0
 11 33  1  0
 33 34  1  0
  3 35  1  0
 35 36  1  0
 36 37  2  3
 37 38  1  0
 38 39  1  0
 38 40  1  0
 38 41  1  0
 41 42  2  0
 42 43  1  0
 42 44  1  0
 44 45  1  0
 44 46  2  0
 46 47  1  0
 46 48  1  0
 48 49  1  0
 48 50  2  0
 50 51  1  0
 36 52  1  0
 52 53  1  0
 52 54  2  0
 54 55  1  0
 54  2  1  0
 33  4  1  0
 50 41  1  0
 25 16  1  0
M  CHG  1  35  -1
M  END
>  <UniqueID>  (11) 
10

>  <SMILES>  (11) 
CS(=O)(=O)c1ccccc1C/N=c1\cccc(-c2cccc(=NCc3cccc(F)c3)[n-]2)[nH]1

>  <Energy>  (11) 
68.67462504222591

>  <Genealogy>  (11) 
CS(=O)(=O)c1ccccc1CN=c1cccc(-c2cccc(=NCc3cccc(F)c3)[n-]2)[nH]1 (protonated)
CS(=O)(=O)c1ccccc1C/N=c1\cccc(-c2cccc(=NCc3cccc(F)c3)[n-]2)[nH]1 (cis-trans isomerization)
CS(=O)(=O)c1ccccc1C/N=c1\cccc(-c2cccc(=NCc3cccc(F)c3)[n-]2)[nH]1 (3D coordinates assigned)
CS(=O)(=O)c1ccccc1C/N=c1\cccc(-c2cccc(=NCc3cccc(F)c3)[n-]2)[nH]1 (optimized conformer: 68.67462504222591 kcal/mol)

>  <smiles>  (11) 
CS(=O)(=O)c1ccccc1CN=c1cccc(-c2cccc(=NCc3cccc(F)c3)[nH]2)[nH]1

>  <score_type>  (11) 
oracle

>  <origin>  (11) 
adg

>  <m_score__min__energy>  (11) 
-11.529999999999999

>  <m_primary>  (11) 
energy

$$$$
11:0
     RDKit          3D

 59 62  0  0  0  0  0  0  0  0999 V2000
   58.7100   34.3750   51.6660 N   0  0  0  0  0  0  0  0  0  0  0  0
   59.8130   33.6520   50.5520 S   0  0  0  0  0  0  0  0  0  0  0  0
   59.3570   32.2560   50.2380 O   0  0  0  0  0  0  0  0  0  0  0  0
   61.1810   33.6120   51.1710 O   0  0  0  0  0  0  0  0  0  0  0  0
   59.8570   34.5860   49.1180 O   0  0  0  0  0  0  0  0  0  0  0  0
   59.3260   34.1850   47.8840 C   0  0  0  0  0  0  0  0  0  0  0  0
   58.2500   33.2840   47.7750 C   0  0  0  0  0  0  0  0  0  0  0  0
   57.7560   32.9230   46.5170 C   0  0  0  0  0  0  0  0  0  0  0  0
   58.3230   33.4630   45.3530 C   0  0  0  0  0  0  0  0  0  0  0  0
   57.8090   33.0580   43.9950 C   0  0  0  0  0  0  0  0  0  0  0  0
   57.7810   31.5370   43.8450 C   0  0  0  0  0  0  0  0  0  0  0  0
   56.5810   30.9940   44.4770 N   0  0  0  0  0  0  0  0  0  0  0  0
   56.4380   29.6570   44.9720 C   0  0  0  0  0  0  0  0  0  0  0  0
   55.3760   29.0310   44.7170 O   0  0  0  0  0  0  0  0  0  0  0  0
   57.4670   29.0080   45.8130 C   0  0  0  0  0  0  0  0  0  0  0  0
   57.4000   27.6400   46.1130 C   0  0  0  0  0  0  0  0  0  0  0  0
   58.3820   27.0430   46.9090 C   0  0  0  0  0  0  0  0  0  0  0  0
   59.4390   27.8060   47.4220 C   0  0  0  0  0  0  0  0  0  0  0  0
   60.4780   27.1620   48.2950 C   0  0  0  0  0  0  0  0  0  0  0  0
   60.3950   27.7160   49.6410 N   0  0  0  0  0  0  0  0  0  0  0  0
   61.1290   28.7100   50.0360 C   0  0  0  0  0  0  0  0  0  0  0  0
   60.8330   30.0530   49.7390 N   0  0  0  0  0  0  0  0  0  0  0  0
   61.8470   30.8740   50.3940 C   0  0  2  0  0  0  0  0  0  0  0  0
   62.5530   31.7600   49.3940 C   0  0  0  0  0  0  0  0  0  0  0  0
   62.0450   31.8870   48.0890 C   0  0  0  0  0  0  0  0  0  0  0  0
   62.6760   32.7250   47.1640 C   0  0  0  0  0  0  0  0  0  0  0  0
   63.8080   33.4570   47.5370 C   0  0  0  0  0  0  0  0  0  0  0  0
   64.3110   33.3490   48.8340 C   0  0  0  0  0  0  0  0  0  0  0  0
   63.6850   32.5100   49.7610 C   0  0  0  0  0  0  0  0  0  0  0  0
   62.8160   29.8610   51.0680 C   0  0  0  0  0  0  0  0  0  0  0  0
   62.2700   28.5750   50.7950 O   0  0  0  0  0  0  0  0  0  0  0  0
   59.4850   29.1820   47.1560 C   0  0  0  0  0  0  0  0  0  0  0  0
   58.5050   29.7790   46.3570 C   0  0  0  0  0  0  0  0  0  0  0  0
   59.4060   34.3490   45.4620 C   0  0  0  0  0  0  0  0  0  0  0  0
   59.9000   34.7080   46.7190 C   0  0  0  0  0  0  0  0  0  0  0  0
   58.5410   35.3470   51.3310 H   0  0  0  0  0  0  0  0  0  0  0  0
   57.7954   32.8618   48.6834 H   0  0  0  0  0  0  0  0  0  0  0  0
   56.9195   32.2128   46.4402 H   0  0  0  0  0  0  0  0  0  0  0  0
   56.7894   33.4500   43.8658 H   0  0  0  0  0  0  0  0  0  0  0  0
   58.4833   33.4708   43.2302 H   0  0  0  0  0  0  0  0  0  0  0  0
   57.7794   31.2764   42.7763 H   0  0  0  0  0  0  0  0  0  0  0  0
   58.6700   31.1100   44.3321 H   0  0  0  0  0  0  0  0  0  0  0  0
   56.5707   27.0335   45.7201 H   0  0  0  0  0  0  0  0  0  0  0  0
   58.3244   25.9678   47.1339 H   0  0  0  0  0  0  0  0  0  0  0  0
   60.3024   26.0768   48.3339 H   0  0  0  0  0  0  0  0  0  0  0  0
   61.4776   27.3577   47.8796 H   0  0  0  0  0  0  0  0  0  0  0  0
   59.9930   30.4010   49.2260 H   0  0  0  0  0  0  0  0  0  0  0  0
   61.4137   31.5611   51.1357 H   0  0  0  0  0  0  0  0  0  0  0  0
   61.1469   31.3245   47.7942 H   0  0  0  0  0  0  0  0  0  0  0  0
   62.2811   32.8086   46.1407 H   0  0  0  0  0  0  0  0  0  0  0  0
   64.3013   34.1172   46.8085 H   0  0  0  0  0  0  0  0  0  0  0  0
   65.2012   33.9246   49.1276 H   0  0  0  0  0  0  0  0  0  0  0  0
   64.0806   32.4359   50.7847 H   0  0  0  0  0  0  0  0  0  0  0  0
   63.8248   29.9496   50.6386 H   0  0  0  0  0  0  0  0  0  0  0  0
   62.9111   30.0435   52.1486 H   0  0  0  0  0  0  0  0  0  0  0  0
   60.2956   29.7945   47.5777 H   0  0  0  0  0  0  0  0  0  0  0  0
   58.5482   30.8592   46.1539 H   0  0  0  0  0  0  0  0  0  0  0  0
   59.8682   34.7628   44.5536 H   0  0  0  0  0  0  0  0  0  0  0  0
   60.7462   35.4068   46.7937 H   0  0  0  0  0  0  0  0  0  0  0  0
  1  2  1  0
  2  3  2  0
  2  4  2  0
  2  5  1  0
  5  6  1  0
  6  7  2  0
  7  8  1  0
  8  9  2  0
  9 10  1  0
 10 11  1  0
 11 12  1  0
 12 13  1  0
 13 14  2  0
 13 15  1  0
 15 16  2  0
 16 17  1  0
 17 18  2  0
 18 19  1  0
 19 20  1  0
 20 21  2  3
 21 22  1  0
 22 23  1  0
 23 24  1  0
 24 25  2  0
 25 26  1  0
 26 27  2  0
 27 28  1  0
 28 29  2  0
 23 30  1  0
 30 31  1  0
 18 32  1  0
 32 33  2  0
  9 34  1  0
 34 35  2  0
 35  6  1  0
 33 15  1  0
 31 21  1  0
 29 24  1  0
  1 36  1  0
  7 37  1  0
  8 38  1  0
 10 39  1  0
 10 40  1  0
 11 41  1  0
 11 42  1  0
 16 43  1  0
 17 44  1  0
 19 45  1  0
 19 46  1  0
 22 47  1  0
 23 48  1  1
 25 49  1  0
 26 50  1  0
 27 51  1  0
 28 52  1  0
 29 53  1  0
 30 54  1  0
 30 55  1  0
 32 56  1  0
 33 57  1  0
 34 58  1  0
 35 59  1  0
M  CHG  2   1  -1  12  -1
M  END
>  <UniqueID>  (12) 
11

>  <SMILES>  (12) 
[NH-]S(=O)(=O)Oc1ccc(CC[N-]C(=O)c2ccc(CN=C3N[C@H](c4ccccc4)CO3)cc2)cc1

>  <Energy>  (12) 
74.0791691178444

>  <Genealogy>  (12) 
[NH-]S(=O)(=O)Oc1ccc(CC[N-]C(=O)c2ccc(CN=C3NC(c4ccccc4)CO3)cc2)cc1 (protonated)
[NH-]S(=O)(=O)Oc1ccc(CC[N-]C(=O)c2ccc(CN=C3N[C@H](c4ccccc4)CO3)cc2)cc1 (chirality)
[NH-]S(=O)(=O)Oc1ccc(CC[N-]C(=O)c2ccc(CN=C3N[C@H](c4ccccc4)CO3)cc2)cc1 (3D coordinates assigned)
[NH-]S(=O)(=O)Oc1ccc(CC[N-]C(=O)c2ccc(CN=C3N[C@H](c4ccccc4)CO3)cc2)cc1 (nonaromatic ring conformer: 74.0791691178444 kcal/mol)

>  <smiles>  (12) 
NS(=O)(=O)Oc1ccc(CCNC(=O)c2ccc(CN=C3NC(c4ccccc4)CO3)cc2)cc1

>  <score_type>  (12) 
oracle

>  <origin>  (12) 
adg

>  <m_score__min__energy>  (12) 
-13.02

>  <m_primary>  (12) 
energy

$$$$
12:0
     RDKit          3D

 59 62  0  0  0  0  0  0  0  0999 V2000
   57.2030   21.0680   49.9230 C   0  0  0  0  0  0  0  0  0  0  0  0
   57.0340   21.5970   48.5590 N   0  0  0  0  0  0  0  0  0  0  0  0
   56.3350   22.8920   48.6250 C   0  0  0  0  0  0  0  0  0  0  0  0
   56.2830   20.6180   47.7390 C   0  0  0  0  0  0  0  0  0  0  0  0
   56.9570   20.3510   46.3830 C   0  0  0  0  0  0  0  0  0  0  0  0
   55.9710   20.2420   45.2100 C   0  0  0  0  0  0  0  0  0  0  0  0
   54.9190   21.2030   45.3360 O   0  0  0  0  0  0  0  0  0  0  0  0
   55.0630   22.6000   45.4360 C   0  0  0  0  0  0  0  0  0  0  0  0
   53.9690   23.4790   45.5700 C   0  0  0  0  0  0  0  0  0  0  0  0
   54.1770   24.8570   45.6620 C   0  0  0  0  0  0  0  0  0  0  0  0
   55.4700   25.3840   45.6030 C   0  0  0  0  0  0  0  0  0  0  0  0
   55.6550   26.7280   45.6710 N   0  0  0  0  0  0  0  0  0  0  0  0
   56.8930   27.2910   45.6150 C   0  0  0  0  0  0  0  0  0  0  0  0
   57.0240   28.6830   45.7130 C   0  0  0  0  0  0  0  0  0  0  0  0
   58.2940   29.2760   45.7130 C   0  0  0  0  0  0  0  0  0  0  0  0
   58.4140   30.6880   45.9060 N   0  0  0  0  0  0  0  0  0  0  0  0
   57.4350   31.6090   45.3970 C   0  0  0  0  0  0  0  0  0  0  0  0
   56.4950   31.1890   44.6720 O   0  0  0  0  0  0  0  0  0  0  0  0
   57.5550   33.0600   45.6250 C   0  0  0  0  0  0  0  0  0  0  0  0
   58.0360   33.6320   46.7400 C   0  0  0  0  0  0  0  0  0  0  0  0
   59.4410   33.5420   47.1960 C   0  0  0  0  0  0  0  0  0  0  0  0
   60.4830   34.0070   46.3710 C   0  0  0  0  0  0  0  0  0  0  0  0
   60.2160   34.5600   45.1590 F   0  0  0  0  0  0  0  0  0  0  0  0
   61.8130   33.8700   46.7800 C   0  0  0  0  0  0  0  0  0  0  0  0
   62.1150   33.2680   48.0030 C   0  0  0  0  0  0  0  0  0  0  0  0
   61.0920   32.8060   48.8270 C   0  0  0  0  0  0  0  0  0  0  0  0
   59.7550   32.9200   48.4220 C   0  0  0  0  0  0  0  0  0  0  0  0
   58.4940   32.3240   49.4950 Cl  0  0  0  0  0  0  0  0  0  0  0  0
   59.4360   28.4710   45.5610 C   0  0  0  0  0  0  0  0  0  0  0  0
   59.3140   27.0820   45.4450 C   0  0  0  0  0  0  0  0  0  0  0  0
   58.0410   26.4740   45.4830 C   0  0  0  0  0  0  0  0  0  0  0  0
   57.8760   25.0760   45.4070 C   0  0  0  0  0  0  0  0  0  0  0  0
   58.8830   24.3220   45.2900 O   0  0  0  0  0  0  0  0  0  0  0  0
   56.5790   24.5190   45.4670 C   0  0  0  0  0  0  0  0  0  0  0  0
   56.3610   23.1300   45.3910 C   0  0  0  0  0  0  0  0  0  0  0  0
   56.9528   21.8513   50.6537 H   0  0  0  0  0  0  0  0  0  0  0  0
   56.5357   20.2055   50.0671 H   0  0  0  0  0  0  0  0  0  0  0  0
   58.2468   20.7521   50.0671 H   0  0  0  0  0  0  0  0  0  0  0  0
   56.1831   23.1734   49.6775 H   0  0  0  0  0  0  0  0  0  0  0  0
   56.9403   23.6614   48.1234 H   0  0  0  0  0  0  0  0  0  0  0  0
   55.3596   22.8082   48.1234 H   0  0  0  0  0  0  0  0  0  0  0  0
   56.2163   19.6702   48.2932 H   0  0  0  0  0  0  0  0  0  0  0  0
   55.2865   21.0399   47.5414 H   0  0  0  0  0  0  0  0  0  0  0  0
   57.6543   21.1757   46.1742 H   0  0  0  0  0  0  0  0  0  0  0  0
   57.4658   19.3792   46.4645 H   0  0  0  0  0  0  0  0  0  0  0  0
   56.5107   20.4203   44.2682 H   0  0  0  0  0  0  0  0  0  0  0  0
   55.5291   19.2347   45.2150 H   0  0  0  0  0  0  0  0  0  0  0  0
   52.9455   23.0772   45.6023 H   0  0  0  0  0  0  0  0  0  0  0  0
   53.3170   25.5323   45.7817 H   0  0  0  0  0  0  0  0  0  0  0  0
   56.1257   29.3132   45.7903 H   0  0  0  0  0  0  0  0  0  0  0  0
   59.3360   31.0550   46.2440 H   0  0  0  0  0  0  0  0  0  0  0  0
   57.2237   33.7281   44.8164 H   0  0  0  0  0  0  0  0  0  0  0  0
   57.3347   34.2098   47.3600 H   0  0  0  0  0  0  0  0  0  0  0  0
   62.6249   34.2381   46.1355 H   0  0  0  0  0  0  0  0  0  0  0  0
   63.1637   33.1584   48.3164 H   0  0  0  0  0  0  0  0  0  0  0  0
   61.3338   32.3503   49.7985 H   0  0  0  0  0  0  0  0  0  0  0  0
   60.4324   28.9361   45.5330 H   0  0  0  0  0  0  0  0  0  0  0  0
   60.2140   26.4613   45.3237 H   0  0  0  0  0  0  0  0  0  0  0  0
   57.2209   22.4508   45.2950 H   0  0  0  0  0  0  0  0  0  0  0  0
  1  2  1  0
  2  3  1  0
  2  4  1  0
  4  5  1  0
  5  6  1  0
  6  7  1  0
  7  8  1  0
  8  9  2  0
  9 10  1  0
 10 11  2  0
 11 12  1  0
 12 13  1  0
 13 14  2  0
 14 15  1  0
 15 16  1  0
 16 17  1  0
 17 18  2  0
 17 19  1  0
 19 20  2  3
 20 21  1  0
 21 22  2  0
 22 23  1  0
 22 24  1  0
 24 25  2  0
 25 26  1  0
 26 27  2  0
 27 28  1  0
 15 29  2  0
 29 30  1  0
 30 31  2  0
 31 32  1  0
 32 33  2  0
 32 34  1  0
 34 35  2  0
 35  8  1  0
 34 11  1  0
 31 13  1  0
 27 21  1  0
  1 36  1  0
  1 37  1  0
  1 38  1  0
  3 39  1  0
  3 40  1  0
  3 41  1  0
  4 42  1  0
  4 43  1  0
  5 44  1  0
  5 45  1  0
  6 46  1  0
  6 47  1  0
  9 48  1  0
 10 49  1  0
 14 50  1  0
 16 51  1  0
 19 52  1  0
 20 53  1  0
 24 54  1  0
 25 55  1  0
 26 56  1  0
 29 57  1  0
 30 58  1  0
 35 59  1  0
M  CHG  1  12  -1
M  END
>  <UniqueID>  (13) 
12

>  <SMILES>  (13) 
CN(C)CCCOc1ccc2[n-]c3cc(NC(=O)C=Cc4c(F)cccc4Cl)ccc3c(=O)c2c1

>  <Energy>  (13) 
85.30457210752616

>  <Genealogy>  (13) 
CN(C)CCCOc1ccc2[n-]c3cc(NC(=O)C=Cc4c(F)cccc4Cl)ccc3c(=O)c2c1 (protonated)
CN(C)CCCOc1ccc2[n-]c3cc(NC(=O)C=Cc4c(F)cccc4Cl)ccc3c(=O)c2c1 (3D coordinates assigned)
CN(C)CCCOc1ccc2[n-]c3cc(NC(=O)C=Cc4c(F)cccc4Cl)ccc3c(=O)c2c1 (optimized conformer: 85.30457210752616 kcal/mol)

>  <smiles>  (13) 
CN(C)CCCOc1ccc2[nH]c3cc(NC(=O)C=Cc4c(F)cccc4Cl)ccc3c(=O)c2c1

>  <score_type>  (13) 
oracle

>  <origin>  (13) 
adg

>  <m_score__min__energy>  (13) 
-10.550000000000001

>  <m_primary>  (13) 
energy

$$$$
13:0
     RDKit          3D

 42 43  0  0  0  0  0  0  0  0999 V2000
   56.9000   29.3480   43.3130 C   0  0  0  0  0  0  0  0  0  0  0  0
   56.3590   29.0950   44.6800 C   0  0  0  0  0  0  0  0  0  0  0  0
   55.1550   29.3690   44.9320 O   0  0  0  0  0  0  0  0  0  0  0  0
   57.2430   28.6460   45.7140 N   0  0  0  0  0  0  0  0  0  0  0  0
   58.3560   29.3670   46.2620 C   0  0  0  0  0  0  0  0  0  0  0  0
   58.8650   30.4580   45.5460 C   0  0  0  0  0  0  0  0  0  0  0  0
   59.9730   31.1630   46.0220 C   0  0  0  0  0  0  0  0  0  0  0  0
   60.6060   30.7670   47.2060 C   0  0  0  0  0  0  0  0  0  0  0  0
   61.9590   31.7030   47.8400 S   0  0  0  0  0  0  0  0  0  0  0  0
   62.0300   31.4880   49.3260 O   0  0  0  0  0  0  0  0  0  0  0  0
   63.2430   31.1970   47.2430 O   0  0  0  0  0  0  0  0  0  0  0  0
   61.8100   33.4120   47.5110 N   0  0  0  0  0  0  0  0  0  0  0  0
   63.0160   33.9590   46.8780 C   0  0  0  0  0  0  0  0  0  0  0  0
   61.2120   34.1870   48.6280 C   0  0  0  0  0  0  0  0  0  0  0  0
   59.6710   34.3640   48.6270 C   0  0  0  0  0  0  0  0  0  0  0  0
   59.0310   34.1410   47.2800 C   0  0  0  0  0  0  0  0  0  0  0  0
   59.5900   34.7270   46.1310 C   0  0  0  0  0  0  0  0  0  0  0  0
   58.9410   34.6210   44.8970 C   0  0  0  0  0  0  0  0  0  0  0  0
   57.7310   33.9300   44.7990 C   0  0  0  0  0  0  0  0  0  0  0  0
   57.1680   33.3440   45.9350 C   0  0  0  0  0  0  0  0  0  0  0  0
   57.8090   33.4540   47.1730 C   0  0  0  0  0  0  0  0  0  0  0  0
   60.1120   29.6650   47.9180 C   0  0  0  0  0  0  0  0  0  0  0  0
   58.9950   28.9680   47.4490 C   0  0  0  0  0  0  0  0  0  0  0  0
   57.8938   29.8128   43.3922 H   0  0  0  0  0  0  0  0  0  0  0  0
   56.9830   28.3953   42.7694 H   0  0  0  0  0  0  0  0  0  0  0  0
   56.2221   30.0225   42.7694 H   0  0  0  0  0  0  0  0  0  0  0  0
   58.3888   30.7618   44.6021 H   0  0  0  0  0  0  0  0  0  0  0  0
   60.3496   32.0330   45.4641 H   0  0  0  0  0  0  0  0  0  0  0  0
   63.7246   34.2804   47.6556 H   0  0  0  0  0  0  0  0  0  0  0  0
   63.4846   33.1853   46.2520 H   0  0  0  0  0  0  0  0  0  0  0  0
   62.7426   34.8212   46.2520 H   0  0  0  0  0  0  0  0  0  0  0  0
   61.4857   33.6803   49.5652 H   0  0  0  0  0  0  0  0  0  0  0  0
   61.6129   35.2047   48.5116 H   0  0  0  0  0  0  0  0  0  0  0  0
   59.2394   33.6449   49.3388 H   0  0  0  0  0  0  0  0  0  0  0  0
   59.4695   35.4085   48.9071 H   0  0  0  0  0  0  0  0  0  0  0  0
   60.5429   35.2718   46.2030 H   0  0  0  0  0  0  0  0  0  0  0  0
   59.3840   35.0824   44.0021 H   0  0  0  0  0  0  0  0  0  0  0  0
   57.2217   33.8474   43.8275 H   0  0  0  0  0  0  0  0  0  0  0  0
   56.2183   32.7947   45.8557 H   0  0  0  0  0  0  0  0  0  0  0  0
   57.3552   33.0011   48.0669 H   0  0  0  0  0  0  0  0  0  0  0  0
   60.6051   29.3479   48.8488 H   0  0  0  0  0  0  0  0  0  0  0  0
   58.6139   28.1029   48.0115 H   0  0  0  0  0  0  0  0  0  0  0  0
  1  2  1  0
  2  3  2  0
  2  4  1  0
  4  5  1  0
  5  6  2  0
  6  7  1  0
  7  8  2  0
  8  9  1  0
  9 10  2  0
  9 11  2  0
  9 12  1  0
 12 13  1  0
 12 14  1  0
 14 15  1  0
 15 16  1  0
 16 17  2  0
 17 18  1  0
 18 19  2  0
 19 20  1  0
 20 21  2  0
  8 22  1  0
 22 23  2  0
 23  5  1  0
 21 16  1  0
  1 24  1  0
  1 25  1  0
  1 26  1  0
  6 27  1  0
  7 28  1  0
 13 29  1  0
 13 30  1  0
 13 31  1  0
 14 32  1  0
 14 33  1  0
 15 34  1  0
 15 35  1  0
 17 36  1  0
 18 37  1  0
 19 38  1  0
 20 39  1  0
 21 40  1  0
 22 41  1  0
 23 42  1  0
M  CHG  1   4  -1
M  END
>  <UniqueID>  (14) 
13

>  <SMILES>  (14) 
CC(=O)[N-]c1ccc(S(=O)(=O)N(C)CCc2ccccc2)cc1

>  <Energy>  (14) 
47.67819306236479

>  <Genealogy>  (14) 
CC(=O)[N-]c1ccc(S(=O)(=O)N(C)CCc2ccccc2)cc1 (protonated)
CC(=O)[N-]c1ccc(S(=O)(=O)N(C)CCc2ccccc2)cc1 (3D coordinates assigned)
CC(=O)[N-]c1ccc(S(=O)(=O)N(C)CCc2ccccc2)cc1 (optimized conformer: 47.67819306236479 kcal/mol)

>  <smiles>  (14) 
CC(=O)Nc1ccc(S(=O)(=O)N(C)CCc2ccccc2)cc1

>  <score_type>  (14) 
oracle

>  <origin>  (14) 
adg

>  <m_score__min__energy>  (14) 
-9.3300000000000001

>  <m_primary>  (14) 
energy

$$$$
14:0
     RDKit          3D

 37 38  0  0  0  0  0  0  0  0999 V2000
   57.3990   23.9860   46.8160 C   0  0  0  0  0  0  0  0  0  0  0  0
   56.4050   25.1530   46.8130 C   0  0  2  0  0  0  0  0  0  0  0  0
   55.2380   24.8740   45.8510 C   0  0  0  0  0  0  0  0  0  0  0  0
   54.4120   26.0030   45.7360 O   0  0  0  0  0  0  0  0  0  0  0  0
   57.1020   26.4400   46.4500 C   0  0  0  0  0  0  0  0  0  0  0  0
   58.1470   26.7800   47.0710 O   0  0  0  0  0  0  0  0  0  0  0  0
   56.6250   27.2280   45.3470 N   0  0  0  0  0  0  0  0  0  0  0  0
   57.0810   28.5600   45.0540 C   0  0  0  0  0  0  0  0  0  0  0  0
   56.1840   29.4880   44.5030 C   0  0  0  0  0  0  0  0  0  0  0  0
   56.5960   30.7950   44.2290 C   0  0  0  0  0  0  0  0  0  0  0  0
   57.9070   31.1960   44.5020 C   0  0  0  0  0  0  0  0  0  0  0  0
   58.2790   32.5210   44.2250 O   0  0  0  0  0  0  0  0  0  0  0  0
   58.7090   33.4600   45.1730 C   0  0  0  0  0  0  0  0  0  0  0  0
   58.5110   33.1820   46.5320 C   0  0  0  0  0  0  0  0  0  0  0  0
   58.9120   34.1000   47.5080 C   0  0  0  0  0  0  0  0  0  0  0  0
   59.5030   35.3090   47.1300 C   0  0  0  0  0  0  0  0  0  0  0  0
   59.6870   35.6040   45.7770 C   0  0  0  0  0  0  0  0  0  0  0  0
   59.2860   34.6870   44.7990 C   0  0  0  0  0  0  0  0  0  0  0  0
   58.7970   30.2830   45.0940 C   0  0  0  0  0  0  0  0  0  0  0  0
   58.3860   28.9750   45.3680 C   0  0  0  0  0  0  0  0  0  0  0  0
   57.6354   23.7084   47.8538 H   0  0  0  0  0  0  0  0  0  0  0  0
   56.9537   23.1237   46.2982 H   0  0  0  0  0  0  0  0  0  0  0  0
   58.3212   24.2885   46.2982 H   0  0  0  0  0  0  0  0  0  0  0  0
   55.9922   25.2577   47.8272 H   0  0  0  0  0  0  0  0  0  0  0  0
   55.6400   24.6177   44.8597 H   0  0  0  0  0  0  0  0  0  0  0  0
   54.6431   24.0383   46.2480 H   0  0  0  0  0  0  0  0  0  0  0  0
   53.6590   25.8730   46.3700 H   0  0  0  0  0  0  0  0  0  0  0  0
   55.9740   26.7720   44.6680 H   0  0  0  0  0  0  0  0  0  0  0  0
   55.1494   29.1845   44.2852 H   0  0  0  0  0  0  0  0  0  0  0  0
   55.8840   31.5129   43.7957 H   0  0  0  0  0  0  0  0  0  0  0  0
   58.0373   32.2360   46.8331 H   0  0  0  0  0  0  0  0  0  0  0  0
   58.7623   33.8705   48.5733 H   0  0  0  0  0  0  0  0  0  0  0  0
   59.8233   36.0283   47.8981 H   0  0  0  0  0  0  0  0  0  0  0  0
   60.1475   36.5579   45.4802 H   0  0  0  0  0  0  0  0  0  0  0  0
   59.4225   34.9266   43.7341 H   0  0  0  0  0  0  0  0  0  0  0  0
   59.8209   30.5989   45.3427 H   0  0  0  0  0  0  0  0  0  0  0  0
   59.0883   28.2669   45.8320 H   0  0  0  0  0  0  0  0  0  0  0  0
  1  2  1  0
  2  3  1  0
  3  4  1  0
  2  5  1  0
  5  6  2  0
  5  7  1  0
  7  8  1  0
  8  9  2  0
  9 10  1  0
 10 11  2  0
 11 12  1  0
 12 13  1  0
 13 14  2  0
 14 15  1  0
 15 16  2  0
 16 17  1  0
 17 18  2  0
 11 19  1  0
 19 20  2  0
 20  8  1  0
 18 13  1  0
  1 21  1  0
  1 22  1  0
  1 23  1  0
  2 24  1  1
  3 25  1  0
  3 26  1  0
  4 27  1  0
  7 28  1  0
  9 29  1  0
 10 30  1  0
 14 31  1  0
 15 32  1  0
 16 33  1  0
 17 34  1  0
 18 35  1  0
 19 36  1  0
 20 37  1  0
M  END
>  <UniqueID>  (15) 
14

>  <SMILES>  (15) 
C[C@H](CO)C(=O)Nc1ccc(Oc2ccccc2)cc1

>  <Energy>  (15) 
42.60465660300371

>  <Genealogy>  (15) 
C[C@H](CO)C(=O)Nc1ccc(Oc2ccccc2)cc1 (chirality)
C[C@H](CO)C(=O)Nc1ccc(Oc2ccccc2)cc1 (3D coordinates assigned)
C[C@H](CO)C(=O)Nc1ccc(Oc2ccccc2)cc1 (optimized conformer: 42.60465660300371 kcal/mol)

>  <smiles>  (15) 
CC(CO)C(=O)Nc1ccc(Oc2ccccc2)cc1

>  <score_type>  (15) 
oracle

>  <origin>  (15) 
adg

>  <m_score__min__energy>  (15) 
-7.7599999999999998

>  <m_primary>  (15) 
energy

$$$$
15:0
     RDKit          3D

 48 51  0  0  0  0  0  0  0  0999 V2000
   58.8350   30.0330   48.5840 O   0  0  0  0  0  0  0  0  0  0  0  0
   59.5670   30.9390   48.1050 C   0  0  0  0  0  0  0  0  0  0  0  0
   60.2400   30.6940   46.7840 C   0  0  0  0  0  0  0  0  0  0  0  0
   59.5620   31.3750   45.7280 O   0  0  0  0  0  0  0  0  0  0  0  0
   58.4810   30.8620   44.9940 C   0  0  0  0  0  0  0  0  0  0  0  0
   58.1200   31.3580   43.7250 C   0  0  0  0  0  0  0  0  0  0  0  0
   57.0250   30.8160   43.0430 C   0  0  0  0  0  0  0  0  0  0  0  0
   56.2900   29.7740   43.6130 C   0  0  0  0  0  0  0  0  0  0  0  0
   56.6490   29.2720   44.8670 C   0  0  0  0  0  0  0  0  0  0  0  0
   57.7410   29.8120   45.5520 C   0  0  0  0  0  0  0  0  0  0  0  0
   59.7080   32.1890   48.8120 N   0  0  0  0  0  0  0  0  0  0  0  0
   60.3040   32.4240   50.0040 C   0  0  0  0  0  0  0  0  0  0  0  0
   61.0570   31.1910   51.0720 S   0  0  0  0  0  0  0  0  0  0  0  0
   62.7490   31.8690   50.9270 C   0  0  0  0  0  0  0  0  0  0  0  0
   63.0200   32.3640   49.5310 C   0  0  0  0  0  0  0  0  0  0  0  0
   63.0290   31.4630   48.4520 C   0  0  0  0  0  0  0  0  0  0  0  0
   63.2510   31.9240   47.1510 C   0  0  0  0  0  0  0  0  0  0  0  0
   63.4640   33.2840   46.9160 C   0  0  0  0  0  0  0  0  0  0  0  0
   63.4540   34.1870   47.9810 C   0  0  0  0  0  0  0  0  0  0  0  0
   63.2310   33.7340   49.2860 C   0  0  0  0  0  0  0  0  0  0  0  0
   63.2170   34.6280   50.3080 F   0  0  0  0  0  0  0  0  0  0  0  0
   60.3840   33.7410   50.2690 N   0  0  0  0  0  0  0  0  0  0  0  0
   59.8470   34.3770   49.2410 N   0  0  0  0  0  0  0  0  0  0  0  0
   59.4430   33.4390   48.3610 C   0  0  0  0  0  0  0  0  0  0  0  0
   58.7980   33.7860   47.0770 C   0  0  0  0  0  0  0  0  0  0  0  0
   57.4520   33.4640   46.8330 C   0  0  0  0  0  0  0  0  0  0  0  0
   56.8480   33.8210   45.6240 C   0  0  0  0  0  0  0  0  0  0  0  0
   57.5780   34.5140   44.6540 C   0  0  0  0  0  0  0  0  0  0  0  0
   58.9110   34.8570   44.8970 C   0  0  0  0  0  0  0  0  0  0  0  0
   59.5170   34.5020   46.1060 C   0  0  0  0  0  0  0  0  0  0  0  0
   61.2776   31.0555   46.8368 H   0  0  0  0  0  0  0  0  0  0  0  0
   60.2171   29.6143   46.5750 H   0  0  0  0  0  0  0  0  0  0  0  0
   58.7008   32.1736   43.2695 H   0  0  0  0  0  0  0  0  0  0  0  0
   56.7425   31.2113   42.0561 H   0  0  0  0  0  0  0  0  0  0  0  0
   55.4295   29.3489   43.0755 H   0  0  0  0  0  0  0  0  0  0  0  0
   56.0711   28.4505   45.3156 H   0  0  0  0  0  0  0  0  0  0  0  0
   58.0213   29.4094   46.5366 H   0  0  0  0  0  0  0  0  0  0  0  0
   62.8619   32.7054   51.6324 H   0  0  0  0  0  0  0  0  0  0  0  0
   63.4662   31.0674   51.1575 H   0  0  0  0  0  0  0  0  0  0  0  0
   62.8607   30.3910   48.6321 H   0  0  0  0  0  0  0  0  0  0  0  0
   63.2579   31.2141   46.3108 H   0  0  0  0  0  0  0  0  0  0  0  0
   63.6397   33.6440   45.8915 H   0  0  0  0  0  0  0  0  0  0  0  0
   63.6219   35.2578   47.7935 H   0  0  0  0  0  0  0  0  0  0  0  0
   56.8705   32.9281   47.5976 H   0  0  0  0  0  0  0  0  0  0  0  0
   55.7971   33.5563   45.4357 H   0  0  0  0  0  0  0  0  0  0  0  0
   57.1038   34.7891   43.7003 H   0  0  0  0  0  0  0  0  0  0  0  0
   59.4841   35.4070   44.1360 H   0  0  0  0  0  0  0  0  0  0  0  0
   60.5625   34.7850   46.2977 H   0  0  0  0  0  0  0  0  0  0  0  0
  1  2  2  0
  2  3  1  0
  3  4  1  0
  4  5  1  0
  5  6  2  0
  6  7  1  0
  7  8  2  0
  8  9  1  0
  9 10  2  0
  2 11  1  0
 11 12  1  0
 12 13  1  0
 13 14  1  0
 14 15  1  0
 15 16  2  0
 16 17  1  0
 17 18  2  0
 18 19  1  0
 19 20  2  0
 20 21  1  0
 12 22  2  0
 22 23  1  0
 23 24  2  0
 24 25  1  0
 25 26  2  0
 26 27  1  0
 27 28  2  0
 28 29  1  0
 29 30  2  0
 10  5  1  0
 24 11  1  0
 30 25  1  0
 20 15  1  0
  3 31  1  0
  3 32  1  0
  6 33  1  0
  7 34  1  0
  8 35  1  0
  9 36  1  0
 10 37  1  0
 14 38  1  0
 14 39  1  0
 16 40  1  0
 17 41  1  0
 18 42  1  0
 19 43  1  0
 26 44  1  0
 27 45  1  0
 28 46  1  0
 29 47  1  0
 30 48  1  0
M  END
>  <UniqueID>  (16) 
15

>  <SMILES>  (16) 
O=C(COc1ccccc1)n1c(SCc2ccccc2F)nnc1-c1ccccc1

>  <Energy>  (16) 
90.1857711066273

>  <Genealogy>  (16) 
O=C(COc1ccccc1)n1c(SCc2ccccc2F)nnc1-c1ccccc1 (3D coordinates assigned)
O=C(COc1ccccc1)n1c(SCc2ccccc2F)nnc1-c1ccccc1 (optimized conformer: 90.1857711066273 kcal/mol)

>  <smiles>  (16) 
O=C(COc1ccccc1)n1c(SCc2ccccc2F)nnc1-c1ccccc1

>  <score_type>  (16) 
oracle

>  <origin>  (16) 
adg

>  <m_score__min__energy>  (16) 
-9.2400000000000002

>  <m_primary>  (16) 
energy

$$$$
16:0
     RDKit          3D

 40 42  0  0  1  0  0  0  0  0999 V2000
   57.2710   31.0030   42.9340 C   0  0  0  0  0  0  0  0  0  0  0  0
   56.9030   29.8570   43.8010 C   0  0  0  0  0  0  0  0  0  0  0  0
   57.3970   28.5030   43.3750 C   0  0  0  0  0  0  0  0  0  0  0  0
   55.3670   29.7260   43.5790 C   0  0  0  0  0  0  0  0  0  0  0  0
   56.8730   30.0740   45.2110 N   0  0  0  0  0  0  0  0  0  0  0  0
   57.7790   30.5930   45.9430 C   0  0  0  0  0  0  0  0  0  0  0  0
   58.6150   29.8400   46.7350 C   0  0  0  0  0  0  0  0  0  0  0  0
   59.5630   30.4620   47.4890 C   0  0  0  0  0  0  0  0  0  0  0  0
   60.6290   29.4870   48.4930 Cl  0  0  0  0  0  0  0  0  0  0  0  0
   59.6710   31.8030   47.4520 N   0  0  0  0  0  0  0  0  0  0  0  0
   58.8570   32.5490   46.6810 C   0  0  0  0  0  0  0  0  0  0  0  0
   58.7670   33.9140   46.4710 C   0  0  0  0  0  0  0  0  0  0  0  0
   59.6120   34.9740   47.0660 C   0  0  0  0  0  0  0  0  0  0  0  0
   59.6310   36.0690   46.4700 O   0  0  0  0  0  0  0  0  0  0  0  0
   60.3050   34.6530   48.2330 N   0  0  0  0  0  0  0  0  0  0  0  0
   61.4610   34.1460   48.2890 C   0  0  0  0  0  0  0  0  0  0  0  0
   61.8940   33.5360   47.1380 N   0  0  0  0  0  0  0  0  0  0  0  0
   63.1220   32.9650   47.1040 C   0  0  0  0  0  0  0  0  0  0  0  0
   63.9500   32.9800   48.1980 C   0  0  0  0  0  0  0  0  0  0  0  0
   63.5040   33.5970   49.3490 C   0  0  0  0  0  0  0  0  0  0  0  0
   62.2620   34.1630   49.3530 N   0  0  0  0  0  0  0  0  0  0  0  0
   57.7380   34.0800   45.5740 C   0  0  0  0  0  0  0  0  0  0  0  0
   57.2830   32.8470   45.3020 N   0  0  0  0  0  0  0  0  0  0  0  0
   57.9230   31.9160   45.9390 N   0  0  0  0  0  0  0  0  0  0  0  0
   57.5473   31.8634   43.5612 H   0  0  0  0  0  0  0  0  0  0  0  0
   58.1244   30.7231   42.2989 H   0  0  0  0  0  0  0  0  0  0  0  0
   56.4142   31.2723   42.2989 H   0  0  0  0  0  0  0  0  0  0  0  0
   57.6183   27.8965   44.2656 H   0  0  0  0  0  0  0  0  0  0  0  0
   56.6234   28.0029   42.7738 H   0  0  0  0  0  0  0  0  0  0  0  0
   58.3109   28.6186   42.7738 H   0  0  0  0  0  0  0  0  0  0  0  0
   54.8581   29.6826   44.5532 H   0  0  0  0  0  0  0  0  0  0  0  0
   55.0027   30.5963   43.0135 H   0  0  0  0  0  0  0  0  0  0  0  0
   55.1554   28.8065   43.0135 H   0  0  0  0  0  0  0  0  0  0  0  0
   58.5183   28.7445   46.7589 H   0  0  0  0  0  0  0  0  0  0  0  0
   60.4080   32.2290   48.0380 H   0  0  0  0  0  0  0  0  0  0  0  0
   63.4631   32.4783   46.1784 H   0  0  0  0  0  0  0  0  0  0  0  0
   64.9446   32.5118   48.1586 H   0  0  0  0  0  0  0  0  0  0  0  0
   64.1381   33.6320   50.2472 H   0  0  0  0  0  0  0  0  0  0  0  0
   61.9860   34.6090   50.2500 H   0  0  0  0  0  0  0  0  0  0  0  0
   57.3641   35.0295   45.1633 H   0  0  0  0  0  0  0  0  0  0  0  0
  1  2  1  0
  2  3  1  0
  2  4  1  0
  2  5  1  0
  5  6  2  0
  6  7  1  0
  7  8  2  0
  8  9  1  0
  8 10  1  0
 10 11  1  0
 11 12  2  0
 12 13  1  0
 13 14  2  0
 13 15  1  0
 15 16  2  3
 16 17  1  0
 17 18  2  0
 18 19  1  0
 19 20  2  0
 20 21  1  0
 12 22  1  0
 22 23  2  0
 23 24  1  0
 24  6  1  0
 24 11  1  0
 21 16  1  0
  1 25  1  0
  1 26  1  0
  1 27  1  0
  3 28  1  0
  3 29  1  0
  3 30  1  0
  4 31  1  0
  4 32  1  0
  4 33  1  0
  7 34  1  0
 10 35  1  0
 18 36  1  0
 19 37  1  0
 20 38  1  0
 21 39  1  0
 22 40  1  0
M  END
>  <smiles>  (17) 
CC(C)(C)N=c1cc(Cl)[nH]c2c(C(=O)N=c3nccc[nH]3)cnn12

>  <score_type>  (17) 
oracle

>  <origin>  (17) 
adg

>  <m_score__min__energy>  (17) 
-7.7199999999999998

>  <m_primary>  (17) 
energy

$$$$
17:0
     RDKit          3D

 41 43  0  0  0  0  0  0  0  0999 V2000
   53.7780   26.7100   46.1870 H   0  0  0  0  0  0  0  0  0  0  0  0
   54.4040   25.8990   45.9810 N   0  0  0  0  0  0  0  0  0  0  0  0
   55.6920   26.0120   45.9270 C   0  0  0  0  0  0  0  0  0  0  0  0
   56.2580   27.2460   46.0010 N   0  0  0  0  0  0  0  0  0  0  0  0
   57.6080   27.4330   45.9550 C   0  0  0  0  0  0  0  0  0  0  0  0
   58.1960   28.8250   46.0030 C   0  0  1  0  0  0  0  0  0  0  0  0
   59.0103   28.8550   45.2641 H   0  0  0  0  0  0  0  0  0  0  0  0
   57.1850   29.8220   45.6380 N   0  0  0  0  0  0  0  0  0  0  0  0
   56.3510   29.7770   44.4740 C   0  0  0  0  0  0  0  0  0  0  0  0
   56.7675   30.0710   43.4993 H   0  0  0  0  0  0  0  0  0  0  0  0
   55.1500   29.4070   44.5470 O   0  0  0  0  0  0  0  0  0  0  0  0
   58.8300   29.1570   47.3620 C   0  0  0  0  0  0  0  0  0  0  0  0
   58.0426   29.2120   48.1281 H   0  0  0  0  0  0  0  0  0  0  0  0
   59.5520   28.3704   47.6266 H   0  0  0  0  0  0  0  0  0  0  0  0
   59.5230   30.4400   47.2870 N   0  0  0  0  0  0  0  0  0  0  0  0
   58.9350   31.6840   47.6830 C   0  0  0  0  0  0  0  0  0  0  0  0
   58.4510   31.7940   48.8400 O   0  0  0  0  0  0  0  0  0  0  0  0
   58.8690   32.8320   46.7610 C   0  0  0  0  0  0  0  0  0  0  0  0
   57.7210   32.9940   45.9710 C   0  0  0  0  0  0  0  0  0  0  0  0
   56.8798   32.2935   46.0787 H   0  0  0  0  0  0  0  0  0  0  0  0
   57.6400   34.0390   45.0490 C   0  0  0  0  0  0  0  0  0  0  0  0
   56.7361   34.1607   44.4340 H   0  0  0  0  0  0  0  0  0  0  0  0
   58.7060   34.9300   44.9070 C   0  0  0  0  0  0  0  0  0  0  0  0
   58.6457   35.7448   44.1705 H   0  0  0  0  0  0  0  0  0  0  0  0
   59.8470   34.7890   45.6970 C   0  0  0  0  0  0  0  0  0  0  0  0
   60.6876   35.4872   45.5703 H   0  0  0  0  0  0  0  0  0  0  0  0
   59.9320   33.7620   46.6540 C   0  0  0  0  0  0  0  0  0  0  0  0
   61.1840   33.6350   47.4900 C   0  0  0  0  0  0  0  0  0  0  0  0
   60.7419   34.0551   48.4054 H   0  0  0  0  0  0  0  0  0  0  0  0
   62.0660   32.4340   47.1640 C   0  0  0  0  0  0  0  0  0  0  0  0
   62.6078   31.9154   47.9686 H   0  0  0  0  0  0  0  0  0  0  0  0
   61.9130   31.4746   46.6481 H   0  0  0  0  0  0  0  0  0  0  0  0
   62.4940   33.8240   46.7360 C   0  0  0  0  0  0  0  0  0  0  0  0
   63.3466   34.3128   47.2301 H   0  0  0  0  0  0  0  0  0  0  0  0
   62.7800   34.2886   45.7808 H   0  0  0  0  0  0  0  0  0  0  0  0
   58.4500   26.3210   45.8050 C   0  0  0  0  0  0  0  0  0  0  0  0
   59.5403   26.4555   45.7492 H   0  0  0  0  0  0  0  0  0  0  0  0
   57.8950   25.0430   45.7270 C   0  0  0  0  0  0  0  0  0  0  0  0
   58.5479   24.1647   45.6161 H   0  0  0  0  0  0  0  0  0  0  0  0
   56.5100   24.8810   45.7900 C   0  0  0  0  0  0  0  0  0  0  0  0
   56.0648   23.8768   45.7328 H   0  0  0  0  0  0  0  0  0  0  0  0
  1  2  1  0
  2  3  2  0
  3  4  1  0
  4  5  1  0
  5  6  1  0
  6  7  1  6
  6  8  1  0
  8  9  1  0
  9 10  1  0
  9 11  2  0
  6 12  1  0
 12 13  1  0
 12 14  1  0
 12 15  1  0
 15 16  1  0
 16 17  2  0
 16 18  1  0
 18 19  2  0
 19 20  1  0
 19 21  1  0
 21 22  1  0
 21 23  2  0
 23 24  1  0
 23 25  1  0
 25 26  1  0
 25 27  2  0
 27 28  1  0
 28 29  1  0
 28 30  1  0
 30 31  1  0
 30 32  1  0
 30 33  1  0
 33 34  1  0
 33 35  1  0
  5 36  2  0
 36 37  1  0
 36 38  1  0
 38 39  1  0
 38 40  2  0
 40 41  1  0
 40  3  1  0
 27 18  1  0
 33 28  1  0
M  CHG  3   4  -1   8  -1  15  -1
M  END
>  <UniqueID>  (18) 
16

>  <SMILES>  (18) 
[H]/N=c1\cccc([C@H](C[N-]C(=O)c2ccccc2C2CC2)[N-]C=O)[n-]1

>  <Energy>  (18) 
310.28225104013404

>  <Genealogy>  (18) 
N=c1cccc(C(C[N-]C(=O)c2ccccc2C2CC2)[N-]C=O)[n-]1 (protonated)
N=c1cccc([C@H](C[N-]C(=O)c2ccccc2C2CC2)[N-]C=O)[n-]1 (chirality)
[H]/N=c1\cccc([C@H](C[N-]C(=O)c2ccccc2C2CC2)[N-]C=O)[n-]1 (cis-trans isomerization)
[H]/N=c1\cccc([C@H](C[N-]C(=O)c2ccccc2C2CC2)[N-]C=O)[n-]1 (3D coordinates assigned)
[H]/N=c1\cccc([C@H](C[N-]C(=O)c2ccccc2C2CC2)[N-]C=O)[n-]1 (nonaromatic ring conformer: 310.28225104013404 kcal/mol)

>  <smiles>  (18) 
N=c1cccc(C(CNC(=O)c2ccccc2C2CC2)NC=O)[nH]1

>  <score_type>  (18) 
oracle

>  <origin>  (18) 
adg

>  <m_score__min__energy>  (18) 
-13.529999999999999

>  <m_primary>  (18) 
energy

$$$$
18:0
     RDKit          3D

 18 17  0  0  0  0  0  0  0  0999 V2000
   60.4010   28.9660   45.0900 C   0  0  0  0  0  0  0  0  0  0  0  0
   59.2960   29.6430   45.8950 C   0  0  0  0  0  0  0  0  0  0  0  0
   58.1220   29.8980   45.0460 N   0  0  0  0  0  0  0  0  0  0  0  0
   58.1690   31.0300   44.1040 C   0  0  0  0  0  0  0  0  0  0  0  0
   57.7150   32.3160   44.7880 C   0  0  0  0  0  0  0  0  0  0  0  0
   56.9560   29.0400   45.1340 C   0  0  0  0  0  0  0  0  0  0  0  0
   55.5110   29.4850   44.4960 S   0  0  0  0  0  0  0  0  0  0  0  0
   57.0250   27.4400   45.9720 S   0  0  0  0  0  0  0  0  0  0  0  0
   61.1332   28.5174   45.7775 H   0  0  0  0  0  0  0  0  0  0  0  0
   59.9641   28.1804   44.4560 H   0  0  0  0  0  0  0  0  0  0  0  0
   60.9025   29.7121   44.4560 H   0  0  0  0  0  0  0  0  0  0  0  0
   59.0038   28.9890   46.7298 H   0  0  0  0  0  0  0  0  0  0  0  0
   59.6725   30.6027   46.2788 H   0  0  0  0  0  0  0  0  0  0  0  0
   59.2001   31.1572   43.7426 H   0  0  0  0  0  0  0  0  0  0  0  0
   57.4942   30.8188   43.2614 H   0  0  0  0  0  0  0  0  0  0  0  0
   57.7607   32.1866   45.8794 H   0  0  0  0  0  0  0  0  0  0  0  0
   58.3754   33.1433   44.4889 H   0  0  0  0  0  0  0  0  0  0  0  0
   56.6816   32.5453   44.4889 H   0  0  0  0  0  0  0  0  0  0  0  0
  1  2  1  0
  2  3  1  0
  3  4  1  0
  4  5  1  0
  3  6  1  0
  6  7  2  0
  6  8  1  0
  1  9  1  0
  1 10  1  0
  1 11  1  0
  2 12  1  0
  2 13  1  0
  4 14  1  0
  4 15  1  0
  5 16  1  0
  5 17  1  0
  5 18  1  0
M  CHG  1   8  -1
M  END
>  <UniqueID>  (19) 
17

>  <SMILES>  (19) 
CCN(CC)C(=S)[S-]

>  <Energy>  (19) 
8.852621272310884

>  <Genealogy>  (19) 
CCN(CC)C(=S)[S-] (protonated)
CCN(CC)C(=S)[S-] (3D coordinates assigned)
CCN(CC)C(=S)[S-] (optimized conformer: 8.852621272310884 kcal/mol)

>  <smiles>  (19) 
CCN(CC)C(=S)S

>  <score_type>  (19) 
oracle

>  <origin>  (19) 
adg

>  <m_score__min__energy>  (19) 
-5.5

>  <m_primary>  (19) 
energy

$$$$
19:0
     RDKit          3D

 67 71  0  0  0  0  0  0  0  0999 V2000
   60.4230   31.4820   52.6750 C   0  0  0  0  0  0  0  0  0  0  0  0
   60.3520   32.9490   51.6640 S   0  0  0  0  0  0  0  0  0  0  0  0
   60.7050   34.0920   52.5650 O   0  0  0  0  0  0  0  0  0  0  0  0
   58.9350   33.0870   51.1860 O   0  0  0  0  0  0  0  0  0  0  0  0
   61.4690   32.8810   50.2770 C   0  0  0  0  0  0  0  0  0  0  0  0
   62.8450   32.7840   50.5710 C   0  0  0  0  0  0  0  0  0  0  0  0
   63.8070   32.7570   49.5610 C   0  0  0  0  0  0  0  0  0  0  0  0
   65.2040   32.6640   49.8940 C   0  0  0  0  0  0  0  0  0  0  0  0
   66.3280   32.5870   50.1590 N   0  0  0  0  0  0  0  0  0  0  0  0
   63.4140   32.8250   48.2300 C   0  0  0  0  0  0  0  0  0  0  0  0
   62.0630   32.9010   47.9050 C   0  0  0  0  0  0  0  0  0  0  0  0
   61.0590   32.9150   48.9000 C   0  0  0  0  0  0  0  0  0  0  0  0
   59.6050   33.0020   48.3840 C   0  0  1  0  0  0  0  0  0  0  0  0
   59.4870   33.7670   47.0900 C   0  0  0  0  0  0  0  0  0  0  0  0
   58.8920   33.2920   46.0230 C   0  0  0  0  0  0  0  0  0  0  0  0
   58.8330   34.2720   44.9060 C   0  0  0  0  0  0  0  0  0  0  0  0
   59.5420   35.5120   45.4630 C   0  0  0  0  0  0  0  0  0  0  0  0
   59.9190   35.1790   46.9120 C   0  0  0  0  0  0  0  0  0  0  0  0
   58.3650   31.9650   45.9770 N   0  0  0  0  0  0  0  0  0  0  0  0
   57.8020   31.4540   44.7620 C   0  0  0  0  0  0  0  0  0  0  0  0
   56.9630   30.3320   44.7990 C   0  0  0  0  0  0  0  0  0  0  0  0
   56.3840   29.8530   43.6220 C   0  0  0  0  0  0  0  0  0  0  0  0
   56.6430   30.4900   42.4030 C   0  0  0  0  0  0  0  0  0  0  0  0
   57.4840   31.6140   42.3560 C   0  0  0  0  0  0  0  0  0  0  0  0
   57.7670   32.2870   41.0430 C   0  0  0  0  0  0  0  0  0  0  0  0
   56.6790   33.0590   40.6740 F   0  0  0  0  0  0  0  0  0  0  0  0
   58.8810   33.0980   41.1620 F   0  0  0  0  0  0  0  0  0  0  0  0
   58.0590   32.0950   43.5420 C   0  0  0  0  0  0  0  0  0  0  0  0
   58.4180   31.1520   47.1610 C   0  0  0  0  0  0  0  0  0  0  0  0
   58.0090   29.9580   47.1040 O   0  0  0  0  0  0  0  0  0  0  0  0
   58.8060   31.7240   48.4410 N   0  0  1  0  0  0  0  0  0  0  0  0
   59.4070   30.7350   49.3120 C   0  0  0  0  0  0  0  0  0  0  0  0
   58.8240   30.3700   50.3720 O   0  0  0  0  0  0  0  0  0  0  0  0
   60.6160   30.0850   48.9060 N   0  0  0  0  0  0  0  0  0  0  0  0
   60.7880   28.6410   48.9490 C   0  0  0  0  0  0  0  0  0  0  0  0
   60.1880   28.0370   47.7130 C   0  0  0  0  0  0  0  0  0  0  0  0
   59.3420   26.9200   47.8130 C   0  0  0  0  0  0  0  0  0  0  0  0
   58.7440   26.3860   46.6680 C   0  0  0  0  0  0  0  0  0  0  0  0
   58.9740   26.9710   45.4200 C   0  0  0  0  0  0  0  0  0  0  0  0
   59.8050   28.0920   45.3150 C   0  0  0  0  0  0  0  0  0  0  0  0
   60.0200   28.6620   44.1030 F   0  0  0  0  0  0  0  0  0  0  0  0
   60.4060   28.6280   46.4570 C   0  0  0  0  0  0  0  0  0  0  0  0
   60.4092   31.7677   53.7372 H   0  0  0  0  0  0  0  0  0  0  0  0
   59.5547   30.8432   52.4558 H   0  0  0  0  0  0  0  0  0  0  0  0
   61.3489   30.9301   52.4558 H   0  0  0  0  0  0  0  0  0  0  0  0
   63.1672   32.7283   51.6213 H   0  0  0  0  0  0  0  0  0  0  0  0
   64.1715   32.8188   47.4324 H   0  0  0  0  0  0  0  0  0  0  0  0
   61.7687   32.9515   46.8463 H   0  0  0  0  0  0  0  0  0  0  0  0
   59.0894   33.6157   49.1374 H   0  0  0  0  0  0  0  0  0  0  0  0
   59.3579   33.8866   44.0195 H   0  0  0  0  0  0  0  0  0  0  0  0
   57.8033   34.4829   44.5816 H   0  0  0  0  0  0  0  0  0  0  0  0
   60.4457   35.7301   44.8750 H   0  0  0  0  0  0  0  0  0  0  0  0
   58.8936   36.3992   45.4128 H   0  0  0  0  0  0  0  0  0  0  0  0
   61.0040   35.2765   47.0644 H   0  0  0  0  0  0  0  0  0  0  0  0
   59.4443   35.8577   47.6359 H   0  0  0  0  0  0  0  0  0  0  0  0
   56.7605   29.8284   45.7557 H   0  0  0  0  0  0  0  0  0  0  0  0
   55.7235   28.9739   43.6530 H   0  0  0  0  0  0  0  0  0  0  0  0
   56.1860   30.1088   41.4779 H   0  0  0  0  0  0  0  0  0  0  0  0
   57.9534   31.5189   40.2779 H   0  0  0  0  0  0  0  0  0  0  0  0
   58.7139   32.9784   43.5145 H   0  0  0  0  0  0  0  0  0  0  0  0
   57.8860   31.9650   48.8830 H   0  0  0  0  0  0  0  0  0  0  0  0
   61.8601   28.3991   48.9938 H   0  0  0  0  0  0  0  0  0  0  0  0
   60.2870   28.2349   49.8401 H   0  0  0  0  0  0  0  0  0  0  0  0
   59.1496   26.4642   48.7954 H   0  0  0  0  0  0  0  0  0  0  0  0
   58.0915   25.5042   46.7494 H   0  0  0  0  0  0  0  0  0  0  0  0
   58.5018   26.5503   44.5200 H   0  0  0  0  0  0  0  0  0  0  0  0
   61.0513   29.5148   46.3725 H   0  0  0  0  0  0  0  0  0  0  0  0
  1  2  1  0
  2  3  2  0
  2  4  2  0
  2  5  1  0
  5  6  2  0
  6  7  1  0
  7  8  1  0
  8  9  3  0
  7 10  2  0
 10 11  1  0
 11 12  2  0
 12 13  1  0
 13 14  1  0
 14 15  2  0
 15 16  1  0
 16 17  1  0
 17 18  1  0
 15 19  1  0
 19 20  1  0
 20 21  2  0
 21 22  1  0
 22 23  2  0
 23 24  1  0
 24 25  1  0
 25 26  1  0
 25 27  1  0
 24 28  2  0
 19 29  1  0
 29 30  2  0
 29 31  1  0
 31 32  1  0
 32 33  2  0
 32 34  1  0
 34 35  1  0
 35 36  1  0
 36 37  2  0
 37 38  1  0
 38 39  2  0
 39 40  1  0
 40 41  1  0
 40 42  2  0
 12  5  1  0
 31 13  1  0
 42 36  1  0
 18 14  1  0
 28 20  1  0
  1 43  1  0
  1 44  1  0
  1 45  1  0
  6 46  1  0
 10 47  1  0
 11 48  1  0
 13 49  1  1
 16 50  1  0
 16 51  1  0
 17 52  1  0
 17 53  1  0
 18 54  1  0
 18 55  1  0
 21 56  1  0
 22 57  1  0
 23 58  1  0
 25 59  1  0
 28 60  1  0
 31 61  1  1
 35 62  1  0
 35 63  1  0
 37 64  1  0
 38 65  1  0
 39 66  1  0
 42 67  1  0
M  CHG  2  31   1  34  -1
M  END
>  <UniqueID>  (20) 
18

>  <SMILES>  (20) 
CS(=O)(=O)c1cc(C#N)ccc1[C@H]1C2=C(CCC2)N(c2cccc(C(F)F)c2)C(=O)[N@H+]1C(=O)[N-]Cc1cccc(F)c1

>  <Energy>  (20) 
101.38493507554496

>  <Genealogy>  (20) 
CS(=O)(=O)c1cc(C#N)ccc1C1C2=C(CCC2)N(c2cccc(C(F)F)c2)C(=O)[NH+]1C(=O)[N-]Cc1cccc(F)c1 (protonated)
CS(=O)(=O)c1cc(C#N)ccc1[C@H]1C2=C(CCC2)N(c2cccc(C(F)F)c2)C(=O)[N@H+]1C(=O)[N-]Cc1cccc(F)c1 (chirality)
CS(=O)(=O)c1cc(C#N)ccc1[C@H]1C2=C(CCC2)N(c2cccc(C(F)F)c2)C(=O)[N@H+]1C(=O)[N-]Cc1cccc(F)c1 (3D coordinates assigned)
CS(=O)(=O)c1cc(C#N)ccc1[C@H]1C2=C(CCC2)N(c2cccc(C(F)F)c2)C(=O)[N@H+]1C(=O)[N-]Cc1cccc(F)c1 (nonaromatic ring conformer: 101.38493507554496 kcal/mol)

>  <smiles>  (20) 
CS(=O)(=O)c1cc(C#N)ccc1C1C2=C(CCC2)N(c2cccc(C(F)F)c2)C(=O)N1C(=O)NCc1cccc(F)c1

>  <score_type>  (20) 
oracle

>  <origin>  (20) 
adg

>  <m_score__min__energy>  (20) 
-9.5099999999999998

>  <m_primary>  (20) 
energy

$$$$
20:0
     RDKit          3D

 33 34  0  0  0  0  0  0  0  0999 V2000
   58.4630   33.8020   47.4800 C   0  0  0  0  0  0  0  0  0  0  0  0
   59.6200   34.1200   46.5970 N   0  0  0  0  0  0  0  0  0  0  0  0
   59.6600   35.6020   46.4820 C   0  0  0  0  0  0  0  0  0  0  0  0
   59.3740   33.5460   45.2360 C   0  0  0  0  0  0  0  0  0  0  0  0
   58.5450   32.2740   45.2430 C   0  0  0  0  0  0  0  0  0  0  0  0
   58.9400   31.1630   46.0060 C   0  0  0  0  0  0  0  0  0  0  0  0
   58.1560   30.0060   45.9990 C   0  0  0  0  0  0  0  0  0  0  0  0
   57.0250   29.9530   45.2480 N   0  0  0  0  0  0  0  0  0  0  0  0
   56.6240   31.0060   44.4870 C   0  0  0  0  0  0  0  0  0  0  0  0
   57.3780   32.1820   44.4660 C   0  0  0  0  0  0  0  0  0  0  0  0
   60.9150   33.6540   47.1370 C   0  0  0  0  0  0  0  0  0  0  0  0
   61.0360   32.9870   48.3890 C   0  0  0  0  0  0  0  0  0  0  0  0
   62.2780   32.5470   48.8550 C   0  0  0  0  0  0  0  0  0  0  0  0
   63.4290   32.7540   48.0990 C   0  0  0  0  0  0  0  0  0  0  0  0
   63.3450   33.4050   46.8710 C   0  0  0  0  0  0  0  0  0  0  0  0
   62.1100   33.8490   46.3950 C   0  0  0  0  0  0  0  0  0  0  0  0
   58.7710   33.8866   48.5326 H   0  0  0  0  0  0  0  0  0  0  0  0
   57.6439   34.5083   47.2797 H   0  0  0  0  0  0  0  0  0  0  0  0
   58.1199   32.7762   47.2797 H   0  0  0  0  0  0  0  0  0  0  0  0
   59.6720   36.0476   47.4876 H   0  0  0  0  0  0  0  0  0  0  0  0
   60.5666   35.9031   45.9366 H   0  0  0  0  0  0  0  0  0  0  0  0
   58.7710   35.9516   45.9366 H   0  0  0  0  0  0  0  0  0  0  0  0
   58.8462   34.2996   44.6330 H   0  0  0  0  0  0  0  0  0  0  0  0
   60.3573   33.2828   44.8191 H   0  0  0  0  0  0  0  0  0  0  0  0
   59.8612   31.2032   46.6057 H   0  0  0  0  0  0  0  0  0  0  0  0
   58.4552   29.1365   46.6027 H   0  0  0  0  0  0  0  0  0  0  0  0
   55.7049   30.9319   43.8872 H   0  0  0  0  0  0  0  0  0  0  0  0
   57.0596   33.0317   43.8442 H   0  0  0  0  0  0  0  0  0  0  0  0
   60.1373   32.8152   48.9995 H   0  0  0  0  0  0  0  0  0  0  0  0
   62.3468   32.0337   49.8255 H   0  0  0  0  0  0  0  0  0  0  0  0
   64.4030   32.4038   48.4713 H   0  0  0  0  0  0  0  0  0  0  0  0
   64.2543   33.5699   46.2743 H   0  0  0  0  0  0  0  0  0  0  0  0
   62.0614   34.3616   45.4230 H   0  0  0  0  0  0  0  0  0  0  0  0
  1  2  1  0
  2  3  1  0
  2  4  1  0
  4  5  1  0
  5  6  2  0
  6  7  1  0
  7  8  2  0
  8  9  1  0
  9 10  2  0
  2 11  1  0
 11 12  2  0
 12 13  1  0
 13 14  2  0
 14 15  1  0
 15 16  2  0
 10  5  1  0
 16 11  1  0
  1 17  1  0
  1 18  1  0
  1 19  1  0
  3 20  1  0
  3 21  1  0
  3 22  1  0
  4 23  1  0
  4 24  1  0
  6 25  1  0
  7 26  1  0
  9 27  1  0
 10 28  1  0
 12 29  1  0
 13 30  1  0
 14 31  1  0
 15 32  1  0
 16 33  1  0
M  CHG  1   2   1
M  END
>  <UniqueID>  (21) 
19

>  <SMILES>  (21) 
C[N+](C)(Cc1ccncc1)c1ccccc1

>  <Energy>  (21) 
49.84951008819437

>  <Genealogy>  (21) 
C[N+](C)(Cc1ccncc1)c1ccccc1 (3D coordinates assigned)
C[N+](C)(Cc1ccncc1)c1ccccc1 (optimized conformer: 49.84951008819437 kcal/mol)

>  <smiles>  (21) 
C[N+](C)(Cc1ccncc1)c1ccccc1

>  <score_type>  (21) 
oracle

>  <origin>  (21) 
adg

>  <m_score__min__energy>  (21) 
-4.2999999999999998

>  <m_primary>  (21) 
energy

$$$$
21:0
     RDKit          3D

 59 62  0  0  0  0  0  0  0  0999 V2000
   59.2400   22.2420   44.8640 C   0  0  0  0  0  0  0  0  0  0  0  0
   59.2620   23.3070   45.8080 O   0  0  0  0  0  0  0  0  0  0  0  0
   58.3860   24.4040   45.7900 C   0  0  0  0  0  0  0  0  0  0  0  0
   58.9330   25.6870   45.7040 C   0  0  0  0  0  0  0  0  0  0  0  0
   58.1050   26.8090   45.6650 C   0  0  0  0  0  0  0  0  0  0  0  0
   56.7140   26.6680   45.6980 C   0  0  0  0  0  0  0  0  0  0  0  0
   55.9040   27.8510   45.6190 N   0  0  0  0  0  0  0  0  0  0  0  0
   56.2540   29.0480   44.9100 C   0  0  0  0  0  0  0  0  0  0  0  0
   55.3360   29.7630   44.4300 O   0  0  0  0  0  0  0  0  0  0  0  0
   57.6600   29.4860   44.8010 C   0  0  0  0  0  0  0  0  0  0  0  0
   58.3430   29.0730   43.8270 O   0  0  0  0  0  0  0  0  0  0  0  0
   58.2580   30.4290   45.7730 C   0  0  0  0  0  0  0  0  0  0  0  0
   58.7530   30.1110   47.0370 C   0  0  0  0  0  0  0  0  0  0  0  0
   59.1100   31.2330   47.7040 N   0  0  0  0  0  0  0  0  0  0  0  0
   59.5240   31.2870   49.1070 C   0  0  0  0  0  0  0  0  0  0  0  0
   60.9520   30.8430   49.2240 C   0  0  0  0  0  0  0  0  0  0  0  0
   61.2240   29.8390   49.9360 O   0  0  0  0  0  0  0  0  0  0  0  0
   62.0140   31.6150   48.6480 N   0  0  0  0  0  0  0  0  0  0  0  0
   63.1510   31.9830   49.5040 C   0  0  0  0  0  0  0  0  0  0  0  0
   64.1910   32.8120   48.7410 C   0  0  0  0  0  0  0  0  0  0  0  0
   63.4900   33.8490   47.8650 C   0  0  0  0  0  0  0  0  0  0  0  0
   62.5970   33.1860   46.7990 C   0  0  0  0  0  0  0  0  0  0  0  0
   62.0950   31.7810   47.1900 C   0  0  0  0  0  0  0  0  0  0  0  0
   58.8210   32.2670   46.8890 C   0  0  0  0  0  0  0  0  0  0  0  0
   58.9550   33.6320   47.1560 C   0  0  0  0  0  0  0  0  0  0  0  0
   58.5470   34.5440   46.1700 C   0  0  0  0  0  0  0  0  0  0  0  0
   58.0170   34.0820   44.9480 C   0  0  0  0  0  0  0  0  0  0  0  0
   57.8880   32.7040   44.7010 C   0  0  0  0  0  0  0  0  0  0  0  0
   58.3040   31.8150   45.6980 C   0  0  0  0  0  0  0  0  0  0  0  0
   56.1440   25.3840   45.8370 C   0  0  0  0  0  0  0  0  0  0  0  0
   54.7500   25.2660   45.9740 O   0  0  0  0  0  0  0  0  0  0  0  0
   53.9630   24.2210   45.4140 C   0  0  0  0  0  0  0  0  0  0  0  0
   56.9870   24.2550   45.8600 C   0  0  0  0  0  0  0  0  0  0  0  0
   59.2201   21.2800   45.3970 H   0  0  0  0  0  0  0  0  0  0  0  0
   58.3435   22.3300   44.2327 H   0  0  0  0  0  0  0  0  0  0  0  0
   60.1394   22.2929   44.2327 H   0  0  0  0  0  0  0  0  0  0  0  0
   60.0251   25.8132   45.6668 H   0  0  0  0  0  0  0  0  0  0  0  0
   58.5500   27.8133   45.6078 H   0  0  0  0  0  0  0  0  0  0  0  0
   58.8411   29.0899   47.4366 H   0  0  0  0  0  0  0  0  0  0  0  0
   59.4290   32.3182   49.4780 H   0  0  0  0  0  0  0  0  0  0  0  0
   58.8830   30.6221   49.7045 H   0  0  0  0  0  0  0  0  0  0  0  0
   62.7800   32.5727   50.3553 H   0  0  0  0  0  0  0  0  0  0  0  0
   63.6356   31.0569   49.8470 H   0  0  0  0  0  0  0  0  0  0  0  0
   64.8466   33.3253   49.4598 H   0  0  0  0  0  0  0  0  0  0  0  0
   64.7885   32.1442   48.1031 H   0  0  0  0  0  0  0  0  0  0  0  0
   62.8656   34.4912   48.5035 H   0  0  0  0  0  0  0  0  0  0  0  0
   64.2616   34.4377   47.3473 H   0  0  0  0  0  0  0  0  0  0  0  0
   61.7225   33.8315   46.6296 H   0  0  0  0  0  0  0  0  0  0  0  0
   63.2138   33.0649   45.8963 H   0  0  0  0  0  0  0  0  0  0  0  0
   61.0949   31.6276   46.7583 H   0  0  0  0  0  0  0  0  0  0  0  0
   62.8116   31.0423   46.8017 H   0  0  0  0  0  0  0  0  0  0  0  0
   59.3690   33.9824   48.1130 H   0  0  0  0  0  0  0  0  0  0  0  0
   58.6413   35.6248   46.3517 H   0  0  0  0  0  0  0  0  0  0  0  0
   57.7019   34.8055   44.1817 H   0  0  0  0  0  0  0  0  0  0  0  0
   57.4722   32.3356   43.7516 H   0  0  0  0  0  0  0  0  0  0  0  0
   53.5147   23.6257   46.2231 H   0  0  0  0  0  0  0  0  0  0  0  0
   53.1655   24.6551   44.7930 H   0  0  0  0  0  0  0  0  0  0  0  0
   54.6004   23.5744   44.7930 H   0  0  0  0  0  0  0  0  0  0  0  0
   56.5488   23.2487   45.9332 H   0  0  0  0  0  0  0  0  0  0  0  0
  1  2  1  0
  2  3  1  0
  3  4  2  0
  4  5  1  0
  5  6  2  0
  6  7  1  0
  7  8  1  0
  8  9  2  0
  8 10  1  0
 10 11  2  0
 10 12  1  0
 12 13  2  0
 13 14  1  0
 14 15  1  0
 15 16  1  0
 16 17  2  0
 16 18  1  0
 18 19  1  0
 19 20  1  0
 20 21  1  0
 21 22  1  0
 22 23  1  0
 14 24  1  0
 24 25  2  0
 25 26  1  0
 26 27  2  0
 27 28  1  0
 28 29  2  0
  6 30  1  0
 30 31  1  0
 31 32  1  0
 30 33  2  0
 33  3  1  0
 29 12  1  0
 23 18  1  0
 29 24  1  0
  1 34  1  0
  1 35  1  0
  1 36  1  0
  4 37  1  0
  5 38  1  0
 13 39  1  0
 15 40  1  0
 15 41  1  0
 19 42  1  0
 19 43  1  0
 20 44  1  0
 20 45  1  0
 21 46  1  0
 21 47  1  0
 22 48  1  0
 22 49  1  0
 23 50  1  0
 23 51  1  0
 25 52  1  0
 26 53  1  0
 27 54  1  0
 28 55  1  0
 32 56  1  0
 32 57  1  0
 32 58  1  0
 33 59  1  0
M  CHG  1   7  -1
M  END
>  <UniqueID>  (22) 
20

>  <SMILES>  (22) 
COc1ccc([N-]C(=O)C(=O)c2cn(CC(=O)N3CCCCC3)c3ccccc23)c(OC)c1

>  <Energy>  (22) 
102.95659995785539

>  <Genealogy>  (22) 
COc1ccc([N-]C(=O)C(=O)c2cn(CC(=O)N3CCCCC3)c3ccccc23)c(OC)c1 (protonated)
COc1ccc([N-]C(=O)C(=O)c2cn(CC(=O)N3CCCCC3)c3ccccc23)c(OC)c1 (3D coordinates assigned)
COc1ccc([N-]C(=O)C(=O)c2cn(CC(=O)N3CCCCC3)c3ccccc23)c(OC)c1 (nonaromatic ring conformer: 102.95659995785539 kcal/mol)

>  <smiles>  (22) 
COc1ccc(NC(=O)C(=O)c2cn(CC(=O)N3CCCCC3)c3ccccc23)c(OC)c1

>  <score_type>  (22) 
oracle

>  <origin>  (22) 
adg

>  <m_score__min__energy>  (22) 
-11.93

>  <m_primary>  (22) 
energy

$$$$
22:0
     RDKit          3D

 24 25  0  0  0  0  0  0  0  0999 V2000
   61.4370   32.3530   47.7520 O   0  0  0  0  0  0  0  0  0  0  0  0
   60.4430   32.9130   47.2200 C   0  0  0  0  0  0  0  0  0  0  0  0
   59.8810   32.3800   46.0130 N   0  0  0  0  0  0  0  0  0  0  0  0
   58.8590   32.9180   45.4080 C   0  0  0  0  0  0  0  0  0  0  0  0
   58.3220   32.2610   44.1670 C   0  0  0  0  0  0  0  0  0  0  0  0
   57.5900   30.9950   44.5230 C   0  0  0  0  0  0  0  0  0  0  0  0
   56.2510   30.8130   44.1360 C   0  0  0  0  0  0  0  0  0  0  0  0
   55.5660   29.6480   44.4960 C   0  0  0  0  0  0  0  0  0  0  0  0
   56.2090   28.6620   45.2500 C   0  0  0  0  0  0  0  0  0  0  0  0
   55.5270   27.5050   45.6080 O   0  0  0  0  0  0  0  0  0  0  0  0
   57.5380   28.8400   45.6480 C   0  0  0  0  0  0  0  0  0  0  0  0
   58.2260   30.0040   45.2900 C   0  0  0  0  0  0  0  0  0  0  0  0
   58.2030   34.1230   45.9760 C   0  0  0  0  0  0  0  0  0  0  0  0
   57.2040   34.6390   45.4090 O   0  0  0  0  0  0  0  0  0  0  0  0
   58.7130   34.7030   47.1830 N   0  0  0  0  0  0  0  0  0  0  0  0
   59.8430   34.1100   47.8230 C   0  0  0  0  0  0  0  0  0  0  0  0
   60.3090   34.6060   48.8840 O   0  0  0  0  0  0  0  0  0  0  0  0
   57.6301   32.9506   43.6614 H   0  0  0  0  0  0  0  0  0  0  0  0
   59.1613   32.0143   43.5002 H   0  0  0  0  0  0  0  0  0  0  0  0
   55.7401   31.5896   43.5479 H   0  0  0  0  0  0  0  0  0  0  0  0
   54.5201   29.5074   44.1855 H   0  0  0  0  0  0  0  0  0  0  0  0
   58.0423   28.0642   46.2428 H   0  0  0  0  0  0  0  0  0  0  0  0
   59.2690   30.1443   45.6101 H   0  0  0  0  0  0  0  0  0  0  0  0
   58.2630   35.5540   47.5900 H   0  0  0  0  0  0  0  0  0  0  0  0
  1  2  2  0
  2  3  1  0
  3  4  2  0
  4  5  1  0
  5  6  1  0
  6  7  2  0
  7  8  1  0
  8  9  2  0
  9 10  1  0
  9 11  1  0
 11 12  2  0
  4 13  1  0
 13 14  2  0
 13 15  1  0
 15 16  1  0
 16 17  2  0
 16  2  1  0
 12  6  1  0
  5 18  1  0
  5 19  1  0
  7 20  1  0
  8 21  1  0
 11 22  1  0
 12 23  1  0
 15 24  1  0
M  CHG  1  10  -1
M  END
>  <UniqueID>  (23) 
21

>  <SMILES>  (23) 
O=C1N=C(Cc2ccc([O-])cc2)C(=O)NC1=O

>  <Energy>  (23) 
21.28085088063927

>  <Genealogy>  (23) 
O=C1N=C(Cc2ccc([O-])cc2)C(=O)NC1=O (protonated)
O=C1N=C(Cc2ccc([O-])cc2)C(=O)NC1=O (3D coordinates assigned)
O=C1N=C(Cc2ccc([O-])cc2)C(=O)NC1=O (nonaromatic ring conformer: 21.28085088063927 kcal/mol)

>  <smiles>  (23) 
O=C1N=C(Cc2ccc(O)cc2)C(=O)NC1=O

>  <score_type>  (23) 
oracle

>  <origin>  (23) 
adg

>  <m_score__min__energy>  (23) 
-9.8200000000000003

>  <m_primary>  (23) 
energy

$$$$
23:0
     RDKit          3D

 58 61  0  0  0  0  0  0  0  0999 V2000
   60.3150   34.9610   46.7740 C   0  0  0  0  0  0  0  0  0  0  0  0
   59.0100   34.3790   46.3420 C   0  0  0  0  0  0  0  0  0  0  0  0
   58.3320   34.8140   45.3050 O   0  0  0  0  0  0  0  0  0  0  0  0
   57.2150   34.1300   45.2100 C   0  0  0  0  0  0  0  0  0  0  0  0
   57.1460   33.1990   46.2280 C   0  0  0  0  0  0  0  0  0  0  0  0
   58.3160   33.3420   46.9450 C   0  0  0  0  0  0  0  0  0  0  0  0
   58.6730   32.5810   48.1560 C   0  0  0  0  0  0  0  0  0  0  0  0
   57.8080   32.3550   49.1620 N   0  0  0  0  0  0  0  0  0  0  0  0
   58.3880   31.5440   50.0320 N   0  0  0  0  0  0  0  0  0  0  0  0
   59.6170   31.2860   49.5420 C   0  0  0  0  0  0  0  0  0  0  0  0
   60.7590   30.1300   50.3110 S   0  0  0  0  0  0  0  0  0  0  0  0
   61.0780   29.1620   48.7970 C   0  0  0  0  0  0  0  0  0  0  0  0
   60.3850   27.8400   48.8690 C   0  0  0  0  0  0  0  0  0  0  0  0
   60.4370   27.1680   49.9330 O   0  0  0  0  0  0  0  0  0  0  0  0
   59.6260   27.3860   47.7410 N   0  0  0  0  0  0  0  0  0  0  0  0
   59.0780   28.1530   46.6570 C   0  0  0  0  0  0  0  0  0  0  0  0
   59.7960   29.1870   46.0310 C   0  0  0  0  0  0  0  0  0  0  0  0
   59.2280   29.9040   44.9770 C   0  0  0  0  0  0  0  0  0  0  0  0
   57.9260   29.6190   44.5290 C   0  0  0  0  0  0  0  0  0  0  0  0
   57.3470   30.3490   43.4190 N   0  0  0  0  0  0  0  0  0  0  0  0
   56.2680   29.7560   42.6200 C   0  0  0  0  0  0  0  0  0  0  0  0
   57.8340   31.6900   43.0740 C   0  0  0  0  0  0  0  0  0  0  0  0
   57.1960   28.6110   45.1870 C   0  0  0  0  0  0  0  0  0  0  0  0
   57.7620   27.8840   46.2550 C   0  0  0  0  0  0  0  0  0  0  0  0
   57.0500   26.8860   46.9440 O   0  0  0  0  0  0  0  0  0  0  0  0
   56.2750   25.8510   46.3450 C   0  0  0  0  0  0  0  0  0  0  0  0
   56.9240   25.3550   45.2270 F   0  0  0  0  0  0  0  0  0  0  0  0
   55.0280   26.3350   45.9910 F   0  0  0  0  0  0  0  0  0  0  0  0
   56.1130   24.8260   47.2560 F   0  0  0  0  0  0  0  0  0  0  0  0
   59.8310   31.9160   48.3630 N   0  0  0  0  0  0  0  0  0  0  0  0
   60.9490   31.7090   47.4360 C   0  0  0  0  0  0  0  0  0  0  0  0
   62.1460   32.5050   47.8550 C   0  0  0  0  0  0  0  0  0  0  0  0
   63.3240   32.6130   47.1400 C   0  0  0  0  0  0  0  0  0  0  0  0
   64.1210   33.4700   47.8680 C   0  0  0  0  0  0  0  0  0  0  0  0
   63.3790   33.8360   48.9760 C   0  0  0  0  0  0  0  0  0  0  0  0
   62.2060   33.2480   48.9370 O   0  0  0  0  0  0  0  0  0  0  0  0
   60.3614   34.9817   47.8728 H   0  0  0  0  0  0  0  0  0  0  0  0
   61.1384   34.3448   46.3838 H   0  0  0  0  0  0  0  0  0  0  0  0
   60.4068   35.9853   46.3838 H   0  0  0  0  0  0  0  0  0  0  0  0
   56.4483   34.2767   44.4350 H   0  0  0  0  0  0  0  0  0  0  0  0
   56.3280   32.4906   46.4259 H   0  0  0  0  0  0  0  0  0  0  0  0
   56.8340   32.7200   49.2510 H   0  0  0  0  0  0  0  0  0  0  0  0
   60.7056   29.7196   47.9250 H   0  0  0  0  0  0  0  0  0  0  0  0
   62.1608   28.9929   48.7028 H   0  0  0  0  0  0  0  0  0  0  0  0
   60.8119   29.4324   46.3741 H   0  0  0  0  0  0  0  0  0  0  0  0
   59.8066   30.7028   44.4902 H   0  0  0  0  0  0  0  0  0  0  0  0
   55.5037   29.3359   43.2904 H   0  0  0  0  0  0  0  0  0  0  0  0
   55.8133   30.5309   41.9854 H   0  0  0  0  0  0  0  0  0  0  0  0
   56.6784   28.9567   41.9854 H   0  0  0  0  0  0  0  0  0  0  0  0
   58.0389   32.2541   43.9959 H   0  0  0  0  0  0  0  0  0  0  0  0
   58.7583   31.6039   42.4838 H   0  0  0  0  0  0  0  0  0  0  0  0
   57.0699   32.2170   42.4838 H   0  0  0  0  0  0  0  0  0  0  0  0
   56.1688   28.3870   44.8634 H   0  0  0  0  0  0  0  0  0  0  0  0
   61.2132   30.6413   47.4233 H   0  0  0  0  0  0  0  0  0  0  0  0
   60.6401   32.0407   46.4337 H   0  0  0  0  0  0  0  0  0  0  0  0
   63.5731   32.1187   46.1894 H   0  0  0  0  0  0  0  0  0  0  0  0
   65.1412   33.7968   47.6181 H   0  0  0  0  0  0  0  0  0  0  0  0
   63.7200   34.5168   49.7699 H   0  0  0  0  0  0  0  0  0  0  0  0
  1  2  1  0
  2  3  1  0
  3  4  1  0
  4  5  2  0
  5  6  1  0
  6  7  1  0
  7  8  2  0
  8  9  1  0
  9 10  2  0
 10 11  1  0
 11 12  1  0
 12 13  1  0
 13 14  2  0
 13 15  1  0
 15 16  1  0
 16 17  2  0
 17 18  1  0
 18 19  2  0
 19 20  1  0
 20 21  1  0
 20 22  1  0
 19 23  1  0
 23 24  2  0
 24 25  1  0
 25 26  1  0
 26 27  1  0
 26 28  1  0
 26 29  1  0
 10 30  1  0
 30 31  1  0
 31 32  1  0
 32 33  2  0
 33 34  1  0
 34 35  2  0
 35 36  1  0
  6  2  2  0
 30  7  1  0
 36 32  1  0
 24 16  1  0
  1 37  1  0
  1 38  1  0
  1 39  1  0
  4 40  1  0
  5 41  1  0
  8 42  1  0
 12 43  1  0
 12 44  1  0
 17 45  1  0
 18 46  1  0
 21 47  1  0
 21 48  1  0
 21 49  1  0
 22 50  1  0
 22 51  1  0
 22 52  1  0
 23 53  1  0
 31 54  1  0
 31 55  1  0
 33 56  1  0
 34 57  1  0
 35 58  1  0
M  CHG  2   8   1  15  -1
M  END
>  <UniqueID>  (24) 
22

>  <SMILES>  (24) 
Cc1occc1-c1[nH+]nc(SCC(=O)[N-]c2ccc(N(C)C)cc2OC(F)(F)F)n1Cc1ccco1

>  <Energy>  (24) 
152.0697721555515

>  <Genealogy>  (24) 
Cc1occc1-c1[nH+]nc(SCC(=O)[N-]c2ccc(N(C)C)cc2OC(F)(F)F)n1Cc1ccco1 (protonated)
Cc1occc1-c1[nH+]nc(SCC(=O)[N-]c2ccc(N(C)C)cc2OC(F)(F)F)n1Cc1ccco1 (3D coordinates assigned)
Cc1occc1-c1[nH+]nc(SCC(=O)[N-]c2ccc(N(C)C)cc2OC(F)(F)F)n1Cc1ccco1 (optimized conformer: 152.0697721555515 kcal/mol)

>  <smiles>  (24) 
Cc1occc1-c1nnc(SCC(=O)Nc2ccc(N(C)C)cc2OC(F)(F)F)n1Cc1ccco1

>  <score_type>  (24) 
oracle

>  <origin>  (24) 
adg

>  <m_score__min__energy>  (24) 
-9.0299999999999994

>  <m_primary>  (24) 
energy

$$$$
24:0
     RDKit          3D

 50 52  0  0  0  0  0  0  0  0999 V2000
   58.5340   29.1910   45.7990 C   0  0  0  0  0  0  0  0  0  0  0  0
   59.2300   28.4160   46.9230 C   0  0  0  0  0  0  0  0  0  0  0  0
   60.1940   29.2560   47.7970 C   0  0  1  0  0  0  0  0  0  0  0  0
   61.1450   30.1440   46.9740 C   0  0  0  0  0  0  0  0  0  0  0  0
   60.5430   31.5510   47.0410 C   0  0  2  0  0  0  0  0  0  0  0  0
   61.5810   32.6960   47.0740 C   0  0  0  0  0  0  0  0  0  0  0  0
   61.2750   33.8450   48.0740 C   0  0  0  0  0  0  0  0  0  0  0  0
   59.8540   34.0070   48.4730 N   0  0  1  0  0  0  0  0  0  0  0  0
   59.0290   34.8080   47.5330 C   0  0  0  0  0  0  0  0  0  0  0  0
   58.5790   34.0670   46.2940 C   0  0  0  0  0  0  0  0  0  0  0  0
   57.4850   33.1920   46.3500 C   0  0  0  0  0  0  0  0  0  0  0  0
   57.0920   32.4740   45.2180 C   0  0  0  0  0  0  0  0  0  0  0  0
   57.7800   32.6190   43.9950 C   0  0  0  0  0  0  0  0  0  0  0  0
   57.4020   31.8400   42.8290 N   0  0  0  0  0  0  0  0  0  0  0  0
   56.7330   30.5420   42.9810 C   0  0  0  0  0  0  0  0  0  0  0  0
   57.7060   32.3250   41.4760 C   0  0  0  0  0  0  0  0  0  0  0  0
   58.8520   33.5360   43.9390 C   0  0  0  0  0  0  0  0  0  0  0  0
   59.2390   34.2550   45.0730 C   0  0  0  0  0  0  0  0  0  0  0  0
   59.2490   32.7480   48.8320 C   0  0  0  0  0  0  0  0  0  0  0  0
   58.3300   32.7120   49.6960 O   0  0  0  0  0  0  0  0  0  0  0  0
   59.6990   31.5420   48.2160 N   0  0  0  0  0  0  0  0  0  0  0  0
   59.4650   30.2130   48.7520 C   0  0  0  0  0  0  0  0  0  0  0  0
   57.8592   29.9424   46.2350 H   0  0  0  0  0  0  0  0  0  0  0  0
   59.2898   29.6936   45.1776 H   0  0  0  0  0  0  0  0  0  0  0  0
   57.9534   28.4933   45.1776 H   0  0  0  0  0  0  0  0  0  0  0  0
   58.4537   27.9951   47.5789 H   0  0  0  0  0  0  0  0  0  0  0  0
   59.8484   27.6504   46.4316 H   0  0  0  0  0  0  0  0  0  0  0  0
   60.7530   28.4892   48.3534 H   0  0  0  0  0  0  0  0  0  0  0  0
   62.1546   30.1356   47.4107 H   0  0  0  0  0  0  0  0  0  0  0  0
   61.2437   29.7890   45.9376 H   0  0  0  0  0  0  0  0  0  0  0  0
   59.9817   31.7657   46.1196 H   0  0  0  0  0  0  0  0  0  0  0  0
   62.5556   32.2627   47.3430 H   0  0  0  0  0  0  0  0  0  0  0  0
   61.5607   33.1521   46.0732 H   0  0  0  0  0  0  0  0  0  0  0  0
   61.8607   33.6602   48.9866 H   0  0  0  0  0  0  0  0  0  0  0  0
   61.5395   34.7728   47.5456 H   0  0  0  0  0  0  0  0  0  0  0  0
   59.8830   34.5730   49.3550 H   0  0  0  0  0  0  0  0  0  0  0  0
   58.1329   35.1508   48.0710 H   0  0  0  0  0  0  0  0  0  0  0  0
   59.6686   35.6326   47.1853 H   0  0  0  0  0  0  0  0  0  0  0  0
   56.9317   33.0699   47.2928 H   0  0  0  0  0  0  0  0  0  0  0  0
   56.2353   31.7869   45.2810 H   0  0  0  0  0  0  0  0  0  0  0  0
   56.6151   30.3133   44.0505 H   0  0  0  0  0  0  0  0  0  0  0  0
   55.7430   30.5816   42.5032 H   0  0  0  0  0  0  0  0  0  0  0  0
   57.3397   29.7586   42.5032 H   0  0  0  0  0  0  0  0  0  0  0  0
   58.2891   33.2553   41.5424 H   0  0  0  0  0  0  0  0  0  0  0  0
   58.2892   31.5644   40.9363 H   0  0  0  0  0  0  0  0  0  0  0  0
   56.7672   32.5184   40.9363 H   0  0  0  0  0  0  0  0  0  0  0  0
   59.3893   33.6863   42.9910 H   0  0  0  0  0  0  0  0  0  0  0  0
   60.0685   34.9743   45.0062 H   0  0  0  0  0  0  0  0  0  0  0  0
   59.8763   30.1298   49.7688 H   0  0  0  0  0  0  0  0  0  0  0  0
   58.3917   29.9827   48.8227 H   0  0  0  0  0  0  0  0  0  0  0  0
  1  2  1  0
  2  3  1  0
  3  4  1  0
  4  5  1  0
  5  6  1  0
  6  7  1  0
  7  8  1  0
  8  9  1  0
  9 10  1  0
 10 11  2  0
 11 12  1  0
 12 13  2  0
 13 14  1  0
 14 15  1  0
 14 16  1  0
 13 17  1  0
 17 18  2  0
  8 19  1  0
 19 20  2  0
 19 21  1  0
 21 22  1  0
 22  3  1  0
 21  5  1  0
 18 10  1  0
  1 23  1  0
  1 24  1  0
  1 25  1  0
  2 26  1  0
  2 27  1  0
  3 28  1  1
  4 29  1  0
  4 30  1  0
  5 31  1  6
  6 32  1  0
  6 33  1  0
  7 34  1  0
  7 35  1  0
  8 36  1  1
  9 37  1  0
  9 38  1  0
 11 39  1  0
 12 40  1  0
 15 41  1  0
 15 42  1  0
 15 43  1  0
 16 44  1  0
 16 45  1  0
 16 46  1  0
 17 47  1  0
 18 48  1  0
 22 49  1  0
 22 50  1  0
M  CHG  1   8   1
M  END
>  <UniqueID>  (25) 
23

>  <SMILES>  (25) 
CC[C@H]1C[C@@H]2CC[NH+](Cc3ccc(N(C)C)cc3)C(=O)N2C1

>  <Energy>  (25) 
61.67121028352267

>  <Genealogy>  (25) 
CCC1CC2CC[NH+](Cc3ccc(N(C)C)cc3)C(=O)N2C1 (protonated)
CC[C@H]1C[C@@H]2CC[NH+](Cc3ccc(N(C)C)cc3)C(=O)N2C1 (chirality)
CC[C@H]1C[C@@H]2CC[NH+](Cc3ccc(N(C)C)cc3)C(=O)N2C1 (3D coordinates assigned)
CC[C@H]1C[C@@H]2CC[NH+](Cc3ccc(N(C)C)cc3)C(=O)N2C1 (nonaromatic ring conformer: 61.67121028352267 kcal/mol)

>  <smiles>  (25) 
CCC1CC2CCN(Cc3ccc(N(C)C)cc3)C(=O)N2C1

>  <score_type>  (25) 
oracle

>  <origin>  (25) 
adg

>  <m_score__min__energy>  (25) 
-6.1699999999999999

>  <m_primary>  (25) 
energy

$$$$
25:0
     RDKit          3D

 41 44  0  0  0  0  0  0  0  0999 V2000
   59.8603   36.3597   45.6560 H   0  0  0  0  0  0  0  0  0  0  0  0
   59.5830   35.2990   45.7450 C   0  0  0  0  0  0  0  0  0  0  0  0
   60.1740   34.5030   46.7290 C   0  0  0  0  0  0  0  0  0  0  0  0
   60.9200   34.9366   47.4112 H   0  0  0  0  0  0  0  0  0  0  0  0
   59.8190   33.1570   46.8480 C   0  0  0  0  0  0  0  0  0  0  0  0
   60.2949   32.5332   47.6189 H   0  0  0  0  0  0  0  0  0  0  0  0
   58.8570   32.5930   45.9890 C   0  0  0  0  0  0  0  0  0  0  0  0
   58.4980   31.1640   46.1380 C   0  0  0  0  0  0  0  0  0  0  0  0
   57.3770   30.6920   45.5230 N   0  0  0  0  0  0  0  0  0  0  0  0
   56.9940   29.3880   45.6020 C   0  0  0  0  0  0  0  0  0  0  0  0
   55.9440   29.0110   45.0190 O   0  0  0  0  0  0  0  0  0  0  0  0
   57.7710   28.4790   46.3290 C   0  0  0  0  0  0  0  0  0  0  0  0
   57.4170   27.1690   46.4210 N   0  0  0  0  0  0  0  0  0  0  0  0
   58.1800   26.2820   47.1180 C   0  0  0  0  0  0  0  0  0  0  0  0
   57.8410   25.0310   47.2010 N   0  0  0  0  0  0  0  0  0  0  0  0
   56.4820   24.5680   47.4690 C   0  0  0  0  0  0  0  0  0  0  0  0
   55.9704   25.2910   48.1214 H   0  0  0  0  0  0  0  0  0  0  0  0
   56.5203   23.5877   47.9666 H   0  0  0  0  0  0  0  0  0  0  0  0
   55.7310   24.4430   46.1750 C   0  0  0  0  0  0  0  0  0  0  0  0
   54.7710   25.2350   45.9650 O   0  0  0  0  0  0  0  0  0  0  0  0
   56.0660   23.4080   45.1580 C   0  0  0  0  0  0  0  0  0  0  0  0
   56.4960   22.1180   45.5330 C   0  0  0  0  0  0  0  0  0  0  0  0
   56.5867   21.8609   46.5987 H   0  0  0  0  0  0  0  0  0  0  0  0
   56.8080   21.1630   44.5590 C   0  0  0  0  0  0  0  0  0  0  0  0
   57.1441   20.1603   44.8619 H   0  0  0  0  0  0  0  0  0  0  0  0
   56.6940   21.4790   43.2040 C   0  0  0  0  0  0  0  0  0  0  0  0
   56.9990   20.5510   42.2640 F   0  0  0  0  0  0  0  0  0  0  0  0
   56.2650   22.7500   42.8190 C   0  0  0  0  0  0  0  0  0  0  0  0
   56.1736   22.9980   41.7512 H   0  0  0  0  0  0  0  0  0  0  0  0
   55.9510   23.7090   43.7870 C   0  0  0  0  0  0  0  0  0  0  0  0
   55.6111   24.7075   43.4748 H   0  0  0  0  0  0  0  0  0  0  0  0
   59.3160   26.7060   47.7340 N   0  0  0  0  0  0  0  0  0  0  0  0
   59.7110   28.0050   47.6710 C   0  0  0  0  0  0  0  0  0  0  0  0
   60.6335   28.3262   48.1768 H   0  0  0  0  0  0  0  0  0  0  0  0
   58.9420   28.9310   46.9620 C   0  0  0  0  0  0  0  0  0  0  0  0
   59.3110   30.2780   46.8660 C   0  0  0  0  0  0  0  0  0  0  0  0
   60.2276   30.6393   47.3552 H   0  0  0  0  0  0  0  0  0  0  0  0
   58.2770   33.4020   44.9880 C   0  0  0  0  0  0  0  0  0  0  0  0
   57.4010   32.8850   44.0920 F   0  0  0  0  0  0  0  0  0  0  0  0
   58.6410   34.7490   44.8750 C   0  0  0  0  0  0  0  0  0  0  0  0
   58.1823   35.3767   44.0968 H   0  0  0  0  0  0  0  0  0  0  0  0
  1  2  1  0
  2  3  2  0
  3  4  1  0
  3  5  1  0
  5  6  1  0
  5  7  2  0
  7  8  1  0
  8  9  1  0
  9 10  1  0
 10 11  2  0
 10 12  1  0
 12 13  2  0
 13 14  1  0
 14 15  2  0
 15 16  1  0
 16 17  1  0
 16 18  1  0
 16 19  1  0
 19 20  2  0
 19 21  1  0
 21 22  2  0
 22 23  1  0
 22 24  1  0
 24 25  1  0
 24 26  2  0
 26 27  1  0
 26 28  1  0
 28 29  1  0
 28 30  2  0
 30 31  1  0
 14 32  1  0
 32 33  1  0
 33 34  1  0
 33 35  2  0
 35 36  1  0
 36 37  1  0
  7 38  1  0
 38 39  1  0
 38 40  2  0
 40 41  1  0
 40  2  1  0
 36  8  2  0
 35 12  1  0
 30 21  1  0
M  CHG  2   9  -1  32  -1
M  END
>  <UniqueID>  (26) 
24

>  <SMILES>  (26) 
O=C(C/N=c1\nc2c(=O)[n-]c(-c3ccccc3F)cc2c[n-]1)c1ccc(F)cc1

>  <Energy>  (26) 
56.45106962514227

>  <Genealogy>  (26) 
O=C(CN=c1nc2c(=O)[n-]c(-c3ccccc3F)cc2c[n-]1)c1ccc(F)cc1 (protonated)
O=C(C/N=c1\nc2c(=O)[n-]c(-c3ccccc3F)cc2c[n-]1)c1ccc(F)cc1 (cis-trans isomerization)
O=C(C/N=c1\nc2c(=O)[n-]c(-c3ccccc3F)cc2c[n-]1)c1ccc(F)cc1 (3D coordinates assigned)
O=C(C/N=c1\nc2c(=O)[n-]c(-c3ccccc3F)cc2c[n-]1)c1ccc(F)cc1 (optimized conformer: 56.45106962514227 kcal/mol)

>  <smiles>  (26) 
O=C(CN=c1nc2c(=O)[nH]c(-c3ccccc3F)cc2c[nH]1)c1ccc(F)cc1

>  <score_type>  (26) 
oracle

>  <origin>  (26) 
adg

>  <m_score__min__energy>  (26) 
-12.08

>  <m_primary>  (26) 
energy

$$$$
26:0
     RDKit          3D

 40 42  0  0  0  0  0  0  0  0999 V2000
   59.8720   32.1840   49.1210 C   0  0  0  0  0  0  0  0  0  0  0  0
   61.0320   32.5310   48.2770 N   0  0  0  0  0  0  0  0  0  0  0  0
   60.9220   33.5040   47.2990 C   0  0  0  0  0  0  0  0  0  0  0  0
   59.6060   34.1850   46.9540 C   0  0  0  0  0  0  0  0  0  0  0  0
   59.1780   33.9120   45.5030 C   0  0  0  0  0  0  0  0  0  0  0  0
   58.5290   32.5610   45.3540 C   0  0  0  0  0  0  0  0  0  0  0  0
   57.2500   32.4420   44.7950 C   0  0  0  0  0  0  0  0  0  0  0  0
   56.6430   31.2280   44.7310 N   0  0  0  0  0  0  0  0  0  0  0  0
   57.2320   30.1010   45.2120 C   0  0  0  0  0  0  0  0  0  0  0  0
   56.5810   28.9170   45.0960 F   0  0  0  0  0  0  0  0  0  0  0  0
   58.5110   30.1670   45.7940 C   0  0  0  0  0  0  0  0  0  0  0  0
   59.1630   28.9640   46.3660 C   0  0  0  0  0  0  0  0  0  0  0  0
   59.4240   27.8440   45.5550 C   0  0  0  0  0  0  0  0  0  0  0  0
   60.0560   26.7170   46.0890 C   0  0  0  0  0  0  0  0  0  0  0  0
   60.4370   26.6980   47.4320 C   0  0  0  0  0  0  0  0  0  0  0  0
   60.1900   27.8070   48.2450 C   0  0  0  0  0  0  0  0  0  0  0  0
   59.5570   28.9360   47.7160 C   0  0  0  0  0  0  0  0  0  0  0  0
   59.1580   31.4100   45.8470 C   0  0  0  0  0  0  0  0  0  0  0  0
   62.0450   33.8550   46.5320 C   0  0  0  0  0  0  0  0  0  0  0  0
   63.2620   33.2200   46.7480 C   0  0  0  0  0  0  0  0  0  0  0  0
   63.3620   32.2410   47.7260 C   0  0  0  0  0  0  0  0  0  0  0  0
   62.2430   31.9060   48.4890 C   0  0  0  0  0  0  0  0  0  0  0  0
   62.3680   31.0180   49.3760 O   0  0  0  0  0  0  0  0  0  0  0  0
   60.1520   32.2678   50.1815 H   0  0  0  0  0  0  0  0  0  0  0  0
   59.0423   32.8733   48.9053 H   0  0  0  0  0  0  0  0  0  0  0  0
   59.5571   31.1523   48.9053 H   0  0  0  0  0  0  0  0  0  0  0  0
   58.8243   33.8103   47.6311 H   0  0  0  0  0  0  0  0  0  0  0  0
   59.7454   35.2701   47.0681 H   0  0  0  0  0  0  0  0  0  0  0  0
   58.4620   34.6868   45.1916 H   0  0  0  0  0  0  0  0  0  0  0  0
   60.0793   33.9288   44.8726 H   0  0  0  0  0  0  0  0  0  0  0  0
   56.7358   33.3336   44.4069 H   0  0  0  0  0  0  0  0  0  0  0  0
   59.1292   27.8553   44.4953 H   0  0  0  0  0  0  0  0  0  0  0  0
   60.2534   25.8437   45.4499 H   0  0  0  0  0  0  0  0  0  0  0  0
   60.9320   25.8092   47.8503 H   0  0  0  0  0  0  0  0  0  0  0  0
   60.4937   27.7920   49.3021 H   0  0  0  0  0  0  0  0  0  0  0  0
   59.3660   29.8075   48.3594 H   0  0  0  0  0  0  0  0  0  0  0  0
   60.1671   31.4820   46.2789 H   0  0  0  0  0  0  0  0  0  0  0  0
   61.9611   34.6335   45.7594 H   0  0  0  0  0  0  0  0  0  0  0  0
   64.1418   33.4922   46.1465 H   0  0  0  0  0  0  0  0  0  0  0  0
   64.3208   31.7304   47.8993 H   0  0  0  0  0  0  0  0  0  0  0  0
  1  2  1  0
  2  3  1  0
  3  4  1  0
  4  5  1  0
  5  6  1  0
  6  7  2  0
  7  8  1  0
  8  9  2  0
  9 10  1  0
  9 11  1  0
 11 12  1  0
 12 13  2  0
 13 14  1  0
 14 15  2  0
 15 16  1  0
 16 17  2  0
 11 18  2  0
  3 19  2  0
 19 20  1  0
 20 21  2  0
 21 22  1  0
 22 23  2  0
 22  2  1  0
 18  6  1  0
 17 12  1  0
  1 24  1  0
  1 25  1  0
  1 26  1  0
  4 27  1  0
  4 28  1  0
  5 29  1  0
  5 30  1  0
  7 31  1  0
 13 32  1  0
 14 33  1  0
 15 34  1  0
 16 35  1  0
 17 36  1  0
 18 37  1  0
 19 38  1  0
 20 39  1  0
 21 40  1  0
M  END
>  <UniqueID>  (27) 
25

>  <SMILES>  (27) 
Cn1c(CCc2cnc(F)c(-c3ccccc3)c2)cccc1=O

>  <Energy>  (27) 
51.01911533669329

>  <Genealogy>  (27) 
Cn1c(CCc2cnc(F)c(-c3ccccc3)c2)cccc1=O (3D coordinates assigned)
Cn1c(CCc2cnc(F)c(-c3ccccc3)c2)cccc1=O (optimized conformer: 51.01911533669329 kcal/mol)

>  <smiles>  (27) 
Cn1c(CCc2cnc(F)c(-c3ccccc3)c2)cccc1=O

>  <score_type>  (27) 
oracle

>  <origin>  (27) 
adg

>  <m_score__min__energy>  (27) 
-7.5999999999999996

>  <m_primary>  (27) 
energy

$$$$
27:0
     RDKit          3D

 37 40  0  0  0  0  0  0  0  0999 V2000
   56.7400   34.7980   44.8720 O   0  0  0  0  0  0  0  0  0  0  0  0
   57.7750   34.0780   44.9280 C   0  0  0  0  0  0  0  0  0  0  0  0
   59.0290   34.6500   45.3230 N   0  0  0  0  0  0  0  0  0  0  0  0
   59.7860   34.3260   46.4990 C   0  0  0  0  0  0  0  0  0  0  0  0
   61.0880   33.8320   46.3440 C   0  0  0  0  0  0  0  0  0  0  0  0
   61.8660   33.5240   47.4640 C   0  0  0  0  0  0  0  0  0  0  0  0
   61.3530   33.7230   48.7490 C   0  0  0  0  0  0  0  0  0  0  0  0
   60.0650   34.2380   48.9140 C   0  0  0  0  0  0  0  0  0  0  0  0
   59.2830   34.5480   47.7950 C   0  0  0  0  0  0  0  0  0  0  0  0
   57.6800   32.6280   44.6360 C   0  0  0  0  0  0  0  0  0  0  0  0
   57.4620   32.1730   43.3070 C   0  0  0  0  0  0  0  0  0  0  0  0
   57.3690   30.7980   43.0220 C   0  0  0  0  0  0  0  0  0  0  0  0
   57.4960   29.9070   44.0820 C   0  0  0  0  0  0  0  0  0  0  0  0
   57.4400   28.5690   44.0410 N   0  0  0  0  0  0  0  0  0  0  0  0
   57.6240   28.2210   45.3440 C   0  0  0  0  0  0  0  0  0  0  0  0
   57.6420   26.8160   45.8060 C   0  0  0  0  0  0  0  0  0  0  0  0
   58.8110   26.0410   45.6890 C   0  0  0  0  0  0  0  0  0  0  0  0
   58.8270   24.7130   46.1270 C   0  0  0  0  0  0  0  0  0  0  0  0
   57.6790   24.1450   46.6850 C   0  0  0  0  0  0  0  0  0  0  0  0
   57.6960   22.8260   47.1190 O   0  0  0  0  0  0  0  0  0  0  0  0
   56.5120   24.9060   46.8050 C   0  0  0  0  0  0  0  0  0  0  0  0
   56.4920   26.2340   46.3690 C   0  0  0  0  0  0  0  0  0  0  0  0
   57.7900   29.2790   46.1840 N   0  0  0  0  0  0  0  0  0  0  0  0
   57.7040   30.3290   45.3560 C   0  0  0  0  0  0  0  0  0  0  0  0
   57.8020   31.6800   45.6820 C   0  0  0  0  0  0  0  0  0  0  0  0
   61.5006   33.6856   45.3349 H   0  0  0  0  0  0  0  0  0  0  0  0
   62.8827   33.1247   47.3339 H   0  0  0  0  0  0  0  0  0  0  0  0
   61.9632   33.4742   49.6298 H   0  0  0  0  0  0  0  0  0  0  0  0
   59.6643   34.4003   49.9255 H   0  0  0  0  0  0  0  0  0  0  0  0
   58.2742   34.9656   47.9286 H   0  0  0  0  0  0  0  0  0  0  0  0
   57.3648   32.9046   42.4914 H   0  0  0  0  0  0  0  0  0  0  0  0
   57.2015   30.4402   41.9954 H   0  0  0  0  0  0  0  0  0  0  0  0
   59.7179   26.4827   45.2502 H   0  0  0  0  0  0  0  0  0  0  0  0
   59.7451   24.1146   46.0320 H   0  0  0  0  0  0  0  0  0  0  0  0
   55.6078   24.4586   47.2434 H   0  0  0  0  0  0  0  0  0  0  0  0
   55.5711   26.8276   46.4668 H   0  0  0  0  0  0  0  0  0  0  0  0
   57.9691   32.0012   46.7207 H   0  0  0  0  0  0  0  0  0  0  0  0
  1  2  2  0
  2  3  1  0
  3  4  1  0
  4  5  2  0
  5  6  1  0
  6  7  2  0
  7  8  1  0
  8  9  2  0
  2 10  1  0
 10 11  2  0
 11 12  1  0
 12 13  2  0
 13 14  1  0
 14 15  1  0
 15 16  1  0
 16 17  2  0
 17 18  1  0
 18 19  2  0
 19 20  1  0
 19 21  1  0
 21 22  2  0
 15 23  2  0
 23 24  1  0
 24 25  2  0
  9  4  1  0
 25 10  1  0
 24 13  1  0
 22 16  1  0
  5 26  1  0
  6 27  1  0
  7 28  1  0
  8 29  1  0
  9 30  1  0
 11 31  1  0
 12 32  1  0
 17 33  1  0
 18 34  1  0
 21 35  1  0
 22 36  1  0
 25 37  1  0
M  CHG  3   3  -1  14  -1  20  -1
M  END
>  <UniqueID>  (28) 
26

>  <SMILES>  (28) 
O=C([N-]c1ccccc1)c1ccc2[n-]c(-c3ccc([O-])cc3)nc2c1

>  <Energy>  (28) 
81.86840510173924

>  <Genealogy>  (28) 
O=C([N-]c1ccccc1)c1ccc2[n-]c(-c3ccc([O-])cc3)nc2c1 (protonated)
O=C([N-]c1ccccc1)c1ccc2[n-]c(-c3ccc([O-])cc3)nc2c1 (3D coordinates assigned)
O=C([N-]c1ccccc1)c1ccc2[n-]c(-c3ccc([O-])cc3)nc2c1 (optimized conformer: 81.86840510173924 kcal/mol)

>  <smiles>  (28) 
O=C(Nc1ccccc1)c1ccc2[nH]c(-c3ccc(O)cc3)nc2c1

>  <score_type>  (28) 
oracle

>  <origin>  (28) 
adg

>  <m_score__min__energy>  (28) 
-11.52

>  <m_primary>  (28) 
energy

$$$$
28:0
     RDKit          3D

 29 30  0  0  0  0  0  0  0  0999 V2000
   58.1500   22.9500   47.4980 H   0  0  0  0  0  0  0  0  0  0  0  0
   57.5100   22.5480   46.8230 O   0  0  0  0  0  0  0  0  0  0  0  0
   56.3480   23.2130   46.4300 C   0  0  0  0  0  0  0  0  0  0  0  0
   55.2180   22.4720   46.0520 C   0  0  0  0  0  0  0  0  0  0  0  0
   55.2503   21.3728   46.0797 H   0  0  0  0  0  0  0  0  0  0  0  0
   54.0530   23.1220   45.6410 C   0  0  0  0  0  0  0  0  0  0  0  0
   52.9400   22.3810   45.2640 O   0  0  0  0  0  0  0  0  0  0  0  0
   54.0050   24.5170   45.6140 C   0  0  0  0  0  0  0  0  0  0  0  0
   53.0855   25.0269   45.2906 H   0  0  0  0  0  0  0  0  0  0  0  0
   55.1200   25.2690   45.9960 C   0  0  0  0  0  0  0  0  0  0  0  0
   55.0240   26.6570   45.9980 O   0  0  0  0  0  0  0  0  0  0  0  0
   56.3100   24.6230   46.3970 C   0  0  0  0  0  0  0  0  0  0  0  0
   57.5030   25.4060   46.8010 C   0  0  0  0  0  0  0  0  0  0  0  0
   58.1000   25.1100   47.8720 O   0  0  0  0  0  0  0  0  0  0  0  0
   58.0120   26.5010   45.9460 C   0  0  0  0  0  0  0  0  0  0  0  0
   58.3183   26.2724   44.9145 H   0  0  0  0  0  0  0  0  0  0  0  0
   58.1120   27.7630   46.3880 C   0  0  0  0  0  0  0  0  0  0  0  0
   58.4689   27.9267   47.4155 H   0  0  0  0  0  0  0  0  0  0  0  0
   57.7680   28.9510   45.5680 C   0  0  0  0  0  0  0  0  0  0  0  0
   56.5870   28.9250   44.8070 C   0  0  0  0  0  0  0  0  0  0  0  0
   55.9378   28.0375   44.8380 H   0  0  0  0  0  0  0  0  0  0  0  0
   56.2300   30.0170   44.0110 C   0  0  0  0  0  0  0  0  0  0  0  0
   55.2988   29.9890   43.4261 H   0  0  0  0  0  0  0  0  0  0  0  0
   57.0530   31.1430   43.9570 C   0  0  0  0  0  0  0  0  0  0  0  0
   56.7679   32.0034   43.3338 H   0  0  0  0  0  0  0  0  0  0  0  0
   58.2380   31.1770   44.6940 C   0  0  0  0  0  0  0  0  0  0  0  0
   58.8880   32.0632   44.6471 H   0  0  0  0  0  0  0  0  0  0  0  0
   58.6010   30.0870   45.4920 C   0  0  0  0  0  0  0  0  0  0  0  0
   59.5407   30.1158   46.0631 H   0  0  0  0  0  0  0  0  0  0  0  0
  1  2  1  0
  2  3  1  0
  3  4  2  0
  4  5  1  0
  4  6  1  0
  6  7  1  0
  6  8  2  0
  8  9  1  0
  8 10  1  0
 10 11  1  0
 10 12  2  0
 12 13  1  0
 13 14  2  0
 13 15  1  0
 15 16  1  0
 15 17  2  0
 17 18  1  0
 17 19  1  0
 19 20  2  0
 20 21  1  0
 20 22  1  0
 22 23  1  0
 22 24  2  0
 24 25  1  0
 24 26  1  0
 26 27  1  0
 26 28  2  0
 28 29  1  0
 12  3  1  0
 28 19  1  0
M  CHG  2   7  -1  11  -1
M  END
>  <UniqueID>  (29) 
27

>  <SMILES>  (29) 
O=C(/C=C/c1ccccc1)c1c([O-])cc([O-])cc1O

>  <Energy>  (29) 
37.62800538713539

>  <Genealogy>  (29) 
O=C(C=Cc1ccccc1)c1c([O-])cc([O-])cc1O (protonated)
O=C(/C=C/c1ccccc1)c1c([O-])cc([O-])cc1O (cis-trans isomerization)
O=C(/C=C/c1ccccc1)c1c([O-])cc([O-])cc1O (3D coordinates assigned)
O=C(/C=C/c1ccccc1)c1c([O-])cc([O-])cc1O (optimized conformer: 37.62800538713539 kcal/mol)

>  <smiles>  (29) 
O=C(C=Cc1ccccc1)c1c(O)cc(O)cc1O

>  <score_type>  (29) 
oracle

>  <origin>  (29) 
adg

>  <m_score__min__energy>  (29) 
-12.31

>  <m_primary>  (29) 
energy

$$$$
29:0
     RDKit          3D

 30 32  0  0  1  0  0  0  0  0999 V2000
   59.1970   34.8780   44.8680 N   0  0  0  0  0  0  0  0  0  0  0  0
   58.7260   33.8060   45.3630 C   0  0  0  0  0  0  0  0  0  0  0  0
   58.7120   33.4980   46.6710 N   0  0  0  0  0  0  0  0  0  0  0  0
   58.1930   32.3350   47.1400 C   0  0  0  0  0  0  0  0  0  0  0  0
   57.6700   31.4490   46.2690 N   0  0  0  0  0  0  0  0  0  0  0  0
   57.6410   31.6740   44.9400 C   0  0  0  0  0  0  0  0  0  0  0  0
   58.1810   32.8780   44.4810 C   0  0  0  0  0  0  0  0  0  0  0  0
   58.0410   32.8750   43.1500 N   0  0  0  0  0  0  0  0  0  0  0  0
   57.4450   31.7350   42.7810 C   0  0  0  0  0  0  0  0  0  0  0  0
   57.1920   30.9790   43.8830 N   0  0  0  0  0  0  0  0  0  0  0  0
   56.5730   29.6910   43.9740 C   0  0  1  0  0  0  0  0  0  0  0  0
   57.3900   28.6060   43.2960 C   0  0  0  0  0  0  0  0  0  0  0  0
   58.3770   28.3440   44.4170 C   0  0  1  0  0  0  0  0  0  0  0  0
   59.2390   29.3910   44.5710 F   0  0  0  0  0  0  0  0  0  0  0  0
   57.4200   28.3900   45.5890 C   0  0  2  0  0  0  0  0  0  0  0  0
   56.9060   26.9800   45.8750 C   0  0  0  0  0  0  0  0  0  0  0  0
   55.4950   26.9890   45.9480 O   0  0  0  0  0  0  0  0  0  0  0  0
   56.4040   29.2530   45.2770 O   0  0  0  0  0  0  0  0  0  0  0  0
   59.2800   34.9560   43.8260 H   0  0  0  0  0  0  0  0  0  0  0  0
   59.1310   34.2190   47.3170 H   0  0  0  0  0  0  0  0  0  0  0  0
   58.1990   32.1179   48.2183 H   0  0  0  0  0  0  0  0  0  0  0  0
   57.1980   31.4531   41.7468 H   0  0  0  0  0  0  0  0  0  0  0  0
   55.6013   29.8416   43.4809 H   0  0  0  0  0  0  0  0  0  0  0  0
   56.7857   27.7181   43.0583 H   0  0  0  0  0  0  0  0  0  0  0  0
   57.8282   28.8722   42.3228 H   0  0  0  0  0  0  0  0  0  0  0  0
   58.9854   27.4380   44.2790 H   0  0  0  0  0  0  0  0  0  0  0  0
   57.9191   28.7511   46.5003 H   0  0  0  0  0  0  0  0  0  0  0  0
   57.2253   26.3045   45.0677 H   0  0  0  0  0  0  0  0  0  0  0  0
   57.3164   26.6322   46.8345 H   0  0  0  0  0  0  0  0  0  0  0  0
   55.1410   27.9160   45.9140 H   0  0  0  0  0  0  0  0  0  0  0  0
  1  2  2  3
  2  3  1  0
  3  4  1  0
  4  5  2  0
  5  6  1  0
  6  7  2  0
  7  8  1  0
  8  9  2  0
  9 10  1  0
 10 11  1  0
 11 12  1  0
 12 13  1  0
 13 14  1  0
 13 15  1  0
 15 16  1  0
 16 17  1  0
 15 18  1  0
  7  2  1  0
 18 11  1  0
 10  6  1  0
  1 19  1  0
  3 20  1  0
  4 21  1  0
  9 22  1  0
 11 23  1  6
 12 24  1  0
 12 25  1  0
 13 26  1  6
 15 27  1  1
 16 28  1  0
 16 29  1  0
 17 30  1  0
M  END
>  <smiles>  (30) 
N=c1[nH]cnc2c1ncn2C1CC(F)C(CO)O1

>  <score_type>  (30) 
oracle

>  <origin>  (30) 
adg

>  <m_score__min__energy>  (30) 
-6.29

>  <m_primary>  (30) 
energy

$$$$
30:0
     RDKit          3D

 28 30  0  0  0  0  0  0  0  0999 V2000
   57.7950   24.4540   44.7100 C   0  0  0  0  0  0  0  0  0  0  0  0
   57.7340   25.8340   44.2470 N   0  0  0  0  0  0  0  0  0  0  0  0
   57.8650   26.1890   42.9790 N   0  0  0  0  0  0  0  0  0  0  0  0
   57.7800   27.5320   42.9190 C   0  0  0  0  0  0  0  0  0  0  0  0
   57.5900   28.0420   44.1930 C   0  0  0  0  0  0  0  0  0  0  0  0
   57.4590   29.4740   44.5290 C   0  0  0  0  0  0  0  0  0  0  0  0
   58.4420   30.3530   44.9360 C   0  0  0  0  0  0  0  0  0  0  0  0
   57.8330   31.5400   45.1350 N   0  0  0  0  0  0  0  0  0  0  0  0
   58.4260   32.7800   45.5750 C   0  0  0  0  0  0  0  0  0  0  0  0
   58.6730   33.8350   44.6740 C   0  0  0  0  0  0  0  0  0  0  0  0
   59.2480   35.0300   45.1210 C   0  0  0  0  0  0  0  0  0  0  0  0
   59.5810   35.1870   46.4670 C   0  0  0  0  0  0  0  0  0  0  0  0
   59.3380   34.1510   47.3710 C   0  0  0  0  0  0  0  0  0  0  0  0
   58.7640   32.9560   46.9300 C   0  0  0  0  0  0  0  0  0  0  0  0
   56.5450   31.3870   44.8690 N   0  0  0  0  0  0  0  0  0  0  0  0
   56.2880   30.1420   44.4980 N   0  0  0  0  0  0  0  0  0  0  0  0
   57.5700   26.9280   45.0170 C   0  0  0  0  0  0  0  0  0  0  0  0
   57.4000   26.8820   46.7670 Cl  0  0  0  0  0  0  0  0  0  0  0  0
   57.7958   24.4360   45.8099 H   0  0  0  0  0  0  0  0  0  0  0  0
   56.9204   23.9024   44.3349 H   0  0  0  0  0  0  0  0  0  0  0  0
   58.7149   23.9817   44.3349 H   0  0  0  0  0  0  0  0  0  0  0  0
   57.8506   28.1317   41.9996 H   0  0  0  0  0  0  0  0  0  0  0  0
   59.5106   30.1298   45.0713 H   0  0  0  0  0  0  0  0  0  0  0  0
   58.4120   33.7184   43.6118 H   0  0  0  0  0  0  0  0  0  0  0  0
   59.4379   35.8473   44.4097 H   0  0  0  0  0  0  0  0  0  0  0  0
   60.0347   36.1265   46.8157 H   0  0  0  0  0  0  0  0  0  0  0  0
   59.5990   34.2759   48.4323 H   0  0  0  0  0  0  0  0  0  0  0  0
   58.5744   32.1450   47.6485 H   0  0  0  0  0  0  0  0  0  0  0  0
  1  2  1  0
  2  3  1  0
  3  4  2  0
  4  5  1  0
  5  6  1  0
  6  7  2  0
  7  8  1  0
  8  9  1  0
  9 10  2  0
 10 11  1  0
 11 12  2  0
 12 13  1  0
 13 14  2  0
  8 15  1  0
 15 16  2  0
  5 17  2  0
 17 18  1  0
 17  2  1  0
 16  6  1  0
 14  9  1  0
  1 19  1  0
  1 20  1  0
  1 21  1  0
  4 22  1  0
  7 23  1  0
 10 24  1  0
 11 25  1  0
 12 26  1  0
 13 27  1  0
 14 28  1  0
M  END
>  <UniqueID>  (31) 
28

>  <SMILES>  (31) 
Cn1ncc(-c2cn(-c3ccccc3)nn2)c1Cl

>  <Energy>  (31) 
99.01693460813384

>  <Genealogy>  (31) 
Cn1ncc(-c2cn(-c3ccccc3)nn2)c1Cl (3D coordinates assigned)
Cn1ncc(-c2cn(-c3ccccc3)nn2)c1Cl (optimized conformer: 99.01693460813384 kcal/mol)

>  <smiles>  (31) 
Cn1ncc(-c2cn(-c3ccccc3)nn2)c1Cl

>  <score_type>  (31) 
oracle

>  <origin>  (31) 
adg

>  <m_score__min__energy>  (31) 
-7.4199999999999999

>  <m_primary>  (31) 
energy

$$$$
31:0
     RDKit          3D

 56 60  0  0  0  0  0  0  0  0999 V2000
   59.2720   34.7140   45.2600 C   0  0  0  0  0  0  0  0  0  0  0  0
   59.1420   34.1520   46.6440 C   0  0  0  0  0  0  0  0  0  0  0  0
   58.0920   33.2760   46.9560 C   0  0  0  0  0  0  0  0  0  0  0  0
   57.9900   32.7270   48.2380 C   0  0  0  0  0  0  0  0  0  0  0  0
   58.9230   33.0610   49.2290 C   0  0  0  0  0  0  0  0  0  0  0  0
   58.8080   32.3430   50.8400 S   0  0  0  0  0  0  0  0  0  0  0  0
   57.7530   33.0630   51.6310 O   0  0  0  0  0  0  0  0  0  0  0  0
   60.1210   32.5860   51.5310 O   0  0  0  0  0  0  0  0  0  0  0  0
   58.4830   30.6130   50.8570 N   0  0  0  0  0  0  0  0  0  0  0  0
   57.8950   30.1520   52.1250 C   0  0  0  0  0  0  0  0  0  0  0  0
   58.9370   29.7990   53.1490 C   0  0  0  0  0  0  0  0  0  0  0  0
   60.1810   29.4400   52.8100 C   0  0  0  0  0  0  0  0  0  0  0  0
   60.6760   29.4290   51.3800 C   0  0  2  0  0  0  0  0  0  0  0  0
   61.8570   30.3440   51.1930 C   0  0  0  0  0  0  0  0  0  0  0  0
   62.6170   30.5750   52.1750 O   0  0  0  0  0  0  0  0  0  0  0  0
   62.1910   30.8550   49.8860 N   0  0  0  0  0  0  0  0  0  0  0  0
   63.4510   31.5910   49.6940 C   0  0  0  0  0  0  0  0  0  0  0  0
   61.3110   30.5940   48.7630 C   0  0  0  0  0  0  0  0  0  0  0  0
   61.7080   30.8850   47.4400 C   0  0  0  0  0  0  0  0  0  0  0  0
   60.8400   30.6780   46.3690 C   0  0  0  0  0  0  0  0  0  0  0  0
   59.5510   30.1710   46.5810 C   0  0  0  0  0  0  0  0  0  0  0  0
   58.6230   29.9620   45.4400 C   0  0  0  0  0  0  0  0  0  0  0  0
   58.0700   31.0610   44.7570 C   0  0  0  0  0  0  0  0  0  0  0  0
   57.1970   30.8620   43.6830 C   0  0  0  0  0  0  0  0  0  0  0  0
   56.8670   29.5660   43.2790 C   0  0  0  0  0  0  0  0  0  0  0  0
   56.0210   29.3740   42.2370 F   0  0  0  0  0  0  0  0  0  0  0  0
   57.4100   28.4660   43.9490 C   0  0  0  0  0  0  0  0  0  0  0  0
   58.2820   28.6610   45.0250 C   0  0  0  0  0  0  0  0  0  0  0  0
   59.1540   29.8610   47.8900 C   0  0  0  0  0  0  0  0  0  0  0  0
   60.0230   30.0540   48.9770 C   0  0  0  0  0  0  0  0  0  0  0  0
   59.5380   29.6940   50.3620 C   0  0  2  0  0  0  0  0  0  0  0  0
   60.0110   33.8800   48.8950 C   0  0  0  0  0  0  0  0  0  0  0  0
   60.1160   34.4290   47.6140 C   0  0  0  0  0  0  0  0  0  0  0  0
   59.5195   35.7841   45.3205 H   0  0  0  0  0  0  0  0  0  0  0  0
   60.0710   34.1827   44.7221 H   0  0  0  0  0  0  0  0  0  0  0  0
   58.3209   34.5875   44.7221 H   0  0  0  0  0  0  0  0  0  0  0  0
   57.3459   33.0199   46.1893 H   0  0  0  0  0  0  0  0  0  0  0  0
   57.1724   32.0287   48.4701 H   0  0  0  0  0  0  0  0  0  0  0  0
   57.2592   30.9528   52.5305 H   0  0  0  0  0  0  0  0  0  0  0  0
   57.3142   29.2423   51.9124 H   0  0  0  0  0  0  0  0  0  0  0  0
   58.6677   29.8370   54.2148 H   0  0  0  0  0  0  0  0  0  0  0  0
   60.8758   29.1390   53.6079 H   0  0  0  0  0  0  0  0  0  0  0  0
   61.0348   28.4111   51.1678 H   0  0  0  0  0  0  0  0  0  0  0  0
   63.8817   31.8426   50.6744 H   0  0  0  0  0  0  0  0  0  0  0  0
   64.1595   30.9647   49.1321 H   0  0  0  0  0  0  0  0  0  0  0  0
   63.2535   32.5158   49.1321 H   0  0  0  0  0  0  0  0  0  0  0  0
   62.7168   31.2808   47.2514 H   0  0  0  0  0  0  0  0  0  0  0  0
   61.1704   30.9151   45.3469 H   0  0  0  0  0  0  0  0  0  0  0  0
   58.3263   32.0839   45.0702 H   0  0  0  0  0  0  0  0  0  0  0  0
   56.7694   31.7273   43.1554 H   0  0  0  0  0  0  0  0  0  0  0  0
   57.1512   27.4457   43.6296 H   0  0  0  0  0  0  0  0  0  0  0  0
   58.7042   27.7917   45.5505 H   0  0  0  0  0  0  0  0  0  0  0  0
   58.1454   29.4600   48.0686 H   0  0  0  0  0  0  0  0  0  0  0  0
   59.0469   28.7153   50.2568 H   0  0  0  0  0  0  0  0  0  0  0  0
   60.7866   34.0917   49.6457 H   0  0  0  0  0  0  0  0  0  0  0  0
   60.9663   35.0812   47.3657 H   0  0  0  0  0  0  0  0  0  0  0  0
  1  2  1  0
  2  3  2  0
  3  4  1  0
  4  5  2  0
  5  6  1  0
  6  7  2  0
  6  8  2  0
  6  9  1  0
  9 10  1  0
 10 11  1  0
 11 12  2  0
 12 13  1  0
 13 14  1  0
 14 15  2  0
 14 16  1  0
 16 17  1  0
 16 18  1  0
 18 19  2  0
 19 20  1  0
 20 21  2  0
 21 22  1  0
 22 23  2  0
 23 24  1  0
 24 25  2  0
 25 26  1  0
 25 27  1  0
 27 28  2  0
 21 29  1  0
 29 30  2  0
 30 31  1  0
  5 32  1  0
 32 33  2  0
 33  2  1  0
 31  9  1  0
 31 13  1  0
 30 18  1  0
 28 22  1  0
  1 34  1  0
  1 35  1  0
  1 36  1  0
  3 37  1  0
  4 38  1  0
 10 39  1  0
 10 40  1  0
 11 41  1  0
 12 42  1  0
 13 43  1  6
 17 44  1  0
 17 45  1  0
 17 46  1  0
 19 47  1  0
 20 48  1  0
 23 49  1  0
 24 50  1  0
 27 51  1  0
 28 52  1  0
 29 53  1  0
 31 54  1  6
 32 55  1  0
 33 56  1  0
M  END
>  <UniqueID>  (32) 
29

>  <SMILES>  (32) 
Cc1ccc(S(=O)(=O)N2CC=C[C@@H]3C(=O)N(C)c4ccc(-c5ccc(F)cc5)cc4[C@@H]32)cc1

>  <Energy>  (32) 
82.2487439514795

>  <Genealogy>  (32) 
Cc1ccc(S(=O)(=O)N2CC=C[C@@H]3C(=O)N(C)c4ccc(-c5ccc(F)cc5)cc4[C@@H]32)cc1 (chirality)
Cc1ccc(S(=O)(=O)N2CC=C[C@@H]3C(=O)N(C)c4ccc(-c5ccc(F)cc5)cc4[C@@H]32)cc1 (3D coordinates assigned)
Cc1ccc(S(=O)(=O)N2CC=C[C@@H]3C(=O)N(C)c4ccc(-c5ccc(F)cc5)cc4[C@@H]32)cc1 (nonaromatic ring conformer: 82.2487439514795 kcal/mol)

>  <smiles>  (32) 
Cc1ccc(S(=O)(=O)N2CC=CC3C(=O)N(C)c4ccc(-c5ccc(F)cc5)cc4C32)cc1

>  <score_type>  (32) 
oracle

>  <origin>  (32) 
adg

>  <m_score__min__energy>  (32) 
-8.4299999999999997

>  <m_primary>  (32) 
energy

$$$$
32:0
     RDKit          3D

 45 48  0  0  0  0  0  0  0  0999 V2000
   58.8440   31.5500   46.5580 C   0  0  0  0  0  0  0  0  0  0  0  0
   58.8980   31.3480   48.0440 C   0  0  0  0  0  0  0  0  0  0  0  0
   59.1300   30.0710   48.5750 C   0  0  0  0  0  0  0  0  0  0  0  0
   59.2150   29.8870   49.9580 C   0  0  0  0  0  0  0  0  0  0  0  0
   59.0820   30.9810   50.8300 C   0  0  0  0  0  0  0  0  0  0  0  0
   59.1500   30.7730   52.3190 C   0  0  0  0  0  0  0  0  0  0  0  0
   57.9970   29.9230   52.7860 C   0  0  0  0  0  0  0  0  0  0  0  0
   58.0870   28.6190   53.2450 C   0  0  0  0  0  0  0  0  0  0  0  0
   59.5510   27.6730   53.4720 Cl  0  0  0  0  0  0  0  0  0  0  0  0
   56.7950   28.2030   53.4790 C   0  0  0  0  0  0  0  0  0  0  0  0
   56.3750   26.9700   53.9680 C   0  0  0  0  0  0  0  0  0  0  0  0
   55.0010   26.7800   54.1260 C   0  0  0  0  0  0  0  0  0  0  0  0
   54.1250   27.7690   53.7890 N   0  0  0  0  0  0  0  0  0  0  0  0
   54.5610   28.9670   53.2970 C   0  0  0  0  0  0  0  0  0  0  0  0
   53.5580   29.9600   52.8690 C   0  0  0  0  0  0  0  0  0  0  0  0
   53.3870   30.2360   51.5040 C   0  0  0  0  0  0  0  0  0  0  0  0
   52.4180   31.1550   51.0910 C   0  0  0  0  0  0  0  0  0  0  0  0
   51.6050   31.7890   52.0360 C   0  0  0  0  0  0  0  0  0  0  0  0
   50.6420   32.7030   51.6240 O   0  0  0  0  0  0  0  0  0  0  0  0
   51.7570   31.5000   53.3960 C   0  0  0  0  0  0  0  0  0  0  0  0
   52.7260   30.5810   53.8140 C   0  0  0  0  0  0  0  0  0  0  0  0
   52.8630   30.3080   55.1370 F   0  0  0  0  0  0  0  0  0  0  0  0
   55.9110   29.1740   53.1690 N   0  0  0  0  0  0  0  0  0  0  0  0
   56.6390   30.2510   52.7630 C   0  0  0  0  0  0  0  0  0  0  0  0
   56.0830   31.5860   52.3500 C   0  0  0  0  0  0  0  0  0  0  0  0
   58.8700   32.2620   50.2940 C   0  0  0  0  0  0  0  0  0  0  0  0
   58.7850   32.4440   48.9100 C   0  0  0  0  0  0  0  0  0  0  0  0
   58.5656   32.5915   46.3394 H   0  0  0  0  0  0  0  0  0  0  0  0
   59.8311   31.3352   46.1227 H   0  0  0  0  0  0  0  0  0  0  0  0
   58.0957   30.8713   46.1227 H   0  0  0  0  0  0  0  0  0  0  0  0
   59.2456   29.2101   47.9000 H   0  0  0  0  0  0  0  0  0  0  0  0
   59.3870   28.8801   50.3662 H   0  0  0  0  0  0  0  0  0  0  0  0
   60.0956   30.2709   52.5716 H   0  0  0  0  0  0  0  0  0  0  0  0
   59.0955   31.7518   52.8179 H   0  0  0  0  0  0  0  0  0  0  0  0
   57.0956   26.1779   54.2196 H   0  0  0  0  0  0  0  0  0  0  0  0
   54.6230   25.8270   54.5246 H   0  0  0  0  0  0  0  0  0  0  0  0
   53.1020   27.5890   53.8980 H   0  0  0  0  0  0  0  0  0  0  0  0
   54.0162   29.7286   50.7579 H   0  0  0  0  0  0  0  0  0  0  0  0
   52.2948   31.3798   50.0213 H   0  0  0  0  0  0  0  0  0  0  0  0
   51.1139   31.9958   54.1381 H   0  0  0  0  0  0  0  0  0  0  0  0
   55.8380   32.1744   53.2465 H   0  0  0  0  0  0  0  0  0  0  0  0
   56.8313   32.1253   51.7507 H   0  0  0  0  0  0  0  0  0  0  0  0
   55.1731   31.4347   51.7507 H   0  0  0  0  0  0  0  0  0  0  0  0
   58.7703   33.1267   50.9665 H   0  0  0  0  0  0  0  0  0  0  0  0
   58.6287   33.4523   48.4991 H   0  0  0  0  0  0  0  0  0  0  0  0
  1  2  1  0
  2  3  2  0
  3  4  1  0
  4  5  2  0
  5  6  1  0
  6  7  1  0
  7  8  1  0
  8  9  1  0
  8 10  2  0
 10 11  1  0
 11 12  2  0
 12 13  1  0
 13 14  2  0
 14 15  1  0
 15 16  2  0
 16 17  1  0
 17 18  2  0
 18 19  1  0
 18 20  1  0
 20 21  2  0
 21 22  1  0
 14 23  1  0
 23 24  1  0
 24 25  1  0
  5 26  1  0
 26 27  2  0
 27  2  1  0
 24  7  2  0
 23 10  1  0
 21 15  1  0
  1 28  1  0
  1 29  1  0
  1 30  1  0
  3 31  1  0
  4 32  1  0
  6 33  1  0
  6 34  1  0
 11 35  1  0
 12 36  1  0
 13 37  1  0
 16 38  1  0
 17 39  1  0
 20 40  1  0
 25 41  1  0
 25 42  1  0
 25 43  1  0
 26 44  1  0
 27 45  1  0
M  CHG  2  13   1  19  -1
M  END
>  <UniqueID>  (33) 
30

>  <SMILES>  (33) 
Cc1ccc(Cc2c(Cl)c3cc[nH+]c(-c4ccc([O-])cc4F)n3c2C)cc1

>  <Energy>  (33) 
89.23050803898751

>  <Genealogy>  (33) 
Cc1ccc(Cc2c(Cl)c3cc[nH+]c(-c4ccc([O-])cc4F)n3c2C)cc1 (protonated)
Cc1ccc(Cc2c(Cl)c3cc[nH+]c(-c4ccc([O-])cc4F)n3c2C)cc1 (3D coordinates assigned)
Cc1ccc(Cc2c(Cl)c3cc[nH+]c(-c4ccc([O-])cc4F)n3c2C)cc1 (optimized conformer: 89.23050803898751 kcal/mol)

>  <smiles>  (33) 
Cc1ccc(Cc2c(Cl)c3ccnc(-c4ccc(O)cc4F)n3c2C)cc1

>  <score_type>  (33) 
oracle

>  <origin>  (33) 
adg

>  <m_score__min__energy>  (33) 
-9.7799999999999994

>  <m_primary>  (33) 
energy

$$$$
33:0
     RDKit          3D

 53 57  0  0  0  0  0  0  0  0999 V2000
   69.0900   28.1990   55.1600 C   0  0  0  0  0  0  0  0  0  0  0  0
   69.0590   28.7790   53.8210 N   0  0  0  0  0  0  0  0  0  0  0  0
   67.8960   28.2770   53.1580 C   0  0  0  0  0  0  0  0  0  0  0  0
   67.6940   29.0590   51.8730 C   0  0  0  0  0  0  0  0  0  0  0  0
   67.3880   30.4610   52.1970 N   0  0  0  0  0  0  0  0  0  0  0  0
   66.6200   31.2890   51.3560 C   0  0  0  0  0  0  0  0  0  0  0  0
   67.0390   32.5440   50.9620 C   0  0  0  0  0  0  0  0  0  0  0  0
   66.2760   33.3570   50.1300 C   0  0  0  0  0  0  0  0  0  0  0  0
   65.0510   32.9160   49.6690 C   0  0  0  0  0  0  0  0  0  0  0  0
   64.1250   33.4650   48.8780 N   0  0  0  0  0  0  0  0  0  0  0  0
   63.1050   32.5990   48.7440 C   0  0  0  0  0  0  0  0  0  0  0  0
   61.9100   32.8660   47.9460 C   0  0  0  0  0  0  0  0  0  0  0  0
   62.0140   33.7770   46.9120 C   0  0  0  0  0  0  0  0  0  0  0  0
   60.8990   34.0440   46.1440 C   0  0  0  0  0  0  0  0  0  0  0  0
   59.6990   33.4110   46.4070 C   0  0  0  0  0  0  0  0  0  0  0  0
   58.5920   33.6890   45.6310 O   0  0  0  0  0  0  0  0  0  0  0  0
   58.0560   32.8100   44.7220 C   0  0  0  0  0  0  0  0  0  0  0  0
   58.2680   33.0890   43.3720 C   0  0  0  0  0  0  0  0  0  0  0  0
   57.7770   32.2760   42.3720 C   0  0  0  0  0  0  0  0  0  0  0  0
   57.9830   32.5480   41.0630 F   0  0  0  0  0  0  0  0  0  0  0  0
   57.0540   31.1520   42.7120 C   0  0  0  0  0  0  0  0  0  0  0  0
   56.8400   30.8670   44.0480 C   0  0  0  0  0  0  0  0  0  0  0  0
   55.9160   29.4270   44.4680 Cl  0  0  0  0  0  0  0  0  0  0  0  0
   57.3350   31.6860   45.0570 C   0  0  0  0  0  0  0  0  0  0  0  0
   59.5890   32.5020   47.4380 C   0  0  0  0  0  0  0  0  0  0  0  0
   60.7120   32.2330   48.2090 C   0  0  0  0  0  0  0  0  0  0  0  0
   63.4200   31.5110   49.4630 N   0  0  0  0  0  0  0  0  0  0  0  0
   64.6370   31.6710   50.0610 C   0  0  0  0  0  0  0  0  0  0  0  0
   65.3950   30.8570   50.8900 C   0  0  0  0  0  0  0  0  0  0  0  0
   67.9300   30.9480   53.4490 C   0  0  0  0  0  0  0  0  0  0  0  0
   69.1760   30.2010   53.8470 C   0  0  0  0  0  0  0  0  0  0  0  0
   69.0470   29.0034   55.9091 H   0  0  0  0  0  0  0  0  0  0  0  0
   68.2263   27.5303   55.2900 H   0  0  0  0  0  0  0  0  0  0  0  0
   70.0200   27.6262   55.2900 H   0  0  0  0  0  0  0  0  0  0  0  0
   68.0338   27.2108   52.9249 H   0  0  0  0  0  0  0  0  0  0  0  0
   67.0157   28.3894   53.8080 H   0  0  0  0  0  0  0  0  0  0  0  0
   68.6116   29.0140   51.2680 H   0  0  0  0  0  0  0  0  0  0  0  0
   66.8593   28.6227   51.3048 H   0  0  0  0  0  0  0  0  0  0  0  0
   68.0113   32.9145   51.3188 H   0  0  0  0  0  0  0  0  0  0  0  0
   66.6481   34.3505   49.8394 H   0  0  0  0  0  0  0  0  0  0  0  0
   64.2300   34.4150   48.4620 H   0  0  0  0  0  0  0  0  0  0  0  0
   62.9696   34.2809   46.7046 H   0  0  0  0  0  0  0  0  0  0  0  0
   60.9658   34.7658   45.3166 H   0  0  0  0  0  0  0  0  0  0  0  0
   58.8443   33.9846   43.0965 H   0  0  0  0  0  0  0  0  0  0  0  0
   56.6526   30.4905   41.9302 H   0  0  0  0  0  0  0  0  0  0  0  0
   57.1522   31.4381   46.1130 H   0  0  0  0  0  0  0  0  0  0  0  0
   58.6321   32.0007   47.6452 H   0  0  0  0  0  0  0  0  0  0  0  0
   60.6464   31.5101   49.0355 H   0  0  0  0  0  0  0  0  0  0  0  0
   65.0184   29.8641   51.1768 H   0  0  0  0  0  0  0  0  0  0  0  0
   68.1739   32.0151   53.3404 H   0  0  0  0  0  0  0  0  0  0  0  0
   67.1735   30.7933   54.2324 H   0  0  0  0  0  0  0  0  0  0  0  0
   69.9825   30.4900   53.1571 H   0  0  0  0  0  0  0  0  0  0  0  0
   69.3784   30.4745   54.8931 H   0  0  0  0  0  0  0  0  0  0  0  0
  1  2  1  0
  2  3  1  0
  3  4  1  0
  4  5  1  0
  5  6  1  0
  6  7  2  0
  7  8  1  0
  8  9  2  0
  9 10  1  0
 10 11  1  0
 11 12  1  0
 12 13  2  0
 13 14  1  0
 14 15  2  0
 15 16  1  0
 16 17  1  0
 17 18  2  0
 18 19  1  0
 19 20  1  0
 19 21  2  0
 21 22  1  0
 22 23  1  0
 22 24  2  0
 15 25  1  0
 25 26  2  0
 11 27  2  0
 27 28  1  0
 28 29  2  0
  5 30  1  0
 30 31  1  0
 31  2  1  0
 29  6  1  0
 28  9  1  0
 26 12  1  0
 24 17  1  0
  1 32  1  0
  1 33  1  0
  1 34  1  0
  3 35  1  0
  3 36  1  0
  4 37  1  0
  4 38  1  0
  7 39  1  0
  8 40  1  0
 10 41  1  0
 13 42  1  0
 14 43  1  0
 18 44  1  0
 21 45  1  0
 24 46  1  0
 25 47  1  0
 26 48  1  0
 29 49  1  0
 30 50  1  0
 30 51  1  0
 31 52  1  0
 31 53  1  0
M  END
>  <smiles>  (34) 
CN1CCN(c2ccc3[nH]c(-c4ccc(Oc5cc(F)cc(Cl)c5)cc4)nc3c2)CC1

>  <score_type>  (34) 
oracle

>  <origin>  (34) 
adg

>  <m_score__min__energy>  (34) 
-7.4400000000000004

>  <m_primary>  (34) 
energy

$$$$
34:0
     RDKit          3D

 42 44  0  0  0  0  0  0  0  0999 V2000
   64.9620   32.6460   49.6770 C   0  0  0  0  0  0  0  0  0  0  0  0
   64.4320   33.7800   48.9990 O   0  0  0  0  0  0  0  0  0  0  0  0
   63.1700   33.8160   48.3870 C   0  0  0  0  0  0  0  0  0  0  0  0
   62.0440   34.0090   49.1930 C   0  0  0  0  0  0  0  0  0  0  0  0
   60.7650   34.0390   48.6310 C   0  0  0  0  0  0  0  0  0  0  0  0
   60.5910   33.8900   47.2500 C   0  0  0  0  0  0  0  0  0  0  0  0
   59.2540   33.8800   46.7240 N   0  0  0  0  0  0  0  0  0  0  0  0
   58.4280   32.7450   46.4220 C   0  0  0  0  0  0  0  0  0  0  0  0
   57.2520   32.9570   46.0240 O   0  0  0  0  0  0  0  0  0  0  0  0
   58.9390   31.3540   46.4690 C   0  0  0  0  0  0  0  0  0  0  0  0
   59.5910   30.9040   47.6330 C   0  0  0  0  0  0  0  0  0  0  0  0
   60.0730   29.5960   47.7160 C   0  0  0  0  0  0  0  0  0  0  0  0
   59.9220   28.7230   46.6390 C   0  0  0  0  0  0  0  0  0  0  0  0
   59.2920   29.1580   45.4710 C   0  0  0  0  0  0  0  0  0  0  0  0
   58.8010   30.4670   45.3740 C   0  0  0  0  0  0  0  0  0  0  0  0
   57.9970   30.9560   43.8360 S   0  0  0  0  0  0  0  0  0  0  0  0
   57.1860   29.3480   43.5260 C   0  0  0  0  0  0  0  0  0  0  0  0
   56.2570   29.0440   44.6630 C   0  0  0  0  0  0  0  0  0  0  0  0
   55.2050   29.7220   44.7960 O   0  0  0  0  0  0  0  0  0  0  0  0
   56.6120   28.1020   45.6840 N   0  0  0  0  0  0  0  0  0  0  0  0
   56.4070   26.8200   45.6300 C   0  0  0  0  0  0  0  0  0  0  0  0
   55.2260   26.2680   45.9760 N   0  0  0  0  0  0  0  0  0  0  0  0
   55.2320   24.9180   45.8020 C   0  0  0  0  0  0  0  0  0  0  0  0
   56.4170   24.3910   45.3030 C   0  0  0  0  0  0  0  0  0  0  0  0
   57.4980   25.6590   45.0720 S   0  0  0  0  0  0  0  0  0  0  0  0
   61.7200   33.6830   46.4390 C   0  0  0  0  0  0  0  0  0  0  0  0
   63.0000   33.6600   47.0000 C   0  0  0  0  0  0  0  0  0  0  0  0
   64.8894   32.8014   50.7635 H   0  0  0  0  0  0  0  0  0  0  0  0
   64.3894   31.7499   49.3957 H   0  0  0  0  0  0  0  0  0  0  0  0
   66.0167   32.5105   49.3957 H   0  0  0  0  0  0  0  0  0  0  0  0
   62.1659   34.1383   50.2785 H   0  0  0  0  0  0  0  0  0  0  0  0
   59.8876   34.1809   49.2791 H   0  0  0  0  0  0  0  0  0  0  0  0
   59.7218   31.5885   48.4841 H   0  0  0  0  0  0  0  0  0  0  0  0
   60.5733   29.2532   48.6337 H   0  0  0  0  0  0  0  0  0  0  0  0
   60.2990   27.6920   46.7095 H   0  0  0  0  0  0  0  0  0  0  0  0
   59.1804   28.4684   44.6213 H   0  0  0  0  0  0  0  0  0  0  0  0
   56.6158   29.3973   42.5866 H   0  0  0  0  0  0  0  0  0  0  0  0
   57.9463   28.5572   43.4450 H   0  0  0  0  0  0  0  0  0  0  0  0
   54.3612   24.2893   46.0394 H   0  0  0  0  0  0  0  0  0  0  0  0
   56.6140   23.3289   45.0951 H   0  0  0  0  0  0  0  0  0  0  0  0
   61.5955   33.5381   45.3557 H   0  0  0  0  0  0  0  0  0  0  0  0
   63.8786   33.5192   46.3533 H   0  0  0  0  0  0  0  0  0  0  0  0
  1  2  1  0
  2  3  1  0
  3  4  2  0
  4  5  1  0
  5  6  2  0
  6  7  1  0
  7  8  1  0
  8  9  2  0
  8 10  1  0
 10 11  2  0
 11 12  1  0
 12 13  2  0
 13 14  1  0
 14 15  2  0
 15 16  1  0
 16 17  1  0
 17 18  1  0
 18 19  2  0
 18 20  1  0
 20 21  2  3
 21 22  1  0
 22 23  1  0
 23 24  2  0
 24 25  1  0
  6 26  1  0
 26 27  2  0
 27  3  1  0
 15 10  1  0
 25 21  1  0
  1 28  1  0
  1 29  1  0
  1 30  1  0
  4 31  1  0
  5 32  1  0
 11 33  1  0
 12 34  1  0
 13 35  1  0
 14 36  1  0
 17 37  1  0
 17 38  1  0
 23 39  1  0
 24 40  1  0
 26 41  1  0
 27 42  1  0
M  CHG  2   7  -1  22  -1
M  END
>  <UniqueID>  (35) 
31

>  <SMILES>  (35) 
COc1ccc([N-]C(=O)c2ccccc2SCC(=O)N=c2[n-]ccs2)cc1

>  <Energy>  (35) 
82.391217956195

>  <Genealogy>  (35) 
COc1ccc([N-]C(=O)c2ccccc2SCC(=O)N=c2[n-]ccs2)cc1 (protonated)
COc1ccc([N-]C(=O)c2ccccc2SCC(=O)N=c2[n-]ccs2)cc1 (3D coordinates assigned)
COc1ccc([N-]C(=O)c2ccccc2SCC(=O)N=c2[n-]ccs2)cc1 (optimized conformer: 82.391217956195 kcal/mol)

>  <smiles>  (35) 
COc1ccc(NC(=O)c2ccccc2SCC(=O)N=c2[nH]ccs2)cc1

>  <score_type>  (35) 
oracle

>  <origin>  (35) 
adg

>  <m_score__min__energy>  (35) 
-11.289999999999999

>  <m_primary>  (35) 
energy

$$$$
35:0
     RDKit          3D

 45 47  0  0  0  0  0  0  0  0999 V2000
   61.7550   29.8971   46.8046 H   0  0  0  0  0  0  0  0  0  0  0  0
   60.8450   30.5120   46.7440 C   0  0  0  0  0  0  0  0  0  0  0  0
   59.9820   30.2980   45.7450 C   0  0  0  0  0  0  0  0  0  0  0  0
   60.0526   30.9327   44.8493 H   0  0  0  0  0  0  0  0  0  0  0  0
   58.9370   29.2510   45.7830 C   0  0  0  0  0  0  0  0  0  0  0  0
   59.0420   27.9990   46.3700 C   0  0  0  0  0  0  0  0  0  0  0  0
   59.9202   27.5881   46.8895 H   0  0  0  0  0  0  0  0  0  0  0  0
   57.8290   27.3690   46.1750 C   0  0  0  0  0  0  0  0  0  0  0  0
   57.5538   26.3579   46.5097 H   0  0  0  0  0  0  0  0  0  0  0  0
   57.0290   28.2510   45.4800 C   0  0  0  0  0  0  0  0  0  0  0  0
   55.9938   28.0531   45.1651 H   0  0  0  0  0  0  0  0  0  0  0  0
   57.7050   29.3900   45.2450 N   0  0  0  0  0  0  0  0  0  0  0  0
   57.0830   30.7610   44.3790 S   0  0  0  0  0  0  0  0  0  0  0  0
   57.4240   30.6100   42.9230 O   0  0  0  0  0  0  0  0  0  0  0  0
   55.5880   30.8250   44.5280 O   0  0  0  0  0  0  0  0  0  0  0  0
   57.7820   32.2430   45.0230 C   0  0  0  0  0  0  0  0  0  0  0  0
   57.6120   32.5660   46.3750 C   0  0  0  0  0  0  0  0  0  0  0  0
   57.0220   31.9050   47.0270 H   0  0  0  0  0  0  0  0  0  0  0  0
   58.1900   33.7260   46.8980 C   0  0  0  0  0  0  0  0  0  0  0  0
   58.0576   33.9724   47.9618 H   0  0  0  0  0  0  0  0  0  0  0  0
   58.9380   34.5770   46.0720 C   0  0  0  0  0  0  0  0  0  0  0  0
   59.5310   35.7630   46.6070 N   0  0  0  0  0  0  0  0  0  0  0  0
   58.9740   36.4200   47.1960 H   0  0  0  0  0  0  0  0  0  0  0  0
   60.5320   35.9930   46.4150 H   0  0  0  0  0  0  0  0  0  0  0  0
   59.1010   34.2560   44.7170 C   0  0  0  0  0  0  0  0  0  0  0  0
   59.6851   34.9201   44.0630 H   0  0  0  0  0  0  0  0  0  0  0  0
   58.5240   33.0950   44.1940 C   0  0  0  0  0  0  0  0  0  0  0  0
   58.6527   32.8497   43.1294 H   0  0  0  0  0  0  0  0  0  0  0  0
   60.6110   31.5520   47.7700 C   0  0  0  0  0  0  0  0  0  0  0  0
   59.6890   31.2530   48.7860 C   0  0  0  0  0  0  0  0  0  0  0  0
   59.1816   30.2770   48.7898 H   0  0  0  0  0  0  0  0  0  0  0  0
   59.4090   32.1800   49.7910 C   0  0  0  0  0  0  0  0  0  0  0  0
   58.6737   31.9382   50.5725 H   0  0  0  0  0  0  0  0  0  0  0  0
   60.0600   33.4110   49.8050 C   0  0  0  0  0  0  0  0  0  0  0  0
   59.8320   34.1435   50.5934 H   0  0  0  0  0  0  0  0  0  0  0  0
   61.0000   33.7170   48.8220 C   0  0  0  0  0  0  0  0  0  0  0  0
   61.5156   34.6883   48.8476 H   0  0  0  0  0  0  0  0  0  0  0  0
   61.2980   32.7990   47.7970 C   0  0  0  0  0  0  0  0  0  0  0  0
   62.3850   33.1680   46.8090 C   0  0  0  0  0  0  0  0  0  0  0  0
   62.1877   34.1783   46.4212 H   0  0  0  0  0  0  0  0  0  0  0  0
   62.3776   32.4280   45.9952 H   0  0  0  0  0  0  0  0  0  0  0  0
   63.7660   33.1480   47.4630 C   0  0  0  0  0  0  0  0  0  0  0  0
   63.6536   33.1496   48.5572 H   0  0  0  0  0  0  0  0  0  0  0  0
   64.3062   32.2419   47.1513 H   0  0  0  0  0  0  0  0  0  0  0  0
   64.3323   34.0380   47.1513 H   0  0  0  0  0  0  0  0  0  0  0  0
  1  2  1  0
  2  3  2  0
  3  4  1  0
  3  5  1  0
  5  6  2  0
  6  7  1  0
  6  8  1  0
  8  9  1  0
  8 10  2  0
 10 11  1  0
 10 12  1  0
 12 13  1  0
 13 14  2  0
 13 15  2  0
 13 16  1  0
 16 17  2  0
 17 18  1  0
 17 19  1  0
 19 20  1  0
 19 21  2  0
 21 22  1  0
 22 23  1  0
 22 24  1  0
 21 25  1  0
 25 26  1  0
 25 27  2  0
 27 28  1  0
  2 29  1  0
 29 30  2  0
 30 31  1  0
 30 32  1  0
 32 33  1  0
 32 34  2  0
 34 35  1  0
 34 36  1  0
 36 37  1  0
 36 38  2  0
 38 39  1  0
 39 40  1  0
 39 41  1  0
 39 42  1  0
 42 43  1  0
 42 44  1  0
 42 45  1  0
 12  5  1  0
 27 16  1  0
 38 29  1  0
M  END
>  <UniqueID>  (36) 
32

>  <SMILES>  (36) 
CCc1ccccc1/C=C/c1cccn1S(=O)(=O)c1ccc(N)cc1

>  <Energy>  (36) 
76.93677727211299

>  <Genealogy>  (36) 
CCc1ccccc1/C=C/c1cccn1S(=O)(=O)c1ccc(N)cc1 (cis-trans isomerization)
CCc1ccccc1/C=C/c1cccn1S(=O)(=O)c1ccc(N)cc1 (3D coordinates assigned)
CCc1ccccc1/C=C/c1cccn1S(=O)(=O)c1ccc(N)cc1 (optimized conformer: 76.93677727211299 kcal/mol)

>  <smiles>  (36) 
CCc1ccccc1C=Cc1cccn1S(=O)(=O)c1ccc(N)cc1

>  <score_type>  (36) 
oracle

>  <origin>  (36) 
adg

>  <m_score__min__energy>  (36) 
-8.2899999999999991

>  <m_primary>  (36) 
energy

$$$$
36:0
     RDKit          3D

 59 61  0  0  0  0  0  0  0  0999 V2000
   63.0880   30.2080   51.1020 C   0  0  0  0  0  0  0  0  0  0  0  0
   64.1760   31.1920   50.7650 C   0  0  0  0  0  0  0  0  0  0  0  0
   65.4170   31.0970   51.4180 C   0  0  0  0  0  0  0  0  0  0  0  0
   66.4450   31.9950   51.1210 C   0  0  0  0  0  0  0  0  0  0  0  0
   66.2500   32.9880   50.1630 C   0  0  0  0  0  0  0  0  0  0  0  0
   65.0270   33.0900   49.4990 C   0  0  0  0  0  0  0  0  0  0  0  0
   63.9760   32.2020   49.7940 C   0  0  0  0  0  0  0  0  0  0  0  0
   62.7310   32.2920   49.0750 N   0  0  0  0  0  0  0  0  0  0  0  0
   62.6330   32.1720   47.6460 C   0  0  0  0  0  0  0  0  0  0  0  0
   63.6520   32.3480   46.9260 O   0  0  0  0  0  0  0  0  0  0  0  0
   61.3680   31.9520   47.0120 N   0  0  0  0  0  0  0  0  0  0  0  0
   60.6010   30.7400   47.0630 C   0  0  0  0  0  0  0  0  0  0  0  0
   60.6980   29.8360   45.9990 C   0  0  0  0  0  0  0  0  0  0  0  0
   59.9820   28.6340   46.0230 C   0  0  0  0  0  0  0  0  0  0  0  0
   59.1800   28.3110   47.1280 C   0  0  0  0  0  0  0  0  0  0  0  0
   58.3780   27.0370   47.1390 C   0  0  0  0  0  0  0  0  0  0  0  0
   57.7580   26.7790   45.7640 C   0  0  0  0  0  0  0  0  0  0  0  0
   56.8320   27.8690   45.4220 N   0  0  0  0  0  0  0  0  0  0  0  0
   57.2990   28.6330   44.2530 C   0  0  0  0  0  0  0  0  0  0  0  0
   56.2690   29.7130   43.8760 C   0  0  1  0  0  0  0  0  0  0  0  0
   55.1730   29.6900   44.7550 O   0  0  0  0  0  0  0  0  0  0  0  0
   56.9010   31.1190   43.8560 C   0  0  0  0  0  0  0  0  0  0  0  0
   56.8140   31.7460   45.1370 O   0  0  0  0  0  0  0  0  0  0  0  0
   57.6800   32.7400   45.6220 C   0  0  0  0  0  0  0  0  0  0  0  0
   58.3640   33.5310   44.6900 C   0  0  0  0  0  0  0  0  0  0  0  0
   59.2400   34.5340   45.1170 C   0  0  0  0  0  0  0  0  0  0  0  0
   59.4420   34.7530   46.4820 C   0  0  0  0  0  0  0  0  0  0  0  0
   58.7680   33.9680   47.4220 C   0  0  0  0  0  0  0  0  0  0  0  0
   57.8920   32.9640   46.9980 C   0  0  0  0  0  0  0  0  0  0  0  0
   59.0930   29.2110   48.2020 C   0  0  0  0  0  0  0  0  0  0  0  0
   59.8100   30.4110   48.1770 C   0  0  0  0  0  0  0  0  0  0  0  0
   62.9952   30.1240   52.1949 H   0  0  0  0  0  0  0  0  0  0  0  0
   62.1344   30.5565   50.6787 H   0  0  0  0  0  0  0  0  0  0  0  0
   63.3393   29.2243   50.6787 H   0  0  0  0  0  0  0  0  0  0  0  0
   65.5800   30.3096   52.1686 H   0  0  0  0  0  0  0  0  0  0  0  0
   67.4096   31.9182   51.6440 H   0  0  0  0  0  0  0  0  0  0  0  0
   67.0617   33.6928   49.9298 H   0  0  0  0  0  0  0  0  0  0  0  0
   64.8832   33.8714   48.7383 H   0  0  0  0  0  0  0  0  0  0  0  0
   61.8590   32.5180   49.6030 H   0  0  0  0  0  0  0  0  0  0  0  0
   61.3412   30.0719   45.1384 H   0  0  0  0  0  0  0  0  0  0  0  0
   60.0482   27.9397   45.1723 H   0  0  0  0  0  0  0  0  0  0  0  0
   59.0377   26.1968   47.4015 H   0  0  0  0  0  0  0  0  0  0  0  0
   57.5705   27.1327   47.8798 H   0  0  0  0  0  0  0  0  0  0  0  0
   58.5553   26.7266   45.0080 H   0  0  0  0  0  0  0  0  0  0  0  0
   57.2060   25.8278   45.7875 H   0  0  0  0  0  0  0  0  0  0  0  0
   55.9100   27.4350   45.1810 H   0  0  0  0  0  0  0  0  0  0  0  0
   58.2584   29.1144   44.4935 H   0  0  0  0  0  0  0  0  0  0  0  0
   57.4253   27.9461   43.4032 H   0  0  0  0  0  0  0  0  0  0  0  0
   55.9147   29.4832   42.8603 H   0  0  0  0  0  0  0  0  0  0  0  0
   55.4690   30.0920   45.6150 H   0  0  0  0  0  0  0  0  0  0  0  0
   57.9599   31.0318   43.5710 H   0  0  0  0  0  0  0  0  0  0  0  0
   56.3518   31.7360   43.1296 H   0  0  0  0  0  0  0  0  0  0  0  0
   58.2109   33.3619   43.6139 H   0  0  0  0  0  0  0  0  0  0  0  0
   59.7707   35.1513   44.3772 H   0  0  0  0  0  0  0  0  0  0  0  0
   60.1309   35.5425   46.8168 H   0  0  0  0  0  0  0  0  0  0  0  0
   58.9270   34.1403   48.4967 H   0  0  0  0  0  0  0  0  0  0  0  0
   57.3661   32.3463   47.7409 H   0  0  0  0  0  0  0  0  0  0  0  0
   58.4577   28.9709   49.0673 H   0  0  0  0  0  0  0  0  0  0  0  0
   59.7548   31.1002   49.0325 H   0  0  0  0  0  0  0  0  0  0  0  0
  1  2  1  0
  2  3  2  0
  3  4  1  0
  4  5  2  0
  5  6  1  0
  6  7  2  0
  7  8  1  0
  8  9  1  0
  9 10  2  0
  9 11  1  0
 11 12  1  0
 12 13  2  0
 13 14  1  0
 14 15  2  0
 15 16  1  0
 16 17  1  0
 17 18  1  0
 18 19  1  0
 19 20  1  0
 20 21  1  0
 20 22  1  0
 22 23  1  0
 23 24  1  0
 24 25  2  0
 25 26  1  0
 26 27  2  0
 27 28  1  0
 28 29  2  0
 15 30  1  0
 30 31  2  0
  7  2  1  0
 31 12  1  0
 29 24  1  0
  1 32  1  0
  1 33  1  0
  1 34  1  0
  3 35  1  0
  4 36  1  0
  5 37  1  0
  6 38  1  0
  8 39  1  0
 13 40  1  0
 14 41  1  0
 16 42  1  0
 16 43  1  0
 17 44  1  0
 17 45  1  0
 18 46  1  0
 19 47  1  0
 19 48  1  0
 20 49  1  6
 21 50  1  0
 22 51  1  0
 22 52  1  0
 25 53  1  0
 26 54  1  0
 27 55  1  0
 28 56  1  0
 29 57  1  0
 30 58  1  0
 31 59  1  0
M  CHG  1  11  -1
M  END
>  <UniqueID>  (37) 
33

>  <SMILES>  (37) 
Cc1ccccc1NC(=O)[N-]c1ccc(CCNC[C@@H](O)COc2ccccc2)cc1

>  <Energy>  (37) 
64.26544130986619

>  <Genealogy>  (37) 
Cc1ccccc1NC(=O)[N-]c1ccc(CCNCC(O)COc2ccccc2)cc1 (protonated)
Cc1ccccc1NC(=O)[N-]c1ccc(CCNC[C@@H](O)COc2ccccc2)cc1 (chirality)
Cc1ccccc1NC(=O)[N-]c1ccc(CCNC[C@@H](O)COc2ccccc2)cc1 (3D coordinates assigned)
Cc1ccccc1NC(=O)[N-]c1ccc(CCNC[C@@H](O)COc2ccccc2)cc1 (optimized conformer: 64.26544130986619 kcal/mol)

>  <smiles>  (37) 
Cc1ccccc1NC(=O)Nc1ccc(CCNCC(O)COc2ccccc2)cc1

>  <score_type>  (37) 
oracle

>  <origin>  (37) 
adg

>  <m_score__min__energy>  (37) 
-10.41

>  <m_primary>  (37) 
energy

$$$$
37:0
     RDKit          3D

 41 43  0  0  0  0  0  0  0  0999 V2000
   59.9017   31.8179   45.0991 H   0  0  0  0  0  0  0  0  0  0  0  0
   58.9890   32.1630   45.6070 C   0  0  0  0  0  0  0  0  0  0  0  0
   57.7870   32.4030   44.7660 C   0  0  0  0  0  0  0  0  0  0  0  0
   57.7640   33.3550   43.9430 O   0  0  0  0  0  0  0  0  0  0  0  0
   56.6200   31.5800   44.8770 N   0  0  0  0  0  0  0  0  0  0  0  0
   56.5180   29.9240   44.3740 S   0  0  0  0  0  0  0  0  0  0  0  0
   55.2210   29.3420   44.8590 O   0  0  0  0  0  0  0  0  0  0  0  0
   56.5470   29.8660   42.8710 O   0  0  0  0  0  0  0  0  0  0  0  0
   57.8510   28.9980   45.0560 C   0  0  0  0  0  0  0  0  0  0  0  0
   59.1560   29.1970   44.5830 C   0  0  0  0  0  0  0  0  0  0  0  0
   59.3463   29.9374   43.7920 H   0  0  0  0  0  0  0  0  0  0  0  0
   60.2160   28.4560   45.1150 C   0  0  0  0  0  0  0  0  0  0  0  0
   61.2383   28.6121   44.7402 H   0  0  0  0  0  0  0  0  0  0  0  0
   59.9770   27.5160   46.1240 C   0  0  0  0  0  0  0  0  0  0  0  0
   61.0060   26.8000   46.6410 F   0  0  0  0  0  0  0  0  0  0  0  0
   58.6780   27.3190   46.6010 C   0  0  0  0  0  0  0  0  0  0  0  0
   58.4906   26.5823   47.3960 H   0  0  0  0  0  0  0  0  0  0  0  0
   57.6170   28.0570   46.0690 C   0  0  0  0  0  0  0  0  0  0  0  0
   56.5957   27.8993   46.4459 H   0  0  0  0  0  0  0  0  0  0  0  0
   59.0490   32.3340   46.9370 C   0  0  0  0  0  0  0  0  0  0  0  0
   58.5908   33.2400   47.3604 H   0  0  0  0  0  0  0  0  0  0  0  0
   59.6880   31.3880   47.8650 C   0  0  0  0  0  0  0  0  0  0  0  0
   58.8940   30.3970   48.4610 C   0  0  0  0  0  0  0  0  0  0  0  0
   57.8198   30.3456   48.2298 H   0  0  0  0  0  0  0  0  0  0  0  0
   59.4570   29.4760   49.3450 C   0  0  0  0  0  0  0  0  0  0  0  0
   58.8254   28.7068   49.8135 H   0  0  0  0  0  0  0  0  0  0  0  0
   60.8200   29.5300   49.6350 C   0  0  0  0  0  0  0  0  0  0  0  0
   61.2618   28.8054   50.3348 H   0  0  0  0  0  0  0  0  0  0  0  0
   61.6250   30.5030   49.0380 C   0  0  0  0  0  0  0  0  0  0  0  0
   62.7002   30.5371   49.2679 H   0  0  0  0  0  0  0  0  0  0  0  0
   61.0740   31.4380   48.1470 C   0  0  0  0  0  0  0  0  0  0  0  0
   61.9380   32.4090   47.5420 N   0  0  0  0  0  0  0  0  0  0  0  0
   61.8680   33.7460   46.9190 C   0  0  0  0  0  0  0  0  0  0  0  0
   61.2312   33.7631   46.0222 H   0  0  0  0  0  0  0  0  0  0  0  0
   61.4314   34.5559   47.5219 H   0  0  0  0  0  0  0  0  0  0  0  0
   63.3200   33.8500   46.5950 C   0  0  0  0  0  0  0  0  0  0  0  0
   63.5665   33.8786   45.5234 H   0  0  0  0  0  0  0  0  0  0  0  0
   63.9562   34.6976   46.8895 H   0  0  0  0  0  0  0  0  0  0  0  0
   63.3780   32.5040   47.2330 C   0  0  0  0  0  0  0  0  0  0  0  0
   63.7150   31.7202   46.5387 H   0  0  0  0  0  0  0  0  0  0  0  0
   64.0777   32.3795   48.0726 H   0  0  0  0  0  0  0  0  0  0  0  0
  1  2  1  0
  2  3  1  0
  3  4  2  0
  3  5  1  0
  5  6  1  0
  6  7  2  0
  6  8  2  0
  6  9  1  0
  9 10  2  0
 10 11  1  0
 10 12  1  0
 12 13  1  0
 12 14  2  0
 14 15  1  0
 14 16  1  0
 16 17  1  0
 16 18  2  0
 18 19  1  0
  2 20  2  0
 20 21  1  0
 20 22  1  0
 22 23  2  0
 23 24  1  0
 23 25  1  0
 25 26  1  0
 25 27  2  0
 27 28  1  0
 27 29  1  0
 29 30  1  0
 29 31  2  0
 31 32  1  0
 32 33  1  0
 33 34  1  0
 33 35  1  0
 33 36  1  0
 36 37  1  0
 36 38  1  0
 36 39  1  0
 39 40  1  0
 39 41  1  0
 18  9  1  0
 31 22  1  0
 39 32  1  0
M  CHG  1   5  -1
M  END
>  <UniqueID>  (38) 
34

>  <SMILES>  (38) 
O=C(/C=C\c1ccccc1N1CCC1)[N-]S(=O)(=O)c1ccc(F)cc1

>  <Energy>  (38) 
97.69540444368205

>  <Genealogy>  (38) 
O=C(C=Cc1ccccc1N1CCC1)[N-]S(=O)(=O)c1ccc(F)cc1 (protonated)
O=C(/C=C\c1ccccc1N1CCC1)[N-]S(=O)(=O)c1ccc(F)cc1 (cis-trans isomerization)
O=C(/C=C\c1ccccc1N1CCC1)[N-]S(=O)(=O)c1ccc(F)cc1 (3D coordinates assigned)
O=C(/C=C\c1ccccc1N1CCC1)[N-]S(=O)(=O)c1ccc(F)cc1 (nonaromatic ring conformer: 97.69540444368205 kcal/mol)

>  <smiles>  (38) 
O=C(C=Cc1ccccc1N1CCC1)NS(=O)(=O)c1ccc(F)cc1

>  <score_type>  (38) 
oracle

>  <origin>  (38) 
adg

>  <m_score__min__energy>  (38) 
-9.4900000000000002

>  <m_primary>  (38) 
energy

$$$$
38:0
     RDKit          3D

 43 45  0  0  0  0  0  0  0  0999 V2000
   57.6670   34.0270   45.5230 S   0  0  0  0  0  0  0  0  0  0  0  0
   58.9160   33.3970   46.3820 C   0  0  0  0  0  0  0  0  0  0  0  0
   59.8390   34.3100   46.9990 N   0  0  0  0  0  0  0  0  0  0  0  0
   61.1750   33.9420   47.3780 C   0  0  0  0  0  0  0  0  0  0  0  0
   62.1810   33.8310   46.4070 C   0  0  0  0  0  0  0  0  0  0  0  0
   63.4810   33.4630   46.7680 C   0  0  0  0  0  0  0  0  0  0  0  0
   63.7890   33.2140   48.1070 C   0  0  0  0  0  0  0  0  0  0  0  0
   62.8000   33.3440   49.0880 C   0  0  0  0  0  0  0  0  0  0  0  0
   61.4960   33.7110   48.7310 C   0  0  0  0  0  0  0  0  0  0  0  0
   60.2670   33.8350   49.9880 Cl  0  0  0  0  0  0  0  0  0  0  0  0
   58.9080   31.9930   46.7260 N   0  0  0  0  0  0  0  0  0  0  0  0
   58.5230   31.5560   48.0830 C   0  0  0  0  0  0  0  0  0  0  0  0
   59.3200   30.3530   48.5040 C   0  0  0  0  0  0  0  0  0  0  0  0
   58.9250   29.0630   48.1100 C   0  0  0  0  0  0  0  0  0  0  0  0
   59.6520   27.9470   48.5320 C   0  0  0  0  0  0  0  0  0  0  0  0
   60.7650   28.1080   49.3620 C   0  0  0  0  0  0  0  0  0  0  0  0
   61.1630   29.3870   49.7620 C   0  0  0  0  0  0  0  0  0  0  0  0
   60.4510   30.5090   49.3240 C   0  0  0  0  0  0  0  0  0  0  0  0
   59.2530   30.9850   45.7060 C   0  0  0  0  0  0  0  0  0  0  0  0
   58.0330   30.5430   44.9380 C   0  0  0  0  0  0  0  0  0  0  0  0
   57.7940   31.0260   43.6440 C   0  0  0  0  0  0  0  0  0  0  0  0
   56.6550   30.6170   42.9440 C   0  0  0  0  0  0  0  0  0  0  0  0
   55.7610   29.7320   43.5480 C   0  0  0  0  0  0  0  0  0  0  0  0
   56.0040   29.2740   44.8050 N   0  0  0  0  0  0  0  0  0  0  0  0
   57.1060   29.6570   45.5080 C   0  0  0  0  0  0  0  0  0  0  0  0
   59.5680   35.3170   47.0770 H   0  0  0  0  0  0  0  0  0  0  0  0
   61.9453   34.0352   45.3521 H   0  0  0  0  0  0  0  0  0  0  0  0
   64.2605   33.3697   45.9975 H   0  0  0  0  0  0  0  0  0  0  0  0
   64.8091   32.9157   48.3905 H   0  0  0  0  0  0  0  0  0  0  0  0
   63.0472   33.1574   50.1435 H   0  0  0  0  0  0  0  0  0  0  0  0
   58.7076   32.3767   48.7918 H   0  0  0  0  0  0  0  0  0  0  0  0
   57.4564   31.2871   48.0769 H   0  0  0  0  0  0  0  0  0  0  0  0
   58.0415   28.9317   47.4680 H   0  0  0  0  0  0  0  0  0  0  0  0
   59.3479   26.9399   48.2105 H   0  0  0  0  0  0  0  0  0  0  0  0
   61.3289   27.2265   49.7011 H   0  0  0  0  0  0  0  0  0  0  0  0
   62.0353   29.5112   50.4206 H   0  0  0  0  0  0  0  0  0  0  0  0
   60.7773   31.5163   49.6223 H   0  0  0  0  0  0  0  0  0  0  0  0
   59.9801   31.4196   45.0043 H   0  0  0  0  0  0  0  0  0  0  0  0
   59.6795   30.1080   46.2149 H   0  0  0  0  0  0  0  0  0  0  0  0
   58.5028   31.7271   43.1792 H   0  0  0  0  0  0  0  0  0  0  0  0
   56.4653   30.9894   41.9265 H   0  0  0  0  0  0  0  0  0  0  0  0
   54.8604   29.4051   43.0076 H   0  0  0  0  0  0  0  0  0  0  0  0
   57.2697   29.2709   46.5249 H   0  0  0  0  0  0  0  0  0  0  0  0
  1  2  2  0
  2  3  1  0
  3  4  1  0
  4  5  2  0
  5  6  1  0
  6  7  2  0
  7  8  1  0
  8  9  2  0
  9 10  1  0
  2 11  1  0
 11 12  1  0
 12 13  1  0
 13 14  2  0
 14 15  1  0
 15 16  2  0
 16 17  1  0
 17 18  2  0
 11 19  1  0
 19 20  1  0
 20 21  2  0
 21 22  1  0
 22 23  2  0
 23 24  1  0
 24 25  2  0
  9  4  1  0
 18 13  1  0
 25 20  1  0
  3 26  1  0
  5 27  1  0
  6 28  1  0
  7 29  1  0
  8 30  1  0
 12 31  1  0
 12 32  1  0
 14 33  1  0
 15 34  1  0
 16 35  1  0
 17 36  1  0
 18 37  1  0
 19 38  1  0
 19 39  1  0
 21 40  1  0
 22 41  1  0
 23 42  1  0
 25 43  1  0
M  END
>  <UniqueID>  (39) 
35

>  <SMILES>  (39) 
S=C(Nc1ccccc1Cl)N(Cc1ccccc1)Cc1cccnc1

>  <Energy>  (39) 
51.41397958098262

>  <Genealogy>  (39) 
S=C(Nc1ccccc1Cl)N(Cc1ccccc1)Cc1cccnc1 (3D coordinates assigned)
S=C(Nc1ccccc1Cl)N(Cc1ccccc1)Cc1cccnc1 (optimized conformer: 51.41397958098262 kcal/mol)

>  <smiles>  (39) 
S=C(Nc1ccccc1Cl)N(Cc1ccccc1)Cc1cccnc1

>  <score_type>  (39) 
oracle

>  <origin>  (39) 
adg

>  <m_score__min__energy>  (39) 
-7.9400000000000004

>  <m_primary>  (39) 
energy

$$$$
39:0
     RDKit          3D

 29 30  0  0  0  0  0  0  0  0999 V2000
   60.7880   26.4030   46.6150 C   0  0  0  0  0  0  0  0  0  0  0  0
   59.7310   27.2940   46.0350 C   0  0  0  0  0  0  0  0  0  0  0  0
   58.3860   27.1280   46.4020 C   0  0  0  0  0  0  0  0  0  0  0  0
   57.3960   27.9340   45.8350 C   0  0  0  0  0  0  0  0  0  0  0  0
   57.7370   28.9080   44.8870 C   0  0  0  0  0  0  0  0  0  0  0  0
   56.4860   29.9310   44.1870 S   0  0  0  0  0  0  0  0  0  0  0  0
   55.1420   29.3390   44.5000 O   0  0  0  0  0  0  0  0  0  0  0  0
   56.6480   30.0200   42.6950 O   0  0  0  0  0  0  0  0  0  0  0  0
   56.5750   31.5260   44.8620 N   0  0  0  0  0  0  0  0  0  0  0  0
   57.6590   32.0280   45.6570 C   0  0  0  0  0  0  0  0  0  0  0  0
   58.3010   31.2400   46.6290 C   0  0  0  0  0  0  0  0  0  0  0  0
   59.3470   31.7740   47.3910 C   0  0  0  0  0  0  0  0  0  0  0  0
   60.1390   30.7880   48.6070 Cl  0  0  0  0  0  0  0  0  0  0  0  0
   59.7600   33.0940   47.1850 C   0  0  0  0  0  0  0  0  0  0  0  0
   59.1290   33.8800   46.2150 C   0  0  0  0  0  0  0  0  0  0  0  0
   59.6480   35.5360   45.9560 Cl  0  0  0  0  0  0  0  0  0  0  0  0
   58.0830   33.3480   45.4550 C   0  0  0  0  0  0  0  0  0  0  0  0
   59.0750   29.0590   44.5000 C   0  0  0  0  0  0  0  0  0  0  0  0
   60.0670   28.2530   45.0670 C   0  0  0  0  0  0  0  0  0  0  0  0
   60.7397   26.4437   47.7132 H   0  0  0  0  0  0  0  0  0  0  0  0
   60.6210   25.3691   46.2787 H   0  0  0  0  0  0  0  0  0  0  0  0
   61.7788   26.7425   46.2787 H   0  0  0  0  0  0  0  0  0  0  0  0
   58.1106   26.3597   47.1394 H   0  0  0  0  0  0  0  0  0  0  0  0
   56.3454   27.8037   46.1336 H   0  0  0  0  0  0  0  0  0  0  0  0
   57.9801   30.2004   46.7911 H   0  0  0  0  0  0  0  0  0  0  0  0
   60.5805   33.5140   47.7853 H   0  0  0  0  0  0  0  0  0  0  0  0
   57.5897   33.9699   44.6935 H   0  0  0  0  0  0  0  0  0  0  0  0
   59.3461   29.8142   43.7475 H   0  0  0  0  0  0  0  0  0  0  0  0
   61.1147   28.3710   44.7532 H   0  0  0  0  0  0  0  0  0  0  0  0
  1  2  1  0
  2  3  2  0
  3  4  1  0
  4  5  2  0
  5  6  1  0
  6  7  2  0
  6  8  2  0
  6  9  1  0
  9 10  1  0
 10 11  2  0
 11 12  1  0
 12 13  1  0
 12 14  2  0
 14 15  1  0
 15 16  1  0
 15 17  2  0
  5 18  1  0
 18 19  2  0
 19  2  1  0
 17 10  1  0
  1 20  1  0
  1 21  1  0
  1 22  1  0
  3 23  1  0
  4 24  1  0
 11 25  1  0
 14 26  1  0
 17 27  1  0
 18 28  1  0
 19 29  1  0
M  CHG  1   9  -1
M  END
>  <UniqueID>  (40) 
36

>  <SMILES>  (40) 
Cc1ccc(S(=O)(=O)[N-]c2cc(Cl)cc(Cl)c2)cc1

>  <Energy>  (40) 
31.379518725132524

>  <Genealogy>  (40) 
Cc1ccc(S(=O)(=O)[N-]c2cc(Cl)cc(Cl)c2)cc1 (protonated)
Cc1ccc(S(=O)(=O)[N-]c2cc(Cl)cc(Cl)c2)cc1 (3D coordinates assigned)
Cc1ccc(S(=O)(=O)[N-]c2cc(Cl)cc(Cl)c2)cc1 (optimized conformer: 31.379518725132524 kcal/mol)

>  <smiles>  (40) 
Cc1ccc(S(=O)(=O)Nc2cc(Cl)cc(Cl)c2)cc1

>  <score_type>  (40) 
oracle

>  <origin>  (40) 
adg

>  <m_score__min__energy>  (40) 
-9.0500000000000007

>  <m_primary>  (40) 
energy

$$$$
40:0
     RDKit          3D

 57 60  0  0  0  0  0  0  0  0999 V2000
   55.0270   19.0030   44.4470 N   0  0  0  0  0  0  0  0  0  0  0  0
   55.5800   19.9590   45.0960 C   0  0  0  0  0  0  0  0  0  0  0  0
   54.7620   20.7080   45.8850 N   0  0  0  0  0  0  0  0  0  0  0  0
   55.2770   21.7290   46.5950 C   0  0  0  0  0  0  0  0  0  0  0  0
   56.6240   22.0610   46.5630 C   0  0  0  0  0  0  0  0  0  0  0  0
   57.0760   23.1950   47.3730 C   0  0  0  0  0  0  0  0  0  0  0  0
   57.2700   24.3780   46.5020 C   0  0  0  0  0  0  0  0  0  0  0  0
   57.2340   24.3370   45.1270 C   0  0  0  0  0  0  0  0  0  0  0  0
   57.4200   25.5010   44.3770 C   0  0  0  0  0  0  0  0  0  0  0  0
   57.6470   26.7280   44.9660 C   0  0  0  0  0  0  0  0  0  0  0  0
   57.8450   27.9580   44.2110 C   0  0  0  0  0  0  0  0  0  0  0  0
   59.0110   28.2160   43.8020 O   0  0  0  0  0  0  0  0  0  0  0  0
   56.8110   28.8770   43.9110 N   0  0  0  0  0  0  0  0  0  0  0  0
   56.9900   30.1010   43.1630 C   0  0  0  0  0  0  0  0  0  0  0  0
   57.5910   31.1670   43.9660 C   0  0  0  0  0  0  0  0  0  0  0  0
   57.9720   32.4030   43.5000 C   0  0  0  0  0  0  0  0  0  0  0  0
   58.5290   33.3790   44.3020 C   0  0  0  0  0  0  0  0  0  0  0  0
   58.7180   33.1070   45.6400 C   0  0  0  0  0  0  0  0  0  0  0  0
   59.4300   34.3660   46.6450 S   0  0  0  0  0  0  0  0  0  0  0  0
   58.5470   34.6280   47.8170 O   0  0  0  0  0  0  0  0  0  0  0  0
   59.6180   35.6240   45.8530 O   0  0  0  0  0  0  0  0  0  0  0  0
   61.0060   33.8570   47.2100 C   0  0  0  0  0  0  0  0  0  0  0  0
   61.1230   33.6040   48.5720 C   0  0  0  0  0  0  0  0  0  0  0  0
   62.3070   33.1960   49.1490 C   0  0  0  0  0  0  0  0  0  0  0  0
   63.4100   33.0420   48.3050 C   0  0  0  0  0  0  0  0  0  0  0  0
   63.2950   33.2970   46.9400 C   0  0  0  0  0  0  0  0  0  0  0  0
   62.0920   33.7070   46.3750 C   0  0  0  0  0  0  0  0  0  0  0  0
   58.3500   31.8800   46.1530 C   0  0  0  0  0  0  0  0  0  0  0  0
   57.7980   30.9320   45.3210 C   0  0  0  0  0  0  0  0  0  0  0  0
   57.6780   26.7420   46.3520 C   0  0  0  0  0  0  0  0  0  0  0  0
   57.4950   25.5980   47.1040 C   0  0  0  0  0  0  0  0  0  0  0  0
   57.4250   21.2860   45.7590 C   0  0  0  0  0  0  0  0  0  0  0  0
   58.6800   21.5340   45.6830 N   0  0  0  0  0  0  0  0  0  0  0  0
   56.8850   20.2610   45.0490 N   0  0  0  0  0  0  0  0  0  0  0  0
   54.4000   19.2230   43.6460 H   0  0  0  0  0  0  0  0  0  0  0  0
   53.7460   20.5330   45.9690 H   0  0  0  0  0  0  0  0  0  0  0  0
   54.6021   22.3250   47.2269 H   0  0  0  0  0  0  0  0  0  0  0  0
   56.3198   23.4233   48.1385 H   0  0  0  0  0  0  0  0  0  0  0  0
   58.0276   22.9399   47.8623 H   0  0  0  0  0  0  0  0  0  0  0  0
   57.0574   23.3800   44.6142 H   0  0  0  0  0  0  0  0  0  0  0  0
   57.3843   25.4371   43.2794 H   0  0  0  0  0  0  0  0  0  0  0  0
   55.8480   28.6140   44.2790 H   0  0  0  0  0  0  0  0  0  0  0  0
   57.6442   29.8960   42.3028 H   0  0  0  0  0  0  0  0  0  0  0  0
   55.9955   30.4448   42.8425 H   0  0  0  0  0  0  0  0  0  0  0  0
   57.8255   32.6259   42.4328 H   0  0  0  0  0  0  0  0  0  0  0  0
   58.8162   34.3541   43.8817 H   0  0  0  0  0  0  0  0  0  0  0  0
   60.2385   33.7341   49.2129 H   0  0  0  0  0  0  0  0  0  0  0  0
   62.3802   32.9999   50.2289 H   0  0  0  0  0  0  0  0  0  0  0  0
   64.3752   32.7174   48.7209 H   0  0  0  0  0  0  0  0  0  0  0  0
   64.1764   33.1711   46.2940 H   0  0  0  0  0  0  0  0  0  0  0  0
   62.0101   33.9052   45.2961 H   0  0  0  0  0  0  0  0  0  0  0  0
   58.4969   31.6605   47.2208 H   0  0  0  0  0  0  0  0  0  0  0  0
   57.5114   29.9569   45.7418 H   0  0  0  0  0  0  0  0  0  0  0  0
   57.8543   27.6962   46.8701 H   0  0  0  0  0  0  0  0  0  0  0  0
   57.5293   25.6612   48.2016 H   0  0  0  0  0  0  0  0  0  0  0  0
   59.3950   20.9390   45.2480 H   0  0  0  0  0  0  0  0  0  0  0  0
   57.4850   19.6590   44.4290 H   0  0  0  0  0  0  0  0  0  0  0  0
  1  2  2  3
  2  3  1  0
  3  4  1  0
  4  5  2  0
  5  6  1  0
  6  7  1  0
  7  8  2  0
  8  9  1  0
  9 10  2  0
 10 11  1  0
 11 12  2  0
 11 13  1  0
 13 14  1  0
 14 15  1  0
 15 16  2  0
 16 17  1  0
 17 18  2  0
 18 19  1  0
 19 20  2  0
 19 21  2  0
 19 22  1  0
 22 23  2  0
 23 24  1  0
 24 25  2  0
 25 26  1  0
 26 27  2  0
 18 28  1  0
 28 29  2  0
 10 30  1  0
 30 31  2  0
  5 32  1  0
 32 33  2  3
 32 34  1  0
 34  2  1  0
 31  7  1  0
 29 15  1  0
 27 22  1  0
  1 35  1  0
  3 36  1  0
  4 37  1  0
  6 38  1  0
  6 39  1  0
  8 40  1  0
  9 41  1  0
 13 42  1  0
 14 43  1  0
 14 44  1  0
 16 45  1  0
 17 46  1  0
 23 47  1  0
 24 48  1  0
 25 49  1  0
 26 50  1  0
 27 51  1  0
 28 52  1  0
 29 53  1  0
 30 54  1  0
 31 55  1  0
 33 56  1  0
 34 57  1  0
M  END
>  <smiles>  (41) 
N=c1[nH]cc(Cc2ccc(C(=O)NCc3ccc(S(=O)(=O)c4ccccc4)cc3)cc2)c(=N)[nH]1

>  <score_type>  (41) 
oracle

>  <origin>  (41) 
adg

>  <m_score__min__energy>  (41) 
-10.27

>  <m_primary>  (41) 
energy

$$$$
41:0
     RDKit          3D

 41 43  0  0  0  0  0  0  0  0999 V2000
   57.6430   27.9980   46.7300 C   0  0  0  0  0  0  0  0  0  0  0  0
   57.7850   27.3300   45.4360 N   0  0  0  0  0  0  0  0  0  0  0  0
   57.2750   25.9870   45.3230 C   0  0  0  0  0  0  0  0  0  0  0  0
   58.1360   24.9330   44.9830 C   0  0  0  0  0  0  0  0  0  0  0  0
   57.6400   23.6320   44.8490 C   0  0  0  0  0  0  0  0  0  0  0  0
   56.2870   23.3720   45.0760 C   0  0  0  0  0  0  0  0  0  0  0  0
   55.4320   24.4070   45.4620 C   0  0  0  0  0  0  0  0  0  0  0  0
   55.9240   25.7100   45.6030 C   0  0  0  0  0  0  0  0  0  0  0  0
   55.0730   26.7180   46.0400 O   0  0  0  0  0  0  0  0  0  0  0  0
   58.4440   28.0370   44.3120 C   0  0  1  0  0  0  0  0  0  0  0  0
   57.4680   28.2440   43.1360 C   0  0  0  0  0  0  0  0  0  0  0  0
   56.4670   29.3750   43.4000 C   0  0  0  0  0  0  0  0  0  0  0  0
   57.1850   30.7000   43.6790 C   0  0  0  0  0  0  0  0  0  0  0  0
   58.2100   30.5420   44.7160 N   0  0  0  0  0  0  0  0  0  0  0  0
   58.4750   31.6230   45.6240 C   0  0  0  0  0  0  0  0  0  0  0  0
   57.9470   32.8950   45.3640 C   0  0  0  0  0  0  0  0  0  0  0  0
   58.1840   33.9330   46.2650 C   0  0  0  0  0  0  0  0  0  0  0  0
   58.9480   33.6980   47.4080 C   0  0  0  0  0  0  0  0  0  0  0  0
   59.4660   32.4210   47.6330 C   0  0  0  0  0  0  0  0  0  0  0  0
   59.2240   31.4170   46.7470 N   0  0  0  0  0  0  0  0  0  0  0  0
   59.0320   29.3630   44.7300 C   0  0  0  0  0  0  0  0  0  0  0  0
   60.2180   29.4120   45.1550 O   0  0  0  0  0  0  0  0  0  0  0  0
   57.7981   27.2683   47.5383 H   0  0  0  0  0  0  0  0  0  0  0  0
   58.3906   28.8007   46.8122 H   0  0  0  0  0  0  0  0  0  0  0  0
   56.6335   28.4272   46.8122 H   0  0  0  0  0  0  0  0  0  0  0  0
   59.2059   25.1305   44.8211 H   0  0  0  0  0  0  0  0  0  0  0  0
   58.3166   22.8127   44.5644 H   0  0  0  0  0  0  0  0  0  0  0  0
   55.8944   22.3521   44.9509 H   0  0  0  0  0  0  0  0  0  0  0  0
   54.3696   24.1977   45.6556 H   0  0  0  0  0  0  0  0  0  0  0  0
   59.2723   27.3919   43.9838 H   0  0  0  0  0  0  0  0  0  0  0  0
   58.0482   28.4890   42.2342 H   0  0  0  0  0  0  0  0  0  0  0  0
   56.8963   27.3132   43.0066 H   0  0  0  0  0  0  0  0  0  0  0  0
   55.8219   29.4959   42.5173 H   0  0  0  0  0  0  0  0  0  0  0  0
   55.8697   29.1106   44.2851 H   0  0  0  0  0  0  0  0  0  0  0  0
   57.6635   31.0504   42.7526 H   0  0  0  0  0  0  0  0  0  0  0  0
   56.4421   31.4299   44.0331 H   0  0  0  0  0  0  0  0  0  0  0  0
   57.3507   33.0732   44.4570 H   0  0  0  0  0  0  0  0  0  0  0  0
   57.7696   34.9340   46.0747 H   0  0  0  0  0  0  0  0  0  0  0  0
   59.1404   34.5101   48.1246 H   0  0  0  0  0  0  0  0  0  0  0  0
   60.0721   32.2259   48.5300 H   0  0  0  0  0  0  0  0  0  0  0  0
   59.6350   30.4740   46.9320 H   0  0  0  0  0  0  0  0  0  0  0  0
  1  2  1  0
  2  3  1  0
  3  4  2  0
  4  5  1  0
  5  6  2  0
  6  7  1  0
  7  8  2  0
  8  9  1  0
  2 10  1  0
 10 11  1  0
 11 12  1  0
 12 13  1  0
 13 14  1  0
 14 15  1  0
 15 16  2  0
 16 17  1  0
 17 18  2  0
 18 19  1  0
 19 20  2  0
 14 21  1  0
 21 22  2  0
  8  3  1  0
 21 10  1  0
 20 15  1  0
  1 23  1  0
  1 24  1  0
  1 25  1  0
  4 26  1  0
  5 27  1  0
  6 28  1  0
  7 29  1  0
 10 30  1  6
 11 31  1  0
 11 32  1  0
 12 33  1  0
 12 34  1  0
 13 35  1  0
 13 36  1  0
 16 37  1  0
 17 38  1  0
 18 39  1  0
 19 40  1  0
 20 41  1  0
M  CHG  2   9  -1  20   1
M  END
>  <UniqueID>  (42) 
37

>  <SMILES>  (42) 
CN(c1ccccc1[O-])[C@H]1CCCN(c2cccc[nH+]2)C1=O

>  <Energy>  (42) 
53.079890490987395

>  <Genealogy>  (42) 
CN(c1ccccc1[O-])C1CCCN(c2cccc[nH+]2)C1=O (protonated)
CN(c1ccccc1[O-])[C@H]1CCCN(c2cccc[nH+]2)C1=O (chirality)
CN(c1ccccc1[O-])[C@H]1CCCN(c2cccc[nH+]2)C1=O (3D coordinates assigned)
CN(c1ccccc1[O-])[C@H]1CCCN(c2cccc[nH+]2)C1=O (nonaromatic ring conformer: 53.079890490987395 kcal/mol)

>  <smiles>  (42) 
CN(c1ccccc1O)C1CCCN(c2ccccn2)C1=O

>  <score_type>  (42) 
oracle

>  <origin>  (42) 
adg

>  <m_score__min__energy>  (42) 
-9.1899999999999995

>  <m_primary>  (42) 
energy

$$$$
42:0
     RDKit          3D

 36 37  0  0  0  0  0  0  0  0999 V2000
   60.0090   29.5440   48.6660 C   0  0  0  0  0  0  0  0  0  0  0  0
   58.8600   29.3660   47.6790 C   0  0  0  0  0  0  0  0  0  0  0  0
   59.1400   30.0840   46.4320 N   0  0  0  0  0  0  0  0  0  0  0  0
   59.7130   29.3630   45.2940 C   0  0  0  0  0  0  0  0  0  0  0  0
   58.9830   31.5120   46.3730 C   0  0  0  0  0  0  0  0  0  0  0  0
   59.8300   32.3130   47.0780 N   0  0  0  0  0  0  0  0  0  0  0  0
   59.7100   33.6700   47.0430 C   0  0  0  0  0  0  0  0  0  0  0  0
   60.6720   34.5460   47.7950 C   0  0  0  0  0  0  0  0  0  0  0  0
   61.6660   33.7020   48.5630 C   0  0  0  0  0  0  0  0  0  0  0  0
   62.9040   33.3310   47.9800 C   0  0  0  0  0  0  0  0  0  0  0  0
   63.3720   33.8440   46.3610 Cl  0  0  0  0  0  0  0  0  0  0  0  0
   63.8010   32.5260   48.6900 C   0  0  0  0  0  0  0  0  0  0  0  0
   63.4850   32.0740   49.9700 C   0  0  0  0  0  0  0  0  0  0  0  0
   62.2660   32.4190   50.5500 C   0  0  0  0  0  0  0  0  0  0  0  0
   61.3530   33.2220   49.8580 C   0  0  0  0  0  0  0  0  0  0  0  0
   59.8280   33.5980   50.6560 Cl  0  0  0  0  0  0  0  0  0  0  0  0
   58.7290   34.2410   46.2970 N   0  0  0  0  0  0  0  0  0  0  0  0
   57.8540   33.4890   45.5830 C   0  0  0  0  0  0  0  0  0  0  0  0
   56.9550   34.0590   44.9100 O   0  0  0  0  0  0  0  0  0  0  0  0
   57.9600   32.0930   45.6020 C   0  0  0  0  0  0  0  0  0  0  0  0
   57.0180   31.2730   44.8740 C   0  0  0  0  0  0  0  0  0  0  0  0
   56.2630   30.6160   44.2940 N   0  0  0  0  0  0  0  0  0  0  0  0
   59.6220   29.4840   49.6939 H   0  0  0  0  0  0  0  0  0  0  0  0
   60.7544   28.7506   48.5080 H   0  0  0  0  0  0  0  0  0  0  0  0
   60.4794   30.5257   48.5080 H   0  0  0  0  0  0  0  0  0  0  0  0
   58.7332   28.2955   47.4600 H   0  0  0  0  0  0  0  0  0  0  0  0
   57.9406   29.7726   48.1255 H   0  0  0  0  0  0  0  0  0  0  0  0
   60.3581   28.5513   45.6614 H   0  0  0  0  0  0  0  0  0  0  0  0
   58.9026   28.9392   44.6828 H   0  0  0  0  0  0  0  0  0  0  0  0
   60.3089   30.0568   44.6828 H   0  0  0  0  0  0  0  0  0  0  0  0
   60.5920   31.8740   47.6440 H   0  0  0  0  0  0  0  0  0  0  0  0
   61.2138   35.1847   47.0818 H   0  0  0  0  0  0  0  0  0  0  0  0
   60.1074   35.1670   48.5060 H   0  0  0  0  0  0  0  0  0  0  0  0
   64.7629   32.2476   48.2347 H   0  0  0  0  0  0  0  0  0  0  0  0
   64.1982   31.4447   50.5225 H   0  0  0  0  0  0  0  0  0  0  0  0
   62.0197   32.0574   51.5592 H   0  0  0  0  0  0  0  0  0  0  0  0
  1  2  1  0
  2  3  1  0
  3  4  1  0
  3  5  1  0
  5  6  1  0
  6  7  1  0
  7  8  1  0
  8  9  1  0
  9 10  2  0
 10 11  1  0
 10 12  1  0
 12 13  2  0
 13 14  1  0
 14 15  2  0
 15 16  1  0
  7 17  2  0
 17 18  1  0
 18 19  2  0
 18 20  1  0
 20 21  1  0
 21 22  3  0
 20  5  2  0
 15  9  1  0
  1 23  1  0
  1 24  1  0
  1 25  1  0
  2 26  1  0
  2 27  1  0
  4 28  1  0
  4 29  1  0
  4 30  1  0
  6 31  1  0
  8 32  1  0
  8 33  1  0
 12 34  1  0
 13 35  1  0
 14 36  1  0
M  END
>  <UniqueID>  (43) 
38

>  <SMILES>  (43) 
CCN(C)c1[nH]c(Cc2c(Cl)cccc2Cl)nc(=O)c1C#N

>  <Energy>  (43) 
39.20008446400166

>  <Genealogy>  (43) 
CCN(C)c1[nH]c(Cc2c(Cl)cccc2Cl)nc(=O)c1C#N (3D coordinates assigned)
CCN(C)c1[nH]c(Cc2c(Cl)cccc2Cl)nc(=O)c1C#N (optimized conformer: 39.20008446400166 kcal/mol)

>  <smiles>  (43) 
CCN(C)c1[nH]c(Cc2c(Cl)cccc2Cl)nc(=O)c1C#N

>  <score_type>  (43) 
oracle

>  <origin>  (43) 
adg

>  <m_score__min__energy>  (43) 
-6.6600000000000001

>  <m_primary>  (43) 
energy

$$$$
43:0
     RDKit          3D

 46 48  0  0  0  0  0  0  0  0999 V2000
   62.9350   33.8380   46.3830 C   0  0  0  0  0  0  0  0  0  0  0  0
   61.9740   33.5310   47.5250 C   0  0  0  0  0  0  0  0  0  0  0  0
   60.5670   33.8610   47.1350 C   0  0  0  0  0  0  0  0  0  0  0  0
   59.7740   33.1300   46.2740 C   0  0  0  0  0  0  0  0  0  0  0  0
   58.6200   33.8800   46.1960 C   0  0  0  0  0  0  0  0  0  0  0  0
   57.4080   33.5610   45.3810 C   0  0  0  0  0  0  0  0  0  0  0  0
   57.7130   32.4920   44.4220 N   0  0  0  0  0  0  0  0  0  0  0  0
   58.3180   32.8170   43.1260 C   0  0  0  0  0  0  0  0  0  0  0  0
   57.4350   31.1150   44.7510 C   0  0  0  0  0  0  0  0  0  0  0  0
   58.4060   30.3280   45.2900 N   0  0  0  0  0  0  0  0  0  0  0  0
   58.1630   29.0340   45.6200 C   0  0  0  0  0  0  0  0  0  0  0  0
   56.8920   28.4790   45.4100 C   0  0  0  0  0  0  0  0  0  0  0  0
   56.6020   27.0730   45.7710 C   0  0  0  0  0  0  0  0  0  0  0  0
   55.4170   26.7170   46.0180 O   0  0  0  0  0  0  0  0  0  0  0  0
   57.6610   26.1120   45.8340 N   0  0  0  0  0  0  0  0  0  0  0  0
   57.4910   24.7510   46.3300 C   0  0  0  0  0  0  0  0  0  0  0  0
   57.2090   23.8070   45.1880 C   0  0  0  0  0  0  0  0  0  0  0  0
   56.1400   24.0740   44.3160 C   0  0  0  0  0  0  0  0  0  0  0  0
   55.8800   23.2260   43.2360 C   0  0  0  0  0  0  0  0  0  0  0  0
   56.6860   22.1060   43.0160 C   0  0  0  0  0  0  0  0  0  0  0  0
   57.7520   21.8320   43.8770 C   0  0  0  0  0  0  0  0  0  0  0  0
   58.0180   22.6770   44.9600 C   0  0  0  0  0  0  0  0  0  0  0  0
   59.0620   22.3920   45.7790 F   0  0  0  0  0  0  0  0  0  0  0  0
   55.9060   29.3060   44.8550 C   0  0  0  0  0  0  0  0  0  0  0  0
   56.1960   30.5940   44.5400 N   0  0  0  0  0  0  0  0  0  0  0  0
   58.7510   34.9500   46.9460 O   0  0  0  0  0  0  0  0  0  0  0  0
   59.9170   34.9750   47.5230 N   0  0  0  0  0  0  0  0  0  0  0  0
   63.9066   34.1484   46.7948 H   0  0  0  0  0  0  0  0  0  0  0  0
   63.0694   32.9381   45.7649 H   0  0  0  0  0  0  0  0  0  0  0  0
   62.5227   34.6492   45.7649 H   0  0  0  0  0  0  0  0  0  0  0  0
   62.0385   32.4614   47.7737 H   0  0  0  0  0  0  0  0  0  0  0  0
   62.2525   34.1425   48.3959 H   0  0  0  0  0  0  0  0  0  0  0  0
   60.0064   32.1794   45.7717 H   0  0  0  0  0  0  0  0  0  0  0  0
   56.5974   33.2316   46.0477 H   0  0  0  0  0  0  0  0  0  0  0  0
   57.0967   34.4610   44.8305 H   0  0  0  0  0  0  0  0  0  0  0  0
   59.2765   33.3319   43.2876 H   0  0  0  0  0  0  0  0  0  0  0  0
   58.4906   31.8902   42.5592 H   0  0  0  0  0  0  0  0  0  0  0  0
   57.6406   33.4726   42.5592 H   0  0  0  0  0  0  0  0  0  0  0  0
   58.9652   28.4187   46.0534 H   0  0  0  0  0  0  0  0  0  0  0  0
   58.4111   24.4346   46.8431 H   0  0  0  0  0  0  0  0  0  0  0  0
   56.6420   24.7293   47.0291 H   0  0  0  0  0  0  0  0  0  0  0  0
   55.5041   24.9556   44.4844 H   0  0  0  0  0  0  0  0  0  0  0  0
   55.0402   23.4404   42.5586 H   0  0  0  0  0  0  0  0  0  0  0  0
   56.4814   21.4399   42.1649 H   0  0  0  0  0  0  0  0  0  0  0  0
   58.3842   20.9489   43.7027 H   0  0  0  0  0  0  0  0  0  0  0  0
   54.8955   28.9107   44.6744 H   0  0  0  0  0  0  0  0  0  0  0  0
  1  2  1  0
  2  3  1  0
  3  4  1  0
  4  5  2  0
  5  6  1  0
  6  7  1  0
  7  8  1  0
  7  9  1  0
  9 10  2  0
 10 11  1  0
 11 12  2  0
 12 13  1  0
 13 14  2  0
 13 15  1  0
 15 16  1  0
 16 17  1  0
 17 18  2  0
 18 19  1  0
 19 20  2  0
 20 21  1  0
 21 22  2  0
 22 23  1  0
 12 24  1  0
 24 25  2  0
  5 26  1  0
 26 27  1  0
 27  3  2  0
 25  9  1  0
 22 17  1  0
  1 28  1  0
  1 29  1  0
  1 30  1  0
  2 31  1  0
  2 32  1  0
  4 33  1  0
  6 34  1  0
  6 35  1  0
  8 36  1  0
  8 37  1  0
  8 38  1  0
 11 39  1  0
 16 40  1  0
 16 41  1  0
 18 42  1  0
 19 43  1  0
 20 44  1  0
 21 45  1  0
 24 46  1  0
M  CHG  1  15  -1
M  END
>  <UniqueID>  (44) 
39

>  <SMILES>  (44) 
CCc1cc(CN(C)c2ncc(C(=O)[N-]Cc3ccccc3F)cn2)on1

>  <Energy>  (44) 
70.79442988481205

>  <Genealogy>  (44) 
CCc1cc(CN(C)c2ncc(C(=O)[N-]Cc3ccccc3F)cn2)on1 (protonated)
CCc1cc(CN(C)c2ncc(C(=O)[N-]Cc3ccccc3F)cn2)on1 (3D coordinates assigned)
CCc1cc(CN(C)c2ncc(C(=O)[N-]Cc3ccccc3F)cn2)on1 (optimized conformer: 70.79442988481205 kcal/mol)

>  <smiles>  (44) 
CCc1cc(CN(C)c2ncc(C(=O)NCc3ccccc3F)cn2)on1

>  <score_type>  (44) 
oracle

>  <origin>  (44) 
adg

>  <m_score__min__energy>  (44) 
-9.9199999999999999

>  <m_primary>  (44) 
energy

$$$$
44:0
     RDKit          3D

 51 53  0  0  0  0  0  0  0  0999 V2000
   61.5440   32.5310   46.8600 O   0  0  0  0  0  0  0  0  0  0  0  0
   61.3400   32.5530   48.3480 S   0  0  0  0  0  0  0  0  0  0  0  0
   60.7110   33.8520   48.7640 O   0  0  0  0  0  0  0  0  0  0  0  0
   60.3070   31.2380   48.8060 N   0  0  0  0  0  0  0  0  0  0  0  0
   59.9410   30.1380   47.9600 C   0  0  0  0  0  0  0  0  0  0  0  0
   60.7020   29.8990   46.8100 C   0  0  0  0  0  0  0  0  0  0  0  0
   60.3800   28.8450   45.9500 C   0  0  0  0  0  0  0  0  0  0  0  0
   59.2800   28.0200   46.2270 C   0  0  0  0  0  0  0  0  0  0  0  0
   58.9460   26.8700   45.3160 C   0  0  0  0  0  0  0  0  0  0  0  0
   58.0130   27.3200   44.1910 C   0  0  0  0  0  0  0  0  0  0  0  0
   57.3030   28.5440   44.5860 N   0  0  0  0  0  0  0  0  0  0  0  0
   57.7080   29.7000   43.7700 C   0  0  0  0  0  0  0  0  0  0  0  0
   56.8170   30.9290   44.0660 C   0  0  1  0  0  0  0  0  0  0  0  0
   55.6960   30.5850   44.8390 O   0  0  0  0  0  0  0  0  0  0  0  0
   57.5870   32.0480   44.7440 C   0  0  0  0  0  0  0  0  0  0  0  0
   57.5500   33.3490   44.2210 C   0  0  0  0  0  0  0  0  0  0  0  0
   58.2160   34.3870   44.8730 C   0  0  0  0  0  0  0  0  0  0  0  0
   58.9130   34.1200   46.0510 C   0  0  0  0  0  0  0  0  0  0  0  0
   58.9310   32.8590   46.5620 N   0  0  0  0  0  0  0  0  0  0  0  0
   58.2870   31.8310   45.9450 C   0  0  0  0  0  0  0  0  0  0  0  0
   58.5260   28.2450   47.3900 C   0  0  0  0  0  0  0  0  0  0  0  0
   58.8520   29.2970   48.2510 C   0  0  0  0  0  0  0  0  0  0  0  0
   62.9080   32.3900   49.1380 C   0  0  0  0  0  0  0  0  0  0  0  0
   63.1000   31.4310   50.1460 C   0  0  0  0  0  0  0  0  0  0  0  0
   64.3470   31.2990   50.7630 C   0  0  0  0  0  0  0  0  0  0  0  0
   65.4070   32.1240   50.3810 C   0  0  0  0  0  0  0  0  0  0  0  0
   65.2220   33.0850   49.3820 C   0  0  0  0  0  0  0  0  0  0  0  0
   63.9770   33.2210   48.7620 C   0  0  0  0  0  0  0  0  0  0  0  0
   63.8160   34.1580   47.7960 F   0  0  0  0  0  0  0  0  0  0  0  0
   61.5613   30.5464   46.5808 H   0  0  0  0  0  0  0  0  0  0  0  0
   60.9909   28.6621   45.0537 H   0  0  0  0  0  0  0  0  0  0  0  0
   59.8748   26.4757   44.8779 H   0  0  0  0  0  0  0  0  0  0  0  0
   58.4384   26.0911   45.9039 H   0  0  0  0  0  0  0  0  0  0  0  0
   58.6043   27.5182   43.2849 H   0  0  0  0  0  0  0  0  0  0  0  0
   57.2790   26.5254   43.9913 H   0  0  0  0  0  0  0  0  0  0  0  0
   56.2820   28.3820   44.4130 H   0  0  0  0  0  0  0  0  0  0  0  0
   58.7544   29.9516   43.9975 H   0  0  0  0  0  0  0  0  0  0  0  0
   57.5965   29.4348   42.7083 H   0  0  0  0  0  0  0  0  0  0  0  0
   56.4710   31.2961   43.0885 H   0  0  0  0  0  0  0  0  0  0  0  0
   56.0170   30.0720   45.6270 H   0  0  0  0  0  0  0  0  0  0  0  0
   56.9940   33.5514   43.2937 H   0  0  0  0  0  0  0  0  0  0  0  0
   58.1916   35.4069   44.4616 H   0  0  0  0  0  0  0  0  0  0  0  0
   59.4489   34.9298   46.5677 H   0  0  0  0  0  0  0  0  0  0  0  0
   59.4450   32.6770   47.4530 H   0  0  0  0  0  0  0  0  0  0  0  0
   58.3139   30.8245   46.3879 H   0  0  0  0  0  0  0  0  0  0  0  0
   57.6741   27.5899   47.6249 H   0  0  0  0  0  0  0  0  0  0  0  0
   58.2549   29.4675   49.1589 H   0  0  0  0  0  0  0  0  0  0  0  0
   62.2661   30.7816   50.4508 H   0  0  0  0  0  0  0  0  0  0  0  0
   64.4937   30.5447   51.5501 H   0  0  0  0  0  0  0  0  0  0  0  0
   66.3884   32.0179   50.8663 H   0  0  0  0  0  0  0  0  0  0  0  0
   66.0579   33.7349   49.0837 H   0  0  0  0  0  0  0  0  0  0  0  0
  1  2  2  0
  2  3  2  0
  2  4  1  0
  4  5  1  0
  5  6  2  0
  6  7  1  0
  7  8  2  0
  8  9  1  0
  9 10  1  0
 10 11  1  0
 11 12  1  0
 12 13  1  0
 13 14  1  0
 13 15  1  0
 15 16  2  0
 16 17  1  0
 17 18  2  0
 18 19  1  0
 19 20  2  0
  8 21  1  0
 21 22  2  0
  2 23  1  0
 23 24  2  0
 24 25  1  0
 25 26  2  0
 26 27  1  0
 27 28  2  0
 28 29  1  0
 22  5  1  0
 28 23  1  0
 20 15  1  0
  6 30  1  0
  7 31  1  0
  9 32  1  0
  9 33  1  0
 10 34  1  0
 10 35  1  0
 11 36  1  0
 12 37  1  0
 12 38  1  0
 13 39  1  6
 14 40  1  0
 16 41  1  0
 17 42  1  0
 18 43  1  0
 19 44  1  0
 20 45  1  0
 21 46  1  0
 22 47  1  0
 24 48  1  0
 25 49  1  0
 26 50  1  0
 27 51  1  0
M  CHG  2   4  -1  19   1
M  END
>  <UniqueID>  (45) 
40

>  <SMILES>  (45) 
O=S(=O)([N-]c1ccc(CCNC[C@@H](O)c2ccc[nH+]c2)cc1)c1ccccc1F

>  <Energy>  (45) 
56.51374725569296

>  <Genealogy>  (45) 
O=S(=O)([N-]c1ccc(CCNCC(O)c2ccc[nH+]c2)cc1)c1ccccc1F (protonated)
O=S(=O)([N-]c1ccc(CCNC[C@@H](O)c2ccc[nH+]c2)cc1)c1ccccc1F (chirality)
O=S(=O)([N-]c1ccc(CCNC[C@@H](O)c2ccc[nH+]c2)cc1)c1ccccc1F (3D coordinates assigned)
O=S(=O)([N-]c1ccc(CCNC[C@@H](O)c2ccc[nH+]c2)cc1)c1ccccc1F (optimized conformer: 56.51374725569296 kcal/mol)

>  <smiles>  (45) 
O=S(=O)(Nc1ccc(CCNCC(O)c2cccnc2)cc1)c1ccccc1F

>  <score_type>  (45) 
oracle

>  <origin>  (45) 
adg

>  <m_score__min__energy>  (45) 
-9.5

>  <m_primary>  (45) 
energy

$$$$
45:0
     RDKit          3D

 41 43  0  0  0  0  0  0  0  0999 V2000
   56.2690   29.4290   42.6110 C   0  0  0  0  0  0  0  0  0  0  0  0
   56.1040   29.6910   44.0000 O   0  0  0  0  0  0  0  0  0  0  0  0
   57.0080   30.4280   44.7800 C   0  0  0  0  0  0  0  0  0  0  0  0
   57.1750   31.7880   44.4960 C   0  0  0  0  0  0  0  0  0  0  0  0
   58.0630   32.5670   45.2440 C   0  0  0  0  0  0  0  0  0  0  0  0
   58.8060   31.9920   46.2870 C   0  0  0  0  0  0  0  0  0  0  0  0
   59.7130   32.7950   47.0670 N   0  0  0  0  0  0  0  0  0  0  0  0
   59.9590   32.4520   48.4770 C   0  0  0  0  0  0  0  0  0  0  0  0
   61.1160   33.2710   49.0610 C   0  0  0  0  0  0  0  0  0  0  0  0
   62.2210   33.3320   48.0920 N   0  0  0  0  0  0  0  0  0  0  0  0
   63.5820   33.0890   48.4960 C   0  0  0  0  0  0  0  0  0  0  0  0
   64.5220   33.6670   47.8870 O   0  0  0  0  0  0  0  0  0  0  0  0
   63.8770   32.1450   49.5390 N   0  0  0  0  0  0  0  0  0  0  0  0
   65.1180   32.1070   50.2590 C   0  0  0  0  0  0  0  0  0  0  0  0
   66.0960   33.0880   50.1890 C   0  0  0  0  0  0  0  0  0  0  0  0
   67.2300   32.7840   50.9520 C   0  0  0  0  0  0  0  0  0  0  0  0
   67.1500   31.5630   51.6110 C   0  0  0  0  0  0  0  0  0  0  0  0
   65.6670   30.8560   51.2460 S   0  0  0  0  0  0  0  0  0  0  0  0
   61.9500   33.7420   46.7050 C   0  0  0  0  0  0  0  0  0  0  0  0
   60.4480   33.9100   46.4510 C   0  0  0  0  0  0  0  0  0  0  0  0
   58.6350   30.6280   46.5770 C   0  0  0  0  0  0  0  0  0  0  0  0
   57.7460   29.8510   45.8300 C   0  0  0  0  0  0  0  0  0  0  0  0
   56.8509   28.5050   42.4788 H   0  0  0  0  0  0  0  0  0  0  0  0
   55.2818   29.3111   42.1403 H   0  0  0  0  0  0  0  0  0  0  0  0
   56.8018   30.2684   42.1403 H   0  0  0  0  0  0  0  0  0  0  0  0
   56.6026   32.2482   43.6771 H   0  0  0  0  0  0  0  0  0  0  0  0
   58.1800   33.6363   45.0139 H   0  0  0  0  0  0  0  0  0  0  0  0
   59.0478   32.6555   49.0586 H   0  0  0  0  0  0  0  0  0  0  0  0
   60.2284   31.3869   48.5311 H   0  0  0  0  0  0  0  0  0  0  0  0
   60.7670   34.2905   49.2818 H   0  0  0  0  0  0  0  0  0  0  0  0
   61.4697   32.7923   49.9861 H   0  0  0  0  0  0  0  0  0  0  0  0
   63.1690   31.4090   49.7560 H   0  0  0  0  0  0  0  0  0  0  0  0
   65.9917   34.0086   49.5960 H   0  0  0  0  0  0  0  0  0  0  0  0
   68.1029   33.4496   51.0232 H   0  0  0  0  0  0  0  0  0  0  0  0
   67.9251   31.1315   52.2614 H   0  0  0  0  0  0  0  0  0  0  0  0
   62.4545   34.7000   46.5106 H   0  0  0  0  0  0  0  0  0  0  0  0
   62.3273   32.9567   46.0335 H   0  0  0  0  0  0  0  0  0  0  0  0
   60.1070   34.8594   46.8897 H   0  0  0  0  0  0  0  0  0  0  0  0
   60.2603   33.9152   45.3671 H   0  0  0  0  0  0  0  0  0  0  0  0
   59.2050   30.1686   47.3980 H   0  0  0  0  0  0  0  0  0  0  0  0
   57.6224   28.7833   46.0638 H   0  0  0  0  0  0  0  0  0  0  0  0
  1  2  1  0
  2  3  1  0
  3  4  2  0
  4  5  1  0
  5  6  2  0
  6  7  1  0
  7  8  1  0
  8  9  1  0
  9 10  1  0
 10 11  1  0
 11 12  2  0
 11 13  1  0
 13 14  1  0
 14 15  2  0
 15 16  1  0
 16 17  2  0
 17 18  1  0
 10 19  1  0
 19 20  1  0
  6 21  1  0
 21 22  2  0
 22  3  1  0
 20  7  1  0
 18 14  1  0
  1 23  1  0
  1 24  1  0
  1 25  1  0
  4 26  1  0
  5 27  1  0
  8 28  1  0
  8 29  1  0
  9 30  1  0
  9 31  1  0
 13 32  1  0
 15 33  1  0
 16 34  1  0
 17 35  1  0
 19 36  1  0
 19 37  1  0
 20 38  1  0
 20 39  1  0
 21 40  1  0
 22 41  1  0
M  END
>  <UniqueID>  (46) 
41

>  <SMILES>  (46) 
COc1ccc(N2CCN(C(=O)Nc3cccs3)CC2)cc1

>  <Energy>  (46) 
75.71093474752342

>  <Genealogy>  (46) 
COc1ccc(N2CCN(C(=O)Nc3cccs3)CC2)cc1 (3D coordinates assigned)
COc1ccc(N2CCN(C(=O)Nc3cccs3)CC2)cc1 (nonaromatic ring conformer: 75.71093474752342 kcal/mol)

>  <smiles>  (46) 
COc1ccc(N2CCN(C(=O)Nc3cccs3)CC2)cc1

>  <score_type>  (46) 
oracle

>  <origin>  (46) 
adg

>  <m_score__min__energy>  (46) 
-6.2300000000000004

>  <m_primary>  (46) 
energy

$$$$
46:0
     RDKit          3D

 55 58  0  0  0  0  0  0  0  0999 V2000
   57.2950   26.6850   46.2100 O   0  0  0  0  0  0  0  0  0  0  0  0
   57.3750   26.5280   44.9610 C   0  0  0  0  0  0  0  0  0  0  0  0
   57.3820   25.1370   44.4000 C   0  0  0  0  0  0  0  0  0  0  0  0
   57.0490   24.1620   45.4500 N   0  0  0  0  0  0  0  0  0  0  0  0
   57.9550   23.1830   45.7530 C   0  0  0  0  0  0  0  0  0  0  0  0
   57.6970   22.2790   46.7320 N   0  0  0  0  0  0  0  0  0  0  0  0
   56.5440   22.3220   47.4420 C   0  0  0  0  0  0  0  0  0  0  0  0
   56.3040   21.3760   48.4470 C   0  0  0  0  0  0  0  0  0  0  0  0
   55.1170   21.4220   49.1820 C   0  0  0  0  0  0  0  0  0  0  0  0
   54.1650   22.4120   48.9190 C   0  0  0  0  0  0  0  0  0  0  0  0
   54.3970   23.3610   47.9180 C   0  0  0  0  0  0  0  0  0  0  0  0
   55.5900   23.3230   47.1710 C   0  0  0  0  0  0  0  0  0  0  0  0
   55.8740   24.2530   46.1540 C   0  0  0  0  0  0  0  0  0  0  0  0
   55.0450   25.1700   45.8930 O   0  0  0  0  0  0  0  0  0  0  0  0
   57.3890   27.6620   44.0800 N   0  0  0  0  0  0  0  0  0  0  0  0
   57.5850   29.0190   44.5150 C   0  0  0  0  0  0  0  0  0  0  0  0
   58.6870   29.3860   45.3070 C   0  0  0  0  0  0  0  0  0  0  0  0
   58.8660   30.7170   45.6950 C   0  0  0  0  0  0  0  0  0  0  0  0
   57.9600   31.7010   45.2800 C   0  0  0  0  0  0  0  0  0  0  0  0
   58.1920   33.3720   45.7910 S   0  0  0  0  0  0  0  0  0  0  0  0
   56.9870   33.8500   46.5550 O   0  0  0  0  0  0  0  0  0  0  0  0
   58.3470   34.2240   44.5610 O   0  0  0  0  0  0  0  0  0  0  0  0
   59.6210   33.4940   46.7940 N   0  0  0  0  0  0  0  0  0  0  0  0
   59.2970   34.2550   48.0180 C   0  0  0  0  0  0  0  0  0  0  0  0
   60.0900   33.7070   49.2120 C   0  0  0  0  0  0  0  0  0  0  0  0
   61.4000   32.9980   48.8260 C   0  0  0  0  0  0  0  0  0  0  0  0
   62.3580   33.7970   47.9230 C   0  0  0  0  0  0  0  0  0  0  0  0
   62.0940   33.6300   46.4190 C   0  0  0  0  0  0  0  0  0  0  0  0
   60.6970   34.1300   46.0120 C   0  0  0  0  0  0  0  0  0  0  0  0
   56.8720   31.3430   44.4750 C   0  0  0  0  0  0  0  0  0  0  0  0
   56.6900   30.0130   44.0900 C   0  0  0  0  0  0  0  0  0  0  0  0
   56.6392   25.0679   43.5917 H   0  0  0  0  0  0  0  0  0  0  0  0
   58.3857   24.9136   44.0092 H   0  0  0  0  0  0  0  0  0  0  0  0
   58.9027   23.1278   45.1973 H   0  0  0  0  0  0  0  0  0  0  0  0
   57.0509   20.5963   48.6575 H   0  0  0  0  0  0  0  0  0  0  0  0
   54.9306   20.6774   49.9699 H   0  0  0  0  0  0  0  0  0  0  0  0
   53.2318   22.4445   49.5005 H   0  0  0  0  0  0  0  0  0  0  0  0
   53.6461   24.1385   47.7140 H   0  0  0  0  0  0  0  0  0  0  0  0
   57.1660   27.5000   43.0720 H   0  0  0  0  0  0  0  0  0  0  0  0
   59.4123   28.6217   45.6231 H   0  0  0  0  0  0  0  0  0  0  0  0
   59.7218   30.9925   46.3288 H   0  0  0  0  0  0  0  0  0  0  0  0
   59.5551   35.3134   47.8661 H   0  0  0  0  0  0  0  0  0  0  0  0
   58.2216   34.1553   48.2269 H   0  0  0  0  0  0  0  0  0  0  0  0
   60.3356   34.5472   49.8781 H   0  0  0  0  0  0  0  0  0  0  0  0
   59.4524   32.9525   49.6959 H   0  0  0  0  0  0  0  0  0  0  0  0
   61.9372   32.7541   49.7544 H   0  0  0  0  0  0  0  0  0  0  0  0
   61.0996   32.1193   48.2364 H   0  0  0  0  0  0  0  0  0  0  0  0
   62.2593   34.8634   48.1740 H   0  0  0  0  0  0  0  0  0  0  0  0
   63.3688   33.4059   48.1112 H   0  0  0  0  0  0  0  0  0  0  0  0
   62.8506   34.2017   45.8615 H   0  0  0  0  0  0  0  0  0  0  0  0
   62.1484   32.5565   46.1851 H   0  0  0  0  0  0  0  0  0  0  0  0
   60.6518   35.2178   46.1690 H   0  0  0  0  0  0  0  0  0  0  0  0
   60.5424   33.8678   44.9549 H   0  0  0  0  0  0  0  0  0  0  0  0
   56.1581   32.1119   44.1446 H   0  0  0  0  0  0  0  0  0  0  0  0
   55.8384   29.7423   43.4485 H   0  0  0  0  0  0  0  0  0  0  0  0
  1  2  2  0
  2  3  1  0
  3  4  1  0
  4  5  1  0
  5  6  2  0
  6  7  1  0
  7  8  2  0
  8  9  1  0
  9 10  2  0
 10 11  1  0
 11 12  2  0
 12 13  1  0
 13 14  2  0
  2 15  1  0
 15 16  1  0
 16 17  2  0
 17 18  1  0
 18 19  2  0
 19 20  1  0
 20 21  2  0
 20 22  2  0
 20 23  1  0
 23 24  1  0
 24 25  1  0
 25 26  1  0
 26 27  1  0
 27 28  1  0
 28 29  1  0
 19 30  1  0
 30 31  2  0
 13  4  1  0
 31 16  1  0
 12  7  1  0
 29 23  1  0
  3 32  1  0
  3 33  1  0
  5 34  1  0
  8 35  1  0
  9 36  1  0
 10 37  1  0
 11 38  1  0
 15 39  1  0
 17 40  1  0
 18 41  1  0
 24 42  1  0
 24 43  1  0
 25 44  1  0
 25 45  1  0
 26 46  1  0
 26 47  1  0
 27 48  1  0
 27 49  1  0
 28 50  1  0
 28 51  1  0
 29 52  1  0
 29 53  1  0
 30 54  1  0
 31 55  1  0
M  END
>  <UniqueID>  (47) 
42

>  <SMILES>  (47) 
O=C(Cn1cnc2ccccc2c1=O)Nc1ccc(S(=O)(=O)N2CCCCCC2)cc1

>  <Energy>  (47) 
69.51604309419072

>  <Genealogy>  (47) 
O=C(Cn1cnc2ccccc2c1=O)Nc1ccc(S(=O)(=O)N2CCCCCC2)cc1 (3D coordinates assigned)
O=C(Cn1cnc2ccccc2c1=O)Nc1ccc(S(=O)(=O)N2CCCCCC2)cc1 (nonaromatic ring conformer: 69.51604309419072 kcal/mol)

>  <smiles>  (47) 
O=C(Cn1cnc2ccccc2c1=O)Nc1ccc(S(=O)(=O)N2CCCCCC2)cc1

>  <score_type>  (47) 
oracle

>  <origin>  (47) 
adg

>  <m_score__min__energy>  (47) 
-7.0499999999999998

>  <m_primary>  (47) 
energy

$$$$
47:0
     RDKit          3D

 60 63  0  0  0  0  0  0  0  0999 V2000
   64.4490   32.3540   49.3660 C   0  0  0  0  0  0  0  0  0  0  0  0
   63.2620   32.9140   48.6430 C   0  0  0  0  0  0  0  0  0  0  0  0
   62.1210   33.3070   49.3590 C   0  0  0  0  0  0  0  0  0  0  0  0
   60.9980   33.7940   48.6840 C   0  0  0  0  0  0  0  0  0  0  0  0
   60.9940   33.8770   47.2850 C   0  0  0  0  0  0  0  0  0  0  0  0
   59.5650   34.4650   46.4320 S   0  0  0  0  0  0  0  0  0  0  0  0
   59.0620   35.7100   47.1080 O   0  0  0  0  0  0  0  0  0  0  0  0
   59.9410   34.8210   45.0210 O   0  0  0  0  0  0  0  0  0  0  0  0
   58.2920   33.2660   46.4130 N   0  0  0  0  0  0  0  0  0  0  0  0
   58.5530   32.1810   47.3910 C   0  0  0  0  0  0  0  0  0  0  0  0
   59.0510   30.8830   46.7420 C   0  0  0  0  0  0  0  0  0  0  0  0
   58.1200   30.4560   45.6920 N   0  0  0  0  0  0  0  0  0  0  0  0
   58.0290   29.0700   45.3300 C   0  0  0  0  0  0  0  0  0  0  0  0
   57.4370   28.1470   46.2040 C   0  0  0  0  0  0  0  0  0  0  0  0
   57.3570   26.7950   45.8580 C   0  0  0  0  0  0  0  0  0  0  0  0
   57.8760   26.3440   44.6300 C   0  0  0  0  0  0  0  0  0  0  0  0
   57.8350   24.9970   44.2360 O   0  0  0  0  0  0  0  0  0  0  0  0
   57.8690   23.8730   45.1170 C   0  0  0  0  0  0  0  0  0  0  0  0
   56.4910   23.5720   45.6560 C   0  0  0  0  0  0  0  0  0  0  0  0
   55.3610   23.9110   44.8890 C   0  0  0  0  0  0  0  0  0  0  0  0
   54.0680   23.6590   45.3670 C   0  0  0  0  0  0  0  0  0  0  0  0
   52.8730   24.0710   44.5600 C   0  0  0  0  0  0  0  0  0  0  0  0
   53.9010   23.0830   46.6330 C   0  0  0  0  0  0  0  0  0  0  0  0
   55.0130   22.7280   47.3960 C   0  0  0  0  0  0  0  0  0  0  0  0
   56.3080   22.9580   46.9180 C   0  0  0  0  0  0  0  0  0  0  0  0
   57.3840   22.5630   47.7160 O   0  0  0  0  0  0  0  0  0  0  0  0
   58.4590   27.2700   43.7560 C   0  0  0  0  0  0  0  0  0  0  0  0
   58.5380   28.6210   44.1010 C   0  0  0  0  0  0  0  0  0  0  0  0
   57.3160   31.4620   44.9870 C   0  0  0  0  0  0  0  0  0  0  0  0
   58.0310   32.8150   45.0280 C   0  0  0  0  0  0  0  0  0  0  0  0
   62.1320   33.4770   46.5680 C   0  0  0  0  0  0  0  0  0  0  0  0
   63.2550   32.9900   47.2420 C   0  0  0  0  0  0  0  0  0  0  0  0
   64.2869   32.4305   50.4513 H   0  0  0  0  0  0  0  0  0  0  0  0
   64.5825   31.2979   49.0887 H   0  0  0  0  0  0  0  0  0  0  0  0
   65.3490   32.9225   49.0887 H   0  0  0  0  0  0  0  0  0  0  0  0
   62.1102   33.2315   50.4564 H   0  0  0  0  0  0  0  0  0  0  0  0
   60.1130   34.1137   49.2537 H   0  0  0  0  0  0  0  0  0  0  0  0
   59.3153   32.5295   48.1034 H   0  0  0  0  0  0  0  0  0  0  0  0
   57.5971   31.9515   47.8845 H   0  0  0  0  0  0  0  0  0  0  0  0
   60.0438   31.0544   46.3005 H   0  0  0  0  0  0  0  0  0  0  0  0
   59.1137   30.0974   47.5094 H   0  0  0  0  0  0  0  0  0  0  0  0
   57.0329   28.4891   47.1682 H   0  0  0  0  0  0  0  0  0  0  0  0
   56.8861   26.0801   46.5488 H   0  0  0  0  0  0  0  0  0  0  0  0
   58.2410   22.9955   44.5678 H   0  0  0  0  0  0  0  0  0  0  0  0
   58.5343   24.1068   45.9612 H   0  0  0  0  0  0  0  0  0  0  0  0
   55.4942   24.3793   43.9026 H   0  0  0  0  0  0  0  0  0  0  0  0
   52.0532   24.3536   45.2368 H   0  0  0  0  0  0  0  0  0  0  0  0
   53.1374   24.9299   43.9256 H   0  0  0  0  0  0  0  0  0  0  0  0
   52.5519   23.2317   43.9256 H   0  0  0  0  0  0  0  0  0  0  0  0
   52.8886   22.9100   47.0269 H   0  0  0  0  0  0  0  0  0  0  0  0
   54.8709   22.2629   48.3827 H   0  0  0  0  0  0  0  0  0  0  0  0
   57.7780   21.6320   47.6950 H   0  0  0  0  0  0  0  0  0  0  0  0
   58.8583   26.9302   42.7890 H   0  0  0  0  0  0  0  0  0  0  0  0
   59.0014   29.3370   43.4063 H   0  0  0  0  0  0  0  0  0  0  0  0
   57.1788   31.1525   43.9404 H   0  0  0  0  0  0  0  0  0  0  0  0
   56.3353   31.5532   45.4768 H   0  0  0  0  0  0  0  0  0  0  0  0
   58.9905   32.7251   44.4977 H   0  0  0  0  0  0  0  0  0  0  0  0
   57.3771   33.5579   44.5479 H   0  0  0  0  0  0  0  0  0  0  0  0
   62.1401   33.5471   45.4703 H   0  0  0  0  0  0  0  0  0  0  0  0
   64.1375   32.6647   46.6716 H   0  0  0  0  0  0  0  0  0  0  0  0
  1  2  1  0
  2  3  2  0
  3  4  1  0
  4  5  2  0
  5  6  1  0
  6  7  2  0
  6  8  2  0
  6  9  1  0
  9 10  1  0
 10 11  1  0
 11 12  1  0
 12 13  1  0
 13 14  2  0
 14 15  1  0
 15 16  2  0
 16 17  1  0
 17 18  1  0
 18 19  1  0
 19 20  2  0
 20 21  1  0
 21 22  1  0
 21 23  2  0
 23 24  1  0
 24 25  2  0
 25 26  1  0
 16 27  1  0
 27 28  2  0
 12 29  1  0
 29 30  1  0
  5 31  1  0
 31 32  2  0
 32  2  1  0
 30  9  1  0
 28 13  1  0
 25 19  1  0
  1 33  1  0
  1 34  1  0
  1 35  1  0
  3 36  1  0
  4 37  1  0
 10 38  1  0
 10 39  1  0
 11 40  1  0
 11 41  1  0
 14 42  1  0
 15 43  1  0
 18 44  1  0
 18 45  1  0
 20 46  1  0
 22 47  1  0
 22 48  1  0
 22 49  1  0
 23 50  1  0
 24 51  1  0
 26 52  1  0
 27 53  1  0
 28 54  1  0
 29 55  1  0
 29 56  1  0
 30 57  1  0
 30 58  1  0
 31 59  1  0
 32 60  1  0
M  END
>  <UniqueID>  (48) 
43

>  <SMILES>  (48) 
Cc1ccc(S(=O)(=O)N2CCN(c3ccc(OCc4cc(C)ccc4O)cc3)CC2)cc1

>  <Energy>  (48) 
72.57120754882747

>  <Genealogy>  (48) 
Cc1ccc(S(=O)(=O)N2CCN(c3ccc(OCc4cc(C)ccc4O)cc3)CC2)cc1 (3D coordinates assigned)
Cc1ccc(S(=O)(=O)N2CCN(c3ccc(OCc4cc(C)ccc4O)cc3)CC2)cc1 (nonaromatic ring conformer: 72.57120754882747 kcal/mol)

>  <smiles>  (48) 
Cc1ccc(S(=O)(=O)N2CCN(c3ccc(OCc4cc(C)ccc4O)cc3)CC2)cc1

>  <score_type>  (48) 
oracle

>  <origin>  (48) 
adg

>  <m_score__min__energy>  (48) 
-9.4700000000000006

>  <m_primary>  (48) 
energy

$$$$
48:0
     RDKit          3D

 34 35  0  0  0  0  0  0  0  0999 V2000
   58.0081   31.0198   47.1378 H   0  0  0  0  0  0  0  0  0  0  0  0
   58.1190   31.8170   46.3880 C   0  0  0  0  0  0  0  0  0  0  0  0
   58.8020   32.9920   46.7170 C   0  0  0  0  0  0  0  0  0  0  0  0
   59.2294   33.1128   47.7234 H   0  0  0  0  0  0  0  0  0  0  0  0
   58.9450   34.0170   45.7710 C   0  0  0  0  0  0  0  0  0  0  0  0
   59.6420   35.2930   46.1380 C   0  0  0  0  0  0  0  0  0  0  0  0
   59.6907   35.3822   47.2333 H   0  0  0  0  0  0  0  0  0  0  0  0
   60.6615   35.2858   45.7250 H   0  0  0  0  0  0  0  0  0  0  0  0
   59.0850   36.1469   45.7250 H   0  0  0  0  0  0  0  0  0  0  0  0
   58.3580   33.8710   44.5060 C   0  0  0  0  0  0  0  0  0  0  0  0
   58.4357   34.6840   43.7691 H   0  0  0  0  0  0  0  0  0  0  0  0
   57.6740   32.6960   44.1770 C   0  0  0  0  0  0  0  0  0  0  0  0
   57.2120   32.5931   43.1840 H   0  0  0  0  0  0  0  0  0  0  0  0
   57.5730   31.6500   45.1020 C   0  0  0  0  0  0  0  0  0  0  0  0
   56.8320   30.4740   44.7360 N   0  0  0  0  0  0  0  0  0  0  0  0
   57.0620   29.2510   45.1210 C   0  0  0  0  0  0  0  0  0  0  0  0
   56.0400   28.3810   45.3470 N   0  0  0  0  0  0  0  0  0  0  0  0
   56.2720   27.1150   45.7770 C   0  0  0  0  0  0  0  0  0  0  0  0
   55.3060   26.3330   45.9740 O   0  0  0  0  0  0  0  0  0  0  0  0
   57.5790   26.6870   45.9980 C   0  0  0  0  0  0  0  0  0  0  0  0
   57.7831   25.6640   46.3470 H   0  0  0  0  0  0  0  0  0  0  0  0
   58.6270   27.5850   45.7670 C   0  0  0  0  0  0  0  0  0  0  0  0
   60.0510   27.1700   46.0330 C   0  0  0  0  0  0  0  0  0  0  0  0
   60.7268   27.8665   45.5152 H   0  0  0  0  0  0  0  0  0  0  0  0
   60.1808   26.1421   45.6634 H   0  0  0  0  0  0  0  0  0  0  0  0
   60.3810   27.1810   47.5320 C   0  0  0  0  0  0  0  0  0  0  0  0
   61.4699   27.2795   47.6532 H   0  0  0  0  0  0  0  0  0  0  0  0
   60.0106   26.2394   47.9636 H   0  0  0  0  0  0  0  0  0  0  0  0
   59.6990   28.3320   48.2710 C   0  0  0  0  0  0  0  0  0  0  0  0
   59.7910   28.1767   49.3561 H   0  0  0  0  0  0  0  0  0  0  0  0
   60.1803   29.2817   47.9944 H   0  0  0  0  0  0  0  0  0  0  0  0
   58.6349   28.3660   47.9944 H   0  0  0  0  0  0  0  0  0  0  0  0
   58.3470   28.8520   45.3440 N   0  0  0  0  0  0  0  0  0  0  0  0
   59.1270   29.5300   45.1890 H   0  0  0  0  0  0  0  0  0  0  0  0
  1  2  1  0
  2  3  2  0
  3  4  1  0
  3  5  1  0
  5  6  1  0
  6  7  1  0
  6  8  1  0
  6  9  1  0
  5 10  2  0
 10 11  1  0
 10 12  1  0
 12 13  1  0
 12 14  2  0
 14 15  1  0
 15 16  2  0
 16 17  1  0
 17 18  1  0
 18 19  2  0
 18 20  1  0
 20 21  1  0
 20 22  2  0
 22 23  1  0
 23 24  1  0
 23 25  1  0
 23 26  1  0
 26 27  1  0
 26 28  1  0
 26 29  1  0
 29 30  1  0
 29 31  1  0
 29 32  1  0
 22 33  1  0
 33 34  1  0
 14  2  1  0
 33 16  1  0
M  CHG  1  17  -1
M  END
>  <UniqueID>  (49) 
44

>  <SMILES>  (49) 
CCCc1cc(=O)[n-]/c(=N\c2ccc(C)cc2)[nH]1

>  <Energy>  (49) 
35.23286392199512

>  <Genealogy>  (49) 
CCCc1cc(=O)[n-]c(=Nc2ccc(C)cc2)[nH]1 (protonated)
CCCc1cc(=O)[n-]/c(=N\c2ccc(C)cc2)[nH]1 (cis-trans isomerization)
CCCc1cc(=O)[n-]/c(=N\c2ccc(C)cc2)[nH]1 (3D coordinates assigned)
CCCc1cc(=O)[n-]/c(=N\c2ccc(C)cc2)[nH]1 (optimized conformer: 35.23286392199512 kcal/mol)

>  <smiles>  (49) 
CCCc1cc(=O)[nH]c(=Nc2ccc(C)cc2)[nH]1

>  <score_type>  (49) 
oracle

>  <origin>  (49) 
adg

>  <m_score__min__energy>  (49) 
-8.3900000000000006

>  <m_primary>  (49) 
energy

$$$$
49:0
     RDKit          3D

 51 54  0  0  0  0  0  0  0  0999 V2000
   57.0550   32.2370   52.1580 C   0  0  0  0  0  0  0  0  0  0  0  0
   58.4990   32.4370   51.7690 C   0  0  0  0  0  0  0  0  0  0  0  0
   58.9280   33.8840   51.9730 C   0  0  0  0  0  0  0  0  0  0  0  0
   58.7820   31.9950   50.4080 N   0  0  0  0  0  0  0  0  0  0  0  0
   58.3390   32.5630   49.2950 N   0  0  0  0  0  0  0  0  0  0  0  0
   58.7930   31.9030   48.2370 C   0  0  0  0  0  0  0  0  0  0  0  0
   58.5630   32.1600   46.8000 C   0  0  0  0  0  0  0  0  0  0  0  0
   57.8360   31.2600   46.0480 C   0  0  0  0  0  0  0  0  0  0  0  0
   57.6030   31.4390   44.6870 C   0  0  0  0  0  0  0  0  0  0  0  0
   56.6780   30.2770   43.7740 S   0  0  0  0  0  0  0  0  0  0  0  0
   57.4460   28.6760   43.7580 C   0  0  0  0  0  0  0  0  0  0  0  0
   56.4710   30.7920   42.3800 O   0  0  0  0  0  0  0  0  0  0  0  0
   55.3490   30.0930   44.4910 O   0  0  0  0  0  0  0  0  0  0  0  0
   58.1410   32.5730   44.1150 C   0  0  0  0  0  0  0  0  0  0  0  0
   58.8710   33.4780   44.8600 C   0  0  0  0  0  0  0  0  0  0  0  0
   59.0990   33.2890   46.2280 C   0  0  0  0  0  0  0  0  0  0  0  0
   59.8310   34.2390   46.8720 O   0  0  0  0  0  0  0  0  0  0  0  0
   61.0230   34.0330   47.5300 C   0  0  0  0  0  0  0  0  0  0  0  0
   62.1020   33.6120   46.7550 C   0  0  0  0  0  0  0  0  0  0  0  0
   63.3480   33.3740   47.2980 C   0  0  0  0  0  0  0  0  0  0  0  0
   63.5430   33.5580   48.6640 C   0  0  0  0  0  0  0  0  0  0  0  0
   62.4650   33.9770   49.4300 C   0  0  0  0  0  0  0  0  0  0  0  0
   61.2210   34.2130   48.8790 C   0  0  0  0  0  0  0  0  0  0  0  0
   59.5650   30.8570   48.7420 C   0  0  0  0  0  0  0  0  0  0  0  0
   60.2940   29.8300   48.1840 C   0  0  0  0  0  0  0  0  0  0  0  0
   60.3510   29.6900   46.9040 N   0  0  0  0  0  0  0  0  0  0  0  0
   60.9700   28.9200   48.9160 N   0  0  0  0  0  0  0  0  0  0  0  0
   60.9370   29.0150   50.2550 C   0  0  0  0  0  0  0  0  0  0  0  0
   60.2330   30.0080   50.8230 N   0  0  0  0  0  0  0  0  0  0  0  0
   59.5480   30.9310   50.1200 C   0  0  0  0  0  0  0  0  0  0  0  0
   56.9689   32.2251   53.2546 H   0  0  0  0  0  0  0  0  0  0  0  0
   56.4484   33.0597   51.7515 H   0  0  0  0  0  0  0  0  0  0  0  0
   56.6949   31.2804   51.7515 H   0  0  0  0  0  0  0  0  0  0  0  0
   59.0949   31.8000   52.4391 H   0  0  0  0  0  0  0  0  0  0  0  0
   58.9918   34.0992   53.0499 H   0  0  0  0  0  0  0  0  0  0  0  0
   59.9121   34.0437   51.5082 H   0  0  0  0  0  0  0  0  0  0  0  0
   58.1899   34.5543   51.5082 H   0  0  0  0  0  0  0  0  0  0  0  0
   57.4250   30.3674   46.5424 H   0  0  0  0  0  0  0  0  0  0  0  0
   57.6086   28.3370   44.7917 H   0  0  0  0  0  0  0  0  0  0  0  0
   56.7928   27.9612   43.2362 H   0  0  0  0  0  0  0  0  0  0  0  0
   58.4124   28.7381   43.2362 H   0  0  0  0  0  0  0  0  0  0  0  0
   57.9852   32.7605   43.0424 H   0  0  0  0  0  0  0  0  0  0  0  0
   59.2837   34.3699   44.3659 H   0  0  0  0  0  0  0  0  0  0  0  0
   61.9556   33.4646   45.6748 H   0  0  0  0  0  0  0  0  0  0  0  0
   64.1788   33.0422   46.6579 H   0  0  0  0  0  0  0  0  0  0  0  0
   64.5256   33.3760   49.1237 H   0  0  0  0  0  0  0  0  0  0  0  0
   62.6056   34.1260   50.5107 H   0  0  0  0  0  0  0  0  0  0  0  0
   60.3895   34.5445   49.5182 H   0  0  0  0  0  0  0  0  0  0  0  0
   60.7580   30.3870   46.2520 H   0  0  0  0  0  0  0  0  0  0  0  0
   61.5150   28.1480   48.4390 H   0  0  0  0  0  0  0  0  0  0  0  0
   61.4794   28.2891   50.8786 H   0  0  0  0  0  0  0  0  0  0  0  0
  1  2  1  0
  2  3  1  0
  2  4  1  0
  4  5  1  0
  5  6  2  0
  6  7  1  0
  7  8  2  0
  8  9  1  0
  9 10  1  0
 10 11  1  0
 10 12  2  0
 10 13  2  0
  9 14  2  0
 14 15  1  0
 15 16  2  0
 16 17  1  0
 17 18  1  0
 18 19  2  0
 19 20  1  0
 20 21  2  0
 21 22  1  0
 22 23  2  0
  6 24  1  0
 24 25  1  0
 25 26  2  3
 25 27  1  0
 27 28  1  0
 28 29  2  0
 29 30  1  0
 30  4  1  0
 16  7  1  0
 23 18  1  0
 30 24  2  0
  1 31  1  0
  1 32  1  0
  1 33  1  0
  2 34  1  0
  3 35  1  0
  3 36  1  0
  3 37  1  0
  8 38  1  0
 11 39  1  0
 11 40  1  0
 11 41  1  0
 14 42  1  0
 15 43  1  0
 19 44  1  0
 20 45  1  0
 21 46  1  0
 22 47  1  0
 23 48  1  0
 26 49  1  0
 27 50  1  0
 28 51  1  0
M  END
>  <smiles>  (50) 
CC(C)n1nc(-c2cc(S(C)(=O)=O)ccc2Oc2ccccc2)c2c(=N)[nH]cnc21

>  <score_type>  (50) 
oracle

>  <origin>  (50) 
adg

>  <m_score__min__energy>  (50) 
-8.4299999999999997

>  <m_primary>  (50) 
energy

$$$$
50:0
     RDKit          3D

 38 40  0  0  0  0  0  0  0  0999 V2000
   55.6550   29.2220   44.8820 O   0  0  0  0  0  0  0  0  0  0  0  0
   56.3220   30.0030   44.1540 C   0  0  0  0  0  0  0  0  0  0  0  0
   56.0860   30.1640   42.7770 N   0  0  0  0  0  0  0  0  0  0  0  0
   57.0450   31.1340   42.2670 C   0  0  0  0  0  0  0  0  0  0  0  0
   57.9230   31.5410   43.4770 C   0  0  0  0  0  0  0  0  0  0  0  0
   57.3880   30.8100   44.6210 N   0  0  0  0  0  0  0  0  0  0  0  0
   57.9580   30.8490   45.9740 C   0  0  2  0  0  0  0  0  0  0  0  0
   58.6570   32.1760   46.1830 C   0  0  0  0  0  0  0  0  0  0  0  0
   57.9310   33.3750   46.1220 C   0  0  0  0  0  0  0  0  0  0  0  0
   58.5990   34.5920   46.2760 C   0  0  0  0  0  0  0  0  0  0  0  0
   59.9800   34.6050   46.4780 C   0  0  0  0  0  0  0  0  0  0  0  0
   60.6750   33.3950   46.5160 C   0  0  0  0  0  0  0  0  0  0  0  0
   60.0070   32.2210   46.3630 N   0  0  0  0  0  0  0  0  0  0  0  0
   58.8820   29.6260   46.2380 C   0  0  1  0  0  0  0  0  0  0  0  0
   58.1720   28.5590   47.1030 C   0  0  0  0  0  0  0  0  0  0  0  0
   59.1050   27.4010   47.3200 C   0  0  0  0  0  0  0  0  0  0  0  0
   59.8010   26.9180   46.2860 C   0  0  0  0  0  0  0  0  0  0  0  0
   59.5680   27.4720   44.9060 C   0  0  0  0  0  0  0  0  0  0  0  0
   59.4130   29.0120   44.9010 C   0  0  0  0  0  0  0  0  0  0  0  0
   55.3470   29.6820   42.2210 H   0  0  0  0  0  0  0  0  0  0  0  0
   57.6653   30.6810   41.4796 H   0  0  0  0  0  0  0  0  0  0  0  0
   56.5407   32.0051   41.8233 H   0  0  0  0  0  0  0  0  0  0  0  0
   58.9720   31.2611   43.3003 H   0  0  0  0  0  0  0  0  0  0  0  0
   57.9013   32.6278   43.6453 H   0  0  0  0  0  0  0  0  0  0  0  0
   57.1500   30.7722   46.7165 H   0  0  0  0  0  0  0  0  0  0  0  0
   56.8440   33.3568   45.9542 H   0  0  0  0  0  0  0  0  0  0  0  0
   58.0382   35.5376   46.2382 H   0  0  0  0  0  0  0  0  0  0  0  0
   60.5146   35.5578   46.6058 H   0  0  0  0  0  0  0  0  0  0  0  0
   61.7642   33.3915   46.6699 H   0  0  0  0  0  0  0  0  0  0  0  0
   59.7525   29.9874   46.8052 H   0  0  0  0  0  0  0  0  0  0  0  0
   57.8956   28.9962   48.0738 H   0  0  0  0  0  0  0  0  0  0  0  0
   57.2630   28.2113   46.5902 H   0  0  0  0  0  0  0  0  0  0  0  0
   59.2141   26.9553   48.3197 H   0  0  0  0  0  0  0  0  0  0  0  0
   60.5408   26.1192   46.4429 H   0  0  0  0  0  0  0  0  0  0  0  0
   60.4232   27.2020   44.2690 H   0  0  0  0  0  0  0  0  0  0  0  0
   58.6288   27.0415   44.5284 H   0  0  0  0  0  0  0  0  0  0  0  0
   60.3981   29.4537   44.6899 H   0  0  0  0  0  0  0  0  0  0  0  0
   58.6583   29.2431   44.1348 H   0  0  0  0  0  0  0  0  0  0  0  0
  1  2  2  0
  2  3  1  0
  3  4  1  0
  4  5  1  0
  5  6  1  0
  6  7  1  0
  7  8  1  0
  8  9  2  0
  9 10  1  0
 10 11  2  0
 11 12  1  0
 12 13  2  0
  7 14  1  0
 14 15  1  0
 15 16  1  0
 16 17  2  0
 17 18  1  0
 18 19  1  0
  6  2  1  0
 13  8  1  0
 19 14  1  0
  3 20  1  0
  4 21  1  0
  4 22  1  0
  5 23  1  0
  5 24  1  0
  7 25  1  1
  9 26  1  0
 10 27  1  0
 11 28  1  0
 12 29  1  0
 14 30  1  1
 15 31  1  0
 15 32  1  0
 16 33  1  0
 17 34  1  0
 18 35  1  0
 18 36  1  0
 19 37  1  0
 19 38  1  0
M  END
>  <UniqueID>  (51) 
45

>  <SMILES>  (51) 
O=C1NCCN1[C@H](c1ccccn1)[C@H]1CC=CCC1

>  <Energy>  (51) 
52.680133048479505

>  <Genealogy>  (51) 
O=C1NCCN1[C@H](c1ccccn1)[C@H]1CC=CCC1 (chirality)
O=C1NCCN1[C@H](c1ccccn1)[C@H]1CC=CCC1 (3D coordinates assigned)
O=C1NCCN1[C@H](c1ccccn1)[C@H]1CC=CCC1 (nonaromatic ring conformer: 52.680133048479505 kcal/mol)

>  <smiles>  (51) 
O=C1NCCN1C(c1ccccn1)C1CC=CCC1

>  <score_type>  (51) 
oracle

>  <origin>  (51) 
adg

>  <m_score__min__energy>  (51) 
-7.4800000000000004

>  <m_primary>  (51) 
energy

$$$$
51:0
     RDKit          3D

 34 35  0  0  0  0  0  0  0  0999 V2000
   61.9890   33.7710   47.2210 C   0  0  0  0  0  0  0  0  0  0  0  0
   60.7170   34.2660   47.8380 C   0  0  0  0  0  0  0  0  0  0  0  0
   60.6970   34.5230   49.0700 O   0  0  0  0  0  0  0  0  0  0  0  0
   59.5090   34.4170   47.0790 N   0  0  0  0  0  0  0  0  0  0  0  0
   58.8100   33.3860   46.3680 C   0  0  0  0  0  0  0  0  0  0  0  0
   57.7130   33.6750   45.5380 C   0  0  0  0  0  0  0  0  0  0  0  0
   57.0340   32.6430   44.8840 C   0  0  0  0  0  0  0  0  0  0  0  0
   57.4310   31.3100   45.0670 C   0  0  0  0  0  0  0  0  0  0  0  0
   56.5600   29.9980   44.2800 S   0  0  0  0  0  0  0  0  0  0  0  0
   56.4220   30.3100   42.8160 O   0  0  0  0  0  0  0  0  0  0  0  0
   55.1870   29.8390   44.8700 O   0  0  0  0  0  0  0  0  0  0  0  0
   57.4370   28.5150   44.4670 N   0  0  0  0  0  0  0  0  0  0  0  0
   57.2450   27.6460   45.5830 C   0  0  0  0  0  0  0  0  0  0  0  0
   58.3920   27.6260   46.7530 S   0  0  0  0  0  0  0  0  0  0  0  0
   55.9450   27.0920   45.8370 N   0  0  0  0  0  0  0  0  0  0  0  0
   55.6300   25.8380   45.9970 C   0  0  0  0  0  0  0  0  0  0  0  0
   56.5670   24.8650   46.4040 C   0  0  0  0  0  0  0  0  0  0  0  0
   56.1610   23.5350   46.5390 C   0  0  0  0  0  0  0  0  0  0  0  0
   54.8400   23.1780   46.2610 C   0  0  0  0  0  0  0  0  0  0  0  0
   54.2730   21.3630   46.4360 Br  0  0  0  0  0  0  0  0  0  0  0  0
   53.9420   24.1620   45.8440 C   0  0  0  0  0  0  0  0  0  0  0  0
   54.3560   25.4510   45.7200 N   0  0  0  0  0  0  0  0  0  0  0  0
   58.5010   31.0190   45.9210 C   0  0  0  0  0  0  0  0  0  0  0  0
   59.1820   32.0520   46.5730 C   0  0  0  0  0  0  0  0  0  0  0  0
   62.6985   33.4949   48.0150 H   0  0  0  0  0  0  0  0  0  0  0  0
   61.7756   32.8903   46.5975 H   0  0  0  0  0  0  0  0  0  0  0  0
   62.4270   34.5643   46.5975 H   0  0  0  0  0  0  0  0  0  0  0  0
   57.3877   34.7171   45.4027 H   0  0  0  0  0  0  0  0  0  0  0  0
   56.1858   32.8768   44.2238 H   0  0  0  0  0  0  0  0  0  0  0  0
   57.6083   25.1511   46.6133 H   0  0  0  0  0  0  0  0  0  0  0  0
   56.8813   22.7698   46.8640 H   0  0  0  0  0  0  0  0  0  0  0  0
   52.8997   23.8945   45.6158 H   0  0  0  0  0  0  0  0  0  0  0  0
   58.8073   29.9745   46.0799 H   0  0  0  0  0  0  0  0  0  0  0  0
   60.0151   31.8149   47.2511 H   0  0  0  0  0  0  0  0  0  0  0  0
  1  2  1  0
  2  3  2  0
  2  4  1  0
  4  5  1  0
  5  6  2  0
  6  7  1  0
  7  8  2  0
  8  9  1  0
  9 10  2  0
  9 11  2  0
  9 12  1  0
 12 13  1  0
 13 14  2  0
 13 15  1  0
 15 16  2  3
 16 17  1  0
 17 18  2  0
 18 19  1  0
 19 20  1  0
 19 21  2  0
 21 22  1  0
  8 23  1  0
 23 24  2  0
 24  5  1  0
 22 16  1  0
  1 25  1  0
  1 26  1  0
  1 27  1  0
  6 28  1  0
  7 29  1  0
 17 30  1  0
 18 31  1  0
 21 32  1  0
 23 33  1  0
 24 34  1  0
M  CHG  3   4  -1  12  -1  22  -1
M  END
>  <UniqueID>  (52) 
46

>  <SMILES>  (52) 
CC(=O)[N-]c1ccc(S(=O)(=O)[N-]C(=S)N=c2ccc(Br)c[n-]2)cc1

>  <Energy>  (52) 
48.474719895014154

>  <Genealogy>  (52) 
CC(=O)[N-]c1ccc(S(=O)(=O)[N-]C(=S)N=c2ccc(Br)c[n-]2)cc1 (protonated)
CC(=O)[N-]c1ccc(S(=O)(=O)[N-]C(=S)N=c2ccc(Br)c[n-]2)cc1 (3D coordinates assigned)
CC(=O)[N-]c1ccc(S(=O)(=O)[N-]C(=S)N=c2ccc(Br)c[n-]2)cc1 (optimized conformer: 48.474719895014154 kcal/mol)

>  <smiles>  (52) 
CC(=O)Nc1ccc(S(=O)(=O)NC(=S)N=c2ccc(Br)c[nH]2)cc1

>  <score_type>  (52) 
oracle

>  <origin>  (52) 
adg

>  <m_score__min__energy>  (52) 
-11.550000000000001

>  <m_primary>  (52) 
energy

$$$$
52:0
     RDKit          3D

 41 43  0  0  0  0  0  0  0  0999 V2000
   59.2250   25.1520   46.0170 C   0  0  0  0  0  0  0  0  0  0  0  0
   58.2810   24.0530   45.6160 C   0  0  0  0  0  0  0  0  0  0  0  0
   58.7680   22.9270   44.9290 C   0  0  0  0  0  0  0  0  0  0  0  0
   57.9010   21.9000   44.5500 C   0  0  0  0  0  0  0  0  0  0  0  0
   56.5400   21.9900   44.8460 C   0  0  0  0  0  0  0  0  0  0  0  0
   56.0430   23.1010   45.5310 C   0  0  0  0  0  0  0  0  0  0  0  0
   56.9110   24.1310   45.9420 C   0  0  0  0  0  0  0  0  0  0  0  0
   56.4120   25.2900   46.6290 N   0  0  0  0  0  0  0  0  0  0  0  0
   55.6550   26.3520   46.0430 C   0  0  0  0  0  0  0  0  0  0  0  0
   54.4000   26.2480   45.9880 O   0  0  0  0  0  0  0  0  0  0  0  0
   56.3180   27.4640   45.4280 N   0  0  0  0  0  0  0  0  0  0  0  0
   57.3680   28.2570   46.0020 C   0  0  0  0  0  0  0  0  0  0  0  0
   58.0050   27.8950   47.2020 C   0  0  0  0  0  0  0  0  0  0  0  0
   59.0380   28.6830   47.7180 C   0  0  0  0  0  0  0  0  0  0  0  0
   59.4510   29.8360   47.0370 C   0  0  0  0  0  0  0  0  0  0  0  0
   60.7410   30.8460   47.6830 S   0  0  0  0  0  0  0  0  0  0  0  0
   61.9130   30.8030   46.7440 O   0  0  0  0  0  0  0  0  0  0  0  0
   61.1770   30.3500   49.0340 O   0  0  0  0  0  0  0  0  0  0  0  0
   60.1860   32.4840   47.8340 N   0  0  0  0  0  0  0  0  0  0  0  0
   59.3680   33.0470   46.9990 C   0  0  0  0  0  0  0  0  0  0  0  0
   59.8310   33.8060   45.9660 N   0  0  0  0  0  0  0  0  0  0  0  0
   58.9750   34.4010   45.0960 C   0  0  0  0  0  0  0  0  0  0  0  0
   57.6000   34.2380   45.2530 C   0  0  0  0  0  0  0  0  0  0  0  0
   57.1410   33.4580   46.3130 C   0  0  0  0  0  0  0  0  0  0  0  0
   58.0280   32.8790   47.1630 N   0  0  0  0  0  0  0  0  0  0  0  0
   58.8380   30.1820   45.8270 C   0  0  0  0  0  0  0  0  0  0  0  0
   57.8070   29.3920   45.3100 C   0  0  0  0  0  0  0  0  0  0  0  0
   59.2750   25.2102   47.1143 H   0  0  0  0  0  0  0  0  0  0  0  0
   60.2267   24.9398   45.6151 H   0  0  0  0  0  0  0  0  0  0  0  0
   58.8641   26.1102   45.6151 H   0  0  0  0  0  0  0  0  0  0  0  0
   59.8389   22.8546   44.6885 H   0  0  0  0  0  0  0  0  0  0  0  0
   58.2909   21.0197   44.0179 H   0  0  0  0  0  0  0  0  0  0  0  0
   55.8572   21.1840   44.5391 H   0  0  0  0  0  0  0  0  0  0  0  0
   54.9675   23.1719   45.7507 H   0  0  0  0  0  0  0  0  0  0  0  0
   57.6891   26.9875   47.7373 H   0  0  0  0  0  0  0  0  0  0  0  0
   59.5277   28.3974   48.6606 H   0  0  0  0  0  0  0  0  0  0  0  0
   59.3664   35.0108   44.2684 H   0  0  0  0  0  0  0  0  0  0  0  0
   56.8935   34.7137   44.5568 H   0  0  0  0  0  0  0  0  0  0  0  0
   56.0609   33.3114   46.4610 H   0  0  0  0  0  0  0  0  0  0  0  0
   59.1685   31.0781   45.2814 H   0  0  0  0  0  0  0  0  0  0  0  0
   57.3376   29.6640   44.3531 H   0  0  0  0  0  0  0  0  0  0  0  0
  1  2  1  0
  2  3  2  0
  3  4  1  0
  4  5  2  0
  5  6  1  0
  6  7  2  0
  7  8  1  0
  8  9  1  0
  9 10  2  0
  9 11  1  0
 11 12  1  0
 12 13  2  0
 13 14  1  0
 14 15  2  0
 15 16  1  0
 16 17  2  0
 16 18  2  0
 16 19  1  0
 19 20  2  3
 20 21  1  0
 21 22  2  0
 22 23  1  0
 23 24  2  0
 24 25  1  0
 15 26  1  0
 26 27  2  0
  7  2  1  0
 27 12  1  0
 25 20  1  0
  1 28  1  0
  1 29  1  0
  1 30  1  0
  3 31  1  0
  4 32  1  0
  5 33  1  0
  6 34  1  0
 13 35  1  0
 14 36  1  0
 22 37  1  0
 23 38  1  0
 24 39  1  0
 26 40  1  0
 27 41  1  0
M  CHG  3   8  -1  11  -1  25  -1
M  END
>  <UniqueID>  (53) 
47

>  <SMILES>  (53) 
Cc1ccccc1[N-]C(=O)[N-]c1ccc(S(=O)(=O)N=c2nccc[n-]2)cc1

>  <Energy>  (53) 
54.51495909293591

>  <Genealogy>  (53) 
Cc1ccccc1[N-]C(=O)[N-]c1ccc(S(=O)(=O)N=c2nccc[n-]2)cc1 (protonated)
Cc1ccccc1[N-]C(=O)[N-]c1ccc(S(=O)(=O)N=c2nccc[n-]2)cc1 (3D coordinates assigned)
Cc1ccccc1[N-]C(=O)[N-]c1ccc(S(=O)(=O)N=c2nccc[n-]2)cc1 (optimized conformer: 54.51495909293591 kcal/mol)

>  <smiles>  (53) 
Cc1ccccc1NC(=O)Nc1ccc(S(=O)(=O)N=c2nccc[nH]2)cc1

>  <score_type>  (53) 
oracle

>  <origin>  (53) 
adg

>  <m_score__min__energy>  (53) 
-11.880000000000001

>  <m_primary>  (53) 
energy

$$$$
53:0
     RDKit          3D

 25 26  0  0  0  0  0  0  0  0999 V2000
   57.7410   22.0130   47.0620 O   0  0  0  0  0  0  0  0  0  0  0  0
   57.0460   23.1880   46.8010 C   0  0  0  0  0  0  0  0  0  0  0  0
   55.7130   23.1340   46.3880 C   0  0  0  0  0  0  0  0  0  0  0  0
   55.0150   24.3150   46.1200 C   0  0  0  0  0  0  0  0  0  0  0  0
   55.6460   25.5550   46.2650 C   0  0  0  0  0  0  0  0  0  0  0  0
   54.9330   26.7150   45.9860 O   0  0  0  0  0  0  0  0  0  0  0  0
   56.9880   25.6180   46.6910 C   0  0  0  0  0  0  0  0  0  0  0  0
   57.7030   26.9400   46.8200 C   0  0  0  0  0  0  0  0  0  0  0  0
   57.5620   27.7400   45.5530 C   0  0  0  0  0  0  0  0  0  0  0  0
   57.0190   29.0340   45.5850 C   0  0  0  0  0  0  0  0  0  0  0  0
   56.8600   29.7620   44.4010 C   0  0  0  0  0  0  0  0  0  0  0  0
   57.2350   29.1990   43.1780 C   0  0  0  0  0  0  0  0  0  0  0  0
   57.7690   27.9080   43.1360 C   0  0  0  0  0  0  0  0  0  0  0  0
   57.9300   27.1780   44.3180 C   0  0  0  0  0  0  0  0  0  0  0  0
   57.6840   24.4230   46.9490 C   0  0  0  0  0  0  0  0  0  0  0  0
   55.2120   22.1614   46.2735 H   0  0  0  0  0  0  0  0  0  0  0  0
   53.9655   24.2691   45.7938 H   0  0  0  0  0  0  0  0  0  0  0  0
   57.2683   27.5068   47.6565 H   0  0  0  0  0  0  0  0  0  0  0  0
   58.7707   26.7510   47.0050 H   0  0  0  0  0  0  0  0  0  0  0  0
   56.7172   29.4776   46.5453 H   0  0  0  0  0  0  0  0  0  0  0  0
   56.4396   30.7780   44.4326 H   0  0  0  0  0  0  0  0  0  0  0  0
   57.1098   29.7724   42.2477 H   0  0  0  0  0  0  0  0  0  0  0  0
   58.0628   27.4658   42.1726 H   0  0  0  0  0  0  0  0  0  0  0  0
   58.3461   26.1604   44.2812 H   0  0  0  0  0  0  0  0  0  0  0  0
   58.7358   24.4606   47.2689 H   0  0  0  0  0  0  0  0  0  0  0  0
  1  2  1  0
  2  3  2  0
  3  4  1  0
  4  5  2  0
  5  6  1  0
  5  7  1  0
  7  8  1  0
  8  9  1  0
  9 10  2  0
 10 11  1  0
 11 12  2  0
 12 13  1  0
 13 14  2  0
  7 15  2  0
 15  2  1  0
 14  9  1  0
  3 16  1  0
  4 17  1  0
  8 18  1  0
  8 19  1  0
 10 20  1  0
 11 21  1  0
 12 22  1  0
 13 23  1  0
 14 24  1  0
 15 25  1  0
M  CHG  2   1  -1   6  -1
M  END
>  <UniqueID>  (54) 
48

>  <SMILES>  (54) 
[O-]c1ccc([O-])c(Cc2ccccc2)c1

>  <Energy>  (54) 
25.232689404025965

>  <Genealogy>  (54) 
[O-]c1ccc([O-])c(Cc2ccccc2)c1 (protonated)
[O-]c1ccc([O-])c(Cc2ccccc2)c1 (3D coordinates assigned)
[O-]c1ccc([O-])c(Cc2ccccc2)c1 (optimized conformer: 25.232689404025965 kcal/mol)

>  <smiles>  (54) 
Oc1ccc(O)c(Cc2ccccc2)c1

>  <score_type>  (54) 
oracle

>  <origin>  (54) 
adg

>  <m_score__min__energy>  (54) 
-10.65

>  <m_primary>  (54) 
energy

$$$$
54:0
     RDKit          3D

 47 49  0  0  0  0  0  0  0  0999 V2000
   56.2640   20.0060   43.9630 C   0  0  0  0  0  0  0  0  0  0  0  0
   56.0730   21.2330   43.2660 O   0  0  0  0  0  0  0  0  0  0  0  0
   56.3150   22.5020   43.8140 C   0  0  0  0  0  0  0  0  0  0  0  0
   56.7660   23.5840   43.0390 C   0  0  0  0  0  0  0  0  0  0  0  0
   56.9940   24.8280   43.6310 C   0  0  0  0  0  0  0  0  0  0  0  0
   56.7760   25.0190   45.0060 C   0  0  0  0  0  0  0  0  0  0  0  0
   57.0080   26.3540   45.6040 C   0  0  0  0  0  0  0  0  0  0  0  0
   56.0180   27.0630   45.9310 O   0  0  0  0  0  0  0  0  0  0  0  0
   58.3450   26.8600   45.7660 N   0  0  0  0  0  0  0  0  0  0  0  0
   58.6640   28.0760   46.4610 C   0  0  0  0  0  0  0  0  0  0  0  0
   59.4310   28.0700   47.6390 C   0  0  0  0  0  0  0  0  0  0  0  0
   59.7520   29.2700   48.2800 C   0  0  0  0  0  0  0  0  0  0  0  0
   59.3320   30.4970   47.7440 C   0  0  0  0  0  0  0  0  0  0  0  0
   59.7030   31.7900   48.4190 C   0  0  0  0  0  0  0  0  0  0  0  0
   60.2230   32.7620   47.4520 N   0  0  0  0  0  0  0  0  0  0  0  0
   59.5340   33.6030   46.6540 C   0  0  0  0  0  0  0  0  0  0  0  0
   57.7560   33.8340   46.6850 S   0  0  0  0  0  0  0  0  0  0  0  0
   57.6090   33.8440   44.8710 C   0  0  0  0  0  0  0  0  0  0  0  0
   60.3430   34.2420   45.7870 N   0  0  0  0  0  0  0  0  0  0  0  0
   61.5750   33.8190   46.0260 N   0  0  0  0  0  0  0  0  0  0  0  0
   61.4960   32.9300   47.0340 C   0  0  0  0  0  0  0  0  0  0  0  0
   62.9240   32.0620   47.6880 S   0  0  0  0  0  0  0  0  0  0  0  0
   63.7840   33.5960   48.1610 C   0  0  0  0  0  0  0  0  0  0  0  0
   58.5720   30.5030   46.5650 C   0  0  0  0  0  0  0  0  0  0  0  0
   58.2520   29.3040   45.9220 C   0  0  0  0  0  0  0  0  0  0  0  0
   56.3210   23.9310   45.7830 C   0  0  0  0  0  0  0  0  0  0  0  0
   56.0730   24.0650   47.5220 Cl  0  0  0  0  0  0  0  0  0  0  0  0
   56.0970   22.6870   45.1820 C   0  0  0  0  0  0  0  0  0  0  0  0
   56.2351   20.1916   45.0468 H   0  0  0  0  0  0  0  0  0  0  0  0
   55.4648   19.3011   43.6903 H   0  0  0  0  0  0  0  0  0  0  0  0
   57.2397   19.5774   43.6903 H   0  0  0  0  0  0  0  0  0  0  0  0
   56.9402   23.4504   41.9611 H   0  0  0  0  0  0  0  0  0  0  0  0
   57.3480   25.6674   43.0144 H   0  0  0  0  0  0  0  0  0  0  0  0
   59.1330   26.3450   45.3130 H   0  0  0  0  0  0  0  0  0  0  0  0
   59.7807   27.1153   48.0589 H   0  0  0  0  0  0  0  0  0  0  0  0
   60.3378   29.2524   49.2109 H   0  0  0  0  0  0  0  0  0  0  0  0
   58.8103   32.2100   48.9054 H   0  0  0  0  0  0  0  0  0  0  0  0
   60.4877   31.5830   49.1616 H   0  0  0  0  0  0  0  0  0  0  0  0
   56.5481   33.9162   44.5895 H   0  0  0  0  0  0  0  0  0  0  0  0
   58.1560   34.7070   44.4636 H   0  0  0  0  0  0  0  0  0  0  0  0
   58.0341   32.9149   44.4636 H   0  0  0  0  0  0  0  0  0  0  0  0
   63.8254   33.6699   49.2577 H   0  0  0  0  0  0  0  0  0  0  0  0
   64.8064   33.5831   47.7555 H   0  0  0  0  0  0  0  0  0  0  0  0
   63.2396   34.4615   47.7555 H   0  0  0  0  0  0  0  0  0  0  0  0
   58.2254   31.4581   46.1435 H   0  0  0  0  0  0  0  0  0  0  0  0
   57.6731   29.3233   44.9869 H   0  0  0  0  0  0  0  0  0  0  0  0
   55.7448   21.8439   45.7944 H   0  0  0  0  0  0  0  0  0  0  0  0
  1  2  1  0
  2  3  1  0
  3  4  2  0
  4  5  1  0
  5  6  2  0
  6  7  1  0
  7  8  2  0
  7  9  1  0
  9 10  1  0
 10 11  2  0
 11 12  1  0
 12 13  2  0
 13 14  1  0
 14 15  1  0
 15 16  1  0
 16 17  1  0
 17 18  1  0
 16 19  2  0
 19 20  1  0
 20 21  2  0
 21 22  1  0
 22 23  1  0
 13 24  1  0
 24 25  2  0
  6 26  1  0
 26 27  1  0
 26 28  2  0
 28  3  1  0
 25 10  1  0
 21 15  1  0
  1 29  1  0
  1 30  1  0
  1 31  1  0
  4 32  1  0
  5 33  1  0
  9 34  1  0
 11 35  1  0
 12 36  1  0
 14 37  1  0
 14 38  1  0
 18 39  1  0
 18 40  1  0
 18 41  1  0
 23 42  1  0
 23 43  1  0
 23 44  1  0
 24 45  1  0
 25 46  1  0
 28 47  1  0
M  END
>  <UniqueID>  (55) 
49

>  <SMILES>  (55) 
COc1ccc(C(=O)Nc2ccc(Cn3c(SC)nnc3SC)cc2)c(Cl)c1

>  <Energy>  (55) 
83.65326579798337

>  <Genealogy>  (55) 
COc1ccc(C(=O)Nc2ccc(Cn3c(SC)nnc3SC)cc2)c(Cl)c1 (3D coordinates assigned)
COc1ccc(C(=O)Nc2ccc(Cn3c(SC)nnc3SC)cc2)c(Cl)c1 (optimized conformer: 83.65326579798337 kcal/mol)

>  <smiles>  (55) 
COc1ccc(C(=O)Nc2ccc(Cn3c(SC)nnc3SC)cc2)c(Cl)c1

>  <score_type>  (55) 
oracle

>  <origin>  (55) 
adg

>  <m_score__min__energy>  (55) 
-8.0299999999999994

>  <m_primary>  (55) 
energy

$$$$
55:0
     RDKit          3D

 45 48  0  0  0  0  0  0  0  0999 V2000
   61.4183   29.7643   45.3118 H   0  0  0  0  0  0  0  0  0  0  0  0
   60.6770   29.7360   46.1240 C   0  0  0  0  0  0  0  0  0  0  0  0
   60.8040   30.6290   47.1140 C   0  0  0  0  0  0  0  0  0  0  0  0
   62.1520   31.8170   47.1170 S   0  0  0  0  0  0  0  0  0  0  0  0
   61.5780   32.3900   48.7320 C   0  0  0  0  0  0  0  0  0  0  0  0
   62.2330   33.2220   49.4850 N   0  0  0  0  0  0  0  0  0  0  0  0
   63.5940   33.0830   49.9100 C   0  0  0  0  0  0  0  0  0  0  0  0
   64.1690   33.6360   51.3860 S   0  0  0  0  0  0  0  0  0  0  0  0
   65.7670   33.2340   51.0360 C   0  0  0  0  0  0  0  0  0  0  0  0
   66.6285   33.3675   51.7068 H   0  0  0  0  0  0  0  0  0  0  0  0
   65.8070   32.7040   49.7510 C   0  0  0  0  0  0  0  0  0  0  0  0
   66.7409   32.3678   49.2769 H   0  0  0  0  0  0  0  0  0  0  0  0
   64.6020   32.6340   49.1270 N   0  0  0  0  0  0  0  0  0  0  0  0
   64.4920   32.3160   48.1390 H   0  0  0  0  0  0  0  0  0  0  0  0
   60.4200   31.7280   49.2250 N   0  0  0  0  0  0  0  0  0  0  0  0
   59.9780   31.9200   50.1530 H   0  0  0  0  0  0  0  0  0  0  0  0
   59.9870   30.7230   48.3280 C   0  0  0  0  0  0  0  0  0  0  0  0
   59.0140   29.9700   48.5980 O   0  0  0  0  0  0  0  0  0  0  0  0
   59.6130   28.7170   46.0460 C   0  0  0  0  0  0  0  0  0  0  0  0
   59.6630   27.5740   46.8610 C   0  0  0  0  0  0  0  0  0  0  0  0
   60.5256   27.4097   47.5235 H   0  0  0  0  0  0  0  0  0  0  0  0
   58.6190   26.6450   46.8320 C   0  0  0  0  0  0  0  0  0  0  0  0
   58.6651   25.7471   47.4658 H   0  0  0  0  0  0  0  0  0  0  0  0
   57.5180   26.8550   46.0000 C   0  0  0  0  0  0  0  0  0  0  0  0
   56.7005   26.1194   45.9754 H   0  0  0  0  0  0  0  0  0  0  0  0
   57.4520   27.9980   45.1980 C   0  0  0  0  0  0  0  0  0  0  0  0
   56.5845   28.1575   44.5408 H   0  0  0  0  0  0  0  0  0  0  0  0
   58.4920   28.9450   45.2290 C   0  0  0  0  0  0  0  0  0  0  0  0
   58.4750   30.0960   44.4290 O   0  0  0  0  0  0  0  0  0  0  0  0
   57.4600   31.0580   44.3860 C   0  0  0  0  0  0  0  0  0  0  0  0
   56.2890   30.7950   44.7710 O   0  0  0  0  0  0  0  0  0  0  0  0
   57.8060   32.4460   43.9450 C   0  0  0  0  0  0  0  0  0  0  0  0
   58.5593   32.3984   43.1448 H   0  0  0  0  0  0  0  0  0  0  0  0
   56.9005   32.9458   43.5704 H   0  0  0  0  0  0  0  0  0  0  0  0
   58.3600   33.2240   45.1080 C   0  0  0  0  0  0  0  0  0  0  0  0
   57.9640   32.9120   46.4210 C   0  0  0  0  0  0  0  0  0  0  0  0
   57.2974   32.0562   46.6031 H   0  0  0  0  0  0  0  0  0  0  0  0
   58.4140   33.6850   47.4960 C   0  0  0  0  0  0  0  0  0  0  0  0
   58.1016   33.4364   48.5210 H   0  0  0  0  0  0  0  0  0  0  0  0
   59.2610   34.7740   47.2680 C   0  0  0  0  0  0  0  0  0  0  0  0
   59.6177   35.3794   48.1143 H   0  0  0  0  0  0  0  0  0  0  0  0
   59.6550   35.0940   45.9650 C   0  0  0  0  0  0  0  0  0  0  0  0
   60.3228   35.9499   45.7876 H   0  0  0  0  0  0  0  0  0  0  0  0
   59.2010   34.3270   44.8870 C   0  0  0  0  0  0  0  0  0  0  0  0
   59.5037   34.5886   43.8624 H   0  0  0  0  0  0  0  0  0  0  0  0
  1  2  1  0
  2  3  2  3
  3  4  1  0
  4  5  1  0
  5  6  2  0
  6  7  1  0
  7  8  1  0
  8  9  1  0
  9 10  1  0
  9 11  2  0
 11 12  1  0
 11 13  1  0
 13 14  1  0
  5 15  1  0
 15 16  1  0
 15 17  1  0
 17 18  2  0
  2 19  1  0
 19 20  2  0
 20 21  1  0
 20 22  1  0
 22 23  1  0
 22 24  2  0
 24 25  1  0
 24 26  1  0
 26 27  1  0
 26 28  2  0
 28 29  1  0
 29 30  1  0
 30 31  2  0
 30 32  1  0
 32 33  1  0
 32 34  1  0
 32 35  1  0
 35 36  2  0
 36 37  1  0
 36 38  1  0
 38 39  1  0
 38 40  2  0
 40 41  1  0
 40 42  1  0
 42 43  1  0
 42 44  2  0
 44 45  1  0
 17  3  1  0
 28 19  1  0
 44 35  1  0
 13  7  2  0
M  CHG  1  13   1
M  END
>  <UniqueID>  (56) 
50

>  <SMILES>  (56) 
O=C(Cc1ccccc1)Oc1ccccc1C=C1S/C(=N\c2[nH+]ccs2)NC1=O

>  <Energy>  (56) 
112.21590765433298

>  <Genealogy>  (56) 
O=C(Cc1ccccc1)Oc1ccccc1C=C1SC(=Nc2[nH+]ccs2)NC1=O (protonated)
O=C(Cc1ccccc1)Oc1ccccc1C=C1S/C(=N\c2[nH+]ccs2)NC1=O (cis-trans isomerization)
O=C(Cc1ccccc1)Oc1ccccc1C=C1S/C(=N\c2[nH+]ccs2)NC1=O (3D coordinates assigned)
O=C(Cc1ccccc1)Oc1ccccc1C=C1S/C(=N\c2[nH+]ccs2)NC1=O (nonaromatic ring conformer: 112.21590765433298 kcal/mol)

>  <smiles>  (56) 
O=C(Cc1ccccc1)Oc1ccccc1C=C1SC(=Nc2nccs2)NC1=O

>  <score_type>  (56) 
oracle

>  <origin>  (56) 
adg

>  <m_score__min__energy>  (56) 
-7.9800000000000004

>  <m_primary>  (56) 
energy

$$$$
56:0
     RDKit          3D

 37 39  0  0  0  0  0  0  0  0999 V2000
   67.4700   31.5130   51.3610 N   0  0  0  0  0  0  0  0  0  0  0  0
   66.4470   31.7430   50.8710 C   0  0  0  0  0  0  0  0  0  0  0  0
   65.1750   32.0300   50.2630 C   0  0  0  0  0  0  0  0  0  0  0  0
   65.0470   33.0820   49.3520 C   0  0  0  0  0  0  0  0  0  0  0  0
   63.8070   33.3500   48.7670 C   0  0  0  0  0  0  0  0  0  0  0  0
   62.6930   32.5600   49.1050 C   0  0  0  0  0  0  0  0  0  0  0  0
   61.3540   32.8000   48.5080 C   0  0  0  0  0  0  0  0  0  0  0  0
   60.8070   34.0950   48.4270 C   0  0  0  0  0  0  0  0  0  0  0  0
   59.5450   34.2990   47.8640 C   0  0  0  0  0  0  0  0  0  0  0  0
   58.7960   33.2150   47.3800 C   0  0  0  0  0  0  0  0  0  0  0  0
   57.5080   33.4320   46.7650 N   0  0  0  0  0  0  0  0  0  0  0  0
   57.6460   33.8000   45.3460 C   0  0  0  0  0  0  0  0  0  0  0  0
   57.3780   32.6300   44.4360 C   0  0  0  0  0  0  0  0  0  0  0  0
   57.7700   32.6650   43.0910 C   0  0  0  0  0  0  0  0  0  0  0  0
   57.4650   31.5850   42.2610 C   0  0  0  0  0  0  0  0  0  0  0  0
   56.7690   30.4880   42.7750 C   0  0  0  0  0  0  0  0  0  0  0  0
   56.3870   30.4900   44.1180 C   0  0  0  0  0  0  0  0  0  0  0  0
   56.6930   31.5520   44.9110 N   0  0  0  0  0  0  0  0  0  0  0  0
   59.3350   31.9210   47.4670 C   0  0  0  0  0  0  0  0  0  0  0  0
   60.5980   31.7150   48.0290 C   0  0  0  0  0  0  0  0  0  0  0  0
   62.8550   31.5340   49.9900 N   0  0  0  0  0  0  0  0  0  0  0  0
   64.0520   31.2560   50.5700 C   0  0  0  0  0  0  0  0  0  0  0  0
   65.9215   33.6982   49.0959 H   0  0  0  0  0  0  0  0  0  0  0  0
   63.7022   34.1742   48.0461 H   0  0  0  0  0  0  0  0  0  0  0  0
   61.3783   34.9533   48.8103 H   0  0  0  0  0  0  0  0  0  0  0  0
   59.1347   35.3176   47.7994 H   0  0  0  0  0  0  0  0  0  0  0  0
   56.9070   32.5790   46.8550 H   0  0  0  0  0  0  0  0  0  0  0  0
   57.0160   34.2090   47.2660 H   0  0  0  0  0  0  0  0  0  0  0  0
   56.9297   34.6022   45.1149 H   0  0  0  0  0  0  0  0  0  0  0  0
   58.6807   34.1335   45.1784 H   0  0  0  0  0  0  0  0  0  0  0  0
   58.3128   33.5351   42.6932 H   0  0  0  0  0  0  0  0  0  0  0  0
   57.7719   31.5975   41.2048 H   0  0  0  0  0  0  0  0  0  0  0  0
   56.5246   29.6321   42.1287 H   0  0  0  0  0  0  0  0  0  0  0  0
   55.8384   29.6325   44.5349 H   0  0  0  0  0  0  0  0  0  0  0  0
   58.7588   31.0632   47.0900 H   0  0  0  0  0  0  0  0  0  0  0  0
   61.0044   30.6951   48.0973 H   0  0  0  0  0  0  0  0  0  0  0  0
   64.1374   30.4214   51.2815 H   0  0  0  0  0  0  0  0  0  0  0  0
  1  2  3  0
  2  3  1  0
  3  4  2  0
  4  5  1  0
  5  6  2  0
  6  7  1  0
  7  8  2  0
  8  9  1  0
  9 10  2  0
 10 11  1  0
 11 12  1  0
 12 13  1  0
 13 14  2  0
 14 15  1  0
 15 16  2  0
 16 17  1  0
 17 18  2  0
 10 19  1  0
 19 20  2  0
  6 21  1  0
 21 22  2  0
 22  3  1  0
 20  7  1  0
 18 13  1  0
  4 23  1  0
  5 24  1  0
  8 25  1  0
  9 26  1  0
 11 27  1  0
 11 28  1  0
 12 29  1  0
 12 30  1  0
 14 31  1  0
 15 32  1  0
 16 33  1  0
 17 34  1  0
 19 35  1  0
 20 36  1  0
 22 37  1  0
M  CHG  1  11   1
M  END
>  <UniqueID>  (57) 
51

>  <SMILES>  (57) 
N#Cc1ccc(-c2ccc([NH2+]Cc3ccccn3)cc2)nc1

>  <Energy>  (57) 
44.32250989624752

>  <Genealogy>  (57) 
N#Cc1ccc(-c2ccc([NH2+]Cc3ccccn3)cc2)nc1 (protonated)
N#Cc1ccc(-c2ccc([NH2+]Cc3ccccn3)cc2)nc1 (3D coordinates assigned)
N#Cc1ccc(-c2ccc([NH2+]Cc3ccccn3)cc2)nc1 (optimized conformer: 44.32250989624752 kcal/mol)

>  <smiles>  (57) 
N#Cc1ccc(-c2ccc(NCc3ccccn3)cc2)nc1

>  <score_type>  (57) 
oracle

>  <origin>  (57) 
adg

>  <m_score__min__energy>  (57) 
-5.6100000000000003

>  <m_primary>  (57) 
energy

$$$$
57:0
     RDKit          3D

 47 49  0  0  0  0  0  0  0  0999 V2000
   56.1870   30.2940   44.8590 O   0  0  0  0  0  0  0  0  0  0  0  0
   56.3980   29.0730   44.2000 C   0  0  0  0  0  0  0  0  0  0  0  0
   57.7300   28.4140   44.6590 C   0  0  0  0  0  0  0  0  0  0  0  0
   58.7330   29.4950   45.1860 C   0  0  0  0  0  0  0  0  0  0  0  0
   58.5490   29.9380   46.6550 C   0  0  0  0  0  0  0  0  0  0  0  0
   57.8120   31.1580   46.7480 O   0  0  0  0  0  0  0  0  0  0  0  0
   58.3080   32.4400   46.4520 C   0  0  0  0  0  0  0  0  0  0  0  0
   58.0450   32.9690   45.1800 C   0  0  0  0  0  0  0  0  0  0  0  0
   58.5080   34.2420   44.8320 C   0  0  0  0  0  0  0  0  0  0  0  0
   59.2410   34.9950   45.7530 C   0  0  0  0  0  0  0  0  0  0  0  0
   59.5100   34.4780   47.0220 C   0  0  0  0  0  0  0  0  0  0  0  0
   59.0460   33.2070   47.3750 C   0  0  0  0  0  0  0  0  0  0  0  0
   58.3990   27.7180   43.4270 C   0  0  0  0  0  0  0  0  0  0  0  0
   57.8180   26.3300   43.1330 C   0  0  0  0  0  0  0  0  0  0  0  0
   57.8990   25.4600   44.3110 N   0  0  0  0  0  0  0  0  0  0  0  0
   57.7330   24.0370   44.1410 C   0  0  0  0  0  0  0  0  0  0  0  0
   56.6870   23.5090   43.3690 C   0  0  0  0  0  0  0  0  0  0  0  0
   56.5730   22.1250   43.2540 C   0  0  0  0  0  0  0  0  0  0  0  0
   57.4630   21.3120   43.8820 N   0  0  0  0  0  0  0  0  0  0  0  0
   58.4650   21.8350   44.6370 C   0  0  0  0  0  0  0  0  0  0  0  0
   58.5900   23.1810   44.7640 N   0  0  0  0  0  0  0  0  0  0  0  0
   58.1820   26.0450   45.6290 C   0  0  0  0  0  0  0  0  0  0  0  0
   57.4210   27.3650   45.7890 C   0  0  0  0  0  0  0  0  0  0  0  0
   56.2340   30.0980   45.8300 H   0  0  0  0  0  0  0  0  0  0  0  0
   55.5636   28.3931   44.4268 H   0  0  0  0  0  0  0  0  0  0  0  0
   56.4565   29.2644   43.1184 H   0  0  0  0  0  0  0  0  0  0  0  0
   59.7497   29.0880   45.0831 H   0  0  0  0  0  0  0  0  0  0  0  0
   58.5416   30.3938   44.5813 H   0  0  0  0  0  0  0  0  0  0  0  0
   58.0069   29.1511   47.1999 H   0  0  0  0  0  0  0  0  0  0  0  0
   59.5449   30.1036   47.0917 H   0  0  0  0  0  0  0  0  0  0  0  0
   57.4706   32.3786   44.4510 H   0  0  0  0  0  0  0  0  0  0  0  0
   58.2951   34.6505   43.8331 H   0  0  0  0  0  0  0  0  0  0  0  0
   59.6063   35.9955   45.4783 H   0  0  0  0  0  0  0  0  0  0  0  0
   60.0881   35.0718   47.7454 H   0  0  0  0  0  0  0  0  0  0  0  0
   59.2579   32.8047   48.3766 H   0  0  0  0  0  0  0  0  0  0  0  0
   58.2509   28.3544   42.5421 H   0  0  0  0  0  0  0  0  0  0  0  0
   59.4649   27.5845   43.6639 H   0  0  0  0  0  0  0  0  0  0  0  0
   56.7637   26.4376   42.8384 H   0  0  0  0  0  0  0  0  0  0  0  0
   58.4031   25.8725   42.3216 H   0  0  0  0  0  0  0  0  0  0  0  0
   55.9711   24.1745   42.8645 H   0  0  0  0  0  0  0  0  0  0  0  0
   55.7608   21.6894   42.6535 H   0  0  0  0  0  0  0  0  0  0  0  0
   57.3740   20.2760   43.7900 H   0  0  0  0  0  0  0  0  0  0  0  0
   59.1755   21.1669   45.1458 H   0  0  0  0  0  0  0  0  0  0  0  0
   57.8647   25.3437   46.4148 H   0  0  0  0  0  0  0  0  0  0  0  0
   59.2617   26.2372   45.7152 H   0  0  0  0  0  0  0  0  0  0  0  0
   56.3427   27.1480   45.7759 H   0  0  0  0  0  0  0  0  0  0  0  0
   57.7479   27.8112   46.7398 H   0  0  0  0  0  0  0  0  0  0  0  0
  1  2  1  0
  2  3  1  0
  3  4  1  0
  4  5  1  0
  5  6  1  0
  6  7  1  0
  7  8  2  0
  8  9  1  0
  9 10  2  0
 10 11  1  0
 11 12  2  0
  3 13  1  0
 13 14  1  0
 14 15  1  0
 15 16  1  0
 16 17  2  0
 17 18  1  0
 18 19  2  0
 19 20  1  0
 20 21  2  0
 15 22  1  0
 22 23  1  0
 23  3  1  0
 12  7  1  0
 21 16  1  0
  1 24  1  0
  2 25  1  0
  2 26  1  0
  4 27  1  0
  4 28  1  0
  5 29  1  0
  5 30  1  0
  8 31  1  0
  9 32  1  0
 10 33  1  0
 11 34  1  0
 12 35  1  0
 13 36  1  0
 13 37  1  0
 14 38  1  0
 14 39  1  0
 17 40  1  0
 18 41  1  0
 19 42  1  0
 20 43  1  0
 22 44  1  0
 22 45  1  0
 23 46  1  0
 23 47  1  0
M  CHG  1  19   1
M  END
>  <UniqueID>  (58) 
52

>  <SMILES>  (58) 
OCC1(CCOc2ccccc2)CCN(c2cc[nH+]cn2)CC1

>  <Energy>  (58) 
56.34244655034247

>  <Genealogy>  (58) 
OCC1(CCOc2ccccc2)CCN(c2cc[nH+]cn2)CC1 (protonated)
OCC1(CCOc2ccccc2)CCN(c2cc[nH+]cn2)CC1 (3D coordinates assigned)
OCC1(CCOc2ccccc2)CCN(c2cc[nH+]cn2)CC1 (nonaromatic ring conformer: 56.34244655034247 kcal/mol)

>  <smiles>  (58) 
OCC1(CCOc2ccccc2)CCN(c2ccncn2)CC1

>  <score_type>  (58) 
oracle

>  <origin>  (58) 
adg

>  <m_score__min__energy>  (58) 
-7.0800000000000001

>  <m_primary>  (58) 
energy

$$$$
58:0
     RDKit          3D

 47 49  0  0  0  0  0  0  0  0999 V2000
   58.8224   30.5442   49.0806 H   0  0  0  0  0  0  0  0  0  0  0  0
   58.5170   32.4550   48.2630 C   0  0  0  0  0  0  0  0  0  0  0  0
   59.1830   31.2950   48.3620 C   0  0  0  0  0  0  0  0  0  0  0  0
   60.2650   30.0320   46.6580 N   0  0  0  0  0  0  0  0  0  0  0  0
   59.1520   29.1430   46.4690 C   0  0  0  0  0  0  0  0  0  0  0  0
   58.9720   28.0200   47.2930 C   0  0  0  0  0  0  0  0  0  0  0  0
   59.7034   27.8017   48.0851 H   0  0  0  0  0  0  0  0  0  0  0  0
   57.8730   27.1790   47.1150 C   0  0  0  0  0  0  0  0  0  0  0  0
   57.7530   26.2910   47.7531 H   0  0  0  0  0  0  0  0  0  0  0  0
   56.9190   27.4630   46.1230 C   0  0  0  0  0  0  0  0  0  0  0  0
   55.7990   26.6470   45.9020 O   0  0  0  0  0  0  0  0  0  0  0  0
   55.8630   25.2500   45.6290 C   0  0  0  0  0  0  0  0  0  0  0  0
   55.8886   24.6920   46.5766 H   0  0  0  0  0  0  0  0  0  0  0  0
   54.9777   24.9486   45.0498 H   0  0  0  0  0  0  0  0  0  0  0  0
   56.7721   25.0309   45.0498 H   0  0  0  0  0  0  0  0  0  0  0  0
   57.0800   28.6000   45.3230 C   0  0  0  0  0  0  0  0  0  0  0  0
   56.3318   28.8309   44.5504 H   0  0  0  0  0  0  0  0  0  0  0  0
   58.1890   29.4530   45.4950 C   0  0  0  0  0  0  0  0  0  0  0  0
   58.3720   30.6040   44.7140 O   0  0  0  0  0  0  0  0  0  0  0  0
   57.6220   30.9130   43.5430 C   0  0  0  0  0  0  0  0  0  0  0  0
   56.6407   31.3173   43.8321 H   0  0  0  0  0  0  0  0  0  0  0  0
   58.1652   31.6606   42.9463 H   0  0  0  0  0  0  0  0  0  0  0  0
   57.4809   29.9997   42.9463 H   0  0  0  0  0  0  0  0  0  0  0  0
   58.6620   33.3920   47.1220 C   0  0  0  0  0  0  0  0  0  0  0  0
   57.9190   33.1510   45.9540 C   0  0  0  0  0  0  0  0  0  0  0  0
   57.2422   32.2851   45.9069 H   0  0  0  0  0  0  0  0  0  0  0  0
   58.0330   34.0030   44.8510 C   0  0  0  0  0  0  0  0  0  0  0  0
   57.4401   33.8102   43.9447 H   0  0  0  0  0  0  0  0  0  0  0  0
   58.8980   35.0980   44.8980 C   0  0  0  0  0  0  0  0  0  0  0  0
   58.9828   35.7699   44.0312 H   0  0  0  0  0  0  0  0  0  0  0  0
   59.6560   35.3400   46.0470 C   0  0  0  0  0  0  0  0  0  0  0  0
   60.3412   36.1998   46.0816 H   0  0  0  0  0  0  0  0  0  0  0  0
   59.5450   34.4910   47.1530 C   0  0  0  0  0  0  0  0  0  0  0  0
   60.1498   34.6816   48.0518 H   0  0  0  0  0  0  0  0  0  0  0  0
   60.3800   30.9760   47.5510 C   0  0  0  0  0  0  0  0  0  0  0  0
   57.8245   32.7268   49.0732 H   0  0  0  0  0  0  0  0  0  0  0  0
   61.6440   31.7380   47.7240 C   0  0  0  0  0  0  0  0  0  0  0  0
   62.4660   31.5060   48.8390 C   0  0  0  0  0  0  0  0  0  0  0  0
   62.1771   30.7521   49.5861 H   0  0  0  0  0  0  0  0  0  0  0  0
   63.6510   32.2310   49.0020 C   0  0  0  0  0  0  0  0  0  0  0  0
   64.2894   32.0499   49.8793 H   0  0  0  0  0  0  0  0  0  0  0  0
   64.0250   33.1850   48.0520 C   0  0  0  0  0  0  0  0  0  0  0  0
   64.9569   33.7548   48.1819 H   0  0  0  0  0  0  0  0  0  0  0  0
   63.2150   33.4150   46.9370 C   0  0  0  0  0  0  0  0  0  0  0  0
   63.5108   34.1650   46.1887 H   0  0  0  0  0  0  0  0  0  0  0  0
   62.0300   32.6940   46.7710 C   0  0  0  0  0  0  0  0  0  0  0  0
   61.3968   32.8760   45.8901 H   0  0  0  0  0  0  0  0  0  0  0  0
  1  2  1  0
  2  3  1  0
  3  4  2  0
  4  5  1  0
  5  6  2  0
  6  7  1  0
  6  8  1  0
  8  9  1  0
  8 10  2  0
 10 11  1  0
 11 12  1  0
 12 13  1  0
 12 14  1  0
 12 15  1  0
 10 16  1  0
 16 17  1  0
 16 18  2  0
 18 19  1  0
 19 20  1  0
 20 21  1  0
 20 22  1  0
 20 23  1  0
  3 24  1  0
 24 25  2  0
 25 26  1  0
 25 27  1  0
 27 28  1  0
 27 29  2  0
 29 30  1  0
 29 31  1  0
 31 32  1  0
 31 33  2  0
 33 34  1  0
  2 35  2  0
 35 36  1  0
 35 37  1  0
 37 38  2  0
 38 39  1  0
 38 40  1  0
 40 41  1  0
 40 42  2  0
 42 43  1  0
 42 44  1  0
 44 45  1  0
 44 46  2  0
 46 47  1  0
 18  5  1  0
 33 24  1  0
 46 37  1  0
M  END
>  <UniqueID>  (59) 
53

>  <SMILES>  (59) 
COc1ccc(/N=C(/C=C/c2ccccc2)c2ccccc2)c(OC)c1

>  <Energy>  (59) 
62.98964874427019

>  <Genealogy>  (59) 
COc1ccc(/N=C(/C=C/c2ccccc2)c2ccccc2)c(OC)c1 (cis-trans isomerization)
COc1ccc(/N=C(/C=C/c2ccccc2)c2ccccc2)c(OC)c1 (3D coordinates assigned)
COc1ccc(/N=C(/C=C/c2ccccc2)c2ccccc2)c(OC)c1 (optimized conformer: 62.98964874427019 kcal/mol)

>  <smiles>  (59) 
COc1ccc(N=C(C=Cc2ccccc2)c2ccccc2)c(OC)c1

>  <score_type>  (59) 
oracle

>  <origin>  (59) 
adg

>  <m_score__min__energy>  (59) 
-7.7599999999999998

>  <m_primary>  (59) 
energy

$$$$
59:0
     RDKit          3D

 46 48  0  0  0  0  0  0  0  0999 V2000
   59.6046   28.1971   43.6262 H   0  0  0  0  0  0  0  0  0  0  0  0
   58.8330   28.5170   44.3420 C   0  0  0  0  0  0  0  0  0  0  0  0
   57.5630   28.5700   43.9260 C   0  0  0  0  0  0  0  0  0  0  0  0
   57.1814   27.7420   43.3105 H   0  0  0  0  0  0  0  0  0  0  0  0
   56.4680   29.8970   44.3120 S   0  0  0  0  0  0  0  0  0  0  0  0
   55.1420   29.3300   44.7330 O   0  0  0  0  0  0  0  0  0  0  0  0
   56.2860   30.7560   43.0930 O   0  0  0  0  0  0  0  0  0  0  0  0
   57.1310   30.8320   45.6120 N   0  0  0  0  0  0  0  0  0  0  0  0
   57.8420   32.0700   45.4690 C   0  0  0  0  0  0  0  0  0  0  0  0
   58.0790   32.6440   44.2140 C   0  0  0  0  0  0  0  0  0  0  0  0
   57.7175   32.1452   43.3027 H   0  0  0  0  0  0  0  0  0  0  0  0
   58.7730   33.8470   44.1220 C   0  0  0  0  0  0  0  0  0  0  0  0
   58.9618   34.3030   43.1389 H   0  0  0  0  0  0  0  0  0  0  0  0
   59.2270   34.4700   45.2820 C   0  0  0  0  0  0  0  0  0  0  0  0
   59.7743   35.4215   45.2098 H   0  0  0  0  0  0  0  0  0  0  0  0
   59.0000   33.9120   46.5100 N   0  0  0  0  0  0  0  0  0  0  0  0
   59.4700   34.6210   47.7120 C   0  0  0  0  0  0  0  0  0  0  0  0
   58.7562   34.4571   48.5327 H   0  0  0  0  0  0  0  0  0  0  0  0
   59.5453   35.6954   47.4882 H   0  0  0  0  0  0  0  0  0  0  0  0
   60.8250   34.1090   48.1220 C   0  0  0  0  0  0  0  0  0  0  0  0
   61.2260   34.1510   49.4670 C   0  0  0  0  0  0  0  0  0  0  0  0
   60.5360   34.5367   50.2319 H   0  0  0  0  0  0  0  0  0  0  0  0
   62.4980   33.7050   49.8390 C   0  0  0  0  0  0  0  0  0  0  0  0
   62.7987   33.7276   50.8969 H   0  0  0  0  0  0  0  0  0  0  0  0
   63.3920   33.2290   48.8690 C   0  0  0  0  0  0  0  0  0  0  0  0
   64.7420   32.7140   49.2730 C   0  0  0  0  0  0  0  0  0  0  0  0
   64.8110   32.6877   50.3705 H   0  0  0  0  0  0  0  0  0  0  0  0
   64.8823   31.6992   48.8723 H   0  0  0  0  0  0  0  0  0  0  0  0
   65.5225   33.3775   48.8723 H   0  0  0  0  0  0  0  0  0  0  0  0
   62.9890   33.1760   47.5270 C   0  0  0  0  0  0  0  0  0  0  0  0
   63.6765   32.7818   46.7641 H   0  0  0  0  0  0  0  0  0  0  0  0
   61.7170   33.6220   47.1540 C   0  0  0  0  0  0  0  0  0  0  0  0
   61.4142   33.5910   46.0969 H   0  0  0  0  0  0  0  0  0  0  0  0
   58.3060   32.7300   46.6170 C   0  0  0  0  0  0  0  0  0  0  0  0
   58.0820   32.2220   47.7520 O   0  0  0  0  0  0  0  0  0  0  0  0
   59.2500   28.8660   45.7120 C   0  0  0  0  0  0  0  0  0  0  0  0
   60.2000   29.8830   45.8990 C   0  0  0  0  0  0  0  0  0  0  0  0
   60.6057   30.4204   45.0292 H   0  0  0  0  0  0  0  0  0  0  0  0
   60.6320   30.2150   47.1860 C   0  0  0  0  0  0  0  0  0  0  0  0
   61.3851   31.0044   47.3265 H   0  0  0  0  0  0  0  0  0  0  0  0
   60.1080   29.5450   48.2940 C   0  0  0  0  0  0  0  0  0  0  0  0
   60.4546   29.8017   49.3059 H   0  0  0  0  0  0  0  0  0  0  0  0
   59.1440   28.5490   48.1180 C   0  0  0  0  0  0  0  0  0  0  0  0
   58.7278   28.0293   48.9936 H   0  0  0  0  0  0  0  0  0  0  0  0
   58.7050   28.2090   46.8320 C   0  0  0  0  0  0  0  0  0  0  0  0
   57.4620   26.9760   46.6590 Cl  0  0  0  0  0  0  0  0  0  0  0  0
  1  2  1  0
  2  3  2  0
  3  4  1  0
  3  5  1  0
  5  6  2  0
  5  7  2  0
  5  8  1  0
  8  9  1  0
  9 10  2  0
 10 11  1  0
 10 12  1  0
 12 13  1  0
 12 14  2  0
 14 15  1  0
 14 16  1  0
 16 17  1  0
 17 18  1  0
 17 19  1  0
 17 20  1  0
 20 21  2  0
 21 22  1  0
 21 23  1  0
 23 24  1  0
 23 25  2  0
 25 26  1  0
 26 27  1  0
 26 28  1  0
 26 29  1  0
 25 30  1  0
 30 31  1  0
 30 32  2  0
 32 33  1  0
 16 34  1  0
 34 35  2  0
  2 36  1  0
 36 37  2  0
 37 38  1  0
 37 39  1  0
 39 40  1  0
 39 41  2  0
 41 42  1  0
 41 43  1  0
 43 44  1  0
 43 45  2  0
 45 46  1  0
 34  9  1  0
 45 36  1  0
 32 20  1  0
M  CHG  1   8  -1
M  END
>  <UniqueID>  (60) 
54

>  <SMILES>  (60) 
Cc1ccc(Cn2cccc([N-]S(=O)(=O)/C=C\c3ccccc3Cl)c2=O)cc1

>  <Energy>  (60) 
60.1812217744747

>  <Genealogy>  (60) 
Cc1ccc(Cn2cccc([N-]S(=O)(=O)C=Cc3ccccc3Cl)c2=O)cc1 (protonated)
Cc1ccc(Cn2cccc([N-]S(=O)(=O)/C=C\c3ccccc3Cl)c2=O)cc1 (cis-trans isomerization)
Cc1ccc(Cn2cccc([N-]S(=O)(=O)/C=C\c3ccccc3Cl)c2=O)cc1 (3D coordinates assigned)
Cc1ccc(Cn2cccc([N-]S(=O)(=O)/C=C\c3ccccc3Cl)c2=O)cc1 (optimized conformer: 60.1812217744747 kcal/mol)

>  <smiles>  (60) 
Cc1ccc(Cn2cccc(NS(=O)(=O)C=Cc3ccccc3Cl)c2=O)cc1

>  <score_type>  (60) 
oracle

>  <origin>  (60) 
adg

>  <m_score__min__energy>  (60) 
-11.58

>  <m_primary>  (60) 
energy

$$$$
60:0
     RDKit          3D

 27 29  0  0  0  0  0  0  0  0999 V2000
   58.3890   28.5760   44.6630 C   0  0  0  0  0  0  0  0  0  0  0  0
   58.1210   29.9980   44.9480 N   0  0  0  0  0  0  0  0  0  0  0  0
   56.9110   30.5710   44.5750 C   0  0  0  0  0  0  0  0  0  0  0  0
   55.7420   29.7070   43.8080 S   0  0  0  0  0  0  0  0  0  0  0  0
   56.6460   31.8800   44.8580 N   0  0  0  0  0  0  0  0  0  0  0  0
   57.5810   32.6190   45.4910 C   0  0  0  0  0  0  0  0  0  0  0  0
   57.4630   33.8730   45.8510 O   0  0  0  0  0  0  0  0  0  0  0  0
   58.5830   34.2140   46.4590 C   0  0  0  0  0  0  0  0  0  0  0  0
   59.4640   33.1350   46.4840 C   0  0  0  0  0  0  0  0  0  0  0  0
   60.8270   33.1410   47.0500 C   0  0  0  0  0  0  0  0  0  0  0  0
   61.1290   32.4050   48.2070 C   0  0  0  0  0  0  0  0  0  0  0  0
   62.4290   32.4000   48.7220 C   0  0  0  0  0  0  0  0  0  0  0  0
   63.4410   33.1190   48.0780 C   0  0  0  0  0  0  0  0  0  0  0  0
   64.7010   33.1120   48.5770 F   0  0  0  0  0  0  0  0  0  0  0  0
   63.1530   33.8380   46.9140 C   0  0  0  0  0  0  0  0  0  0  0  0
   61.8540   33.8450   46.3970 C   0  0  0  0  0  0  0  0  0  0  0  0
   58.7840   32.1040   45.8530 C   0  0  0  0  0  0  0  0  0  0  0  0
   59.0620   30.7600   45.6130 C   0  0  0  0  0  0  0  0  0  0  0  0
   60.1420   30.2530   46.0220 O   0  0  0  0  0  0  0  0  0  0  0  0
   58.4927   28.0255   45.6097 H   0  0  0  0  0  0  0  0  0  0  0  0
   57.5545   28.1546   44.0834 H   0  0  0  0  0  0  0  0  0  0  0  0
   59.3197   28.4873   44.0834 H   0  0  0  0  0  0  0  0  0  0  0  0
   58.7912   35.2067   46.8847 H   0  0  0  0  0  0  0  0  0  0  0  0
   60.3387   31.8293   48.7110 H   0  0  0  0  0  0  0  0  0  0  0  0
   62.6560   31.8298   49.6349 H   0  0  0  0  0  0  0  0  0  0  0  0
   63.9499   34.3992   46.4041 H   0  0  0  0  0  0  0  0  0  0  0  0
   61.6345   34.4038   45.4753 H   0  0  0  0  0  0  0  0  0  0  0  0
  1  2  1  0
  2  3  1  0
  3  4  2  0
  3  5  1  0
  5  6  1  0
  6  7  1  0
  7  8  1  0
  8  9  2  0
  9 10  1  0
 10 11  2  0
 11 12  1  0
 12 13  2  0
 13 14  1  0
 13 15  1  0
 15 16  2  0
  9 17  1  0
 17 18  1  0
 18 19  2  0
 18  2  1  0
 17  6  2  0
 16 10  1  0
  1 20  1  0
  1 21  1  0
  1 22  1  0
  8 23  1  0
 11 24  1  0
 12 25  1  0
 15 26  1  0
 16 27  1  0
M  CHG  1   5  -1
M  END
>  <UniqueID>  (61) 
55

>  <SMILES>  (61) 
Cn1c(=S)[n-]c2occ(-c3ccc(F)cc3)c2c1=O

>  <Energy>  (61) 
78.03322779785928

>  <Genealogy>  (61) 
Cn1c(=S)[n-]c2occ(-c3ccc(F)cc3)c2c1=O (protonated)
Cn1c(=S)[n-]c2occ(-c3ccc(F)cc3)c2c1=O (3D coordinates assigned)
Cn1c(=S)[n-]c2occ(-c3ccc(F)cc3)c2c1=O (optimized conformer: 78.03322779785928 kcal/mol)

>  <smiles>  (61) 
Cn1c(=S)[nH]c2occ(-c3ccc(F)cc3)c2c1=O

>  <score_type>  (61) 
oracle

>  <origin>  (61) 
adg

>  <m_score__min__energy>  (61) 
-7.9000000000000004

>  <m_primary>  (61) 
energy

$$$$
61:0
     RDKit          3D

 36 39  0  0  0  0  0  0  0  0999 V2000
   59.6880   20.4980   45.6210 H   0  0  0  0  0  0  0  0  0  0  0  0
   59.8160   21.4790   45.2850 N   0  0  0  0  0  0  0  0  0  0  0  0
   58.9070   22.3750   45.4900 C   0  0  0  0  0  0  0  0  0  0  0  0
   59.2700   23.7140   45.6500 O   0  0  0  0  0  0  0  0  0  0  0  0
   58.3210   24.7460   45.7060 C   0  0  0  0  0  0  0  0  0  0  0  0
   56.9660   24.4800   45.4080 C   0  0  0  0  0  0  0  0  0  0  0  0
   56.0610   25.5550   45.3360 C   0  0  0  0  0  0  0  0  0  0  0  0
   55.0233   25.3697   45.0215 H   0  0  0  0  0  0  0  0  0  0  0  0
   56.4610   26.8540   45.6580 C   0  0  0  0  0  0  0  0  0  0  0  0
   55.5260   27.8830   45.6050 O   0  0  0  0  0  0  0  0  0  0  0  0
   57.7940   27.1140   46.0200 C   0  0  0  0  0  0  0  0  0  0  0  0
   58.7310   26.0530   46.0320 C   0  0  0  0  0  0  0  0  0  0  0  0
   60.0650   26.3360   46.3680 C   0  0  0  0  0  0  0  0  0  0  0  0
   60.8126   25.5292   46.3769 H   0  0  0  0  0  0  0  0  0  0  0  0
   60.4420   27.6380   46.6900 C   0  0  0  0  0  0  0  0  0  0  0  0
   61.4852   27.8620   46.9575 H   0  0  0  0  0  0  0  0  0  0  0  0
   59.4890   28.6550   46.6710 C   0  0  0  0  0  0  0  0  0  0  0  0
   59.7818   29.6845   46.9247 H   0  0  0  0  0  0  0  0  0  0  0  0
   58.1980   28.3800   46.3400 N   0  0  0  0  0  0  0  0  0  0  0  0
   57.5170   29.1730   46.3340 H   0  0  0  0  0  0  0  0  0  0  0  0
   56.5630   23.0700   44.9790 C   0  0  2  0  0  0  0  0  0  0  0  0
   56.7247   23.0604   43.8910 H   0  0  0  0  0  0  0  0  0  0  0  0
   55.0860   22.7440   45.1810 C   0  0  0  0  0  0  0  0  0  0  0  0
   54.0750   23.6610   44.8360 C   0  0  0  0  0  0  0  0  0  0  0  0
   54.3380   24.6287   44.3840 H   0  0  0  0  0  0  0  0  0  0  0  0
   52.7370   23.3370   45.0700 C   0  0  0  0  0  0  0  0  0  0  0  0
   51.9437   24.0471   44.7933 H   0  0  0  0  0  0  0  0  0  0  0  0
   52.4130   22.1460   45.6390 N   0  0  0  0  0  0  0  0  0  0  0  0
   53.3640   21.2460   45.9970 C   0  0  0  0  0  0  0  0  0  0  0  0
   53.0702   20.2916   46.4582 H   0  0  0  0  0  0  0  0  0  0  0  0
   54.7160   21.5290   45.7810 C   0  0  0  0  0  0  0  0  0  0  0  0
   55.4868   20.8032   46.0797 H   0  0  0  0  0  0  0  0  0  0  0  0
   57.4670   21.9790   45.6180 C   0  0  2  0  0  0  0  0  0  0  0  0
   57.2567   21.0434   45.0791 H   0  0  0  0  0  0  0  0  0  0  0  0
   57.1810   21.7680   47.0480 C   0  0  0  0  0  0  0  0  0  0  0  0
   56.9530   21.6030   48.1700 N   0  0  0  0  0  0  0  0  0  0  0  0
  1  2  1  0
  2  3  2  0
  3  4  1  0
  4  5  1  0
  5  6  2  0
  6  7  1  0
  7  8  1  0
  7  9  2  0
  9 10  1  0
  9 11  1  0
 11 12  2  0
 12 13  1  0
 13 14  1  0
 13 15  2  0
 15 16  1  0
 15 17  1  0
 17 18  1  0
 17 19  2  0
 19 20  1  0
  6 21  1  0
 21 22  1  6
 21 23  1  0
 23 24  2  0
 24 25  1  0
 24 26  1  0
 26 27  1  0
 26 28  2  0
 28 29  1  0
 29 30  1  0
 29 31  2  0
 31 32  1  0
 21 33  1  0
 33 34  1  6
 33 35  1  0
 35 36  3  0
 33  3  1  0
 12  5  1  0
 31 23  1  0
 19 11  1  0
M  CHG  2  10  -1  19   1
M  END
>  <UniqueID>  (62) 
56

>  <SMILES>  (62) 
[H]/N=C1\Oc2c(cc([O-])c3[nH+]cccc23)[C@H](c2ccncc2)[C@@H]1C#N

>  <Energy>  (62) 
51.01208853175587

>  <Genealogy>  (62) 
N#CC1C(=N)Oc2c(cc([O-])c3[nH+]cccc23)C1c1ccncc1 (protonated)
N#C[C@@H]1C(=N)Oc2c(cc([O-])c3[nH+]cccc23)[C@@H]1c1ccncc1 (chirality)
[H]/N=C1\Oc2c(cc([O-])c3[nH+]cccc23)[C@H](c2ccncc2)[C@@H]1C#N (cis-trans isomerization)
[H]/N=C1\Oc2c(cc([O-])c3[nH+]cccc23)[C@H](c2ccncc2)[C@@H]1C#N (3D coordinates assigned)
[H]/N=C1\Oc2c(cc([O-])c3[nH+]cccc23)[C@H](c2ccncc2)[C@@H]1C#N (nonaromatic ring conformer: 51.01208853175587 kcal/mol)

>  <smiles>  (62) 
N#CC1C(=N)Oc2c(cc(O)c3ncccc23)C1c1ccncc1

>  <score_type>  (62) 
oracle

>  <origin>  (62) 
adg

>  <m_score__min__energy>  (62) 
-7.4199999999999999

>  <m_primary>  (62) 
energy

$$$$
62:0
     RDKit          3D

 30 31  0  0  0  0  0  0  0  0999 V2000
   54.7740   26.2870   45.8010 N   0  0  0  0  0  0  0  0  0  0  0  0
   56.0280   25.9480   46.3910 C   0  0  0  0  0  0  0  0  0  0  0  0
   56.0690   25.0450   47.2700 O   0  0  0  0  0  0  0  0  0  0  0  0
   57.2680   26.6450   45.9760 C   0  0  0  0  0  0  0  0  0  0  0  0
   58.5280   26.1210   46.3170 C   0  0  0  0  0  0  0  0  0  0  0  0
   59.6980   26.7810   45.9320 C   0  0  0  0  0  0  0  0  0  0  0  0
   59.6260   27.9680   45.2010 C   0  0  0  0  0  0  0  0  0  0  0  0
   58.3810   28.5050   44.8450 C   0  0  0  0  0  0  0  0  0  0  0  0
   58.2940   29.7960   44.0780 C   0  0  0  0  0  0  0  0  0  0  0  0
   58.8550   30.8910   44.8680 N   0  0  0  0  0  0  0  0  0  0  0  0
   58.0550   31.9940   45.3220 C   0  0  0  0  0  0  0  0  0  0  0  0
   56.8050   31.9720   45.1530 O   0  0  0  0  0  0  0  0  0  0  0  0
   58.6680   33.1570   45.9940 C   0  0  0  0  0  0  0  0  0  0  0  0
   60.0220   33.4460   45.9990 C   0  0  0  0  0  0  0  0  0  0  0  0
   60.1710   34.5970   46.7450 C   0  0  0  0  0  0  0  0  0  0  0  0
   58.9080   34.9580   47.1680 C   0  0  0  0  0  0  0  0  0  0  0  0
   57.9970   34.0810   46.7120 N   0  0  0  0  0  0  0  0  0  0  0  0
   57.2050   27.8420   45.2390 C   0  0  0  0  0  0  0  0  0  0  0  0
   54.0130   26.7210   46.3710 H   0  0  0  0  0  0  0  0  0  0  0  0
   58.5928   25.1848   46.8909 H   0  0  0  0  0  0  0  0  0  0  0  0
   60.6784   26.3640   46.2057 H   0  0  0  0  0  0  0  0  0  0  0  0
   60.5504   28.4844   44.9029 H   0  0  0  0  0  0  0  0  0  0  0  0
   58.8582   29.6994   43.1387 H   0  0  0  0  0  0  0  0  0  0  0  0
   57.2380   30.0142   43.8608 H   0  0  0  0  0  0  0  0  0  0  0  0
   59.8660   30.8370   45.1210 H   0  0  0  0  0  0  0  0  0  0  0  0
   60.8204   32.8719   45.5061 H   0  0  0  0  0  0  0  0  0  0  0  0
   61.1123   35.1238   46.9604 H   0  0  0  0  0  0  0  0  0  0  0  0
   58.6796   35.8368   47.7889 H   0  0  0  0  0  0  0  0  0  0  0  0
   56.9720   34.1200   46.9040 H   0  0  0  0  0  0  0  0  0  0  0  0
   56.2257   28.2635   44.9682 H   0  0  0  0  0  0  0  0  0  0  0  0
  1  2  1  0
  2  3  2  0
  2  4  1  0
  4  5  2  0
  5  6  1  0
  6  7  2  0
  7  8  1  0
  8  9  1  0
  9 10  1  0
 10 11  1  0
 11 12  2  0
 11 13  1  0
 13 14  2  0
 14 15  1  0
 15 16  2  0
 16 17  1  0
  8 18  2  0
 18  4  1  0
 17 13  1  0
  1 19  1  0
  5 20  1  0
  6 21  1  0
  7 22  1  0
  9 23  1  0
  9 24  1  0
 10 25  1  0
 14 26  1  0
 15 27  1  0
 16 28  1  0
 17 29  1  0
 18 30  1  0
M  CHG  1   1  -1
M  END
>  <UniqueID>  (63) 
57

>  <SMILES>  (63) 
[NH-]C(=O)c1cccc(CNC(=O)c2ccc[nH]2)c1

>  <Energy>  (63) 
53.17434310363409

>  <Genealogy>  (63) 
[NH-]C(=O)c1cccc(CNC(=O)c2ccc[nH]2)c1 (protonated)
[NH-]C(=O)c1cccc(CNC(=O)c2ccc[nH]2)c1 (3D coordinates assigned)
[NH-]C(=O)c1cccc(CNC(=O)c2ccc[nH]2)c1 (optimized conformer: 53.17434310363409 kcal/mol)

>  <smiles>  (63) 
NC(=O)c1cccc(CNC(=O)c2ccc[nH]2)c1

>  <score_type>  (63) 
oracle

>  <origin>  (63) 
adg

>  <m_score__min__energy>  (63) 
-10.09

>  <m_primary>  (63) 
energy

$$$$
63:0
     RDKit          3D

 67 71  0  0  0  0  0  0  0  0999 V2000
   56.2840   20.4430   50.0980 N   0  0  0  0  0  0  0  0  0  0  0  0
   56.2360   20.3260   48.8300 C   0  0  0  0  0  0  0  0  0  0  0  0
   55.1270   19.8260   48.2350 N   0  0  0  0  0  0  0  0  0  0  0  0
   55.1450   19.7300   46.9000 C   0  0  0  0  0  0  0  0  0  0  0  0
   56.2230   20.1110   46.1200 C   0  0  0  0  0  0  0  0  0  0  0  0
   56.2230   20.0010   44.6410 C   0  0  0  0  0  0  0  0  0  0  0  0
   56.0760   21.3060   44.0790 N   0  0  0  0  0  0  0  0  0  0  0  0
   57.3120   21.8330   43.5360 C   0  0  0  0  0  0  0  0  0  0  0  0
   57.0020   23.2230   43.0160 C   0  0  0  0  0  0  0  0  0  0  0  0
   56.8480   24.0510   44.1970 N   0  0  0  0  0  0  0  0  0  0  0  0
   57.2690   25.3860   44.2980 C   0  0  0  0  0  0  0  0  0  0  0  0
   57.1920   26.0120   45.5240 C   0  0  0  0  0  0  0  0  0  0  0  0
   57.5980   27.3450   45.6920 C   0  0  0  0  0  0  0  0  0  0  0  0
   58.0920   28.0890   44.6390 C   0  0  0  0  0  0  0  0  0  0  0  0
   58.4870   29.4410   44.8130 N   0  0  0  0  0  0  0  0  0  0  0  0
   59.4200   29.8470   45.8770 C   0  0  0  0  0  0  0  0  0  0  0  0
   58.6470   30.8670   46.7250 C   0  0  0  0  0  0  0  0  0  0  0  0
   58.3330   31.9770   45.8470 N   0  0  0  0  0  0  0  0  0  0  0  0
   58.8660   33.2880   46.0260 C   0  0  0  0  0  0  0  0  0  0  0  0
   58.5610   34.2270   45.2300 O   0  0  0  0  0  0  0  0  0  0  0  0
   59.7640   33.4800   47.1580 C   0  0  0  0  0  0  0  0  0  0  0  0
   59.3240   33.5830   48.4610 C   0  0  0  0  0  0  0  0  0  0  0  0
   60.2470   33.7620   49.4590 C   0  0  0  0  0  0  0  0  0  0  0  0
   59.7100   33.8900   51.1030 Cl  0  0  0  0  0  0  0  0  0  0  0  0
   61.6050   33.8410   49.1940 C   0  0  0  0  0  0  0  0  0  0  0  0
   62.0630   33.7400   47.8910 C   0  0  0  0  0  0  0  0  0  0  0  0
   63.7770   33.8390   47.5230 Cl  0  0  0  0  0  0  0  0  0  0  0  0
   61.1250   33.5570   46.8700 C   0  0  0  0  0  0  0  0  0  0  0  0
   57.4160   31.6680   44.7390 C   0  0  0  0  0  0  0  0  0  0  0  0
   58.0290   30.5240   43.9600 C   0  0  0  0  0  0  0  0  0  0  0  0
   58.1640   27.4520   43.4170 C   0  0  0  0  0  0  0  0  0  0  0  0
   57.7620   26.1270   43.2450 C   0  0  0  0  0  0  0  0  0  0  0  0
   57.8440   25.5170   42.0240 F   0  0  0  0  0  0  0  0  0  0  0  0
   56.2050   23.4120   45.3470 C   0  0  0  0  0  0  0  0  0  0  0  0
   55.3470   22.2490   44.8560 C   0  0  0  0  0  0  0  0  0  0  0  0
   57.3210   20.6110   46.7570 C   0  0  0  0  0  0  0  0  0  0  0  0
   58.3990   21.0050   46.1750 N   0  0  0  0  0  0  0  0  0  0  0  0
   57.3120   20.7120   48.1150 N   0  0  0  0  0  0  0  0  0  0  0  0
   55.4930   20.7820   50.6890 H   0  0  0  0  0  0  0  0  0  0  0  0
   54.3030   19.5310   48.8120 H   0  0  0  0  0  0  0  0  0  0  0  0
   54.2547   19.3264   46.3955 H   0  0  0  0  0  0  0  0  0  0  0  0
   57.1720   19.5587   44.3038 H   0  0  0  0  0  0  0  0  0  0  0  0
   55.3908   19.3596   44.3154 H   0  0  0  0  0  0  0  0  0  0  0  0
   58.0797   21.8848   44.3221 H   0  0  0  0  0  0  0  0  0  0  0  0
   57.6985   21.1875   42.7335 H   0  0  0  0  0  0  0  0  0  0  0  0
   57.8283   23.5934   42.3915 H   0  0  0  0  0  0  0  0  0  0  0  0
   56.0983   23.2329   42.3890 H   0  0  0  0  0  0  0  0  0  0  0  0
   56.8039   25.4546   46.3893 H   0  0  0  0  0  0  0  0  0  0  0  0
   57.5208   27.8082   46.6867 H   0  0  0  0  0  0  0  0  0  0  0  0
   59.7098   28.9790   46.4874 H   0  0  0  0  0  0  0  0  0  0  0  0
   60.3484   30.2725   45.4684 H   0  0  0  0  0  0  0  0  0  0  0  0
   57.7219   30.4156   47.1130 H   0  0  0  0  0  0  0  0  0  0  0  0
   59.2415   31.1986   47.5891 H   0  0  0  0  0  0  0  0  0  0  0  0
   58.2510   33.5226   48.6956 H   0  0  0  0  0  0  0  0  0  0  0  0
   62.3190   33.9839   50.0185 H   0  0  0  0  0  0  0  0  0  0  0  0
   61.4657   33.4729   45.8275 H   0  0  0  0  0  0  0  0  0  0  0  0
   56.4331   31.3716   45.1341 H   0  0  0  0  0  0  0  0  0  0  0  0
   57.2706   32.5473   44.0942 H   0  0  0  0  0  0  0  0  0  0  0  0
   57.2739   30.1281   43.2650 H   0  0  0  0  0  0  0  0  0  0  0  0
   58.9070   30.9195   43.4283 H   0  0  0  0  0  0  0  0  0  0  0  0
   58.5511   28.0072   42.5499 H   0  0  0  0  0  0  0  0  0  0  0  0
   56.9744   23.0364   46.0377 H   0  0  0  0  0  0  0  0  0  0  0  0
   55.5731   24.1433   45.8723 H   0  0  0  0  0  0  0  0  0  0  0  0
   54.9260   21.7311   45.7304 H   0  0  0  0  0  0  0  0  0  0  0  0
   54.5630   22.6702   44.2095 H   0  0  0  0  0  0  0  0  0  0  0  0
   58.8270   20.3980   45.4490 H   0  0  0  0  0  0  0  0  0  0  0  0
   58.1450   21.0900   48.6190 H   0  0  0  0  0  0  0  0  0  0  0  0
  1  2  2  3
  2  3  1  0
  3  4  1  0
  4  5  2  0
  5  6  1  0
  6  7  1  0
  7  8  1  0
  8  9  1  0
  9 10  1  0
 10 11  1  0
 11 12  2  0
 12 13  1  0
 13 14  2  0
 14 15  1  0
 15 16  1  0
 16 17  1  0
 17 18  1  0
 18 19  1  0
 19 20  2  0
 19 21  1  0
 21 22  2  0
 22 23  1  0
 23 24  1  0
 23 25  2  0
 25 26  1  0
 26 27  1  0
 26 28  2  0
 18 29  1  0
 29 30  1  0
 14 31  1  0
 31 32  2  0
 32 33  1  0
 10 34  1  0
 34 35  1  0
  5 36  1  0
 36 37  2  3
 36 38  1  0
 38  2  1  0
 35  7  1  0
 32 11  1  0
 30 15  1  0
 28 21  1  0
  1 39  1  0
  3 40  1  0
  4 41  1  0
  6 42  1  0
  6 43  1  0
  8 44  1  0
  8 45  1  0
  9 46  1  0
  9 47  1  0
 12 48  1  0
 13 49  1  0
 16 50  1  0
 16 51  1  0
 17 52  1  0
 17 53  1  0
 22 54  1  0
 25 55  1  0
 28 56  1  0
 29 57  1  0
 29 58  1  0
 30 59  1  0
 30 60  1  0
 31 61  1  0
 34 62  1  0
 34 63  1  0
 35 64  1  0
 35 65  1  0
 37 66  1  0
 38 67  1  0
M  END
>  <smiles>  (64) 
N=c1[nH]cc(CN2CCN(c3ccc(N4CCN(C(=O)c5cc(Cl)cc(Cl)c5)CC4)cc3F)CC2)c(=N)[nH]1

>  <score_type>  (64) 
oracle

>  <origin>  (64) 
adg

>  <m_score__min__energy>  (64) 
-8.9100000000000001

>  <m_primary>  (64) 
energy

$$$$
64:0
     RDKit          3D

 39 43  0  0  0  0  0  0  0  0999 V2000
   53.3094   23.6465   45.5857 H   0  0  0  0  0  0  0  0  0  0  0  0
   54.3090   24.0880   45.4600 C   0  0  0  0  0  0  0  0  0  0  0  0
   54.7080   25.2200   45.9930 O   0  0  0  0  0  0  0  0  0  0  0  0
   55.9520   25.4350   45.6330 C   0  0  0  0  0  0  0  0  0  0  0  0
   56.7310   26.6080   46.0420 C   0  0  0  0  0  0  0  0  0  0  0  0
   57.6650   26.5790   47.0320 N   0  0  0  0  0  0  0  0  0  0  0  0
   58.0810   27.8570   47.0210 C   0  0  0  0  0  0  0  0  0  0  0  0
   59.0370   28.4570   47.8150 C   0  0  0  0  0  0  0  0  0  0  0  0
   59.7950   27.9570   48.8050 N   0  0  0  0  0  0  0  0  0  0  0  0
   60.5420   28.9760   49.2300 N   0  0  0  0  0  0  0  0  0  0  0  0
   61.4690   28.8800   50.3500 C   0  0  0  0  0  0  0  0  0  0  0  0
   60.9093   28.9380   51.2952 H   0  0  0  0  0  0  0  0  0  0  0  0
   62.0062   27.9214   50.3002 H   0  0  0  0  0  0  0  0  0  0  0  0
   62.1913   29.7081   50.3002 H   0  0  0  0  0  0  0  0  0  0  0  0
   60.2590   30.1130   48.5430 C   0  0  0  0  0  0  0  0  0  0  0  0
   60.7133   31.1036   48.6922 H   0  0  0  0  0  0  0  0  0  0  0  0
   59.2950   29.7810   47.6270 C   0  0  0  0  0  0  0  0  0  0  0  0
   58.6500   30.5390   46.6930 N   0  0  0  0  0  0  0  0  0  0  0  0
   57.7010   29.9300   45.9050 C   0  0  0  0  0  0  0  0  0  0  0  0
   57.0450   30.5890   44.9920 N   0  0  0  0  0  0  0  0  0  0  0  0
   57.4720   31.7820   44.3090 C   0  0  0  0  0  0  0  0  0  0  0  0
   57.3560   31.8800   43.0570 O   0  0  0  0  0  0  0  0  0  0  0  0
   58.0550   32.9030   45.0840 C   0  0  0  0  0  0  0  0  0  0  0  0
   59.0360   33.7350   44.5080 C   0  0  0  0  0  0  0  0  0  0  0  0
   59.3713   33.5515   43.4766 H   0  0  0  0  0  0  0  0  0  0  0  0
   59.5860   34.7930   45.2400 C   0  0  0  0  0  0  0  0  0  0  0  0
   60.3522   35.4368   44.7834 H   0  0  0  0  0  0  0  0  0  0  0  0
   59.1640   35.0330   46.5490 C   0  0  0  0  0  0  0  0  0  0  0  0
   59.5959   35.8668   47.1219 H   0  0  0  0  0  0  0  0  0  0  0  0
   58.1940   34.2150   47.1310 C   0  0  0  0  0  0  0  0  0  0  0  0
   57.8638   34.4049   48.1629 H   0  0  0  0  0  0  0  0  0  0  0  0
   57.6410   33.1550   46.4060 C   0  0  0  0  0  0  0  0  0  0  0  0
   56.8778   32.5140   46.8713 H   0  0  0  0  0  0  0  0  0  0  0  0
   57.4480   28.5980   46.1000 N   0  0  0  0  0  0  0  0  0  0  0  0
   56.5860   27.8270   45.4650 N   0  0  0  0  0  0  0  0  0  0  0  0
   56.3990   24.4050   44.8300 C   0  0  0  0  0  0  0  0  0  0  0  0
   57.3950   24.2996   44.3752 H   0  0  0  0  0  0  0  0  0  0  0  0
   55.3340   23.5360   44.7180 C   0  0  0  0  0  0  0  0  0  0  0  0
   55.3067   22.5933   44.1518 H   0  0  0  0  0  0  0  0  0  0  0  0
  1  2  1  0
  2  3  1  0
  3  4  1  0
  4  5  1  0
  5  6  1  0
  6  7  2  0
  7  8  1  0
  8  9  2  0
  9 10  1  0
 10 11  1  0
 11 12  1  0
 11 13  1  0
 11 14  1  0
 10 15  1  0
 15 16  1  0
 15 17  2  0
 17 18  1  0
 18 19  1  0
 19 20  2  0
 20 21  1  0
 21 22  2  0
 21 23  1  0
 23 24  2  0
 24 25  1  0
 24 26  1  0
 26 27  1  0
 26 28  2  0
 28 29  1  0
 28 30  1  0
 30 31  1  0
 30 32  2  0
 32 33  1  0
 19 34  1  0
 34 35  1  0
  4 36  2  0
 36 37  1  0
 36 38  1  0
 38 39  1  0
 38  2  2  0
 35  5  2  0
 34  7  1  0
 17  8  1  0
 32 23  1  0
M  CHG  1  18  -1
M  END
>  <UniqueID>  (65) 
58

>  <SMILES>  (65) 
Cn1cc2[n-]/c(=N\C(=O)c3ccccc3)n3nc(-c4ccco4)nc3c2n1

>  <Energy>  (65) 
154.86364720114196

>  <Genealogy>  (65) 
Cn1cc2[n-]c(=NC(=O)c3ccccc3)n3nc(-c4ccco4)nc3c2n1 (protonated)
Cn1cc2[n-]/c(=N\C(=O)c3ccccc3)n3nc(-c4ccco4)nc3c2n1 (cis-trans isomerization)
Cn1cc2[n-]/c(=N\C(=O)c3ccccc3)n3nc(-c4ccco4)nc3c2n1 (3D coordinates assigned)
Cn1cc2[n-]/c(=N\C(=O)c3ccccc3)n3nc(-c4ccco4)nc3c2n1 (optimized conformer: 154.86364720114196 kcal/mol)

>  <smiles>  (65) 
Cn1cc2[nH]c(=NC(=O)c3ccccc3)n3nc(-c4ccco4)nc3c2n1

>  <score_type>  (65) 
oracle

>  <origin>  (65) 
adg

>  <m_score__min__energy>  (65) 
-9.4600000000000009

>  <m_primary>  (65) 
energy

$$$$
65:0
     RDKit          3D

 33 34  0  0  0  0  0  0  0  0999 V2000
   58.4470   26.1380   47.3060 C   0  0  0  0  0  0  0  0  0  0  0  0
   58.6900   27.2870   46.3730 C   0  0  0  0  0  0  0  0  0  0  0  0
   59.9970   27.6170   45.9840 C   0  0  0  0  0  0  0  0  0  0  0  0
   60.2210   28.6700   45.0920 C   0  0  0  0  0  0  0  0  0  0  0  0
   59.1420   29.3890   44.5710 C   0  0  0  0  0  0  0  0  0  0  0  0
   57.8300   29.0520   44.9320 C   0  0  0  0  0  0  0  0  0  0  0  0
   56.4770   29.9750   44.2820 S   0  0  0  0  0  0  0  0  0  0  0  0
   55.1760   29.3290   44.6740 O   0  0  0  0  0  0  0  0  0  0  0  0
   56.5670   29.9870   42.7820 O   0  0  0  0  0  0  0  0  0  0  0  0
   56.5210   31.6090   44.8700 N   0  0  0  0  0  0  0  0  0  0  0  0
   57.6460   32.3240   44.2630 C   0  0  0  0  0  0  0  0  0  0  0  0
   58.2990   33.2020   45.2940 C   0  0  0  0  0  0  0  0  0  0  0  0
   58.2300   32.8680   46.6570 C   0  0  0  0  0  0  0  0  0  0  0  0
   58.8670   33.6680   47.6100 C   0  0  0  0  0  0  0  0  0  0  0  0
   59.5870   34.7980   47.2100 C   0  0  0  0  0  0  0  0  0  0  0  0
   59.6730   35.1270   45.8540 C   0  0  0  0  0  0  0  0  0  0  0  0
   59.0370   34.3310   44.8970 C   0  0  0  0  0  0  0  0  0  0  0  0
   57.6070   28.0000   45.8330 C   0  0  0  0  0  0  0  0  0  0  0  0
   58.5211   26.4883   48.3461 H   0  0  0  0  0  0  0  0  0  0  0  0
   57.4421   25.7274   47.1281 H   0  0  0  0  0  0  0  0  0  0  0  0
   59.1996   25.3557   47.1281 H   0  0  0  0  0  0  0  0  0  0  0  0
   60.8483   27.0454   46.3821 H   0  0  0  0  0  0  0  0  0  0  0  0
   61.2484   28.9329   44.7998 H   0  0  0  0  0  0  0  0  0  0  0  0
   59.3226   30.2219   43.8755 H   0  0  0  0  0  0  0  0  0  0  0  0
   55.6340   32.0670   44.5530 H   0  0  0  0  0  0  0  0  0  0  0  0
   58.3794   31.5977   43.8828 H   0  0  0  0  0  0  0  0  0  0  0  0
   57.2795   32.9452   43.4325 H   0  0  0  0  0  0  0  0  0  0  0  0
   57.6731   31.9743   46.9751 H   0  0  0  0  0  0  0  0  0  0  0  0
   58.8017   33.4081   48.6769 H   0  0  0  0  0  0  0  0  0  0  0  0
   60.0854   35.4276   47.9618 H   0  0  0  0  0  0  0  0  0  0  0  0
   60.2423   36.0141   45.5395 H   0  0  0  0  0  0  0  0  0  0  0  0
   59.1141   34.5886   43.8304 H   0  0  0  0  0  0  0  0  0  0  0  0
   56.5789   27.7322   46.1180 H   0  0  0  0  0  0  0  0  0  0  0  0
  1  2  1  0
  2  3  2  0
  3  4  1  0
  4  5  2  0
  5  6  1  0
  6  7  1  0
  7  8  2  0
  7  9  2  0
  7 10  1  0
 10 11  1  0
 11 12  1  0
 12 13  2  0
 13 14  1  0
 14 15  2  0
 15 16  1  0
 16 17  2  0
  6 18  2  0
 18  2  1  0
 17 12  1  0
  1 19  1  0
  1 20  1  0
  1 21  1  0
  3 22  1  0
  4 23  1  0
  5 24  1  0
 10 25  1  0
 11 26  1  0
 11 27  1  0
 13 28  1  0
 14 29  1  0
 15 30  1  0
 16 31  1  0
 17 32  1  0
 18 33  1  0
M  END
>  <UniqueID>  (66) 
59

>  <SMILES>  (66) 
Cc1cccc(S(=O)(=O)NCc2ccccc2)c1

>  <Energy>  (66) 
29.370314829193475

>  <Genealogy>  (66) 
Cc1cccc(S(=O)(=O)NCc2ccccc2)c1 (3D coordinates assigned)
Cc1cccc(S(=O)(=O)NCc2ccccc2)c1 (optimized conformer: 29.370314829193475 kcal/mol)

>  <smiles>  (66) 
Cc1cccc(S(=O)(=O)NCc2ccccc2)c1

>  <score_type>  (66) 
oracle

>  <origin>  (66) 
adg

>  <m_score__min__energy>  (66) 
-7.9500000000000002

>  <m_primary>  (66) 
energy

$$$$
66:0
     RDKit          3D

 34 36  0  0  1  0  0  0  0  0999 V2000
   57.4080   31.7100   42.6240 O   0  0  0  0  0  0  0  0  0  0  0  0
   57.2230   31.6660   43.8710 C   0  0  0  0  0  0  0  0  0  0  0  0
   56.4720   30.6550   44.5230 N   0  0  0  0  0  0  0  0  0  0  0  0
   57.0140   29.4070   44.3800 C   0  0  0  0  0  0  0  0  0  0  0  0
   57.5960   28.8070   43.3710 N   0  0  0  0  0  0  0  0  0  0  0  0
   57.9830   27.6050   43.6500 N   0  0  0  0  0  0  0  0  0  0  0  0
   57.9230   26.9680   44.5900 C   0  0  0  0  0  0  0  0  0  0  0  0
   58.3490   25.3390   45.2670 S   0  0  0  0  0  0  0  0  0  0  0  0
   59.9140   25.5620   46.2020 C   0  0  0  0  0  0  0  0  0  0  0  0
   60.0120   26.9860   46.5350 C   0  0  0  0  0  0  0  0  0  0  0  0
   59.5650   27.5710   47.6980 C   0  0  0  0  0  0  0  0  0  0  0  0
   59.7430   28.9490   47.8920 C   0  0  0  0  0  0  0  0  0  0  0  0
   60.3620   29.7350   46.9320 C   0  0  0  0  0  0  0  0  0  0  0  0
   60.6170   31.4490   47.1270 Cl  0  0  0  0  0  0  0  0  0  0  0  0
   60.7870   29.1360   45.8020 N   0  0  0  0  0  0  0  0  0  0  0  0
   60.6240   27.8170   45.6010 C   0  0  0  0  0  0  0  0  0  0  0  0
   57.0230   28.2010   45.7840 S   0  0  0  0  0  0  0  0  0  0  0  0
   57.7990   32.7020   44.7550 C   0  0  0  0  0  0  0  0  0  0  0  0
   58.6960   33.6040   44.1970 C   0  0  0  0  0  0  0  0  0  0  0  0
   59.2800   34.6070   44.9550 C   0  0  0  0  0  0  0  0  0  0  0  0
   58.9360   34.6780   46.2980 C   0  0  0  0  0  0  0  0  0  0  0  0
   59.5270   35.6750   47.0020 F   0  0  0  0  0  0  0  0  0  0  0  0
   58.0560   33.7910   46.8390 C   0  0  0  0  0  0  0  0  0  0  0  0
   57.4750   32.7940   46.0880 C   0  0  0  0  0  0  0  0  0  0  0  0
   57.7330   29.2650   42.4220 H   0  0  0  0  0  0  0  0  0  0  0  0
   59.8943   24.9590   47.1218 H   0  0  0  0  0  0  0  0  0  0  0  0
   60.7789   25.2369   45.6051 H   0  0  0  0  0  0  0  0  0  0  0  0
   59.0716   26.9622   48.4700 H   0  0  0  0  0  0  0  0  0  0  0  0
   59.3851   29.4142   48.8223 H   0  0  0  0  0  0  0  0  0  0  0  0
   60.9887   27.3769   44.6612 H   0  0  0  0  0  0  0  0  0  0  0  0
   58.9486   33.5205   43.1297 H   0  0  0  0  0  0  0  0  0  0  0  0
   59.9893   35.3198   44.5091 H   0  0  0  0  0  0  0  0  0  0  0  0
   57.8021   33.8733   47.9061 H   0  0  0  0  0  0  0  0  0  0  0  0
   56.7671   32.0865   46.5445 H   0  0  0  0  0  0  0  0  0  0  0  0
  1  2  2  0
  2  3  1  0
  3  4  2  0
  4  5  1  0
  5  6  1  0
  6  7  2  0
  7  8  1  0
  8  9  1  0
  9 10  1  0
 10 11  2  0
 11 12  1  0
 12 13  2  0
 13 14  1  0
 13 15  1  0
 15 16  2  0
  7 17  1  0
  2 18  1  0
 18 19  2  0
 19 20  1  0
 20 21  2  0
 21 22  1  0
 21 23  1  0
 23 24  2  0
 17  4  1  0
 24 18  1  0
 16 10  1  0
  5 25  1  0
  9 26  1  0
  9 27  1  0
 11 28  1  0
 12 29  1  0
 16 30  1  0
 19 31  1  0
 20 32  1  0
 23 33  1  0
 24 34  1  0
M  END
>  <smiles>  (67) 
O=C(N=c1[nH]nc(SCc2ccc(Cl)nc2)s1)c1ccc(F)cc1

>  <score_type>  (67) 
oracle

>  <origin>  (67) 
adg

>  <m_score__min__energy>  (67) 
-9.3300000000000001

>  <m_primary>  (67) 
energy

$$$$
67:0
     RDKit          3D

 41 43  0  0  0  0  0  0  0  0999 V2000
   58.1350   32.3070   42.2960 C   0  0  0  0  0  0  0  0  0  0  0  0
   57.8850   31.8090   43.6570 N   0  0  0  0  0  0  0  0  0  0  0  0
   57.3590   32.8670   44.5460 C   0  0  0  0  0  0  0  0  0  0  0  0
   58.2410   33.1470   45.7310 C   0  0  0  0  0  0  0  0  0  0  0  0
   59.5740   32.9600   45.7450 N   0  0  0  0  0  0  0  0  0  0  0  0
   59.8840   33.3250   47.0070 C   0  0  0  0  0  0  0  0  0  0  0  0
   61.2560   33.2990   47.5570 C   0  0  0  0  0  0  0  0  0  0  0  0
   62.3680   33.4710   46.7120 C   0  0  0  0  0  0  0  0  0  0  0  0
   63.6640   33.4480   47.2370 C   0  0  0  0  0  0  0  0  0  0  0  0
   63.8630   33.2550   48.6060 C   0  0  0  0  0  0  0  0  0  0  0  0
   65.1210   33.2330   49.1110 F   0  0  0  0  0  0  0  0  0  0  0  0
   62.7660   33.0840   49.4540 C   0  0  0  0  0  0  0  0  0  0  0  0
   61.4680   33.1070   48.9350 C   0  0  0  0  0  0  0  0  0  0  0  0
   58.7990   33.7110   47.7090 N   0  0  0  0  0  0  0  0  0  0  0  0
   57.8040   33.5850   46.8860 O   0  0  0  0  0  0  0  0  0  0  0  0
   56.8650   30.3820   43.6380 S   0  0  0  0  0  0  0  0  0  0  0  0
   55.7230   30.5360   44.6020 O   0  0  0  0  0  0  0  0  0  0  0  0
   56.3070   30.1470   42.2610 O   0  0  0  0  0  0  0  0  0  0  0  0
   57.8030   28.9500   44.1550 C   0  0  0  0  0  0  0  0  0  0  0  0
   58.6900   29.2680   45.3260 C   0  0  0  0  0  0  0  0  0  0  0  0
   60.0760   29.4010   45.1470 C   0  0  0  0  0  0  0  0  0  0  0  0
   60.8970   29.7300   46.2300 C   0  0  0  0  0  0  0  0  0  0  0  0
   60.3400   29.9270   47.4960 C   0  0  0  0  0  0  0  0  0  0  0  0
   58.9600   29.8000   47.6810 C   0  0  0  0  0  0  0  0  0  0  0  0
   58.1360   29.4730   46.6000 C   0  0  0  0  0  0  0  0  0  0  0  0
   58.6279   33.2889   42.3496 H   0  0  0  0  0  0  0  0  0  0  0  0
   58.7847   31.5993   41.7602 H   0  0  0  0  0  0  0  0  0  0  0  0
   57.1794   32.4052   41.7602 H   0  0  0  0  0  0  0  0  0  0  0  0
   57.2560   33.7934   43.9619 H   0  0  0  0  0  0  0  0  0  0  0  0
   56.3943   32.5114   44.9371 H   0  0  0  0  0  0  0  0  0  0  0  0
   62.2171   33.6243   45.6332 H   0  0  0  0  0  0  0  0  0  0  0  0
   64.5286   33.5822   46.5703 H   0  0  0  0  0  0  0  0  0  0  0  0
   62.9238   32.9310   50.5318 H   0  0  0  0  0  0  0  0  0  0  0  0
   60.6077   32.9743   49.6075 H   0  0  0  0  0  0  0  0  0  0  0  0
   57.1050   28.1496   44.4418 H   0  0  0  0  0  0  0  0  0  0  0  0
   58.4389   28.6317   43.3158 H   0  0  0  0  0  0  0  0  0  0  0  0
   60.5176   29.2459   44.1515 H   0  0  0  0  0  0  0  0  0  0  0  0
   61.9825   29.8338   46.0850 H   0  0  0  0  0  0  0  0  0  0  0  0
   60.9876   30.1822   48.3478 H   0  0  0  0  0  0  0  0  0  0  0  0
   58.5223   29.9575   48.6778 H   0  0  0  0  0  0  0  0  0  0  0  0
   57.0503   29.3760   46.7478 H   0  0  0  0  0  0  0  0  0  0  0  0
  1  2  1  0
  2  3  1  0
  3  4  1  0
  4  5  2  0
  5  6  1  0
  6  7  1  0
  7  8  2  0
  8  9  1  0
  9 10  2  0
 10 11  1  0
 10 12  1  0
 12 13  2  0
  6 14  2  0
 14 15  1  0
  2 16  1  0
 16 17  2  0
 16 18  2  0
 16 19  1  0
 19 20  1  0
 20 21  2  0
 21 22  1  0
 22 23  2  0
 23 24  1  0
 24 25  2  0
 15  4  1  0
 25 20  1  0
 13  7  1  0
  1 26  1  0
  1 27  1  0
  1 28  1  0
  3 29  1  0
  3 30  1  0
  8 31  1  0
  9 32  1  0
 12 33  1  0
 13 34  1  0
 19 35  1  0
 19 36  1  0
 21 37  1  0
 22 38  1  0
 23 39  1  0
 24 40  1  0
 25 41  1  0
M  END
>  <UniqueID>  (68) 
60

>  <SMILES>  (68) 
CN(Cc1nc(-c2ccc(F)cc2)no1)S(=O)(=O)Cc1ccccc1

>  <Energy>  (68) 
72.95452982927574

>  <Genealogy>  (68) 
CN(Cc1nc(-c2ccc(F)cc2)no1)S(=O)(=O)Cc1ccccc1 (3D coordinates assigned)
CN(Cc1nc(-c2ccc(F)cc2)no1)S(=O)(=O)Cc1ccccc1 (optimized conformer: 72.95452982927574 kcal/mol)

>  <smiles>  (68) 
CN(Cc1nc(-c2ccc(F)cc2)no1)S(=O)(=O)Cc1ccccc1

>  <score_type>  (68) 
oracle

>  <origin>  (68) 
adg

>  <m_score__min__energy>  (68) 
-9

>  <m_primary>  (68) 
energy

$$$$
68:0
     RDKit          3D

 34 35  0  0  1  0  0  0  0  0999 V2000
   58.9590   26.3350   47.4850 C   0  0  0  0  0  0  0  0  0  0  0  0
   60.3930   26.4700   47.0240 C   0  0  0  0  0  0  0  0  0  0  0  0
   60.5550   27.5370   46.0640 N   0  0  0  0  0  0  0  0  0  0  0  0
   59.5810   28.1940   45.5450 C   0  0  0  0  0  0  0  0  0  0  0  0
   59.0070   27.7600   44.4340 N   0  0  0  0  0  0  0  0  0  0  0  0
   57.9920   28.4510   43.8950 C   0  0  0  0  0  0  0  0  0  0  0  0
   57.4170   27.9240   42.6930 N   0  0  0  0  0  0  0  0  0  0  0  0
   57.5020   29.6320   44.4610 C   0  0  0  0  0  0  0  0  0  0  0  0
   56.4390   30.2450   43.7800 N   0  0  0  0  0  0  0  0  0  0  0  0
   55.5190   30.7370   44.5080 O   0  0  0  0  0  0  0  0  0  0  0  0
   56.2990   30.4160   42.4400 O   0  0  0  0  0  0  0  0  0  0  0  0
   58.1080   30.0530   45.5990 C   0  0  0  0  0  0  0  0  0  0  0  0
   57.7700   31.0830   46.2060 N   0  0  0  0  0  0  0  0  0  0  0  0
   58.1830   32.3900   45.9830 C   0  0  0  0  0  0  0  0  0  0  0  0
   59.2360   32.8710   46.7790 C   0  0  0  0  0  0  0  0  0  0  0  0
   59.7630   34.1210   46.6270 C   0  0  0  0  0  0  0  0  0  0  0  0
   59.2680   34.9700   45.6650 C   0  0  0  0  0  0  0  0  0  0  0  0
   58.2340   34.5270   44.8680 C   0  0  0  0  0  0  0  0  0  0  0  0
   57.7140   33.2640   45.0350 C   0  0  0  0  0  0  0  0  0  0  0  0
   59.1390   29.3180   46.1130 N   0  0  0  0  0  0  0  0  0  0  0  0
   58.9261   26.3319   48.5845 H   0  0  0  0  0  0  0  0  0  0  0  0
   58.3698   27.1816   47.1029 H   0  0  0  0  0  0  0  0  0  0  0  0
   58.5381   25.3933   47.1029 H   0  0  0  0  0  0  0  0  0  0  0  0
   61.0286   26.6785   47.8973 H   0  0  0  0  0  0  0  0  0  0  0  0
   60.6831   25.5276   46.5364 H   0  0  0  0  0  0  0  0  0  0  0  0
   59.3450   26.8830   43.9810 H   0  0  0  0  0  0  0  0  0  0  0  0
   57.0760   26.9420   42.6560 H   0  0  0  0  0  0  0  0  0  0  0  0
   57.3550   28.5740   41.8600 H   0  0  0  0  0  0  0  0  0  0  0  0
   59.6527   32.2136   47.5563 H   0  0  0  0  0  0  0  0  0  0  0  0
   60.5871   34.4506   47.2767 H   0  0  0  0  0  0  0  0  0  0  0  0
   59.6871   35.9786   45.5346 H   0  0  0  0  0  0  0  0  0  0  0  0
   57.8213   35.1886   44.0922 H   0  0  0  0  0  0  0  0  0  0  0  0
   56.8892   32.9421   44.3823 H   0  0  0  0  0  0  0  0  0  0  0  0
   59.6160   29.6320   46.9920 H   0  0  0  0  0  0  0  0  0  0  0  0
  1  2  1  0
  2  3  1  0
  3  4  2  0
  4  5  1  0
  5  6  1  0
  6  7  1  0
  6  8  2  0
  8  9  1  0
  9 10  2  0
  9 11  1  0
  8 12  1  0
 12 13  2  0
 13 14  1  0
 14 15  2  0
 15 16  1  0
 16 17  2  0
 17 18  1  0
 18 19  2  0
 12 20  1  0
 20  4  1  0
 19 14  1  0
  1 21  1  0
  1 22  1  0
  1 23  1  0
  2 24  1  0
  2 25  1  0
  5 26  1  0
  7 27  1  0
  7 28  1  0
 15 29  1  0
 16 30  1  0
 17 31  1  0
 18 32  1  0
 19 33  1  0
 20 34  1  0
M  CHG  2   9   1  11  -1
M  END
>  <smiles>  (69) 
CCN=c1[nH]c(N)c([N+](=O)[O-])c(=Nc2ccccc2)[nH]1

>  <score_type>  (69) 
oracle

>  <origin>  (69) 
adg

>  <m_score__min__energy>  (69) 
-6.5999999999999996

>  <m_primary>  (69) 
energy

$$$$
69:0
     RDKit          3D

 44 46  0  0  0  0  0  0  0  0999 V2000
   62.8640   33.8220   50.2520 C   0  0  0  0  0  0  0  0  0  0  0  0
   63.0800   32.8750   48.7590 S   0  0  0  0  0  0  0  0  0  0  0  0
   64.2660   33.3830   47.9900 O   0  0  0  0  0  0  0  0  0  0  0  0
   63.3530   31.4500   49.1490 O   0  0  0  0  0  0  0  0  0  0  0  0
   61.6060   32.9630   47.7710 C   0  0  0  0  0  0  0  0  0  0  0  0
   61.1720   34.2340   47.3590 C   0  0  0  0  0  0  0  0  0  0  0  0
   60.0650   34.3820   46.5260 C   0  0  0  0  0  0  0  0  0  0  0  0
   59.3770   33.2610   46.0570 C   0  0  0  0  0  0  0  0  0  0  0  0
   58.2290   33.4390   45.2090 N   0  0  0  0  0  0  0  0  0  0  0  0
   57.7200   32.4380   44.3100 C   0  0  0  0  0  0  0  0  0  0  0  0
   57.0130   31.3410   44.8270 C   0  0  0  0  0  0  0  0  0  0  0  0
   56.4900   30.3690   43.9680 C   0  0  0  0  0  0  0  0  0  0  0  0
   56.6560   30.4930   42.5870 C   0  0  0  0  0  0  0  0  0  0  0  0
   57.3390   31.5930   42.0610 C   0  0  0  0  0  0  0  0  0  0  0  0
   57.8630   32.5670   42.9160 C   0  0  0  0  0  0  0  0  0  0  0  0
   59.7820   31.9860   46.4780 C   0  0  0  0  0  0  0  0  0  0  0  0
   60.8830   31.8140   47.3420 C   0  0  0  0  0  0  0  0  0  0  0  0
   61.2480   30.4660   47.7320 N   0  0  0  0  0  0  0  0  0  0  0  0
   60.5100   29.4960   46.9570 C   0  0  0  0  0  0  0  0  0  0  0  0
   60.8470   29.2490   45.6130 C   0  0  0  0  0  0  0  0  0  0  0  0
   60.1220   28.3190   44.8610 C   0  0  0  0  0  0  0  0  0  0  0  0
   59.0530   27.6260   45.4400 C   0  0  0  0  0  0  0  0  0  0  0  0
   58.3070   26.6700   44.6640 C   0  0  0  0  0  0  0  0  0  0  0  0
   57.7080   25.9020   44.0400 N   0  0  0  0  0  0  0  0  0  0  0  0
   58.7100   27.8660   46.7760 C   0  0  0  0  0  0  0  0  0  0  0  0
   59.4310   28.7960   47.5300 C   0  0  0  0  0  0  0  0  0  0  0  0
   63.0129   33.1694   51.1249 H   0  0  0  0  0  0  0  0  0  0  0  0
   63.5985   34.6404   50.2766 H   0  0  0  0  0  0  0  0  0  0  0  0
   61.8472   34.2410   50.2766 H   0  0  0  0  0  0  0  0  0  0  0  0
   61.7154   35.1276   47.6999 H   0  0  0  0  0  0  0  0  0  0  0  0
   59.7306   35.3890   46.2358 H   0  0  0  0  0  0  0  0  0  0  0  0
   57.7270   34.3550   45.2530 H   0  0  0  0  0  0  0  0  0  0  0  0
   56.8696   31.2453   45.9134 H   0  0  0  0  0  0  0  0  0  0  0  0
   55.9473   29.5058   44.3807 H   0  0  0  0  0  0  0  0  0  0  0  0
   56.2491   29.7247   41.9131 H   0  0  0  0  0  0  0  0  0  0  0  0
   57.4644   31.6925   40.9727 H   0  0  0  0  0  0  0  0  0  0  0  0
   58.3891   33.4376   42.4975 H   0  0  0  0  0  0  0  0  0  0  0  0
   59.2294   31.1020   46.1270 H   0  0  0  0  0  0  0  0  0  0  0  0
   61.0750   30.2720   48.7390 H   0  0  0  0  0  0  0  0  0  0  0  0
   62.2770   30.3510   47.5840 H   0  0  0  0  0  0  0  0  0  0  0  0
   61.6857   29.7907   45.1513 H   0  0  0  0  0  0  0  0  0  0  0  0
   60.3929   28.1318   43.8114 H   0  0  0  0  0  0  0  0  0  0  0  0
   57.8709   27.3212   47.2334 H   0  0  0  0  0  0  0  0  0  0  0  0
   59.1537   28.9823   48.5780 H   0  0  0  0  0  0  0  0  0  0  0  0
  1  2  1  0
  2  3  2  0
  2  4  2  0
  2  5  1  0
  5  6  2  0
  6  7  1  0
  7  8  2  0
  8  9  1  0
  9 10  1  0
 10 11  2  0
 11 12  1  0
 12 13  2  0
 13 14  1  0
 14 15  2  0
  8 16  1  0
 16 17  2  0
 17 18  1  0
 18 19  1  0
 19 20  2  0
 20 21  1  0
 21 22  2  0
 22 23  1  0
 23 24  3  0
 22 25  1  0
 25 26  2  0
 17  5  1  0
 26 19  1  0
 15 10  1  0
  1 27  1  0
  1 28  1  0
  1 29  1  0
  6 30  1  0
  7 31  1  0
  9 32  1  0
 11 33  1  0
 12 34  1  0
 13 35  1  0
 14 36  1  0
 15 37  1  0
 16 38  1  0
 18 39  1  0
 18 40  1  0
 20 41  1  0
 21 42  1  0
 25 43  1  0
 26 44  1  0
M  CHG  1  18   1
M  END
>  <UniqueID>  (70) 
61

>  <SMILES>  (70) 
CS(=O)(=O)c1ccc(Nc2ccccc2)cc1[NH2+]c1ccc(C#N)cc1

>  <Energy>  (70) 
54.987907621797596

>  <Genealogy>  (70) 
CS(=O)(=O)c1ccc(Nc2ccccc2)cc1[NH2+]c1ccc(C#N)cc1 (protonated)
CS(=O)(=O)c1ccc(Nc2ccccc2)cc1[NH2+]c1ccc(C#N)cc1 (3D coordinates assigned)
CS(=O)(=O)c1ccc(Nc2ccccc2)cc1[NH2+]c1ccc(C#N)cc1 (optimized conformer: 54.987907621797596 kcal/mol)

>  <smiles>  (70) 
CS(=O)(=O)c1ccc(Nc2ccccc2)cc1Nc1ccc(C#N)cc1

>  <score_type>  (70) 
oracle

>  <origin>  (70) 
adg

>  <m_score__min__energy>  (70) 
-6.7000000000000002

>  <m_primary>  (70) 
energy

$$$$
70:0
     RDKit          3D

 25 26  0  0  0  0  0  0  0  0999 V2000
   58.4011   26.0746   45.2502 H   0  0  0  0  0  0  0  0  0  0  0  0
   58.1550   27.1190   45.0080 C   0  0  0  0  0  0  0  0  0  0  0  0
   57.4000   28.2210   46.0330 S   0  0  0  0  0  0  0  0  0  0  0  0
   57.4340   29.4680   44.8980 C   0  0  0  0  0  0  0  0  0  0  0  0
   56.9830   30.6800   45.0550 N   0  0  0  0  0  0  0  0  0  0  0  0
   57.3520   31.8540   44.3140 C   0  0  0  0  0  0  0  0  0  0  0  0
   57.9010   31.7740   43.1820 O   0  0  0  0  0  0  0  0  0  0  0  0
   57.0340   33.2000   44.8810 C   0  0  0  0  0  0  0  0  0  0  0  0
   56.9750   33.9343   44.0641 H   0  0  0  0  0  0  0  0  0  0  0  0
   56.0704   33.1500   45.4092 H   0  0  0  0  0  0  0  0  0  0  0  0
   58.1050   33.6180   45.8490 C   0  0  0  0  0  0  0  0  0  0  0  0
   59.0420   34.6010   45.4880 C   0  0  0  0  0  0  0  0  0  0  0  0
   59.0090   35.0472   44.4831 H   0  0  0  0  0  0  0  0  0  0  0  0
   60.0170   35.0140   46.4030 C   0  0  0  0  0  0  0  0  0  0  0  0
   60.7536   35.7780   46.1135 H   0  0  0  0  0  0  0  0  0  0  0  0
   60.0560   34.4570   47.6840 C   0  0  0  0  0  0  0  0  0  0  0  0
   60.8249   34.7808   48.4009 H   0  0  0  0  0  0  0  0  0  0  0  0
   59.1190   33.4890   48.0550 C   0  0  0  0  0  0  0  0  0  0  0  0
   59.1492   33.0537   49.0648 H   0  0  0  0  0  0  0  0  0  0  0  0
   58.1430   33.0730   47.1440 C   0  0  0  0  0  0  0  0  0  0  0  0
   57.4022   32.3164   47.4420 H   0  0  0  0  0  0  0  0  0  0  0  0
   58.0130   29.0590   43.7480 N   0  0  0  0  0  0  0  0  0  0  0  0
   58.1410   29.6670   42.9090 H   0  0  0  0  0  0  0  0  0  0  0  0
   58.4130   27.7610   43.8010 C   0  0  0  0  0  0  0  0  0  0  0  0
   58.9029   27.2570   42.9548 H   0  0  0  0  0  0  0  0  0  0  0  0
  1  2  1  0
  2  3  1  0
  3  4  1  0
  4  5  2  0
  5  6  1  0
  6  7  2  0
  6  8  1  0
  8  9  1  0
  8 10  1  0
  8 11  1  0
 11 12  2  0
 12 13  1  0
 12 14  1  0
 14 15  1  0
 14 16  2  0
 16 17  1  0
 16 18  1  0
 18 19  1  0
 18 20  2  0
 20 21  1  0
  4 22  1  0
 22 23  1  0
 22 24  1  0
 24 25  1  0
 24  2  2  0
 20 11  1  0
M  END
>  <UniqueID>  (71) 
62

>  <SMILES>  (71) 
O=C(Cc1ccccc1)/N=c1/[nH]ccs1

>  <Energy>  (71) 
56.479081625490885

>  <Genealogy>  (71) 
O=C(Cc1ccccc1)/N=c1/[nH]ccs1 (cis-trans isomerization)
O=C(Cc1ccccc1)/N=c1/[nH]ccs1 (3D coordinates assigned)
O=C(Cc1ccccc1)/N=c1/[nH]ccs1 (optimized conformer: 56.479081625490885 kcal/mol)

>  <smiles>  (71) 
O=C(Cc1ccccc1)N=c1[nH]ccs1

>  <score_type>  (71) 
oracle

>  <origin>  (71) 
adg

>  <m_score__min__energy>  (71) 
-6.5199999999999996

>  <m_primary>  (71) 
energy

$$$$
71:0
     RDKit          3D

 42 45  0  0  1  0  0  0  0  0999 V2000
   57.5550   26.0400   46.3370 C   0  0  0  0  0  0  0  0  0  0  0  0
   57.7380   27.3250   46.3850 C   0  0  0  0  0  0  0  0  0  0  0  0
   57.0850   28.3630   45.6520 C   0  0  0  0  0  0  0  0  0  0  0  0
   55.8950   28.5410   45.0840 N   0  0  0  0  0  0  0  0  0  0  0  0
   55.7550   29.7990   44.6200 N   0  0  0  0  0  0  0  0  0  0  0  0
   56.8630   30.4950   44.8720 C   0  0  0  0  0  0  0  0  0  0  0  0
   57.1940   31.7950   44.5970 C   0  0  0  0  0  0  0  0  0  0  0  0
   58.4410   32.2300   44.9940 C   0  0  0  0  0  0  0  0  0  0  0  0
   58.8210   33.5320   44.7390 O   0  0  0  0  0  0  0  0  0  0  0  0
   58.7430   34.6040   45.6300 C   0  0  0  0  0  0  0  0  0  0  0  0
   59.7400   34.3360   46.7210 C   0  0  0  0  0  0  0  0  0  0  0  0
   59.3440   34.4040   48.0410 C   0  0  0  0  0  0  0  0  0  0  0  0
   60.2700   34.1550   49.0330 C   0  0  0  0  0  0  0  0  0  0  0  0
   61.5730   33.8420   48.7210 C   0  0  0  0  0  0  0  0  0  0  0  0
   61.9850   33.7690   47.3960 C   0  0  0  0  0  0  0  0  0  0  0  0
   61.0440   34.0220   46.3990 C   0  0  0  0  0  0  0  0  0  0  0  0
   59.3420   31.4130   45.6420 C   0  0  0  0  0  0  0  0  0  0  0  0
   58.9440   30.1160   45.8870 C   0  0  0  0  0  0  0  0  0  0  0  0
   57.7090   29.6230   45.5140 C   0  0  0  0  0  0  0  0  0  0  0  0
   56.3730   25.3520   45.8780 C   0  0  0  0  0  0  0  0  0  0  0  0
   56.5500   24.0800   45.3760 C   0  0  0  0  0  0  0  0  0  0  0  0
   55.4320   23.3730   45.0020 C   0  0  0  0  0  0  0  0  0  0  0  0
   54.1460   23.8610   45.1000 C   0  0  0  0  0  0  0  0  0  0  0  0
   54.0070   25.1350   45.6060 C   0  0  0  0  0  0  0  0  0  0  0  0
   55.1170   25.7860   45.9560 N   0  0  0  0  0  0  0  0  0  0  0  0
   58.3884   25.4106   46.6824 H   0  0  0  0  0  0  0  0  0  0  0  0
   58.5083   27.6635   47.0935 H   0  0  0  0  0  0  0  0  0  0  0  0
   55.1450   27.8660   44.9220 H   0  0  0  0  0  0  0  0  0  0  0  0
   56.4926   32.4661   44.0796 H   0  0  0  0  0  0  0  0  0  0  0  0
   58.9898   35.5437   45.1142 H   0  0  0  0  0  0  0  0  0  0  0  0
   57.7270   34.7030   46.0398 H   0  0  0  0  0  0  0  0  0  0  0  0
   58.3041   34.6533   48.2989 H   0  0  0  0  0  0  0  0  0  0  0  0
   59.9624   34.2074   50.0878 H   0  0  0  0  0  0  0  0  0  0  0  0
   62.2951   33.6478   49.5278 H   0  0  0  0  0  0  0  0  0  0  0  0
   63.0252   33.5184   47.1407 H   0  0  0  0  0  0  0  0  0  0  0  0
   61.3452   33.9706   45.3423 H   0  0  0  0  0  0  0  0  0  0  0  0
   60.3328   31.7788   45.9495 H   0  0  0  0  0  0  0  0  0  0  0  0
   59.6430   29.4421   46.4039 H   0  0  0  0  0  0  0  0  0  0  0  0
   57.5552   23.6443   45.2778 H   0  0  0  0  0  0  0  0  0  0  0  0
   55.5714   22.3582   44.6009 H   0  0  0  0  0  0  0  0  0  0  0  0
   53.2758   23.2638   44.7901 H   0  0  0  0  0  0  0  0  0  0  0  0
   53.0157   25.5986   45.7173 H   0  0  0  0  0  0  0  0  0  0  0  0
  1  2  2  0
  2  3  1  0
  3  4  1  0
  4  5  1  0
  5  6  2  0
  6  7  1  0
  7  8  2  0
  8  9  1  0
  9 10  1  0
 10 11  1  0
 11 12  2  0
 12 13  1  0
 13 14  2  0
 14 15  1  0
 15 16  2  0
  8 17  1  0
 17 18  2  0
 18 19  1  0
  1 20  1  0
 20 21  2  0
 21 22  1  0
 22 23  2  0
 23 24  1  0
 24 25  2  0
 19  3  2  0
 25 20  1  0
 19  6  1  0
 16 11  1  0
  1 26  1  0
  2 27  1  0
  4 28  1  0
  7 29  1  0
 10 30  1  0
 10 31  1  0
 12 32  1  0
 13 33  1  0
 14 34  1  0
 15 35  1  0
 16 36  1  0
 17 37  1  0
 18 38  1  0
 21 39  1  0
 22 40  1  0
 23 41  1  0
 24 42  1  0
M  END
>  <smiles>  (72) 
C(=Cc1[nH]nc2cc(OCc3ccccc3)ccc12)c1ccccn1

>  <score_type>  (72) 
oracle

>  <origin>  (72) 
adg

>  <m_score__min__energy>  (72) 
-9.0899999999999999

>  <m_primary>  (72) 
energy

$$$$
72:0
     RDKit          3D

 22 23  0  0  0  0  0  0  0  0999 V2000
   55.1370   29.4220   44.9340 O   0  0  0  0  0  0  0  0  0  0  0  0
   55.6520   29.9000   43.7240 C   0  0  0  0  0  0  0  0  0  0  0  0
   56.8040   30.8080   44.0030 C   0  0  0  0  0  0  0  0  0  0  0  0
   57.4220   31.6370   43.0950 C   0  0  0  0  0  0  0  0  0  0  0  0
   58.3380   32.3120   43.7420 O   0  0  0  0  0  0  0  0  0  0  0  0
   58.2900   31.9300   45.0010 C   0  0  0  0  0  0  0  0  0  0  0  0
   59.1730   32.4700   46.0550 C   0  0  0  0  0  0  0  0  0  0  0  0
   60.0550   31.6260   46.7540 C   0  0  0  0  0  0  0  0  0  0  0  0
   60.8880   32.1440   47.7490 C   0  0  0  0  0  0  0  0  0  0  0  0
   60.8500   33.5070   48.0570 C   0  0  0  0  0  0  0  0  0  0  0  0
   61.9890   34.2130   49.4180 Br  0  0  0  0  0  0  0  0  0  0  0  0
   59.9770   34.3540   47.3660 C   0  0  0  0  0  0  0  0  0  0  0  0
   59.1420   33.8380   46.3690 C   0  0  0  0  0  0  0  0  0  0  0  0
   57.3400   30.9940   45.2240 N   0  0  0  0  0  0  0  0  0  0  0  0
   55.3940   30.0870   45.6230 H   0  0  0  0  0  0  0  0  0  0  0  0
   55.9917   29.0535   43.1092 H   0  0  0  0  0  0  0  0  0  0  0  0
   54.8697   30.4525   43.1829 H   0  0  0  0  0  0  0  0  0  0  0  0
   57.1891   31.7176   42.0230 H   0  0  0  0  0  0  0  0  0  0  0  0
   60.0891   30.5526   46.5160 H   0  0  0  0  0  0  0  0  0  0  0  0
   61.5752   31.4778   48.2912 H   0  0  0  0  0  0  0  0  0  0  0  0
   59.9470   35.4269   47.6068 H   0  0  0  0  0  0  0  0  0  0  0  0
   58.4574   34.5079   45.8281 H   0  0  0  0  0  0  0  0  0  0  0  0
  1  2  1  0
  2  3  1  0
  3  4  2  0
  4  5  1  0
  5  6  1  0
  6  7  1  0
  7  8  2  0
  8  9  1  0
  9 10  2  0
 10 11  1  0
 10 12  1  0
 12 13  2  0
  6 14  2  0
 14  3  1  0
 13  7  1  0
  1 15  1  0
  2 16  1  0
  2 17  1  0
  4 18  1  0
  8 19  1  0
  9 20  1  0
 12 21  1  0
 13 22  1  0
M  END
>  <UniqueID>  (73) 
63

>  <SMILES>  (73) 
OCc1coc(-c2ccc(Br)cc2)n1

>  <Energy>  (73) 
50.26766902886543

>  <Genealogy>  (73) 
OCc1coc(-c2ccc(Br)cc2)n1 (3D coordinates assigned)
OCc1coc(-c2ccc(Br)cc2)n1 (optimized conformer: 50.26766902886543 kcal/mol)

>  <smiles>  (73) 
OCc1coc(-c2ccc(Br)cc2)n1

>  <score_type>  (73) 
oracle

>  <origin>  (73) 
adg

>  <m_score__min__energy>  (73) 
-6.4699999999999998

>  <m_primary>  (73) 
energy

$$$$
73:0
     RDKit          3D

 41 43  0  0  0  0  0  0  0  0999 V2000
   59.7470   28.3220   44.4650 C   0  0  0  0  0  0  0  0  0  0  0  0
   58.5270   28.1630   45.2580 N   0  0  0  0  0  0  0  0  0  0  0  0
   57.4370   27.6530   44.4180 C   0  0  0  0  0  0  0  0  0  0  0  0
   57.3930   28.4030   43.0830 C   0  0  0  0  0  0  0  0  0  0  0  0
   56.1800   29.7720   43.1100 S   0  0  0  0  0  0  0  0  0  0  0  0
   57.1160   30.7990   44.2440 C   0  0  0  0  0  0  0  0  0  0  0  0
   57.7210   31.9750   43.8000 C   0  0  0  0  0  0  0  0  0  0  0  0
   58.4510   32.7460   44.7020 C   0  0  0  0  0  0  0  0  0  0  0  0
   58.5640   32.3180   46.0300 C   0  0  0  0  0  0  0  0  0  0  0  0
   59.3250   33.0990   47.0160 C   0  0  0  0  0  0  0  0  0  0  0  0
   58.9010   34.2630   47.5460 N   0  0  0  0  0  0  0  0  0  0  0  0
   59.8560   34.6420   48.3790 N   0  0  0  0  0  0  0  0  0  0  0  0
   60.8260   33.7070   48.3370 C   0  0  0  0  0  0  0  0  0  0  0  0
   62.0850   33.7260   49.1180 C   0  0  0  0  0  0  0  0  0  0  0  0
   62.1200   34.1900   50.4460 C   0  0  0  0  0  0  0  0  0  0  0  0
   63.3210   34.1960   51.1620 C   0  0  0  0  0  0  0  0  0  0  0  0
   64.5020   33.7270   50.5690 C   0  0  0  0  0  0  0  0  0  0  0  0
   65.7970   33.7700   51.3260 C   0  0  0  0  0  0  0  0  0  0  0  0
   64.4750   33.2840   49.2410 C   0  0  0  0  0  0  0  0  0  0  0  0
   63.2760   33.2780   48.5230 C   0  0  0  0  0  0  0  0  0  0  0  0
   60.4990   32.7540   47.4950 O   0  0  0  0  0  0  0  0  0  0  0  0
   57.9600   31.1590   46.4050 N   0  0  0  0  0  0  0  0  0  0  0  0
   57.2620   30.4220   45.5410 N   0  0  0  0  0  0  0  0  0  0  0  0
   60.6098   28.4344   45.1381 H   0  0  0  0  0  0  0  0  0  0  0  0
   59.8901   27.4349   43.8305 H   0  0  0  0  0  0  0  0  0  0  0  0
   59.6580   29.2161   43.8305 H   0  0  0  0  0  0  0  0  0  0  0  0
   58.2530   29.1120   45.6060 H   0  0  0  0  0  0  0  0  0  0  0  0
   57.5983   26.5819   44.2264 H   0  0  0  0  0  0  0  0  0  0  0  0
   56.4823   27.8045   44.9430 H   0  0  0  0  0  0  0  0  0  0  0  0
   58.3909   28.8160   42.8740 H   0  0  0  0  0  0  0  0  0  0  0  0
   57.0870   27.6915   42.3019 H   0  0  0  0  0  0  0  0  0  0  0  0
   57.6229   32.2897   42.7506 H   0  0  0  0  0  0  0  0  0  0  0  0
   58.9325   33.6793   44.3748 H   0  0  0  0  0  0  0  0  0  0  0  0
   59.8210   35.5120   48.9510 H   0  0  0  0  0  0  0  0  0  0  0  0
   61.1969   34.5502   50.9237 H   0  0  0  0  0  0  0  0  0  0  0  0
   63.3395   34.5707   52.1961 H   0  0  0  0  0  0  0  0  0  0  0  0
   65.5905   33.7631   52.4064 H   0  0  0  0  0  0  0  0  0  0  0  0
   66.4047   32.8915   51.0632 H   0  0  0  0  0  0  0  0  0  0  0  0
   66.3451   34.6868   51.0632 H   0  0  0  0  0  0  0  0  0  0  0  0
   65.4023   32.9389   48.7604 H   0  0  0  0  0  0  0  0  0  0  0  0
   63.2648   32.9194   47.4831 H   0  0  0  0  0  0  0  0  0  0  0  0
  1  2  1  0
  2  3  1  0
  3  4  1  0
  4  5  1  0
  5  6  1  0
  6  7  2  0
  7  8  1  0
  8  9  2  0
  9 10  1  0
 10 11  2  0
 11 12  1  0
 12 13  2  0
 13 14  1  0
 14 15  2  0
 15 16  1  0
 16 17  2  0
 17 18  1  0
 17 19  1  0
 19 20  2  0
 13 21  1  0
  9 22  1  0
 22 23  2  0
 23  6  1  0
 21 10  1  0
 20 14  1  0
  1 24  1  0
  1 25  1  0
  1 26  1  0
  2 27  1  0
  3 28  1  0
  3 29  1  0
  4 30  1  0
  4 31  1  0
  7 32  1  0
  8 33  1  0
 12 34  1  0
 15 35  1  0
 16 36  1  0
 18 37  1  0
 18 38  1  0
 18 39  1  0
 19 40  1  0
 20 41  1  0
M  CHG  1  12   1
M  END
>  <UniqueID>  (74) 
64

>  <SMILES>  (74) 
CNCCSc1ccc(-c2n[nH+]c(-c3ccc(C)cc3)o2)nn1

>  <Energy>  (74) 
71.82256705068802

>  <Genealogy>  (74) 
CNCCSc1ccc(-c2n[nH+]c(-c3ccc(C)cc3)o2)nn1 (protonated)
CNCCSc1ccc(-c2n[nH+]c(-c3ccc(C)cc3)o2)nn1 (3D coordinates assigned)
CNCCSc1ccc(-c2n[nH+]c(-c3ccc(C)cc3)o2)nn1 (optimized conformer: 71.82256705068802 kcal/mol)

>  <smiles>  (74) 
CNCCSc1ccc(-c2nnc(-c3ccc(C)cc3)o2)nn1

>  <score_type>  (74) 
oracle

>  <origin>  (74) 
adg

>  <m_score__min__energy>  (74) 
-7.0599999999999996

>  <m_primary>  (74) 
energy

$$$$
74:0
     RDKit          3D

 31 32  0  0  0  0  0  0  0  0999 V2000
   57.4050   32.0000   41.9050 C   0  0  0  0  0  0  0  0  0  0  0  0
   57.7100   31.2030   43.1700 C   0  0  0  0  0  0  0  0  0  0  0  0
   57.7900   32.1140   44.3710 C   0  0  0  0  0  0  0  0  0  0  0  0
   57.9700   33.4950   44.1770 C   0  0  0  0  0  0  0  0  0  0  0  0
   58.0720   34.3550   45.2710 C   0  0  0  0  0  0  0  0  0  0  0  0
   57.9960   33.8500   46.5690 C   0  0  0  0  0  0  0  0  0  0  0  0
   57.8350   32.4790   46.7790 C   0  0  0  0  0  0  0  0  0  0  0  0
   57.7550   31.5950   45.6850 C   0  0  0  0  0  0  0  0  0  0  0  0
   57.5840   30.1820   45.8840 N   0  0  0  0  0  0  0  0  0  0  0  0
   56.6430   29.3340   45.2160 C   0  0  0  0  0  0  0  0  0  0  0  0
   55.5100   29.7680   44.8760 O   0  0  0  0  0  0  0  0  0  0  0  0
   56.9700   27.8920   45.0210 C   0  0  0  0  0  0  0  0  0  0  0  0
   57.1680   27.0960   46.6470 S   0  0  0  0  0  0  0  0  0  0  0  0
   55.9360   25.8420   46.3090 C   0  0  0  0  0  0  0  0  0  0  0  0
   54.7720   26.1080   45.6850 N   0  0  0  0  0  0  0  0  0  0  0  0
   54.1580   24.9130   45.6360 C   0  0  0  0  0  0  0  0  0  0  0  0
   54.9600   23.9670   46.2270 C   0  0  0  0  0  0  0  0  0  0  0  0
   56.0920   24.5490   46.6570 N   0  0  0  0  0  0  0  0  0  0  0  0
   57.0244   32.9945   42.1810 H   0  0  0  0  0  0  0  0  0  0  0  0
   58.3242   32.1110   41.3110 H   0  0  0  0  0  0  0  0  0  0  0  0
   56.6465   31.4690   41.3110 H   0  0  0  0  0  0  0  0  0  0  0  0
   56.9123   30.4630   43.3311 H   0  0  0  0  0  0  0  0  0  0  0  0
   58.6797   30.6992   43.0442 H   0  0  0  0  0  0  0  0  0  0  0  0
   58.0308   33.9000   43.1561 H   0  0  0  0  0  0  0  0  0  0  0  0
   58.2127   35.4339   45.1094 H   0  0  0  0  0  0  0  0  0  0  0  0
   58.0630   34.5330   47.4287 H   0  0  0  0  0  0  0  0  0  0  0  0
   57.7702   32.0869   47.8047 H   0  0  0  0  0  0  0  0  0  0  0  0
   56.1550   27.4017   44.4684 H   0  0  0  0  0  0  0  0  0  0  0  0
   57.9049   27.7997   44.4487 H   0  0  0  0  0  0  0  0  0  0  0  0
   53.1694   24.7227   45.1927 H   0  0  0  0  0  0  0  0  0  0  0  0
   54.7138   22.9000   46.3318 H   0  0  0  0  0  0  0  0  0  0  0  0
  1  2  1  0
  2  3  1  0
  3  4  2  0
  4  5  1  0
  5  6  2  0
  6  7  1  0
  7  8  2  0
  8  9  1  0
  9 10  1  0
 10 11  2  0
 10 12  1  0
 12 13  1  0
 13 14  1  0
 14 15  2  0
 15 16  1  0
 16 17  2  0
 17 18  1  0
  8  3  1  0
 18 14  1  0
  1 19  1  0
  1 20  1  0
  1 21  1  0
  2 22  1  0
  2 23  1  0
  4 24  1  0
  5 25  1  0
  6 26  1  0
  7 27  1  0
 12 28  1  0
 12 29  1  0
 16 30  1  0
 17 31  1  0
M  CHG  2   9  -1  18  -1
M  END
>  <UniqueID>  (75) 
65

>  <SMILES>  (75) 
CCc1ccccc1[N-]C(=O)CSc1ncc[n-]1

>  <Energy>  (75) 
53.79490545848856

>  <Genealogy>  (75) 
CCc1ccccc1[N-]C(=O)CSc1ncc[n-]1 (protonated)
CCc1ccccc1[N-]C(=O)CSc1ncc[n-]1 (3D coordinates assigned)
CCc1ccccc1[N-]C(=O)CSc1ncc[n-]1 (optimized conformer: 53.79490545848856 kcal/mol)

>  <smiles>  (75) 
CCc1ccccc1NC(=O)CSc1ncc[nH]1

>  <score_type>  (75) 
oracle

>  <origin>  (75) 
adg

>  <m_score__min__energy>  (75) 
-10.109999999999999

>  <m_primary>  (75) 
energy

$$$$
75:0
     RDKit          3D

 39 41  0  0  0  0  0  0  0  0999 V2000
   60.7290   34.4760   48.3310 C   0  0  0  0  0  0  0  0  0  0  0  0
   60.0370   34.7740   47.1240 O   0  0  0  0  0  0  0  0  0  0  0  0
   59.1340   33.9060   46.4930 C   0  0  0  0  0  0  0  0  0  0  0  0
   58.7000   32.7060   47.0870 C   0  0  0  0  0  0  0  0  0  0  0  0
   57.7950   31.8760   46.4180 C   0  0  0  0  0  0  0  0  0  0  0  0
   57.2990   32.2350   45.1600 C   0  0  0  0  0  0  0  0  0  0  0  0
   56.4020   31.3450   44.4850 N   0  0  0  0  0  0  0  0  0  0  0  0
   56.4950   29.9150   44.4630 C   0  0  0  0  0  0  0  0  0  0  0  0
   55.5090   29.2420   44.8670 O   0  0  0  0  0  0  0  0  0  0  0  0
   57.6940   29.2090   43.8510 C   0  0  1  0  0  0  0  0  0  0  0  0
   59.0210   29.6390   44.5040 C   0  0  0  0  0  0  0  0  0  0  0  0
   59.2900   28.9230   45.8020 C   0  0  0  0  0  0  0  0  0  0  0  0
   60.2830   29.4150   46.6630 C   0  0  0  0  0  0  0  0  0  0  0  0
   60.5890   28.7400   47.8470 C   0  0  0  0  0  0  0  0  0  0  0  0
   59.9130   27.5640   48.1780 C   0  0  0  0  0  0  0  0  0  0  0  0
   58.9320   27.0580   47.3220 C   0  0  0  0  0  0  0  0  0  0  0  0
   58.6240   27.7190   46.1220 C   0  0  0  0  0  0  0  0  0  0  0  0
   57.5130   27.1860   45.2510 C   0  0  0  0  0  0  0  0  0  0  0  0
   57.5440   27.7400   43.8860 N   0  0  0  0  0  0  0  0  0  0  0  0
   57.7540   33.4180   44.5540 C   0  0  0  0  0  0  0  0  0  0  0  0
   58.6570   34.2500   45.2230 C   0  0  0  0  0  0  0  0  0  0  0  0
   60.0993   34.7472   49.1912 H   0  0  0  0  0  0  0  0  0  0  0  0
   60.9561   33.4003   48.3675 H   0  0  0  0  0  0  0  0  0  0  0  0
   61.6666   35.0501   48.3675 H   0  0  0  0  0  0  0  0  0  0  0  0
   59.0741   32.4200   48.0811 H   0  0  0  0  0  0  0  0  0  0  0  0
   57.4707   30.9340   46.8842 H   0  0  0  0  0  0  0  0  0  0  0  0
   57.7297   29.5202   42.7965 H   0  0  0  0  0  0  0  0  0  0  0  0
   59.8430   29.4224   43.8059 H   0  0  0  0  0  0  0  0  0  0  0  0
   58.9484   30.7138   44.7267 H   0  0  0  0  0  0  0  0  0  0  0  0
   60.8234   30.3374   46.4040 H   0  0  0  0  0  0  0  0  0  0  0  0
   61.3640   29.1357   48.5199 H   0  0  0  0  0  0  0  0  0  0  0  0
   60.1529   27.0361   49.1127 H   0  0  0  0  0  0  0  0  0  0  0  0
   58.3969   26.1350   47.5899 H   0  0  0  0  0  0  0  0  0  0  0  0
   57.6088   26.0919   45.1889 H   0  0  0  0  0  0  0  0  0  0  0  0
   56.5590   27.4858   45.7093 H   0  0  0  0  0  0  0  0  0  0  0  0
   56.6600   27.4720   43.3930 H   0  0  0  0  0  0  0  0  0  0  0  0
   58.3390   27.3030   43.3620 H   0  0  0  0  0  0  0  0  0  0  0  0
   57.3985   33.6908   43.5494 H   0  0  0  0  0  0  0  0  0  0  0  0
   58.9952   35.1824   44.7473 H   0  0  0  0  0  0  0  0  0  0  0  0
  1  2  1  0
  2  3  1  0
  3  4  2  0
  4  5  1  0
  5  6  2  0
  6  7  1  0
  7  8  1  0
  8  9  2  0
  8 10  1  0
 10 11  1  0
 11 12  1  0
 12 13  2  0
 13 14  1  0
 14 15  2  0
 15 16  1  0
 16 17  2  0
 17 18  1  0
 18 19  1  0
  6 20  1  0
 20 21  2  0
 21  3  1  0
 19 10  1  0
 17 12  1  0
  1 22  1  0
  1 23  1  0
  1 24  1  0
  4 25  1  0
  5 26  1  0
 10 27  1  6
 11 28  1  0
 11 29  1  0
 13 30  1  0
 14 31  1  0
 15 32  1  0
 16 33  1  0
 18 34  1  0
 18 35  1  0
 19 36  1  0
 19 37  1  0
 20 38  1  0
 21 39  1  0
M  CHG  2   7  -1  19   1
M  END
>  <UniqueID>  (76) 
66

>  <SMILES>  (76) 
COc1ccc([N-]C(=O)[C@H]2Cc3ccccc3C[NH2+]2)cc1

>  <Energy>  (76) 
50.711077277931466

>  <Genealogy>  (76) 
COc1ccc([N-]C(=O)C2Cc3ccccc3C[NH2+]2)cc1 (protonated)
COc1ccc([N-]C(=O)[C@H]2Cc3ccccc3C[NH2+]2)cc1 (chirality)
COc1ccc([N-]C(=O)[C@H]2Cc3ccccc3C[NH2+]2)cc1 (3D coordinates assigned)
COc1ccc([N-]C(=O)[C@H]2Cc3ccccc3C[NH2+]2)cc1 (nonaromatic ring conformer: 50.711077277931466 kcal/mol)

>  <smiles>  (76) 
COc1ccc(NC(=O)C2Cc3ccccc3CN2)cc1

>  <score_type>  (76) 
oracle

>  <origin>  (76) 
adg

>  <m_score__min__energy>  (76) 
-7.7300000000000004

>  <m_primary>  (76) 
energy

$$$$
76:0
     RDKit          3D

 40 42  0  0  0  0  0  0  0  0999 V2000
   59.3760   29.7970   48.3660 C   0  0  0  0  0  0  0  0  0  0  0  0
   59.8140   30.6080   47.2820 O   0  0  0  0  0  0  0  0  0  0  0  0
   59.0590   31.6480   46.7180 C   0  0  0  0  0  0  0  0  0  0  0  0
   58.8060   32.8650   47.3970 C   0  0  0  0  0  0  0  0  0  0  0  0
   58.0460   33.8840   46.7850 C   0  0  0  0  0  0  0  0  0  0  0  0
   57.5300   33.7090   45.4910 C   0  0  0  0  0  0  0  0  0  0  0  0
   57.7880   32.5040   44.8420 C   0  0  0  0  0  0  0  0  0  0  0  0
   57.3950   32.1520   43.6060 N   0  0  0  0  0  0  0  0  0  0  0  0
   57.8830   30.9100   43.3970 C   0  0  0  0  0  0  0  0  0  0  0  0
   58.5870   30.4650   44.5180 C   0  0  0  0  0  0  0  0  0  0  0  0
   59.3170   29.1580   44.6930 C   0  0  0  0  0  0  0  0  0  0  0  0
   58.4830   28.1170   45.3910 C   0  0  0  0  0  0  0  0  0  0  0  0
   57.0910   28.0920   45.2430 C   0  0  0  0  0  0  0  0  0  0  0  0
   56.3600   27.1230   45.8520 N   0  0  0  0  0  0  0  0  0  0  0  0
   56.9560   26.1610   46.6050 C   0  0  0  0  0  0  0  0  0  0  0  0
   56.2210   25.2500   47.1710 N   0  0  0  0  0  0  0  0  0  0  0  0
   55.6770   24.0700   46.4970 C   0  0  0  0  0  0  0  0  0  0  0  0
   54.3400   24.3850   45.8080 C   0  0  0  0  0  0  0  0  0  0  0  0
   54.1440   25.8220   45.6260 N   0  0  0  0  0  0  0  0  0  0  0  0
   58.3100   26.1600   46.7490 N   0  0  0  0  0  0  0  0  0  0  0  0
   59.0800   27.1100   46.1580 C   0  0  0  0  0  0  0  0  0  0  0  0
   58.5240   31.5060   45.4320 C   0  0  0  0  0  0  0  0  0  0  0  0
   59.6386   30.2832   49.3171 H   0  0  0  0  0  0  0  0  0  0  0  0
   58.2851   29.6672   48.3094 H   0  0  0  0  0  0  0  0  0  0  0  0
   59.8657   28.8136   48.3094 H   0  0  0  0  0  0  0  0  0  0  0  0
   59.2056   33.0170   48.4105 H   0  0  0  0  0  0  0  0  0  0  0  0
   57.8562   34.8229   47.3258 H   0  0  0  0  0  0  0  0  0  0  0  0
   56.9399   34.4996   45.0045 H   0  0  0  0  0  0  0  0  0  0  0  0
   56.8330   32.7230   42.9370 H   0  0  0  0  0  0  0  0  0  0  0  0
   57.7451   30.3299   42.4726 H   0  0  0  0  0  0  0  0  0  0  0  0
   59.5985   28.7763   43.7005 H   0  0  0  0  0  0  0  0  0  0  0  0
   60.2004   29.3515   45.3193 H   0  0  0  0  0  0  0  0  0  0  0  0
   56.5892   28.8577   44.6331 H   0  0  0  0  0  0  0  0  0  0  0  0
   56.3974   23.7261   45.7402 H   0  0  0  0  0  0  0  0  0  0  0  0
   55.5021   23.2896   47.2522 H   0  0  0  0  0  0  0  0  0  0  0  0
   54.3244   23.8967   44.8225 H   0  0  0  0  0  0  0  0  0  0  0  0
   53.5296   24.0098   46.4503 H   0  0  0  0  0  0  0  0  0  0  0  0
   54.4210   26.3190   46.5040 H   0  0  0  0  0  0  0  0  0  0  0  0
   54.7690   26.1570   44.8570 H   0  0  0  0  0  0  0  0  0  0  0  0
   60.1727   27.0879   46.2822 H   0  0  0  0  0  0  0  0  0  0  0  0
  1  2  1  0
  2  3  1  0
  3  4  2  0
  4  5  1  0
  5  6  2  0
  6  7  1  0
  7  8  1  0
  8  9  1  0
  9 10  2  0
 10 11  1  0
 11 12  1  0
 12 13  1  0
 13 14  2  0
 14 15  1  0
 15 16  2  3
 16 17  1  0
 17 18  1  0
 18 19  1  0
 15 20  1  0
 20 21  1  0
 10 22  1  0
 22  3  1  0
 22  7  2  0
 21 12  2  0
  1 23  1  0
  1 24  1  0
  1 25  1  0
  4 26  1  0
  5 27  1  0
  6 28  1  0
  8 29  1  0
  9 30  1  0
 11 31  1  0
 11 32  1  0
 13 33  1  0
 17 34  1  0
 17 35  1  0
 18 36  1  0
 18 37  1  0
 19 38  1  0
 19 39  1  0
 21 40  1  0
M  CHG  1  20  -1
M  END
>  <UniqueID>  (77) 
67

>  <SMILES>  (77) 
COc1cccc2[nH]cc(Cc3cnc(=NCCN)[n-]c3)c12

>  <Energy>  (77) 
72.66017822298802

>  <Genealogy>  (77) 
COc1cccc2[nH]cc(Cc3cnc(=NCCN)[n-]c3)c12 (protonated)
COc1cccc2[nH]cc(Cc3cnc(=NCCN)[n-]c3)c12 (3D coordinates assigned)
COc1cccc2[nH]cc(Cc3cnc(=NCCN)[n-]c3)c12 (optimized conformer: 72.66017822298802 kcal/mol)

>  <smiles>  (77) 
COc1cccc2[nH]cc(Cc3cnc(=NCCN)[nH]c3)c12

>  <score_type>  (77) 
oracle

>  <origin>  (77) 
adg

>  <m_score__min__energy>  (77) 
-8.9100000000000001

>  <m_primary>  (77) 
energy

$$$$
77:0
     RDKit          3D

 38 40  0  0  0  0  0  0  0  0999 V2000
   56.3000   26.2720   46.6810 N   0  0  0  0  0  0  0  0  0  0  0  0
   56.7780   27.0030   45.7410 C   0  0  0  0  0  0  0  0  0  0  0  0
   56.6470   28.3310   45.7970 N   0  0  0  0  0  0  0  0  0  0  0  0
   57.1580   29.0700   44.7950 C   0  0  0  0  0  0  0  0  0  0  0  0
   57.0240   30.4670   44.8500 O   0  0  0  0  0  0  0  0  0  0  0  0
   58.0340   31.2530   44.2340 C   0  0  0  0  0  0  0  0  0  0  0  0
   57.5730   32.7120   44.1700 C   0  0  0  0  0  0  0  0  0  0  0  0
   58.2410   33.4240   45.2950 C   0  0  0  0  0  0  0  0  0  0  0  0
   58.1050   33.0040   46.6100 C   0  0  0  0  0  0  0  0  0  0  0  0
   58.7370   33.6890   47.6130 C   0  0  0  0  0  0  0  0  0  0  0  0
   59.5030   34.7920   47.2930 C   0  0  0  0  0  0  0  0  0  0  0  0
   59.6540   35.2320   45.9830 C   0  0  0  0  0  0  0  0  0  0  0  0
   59.0080   34.5280   44.9760 C   0  0  0  0  0  0  0  0  0  0  0  0
   57.7970   28.5450   43.7360 N   0  0  0  0  0  0  0  0  0  0  0  0
   57.9350   27.2190   43.6650 C   0  0  0  0  0  0  0  0  0  0  0  0
   57.4270   26.4330   44.6660 C   0  0  0  0  0  0  0  0  0  0  0  0
   57.5580   24.9860   44.6270 C   0  0  0  0  0  0  0  0  0  0  0  0
   57.1240   24.1490   43.6500 N   0  0  0  0  0  0  0  0  0  0  0  0
   57.4450   22.8810   44.0040 C   0  0  0  0  0  0  0  0  0  0  0  0
   57.1860   21.6160   43.2720 C   0  0  0  0  0  0  0  0  0  0  0  0
   56.2640   21.8600   42.2610 O   0  0  0  0  0  0  0  0  0  0  0  0
   58.0660   22.9810   45.1880 N   0  0  0  0  0  0  0  0  0  0  0  0
   58.1220   24.2320   45.5380 O   0  0  0  0  0  0  0  0  0  0  0  0
   56.6290   25.2920   46.8020 H   0  0  0  0  0  0  0  0  0  0  0  0
   58.9611   31.1863   44.8222 H   0  0  0  0  0  0  0  0  0  0  0  0
   58.2200   30.8809   43.2157 H   0  0  0  0  0  0  0  0  0  0  0  0
   57.8676   33.1605   43.2098 H   0  0  0  0  0  0  0  0  0  0  0  0
   56.4784   32.7841   44.2516 H   0  0  0  0  0  0  0  0  0  0  0  0
   57.4908   32.1226   46.8465 H   0  0  0  0  0  0  0  0  0  0  0  0
   58.6358   33.3649   48.6593 H   0  0  0  0  0  0  0  0  0  0  0  0
   60.0102   35.3403   48.1005 H   0  0  0  0  0  0  0  0  0  0  0  0
   60.2687   36.1141   45.7507 H   0  0  0  0  0  0  0  0  0  0  0  0
   59.1064   34.8479   43.9281 H   0  0  0  0  0  0  0  0  0  0  0  0
   58.1950   29.1100   42.9570 H   0  0  0  0  0  0  0  0  0  0  0  0
   58.4526   26.7608   42.8094 H   0  0  0  0  0  0  0  0  0  0  0  0
   58.1241   21.2444   42.8340 H   0  0  0  0  0  0  0  0  0  0  0  0
   56.7873   20.8602   43.9647 H   0  0  0  0  0  0  0  0  0  0  0  0
   56.2820   22.7940   41.9430 H   0  0  0  0  0  0  0  0  0  0  0  0
  1  2  2  3
  2  3  1  0
  3  4  2  0
  4  5  1  0
  5  6  1  0
  6  7  1  0
  7  8  1  0
  8  9  2  0
  9 10  1  0
 10 11  2  0
 11 12  1  0
 12 13  2  0
  4 14  1  0
 14 15  1  0
 15 16  2  0
 16 17  1  0
 17 18  2  0
 18 19  1  0
 19 20  1  0
 20 21  1  0
 19 22  2  0
 22 23  1  0
 16  2  1  0
 23 17  1  0
 13  8  1  0
  1 24  1  0
  6 25  1  0
  6 26  1  0
  7 27  1  0
  7 28  1  0
  9 29  1  0
 10 30  1  0
 11 31  1  0
 12 32  1  0
 13 33  1  0
 14 34  1  0
 15 35  1  0
 20 36  1  0
 20 37  1  0
 21 38  1  0
M  END
>  <smiles>  (78) 
N=c1nc(OCCc2ccccc2)[nH]cc1-c1nc(CO)no1

>  <score_type>  (78) 
oracle

>  <origin>  (78) 
adg

>  <m_score__min__energy>  (78) 
-8.5299999999999994

>  <m_primary>  (78) 
energy

$$$$
78:0
     RDKit          3D

 40 42  0  0  1  0  0  0  0  0999 V2000
   61.7820   34.1980   48.9370 C   0  0  0  0  0  0  0  0  0  0  0  0
   61.5810   33.8330   47.5580 N   0  0  0  0  0  0  0  0  0  0  0  0
   61.0370   32.7270   47.2300 C   0  0  0  0  0  0  0  0  0  0  0  0
   61.7460   31.5900   47.1730 N   0  0  0  0  0  0  0  0  0  0  0  0
   61.1510   30.4150   46.8210 C   0  0  0  0  0  0  0  0  0  0  0  0
   59.8080   30.3400   46.5110 C   0  0  0  0  0  0  0  0  0  0  0  0
   59.1810   29.0830   46.1380 C   0  0  0  0  0  0  0  0  0  0  0  0
   58.5020   28.3110   47.0590 C   0  0  0  0  0  0  0  0  0  0  0  0
   57.8970   27.1030   46.7090 C   0  0  0  0  0  0  0  0  0  0  0  0
   57.9540   26.6270   45.4180 C   0  0  0  0  0  0  0  0  0  0  0  0
   58.6290   27.3900   44.4890 C   0  0  0  0  0  0  0  0  0  0  0  0
   59.2340   28.6010   44.8470 C   0  0  0  0  0  0  0  0  0  0  0  0
   59.1150   31.4930   46.5750 N   0  0  0  0  0  0  0  0  0  0  0  0
   59.7040   32.6630   46.9240 C   0  0  0  0  0  0  0  0  0  0  0  0
   59.0320   33.7660   46.9830 N   0  0  0  0  0  0  0  0  0  0  0  0
   57.7190   33.8030   46.4230 C   0  0  0  0  0  0  0  0  0  0  0  0
   57.8380   33.7360   44.9200 C   0  0  0  0  0  0  0  0  0  0  0  0
   57.4310   32.4070   44.4030 C   0  0  0  0  0  0  0  0  0  0  0  0
   57.9540   31.8580   43.2530 C   0  0  0  0  0  0  0  0  0  0  0  0
   57.3830   30.6400   43.0470 N   0  0  0  0  0  0  0  0  0  0  0  0
   56.5180   30.4400   44.0600 C   0  0  0  0  0  0  0  0  0  0  0  0
   56.5570   31.5150   44.8710 N   0  0  0  0  0  0  0  0  0  0  0  0
   61.3543   33.4213   49.5880 H   0  0  0  0  0  0  0  0  0  0  0  0
   62.8593   34.2925   49.1380 H   0  0  0  0  0  0  0  0  0  0  0  0
   61.2859   35.1590   49.1380 H   0  0  0  0  0  0  0  0  0  0  0  0
   62.7780   31.6160   47.4060 H   0  0  0  0  0  0  0  0  0  0  0  0
   61.7593   29.4993   46.7829 H   0  0  0  0  0  0  0  0  0  0  0  0
   58.4357   28.6585   48.1006 H   0  0  0  0  0  0  0  0  0  0  0  0
   57.3659   26.5215   47.4770 H   0  0  0  0  0  0  0  0  0  0  0  0
   57.4793   25.6748   45.1388 H   0  0  0  0  0  0  0  0  0  0  0  0
   58.6934   27.0411   43.4478 H   0  0  0  0  0  0  0  0  0  0  0  0
   59.7650   29.1826   44.0790 H   0  0  0  0  0  0  0  0  0  0  0  0
   58.1000   31.5520   46.3620 H   0  0  0  0  0  0  0  0  0  0  0  0
   57.1356   32.9447   46.7878 H   0  0  0  0  0  0  0  0  0  0  0  0
   57.2084   34.7310   46.7199 H   0  0  0  0  0  0  0  0  0  0  0  0
   57.1910   34.5064   44.4752 H   0  0  0  0  0  0  0  0  0  0  0  0
   58.8904   33.9053   44.6485 H   0  0  0  0  0  0  0  0  0  0  0  0
   58.7100   32.3276   42.6065 H   0  0  0  0  0  0  0  0  0  0  0  0
   57.6260   30.0490   42.2410 H   0  0  0  0  0  0  0  0  0  0  0  0
   55.8870   29.5501   44.2011 H   0  0  0  0  0  0  0  0  0  0  0  0
  1  2  1  0
  2  3  2  0
  3  4  1  0
  4  5  1  0
  5  6  2  0
  6  7  1  0
  7  8  2  0
  8  9  1  0
  9 10  2  0
 10 11  1  0
 11 12  2  0
  6 13  1  0
 13 14  1  0
 14 15  2  0
 15 16  1  0
 16 17  1  0
 17 18  1  0
 18 19  2  0
 19 20  1  0
 20 21  1  0
 21 22  2  0
 14  3  1  0
 22 18  1  0
 12  7  1  0
  1 23  1  0
  1 24  1  0
  1 25  1  0
  4 26  1  0
  5 27  1  0
  8 28  1  0
  9 29  1  0
 10 30  1  0
 11 31  1  0
 12 32  1  0
 13 33  1  0
 16 34  1  0
 16 35  1  0
 17 36  1  0
 17 37  1  0
 19 38  1  0
 20 39  1  0
 21 40  1  0
M  END
>  <smiles>  (79) 
CN=c1[nH]cc(-c2ccccc2)[nH]c1=NCCc1c[nH]cn1

>  <score_type>  (79) 
oracle

>  <origin>  (79) 
adg

>  <m_score__min__energy>  (79) 
-7.4400000000000004

>  <m_primary>  (79) 
energy

$$$$
79:0
     RDKit          3D

 46 49  0  0  0  0  0  0  0  0999 V2000
   61.1660   29.7140   49.9030 C   0  0  0  0  0  0  0  0  0  0  0  0
   60.8190   28.3550   49.6530 O   0  0  0  0  0  0  0  0  0  0  0  0
   60.1330   27.9100   48.5140 C   0  0  0  0  0  0  0  0  0  0  0  0
   58.8780   28.4640   48.2340 C   0  0  0  0  0  0  0  0  0  0  0  0
   58.1530   28.0490   47.1140 C   0  0  0  0  0  0  0  0  0  0  0  0
   58.6770   27.0730   46.2530 C   0  0  0  0  0  0  0  0  0  0  0  0
   57.8730   26.5960   45.0730 C   0  0  0  0  0  0  0  0  0  0  0  0
   58.4250   27.4050   43.5290 S   0  0  0  0  0  0  0  0  0  0  0  0
   57.9530   29.0610   44.0380 C   0  0  0  0  0  0  0  0  0  0  0  0
   58.8990   29.9180   44.6110 C   0  0  0  0  0  0  0  0  0  0  0  0
   58.5340   31.2130   44.9900 C   0  0  0  0  0  0  0  0  0  0  0  0
   57.2160   31.6620   44.8020 C   0  0  0  0  0  0  0  0  0  0  0  0
   56.8240   33.0510   45.2300 C   0  0  0  0  0  0  0  0  0  0  0  0
   58.0100   33.7800   45.8050 C   0  0  0  0  0  0  0  0  0  0  0  0
   58.7030   34.7590   45.0870 C   0  0  0  0  0  0  0  0  0  0  0  0
   60.0120   35.3020   46.0080 S   0  0  0  0  0  0  0  0  0  0  0  0
   59.7120   34.2960   47.3160 C   0  0  0  0  0  0  0  0  0  0  0  0
   60.4360   34.1940   48.5000 C   0  0  0  0  0  0  0  0  0  0  0  0
   60.0060   33.2700   49.4630 C   0  0  0  0  0  0  0  0  0  0  0  0
   58.8700   32.4750   49.2260 C   0  0  0  0  0  0  0  0  0  0  0  0
   58.1540   32.5950   48.0240 C   0  0  0  0  0  0  0  0  0  0  0  0
   58.5900   33.5190   47.0620 C   0  0  0  0  0  0  0  0  0  0  0  0
   56.2680   30.7930   44.2350 C   0  0  0  0  0  0  0  0  0  0  0  0
   56.6350   29.4990   43.8600 C   0  0  0  0  0  0  0  0  0  0  0  0
   59.9360   26.5170   46.5280 C   0  0  0  0  0  0  0  0  0  0  0  0
   60.6600   26.9310   47.6500 C   0  0  0  0  0  0  0  0  0  0  0  0
   61.2103   29.8874   50.9883 H   0  0  0  0  0  0  0  0  0  0  0  0
   62.1480   29.9297   49.4568 H   0  0  0  0  0  0  0  0  0  0  0  0
   60.4076   30.3741   49.4568 H   0  0  0  0  0  0  0  0  0  0  0  0
   58.4595   29.2320   48.9010 H   0  0  0  0  0  0  0  0  0  0  0  0
   57.1667   28.4896   46.9063 H   0  0  0  0  0  0  0  0  0  0  0  0
   57.9951   25.5075   44.9716 H   0  0  0  0  0  0  0  0  0  0  0  0
   56.8170   26.8527   45.2434 H   0  0  0  0  0  0  0  0  0  0  0  0
   59.9320   29.5720   44.7635 H   0  0  0  0  0  0  0  0  0  0  0  0
   59.2822   31.8837   45.4376 H   0  0  0  0  0  0  0  0  0  0  0  0
   56.4461   33.6053   44.3583 H   0  0  0  0  0  0  0  0  0  0  0  0
   56.0428   32.9786   46.0010 H   0  0  0  0  0  0  0  0  0  0  0  0
   58.4383   35.1189   44.0818 H   0  0  0  0  0  0  0  0  0  0  0  0
   61.3221   34.8216   48.6758 H   0  0  0  0  0  0  0  0  0  0  0  0
   60.5594   33.1663   50.4080 H   0  0  0  0  0  0  0  0  0  0  0  0
   58.5400   31.7537   49.9881 H   0  0  0  0  0  0  0  0  0  0  0  0
   57.2649   31.9742   47.8393 H   0  0  0  0  0  0  0  0  0  0  0  0
   55.2327   31.1336   44.0860 H   0  0  0  0  0  0  0  0  0  0  0  0
   55.8864   28.8216   43.4234 H   0  0  0  0  0  0  0  0  0  0  0  0
   60.3550   25.7520   45.8577 H   0  0  0  0  0  0  0  0  0  0  0  0
   61.6458   26.4899   47.8588 H   0  0  0  0  0  0  0  0  0  0  0  0
  1  2  1  0
  2  3  1  0
  3  4  2  0
  4  5  1  0
  5  6  2  0
  6  7  1  0
  7  8  1  0
  8  9  1  0
  9 10  2  0
 10 11  1  0
 11 12  2  0
 12 13  1  0
 13 14  1  0
 14 15  2  0
 15 16  1  0
 16 17  1  0
 17 18  2  0
 18 19  1  0
 19 20  2  0
 20 21  1  0
 21 22  2  0
 12 23  1  0
 23 24  2  0
  6 25  1  0
 25 26  2  0
 26  3  1  0
 24  9  1  0
 22 14  1  0
 22 17  1  0
  1 27  1  0
  1 28  1  0
  1 29  1  0
  4 30  1  0
  5 31  1  0
  7 32  1  0
  7 33  1  0
 10 34  1  0
 11 35  1  0
 13 36  1  0
 13 37  1  0
 15 38  1  0
 18 39  1  0
 19 40  1  0
 20 41  1  0
 21 42  1  0
 23 43  1  0
 24 44  1  0
 25 45  1  0
 26 46  1  0
M  END
>  <UniqueID>  (80) 
68

>  <SMILES>  (80) 
COc1ccc(CSc2ccc(Cc3csc4ccccc34)cc2)cc1

>  <Energy>  (80) 
73.57614751051511

>  <Genealogy>  (80) 
COc1ccc(CSc2ccc(Cc3csc4ccccc34)cc2)cc1 (3D coordinates assigned)
COc1ccc(CSc2ccc(Cc3csc4ccccc34)cc2)cc1 (optimized conformer: 73.57614751051511 kcal/mol)

>  <smiles>  (80) 
COc1ccc(CSc2ccc(Cc3csc4ccccc34)cc2)cc1

>  <score_type>  (80) 
oracle

>  <origin>  (80) 
adg

>  <m_score__min__energy>  (80) 
-8.9900000000000002

>  <m_primary>  (80) 
energy

$$$$
80:0
     RDKit          3D

 37 38  0  0  0  0  0  0  0  0999 V2000
   56.6180   28.4890   45.2480 C   0  0  0  0  0  0  0  0  0  0  0  0
   56.0160   29.7610   44.8730 N   0  0  0  0  0  0  0  0  0  0  0  0
   56.6870   30.8040   44.1530 C   0  0  0  0  0  0  0  0  0  0  0  0
   56.6010   30.8230   42.8980 O   0  0  0  0  0  0  0  0  0  0  0  0
   57.5060   31.8290   44.8320 C   0  0  0  0  0  0  0  0  0  0  0  0
   57.4110   33.1810   44.4700 C   0  0  0  0  0  0  0  0  0  0  0  0
   58.2040   34.1400   45.1070 C   0  0  0  0  0  0  0  0  0  0  0  0
   59.1110   33.7590   46.1090 C   0  0  0  0  0  0  0  0  0  0  0  0
   59.9920   34.7830   46.7740 C   0  0  0  0  0  0  0  0  0  0  0  0
   61.1010   34.1080   47.5470 C   0  0  0  0  0  0  0  0  0  0  0  0
   62.2480   33.6810   46.8620 C   0  0  0  0  0  0  0  0  0  0  0  0
   63.3080   33.0860   47.5480 C   0  0  0  0  0  0  0  0  0  0  0  0
   63.2500   32.9150   48.9400 C   0  0  0  0  0  0  0  0  0  0  0  0
   64.3660   32.2790   49.6810 C   0  0  0  0  0  0  0  0  0  0  0  0
   65.7290   32.6300   49.4260 N   0  0  0  0  0  0  0  0  0  0  0  0
   64.1160   31.4180   50.5680 O   0  0  0  0  0  0  0  0  0  0  0  0
   62.1010   33.3390   49.6290 C   0  0  0  0  0  0  0  0  0  0  0  0
   61.0240   33.9430   48.9460 C   0  0  0  0  0  0  0  0  0  0  0  0
   59.8510   34.3940   49.6470 N   0  0  0  0  0  0  0  0  0  0  0  0
   59.3570   33.8130   50.6660 C   0  0  0  0  0  0  0  0  0  0  0  0
   58.7310   33.0780   51.9560 S   0  0  0  0  0  0  0  0  0  0  0  0
   59.2260   32.4020   46.4500 C   0  0  0  0  0  0  0  0  0  0  0  0
   58.4330   31.4440   45.8130 C   0  0  0  0  0  0  0  0  0  0  0  0
   56.6553   28.4101   46.3445 H   0  0  0  0  0  0  0  0  0  0  0  0
   56.0149   27.6639   44.8414 H   0  0  0  0  0  0  0  0  0  0  0  0
   57.6385   28.4323   44.8414 H   0  0  0  0  0  0  0  0  0  0  0  0
   56.7089   33.4881   43.6809 H   0  0  0  0  0  0  0  0  0  0  0  0
   58.1170   35.1988   44.8218 H   0  0  0  0  0  0  0  0  0  0  0  0
   60.4321   35.4352   46.0053 H   0  0  0  0  0  0  0  0  0  0  0  0
   59.3826   35.3757   47.4721 H   0  0  0  0  0  0  0  0  0  0  0  0
   62.3129   33.8165   45.7723 H   0  0  0  0  0  0  0  0  0  0  0  0
   64.1959   32.7484   46.9933 H   0  0  0  0  0  0  0  0  0  0  0  0
   66.4980   32.1250   49.9200 H   0  0  0  0  0  0  0  0  0  0  0  0
   65.9840   33.4420   48.8220 H   0  0  0  0  0  0  0  0  0  0  0  0
   62.0402   33.1978   50.7182 H   0  0  0  0  0  0  0  0  0  0  0  0
   59.9443   32.0912   47.2229 H   0  0  0  0  0  0  0  0  0  0  0  0
   58.5358   30.3823   46.0818 H   0  0  0  0  0  0  0  0  0  0  0  0
  1  2  1  0
  2  3  1  0
  3  4  2  0
  3  5  1  0
  5  6  2  0
  6  7  1  0
  7  8  2  0
  8  9  1  0
  9 10  1  0
 10 11  2  0
 11 12  1  0
 12 13  2  0
 13 14  1  0
 14 15  1  0
 14 16  2  0
 13 17  1  0
 17 18  2  0
 18 19  1  0
 19 20  2  0
 20 21  2  0
  8 22  1  0
 22 23  2  0
 23  5  1  0
 18 10  1  0
  1 24  1  0
  1 25  1  0
  1 26  1  0
  6 27  1  0
  7 28  1  0
  9 29  1  0
  9 30  1  0
 11 31  1  0
 12 32  1  0
 15 33  1  0
 15 34  1  0
 17 35  1  0
 22 36  1  0
 23 37  1  0
M  CHG  1   2  -1
M  END
>  <UniqueID>  (81) 
69

>  <SMILES>  (81) 
C[N-]C(=O)c1ccc(Cc2ccc(C(N)=O)cc2N=C=S)cc1

>  <Energy>  (81) 
42.7074338908052

>  <Genealogy>  (81) 
C[N-]C(=O)c1ccc(Cc2ccc(C(N)=O)cc2N=C=S)cc1 (protonated)
C[N-]C(=O)c1ccc(Cc2ccc(C(N)=O)cc2N=C=S)cc1 (3D coordinates assigned)
C[N-]C(=O)c1ccc(Cc2ccc(C(N)=O)cc2N=C=S)cc1 (optimized conformer: 42.7074338908052 kcal/mol)

>  <smiles>  (81) 
CNC(=O)c1ccc(Cc2ccc(C(N)=O)cc2N=C=S)cc1

>  <score_type>  (81) 
oracle

>  <origin>  (81) 
adg

>  <m_score__min__energy>  (81) 
-9.3599999999999994

>  <m_primary>  (81) 
energy

$$$$
81:0
     RDKit          3D

 36 39  0  0  0  0  0  0  0  0999 V2000
   62.8470   33.0340   46.7490 O   0  0  0  0  0  0  0  0  0  0  0  0
   62.3820   33.4870   47.8310 C   0  0  0  0  0  0  0  0  0  0  0  0
   61.0040   33.8890   47.9090 N   0  0  0  0  0  0  0  0  0  0  0  0
   60.0070   33.5290   46.9360 C   0  0  0  0  0  0  0  0  0  0  0  0
   59.3080   34.5410   46.2630 C   0  0  0  0  0  0  0  0  0  0  0  0
   58.3220   34.2170   45.3290 C   0  0  0  0  0  0  0  0  0  0  0  0
   58.0150   32.8790   45.0670 C   0  0  0  0  0  0  0  0  0  0  0  0
   58.6870   31.8510   45.7470 C   0  0  0  0  0  0  0  0  0  0  0  0
   58.3460   30.4390   45.4790 C   0  0  0  0  0  0  0  0  0  0  0  0
   57.5190   29.7020   46.2740 N   0  0  0  0  0  0  0  0  0  0  0  0
   57.5200   28.5200   45.6390 C   0  0  0  0  0  0  0  0  0  0  0  0
   56.8470   27.4020   46.0060 N   0  0  0  0  0  0  0  0  0  0  0  0
   56.9660   26.2790   45.2330 C   0  0  0  0  0  0  0  0  0  0  0  0
   57.7760   26.2880   44.0720 C   0  0  0  0  0  0  0  0  0  0  0  0
   58.4650   27.4610   43.7090 C   0  0  0  0  0  0  0  0  0  0  0  0
   58.3040   28.5660   44.5340 C   0  0  0  0  0  0  0  0  0  0  0  0
   58.8160   29.7620   44.4390 O   0  0  0  0  0  0  0  0  0  0  0  0
   59.6790   32.1830   46.6870 C   0  0  0  0  0  0  0  0  0  0  0  0
   63.2720   33.6380   49.0030 C   0  0  0  0  0  0  0  0  0  0  0  0
   64.5150   32.9850   49.0610 C   0  0  0  0  0  0  0  0  0  0  0  0
   65.3260   33.1470   50.1860 C   0  0  0  0  0  0  0  0  0  0  0  0
   64.8980   33.9530   51.2420 C   0  0  0  0  0  0  0  0  0  0  0  0
   63.6570   34.5870   51.1550 C   0  0  0  0  0  0  0  0  0  0  0  0
   62.8810   34.4170   50.0520 N   0  0  0  0  0  0  0  0  0  0  0  0
   60.7260   34.5560   48.6640 H   0  0  0  0  0  0  0  0  0  0  0  0
   59.5377   35.5963   46.4720 H   0  0  0  0  0  0  0  0  0  0  0  0
   57.7854   35.0170   44.7980 H   0  0  0  0  0  0  0  0  0  0  0  0
   57.2428   32.6301   44.3242 H   0  0  0  0  0  0  0  0  0  0  0  0
   56.4281   25.3622   45.5160 H   0  0  0  0  0  0  0  0  0  0  0  0
   57.8668   25.3815   43.4555 H   0  0  0  0  0  0  0  0  0  0  0  0
   59.1017   27.5001   42.8128 H   0  0  0  0  0  0  0  0  0  0  0  0
   60.2030   31.3841   47.2322 H   0  0  0  0  0  0  0  0  0  0  0  0
   64.8468   32.3506   48.2259 H   0  0  0  0  0  0  0  0  0  0  0  0
   66.3008   32.6401   50.2399 H   0  0  0  0  0  0  0  0  0  0  0  0
   65.5306   34.0871   52.1319 H   0  0  0  0  0  0  0  0  0  0  0  0
   63.3069   35.2248   51.9800 H   0  0  0  0  0  0  0  0  0  0  0  0
  1  2  2  0
  2  3  1  0
  3  4  1  0
  4  5  2  0
  5  6  1  0
  6  7  2  0
  7  8  1  0
  8  9  1  0
  9 10  2  0
 10 11  1  0
 11 12  2  0
 12 13  1  0
 13 14  2  0
 14 15  1  0
 15 16  2  0
 16 17  1  0
  8 18  2  0
  2 19  1  0
 19 20  2  0
 20 21  1  0
 21 22  2  0
 22 23  1  0
 23 24  2  0
 18  4  1  0
 24 19  1  0
 17  9  1  0
 16 11  1  0
  3 25  1  0
  5 26  1  0
  6 27  1  0
  7 28  1  0
 13 29  1  0
 14 30  1  0
 15 31  1  0
 18 32  1  0
 20 33  1  0
 21 34  1  0
 22 35  1  0
 23 36  1  0
M  END
>  <UniqueID>  (82) 
70

>  <SMILES>  (82) 
O=C(Nc1cccc(-c2nc3ncccc3o2)c1)c1ccccn1

>  <Energy>  (82) 
85.56325372257926

>  <Genealogy>  (82) 
O=C(Nc1cccc(-c2nc3ncccc3o2)c1)c1ccccn1 (3D coordinates assigned)
O=C(Nc1cccc(-c2nc3ncccc3o2)c1)c1ccccn1 (optimized conformer: 85.56325372257926 kcal/mol)

>  <smiles>  (82) 
O=C(Nc1cccc(-c2nc3ncccc3o2)c1)c1ccccn1

>  <score_type>  (82) 
oracle

>  <origin>  (82) 
adg

>  <m_score__min__energy>  (82) 
-7.7400000000000002

>  <m_primary>  (82) 
energy

$$$$
82:0
     RDKit          3D

 37 39  0  0  0  0  0  0  0  0999 V2000
   59.7220   28.4630   47.5440 C   0  0  0  0  0  0  0  0  0  0  0  0
   59.3340   29.8870   47.3290 C   0  0  0  0  0  0  0  0  0  0  0  0
   59.5050   30.7950   48.3250 N   0  0  0  0  0  0  0  0  0  0  0  0
   59.1280   32.0930   48.1760 C   0  0  0  0  0  0  0  0  0  0  0  0
   59.3550   33.0150   49.2520 N   0  0  0  0  0  0  0  0  0  0  0  0
   58.8910   32.6900   50.6000 C   0  0  0  0  0  0  0  0  0  0  0  0
   60.2160   34.1790   49.0330 C   0  0  0  0  0  0  0  0  0  0  0  0
   61.5600   33.7280   48.5290 C   0  0  0  0  0  0  0  0  0  0  0  0
   62.4750   33.1160   49.3960 C   0  0  0  0  0  0  0  0  0  0  0  0
   63.6890   32.6430   48.8930 C   0  0  0  0  0  0  0  0  0  0  0  0
   63.9760   32.7670   47.5680 N   0  0  0  0  0  0  0  0  0  0  0  0
   63.0980   33.3440   46.7040 C   0  0  0  0  0  0  0  0  0  0  0  0
   61.8730   33.8300   47.1670 C   0  0  0  0  0  0  0  0  0  0  0  0
   58.5550   32.5150   46.9610 C   0  0  0  0  0  0  0  0  0  0  0  0
   58.1810   33.8490   46.7200 C   0  0  0  0  0  0  0  0  0  0  0  0
   57.6200   34.2080   45.4910 C   0  0  0  0  0  0  0  0  0  0  0  0
   57.4310   33.2450   44.4960 C   0  0  0  0  0  0  0  0  0  0  0  0
   57.8070   31.9180   44.7210 C   0  0  0  0  0  0  0  0  0  0  0  0
   58.3740   31.5490   45.9460 C   0  0  0  0  0  0  0  0  0  0  0  0
   58.7600   30.2650   46.1570 N   0  0  0  0  0  0  0  0  0  0  0  0
   59.7781   28.2572   48.6231 H   0  0  0  0  0  0  0  0  0  0  0  0
   58.9705   27.8047   47.0837 H   0  0  0  0  0  0  0  0  0  0  0  0
   60.7036   28.2769   47.0837 H   0  0  0  0  0  0  0  0  0  0  0  0
   59.5577   33.1570   51.3398 H   0  0  0  0  0  0  0  0  0  0  0  0
   57.8678   33.0699   50.7371 H   0  0  0  0  0  0  0  0  0  0  0  0
   58.8984   31.5986   50.7371 H   0  0  0  0  0  0  0  0  0  0  0  0
   59.7508   34.8432   48.2897 H   0  0  0  0  0  0  0  0  0  0  0  0
   60.3456   34.7199   49.9820 H   0  0  0  0  0  0  0  0  0  0  0  0
   62.2388   33.0089   50.4650 H   0  0  0  0  0  0  0  0  0  0  0  0
   64.4154   32.1689   49.5694 H   0  0  0  0  0  0  0  0  0  0  0  0
   64.8870   32.4060   47.2070 H   0  0  0  0  0  0  0  0  0  0  0  0
   63.3535   33.4281   45.6374 H   0  0  0  0  0  0  0  0  0  0  0  0
   61.1592   34.2895   46.4674 H   0  0  0  0  0  0  0  0  0  0  0  0
   58.3301   34.6108   47.4994 H   0  0  0  0  0  0  0  0  0  0  0  0
   57.3263   35.2519   45.3064 H   0  0  0  0  0  0  0  0  0  0  0  0
   56.9848   33.5325   43.5325 H   0  0  0  0  0  0  0  0  0  0  0  0
   57.6572   31.1633   43.9349 H   0  0  0  0  0  0  0  0  0  0  0  0
  1  2  1  0
  2  3  2  0
  3  4  1  0
  4  5  1  0
  5  6  1  0
  5  7  1  0
  7  8  1  0
  8  9  2  0
  9 10  1  0
 10 11  2  0
 11 12  1  0
 12 13  2  0
  4 14  2  0
 14 15  1  0
 15 16  2  0
 16 17  1  0
 17 18  2  0
 18 19  1  0
 19 20  2  0
 20  2  1  0
 13  8  1  0
 19 14  1  0
  1 21  1  0
  1 22  1  0
  1 23  1  0
  6 24  1  0
  6 25  1  0
  6 26  1  0
  7 27  1  0
  7 28  1  0
  9 29  1  0
 10 30  1  0
 11 31  1  0
 12 32  1  0
 13 33  1  0
 15 34  1  0
 16 35  1  0
 17 36  1  0
 18 37  1  0
M  CHG  1  11   1
M  END
>  <UniqueID>  (83) 
71

>  <SMILES>  (83) 
Cc1nc(N(C)Cc2cc[nH+]cc2)c2ccccc2n1

>  <Energy>  (83) 
43.525903700512345

>  <Genealogy>  (83) 
Cc1nc(N(C)Cc2cc[nH+]cc2)c2ccccc2n1 (protonated)
Cc1nc(N(C)Cc2cc[nH+]cc2)c2ccccc2n1 (3D coordinates assigned)
Cc1nc(N(C)Cc2cc[nH+]cc2)c2ccccc2n1 (optimized conformer: 43.525903700512345 kcal/mol)

>  <smiles>  (83) 
Cc1nc(N(C)Cc2ccncc2)c2ccccc2n1

>  <score_type>  (83) 
oracle

>  <origin>  (83) 
adg

>  <m_score__min__energy>  (83) 
-5.4900000000000002

>  <m_primary>  (83) 
energy

$$$$
83:0
     RDKit          3D

 46 48  0  0  0  0  0  0  0  0999 V2000
   65.5700   33.1430   50.0870 C   0  0  0  0  0  0  0  0  0  0  0  0
   64.5970   33.7190   49.2230 O   0  0  0  0  0  0  0  0  0  0  0  0
   63.4380   33.0600   48.7820 C   0  0  0  0  0  0  0  0  0  0  0  0
   63.4740   31.8060   48.1700 C   0  0  0  0  0  0  0  0  0  0  0  0
   62.3250   31.2150   47.7590 N   0  0  0  0  0  0  0  0  0  0  0  0
   61.1110   31.8180   47.9330 C   0  0  0  0  0  0  0  0  0  0  0  0
   60.0100   31.2380   47.5330 N   0  0  0  0  0  0  0  0  0  0  0  0
   59.8770   29.7570   46.6370 S   0  0  0  0  0  0  0  0  0  0  0  0
   59.7470   28.6090   47.6000 O   0  0  0  0  0  0  0  0  0  0  0  0
   61.1230   29.5680   45.8210 O   0  0  0  0  0  0  0  0  0  0  0  0
   58.4920   29.8250   45.5520 C   0  0  0  0  0  0  0  0  0  0  0  0
   57.4010   28.9710   45.7580 C   0  0  0  0  0  0  0  0  0  0  0  0
   56.3070   29.0070   44.8900 C   0  0  0  0  0  0  0  0  0  0  0  0
   56.2910   29.9030   43.8170 C   0  0  0  0  0  0  0  0  0  0  0  0
   55.2250   29.9160   42.9770 F   0  0  0  0  0  0  0  0  0  0  0  0
   57.3720   30.7780   43.6110 C   0  0  0  0  0  0  0  0  0  0  0  0
   57.3690   31.7220   42.4440 C   0  0  0  0  0  0  0  0  0  0  0  0
   58.4760   30.7260   44.4790 C   0  0  0  0  0  0  0  0  0  0  0  0
   61.0430   33.0540   48.5380 N   0  0  0  0  0  0  0  0  0  0  0  0
   59.7350   33.7290   48.7070 C   0  0  0  0  0  0  0  0  0  0  0  0
   59.0610   33.9180   47.3720 C   0  0  0  0  0  0  0  0  0  0  0  0
   59.7370   34.5670   46.3250 C   0  0  0  0  0  0  0  0  0  0  0  0
   59.1220   34.7210   45.0780 C   0  0  0  0  0  0  0  0  0  0  0  0
   57.8330   34.2260   44.8670 C   0  0  0  0  0  0  0  0  0  0  0  0
   57.1550   33.5770   45.9010 C   0  0  0  0  0  0  0  0  0  0  0  0
   57.7650   33.4220   47.1510 C   0  0  0  0  0  0  0  0  0  0  0  0
   62.1960   33.6740   48.9540 C   0  0  0  0  0  0  0  0  0  0  0  0
   62.1540   34.8100   49.5040 O   0  0  0  0  0  0  0  0  0  0  0  0
   65.2789   33.3154   51.1337 H   0  0  0  0  0  0  0  0  0  0  0  0
   65.6341   32.0613   49.8976 H   0  0  0  0  0  0  0  0  0  0  0  0
   66.5492   33.6071   49.8976 H   0  0  0  0  0  0  0  0  0  0  0  0
   64.4371   31.2959   48.0207 H   0  0  0  0  0  0  0  0  0  0  0  0
   62.4140   30.2820   47.3030 H   0  0  0  0  0  0  0  0  0  0  0  0
   57.4057   28.2700   46.6057 H   0  0  0  0  0  0  0  0  0  0  0  0
   55.4561   28.3287   45.0512 H   0  0  0  0  0  0  0  0  0  0  0  0
   57.3657   32.7589   42.8112 H   0  0  0  0  0  0  0  0  0  0  0  0
   58.2677   31.5523   41.8328 H   0  0  0  0  0  0  0  0  0  0  0  0
   56.4714   31.5466   41.8328 H   0  0  0  0  0  0  0  0  0  0  0  0
   59.3325   31.3965   44.3151 H   0  0  0  0  0  0  0  0  0  0  0  0
   59.0914   33.1142   49.3534 H   0  0  0  0  0  0  0  0  0  0  0  0
   59.9007   34.7156   49.1643 H   0  0  0  0  0  0  0  0  0  0  0  0
   60.7534   34.9554   46.4865 H   0  0  0  0  0  0  0  0  0  0  0  0
   59.6542   35.2326   44.2625 H   0  0  0  0  0  0  0  0  0  0  0  0
   57.3515   34.3475   43.8855 H   0  0  0  0  0  0  0  0  0  0  0  0
   56.1403   33.1871   45.7328 H   0  0  0  0  0  0  0  0  0  0  0  0
   57.2281   32.9102   47.9632 H   0  0  0  0  0  0  0  0  0  0  0  0
  1  2  1  0
  2  3  1  0
  3  4  2  0
  4  5  1  0
  5  6  1  0
  6  7  2  3
  7  8  1  0
  8  9  2  0
  8 10  2  0
  8 11  1  0
 11 12  2  0
 12 13  1  0
 13 14  2  0
 14 15  1  0
 14 16  1  0
 16 17  1  0
 16 18  2  0
  6 19  1  0
 19 20  1  0
 20 21  1  0
 21 22  2  0
 22 23  1  0
 23 24  2  0
 24 25  1  0
 25 26  2  0
 19 27  1  0
 27 28  2  0
 27  3  1  0
 18 11  1  0
 26 21  1  0
  1 29  1  0
  1 30  1  0
  1 31  1  0
  4 32  1  0
  5 33  1  0
 12 34  1  0
 13 35  1  0
 17 36  1  0
 17 37  1  0
 17 38  1  0
 18 39  1  0
 20 40  1  0
 20 41  1  0
 22 42  1  0
 23 43  1  0
 24 44  1  0
 25 45  1  0
 26 46  1  0
M  END
>  <UniqueID>  (84) 
72

>  <SMILES>  (84) 
COc1c[nH]c(=NS(=O)(=O)c2ccc(F)c(C)c2)n(Cc2ccccc2)c1=O

>  <Energy>  (84) 
56.17963456344101

>  <Genealogy>  (84) 
COc1c[nH]c(=NS(=O)(=O)c2ccc(F)c(C)c2)n(Cc2ccccc2)c1=O (3D coordinates assigned)
COc1c[nH]c(=NS(=O)(=O)c2ccc(F)c(C)c2)n(Cc2ccccc2)c1=O (optimized conformer: 56.17963456344101 kcal/mol)

>  <smiles>  (84) 
COc1c[nH]c(=NS(=O)(=O)c2ccc(F)c(C)c2)n(Cc2ccccc2)c1=O

>  <score_type>  (84) 
oracle

>  <origin>  (84) 
adg

>  <m_score__min__energy>  (84) 
-8.1500000000000004

>  <m_primary>  (84) 
energy

$$$$
84:0
     RDKit          3D

 61 64  0  0  0  0  0  0  0  0999 V2000
   63.9740   27.6660   52.4520 C   0  0  0  0  0  0  0  0  0  0  0  0
   62.5620   27.8380   52.3920 O   0  0  0  0  0  0  0  0  0  0  0  0
   61.8200   27.8880   51.2030 C   0  0  0  0  0  0  0  0  0  0  0  0
   61.3060   26.7330   50.5850 C   0  0  0  0  0  0  0  0  0  0  0  0
   60.5730   26.8340   49.3990 C   0  0  0  0  0  0  0  0  0  0  0  0
   60.3330   28.0890   48.8100 C   0  0  0  0  0  0  0  0  0  0  0  0
   59.5700   28.1930   47.5870 N   0  0  0  0  0  0  0  0  0  0  0  0
   60.2330   28.0210   46.2870 C   0  0  0  0  0  0  0  0  0  0  0  0
   59.3940   28.6470   45.1710 C   0  0  0  0  0  0  0  0  0  0  0  0
   58.0340   28.0740   45.1320 N   0  0  0  0  0  0  0  0  0  0  0  0
   57.0140   29.0480   44.1010 S   0  0  0  0  0  0  0  0  0  0  0  0
   55.5860   28.9710   44.5700 O   0  0  0  0  0  0  0  0  0  0  0  0
   57.0810   28.5330   42.6900 O   0  0  0  0  0  0  0  0  0  0  0  0
   57.5610   30.7250   44.1200 C   0  0  0  0  0  0  0  0  0  0  0  0
   57.5880   31.4630   42.9310 C   0  0  0  0  0  0  0  0  0  0  0  0
   58.0590   32.7760   42.9330 C   0  0  0  0  0  0  0  0  0  0  0  0
   58.5110   33.3590   44.1200 C   0  0  0  0  0  0  0  0  0  0  0  0
   58.4890   32.6320   45.3240 C   0  0  0  0  0  0  0  0  0  0  0  0
   58.9920   33.2480   46.5750 C   0  0  0  0  0  0  0  0  0  0  0  0
   59.0830   34.5030   46.6580 O   0  0  0  0  0  0  0  0  0  0  0  0
   59.3480   32.4350   47.7060 N   0  0  0  0  0  0  0  0  0  0  0  0
   60.1590   32.9180   48.7880 C   0  0  0  0  0  0  0  0  0  0  0  0
   59.6100   32.9750   50.0780 C   0  0  0  0  0  0  0  0  0  0  0  0
   60.3720   33.4370   51.1520 C   0  0  0  0  0  0  0  0  0  0  0  0
   61.6950   33.8340   50.9510 C   0  0  0  0  0  0  0  0  0  0  0  0
   62.2630   33.7570   49.6770 C   0  0  0  0  0  0  0  0  0  0  0  0
   61.5070   33.2870   48.5840 C   0  0  0  0  0  0  0  0  0  0  0  0
   62.0640   33.1510   47.3030 O   0  0  0  0  0  0  0  0  0  0  0  0
   63.4080   33.4790   46.9670 C   0  0  0  0  0  0  0  0  0  0  0  0
   58.0150   31.3070   45.3110 C   0  0  0  0  0  0  0  0  0  0  0  0
   57.4050   27.8690   46.4620 C   0  0  0  0  0  0  0  0  0  0  0  0
   58.1490   28.5590   47.6150 C   0  0  0  0  0  0  0  0  0  0  0  0
   60.8550   29.2390   49.4300 C   0  0  0  0  0  0  0  0  0  0  0  0
   61.5910   29.1360   50.6140 C   0  0  0  0  0  0  0  0  0  0  0  0
   64.2943   27.6270   53.5036 H   0  0  0  0  0  0  0  0  0  0  0  0
   64.2507   26.7275   51.9494 H   0  0  0  0  0  0  0  0  0  0  0  0
   64.4679   28.5106   51.9494 H   0  0  0  0  0  0  0  0  0  0  0  0
   61.4819   25.7459   51.0374 H   0  0  0  0  0  0  0  0  0  0  0  0
   60.1803   25.9240   48.9219 H   0  0  0  0  0  0  0  0  0  0  0  0
   61.2186   28.5086   46.3159 H   0  0  0  0  0  0  0  0  0  0  0  0
   60.3478   26.9457   46.0855 H   0  0  0  0  0  0  0  0  0  0  0  0
   59.3207   29.7309   45.3437 H   0  0  0  0  0  0  0  0  0  0  0  0
   59.8854   28.4367   44.2096 H   0  0  0  0  0  0  0  0  0  0  0  0
   57.2372   31.0069   41.9935 H   0  0  0  0  0  0  0  0  0  0  0  0
   58.0747   33.3543   41.9974 H   0  0  0  0  0  0  0  0  0  0  0  0
   58.8864   34.3930   44.1127 H   0  0  0  0  0  0  0  0  0  0  0  0
   58.8600   31.5190   47.8310 H   0  0  0  0  0  0  0  0  0  0  0  0
   58.5713   32.6532   50.2440 H   0  0  0  0  0  0  0  0  0  0  0  0
   59.9296   33.4883   52.1578 H   0  0  0  0  0  0  0  0  0  0  0  0
   62.2910   34.2079   51.7966 H   0  0  0  0  0  0  0  0  0  0  0  0
   63.3080   34.0654   49.5256 H   0  0  0  0  0  0  0  0  0  0  0  0
   63.9919   33.6215   47.8883 H   0  0  0  0  0  0  0  0  0  0  0  0
   63.8482   32.6619   46.3766 H   0  0  0  0  0  0  0  0  0  0  0  0
   63.4223   34.4070   46.3766 H   0  0  0  0  0  0  0  0  0  0  0  0
   58.0008   30.7235   46.2434 H   0  0  0  0  0  0  0  0  0  0  0  0
   56.3796   28.2654   46.4250 H   0  0  0  0  0  0  0  0  0  0  0  0
   57.4328   26.7883   46.6653 H   0  0  0  0  0  0  0  0  0  0  0  0
   58.0518   29.6497   47.5100 H   0  0  0  0  0  0  0  0  0  0  0  0
   57.7120   28.2353   48.5712 H   0  0  0  0  0  0  0  0  0  0  0  0
   60.6825   30.2275   48.9793 H   0  0  0  0  0  0  0  0  0  0  0  0
   61.9935   30.0441   51.0866 H   0  0  0  0  0  0  0  0  0  0  0  0
  1  2  1  0
  2  3  1  0
  3  4  2  0
  4  5  1  0
  5  6  2  0
  6  7  1  0
  7  8  1  0
  8  9  1  0
  9 10  1  0
 10 11  1  0
 11 12  2  0
 11 13  2  0
 11 14  1  0
 14 15  2  0
 15 16  1  0
 16 17  2  0
 17 18  1  0
 18 19  1  0
 19 20  2  0
 19 21  1  0
 21 22  1  0
 22 23  2  0
 23 24  1  0
 24 25  2  0
 25 26  1  0
 26 27  2  0
 27 28  1  0
 28 29  1  0
 18 30  2  0
 10 31  1  0
 31 32  1  0
  6 33  1  0
 33 34  2  0
 34  3  1  0
 32  7  1  0
 30 14  1  0
 27 22  1  0
  1 35  1  0
  1 36  1  0
  1 37  1  0
  4 38  1  0
  5 39  1  0
  8 40  1  0
  8 41  1  0
  9 42  1  0
  9 43  1  0
 15 44  1  0
 16 45  1  0
 17 46  1  0
 21 47  1  0
 23 48  1  0
 24 49  1  0
 25 50  1  0
 26 51  1  0
 29 52  1  0
 29 53  1  0
 29 54  1  0
 30 55  1  0
 31 56  1  0
 31 57  1  0
 32 58  1  0
 32 59  1  0
 33 60  1  0
 34 61  1  0
M  END
>  <UniqueID>  (85) 
73

>  <SMILES>  (85) 
COc1ccc(N2CCN(S(=O)(=O)c3cccc(C(=O)Nc4ccccc4OC)c3)CC2)cc1

>  <Energy>  (85) 
78.1690931298112

>  <Genealogy>  (85) 
COc1ccc(N2CCN(S(=O)(=O)c3cccc(C(=O)Nc4ccccc4OC)c3)CC2)cc1 (3D coordinates assigned)
COc1ccc(N2CCN(S(=O)(=O)c3cccc(C(=O)Nc4ccccc4OC)c3)CC2)cc1 (nonaromatic ring conformer: 78.1690931298112 kcal/mol)

>  <smiles>  (85) 
COc1ccc(N2CCN(S(=O)(=O)c3cccc(C(=O)Nc4ccccc4OC)c3)CC2)cc1

>  <score_type>  (85) 
oracle

>  <origin>  (85) 
adg

>  <m_score__min__energy>  (85) 
-9.4299999999999997

>  <m_primary>  (85) 
energy

$$$$
85:0
     RDKit          3D

 41 43  0  0  0  0  0  0  0  0999 V2000
   59.7815   26.1091   46.7615 H   0  0  0  0  0  0  0  0  0  0  0  0
   59.2430   26.3210   45.8260 C   0  0  0  0  0  0  0  0  0  0  0  0
   59.3280   27.5590   45.3150 C   0  0  0  0  0  0  0  0  0  0  0  0
   60.2167   27.8314   44.7267 H   0  0  0  0  0  0  0  0  0  0  0  0
   58.2420   28.5930   45.5210 C   0  0  1  0  0  0  0  0  0  0  0  0
   57.6937   28.3210   46.4350 H   0  0  0  0  0  0  0  0  0  0  0  0
   58.7870   29.9930   45.7890 C   0  0  0  0  0  0  0  0  0  0  0  0
   59.9980   30.1940   46.4780 C   0  0  0  0  0  0  0  0  0  0  0  0
   60.6037   29.3266   46.7791 H   0  0  0  0  0  0  0  0  0  0  0  0
   60.4380   31.4840   46.7830 C   0  0  0  0  0  0  0  0  0  0  0  0
   61.4007   31.6271   47.2955 H   0  0  0  0  0  0  0  0  0  0  0  0
   59.6560   32.6010   46.4380 C   0  0  0  0  0  0  0  0  0  0  0  0
   60.0540   33.9160   46.7230 O   0  0  0  0  0  0  0  0  0  0  0  0
   59.6360   35.0600   45.9840 C   0  0  0  0  0  0  0  0  0  0  0  0
   59.3438   35.8597   46.6805 H   0  0  0  0  0  0  0  0  0  0  0  0
   60.4643   35.4100   45.3505 H   0  0  0  0  0  0  0  0  0  0  0  0
   58.7771   34.7936   45.3505 H   0  0  0  0  0  0  0  0  0  0  0  0
   58.4290   32.4020   45.7970 C   0  0  0  0  0  0  0  0  0  0  0  0
   57.8046   33.2695   45.5370 H   0  0  0  0  0  0  0  0  0  0  0  0
   57.9870   31.1140   45.4830 C   0  0  0  0  0  0  0  0  0  0  0  0
   56.7350   30.9540   44.8780 O   0  0  0  0  0  0  0  0  0  0  0  0
   56.3030   29.7170   44.4010 C   0  0  0  0  0  0  0  0  0  0  0  0
   55.1310   29.5920   43.9600 O   0  0  0  0  0  0  0  0  0  0  0  0
   57.2620   28.5680   44.3290 C   0  0  0  0  0  0  0  0  0  0  0  0
   57.8335   28.6341   43.3915 H   0  0  0  0  0  0  0  0  0  0  0  0
   56.6893   27.6295   44.3645 H   0  0  0  0  0  0  0  0  0  0  0  0
   58.4660   25.2220   45.2040 C   0  0  0  0  0  0  0  0  0  0  0  0
   58.4380   23.9180   45.7370 C   0  0  0  0  0  0  0  0  0  0  0  0
   59.0004   23.6903   46.6545 H   0  0  0  0  0  0  0  0  0  0  0  0
   57.7000   22.9120   45.1070 C   0  0  0  0  0  0  0  0  0  0  0  0
   57.6813   21.8999   45.5374 H   0  0  0  0  0  0  0  0  0  0  0  0
   56.9850   23.1790   43.9350 C   0  0  0  0  0  0  0  0  0  0  0  0
   56.2590   22.1340   43.3440 O   0  0  0  0  0  0  0  0  0  0  0  0
   56.8070   20.8620   43.0120 C   0  0  0  0  0  0  0  0  0  0  0  0
   57.0437   20.3125   43.9351 H   0  0  0  0  0  0  0  0  0  0  0  0
   56.0754   20.2902   42.4223 H   0  0  0  0  0  0  0  0  0  0  0  0
   57.7251   21.0009   42.4223 H   0  0  0  0  0  0  0  0  0  0  0  0
   57.0220   24.4760   43.3920 C   0  0  0  0  0  0  0  0  0  0  0  0
   56.4674   24.6985   42.4684 H   0  0  0  0  0  0  0  0  0  0  0  0
   57.7600   25.4840   44.0200 C   0  0  0  0  0  0  0  0  0  0  0  0
   57.7874   26.4924   43.5815 H   0  0  0  0  0  0  0  0  0  0  0  0
  1  2  1  0
  2  3  2  0
  3  4  1  0
  3  5  1  0
  5  6  1  1
  5  7  1  0
  7  8  2  0
  8  9  1  0
  8 10  1  0
 10 11  1  0
 10 12  2  0
 12 13  1  0
 13 14  1  0
 14 15  1  0
 14 16  1  0
 14 17  1  0
 12 18  1  0
 18 19  1  0
 18 20  2  0
 20 21  1  0
 21 22  1  0
 22 23  2  0
 22 24  1  0
 24 25  1  0
 24 26  1  0
  2 27  1  0
 27 28  2  0
 28 29  1  0
 28 30  1  0
 30 31  1  0
 30 32  2  0
 32 33  1  0
 33 34  1  0
 34 35  1  0
 34 36  1  0
 34 37  1  0
 32 38  1  0
 38 39  1  0
 38 40  2  0
 40 41  1  0
 24  5  1  0
 40 27  1  0
 20  7  1  0
M  END
>  <UniqueID>  (86) 
74

>  <SMILES>  (86) 
COc1ccc(/C=C/[C@@H]2CC(=O)Oc3cc(OC)ccc32)cc1

>  <Energy>  (86) 
45.80307085973957

>  <Genealogy>  (86) 
COc1ccc(C=C[C@@H]2CC(=O)Oc3cc(OC)ccc32)cc1 (chirality)
COc1ccc(/C=C/[C@@H]2CC(=O)Oc3cc(OC)ccc32)cc1 (cis-trans isomerization)
COc1ccc(/C=C/[C@@H]2CC(=O)Oc3cc(OC)ccc32)cc1 (3D coordinates assigned)
COc1ccc(/C=C/[C@@H]2CC(=O)Oc3cc(OC)ccc32)cc1 (nonaromatic ring conformer: 45.80307085973957 kcal/mol)

>  <smiles>  (86) 
COc1ccc(C=CC2CC(=O)Oc3cc(OC)ccc32)cc1

>  <score_type>  (86) 
oracle

>  <origin>  (86) 
adg

>  <m_score__min__energy>  (86) 
-7.3300000000000001

>  <m_primary>  (86) 
energy

$$$$
86:0
     RDKit          3D

 37 40  0  0  0  0  0  0  0  0999 V2000
   58.4910   34.5830   45.7550 C   0  0  0  0  0  0  0  0  0  0  0  0
   58.3290   33.1070   45.5390 C   0  0  0  0  0  0  0  0  0  0  0  0
   57.8640   32.6210   44.3080 C   0  0  0  0  0  0  0  0  0  0  0  0
   57.7480   31.2450   44.0940 C   0  0  0  0  0  0  0  0  0  0  0  0
   58.1020   30.3330   45.1040 C   0  0  0  0  0  0  0  0  0  0  0  0
   57.9990   28.8370   44.8690 C   0  0  2  0  0  0  0  0  0  0  0  0
   56.7560   28.2670   45.6100 C   0  0  0  0  0  0  0  0  0  0  0  0
   56.7810   26.7660   45.6430 C   0  0  0  0  0  0  0  0  0  0  0  0
   57.9550   26.0370   45.6720 C   0  0  0  0  0  0  0  0  0  0  0  0
   57.5870   24.7180   45.8790 C   0  0  0  0  0  0  0  0  0  0  0  0
   58.3410   23.5510   46.0060 C   0  0  0  0  0  0  0  0  0  0  0  0
   57.6500   22.3470   46.2420 C   0  0  0  0  0  0  0  0  0  0  0  0
   56.2410   22.3380   46.3500 C   0  0  0  0  0  0  0  0  0  0  0  0
   55.5060   23.5310   46.2210 C   0  0  0  0  0  0  0  0  0  0  0  0
   56.2140   24.7080   45.9810 C   0  0  0  0  0  0  0  0  0  0  0  0
   55.7240   25.9540   45.8450 N   0  0  0  0  0  0  0  0  0  0  0  0
   54.4070   26.3360   45.9670 O   0  0  0  0  0  0  0  0  0  0  0  0
   59.2660   26.6710   45.5410 C   0  0  0  0  0  0  0  0  0  0  0  0
   60.3320   26.0160   45.6970 O   0  0  0  0  0  0  0  0  0  0  0  0
   59.2950   28.1120   45.2250 C   0  0  0  0  0  0  0  0  0  0  0  0
   60.4040   28.7100   45.1480 O   0  0  0  0  0  0  0  0  0  0  0  0
   58.5930   30.8240   46.3250 C   0  0  0  0  0  0  0  0  0  0  0  0
   58.7080   32.2010   46.5390 C   0  0  0  0  0  0  0  0  0  0  0  0
   58.5143   34.7953   46.8341 H   0  0  0  0  0  0  0  0  0  0  0  0
   59.4315   34.9199   45.2946 H   0  0  0  0  0  0  0  0  0  0  0  0
   57.6459   35.1159   45.2946 H   0  0  0  0  0  0  0  0  0  0  0  0
   57.5898   33.3252   43.5087 H   0  0  0  0  0  0  0  0  0  0  0  0
   57.3769   30.8724   43.1279 H   0  0  0  0  0  0  0  0  0  0  0  0
   57.8530   28.6574   43.7936 H   0  0  0  0  0  0  0  0  0  0  0  0
   56.7482   28.6480   46.6419 H   0  0  0  0  0  0  0  0  0  0  0  0
   55.8528   28.5873   45.0699 H   0  0  0  0  0  0  0  0  0  0  0  0
   59.4378   23.5708   45.9246 H   0  0  0  0  0  0  0  0  0  0  0  0
   58.2112   21.4063   46.3431 H   0  0  0  0  0  0  0  0  0  0  0  0
   55.7144   21.3904   46.5365 H   0  0  0  0  0  0  0  0  0  0  0  0
   54.4093   23.5349   46.3067 H   0  0  0  0  0  0  0  0  0  0  0  0
   58.8888   30.1210   47.1176 H   0  0  0  0  0  0  0  0  0  0  0  0
   59.0979   32.5752   47.4971 H   0  0  0  0  0  0  0  0  0  0  0  0
  1  2  1  0
  2  3  2  0
  3  4  1  0
  4  5  2  0
  5  6  1  0
  6  7  1  0
  7  8  1  0
  8  9  2  0
  9 10  1  0
 10 11  2  0
 11 12  1  0
 12 13  2  0
 13 14  1  0
 14 15  2  0
 15 16  1  0
 16 17  1  0
  9 18  1  0
 18 19  2  0
 18 20  1  0
 20 21  2  0
  5 22  1  0
 22 23  2  0
 23  2  1  0
 20  6  1  0
 16  8  1  0
 15 10  1  0
  1 24  1  0
  1 25  1  0
  1 26  1  0
  3 27  1  0
  4 28  1  0
  6 29  1  6
  7 30  1  0
  7 31  1  0
 11 32  1  0
 12 33  1  0
 13 34  1  0
 14 35  1  0
 22 36  1  0
 23 37  1  0
M  CHG  1  17  -1
M  END
>  <UniqueID>  (87) 
75

>  <SMILES>  (87) 
Cc1ccc([C@@H]2Cc3c(c4ccccc4n3[O-])C(=O)C2=O)cc1

>  <Energy>  (87) 
81.65088839291388

>  <Genealogy>  (87) 
Cc1ccc(C2Cc3c(c4ccccc4n3[O-])C(=O)C2=O)cc1 (protonated)
Cc1ccc([C@@H]2Cc3c(c4ccccc4n3[O-])C(=O)C2=O)cc1 (chirality)
Cc1ccc([C@@H]2Cc3c(c4ccccc4n3[O-])C(=O)C2=O)cc1 (3D coordinates assigned)
Cc1ccc([C@@H]2Cc3c(c4ccccc4n3[O-])C(=O)C2=O)cc1 (nonaromatic ring conformer: 81.65088839291388 kcal/mol)

>  <smiles>  (87) 
Cc1ccc(C2Cc3c(c4ccccc4n3O)C(=O)C2=O)cc1

>  <score_type>  (87) 
oracle

>  <origin>  (87) 
adg

>  <m_score__min__energy>  (87) 
-11.59

>  <m_primary>  (87) 
energy

$$$$
87:0
     RDKit          3D

 31 32  0  0  0  0  0  0  0  0999 V2000
   55.8700   29.7070   43.9100 C   0  0  0  0  0  0  0  0  0  0  0  0
   56.2920   30.8700   44.6950 N   0  0  0  0  0  0  0  0  0  0  0  0
   57.4060   31.5750   44.0480 C   0  0  0  0  0  0  0  0  0  0  0  0
   58.0730   32.5210   45.0160 C   0  0  0  0  0  0  0  0  0  0  0  0
   58.3860   33.8310   44.6130 C   0  0  0  0  0  0  0  0  0  0  0  0
   58.9850   34.7200   45.5070 C   0  0  0  0  0  0  0  0  0  0  0  0
   59.2820   34.3120   46.8090 C   0  0  0  0  0  0  0  0  0  0  0  0
   58.9700   33.0150   47.2230 C   0  0  0  0  0  0  0  0  0  0  0  0
   58.3490   32.1140   46.3370 C   0  0  0  0  0  0  0  0  0  0  0  0
   58.0390   30.8030   46.7330 O   0  0  0  0  0  0  0  0  0  0  0  0
   58.8230   29.6710   46.4730 C   0  0  0  0  0  0  0  0  0  0  0  0
   58.6440   28.5330   47.2690 C   0  0  0  0  0  0  0  0  0  0  0  0
   59.4190   27.3880   47.0520 C   0  0  0  0  0  0  0  0  0  0  0  0
   60.3870   27.3800   46.0450 C   0  0  0  0  0  0  0  0  0  0  0  0
   60.5870   28.5180   45.2580 C   0  0  0  0  0  0  0  0  0  0  0  0
   59.8130   29.6630   45.4730 C   0  0  0  0  0  0  0  0  0  0  0  0
   55.5749   28.8937   44.5893 H   0  0  0  0  0  0  0  0  0  0  0  0
   55.0149   29.9835   43.2757 H   0  0  0  0  0  0  0  0  0  0  0  0
   56.7034   29.3708   43.2757 H   0  0  0  0  0  0  0  0  0  0  0  0
   56.6360   30.5140   45.6170 H   0  0  0  0  0  0  0  0  0  0  0  0
   58.1437   30.8387   43.6965 H   0  0  0  0  0  0  0  0  0  0  0  0
   57.0125   32.1556   43.2007 H   0  0  0  0  0  0  0  0  0  0  0  0
   58.1576   34.1572   43.5876 H   0  0  0  0  0  0  0  0  0  0  0  0
   59.2236   35.7444   45.1851 H   0  0  0  0  0  0  0  0  0  0  0  0
   59.7618   35.0121   47.5087 H   0  0  0  0  0  0  0  0  0  0  0  0
   59.2110   32.6955   48.2476 H   0  0  0  0  0  0  0  0  0  0  0  0
   57.8897   28.5390   48.0697 H   0  0  0  0  0  0  0  0  0  0  0  0
   59.2658   26.4942   47.6746 H   0  0  0  0  0  0  0  0  0  0  0  0
   60.9921   26.4780   45.8712 H   0  0  0  0  0  0  0  0  0  0  0  0
   61.3536   28.5129   44.4691 H   0  0  0  0  0  0  0  0  0  0  0  0
   59.9787   30.5601   44.8584 H   0  0  0  0  0  0  0  0  0  0  0  0
  1  2  1  0
  2  3  1  0
  3  4  1  0
  4  5  2  0
  5  6  1  0
  6  7  2  0
  7  8  1  0
  8  9  2  0
  9 10  1  0
 10 11  1  0
 11 12  2  0
 12 13  1  0
 13 14  2  0
 14 15  1  0
 15 16  2  0
  9  4  1  0
 16 11  1  0
  1 17  1  0
  1 18  1  0
  1 19  1  0
  2 20  1  0
  3 21  1  0
  3 22  1  0
  5 23  1  0
  6 24  1  0
  7 25  1  0
  8 26  1  0
 12 27  1  0
 13 28  1  0
 14 29  1  0
 15 30  1  0
 16 31  1  0
M  END
>  <UniqueID>  (88) 
76

>  <SMILES>  (88) 
CNCc1ccccc1Oc1ccccc1

>  <Energy>  (88) 
36.22261158239127

>  <Genealogy>  (88) 
CNCc1ccccc1Oc1ccccc1 (3D coordinates assigned)
CNCc1ccccc1Oc1ccccc1 (optimized conformer: 36.22261158239127 kcal/mol)

>  <smiles>  (88) 
CNCc1ccccc1Oc1ccccc1

>  <score_type>  (88) 
oracle

>  <origin>  (88) 
adg

>  <m_score__min__energy>  (88) 
-6.0599999999999996

>  <m_primary>  (88) 
energy

$$$$
88:0
     RDKit          3D

 40 42  0  0  0  0  0  0  0  0999 V2000
   56.2260   25.3140   47.1430 O   0  0  0  0  0  0  0  0  0  0  0  0
   55.9790   26.2620   46.3520 C   0  0  0  0  0  0  0  0  0  0  0  0
   54.7140   26.3420   45.7820 O   0  0  0  0  0  0  0  0  0  0  0  0
   57.0130   27.2820   46.0280 C   0  0  0  0  0  0  0  0  0  0  0  0
   58.3290   27.0870   46.4530 C   0  0  0  0  0  0  0  0  0  0  0  0
   59.3010   27.9980   46.1690 N   0  0  0  0  0  0  0  0  0  0  0  0
   60.6670   27.7590   46.6670 C   0  0  0  0  0  0  0  0  0  0  0  0
   60.7210   27.9580   48.1590 C   0  0  0  0  0  0  0  0  0  0  0  0
   60.7530   26.8480   49.0200 C   0  0  0  0  0  0  0  0  0  0  0  0
   60.7690   27.0300   50.4050 C   0  0  0  0  0  0  0  0  0  0  0  0
   60.7470   28.3210   50.9420 C   0  0  0  0  0  0  0  0  0  0  0  0
   60.7620   28.4960   52.2870 F   0  0  0  0  0  0  0  0  0  0  0  0
   60.7070   29.4300   50.0930 C   0  0  0  0  0  0  0  0  0  0  0  0
   60.6910   29.2520   48.7060 C   0  0  0  0  0  0  0  0  0  0  0  0
   58.9960   29.1350   45.4690 C   0  0  0  0  0  0  0  0  0  0  0  0
   59.9030   29.9790   45.2230 O   0  0  0  0  0  0  0  0  0  0  0  0
   57.7130   29.3660   45.0350 N   0  0  0  0  0  0  0  0  0  0  0  0
   57.4110   30.5810   44.2470 C   0  0  0  0  0  0  0  0  0  0  0  0
   57.7790   31.8190   45.0230 C   0  0  0  0  0  0  0  0  0  0  0  0
   58.1210   33.0040   44.3480 C   0  0  0  0  0  0  0  0  0  0  0  0
   58.4920   34.1440   45.0670 C   0  0  0  0  0  0  0  0  0  0  0  0
   58.5310   34.1100   46.4630 C   0  0  0  0  0  0  0  0  0  0  0  0
   58.1970   32.9350   47.1430 C   0  0  0  0  0  0  0  0  0  0  0  0
   57.8250   31.7930   46.4280 C   0  0  0  0  0  0  0  0  0  0  0  0
   56.7240   28.4520   45.3010 C   0  0  0  0  0  0  0  0  0  0  0  0
   55.5460   28.6610   44.8990 O   0  0  0  0  0  0  0  0  0  0  0  0
   58.5846   26.1835   47.0261 H   0  0  0  0  0  0  0  0  0  0  0  0
   60.9655   26.7278   46.4273 H   0  0  0  0  0  0  0  0  0  0  0  0
   61.3534   28.4712   46.1857 H   0  0  0  0  0  0  0  0  0  0  0  0
   60.7655   25.8308   48.6014 H   0  0  0  0  0  0  0  0  0  0  0  0
   60.7989   26.1571   51.0737 H   0  0  0  0  0  0  0  0  0  0  0  0
   60.6881   30.4451   50.5164 H   0  0  0  0  0  0  0  0  0  0  0  0
   60.6548   30.1276   48.0412 H   0  0  0  0  0  0  0  0  0  0  0  0
   57.9865   30.5569   43.3099 H   0  0  0  0  0  0  0  0  0  0  0  0
   56.3329   30.6050   44.0298 H   0  0  0  0  0  0  0  0  0  0  0  0
   58.0965   33.0342   43.2487 H   0  0  0  0  0  0  0  0  0  0  0  0
   58.7536   35.0692   44.5327 H   0  0  0  0  0  0  0  0  0  0  0  0
   58.8245   35.0076   47.0271 H   0  0  0  0  0  0  0  0  0  0  0  0
   58.2270   32.9092   48.2423 H   0  0  0  0  0  0  0  0  0  0  0  0
   57.5670   30.8695   46.9671 H   0  0  0  0  0  0  0  0  0  0  0  0
  1  2  2  0
  2  3  1  0
  2  4  1  0
  4  5  2  0
  5  6  1  0
  6  7  1  0
  7  8  1  0
  8  9  2  0
  9 10  1  0
 10 11  2  0
 11 12  1  0
 11 13  1  0
 13 14  2  0
  6 15  1  0
 15 16  2  0
 15 17  1  0
 17 18  1  0
 18 19  1  0
 19 20  2  0
 20 21  1  0
 21 22  2  0
 22 23  1  0
 23 24  2  0
 17 25  1  0
 25 26  2  0
 25  4  1  0
 14  8  1  0
 24 19  1  0
  5 27  1  0
  7 28  1  0
  7 29  1  0
  9 30  1  0
 10 31  1  0
 13 32  1  0
 14 33  1  0
 18 34  1  0
 18 35  1  0
 20 36  1  0
 21 37  1  0
 22 38  1  0
 23 39  1  0
 24 40  1  0
M  CHG  1   3  -1
M  END
>  <UniqueID>  (89) 
77

>  <SMILES>  (89) 
O=C([O-])c1cn(Cc2ccc(F)cc2)c(=O)n(Cc2ccccc2)c1=O

>  <Energy>  (89) 
50.05245568616293

>  <Genealogy>  (89) 
O=C([O-])c1cn(Cc2ccc(F)cc2)c(=O)n(Cc2ccccc2)c1=O (protonated)
O=C([O-])c1cn(Cc2ccc(F)cc2)c(=O)n(Cc2ccccc2)c1=O (3D coordinates assigned)
O=C([O-])c1cn(Cc2ccc(F)cc2)c(=O)n(Cc2ccccc2)c1=O (optimized conformer: 50.05245568616293 kcal/mol)

>  <smiles>  (89) 
O=C(O)c1cn(Cc2ccc(F)cc2)c(=O)n(Cc2ccccc2)c1=O

>  <score_type>  (89) 
oracle

>  <origin>  (89) 
adg

>  <m_score__min__energy>  (89) 
-10.18

>  <m_primary>  (89) 
energy

$$$$
89:0
     RDKit          3D

 63 67  0  0  0  0  0  0  0  0999 V2000
   57.0840   31.5980   42.4570 O   0  0  0  0  0  0  0  0  0  0  0  0
   57.1970   31.1480   43.6310 C   0  0  0  0  0  0  0  0  0  0  0  0
   56.6830   29.8520   43.9630 N   0  0  0  0  0  0  0  0  0  0  0  0
   57.3820   28.6050   43.6710 C   0  0  0  0  0  0  0  0  0  0  0  0
   58.4240   28.3260   44.7270 C   0  0  0  0  0  0  0  0  0  0  0  0
   59.7050   28.8920   44.6030 C   0  0  0  0  0  0  0  0  0  0  0  0
   60.6900   28.6330   45.5600 C   0  0  0  0  0  0  0  0  0  0  0  0
   60.4090   27.8040   46.6480 C   0  0  0  0  0  0  0  0  0  0  0  0
   59.1420   27.2290   46.7790 C   0  0  0  0  0  0  0  0  0  0  0  0
   58.1480   27.4820   45.8270 C   0  0  0  0  0  0  0  0  0  0  0  0
   56.5730   26.7240   46.0370 Cl  0  0  0  0  0  0  0  0  0  0  0  0
   57.8610   31.9850   44.6900 C   0  0  0  0  0  0  0  0  0  0  0  0
   57.1280   33.3350   44.8720 C   0  0  0  0  0  0  0  0  0  0  0  0
   57.0870   33.7990   46.3400 C   0  0  0  0  0  0  0  0  0  0  0  0
   58.3390   33.4950   47.0640 N   0  0  0  0  0  0  0  0  0  0  0  0
   59.4550   34.3540   46.6210 C   0  0  0  0  0  0  0  0  0  0  0  0
   60.7110   34.0360   47.3890 C   0  0  0  0  0  0  0  0  0  0  0  0
   61.9330   33.7470   46.7910 C   0  0  0  0  0  0  0  0  0  0  0  0
   62.8000   33.5160   47.8340 C   0  0  0  0  0  0  0  0  0  0  0  0
   64.1500   33.1720   47.8190 C   0  0  0  0  0  0  0  0  0  0  0  0
   64.7920   32.9830   49.0540 C   0  0  0  0  0  0  0  0  0  0  0  0
   64.0800   33.1360   50.2620 C   0  0  0  0  0  0  0  0  0  0  0  0
   62.7170   33.4820   50.2470 C   0  0  0  0  0  0  0  0  0  0  0  0
   62.0990   33.6710   49.0050 C   0  0  0  0  0  0  0  0  0  0  0  0
   60.8120   33.9940   48.7460 N   0  0  0  0  0  0  0  0  0  0  0  0
   59.7340   34.2160   49.7220 C   0  0  0  0  0  0  0  0  0  0  0  0
   59.2850   32.9170   50.3490 C   0  0  0  0  0  0  0  0  0  0  0  0
   59.8000   31.6840   49.9070 C   0  0  0  0  0  0  0  0  0  0  0  0
   59.3700   30.4890   50.4900 C   0  0  0  0  0  0  0  0  0  0  0  0
   58.4370   30.5130   51.5300 C   0  0  0  0  0  0  0  0  0  0  0  0
   58.0180   29.3530   52.0910 F   0  0  0  0  0  0  0  0  0  0  0  0
   57.9410   31.7340   51.9960 C   0  0  0  0  0  0  0  0  0  0  0  0
   58.3710   32.9320   51.4180 C   0  0  0  0  0  0  0  0  0  0  0  0
   58.6810   32.0460   47.0820 C   0  0  0  0  0  0  0  0  0  0  0  0
   57.9470   31.2130   46.0130 C   0  0  0  0  0  0  0  0  0  0  0  0
   56.6561   27.7788   43.6509 H   0  0  0  0  0  0  0  0  0  0  0  0
   57.8794   28.6951   42.6940 H   0  0  0  0  0  0  0  0  0  0  0  0
   59.9336   29.5434   43.7466 H   0  0  0  0  0  0  0  0  0  0  0  0
   61.6884   29.0830   45.4560 H   0  0  0  0  0  0  0  0  0  0  0  0
   61.1847   27.6036   47.4017 H   0  0  0  0  0  0  0  0  0  0  0  0
   58.9248   26.5737   47.6354 H   0  0  0  0  0  0  0  0  0  0  0  0
   58.8865   32.2081   44.3605 H   0  0  0  0  0  0  0  0  0  0  0  0
   57.6473   34.1000   44.2760 H   0  0  0  0  0  0  0  0  0  0  0  0
   56.0887   33.1948   44.5399 H   0  0  0  0  0  0  0  0  0  0  0  0
   56.9217   34.8863   46.3620 H   0  0  0  0  0  0  0  0  0  0  0  0
   56.2712   33.2561   46.8398 H   0  0  0  0  0  0  0  0  0  0  0  0
   59.6355   34.1866   45.5489 H   0  0  0  0  0  0  0  0  0  0  0  0
   59.1858   35.4047   46.8041 H   0  0  0  0  0  0  0  0  0  0  0  0
   62.1580   33.7109   45.7149 H   0  0  0  0  0  0  0  0  0  0  0  0
   64.6952   33.0523   46.8712 H   0  0  0  0  0  0  0  0  0  0  0  0
   65.8582   32.7136   49.0793 H   0  0  0  0  0  0  0  0  0  0  0  0
   64.5944   32.9836   51.2223 H   0  0  0  0  0  0  0  0  0  0  0  0
   62.1528   33.6007   51.1838 H   0  0  0  0  0  0  0  0  0  0  0  0
   60.0992   34.8880   50.5126 H   0  0  0  0  0  0  0  0  0  0  0  0
   58.8768   34.6625   49.1968 H   0  0  0  0  0  0  0  0  0  0  0  0
   60.5451   31.6609   49.0981 H   0  0  0  0  0  0  0  0  0  0  0  0
   59.7665   29.5282   50.1298 H   0  0  0  0  0  0  0  0  0  0  0  0
   57.2112   31.7522   52.8188 H   0  0  0  0  0  0  0  0  0  0  0  0
   57.9927   33.8912   51.8011 H   0  0  0  0  0  0  0  0  0  0  0  0
   59.7636   31.9445   46.9158 H   0  0  0  0  0  0  0  0  0  0  0  0
   58.3631   31.6571   48.0607 H   0  0  0  0  0  0  0  0  0  0  0  0
   58.4948   30.2735   45.8481 H   0  0  0  0  0  0  0  0  0  0  0  0
   56.9270   31.0024   46.3670 H   0  0  0  0  0  0  0  0  0  0  0  0
  1  2  2  0
  2  3  1  0
  3  4  1  0
  4  5  1  0
  5  6  2  0
  6  7  1  0
  7  8  2  0
  8  9  1  0
  9 10  2  0
 10 11  1  0
  2 12  1  0
 12 13  1  0
 13 14  1  0
 14 15  1  0
 15 16  1  0
 16 17  1  0
 17 18  2  0
 18 19  1  0
 19 20  2  0
 20 21  1  0
 21 22  2  0
 22 23  1  0
 23 24  2  0
 24 25  1  0
 25 26  1  0
 26 27  1  0
 27 28  2  0
 28 29  1  0
 29 30  2  0
 30 31  1  0
 30 32  1  0
 32 33  2  0
 15 34  1  0
 34 35  1  0
 10  5  1  0
 35 12  1  0
 25 17  1  0
 33 27  1  0
 24 19  1  0
  4 36  1  0
  4 37  1  0
  6 38  1  0
  7 39  1  0
  8 40  1  0
  9 41  1  0
 12 42  1  0
 13 43  1  0
 13 44  1  0
 14 45  1  0
 14 46  1  0
 16 47  1  0
 16 48  1  0
 18 49  1  0
 20 50  1  0
 21 51  1  0
 22 52  1  0
 23 53  1  0
 26 54  1  0
 26 55  1  0
 28 56  1  0
 29 57  1  0
 32 58  1  0
 33 59  1  0
 34 60  1  0
 34 61  1  0
 35 62  1  0
 35 63  1  0
M  CHG  1   3  -1
M  END
>  <UniqueID>  (90) 
78

>  <SMILES>  (90) 
O=C([N-]Cc1ccccc1Cl)C1CCN(Cc2cc3ccccc3n2Cc2ccc(F)cc2)CC1

>  <Energy>  (90) 
104.89996086009461

>  <Genealogy>  (90) 
O=C([N-]Cc1ccccc1Cl)C1CCN(Cc2cc3ccccc3n2Cc2ccc(F)cc2)CC1 (protonated)
O=C([N-]Cc1ccccc1Cl)C1CCN(Cc2cc3ccccc3n2Cc2ccc(F)cc2)CC1 (3D coordinates assigned)
O=C([N-]Cc1ccccc1Cl)C1CCN(Cc2cc3ccccc3n2Cc2ccc(F)cc2)CC1 (nonaromatic ring conformer: 104.89996086009461 kcal/mol)

>  <smiles>  (90) 
O=C(NCc1ccccc1Cl)C1CCN(Cc2cc3ccccc3n2Cc2ccc(F)cc2)CC1

>  <score_type>  (90) 
oracle

>  <origin>  (90) 
adg

>  <m_score__min__energy>  (90) 
-12.06

>  <m_primary>  (90) 
energy

$$$$
90:0
     RDKit          3D

 43 45  0  0  1  0  0  0  0  0999 V2000
   57.7170   24.6470   45.1950 C   0  0  0  0  0  0  0  0  0  0  0  0
   56.9110   25.5610   46.1000 C   0  0  2  0  0  0  0  0  0  0  0  0
   55.4980   24.9840   46.1680 C   0  0  0  0  0  0  0  0  0  0  0  0
   54.6080   25.9190   45.6520 O   0  0  0  0  0  0  0  0  0  0  0  0
   56.8380   26.9190   45.6040 N   0  0  0  0  0  0  0  0  0  0  0  0
   57.5860   27.9410   46.2520 C   0  0  0  0  0  0  0  0  0  0  0  0
   57.7410   29.3220   46.0990 C   0  0  0  0  0  0  0  0  0  0  0  0
   57.1500   30.2240   45.1650 N   0  0  0  0  0  0  0  0  0  0  0  0
   57.5860   31.3860   44.8940 C   0  0  0  0  0  0  0  0  0  0  0  0
   57.6670   31.8310   43.5910 C   0  0  0  0  0  0  0  0  0  0  0  0
   58.1540   33.1180   43.3610 C   0  0  0  0  0  0  0  0  0  0  0  0
   58.5260   33.8750   44.4210 N   0  0  0  0  0  0  0  0  0  0  0  0
   58.4420   33.4300   45.6890 C   0  0  0  0  0  0  0  0  0  0  0  0
   58.8090   34.1900   46.6810 N   0  0  0  0  0  0  0  0  0  0  0  0
   60.0700   33.9430   47.2890 C   0  0  0  0  0  0  0  0  0  0  0  0
   60.2600   33.9580   48.6550 C   0  0  0  0  0  0  0  0  0  0  0  0
   61.5330   33.7050   49.1740 C   0  0  0  0  0  0  0  0  0  0  0  0
   62.5950   33.4400   48.3030 C   0  0  0  0  0  0  0  0  0  0  0  0
   63.9180   33.1750   48.7900 C   0  0  0  0  0  0  0  0  0  0  0  0
   64.9790   32.9450   49.1920 N   0  0  0  0  0  0  0  0  0  0  0  0
   62.4140   33.4230   46.9390 C   0  0  0  0  0  0  0  0  0  0  0  0
   61.1380   33.6780   46.4510 C   0  0  0  0  0  0  0  0  0  0  0  0
   57.9680   32.1800   45.9060 N   0  0  0  0  0  0  0  0  0  0  0  0
   58.6300   29.3640   47.1580 C   0  0  0  0  0  0  0  0  0  0  0  0
   59.2880   30.2830   47.7230 O   0  0  0  0  0  0  0  0  0  0  0  0
   58.4830   28.0020   47.3160 C   0  0  0  0  0  0  0  0  0  0  0  0
   58.9850   27.1700   48.1230 O   0  0  0  0  0  0  0  0  0  0  0  0
   58.3207   23.9625   45.8090 H   0  0  0  0  0  0  0  0  0  0  0  0
   57.0336   24.0641   44.5601 H   0  0  0  0  0  0  0  0  0  0  0  0
   58.3809   25.2521   44.5601 H   0  0  0  0  0  0  0  0  0  0  0  0
   57.4000   25.6069   47.0843 H   0  0  0  0  0  0  0  0  0  0  0  0
   55.4474   24.0587   45.5753 H   0  0  0  0  0  0  0  0  0  0  0  0
   55.2370   24.7553   47.2118 H   0  0  0  0  0  0  0  0  0  0  0  0
   54.0330   26.3130   46.3710 H   0  0  0  0  0  0  0  0  0  0  0  0
   56.2550   27.1760   44.7850 H   0  0  0  0  0  0  0  0  0  0  0  0
   57.3557   31.1878   42.7547 H   0  0  0  0  0  0  0  0  0  0  0  0
   58.2345   33.5112   42.3368 H   0  0  0  0  0  0  0  0  0  0  0  0
   58.8810   34.8220   44.2160 H   0  0  0  0  0  0  0  0  0  0  0  0
   59.4171   34.1672   49.3301 H   0  0  0  0  0  0  0  0  0  0  0  0
   61.6987   33.7142   50.2614 H   0  0  0  0  0  0  0  0  0  0  0  0
   63.2517   33.2144   46.2573 H   0  0  0  0  0  0  0  0  0  0  0  0
   60.9721   33.6688   45.3636 H   0  0  0  0  0  0  0  0  0  0  0  0
   57.9110   31.8590   46.8770 H   0  0  0  0  0  0  0  0  0  0  0  0
  1  2  1  0
  2  3  1  0
  3  4  1  0
  2  5  1  0
  5  6  1  0
  6  7  2  0
  7  8  1  0
  8  9  2  0
  9 10  1  0
 10 11  2  0
 11 12  1  0
 12 13  1  0
 13 14  2  0
 14 15  1  0
 15 16  2  0
 16 17  1  0
 17 18  2  0
 18 19  1  0
 19 20  3  0
 18 21  1  0
 21 22  2  0
 13 23  1  0
  7 24  1  0
 24 25  2  0
 24 26  1  0
 26 27  2  0
 26  6  1  0
 23  9  1  0
 22 15  1  0
  1 28  1  0
  1 29  1  0
  1 30  1  0
  2 31  1  1
  3 32  1  0
  3 33  1  0
  4 34  1  0
  5 35  1  0
 10 36  1  0
 11 37  1  0
 12 38  1  0
 16 39  1  0
 17 40  1  0
 21 41  1  0
 22 42  1  0
 23 43  1  0
M  END
>  <smiles>  (91) 
CC(CO)Nc1c(N=c2cc[nH]c(=Nc3ccc(C#N)cc3)[nH]2)c(=O)c1=O

>  <score_type>  (91) 
oracle

>  <origin>  (91) 
adg

>  <m_score__min__energy>  (91) 
-9.6500000000000004

>  <m_primary>  (91) 
energy

$$$$
91:0
     RDKit          3D

 54 57  0  0  0  0  0  0  0  0999 V2000
   59.1170   34.7250   48.1160 O   0  0  0  0  0  0  0  0  0  0  0  0
   59.6800   33.9450   47.2990 C   0  0  0  0  0  0  0  0  0  0  0  0
   61.1210   33.6230   47.4470 C   0  0  0  0  0  0  0  0  0  0  0  0
   61.6080   33.1000   48.6580 C   0  0  0  0  0  0  0  0  0  0  0  0
   62.9650   32.7900   48.8020 C   0  0  0  0  0  0  0  0  0  0  0  0
   63.8500   32.9990   47.7430 C   0  0  0  0  0  0  0  0  0  0  0  0
   63.3770   33.5170   46.5360 C   0  0  0  0  0  0  0  0  0  0  0  0
   62.0240   33.8320   46.3860 C   0  0  0  0  0  0  0  0  0  0  0  0
   58.8780   33.3780   46.2040 C   0  0  0  0  0  0  0  0  0  0  0  0
   57.9870   34.0920   45.4270 C   0  0  0  0  0  0  0  0  0  0  0  0
   57.4770   33.1990   44.5050 C   0  0  0  0  0  0  0  0  0  0  0  0
   58.0730   31.9800   44.7590 C   0  0  0  0  0  0  0  0  0  0  0  0
   58.9270   32.0920   45.7980 N   0  0  0  0  0  0  0  0  0  0  0  0
   59.7060   30.9990   46.3850 C   0  0  0  0  0  0  0  0  0  0  0  0
   59.1410   29.6610   45.9890 C   0  0  0  0  0  0  0  0  0  0  0  0
   58.3560   28.9290   46.8910 C   0  0  0  0  0  0  0  0  0  0  0  0
   57.8270   27.6890   46.5200 C   0  0  0  0  0  0  0  0  0  0  0  0
   58.0750   27.1590   45.2470 C   0  0  0  0  0  0  0  0  0  0  0  0
   57.5310   25.8750   44.8980 N   0  0  0  0  0  0  0  0  0  0  0  0
   58.0300   24.6220   45.3920 C   0  0  0  0  0  0  0  0  0  0  0  0
   59.1150   24.5730   46.0360 O   0  0  0  0  0  0  0  0  0  0  0  0
   57.2960   23.3410   45.0840 C   0  0  0  0  0  0  0  0  0  0  0  0
   58.1230   22.4560   44.1230 C   0  0  0  0  0  0  0  0  0  0  0  0
   57.2140   21.4800   43.3700 C   0  0  0  0  0  0  0  0  0  0  0  0
   56.2080   22.1700   42.5360 N   0  0  0  0  0  0  0  0  0  0  0  0
   55.8310   23.5190   43.0080 C   0  0  0  0  0  0  0  0  0  0  0  0
   55.8770   23.6300   44.5380 C   0  0  0  0  0  0  0  0  0  0  0  0
   58.9030   27.8720   44.3620 C   0  0  0  0  0  0  0  0  0  0  0  0
   59.4230   29.1160   44.7280 C   0  0  0  0  0  0  0  0  0  0  0  0
   60.9175   32.9334   49.4979 H   0  0  0  0  0  0  0  0  0  0  0  0
   63.3356   32.3802   49.7531 H   0  0  0  0  0  0  0  0  0  0  0  0
   64.9166   32.7563   47.8591 H   0  0  0  0  0  0  0  0  0  0  0  0
   64.0726   33.6779   45.6992 H   0  0  0  0  0  0  0  0  0  0  0  0
   61.6616   34.2458   45.4334 H   0  0  0  0  0  0  0  0  0  0  0  0
   57.7342   35.1582   45.5232 H   0  0  0  0  0  0  0  0  0  0  0  0
   56.7383   33.4171   43.7197 H   0  0  0  0  0  0  0  0  0  0  0  0
   57.8803   31.0540   44.1974 H   0  0  0  0  0  0  0  0  0  0  0  0
   60.7458   31.0689   46.0330 H   0  0  0  0  0  0  0  0  0  0  0  0
   59.6634   31.0872   47.4806 H   0  0  0  0  0  0  0  0  0  0  0  0
   58.1554   29.3319   47.8947 H   0  0  0  0  0  0  0  0  0  0  0  0
   57.2102   27.1242   47.2345 H   0  0  0  0  0  0  0  0  0  0  0  0
   56.7860   25.8480   44.1660 H   0  0  0  0  0  0  0  0  0  0  0  0
   57.1688   22.7774   46.0200 H   0  0  0  0  0  0  0  0  0  0  0  0
   58.6428   23.0987   43.3972 H   0  0  0  0  0  0  0  0  0  0  0  0
   58.8515   21.8790   44.7116 H   0  0  0  0  0  0  0  0  0  0  0  0
   57.8371   20.8480   42.7201 H   0  0  0  0  0  0  0  0  0  0  0  0
   56.6734   20.8824   44.1187 H   0  0  0  0  0  0  0  0  0  0  0  0
   56.5930   22.2660   41.5690 H   0  0  0  0  0  0  0  0  0  0  0  0
   56.5287   24.2528   42.5782 H   0  0  0  0  0  0  0  0  0  0  0  0
   54.7975   23.7138   42.6855 H   0  0  0  0  0  0  0  0  0  0  0  0
   55.5812   24.6479   44.8318 H   0  0  0  0  0  0  0  0  0  0  0  0
   55.1861   22.8850   44.9595 H   0  0  0  0  0  0  0  0  0  0  0  0
   59.1427   27.4479   43.3758 H   0  0  0  0  0  0  0  0  0  0  0  0
   60.0579   29.6717   44.0223 H   0  0  0  0  0  0  0  0  0  0  0  0
  1  2  2  0
  2  3  1  0
  3  4  2  0
  4  5  1  0
  5  6  2  0
  6  7  1  0
  7  8  2  0
  2  9  1  0
  9 10  2  0
 10 11  1  0
 11 12  2  0
 12 13  1  0
 13 14  1  0
 14 15  1  0
 15 16  2  0
 16 17  1  0
 17 18  2  0
 18 19  1  0
 19 20  1  0
 20 21  2  0
 20 22  1  0
 22 23  1  0
 23 24  1  0
 24 25  1  0
 25 26  1  0
 26 27  1  0
 18 28  1  0
 28 29  2  0
  8  3  1  0
 13  9  1  0
 29 15  1  0
 27 22  1  0
  4 30  1  0
  5 31  1  0
  6 32  1  0
  7 33  1  0
  8 34  1  0
 10 35  1  0
 11 36  1  0
 12 37  1  0
 14 38  1  0
 14 39  1  0
 16 40  1  0
 17 41  1  0
 19 42  1  0
 22 43  1  0
 23 44  1  0
 23 45  1  0
 24 46  1  0
 24 47  1  0
 25 48  1  0
 26 49  1  0
 26 50  1  0
 27 51  1  0
 27 52  1  0
 28 53  1  0
 29 54  1  0
M  END
>  <UniqueID>  (92) 
79

>  <SMILES>  (92) 
O=C(c1ccccc1)c1cccn1Cc1ccc(NC(=O)C2CCNCC2)cc1

>  <Energy>  (92) 
94.51078872029777

>  <Genealogy>  (92) 
O=C(c1ccccc1)c1cccn1Cc1ccc(NC(=O)C2CCNCC2)cc1 (3D coordinates assigned)
O=C(c1ccccc1)c1cccn1Cc1ccc(NC(=O)C2CCNCC2)cc1 (nonaromatic ring conformer: 94.51078872029777 kcal/mol)

>  <smiles>  (92) 
O=C(c1ccccc1)c1cccn1Cc1ccc(NC(=O)C2CCNCC2)cc1

>  <score_type>  (92) 
oracle

>  <origin>  (92) 
adg

>  <m_score__min__energy>  (92) 
-10.1

>  <m_primary>  (92) 
energy

$$$$
92:0
     RDKit          3D

 69 72  0  0  0  0  0  0  0  0999 V2000
   65.1510   32.4850   49.8890 C   0  0  0  0  0  0  0  0  0  0  0  0
   63.7740   32.0720   49.4670 C   0  0  0  0  0  0  0  0  0  0  0  0
   63.2510   31.0540   49.9950 O   0  0  0  0  0  0  0  0  0  0  0  0
   63.0510   32.8140   48.4720 N   0  0  0  0  0  0  0  0  0  0  0  0
   63.4630   32.9160   47.0800 C   0  0  0  0  0  0  0  0  0  0  0  0
   62.3830   33.7250   46.3680 C   0  0  0  0  0  0  0  0  0  0  0  0
   61.4230   34.2180   47.4610 C   0  0  1  0  0  0  0  0  0  0  0  0
   60.0410   34.0190   47.1280 O   0  0  0  0  0  0  0  0  0  0  0  0
   59.3850   32.8120   46.8120 C   0  0  0  0  0  0  0  0  0  0  0  0
   58.4900   32.8250   45.7370 C   0  0  0  0  0  0  0  0  0  0  0  0
   57.8080   31.6650   45.3590 C   0  0  0  0  0  0  0  0  0  0  0  0
   58.0150   30.4580   46.0490 C   0  0  0  0  0  0  0  0  0  0  0  0
   57.2850   29.2380   45.6250 C   0  0  0  0  0  0  0  0  0  0  0  0
   56.2660   29.3620   44.8910 O   0  0  0  0  0  0  0  0  0  0  0  0
   57.7160   27.9260   46.0340 N   0  0  0  0  0  0  0  0  0  0  0  0
   57.1920   26.7050   45.4820 C   0  0  0  0  0  0  0  0  0  0  0  0
   56.0080   26.1670   46.0080 C   0  0  0  0  0  0  0  0  0  0  0  0
   55.4980   24.9620   45.5180 C   0  0  0  0  0  0  0  0  0  0  0  0
   56.1820   24.2560   44.5130 C   0  0  0  0  0  0  0  0  0  0  0  0
   55.6600   22.9680   44.0020 C   0  0  0  0  0  0  0  0  0  0  0  0
   55.6080   22.7760   42.7590 O   0  0  0  0  0  0  0  0  0  0  0  0
   55.1710   21.9420   44.8770 N   0  0  0  0  0  0  0  0  0  0  0  0
   54.3540   22.1540   46.0350 C   0  0  0  0  0  0  0  0  0  0  0  0
   54.7760   22.2650   47.3470 C   0  0  0  0  0  0  0  0  0  0  0  0
   53.6230   22.4300   48.0930 C   0  0  0  0  0  0  0  0  0  0  0  0
   53.5980   22.5960   49.5880 C   0  0  0  0  0  0  0  0  0  0  0  0
   54.3850   21.5310   50.2420 N   0  0  0  0  0  0  0  0  0  0  0  0
   54.4440   21.7650   51.6920 C   0  0  0  0  0  0  0  0  0  0  0  0
   53.7920   20.2070   49.9800 C   0  0  0  0  0  0  0  0  0  0  0  0
   52.5350   22.3930   47.2880 N   0  0  0  0  0  0  0  0  0  0  0  0
   51.1370   22.5380   47.6850 C   0  0  0  0  0  0  0  0  0  0  0  0
   52.9780   22.2230   46.0250 C   0  0  0  0  0  0  0  0  0  0  0  0
   57.3660   24.7940   43.9870 C   0  0  0  0  0  0  0  0  0  0  0  0
   57.8740   26.0020   44.4760 C   0  0  0  0  0  0  0  0  0  0  0  0
   58.9000   30.4460   47.1410 C   0  0  0  0  0  0  0  0  0  0  0  0
   59.5800   31.6090   47.5180 C   0  0  0  0  0  0  0  0  0  0  0  0
   61.8300   33.5430   48.7710 C   0  0  0  0  0  0  0  0  0  0  0  0
   65.2082   32.5022   50.9874 H   0  0  0  0  0  0  0  0  0  0  0  0
   65.8859   31.7677   49.4947 H   0  0  0  0  0  0  0  0  0  0  0  0
   65.3699   33.4883   49.4947 H   0  0  0  0  0  0  0  0  0  0  0  0
   64.4329   33.4297   47.0072 H   0  0  0  0  0  0  0  0  0  0  0  0
   63.5802   31.9212   46.6254 H   0  0  0  0  0  0  0  0  0  0  0  0
   62.8323   34.5800   45.8417 H   0  0  0  0  0  0  0  0  0  0  0  0
   61.8565   33.1163   45.6181 H   0  0  0  0  0  0  0  0  0  0  0  0
   61.5097   35.3095   47.5660 H   0  0  0  0  0  0  0  0  0  0  0  0
   58.3209   33.7597   45.1823 H   0  0  0  0  0  0  0  0  0  0  0  0
   57.1036   31.6969   44.5147 H   0  0  0  0  0  0  0  0  0  0  0  0
   58.4250   27.8340   46.7930 H   0  0  0  0  0  0  0  0  0  0  0  0
   55.4772   26.6977   46.8121 H   0  0  0  0  0  0  0  0  0  0  0  0
   54.5554   24.5633   45.9211 H   0  0  0  0  0  0  0  0  0  0  0  0
   55.8106   22.2296   47.7191 H   0  0  0  0  0  0  0  0  0  0  0  0
   54.0259   23.5748   49.8504 H   0  0  0  0  0  0  0  0  0  0  0  0
   52.5561   22.5312   49.9349 H   0  0  0  0  0  0  0  0  0  0  0  0
   54.2086   20.8314   52.2239 H   0  0  0  0  0  0  0  0  0  0  0  0
   55.4547   22.0998   51.9686 H   0  0  0  0  0  0  0  0  0  0  0  0
   53.7129   22.5389   51.9686 H   0  0  0  0  0  0  0  0  0  0  0  0
   53.5692   19.7095   50.9354 H   0  0  0  0  0  0  0  0  0  0  0  0
   52.8625   20.3289   49.4045 H   0  0  0  0  0  0  0  0  0  0  0  0
   54.5019   19.5947   49.4045 H   0  0  0  0  0  0  0  0  0  0  0  0
   51.0664   22.5453   48.7827 H   0  0  0  0  0  0  0  0  0  0  0  0
   50.7385   23.4823   47.2857 H   0  0  0  0  0  0  0  0  0  0  0  0
   50.5532   21.6956   47.2857 H   0  0  0  0  0  0  0  0  0  0  0  0
   52.3422   22.1510   45.1303 H   0  0  0  0  0  0  0  0  0  0  0  0
   57.8985   24.2623   43.1846 H   0  0  0  0  0  0  0  0  0  0  0  0
   58.8139   26.4039   44.0698 H   0  0  0  0  0  0  0  0  0  0  0  0
   59.0592   29.5144   47.7038 H   0  0  0  0  0  0  0  0  0  0  0  0
   60.2723   31.5837   48.3724 H   0  0  0  0  0  0  0  0  0  0  0  0
   62.0141   34.2970   49.5505 H   0  0  0  0  0  0  0  0  0  0  0  0
   61.0401   32.8768   49.1482 H   0  0  0  0  0  0  0  0  0  0  0  0
  1  2  1  0
  2  3  2  0
  2  4  1  0
  4  5  1  0
  5  6  1  0
  6  7  1  0
  7  8  1  0
  8  9  1  0
  9 10  2  0
 10 11  1  0
 11 12  2  0
 12 13  1  0
 13 14  2  0
 13 15  1  0
 15 16  1  0
 16 17  2  0
 17 18  1  0
 18 19  2  0
 19 20  1  0
 20 21  2  0
 20 22  1  0
 22 23  1  0
 23 24  1  0
 24 25  2  0
 25 26  1  0
 26 27  1  0
 27 28  1  0
 27 29  1  0
 25 30  1  0
 30 31  1  0
 30 32  1  0
 19 33  1  0
 33 34  2  0
 12 35  1  0
 35 36  2  0
  7 37  1  0
 37  4  1  0
 36  9  1  0
 34 16  1  0
 32 23  2  0
  1 38  1  0
  1 39  1  0
  1 40  1  0
  5 41  1  0
  5 42  1  0
  6 43  1  0
  6 44  1  0
  7 45  1  1
 10 46  1  0
 11 47  1  0
 15 48  1  0
 17 49  1  0
 18 50  1  0
 24 51  1  0
 26 52  1  0
 26 53  1  0
 28 54  1  0
 28 55  1  0
 28 56  1  0
 29 57  1  0
 29 58  1  0
 29 59  1  0
 31 60  1  0
 31 61  1  0
 31 62  1  0
 32 63  1  0
 33 64  1  0
 34 65  1  0
 35 66  1  0
 36 67  1  0
 37 68  1  0
 37 69  1  0
M  CHG  1  22  -1
M  END
>  <UniqueID>  (93) 
80

>  <SMILES>  (93) 
CC(=O)N1CC[C@@H](Oc2ccc(C(=O)Nc3ccc(C(=O)[N-]c4cc(CN(C)C)n(C)c4)cc3)cc2)C1

>  <Energy>  (93) 
111.54522601381842

>  <Genealogy>  (93) 
CC(=O)N1CCC(Oc2ccc(C(=O)Nc3ccc(C(=O)[N-]c4cc(CN(C)C)n(C)c4)cc3)cc2)C1 (protonated)
CC(=O)N1CC[C@@H](Oc2ccc(C(=O)Nc3ccc(C(=O)[N-]c4cc(CN(C)C)n(C)c4)cc3)cc2)C1 (chirality)
CC(=O)N1CC[C@@H](Oc2ccc(C(=O)Nc3ccc(C(=O)[N-]c4cc(CN(C)C)n(C)c4)cc3)cc2)C1 (3D coordinates assigned)
CC(=O)N1CC[C@@H](Oc2ccc(C(=O)Nc3ccc(C(=O)[N-]c4cc(CN(C)C)n(C)c4)cc3)cc2)C1 (nonaromatic ring conformer: 111.54522601381842 kcal/mol)

>  <smiles>  (93) 
CC(=O)N1CCC(Oc2ccc(C(=O)Nc3ccc(C(=O)Nc4cc(CN(C)C)n(C)c4)cc3)cc2)C1

>  <score_type>  (93) 
oracle

>  <origin>  (93) 
adg

>  <m_score__min__energy>  (93) 
-8.9299999999999997

>  <m_primary>  (93) 
energy

$$$$
93:0
     RDKit          3D

 28 29  0  0  0  0  0  0  0  0999 V2000
   55.3500   26.7130   46.0150 N   0  0  0  0  0  0  0  0  0  0  0  0
   56.6540   26.1180   46.0460 C   0  0  0  0  0  0  0  0  0  0  0  0
   56.7590   24.7340   46.2610 C   0  0  0  0  0  0  0  0  0  0  0  0
   58.0010   24.1000   46.2220 C   0  0  0  0  0  0  0  0  0  0  0  0
   59.1540   24.8400   45.9670 C   0  0  0  0  0  0  0  0  0  0  0  0
   59.0720   26.2180   45.7650 C   0  0  0  0  0  0  0  0  0  0  0  0
   57.8300   26.8780   45.8130 C   0  0  0  0  0  0  0  0  0  0  0  0
   57.8060   28.3510   45.6640 C   0  0  0  0  0  0  0  0  0  0  0  0
   56.7020   28.9540   45.5810 O   0  0  0  0  0  0  0  0  0  0  0  0
   59.0380   29.0900   45.6180 N   0  0  0  0  0  0  0  0  0  0  0  0
   59.1270   30.5170   45.7710 C   0  0  0  0  0  0  0  0  0  0  0  0
   60.0370   31.1040   46.6690 C   0  0  0  0  0  0  0  0  0  0  0  0
   60.1200   32.4950   46.7800 C   0  0  0  0  0  0  0  0  0  0  0  0
   59.3060   33.3130   45.9890 C   0  0  0  0  0  0  0  0  0  0  0  0
   59.4140   35.0580   46.1300 Cl  0  0  0  0  0  0  0  0  0  0  0  0
   58.4150   32.7380   45.0790 C   0  0  0  0  0  0  0  0  0  0  0  0
   58.3300   31.3460   44.9650 C   0  0  0  0  0  0  0  0  0  0  0  0
   55.1420   27.4970   45.3560 H   0  0  0  0  0  0  0  0  0  0  0  0
   54.6110   26.4700   46.7100 H   0  0  0  0  0  0  0  0  0  0  0  0
   55.8527   24.1440   46.4622 H   0  0  0  0  0  0  0  0  0  0  0  0
   58.0703   23.0155   46.3926 H   0  0  0  0  0  0  0  0  0  0  0  0
   60.1311   24.3364   45.9249 H   0  0  0  0  0  0  0  0  0  0  0  0
   59.9875   26.7945   45.5662 H   0  0  0  0  0  0  0  0  0  0  0  0
   59.9080   28.5680   45.3640 H   0  0  0  0  0  0  0  0  0  0  0  0
   60.6860   30.4657   47.2865 H   0  0  0  0  0  0  0  0  0  0  0  0
   60.8270   32.9475   47.4909 H   0  0  0  0  0  0  0  0  0  0  0  0
   57.7797   33.3804   44.4515 H   0  0  0  0  0  0  0  0  0  0  0  0
   57.6347   30.8983   44.2396 H   0  0  0  0  0  0  0  0  0  0  0  0
  1  2  1  0
  2  3  2  0
  3  4  1  0
  4  5  2  0
  5  6  1  0
  6  7  2  0
  7  8  1  0
  8  9  2  0
  8 10  1  0
 10 11  1  0
 11 12  2  0
 12 13  1  0
 13 14  2  0
 14 15  1  0
 14 16  1  0
 16 17  2  0
  7  2  1  0
 17 11  1  0
  1 18  1  0
  1 19  1  0
  3 20  1  0
  4 21  1  0
  5 22  1  0
  6 23  1  0
 10 24  1  0
 12 25  1  0
 13 26  1  0
 16 27  1  0
 17 28  1  0
M  END
>  <UniqueID>  (94) 
81

>  <SMILES>  (94) 
Nc1ccccc1C(=O)Nc1ccc(Cl)cc1

>  <Energy>  (94) 
37.49934823814852

>  <Genealogy>  (94) 
Nc1ccccc1C(=O)Nc1ccc(Cl)cc1 (3D coordinates assigned)
Nc1ccccc1C(=O)Nc1ccc(Cl)cc1 (optimized conformer: 37.49934823814852 kcal/mol)

>  <smiles>  (94) 
Nc1ccccc1C(=O)Nc1ccc(Cl)cc1

>  <score_type>  (94) 
oracle

>  <origin>  (94) 
adg

>  <m_score__min__energy>  (94) 
-6.8200000000000003

>  <m_primary>  (94) 
energy

$$$$
94:0
     RDKit          3D

 31 33  0  0  0  0  0  0  0  0999 V2000
   57.0200   30.6880   43.2130 C   0  0  0  0  0  0  0  0  0  0  0  0
   56.5920   31.1990   44.4710 O   0  0  0  0  0  0  0  0  0  0  0  0
   57.3850   31.9940   45.3120 C   0  0  0  0  0  0  0  0  0  0  0  0
   58.2410   31.4430   46.2850 C   0  0  0  0  0  0  0  0  0  0  0  0
   59.0110   32.2790   47.1010 C   0  0  0  0  0  0  0  0  0  0  0  0
   58.9300   33.6760   46.9670 C   0  0  0  0  0  0  0  0  0  0  0  0
   59.7270   34.5540   47.7800 N   0  0  0  0  0  0  0  0  0  0  0  0
   60.7580   34.1000   48.6740 C   0  0  0  0  0  0  0  0  0  0  0  0
   60.4830   34.0110   50.0260 N   0  0  0  0  0  0  0  0  0  0  0  0
   61.3660   33.6030   50.9850 C   0  0  0  0  0  0  0  0  0  0  0  0
   60.9320   33.5250   52.5610 S   0  0  0  0  0  0  0  0  0  0  0  0
   62.9300   33.1910   50.5140 S   0  0  0  0  0  0  0  0  0  0  0  0
   63.0780   33.3800   48.8740 N   0  0  0  0  0  0  0  0  0  0  0  0
   64.1320   33.1620   48.0750 C   0  0  0  0  0  0  0  0  0  0  0  0
   63.7600   33.4460   46.7720 C   0  0  0  0  0  0  0  0  0  0  0  0
   62.4300   33.8470   46.8070 C   0  0  0  0  0  0  0  0  0  0  0  0
   62.0400   33.7970   48.1360 C   0  0  0  0  0  0  0  0  0  0  0  0
   58.0900   34.2190   45.9850 C   0  0  0  0  0  0  0  0  0  0  0  0
   57.3210   33.3840   45.1690 C   0  0  0  0  0  0  0  0  0  0  0  0
   57.7187   29.8539   43.3746 H   0  0  0  0  0  0  0  0  0  0  0  0
   56.1475   30.3310   42.6462 H   0  0  0  0  0  0  0  0  0  0  0  0
   57.5246   31.4844   42.6462 H   0  0  0  0  0  0  0  0  0  0  0  0
   58.3045   30.3513   46.4040 H   0  0  0  0  0  0  0  0  0  0  0  0
   59.6841   31.8402   47.8523 H   0  0  0  0  0  0  0  0  0  0  0  0
   59.5350   35.5810   47.7330 H   0  0  0  0  0  0  0  0  0  0  0  0
   59.5280   34.2920   50.3450 H   0  0  0  0  0  0  0  0  0  0  0  0
   65.1244   32.8160   48.3996 H   0  0  0  0  0  0  0  0  0  0  0  0
   64.3967   33.3688   45.8783 H   0  0  0  0  0  0  0  0  0  0  0  0
   61.8093   34.1452   45.9493 H   0  0  0  0  0  0  0  0  0  0  0  0
   58.0355   35.3100   45.8555 H   0  0  0  0  0  0  0  0  0  0  0  0
   56.6598   33.8239   44.4079 H   0  0  0  0  0  0  0  0  0  0  0  0
  1  2  1  0
  2  3  1  0
  3  4  2  0
  4  5  1  0
  5  6  2  0
  6  7  1  0
  7  8  1  0
  8  9  2  0
  9 10  1  0
 10 11  2  0
 10 12  1  0
 12 13  1  0
 13 14  1  0
 14 15  2  0
 15 16  1  0
 16 17  2  0
  6 18  1  0
 18 19  2  0
 19  3  1  0
 17  8  1  0
 17 13  1  0
  1 20  1  0
  1 21  1  0
  1 22  1  0
  4 23  1  0
  5 24  1  0
  7 25  1  0
  9 26  1  0
 14 27  1  0
 15 28  1  0
 16 29  1  0
 18 30  1  0
 19 31  1  0
M  CHG  1   9   1
M  END
>  <UniqueID>  (95) 
82

>  <SMILES>  (95) 
COc1ccc(Nc2[nH+]c(=S)sn3cccc23)cc1

>  <Energy>  (95) 
74.45751422796921

>  <Genealogy>  (95) 
COc1ccc(Nc2[nH+]c(=S)sn3cccc23)cc1 (protonated)
COc1ccc(Nc2[nH+]c(=S)sn3cccc23)cc1 (3D coordinates assigned)
COc1ccc(Nc2[nH+]c(=S)sn3cccc23)cc1 (optimized conformer: 74.45751422796921 kcal/mol)

>  <smiles>  (95) 
COc1ccc(Nc2nc(=S)sn3cccc23)cc1

>  <score_type>  (95) 
oracle

>  <origin>  (95) 
adg

>  <m_score__min__energy>  (95) 
-5.2000000000000002

>  <m_primary>  (95) 
energy

$$$$
95:0
     RDKit          3D

 43 45  0  0  1  0  0  0  0  0999 V2000
   56.4480   20.2720   44.8350 C   0  0  0  0  0  0  0  0  0  0  0  0
   55.6170   21.3390   44.4550 O   0  0  0  0  0  0  0  0  0  0  0  0
   56.0640   22.6380   44.5350 C   0  0  0  0  0  0  0  0  0  0  0  0
   55.9780   23.4420   45.6430 C   0  0  0  0  0  0  0  0  0  0  0  0
   56.4470   24.7490   45.6690 C   0  0  0  0  0  0  0  0  0  0  0  0
   57.0180   25.2330   44.5150 C   0  0  0  0  0  0  0  0  0  0  0  0
   57.5530   26.5530   44.3840 N   0  0  0  0  0  0  0  0  0  0  0  0
   58.7000   26.9860   45.1310 C   0  0  0  0  0  0  0  0  0  0  0  0
   59.4000   25.9140   46.1060 S   0  0  0  0  0  0  0  0  0  0  0  0
   59.1120   28.3130   44.9050 N   0  0  0  0  0  0  0  0  0  0  0  0
   58.3420   29.3190   44.8020 C   0  0  0  0  0  0  0  0  0  0  0  0
   58.6670   30.5320   45.3660 C   0  0  0  0  0  0  0  0  0  0  0  0
   57.7480   31.5470   45.2020 C   0  0  0  0  0  0  0  0  0  0  0  0
   57.9210   32.8620   45.6850 N   0  0  0  0  0  0  0  0  0  0  0  0
   57.9580   34.0580   44.8940 C   0  0  0  0  0  0  0  0  0  0  0  0
   59.2650   34.7650   45.2520 C   0  0  0  0  0  0  0  0  0  0  0  0
   59.4100   34.9760   46.6030 O   0  0  0  0  0  0  0  0  0  0  0  0
   59.3500   33.8600   47.3990 C   0  0  0  0  0  0  0  0  0  0  0  0
   58.1090   33.0260   47.1390 C   0  0  0  0  0  0  0  0  0  0  0  0
   56.5890   31.3150   44.5090 N   0  0  0  0  0  0  0  0  0  0  0  0
   56.3010   30.1230   43.9710 C   0  0  0  0  0  0  0  0  0  0  0  0
   57.1790   29.1230   44.1180 N   0  0  0  0  0  0  0  0  0  0  0  0
   57.1240   24.4410   43.3600 C   0  0  0  0  0  0  0  0  0  0  0  0
   56.6500   23.1530   43.3700 C   0  0  0  0  0  0  0  0  0  0  0  0
   56.4925   20.2148   45.9326 H   0  0  0  0  0  0  0  0  0  0  0  0
   56.0425   19.3310   44.4350 H   0  0  0  0  0  0  0  0  0  0  0  0
   57.4597   20.4347   44.4350 H   0  0  0  0  0  0  0  0  0  0  0  0
   55.5160   23.0325   46.5534 H   0  0  0  0  0  0  0  0  0  0  0  0
   56.3654   25.3701   46.5732 H   0  0  0  0  0  0  0  0  0  0  0  0
   57.0490   27.1720   43.7080 H   0  0  0  0  0  0  0  0  0  0  0  0
   59.6072   30.6832   45.9167 H   0  0  0  0  0  0  0  0  0  0  0  0
   57.9407   33.8077   43.8230 H   0  0  0  0  0  0  0  0  0  0  0  0
   57.0871   34.6991   45.0952 H   0  0  0  0  0  0  0  0  0  0  0  0
   60.1049   34.1471   44.9018 H   0  0  0  0  0  0  0  0  0  0  0  0
   59.2492   35.7513   44.7651 H   0  0  0  0  0  0  0  0  0  0  0  0
   60.2381   33.2405   47.2053 H   0  0  0  0  0  0  0  0  0  0  0  0
   59.3123   34.1976   48.4452 H   0  0  0  0  0  0  0  0  0  0  0  0
   58.2271   32.0376   47.6070 H   0  0  0  0  0  0  0  0  0  0  0  0
   57.2312   33.5324   47.5669 H   0  0  0  0  0  0  0  0  0  0  0  0
   55.9010   32.0740   44.3840 H   0  0  0  0  0  0  0  0  0  0  0  0
   55.3619   29.9686   43.4194 H   0  0  0  0  0  0  0  0  0  0  0  0
   57.5856   24.8518   42.4500 H   0  0  0  0  0  0  0  0  0  0  0  0
   56.7295   22.5278   42.4684 H   0  0  0  0  0  0  0  0  0  0  0  0
  1  2  1  0
  2  3  1  0
  3  4  2  0
  4  5  1  0
  5  6  2  0
  6  7  1  0
  7  8  1  0
  8  9  2  0
  8 10  1  0
 10 11  2  0
 11 12  1  0
 12 13  2  0
 13 14  1  0
 14 15  1  0
 15 16  1  0
 16 17  1  0
 17 18  1  0
 18 19  1  0
 13 20  1  0
 20 21  1  0
 21 22  2  0
  6 23  1  0
 23 24  2  0
 24  3  1  0
 22 11  1  0
 19 14  1  0
  1 25  1  0
  1 26  1  0
  1 27  1  0
  4 28  1  0
  5 29  1  0
  7 30  1  0
 12 31  1  0
 15 32  1  0
 15 33  1  0
 16 34  1  0
 16 35  1  0
 18 36  1  0
 18 37  1  0
 19 38  1  0
 19 39  1  0
 20 40  1  0
 21 41  1  0
 23 42  1  0
 24 43  1  0
M  END
>  <smiles>  (96) 
COc1ccc(NC(=S)N=c2cc(N3CCOCC3)[nH]cn2)cc1

>  <score_type>  (96) 
oracle

>  <origin>  (96) 
adg

>  <m_score__min__energy>  (96) 
-7.3799999999999999

>  <m_primary>  (96) 
energy

$$$$
96:0
     RDKit          3D

 43 45  0  0  0  0  0  0  0  0999 V2000
   61.0705   27.6585   45.4273 H   0  0  0  0  0  0  0  0  0  0  0  0
   60.3400   28.0320   46.1600 C   0  0  0  0  0  0  0  0  0  0  0  0
   60.7490   28.9430   47.0550 C   0  0  0  0  0  0  0  0  0  0  0  0
   61.2430   28.5968   47.9748 H   0  0  0  0  0  0  0  0  0  0  0  0
   60.5610   30.3940   46.8520 C   0  0  0  0  0  0  0  0  0  0  0  0
   59.4460   30.8680   46.2260 N   0  0  0  0  0  0  0  0  0  0  0  0
   59.2570   32.1980   46.0320 C   0  0  0  0  0  0  0  0  0  0  0  0
   58.1050   32.6610   45.3860 C   0  0  0  0  0  0  0  0  0  0  0  0
   57.3474   31.9464   45.0319 H   0  0  0  0  0  0  0  0  0  0  0  0
   57.9180   34.0340   45.1910 C   0  0  0  0  0  0  0  0  0  0  0  0
   57.0128   34.3979   44.6829 H   0  0  0  0  0  0  0  0  0  0  0  0
   58.8800   34.9450   45.6410 C   0  0  0  0  0  0  0  0  0  0  0  0
   58.7281   36.0234   45.4865 H   0  0  0  0  0  0  0  0  0  0  0  0
   60.0350   34.4890   46.2870 C   0  0  0  0  0  0  0  0  0  0  0  0
   60.7909   35.2068   46.6381 H   0  0  0  0  0  0  0  0  0  0  0  0
   60.2250   33.1140   46.4850 C   0  0  0  0  0  0  0  0  0  0  0  0
   61.3610   32.6130   47.1250 C   0  0  0  0  0  0  0  0  0  0  0  0
   62.1361   33.3027   47.4905 H   0  0  0  0  0  0  0  0  0  0  0  0
   61.5080   31.2710   47.2960 N   0  0  0  0  0  0  0  0  0  0  0  0
   62.3650   30.9180   47.7790 H   0  0  0  0  0  0  0  0  0  0  0  0
   58.9550   27.5000   46.1040 C   0  0  0  0  0  0  0  0  0  0  0  0
   57.9340   28.3400   45.6470 C   0  0  0  0  0  0  0  0  0  0  0  0
   58.1748   29.3668   45.3345 H   0  0  0  0  0  0  0  0  0  0  0  0
   56.6050   27.8890   45.5820 C   0  0  0  0  0  0  0  0  0  0  0  0
   55.5650   28.7120   45.1150 O   0  0  0  0  0  0  0  0  0  0  0  0
   55.7190   29.7310   44.1330 C   0  0  0  0  0  0  0  0  0  0  0  0
   55.8656   30.7009   44.6309 H   0  0  0  0  0  0  0  0  0  0  0  0
   56.5933   29.5056   43.5046 H   0  0  0  0  0  0  0  0  0  0  0  0
   54.8172   29.7740   43.5046 H   0  0  0  0  0  0  0  0  0  0  0  0
   56.2830   26.5840   45.9890 C   0  0  0  0  0  0  0  0  0  0  0  0
   54.9300   26.2070   45.8880 O   0  0  0  0  0  0  0  0  0  0  0  0
   54.4300   24.9070   45.5920 C   0  0  0  0  0  0  0  0  0  0  0  0
   54.2239   24.3710   46.5302 H   0  0  0  0  0  0  0  0  0  0  0  0
   53.5017   24.9953   45.0086 H   0  0  0  0  0  0  0  0  0  0  0  0
   55.1782   24.3504   45.0086 H   0  0  0  0  0  0  0  0  0  0  0  0
   57.3050   25.7290   46.4750 C   0  0  0  0  0  0  0  0  0  0  0  0
   56.9870   24.4290   46.8990 O   0  0  0  0  0  0  0  0  0  0  0  0
   57.0190   23.9740   48.2480 C   0  0  0  0  0  0  0  0  0  0  0  0
   56.9583   24.8369   48.9275 H   0  0  0  0  0  0  0  0  0  0  0  0
   56.1658   23.3038   48.4293 H   0  0  0  0  0  0  0  0  0  0  0  0
   57.9576   23.4298   48.4293 H   0  0  0  0  0  0  0  0  0  0  0  0
   58.6310   26.2030   46.5320 C   0  0  0  0  0  0  0  0  0  0  0  0
   59.4245   25.5462   46.9180 H   0  0  0  0  0  0  0  0  0  0  0  0
  1  2  1  0
  2  3  2  0
  3  4  1  0
  3  5  1  0
  5  6  2  0
  6  7  1  0
  7  8  2  0
  8  9  1  0
  8 10  1  0
 10 11  1  0
 10 12  2  0
 12 13  1  0
 12 14  1  0
 14 15  1  0
 14 16  2  0
 16 17  1  0
 17 18  1  0
 17 19  2  0
 19 20  1  0
  2 21  1  0
 21 22  2  0
 22 23  1  0
 22 24  1  0
 24 25  1  0
 25 26  1  0
 26 27  1  0
 26 28  1  0
 26 29  1  0
 24 30  2  0
 30 31  1  0
 31 32  1  0
 32 33  1  0
 32 34  1  0
 32 35  1  0
 30 36  1  0
 36 37  1  0
 37 38  1  0
 38 39  1  0
 38 40  1  0
 38 41  1  0
 36 42  2  0
 42 43  1  0
 19  5  1  0
 42 21  1  0
 16  7  1  0
M  CHG  1  19   1
M  END
>  <UniqueID>  (97) 
83

>  <SMILES>  (97) 
COc1cc(/C=C/c2nc3ccccc3c[nH+]2)cc(OC)c1OC

>  <Energy>  (97) 
51.98144772463579

>  <Genealogy>  (97) 
COc1cc(C=Cc2nc3ccccc3c[nH+]2)cc(OC)c1OC (protonated)
COc1cc(/C=C/c2nc3ccccc3c[nH+]2)cc(OC)c1OC (cis-trans isomerization)
COc1cc(/C=C/c2nc3ccccc3c[nH+]2)cc(OC)c1OC (3D coordinates assigned)
COc1cc(/C=C/c2nc3ccccc3c[nH+]2)cc(OC)c1OC (optimized conformer: 51.98144772463579 kcal/mol)

>  <smiles>  (97) 
COc1cc(C=Cc2ncc3ccccc3n2)cc(OC)c1OC

>  <score_type>  (97) 
oracle

>  <origin>  (97) 
adg

>  <m_score__min__energy>  (97) 
-6.5800000000000001

>  <m_primary>  (97) 
energy

$$$$
