0:0
     RDKit          3D

 41 43  0  0  0  0  0  0  0  0999 V2000
   65.5274   33.4197   48.6269 H   0  0  0  0  0  0  0  0  0  0  0  0
   64.4780   33.0900   48.6190 C   0  0  0  0  0  0  0  0  0  0  0  0
   63.9140   32.5900   49.7510 N   0  0  0  0  0  0  0  0  0  0  0  0
   62.6210   32.1700   49.7790 C   0  0  0  0  0  0  0  0  0  0  0  0
   62.1936   31.7732   50.7117 H   0  0  0  0  0  0  0  0  0  0  0  0
   61.8300   32.2410   48.6220 C   0  0  0  0  0  0  0  0  0  0  0  0
   60.3930   31.7980   48.6580 C   0  0  0  0  0  0  0  0  0  0  0  0
   59.9788   31.9907   49.6587 H   0  0  0  0  0  0  0  0  0  0  0  0
   60.3441   30.7229   48.4306 H   0  0  0  0  0  0  0  0  0  0  0  0
   59.6120   32.5300   47.6640 N   0  0  0  0  0  0  0  0  0  0  0  0
   59.2260   32.0030   46.8480 H   0  0  0  0  0  0  0  0  0  0  0  0
   59.3740   33.9420   47.7570 C   0  0  0  0  0  0  0  0  0  0  0  0
   59.8800   34.6140   48.6970 O   0  0  0  0  0  0  0  0  0  0  0  0
   58.5620   34.6360   46.7080 C   0  0  0  0  0  0  0  0  0  0  0  0
   59.1379   35.4797   46.2999 H   0  0  0  0  0  0  0  0  0  0  0  0
   57.6289   35.0058   47.1581 H   0  0  0  0  0  0  0  0  0  0  0  0
   58.2320   33.6810   45.6050 C   0  0  0  0  0  0  0  0  0  0  0  0
   57.5850   32.5090   45.8450 N   0  0  0  0  0  0  0  0  0  0  0  0
   57.4390   31.7850   44.7120 C   0  0  0  0  0  0  0  0  0  0  0  0
   56.8530   30.6270   44.6510 N   0  0  0  0  0  0  0  0  0  0  0  0
   57.0580   29.5240   45.5490 C   0  0  0  0  0  0  0  0  0  0  0  0
   57.9600   29.5660   46.4280 O   0  0  0  0  0  0  0  0  0  0  0  0
   56.2810   28.3300   45.4170 N   0  0  0  0  0  0  0  0  0  0  0  0
   56.7120   26.9980   45.7330 C   0  0  0  0  0  0  0  0  0  0  0  0
   58.0740   26.6430   45.7280 C   0  0  0  0  0  0  0  0  0  0  0  0
   58.8368   27.4008   45.4956 H   0  0  0  0  0  0  0  0  0  0  0  0
   58.4610   25.3320   46.0170 C   0  0  0  0  0  0  0  0  0  0  0  0
   59.5279   25.0641   46.0255 H   0  0  0  0  0  0  0  0  0  0  0  0
   57.4970   24.3610   46.2950 C   0  0  0  0  0  0  0  0  0  0  0  0
   57.8061   23.3317   46.5293 H   0  0  0  0  0  0  0  0  0  0  0  0
   56.1390   24.6950   46.2760 C   0  0  0  0  0  0  0  0  0  0  0  0
   54.9390   23.4570   46.6120 Cl  0  0  0  0  0  0  0  0  0  0  0  0
   55.7460   26.0110   45.9880 C   0  0  0  0  0  0  0  0  0  0  0  0
   54.3940   26.3420   45.9610 O   0  0  0  0  0  0  0  0  0  0  0  0
   58.1090   32.5560   43.3810 S   0  0  0  0  0  0  0  0  0  0  0  0
   58.6170   33.8850   44.2800 C   0  0  0  0  0  0  0  0  0  0  0  0
   59.1576   34.7605   43.8910 H   0  0  0  0  0  0  0  0  0  0  0  0
   62.3950   32.7610   47.4500 C   0  0  0  0  0  0  0  0  0  0  0  0
   61.7910   32.8351   46.5337 H   0  0  0  0  0  0  0  0  0  0  0  0
   63.7250   33.1850   47.4460 C   0  0  0  0  0  0  0  0  0  0  0  0
   64.1759   33.5901   46.5280 H   0  0  0  0  0  0  0  0  0  0  0  0
  1  2  1  0
  2  3  2  0
  3  4  1  0
  4  5  1  0
  4  6  2  0
  6  7  1  0
  7  8  1  0
  7  9  1  0
  7 10  1  0
 10 11  1  0
 10 12  1  0
 12 13  2  0
 12 14  1  0
 14 15  1  0
 14 16  1  0
 14 17  1  0
 17 18  1  0
 18 19  1  0
 19 20  2  0
 20 21  1  0
 21 22  2  0
 21 23  1  0
 23 24  1  0
 24 25  2  0
 25 26  1  0
 25 27  1  0
 27 28  1  0
 27 29  2  0
 29 30  1  0
 29 31  1  0
 31 32  1  0
 31 33  2  0
 33 34  1  0
 19 35  1  0
 35 36  1  0
 36 37  1  0
  6 38  1  0
 38 39  1  0
 38 40  2  0
 40 41  1  0
 40  2  1  0
 36 17  2  0
 33 24  1  0
M  CHG  3  18  -1  23  -1  34  -1
M  END
>  <UniqueID>  (1) 
1

>  <SMILES>  (1) 
O=C(/N=c1\[n-]c(CC(=O)NCc2cccnc2)cs1)[N-]c1cccc(Cl)c1[O-]

>  <Energy>  (1) 
74.7013354842832

>  <Genealogy>  (1) 
O=C(N=c1[n-]c(CC(=O)NCc2cccnc2)cs1)[N-]c1cccc(Cl)c1[O-] (protonated)
O=C(/N=c1\[n-]c(CC(=O)NCc2cccnc2)cs1)[N-]c1cccc(Cl)c1[O-] (cis-trans isomerization)
O=C(/N=c1\[n-]c(CC(=O)NCc2cccnc2)cs1)[N-]c1cccc(Cl)c1[O-] (3D coordinates assigned)
O=C(/N=c1\[n-]c(CC(=O)NCc2cccnc2)cs1)[N-]c1cccc(Cl)c1[O-] (optimized conformer: 74.7013354842832 kcal/mol)

>  <smiles>  (1) 
O=C(Cc1csc(=NC(=O)Nc2cccc(Cl)c2O)[nH]1)NCc1cccnc1

>  <score_type>  (1) 
oracle

>  <origin>  (1) 
adg

>  <m_score__min__energy>  (1) 
-15.199999999999999

>  <m_primary>  (1) 
energy

$$$$
1:0
     RDKit          3D

 52 53  0  0  0  0  0  0  0  0999 V2000
   59.0907   32.3304   47.8569 H   0  0  0  0  0  0  0  0  0  0  0  0
   59.6590   33.0350   47.2320 C   0  0  0  0  0  0  0  0  0  0  0  0
   58.9670   33.8490   46.4220 C   0  0  0  0  0  0  0  0  0  0  0  0
   59.5414   34.5247   45.7712 H   0  0  0  0  0  0  0  0  0  0  0  0
   57.4580   33.9110   46.3330 C   0  0  0  0  0  0  0  0  0  0  0  0
   57.1703   34.9194   46.0007 H   0  0  0  0  0  0  0  0  0  0  0  0
   57.0657   33.6722   47.3325 H   0  0  0  0  0  0  0  0  0  0  0  0
   56.8800   32.9270   45.3940 N   0  0  0  0  0  0  0  0  0  0  0  0
   56.2460   33.4360   44.7370 H   0  0  0  0  0  0  0  0  0  0  0  0
   56.2770   32.2740   45.9460 H   0  0  0  0  0  0  0  0  0  0  0  0
   57.8670   32.1470   44.6040 C   0  0  1  0  0  0  0  0  0  0  0  0
   58.8214   32.6910   44.6613 H   0  0  0  0  0  0  0  0  0  0  0  0
   58.1080   30.7340   45.1830 C   0  0  0  0  0  0  0  0  0  0  0  0
   58.8778   30.2268   44.5828 H   0  0  0  0  0  0  0  0  0  0  0  0
   58.4362   30.8371   46.2278 H   0  0  0  0  0  0  0  0  0  0  0  0
   56.8710   29.9290   45.1590 N   0  0  0  0  0  0  0  0  0  0  0  0
   57.2090   28.2790   45.6310 S   0  0  0  0  0  0  0  0  0  0  0  0
   55.9340   27.4800   45.6330 O   0  0  0  0  0  0  0  0  0  0  0  0
   57.7720   28.2850   47.0260 O   0  0  0  0  0  0  0  0  0  0  0  0
   58.4100   27.5330   44.5050 C   0  0  1  0  0  0  0  0  0  0  0  0
   58.6371   26.5159   44.8572 H   0  0  0  0  0  0  0  0  0  0  0  0
   57.8230   27.4290   43.0910 C   0  0  0  0  0  0  0  0  0  0  0  0
   56.7418   27.2374   43.1560 H   0  0  0  0  0  0  0  0  0  0  0  0
   57.9965   28.3719   42.5517 H   0  0  0  0  0  0  0  0  0  0  0  0
   58.3099   26.6031   42.5517 H   0  0  0  0  0  0  0  0  0  0  0  0
   59.7300   28.3380   44.5030 C   0  0  0  0  0  0  0  0  0  0  0  0
   59.5013   29.3886   44.2707 H   0  0  0  0  0  0  0  0  0  0  0  0
   60.3919   27.8896   43.7475 H   0  0  0  0  0  0  0  0  0  0  0  0
   60.4570   28.2810   45.8470 C   0  0  0  0  0  0  0  0  0  0  0  0
   59.7226   28.3386   46.6639 H   0  0  0  0  0  0  0  0  0  0  0  0
   61.0155   27.3363   45.9220 H   0  0  0  0  0  0  0  0  0  0  0  0
   61.1559   29.1271   45.9220 H   0  0  0  0  0  0  0  0  0  0  0  0
   56.1390   29.9760   43.8650 C   0  0  0  0  0  0  0  0  0  0  0  0
   55.8969   28.9454   43.5661 H   0  0  0  0  0  0  0  0  0  0  0  0
   55.2408   30.5899   44.0277 H   0  0  0  0  0  0  0  0  0  0  0  0
   56.9320   30.6370   42.7260 C   0  0  0  0  0  0  0  0  0  0  0  0
   57.8060   30.0124   42.4893 H   0  0  0  0  0  0  0  0  0  0  0  0
   56.2700   30.7301   41.8525 H   0  0  0  0  0  0  0  0  0  0  0  0
   57.4140   32.0430   43.1190 C   0  0  0  0  0  0  0  0  0  0  0  0
   58.2640   32.3131   42.4752 H   0  0  0  0  0  0  0  0  0  0  0  0
   56.5620   32.7267   42.9902 H   0  0  0  0  0  0  0  0  0  0  0  0
   61.1290   33.0190   47.3430 C   0  0  0  0  0  0  0  0  0  0  0  0
   61.9270   33.8720   46.5640 C   0  0  0  0  0  0  0  0  0  0  0  0
   61.4555   34.5623   45.8490 H   0  0  0  0  0  0  0  0  0  0  0  0
   63.3200   33.8470   46.6940 C   0  0  0  0  0  0  0  0  0  0  0  0
   63.9423   34.5077   46.0726 H   0  0  0  0  0  0  0  0  0  0  0  0
   63.9210   32.9820   47.6140 C   0  0  0  0  0  0  0  0  0  0  0  0
   65.0165   32.9565   47.7103 H   0  0  0  0  0  0  0  0  0  0  0  0
   63.1300   32.1500   48.4110 C   0  0  0  0  0  0  0  0  0  0  0  0
   63.6032   31.4755   49.1398 H   0  0  0  0  0  0  0  0  0  0  0  0
   61.7370   32.1740   48.2830 C   0  0  0  0  0  0  0  0  0  0  0  0
   61.1166   31.5281   48.9216 H   0  0  0  0  0  0  0  0  0  0  0  0
  1  2  1  0
  2  3  2  0
  3  4  1  0
  3  5  1  0
  5  6  1  0
  5  7  1  0
  5  8  1  0
  8  9  1  0
  8 10  1  0
  8 11  1  0
 11 12  1  6
 11 13  1  0
 13 14  1  0
 13 15  1  0
 13 16  1  0
 16 17  1  0
 17 18  2  0
 17 19  2  0
 17 20  1  0
 20 21  1  1
 20 22  1  0
 22 23  1  0
 22 24  1  0
 22 25  1  0
 20 26  1  0
 26 27  1  0
 26 28  1  0
 26 29  1  0
 29 30  1  0
 29 31  1  0
 29 32  1  0
 16 33  1  0
 33 34  1  0
 33 35  1  0
 33 36  1  0
 36 37  1  0
 36 38  1  0
 36 39  1  0
 39 40  1  0
 39 41  1  0
  2 42  1  0
 42 43  2  0
 43 44  1  0
 43 45  1  0
 45 46  1  0
 45 47  2  0
 47 48  1  0
 47 49  1  0
 49 50  1  0
 49 51  2  0
 51 52  1  0
 39 11  1  0
 51 42  1  0
M  CHG  1   8   1
M  END
>  <UniqueID>  (2) 
2

>  <SMILES>  (2) 
CC[C@H](C)S(=O)(=O)N1CCC[C@@H]([NH2+]C/C=C\c2ccccc2)C1

>  <Energy>  (2) 
57.933642415202144

>  <Genealogy>  (2) 
CCC(C)S(=O)(=O)N1CCCC([NH2+]CC=Cc2ccccc2)C1 (protonated)
CC[C@H](C)S(=O)(=O)N1CCC[C@@H]([NH2+]CC=Cc2ccccc2)C1 (chirality)
CC[C@H](C)S(=O)(=O)N1CCC[C@@H]([NH2+]C/C=C\c2ccccc2)C1 (cis-trans isomerization)
CC[C@H](C)S(=O)(=O)N1CCC[C@@H]([NH2+]C/C=C\c2ccccc2)C1 (3D coordinates assigned)
CC[C@H](C)S(=O)(=O)N1CCC[C@@H]([NH2+]C/C=C\c2ccccc2)C1 (nonaromatic ring conformer: 57.933642415202144 kcal/mol)

>  <smiles>  (2) 
CCC(C)S(=O)(=O)N1CCCC(NCC=Cc2ccccc2)C1

>  <score_type>  (2) 
oracle

>  <origin>  (2) 
adg

>  <m_score__min__energy>  (2) 
-7.3899999999999997

>  <m_primary>  (2) 
energy

$$$$
2:0
     RDKit          3D

 49 51  0  0  0  0  0  0  0  0999 V2000
   56.7290   29.7280   43.3800 C   0  0  0  0  0  0  0  0  0  0  0  0
   57.3290   28.7520   44.0640 C   0  0  0  0  0  0  0  0  0  0  0  0
   56.9690   28.4500   45.4920 C   0  0  0  0  0  0  0  0  0  0  0  0
   57.1720   27.0200   45.7980 N   0  0  0  0  0  0  0  0  0  0  0  0
   56.0880   26.2080   46.0270 C   0  0  0  0  0  0  0  0  0  0  0  0
   54.7920   26.7140   45.9920 O   0  0  0  0  0  0  0  0  0  0  0  0
   56.2660   24.8520   46.2970 C   0  0  0  0  0  0  0  0  0  0  0  0
   57.5570   24.3390   46.3220 C   0  0  0  0  0  0  0  0  0  0  0  0
   57.7510   23.1180   46.5600 O   0  0  0  0  0  0  0  0  0  0  0  0
   58.6100   25.1560   46.0860 N   0  0  0  0  0  0  0  0  0  0  0  0
   58.4390   26.4800   45.8300 C   0  0  0  0  0  0  0  0  0  0  0  0
   59.9130   27.4650   45.5120 S   0  0  0  0  0  0  0  0  0  0  0  0
   60.9150   26.6140   46.7750 C   0  0  0  0  0  0  0  0  0  0  0  0
   60.5230   27.1040   48.1390 C   0  0  0  0  0  0  0  0  0  0  0  0
   59.8830   26.3390   48.9070 O   0  0  0  0  0  0  0  0  0  0  0  0
   60.9450   28.3820   48.6280 N   0  0  0  0  0  0  0  0  0  0  0  0
   60.1820   29.5850   48.4940 C   0  0  0  0  0  0  0  0  0  0  0  0
   59.4190   30.1950   49.4700 C   0  0  0  0  0  0  0  0  0  0  0  0
   59.2910   29.7470   50.8940 C   0  0  0  0  0  0  0  0  0  0  0  0
   58.9110   31.3450   48.9580 N   0  0  0  0  0  0  0  0  0  0  0  0
   58.1290   32.3400   49.6950 C   0  0  0  0  0  0  0  0  0  0  0  0
   59.2780   31.4450   47.6790 N   0  0  0  0  0  0  0  0  0  0  0  0
   58.9310   32.5140   46.7810 C   0  0  0  0  0  0  0  0  0  0  0  0
   57.8330   32.3870   45.9140 C   0  0  0  0  0  0  0  0  0  0  0  0
   57.5010   33.4270   45.0410 C   0  0  0  0  0  0  0  0  0  0  0  0
   58.2670   34.5970   45.0220 C   0  0  0  0  0  0  0  0  0  0  0  0
   59.3670   34.7260   45.8740 C   0  0  0  0  0  0  0  0  0  0  0  0
   59.7020   33.6880   46.7470 C   0  0  0  0  0  0  0  0  0  0  0  0
   60.0540   30.3830   47.3800 C   0  0  0  0  0  0  0  0  0  0  0  0
   60.5520   30.1550   46.2440 O   0  0  0  0  0  0  0  0  0  0  0  0
   57.0150   29.9242   42.3361 H   0  0  0  0  0  0  0  0  0  0  0  0
   55.9484   30.3364   43.8600 H   0  0  0  0  0  0  0  0  0  0  0  0
   58.1077   28.1525   43.5699 H   0  0  0  0  0  0  0  0  0  0  0  0
   57.6028   29.0539   46.1581 H   0  0  0  0  0  0  0  0  0  0  0  0
   55.9073   28.6937   45.6447 H   0  0  0  0  0  0  0  0  0  0  0  0
   55.4004   24.2002   46.4867 H   0  0  0  0  0  0  0  0  0  0  0  0
   60.7415   25.5296   46.7111 H   0  0  0  0  0  0  0  0  0  0  0  0
   61.9804   26.8259   46.6016 H   0  0  0  0  0  0  0  0  0  0  0  0
   59.5305   30.5851   51.5650 H   0  0  0  0  0  0  0  0  0  0  0  0
   58.2607   29.4102   51.0812 H   0  0  0  0  0  0  0  0  0  0  0  0
   59.9879   28.9168   51.0812 H   0  0  0  0  0  0  0  0  0  0  0  0
   58.2557   32.1788   50.7757 H   0  0  0  0  0  0  0  0  0  0  0  0
   58.4781   33.3493   49.4314 H   0  0  0  0  0  0  0  0  0  0  0  0
   57.0658   32.2393   49.4314 H   0  0  0  0  0  0  0  0  0  0  0  0
   57.2322   31.4656   45.9221 H   0  0  0  0  0  0  0  0  0  0  0  0
   56.6366   33.3251   44.3684 H   0  0  0  0  0  0  0  0  0  0  0  0
   58.0035   35.4158   44.3363 H   0  0  0  0  0  0  0  0  0  0  0  0
   59.9699   35.6459   45.8573 H   0  0  0  0  0  0  0  0  0  0  0  0
   60.5732   33.7903   47.4107 H   0  0  0  0  0  0  0  0  0  0  0  0
  1  2  2  0
  2  3  1  0
  3  4  1  0
  4  5  1  0
  5  6  1  0
  5  7  2  0
  7  8  1  0
  8  9  2  0
  8 10  1  0
 10 11  2  0
 11 12  1  0
 12 13  1  0
 13 14  1  0
 14 15  2  0
 14 16  1  0
 16 17  1  0
 17 18  2  0
 18 19  1  0
 18 20  1  0
 20 21  1  0
 20 22  1  0
 22 23  1  0
 23 24  2  0
 24 25  1  0
 25 26  2  0
 26 27  1  0
 27 28  2  0
 22 29  1  0
 29 30  2  0
 11  4  1  0
 29 17  1  0
 28 23  1  0
  1 31  1  0
  1 32  1  0
  2 33  1  0
  3 34  1  0
  3 35  1  0
  7 36  1  0
 13 37  1  0
 13 38  1  0
 19 39  1  0
 19 40  1  0
 19 41  1  0
 21 42  1  0
 21 43  1  0
 21 44  1  0
 24 45  1  0
 25 46  1  0
 26 47  1  0
 27 48  1  0
 28 49  1  0
M  CHG  2   6  -1  16  -1
M  END
>  <UniqueID>  (3) 
3

>  <SMILES>  (3) 
C=CCn1c([O-])cc(=O)nc1SCC(=O)[N-]c1c(C)n(C)n(-c2ccccc2)c1=O

>  <Energy>  (3) 
89.7785275550788

>  <Genealogy>  (3) 
C=CCn1c([O-])cc(=O)nc1SCC(=O)[N-]c1c(C)n(C)n(-c2ccccc2)c1=O (protonated)
C=CCn1c([O-])cc(=O)nc1SCC(=O)[N-]c1c(C)n(C)n(-c2ccccc2)c1=O (3D coordinates assigned)
C=CCn1c([O-])cc(=O)nc1SCC(=O)[N-]c1c(C)n(C)n(-c2ccccc2)c1=O (optimized conformer: 89.7785275550788 kcal/mol)

>  <smiles>  (3) 
C=CCn1c(O)cc(=O)nc1SCC(=O)Nc1c(C)n(C)n(-c2ccccc2)c1=O

>  <score_type>  (3) 
oracle

>  <origin>  (3) 
adg

>  <m_score__min__energy>  (3) 
-12.609999999999999

>  <m_primary>  (3) 
energy

$$$$
3:0
     RDKit          3D

 18 19  0  0  0  0  0  0  0  0999 V2000
   59.1070   30.5780   46.5520 O   0  0  0  0  0  0  0  0  0  0  0  0
   58.2360   29.7800   46.1200 C   0  0  0  0  0  0  0  0  0  0  0  0
   57.0420   30.1920   45.6460 N   0  0  0  0  0  0  0  0  0  0  0  0
   56.4450   29.0390   45.3050 C   0  0  0  0  0  0  0  0  0  0  0  0
   55.1480   28.9660   44.8130 O   0  0  0  0  0  0  0  0  0  0  0  0
   57.2800   27.9730   45.5640 C   0  0  0  0  0  0  0  0  0  0  0  0
   56.9970   26.5330   45.3730 C   0  0  0  0  0  0  0  0  0  0  0  0
   57.9540   25.7300   44.7280 C   0  0  0  0  0  0  0  0  0  0  0  0
   57.7220   24.3650   44.5390 C   0  0  0  0  0  0  0  0  0  0  0  0
   56.5280   23.7900   44.9810 C   0  0  0  0  0  0  0  0  0  0  0  0
   55.5600   24.5810   45.6020 C   0  0  0  0  0  0  0  0  0  0  0  0
   55.7810   25.9500   45.7910 C   0  0  0  0  0  0  0  0  0  0  0  0
   54.7750   26.7210   46.3610 O   0  0  0  0  0  0  0  0  0  0  0  0
   58.4220   28.4420   46.0990 N   0  0  0  0  0  0  0  0  0  0  0  0
   58.8919   26.1794   44.3696 H   0  0  0  0  0  0  0  0  0  0  0  0
   58.4804   23.7426   44.0416 H   0  0  0  0  0  0  0  0  0  0  0  0
   56.3506   22.7136   44.8396 H   0  0  0  0  0  0  0  0  0  0  0  0
   54.6188   24.1261   45.9445 H   0  0  0  0  0  0  0  0  0  0  0  0
  1  2  2  0
  2  3  1  0
  3  4  1  0
  4  5  1  0
  4  6  2  0
  6  7  1  0
  7  8  2  0
  8  9  1  0
  9 10  2  0
 10 11  1  0
 11 12  2  0
 12 13  1  0
  6 14  1  0
 14  2  1  0
 12  7  1  0
  8 15  1  0
  9 16  1  0
 10 17  1  0
 11 18  1  0
M  CHG  4   3  -1   5  -1  13  -1  14  -1
M  END
>  <UniqueID>  (4) 
4

>  <SMILES>  (4) 
O=c1[n-]c([O-])c(-c2ccccc2[O-])[n-]1

>  <Energy>  (4) 
53.934656462581344

>  <Genealogy>  (4) 
O=c1[n-]c([O-])c(-c2ccccc2[O-])[n-]1 (protonated)
O=c1[n-]c([O-])c(-c2ccccc2[O-])[n-]1 (3D coordinates assigned)
O=c1[n-]c([O-])c(-c2ccccc2[O-])[n-]1 (optimized conformer: 53.934656462581344 kcal/mol)

>  <smiles>  (4) 
O=c1[nH]c(O)c(-c2ccccc2O)[nH]1

>  <score_type>  (4) 
oracle

>  <origin>  (4) 
adg

>  <m_score__min__energy>  (4) 
-15.93

>  <m_primary>  (4) 
energy

$$$$
4:0
     RDKit          3D

 26 26  0  0  0  0  0  0  0  0999 V2000
   57.4070   29.1130   50.7610 H   0  0  0  0  0  0  0  0  0  0  0  0
   58.1250   29.7440   50.4270 O   0  0  0  0  0  0  0  0  0  0  0  0
   58.1340   31.0940   50.7800 C   0  0  0  0  0  0  0  0  0  0  0  0
   57.3030   31.5650   51.7220 C   0  0  0  0  0  0  0  0  0  0  0  0
   57.1218   32.6496   51.7516 H   0  0  0  0  0  0  0  0  0  0  0  0
   56.6160   30.7240   52.7210 C   0  0  0  0  0  0  0  0  0  0  0  0
   56.5250   31.0850   53.9260 O   0  0  0  0  0  0  0  0  0  0  0  0
   56.0610   29.5100   52.3020 O   0  0  0  0  0  0  0  0  0  0  0  0
   54.8140   29.0110   52.7840 C   0  0  0  0  0  0  0  0  0  0  0  0
   54.6013   28.0441   52.3046 H   0  0  0  0  0  0  0  0  0  0  0  0
   54.8780   28.8871   53.8751 H   0  0  0  0  0  0  0  0  0  0  0  0
   53.7040   29.9750   52.4680 C   0  0  0  0  0  0  0  0  0  0  0  0
   52.9070   30.4900   53.5030 C   0  0  0  0  0  0  0  0  0  0  0  0
   53.0876   30.1752   54.5414 H   0  0  0  0  0  0  0  0  0  0  0  0
   51.8850   31.4010   53.2200 C   0  0  0  0  0  0  0  0  0  0  0  0
   51.2611   31.7973   54.0347 H   0  0  0  0  0  0  0  0  0  0  0  0
   51.6550   31.8090   51.9020 C   0  0  0  0  0  0  0  0  0  0  0  0
   50.6400   32.7150   51.6220 O   0  0  0  0  0  0  0  0  0  0  0  0
   52.4480   31.3040   50.8660 C   0  0  0  0  0  0  0  0  0  0  0  0
   52.2666   31.6239   49.8293 H   0  0  0  0  0  0  0  0  0  0  0  0
   53.4710   30.3930   51.1470 C   0  0  0  0  0  0  0  0  0  0  0  0
   54.0959   30.0020   50.3305 H   0  0  0  0  0  0  0  0  0  0  0  0
   59.0840   32.0330   50.0950 C   0  0  0  0  0  0  0  0  0  0  0  0
   59.6526   32.5950   50.8505 H   0  0  0  0  0  0  0  0  0  0  0  0
   59.7791   31.4572   49.4663 H   0  0  0  0  0  0  0  0  0  0  0  0
   58.5164   32.7348   49.4663 H   0  0  0  0  0  0  0  0  0  0  0  0
  1  2  1  0
  2  3  1  0
  3  4  2  0
  4  5  1  0
  4  6  1  0
  6  7  2  0
  6  8  1  0
  8  9  1  0
  9 10  1  0
  9 11  1  0
  9 12  1  0
 12 13  2  0
 13 14  1  0
 13 15  1  0
 15 16  1  0
 15 17  2  0
 17 18  1  0
 17 19  1  0
 19 20  1  0
 19 21  2  0
 21 22  1  0
  3 23  1  0
 23 24  1  0
 23 25  1  0
 23 26  1  0
 21 12  1  0
M  CHG  1  18  -1
M  END
>  <UniqueID>  (5) 
5

>  <SMILES>  (5) 
C/C(O)=C/C(=O)OCc1ccc([O-])cc1

>  <Energy>  (5) 
20.533290305568674

>  <Genealogy>  (5) 
CC(O)=CC(=O)OCc1ccc([O-])cc1 (protonated)
C/C(O)=C/C(=O)OCc1ccc([O-])cc1 (cis-trans isomerization)
C/C(O)=C/C(=O)OCc1ccc([O-])cc1 (3D coordinates assigned)
C/C(O)=C/C(=O)OCc1ccc([O-])cc1 (optimized conformer: 20.533290305568674 kcal/mol)

>  <smiles>  (5) 
CC(O)=CC(=O)OCc1ccc(O)cc1

>  <score_type>  (5) 
oracle

>  <origin>  (5) 
adg

>  <m_score__min__energy>  (5) 
-8.8000000000000007

>  <m_primary>  (5) 
energy

$$$$
5:0
     RDKit          3D

 38 39  0  0  0  0  0  0  0  0999 V2000
   58.7410   34.4490   45.2870 C   0  0  0  0  0  0  0  0  0  0  0  0
   57.2340   34.2300   45.2430 C   0  0  0  0  0  0  0  0  0  0  0  0
   56.9270   32.8380   45.2350 O   0  0  0  0  0  0  0  0  0  0  0  0
   57.6440   31.8930   44.4910 C   0  0  0  0  0  0  0  0  0  0  0  0
   58.1610   32.2160   43.3860 O   0  0  0  0  0  0  0  0  0  0  0  0
   57.7700   30.5020   44.9990 C   0  0  0  0  0  0  0  0  0  0  0  0
   58.5830   30.1830   46.0430 C   0  0  0  0  0  0  0  0  0  0  0  0
   59.2880   31.2210   46.8360 C   0  0  0  0  0  0  0  0  0  0  0  0
   58.5740   32.0460   47.7160 C   0  0  0  0  0  0  0  0  0  0  0  0
   59.2380   33.0110   48.4730 C   0  0  0  0  0  0  0  0  0  0  0  0
   60.6300   33.1670   48.3730 C   0  0  0  0  0  0  0  0  0  0  0  0
   61.3160   34.2160   49.2080 C   0  0  0  0  0  0  0  0  0  0  0  0
   61.3630   32.3200   47.5080 C   0  0  0  0  0  0  0  0  0  0  0  0
   62.8570   32.4470   47.3730 C   0  0  0  0  0  0  0  0  0  0  0  0
   60.6820   31.3550   46.7450 C   0  0  0  0  0  0  0  0  0  0  0  0
   58.8570   28.7390   46.4250 C   0  0  0  0  0  0  0  0  0  0  0  0
   57.7690   27.7990   46.0040 C   0  0  0  0  0  0  0  0  0  0  0  0
   57.6470   26.6820   46.5750 O   0  0  0  0  0  0  0  0  0  0  0  0
   56.9250   28.1300   44.9050 N   0  0  0  0  0  0  0  0  0  0  0  0
   56.9680   29.4400   44.3430 C   0  0  0  0  0  0  0  0  0  0  0  0
   56.3100   29.6850   43.2980 O   0  0  0  0  0  0  0  0  0  0  0  0
   59.0741   34.4974   46.3342 H   0  0  0  0  0  0  0  0  0  0  0  0
   59.2477   33.6151   44.7793 H   0  0  0  0  0  0  0  0  0  0  0  0
   58.9894   35.3927   44.7793 H   0  0  0  0  0  0  0  0  0  0  0  0
   56.7755   34.6958   46.1278 H   0  0  0  0  0  0  0  0  0  0  0  0
   56.8373   34.6849   44.3234 H   0  0  0  0  0  0  0  0  0  0  0  0
   57.4840   31.9317   47.8100 H   0  0  0  0  0  0  0  0  0  0  0  0
   58.6655   33.6565   49.1553 H   0  0  0  0  0  0  0  0  0  0  0  0
   61.1683   33.9902   50.2744 H   0  0  0  0  0  0  0  0  0  0  0  0
   62.3920   34.2204   48.9797 H   0  0  0  0  0  0  0  0  0  0  0  0
   60.8887   35.2036   48.9797 H   0  0  0  0  0  0  0  0  0  0  0  0
   63.3135   32.4858   48.3730 H   0  0  0  0  0  0  0  0  0  0  0  0
   63.2506   31.5791   46.8237 H   0  0  0  0  0  0  0  0  0  0  0  0
   63.0985   33.3689   46.8237 H   0  0  0  0  0  0  0  0  0  0  0  0
   61.2484   30.6976   46.0690 H   0  0  0  0  0  0  0  0  0  0  0  0
   59.7959   28.4233   45.9467 H   0  0  0  0  0  0  0  0  0  0  0  0
   58.9172   28.6977   47.5226 H   0  0  0  0  0  0  0  0  0  0  0  0
   56.2670   27.4160   44.5170 H   0  0  0  0  0  0  0  0  0  0  0  0
  1  2  1  0
  2  3  1  0
  3  4  1  0
  4  5  2  0
  4  6  1  0
  6  7  2  0
  7  8  1  0
  8  9  2  0
  9 10  1  0
 10 11  2  0
 11 12  1  0
 11 13  1  0
 13 14  1  0
 13 15  2  0
  7 16  1  0
 16 17  1  0
 17 18  2  0
 17 19  1  0
 19 20  1  0
 20 21  2  0
 20  6  1  0
 15  8  1  0
  1 22  1  0
  1 23  1  0
  1 24  1  0
  2 25  1  0
  2 26  1  0
  9 27  1  0
 10 28  1  0
 12 29  1  0
 12 30  1  0
 12 31  1  0
 14 32  1  0
 14 33  1  0
 14 34  1  0
 15 35  1  0
 16 36  1  0
 16 37  1  0
 19 38  1  0
M  END
>  <UniqueID>  (6) 
6

>  <SMILES>  (6) 
CCOC(=O)C1=C(c2ccc(C)c(C)c2)CC(=O)NC1=O

>  <Energy>  (6) 
45.00196114331709

>  <Genealogy>  (6) 
CCOC(=O)C1=C(c2ccc(C)c(C)c2)CC(=O)NC1=O (3D coordinates assigned)
CCOC(=O)C1=C(c2ccc(C)c(C)c2)CC(=O)NC1=O (nonaromatic ring conformer: 45.00196114331709 kcal/mol)

>  <smiles>  (6) 
CCOC(=O)C1=C(c2ccc(C)c(C)c2)CC(=O)NC1=O

>  <score_type>  (6) 
oracle

>  <origin>  (6) 
adg

>  <m_score__min__energy>  (6) 
-7.2199999999999998

>  <m_primary>  (6) 
energy

$$$$
6:0
     RDKit          3D

 52 54  0  0  0  0  0  0  0  0999 V2000
   56.4130   22.4040   48.5310 C   0  0  0  0  0  0  0  0  0  0  0  0
   57.3900   21.8360   47.6640 O   0  0  0  0  0  0  0  0  0  0  0  0
   57.2560   21.7440   46.2700 C   0  0  0  0  0  0  0  0  0  0  0  0
   56.7430   20.5900   45.6460 C   0  0  0  0  0  0  0  0  0  0  0  0
   56.6360   20.5280   44.2560 C   0  0  0  0  0  0  0  0  0  0  0  0
   57.0410   21.6110   43.4750 C   0  0  0  0  0  0  0  0  0  0  0  0
   57.5460   22.7630   44.0820 C   0  0  0  0  0  0  0  0  0  0  0  0
   57.6590   22.8370   45.4820 C   0  0  0  0  0  0  0  0  0  0  0  0
   58.1800   24.0060   46.1350 N   0  0  0  0  0  0  0  0  0  0  0  0
   57.2360   25.3810   46.6100 S   0  0  0  0  0  0  0  0  0  0  0  0
   55.8170   24.9520   46.8620 O   0  0  0  0  0  0  0  0  0  0  0  0
   57.8040   25.9620   47.8750 O   0  0  0  0  0  0  0  0  0  0  0  0
   57.3110   26.5980   45.3400 C   0  0  0  0  0  0  0  0  0  0  0  0
   57.9940   26.3450   44.1430 C   0  0  0  0  0  0  0  0  0  0  0  0
   58.1430   27.3600   43.1950 C   0  0  0  0  0  0  0  0  0  0  0  0
   57.6190   28.6320   43.4410 C   0  0  0  0  0  0  0  0  0  0  0  0
   56.9220   28.8890   44.6320 C   0  0  0  0  0  0  0  0  0  0  0  0
   56.4160   30.1920   44.9340 N   0  0  0  0  0  0  0  0  0  0  0  0
   57.3900   31.6190   44.8240 S   0  0  0  0  0  0  0  0  0  0  0  0
   57.8590   31.8240   43.4110 O   0  0  0  0  0  0  0  0  0  0  0  0
   56.5730   32.8110   45.2410 O   0  0  0  0  0  0  0  0  0  0  0  0
   58.7520   31.4420   45.9280 C   0  0  0  0  0  0  0  0  0  0  0  0
   59.5170   32.5530   46.3000 C   0  0  0  0  0  0  0  0  0  0  0  0
   60.6440   32.3920   47.1080 C   0  0  0  0  0  0  0  0  0  0  0  0
   61.0240   31.1100   47.5560 C   0  0  0  0  0  0  0  0  0  0  0  0
   62.1540   30.9050   48.3640 O   0  0  0  0  0  0  0  0  0  0  0  0
   62.1350   30.8830   49.7880 C   0  0  0  0  0  0  0  0  0  0  0  0
   60.2580   29.9920   47.1850 C   0  0  0  0  0  0  0  0  0  0  0  0
   60.6580   28.7270   47.6450 O   0  0  0  0  0  0  0  0  0  0  0  0
   60.3720   27.4990   46.9810 C   0  0  0  0  0  0  0  0  0  0  0  0
   59.1240   30.1660   46.3670 C   0  0  0  0  0  0  0  0  0  0  0  0
   56.7540   27.8630   45.5680 C   0  0  0  0  0  0  0  0  0  0  0  0
   56.7072   22.2329   49.5770 H   0  0  0  0  0  0  0  0  0  0  0  0
   56.3400   23.4853   48.3428 H   0  0  0  0  0  0  0  0  0  0  0  0
   55.4372   21.9324   48.3428 H   0  0  0  0  0  0  0  0  0  0  0  0
   56.4250   19.7329   46.2578 H   0  0  0  0  0  0  0  0  0  0  0  0
   56.2321   19.6246   43.7757 H   0  0  0  0  0  0  0  0  0  0  0  0
   56.9624   21.5574   42.3791 H   0  0  0  0  0  0  0  0  0  0  0  0
   57.8569   23.6168   43.4620 H   0  0  0  0  0  0  0  0  0  0  0  0
   58.4131   25.3465   43.9497 H   0  0  0  0  0  0  0  0  0  0  0  0
   58.6738   27.1577   42.2530 H   0  0  0  0  0  0  0  0  0  0  0  0
   57.7531   29.4335   42.6997 H   0  0  0  0  0  0  0  0  0  0  0  0
   59.2293   33.5569   45.9545 H   0  0  0  0  0  0  0  0  0  0  0  0
   61.2393   33.2707   47.3970 H   0  0  0  0  0  0  0  0  0  0  0  0
   62.8078   31.6621   50.1758 H   0  0  0  0  0  0  0  0  0  0  0  0
   61.1115   31.0720   50.1440 H   0  0  0  0  0  0  0  0  0  0  0  0
   62.4710   29.8979   50.1440 H   0  0  0  0  0  0  0  0  0  0  0  0
   60.1888   26.7124   47.7278 H   0  0  0  0  0  0  0  0  0  0  0  0
   59.4785   27.6221   46.3513 H   0  0  0  0  0  0  0  0  0  0  0  0
   61.2280   27.2146   46.3513 H   0  0  0  0  0  0  0  0  0  0  0  0
   58.5259   29.2916   46.0709 H   0  0  0  0  0  0  0  0  0  0  0  0
   56.1813   28.0506   46.4882 H   0  0  0  0  0  0  0  0  0  0  0  0
  1  2  1  0
  2  3  1  0
  3  4  2  0
  4  5  1  0
  5  6  2  0
  6  7  1  0
  7  8  2  0
  8  9  1  0
  9 10  1  0
 10 11  2  0
 10 12  2  0
 10 13  1  0
 13 14  2  0
 14 15  1  0
 15 16  2  0
 16 17  1  0
 17 18  1  0
 18 19  1  0
 19 20  2  0
 19 21  2  0
 19 22  1  0
 22 23  2  0
 23 24  1  0
 24 25  2  0
 25 26  1  0
 26 27  1  0
 25 28  1  0
 28 29  1  0
 29 30  1  0
 28 31  2  0
 17 32  2  0
  8  3  1  0
 32 13  1  0
 31 22  1  0
  1 33  1  0
  1 34  1  0
  1 35  1  0
  4 36  1  0
  5 37  1  0
  6 38  1  0
  7 39  1  0
 14 40  1  0
 15 41  1  0
 16 42  1  0
 23 43  1  0
 24 44  1  0
 27 45  1  0
 27 46  1  0
 27 47  1  0
 30 48  1  0
 30 49  1  0
 30 50  1  0
 31 51  1  0
 32 52  1  0
M  CHG  2   9  -1  18  -1
M  END
>  <UniqueID>  (7) 
7

>  <SMILES>  (7) 
COc1ccccc1[N-]S(=O)(=O)c1cccc([N-]S(=O)(=O)c2ccc(OC)c(OC)c2)c1

>  <Energy>  (7) 
56.6214027265944

>  <Genealogy>  (7) 
COc1ccccc1[N-]S(=O)(=O)c1cccc([N-]S(=O)(=O)c2ccc(OC)c(OC)c2)c1 (protonated)
COc1ccccc1[N-]S(=O)(=O)c1cccc([N-]S(=O)(=O)c2ccc(OC)c(OC)c2)c1 (3D coordinates assigned)
COc1ccccc1[N-]S(=O)(=O)c1cccc([N-]S(=O)(=O)c2ccc(OC)c(OC)c2)c1 (optimized conformer: 56.6214027265944 kcal/mol)

>  <smiles>  (7) 
COc1ccccc1NS(=O)(=O)c1cccc(NS(=O)(=O)c2ccc(OC)c(OC)c2)c1

>  <score_type>  (7) 
oracle

>  <origin>  (7) 
adg

>  <m_score__min__energy>  (7) 
-12.02

>  <m_primary>  (7) 
energy

$$$$
7:0
     RDKit          3D

 22 23  0  0  0  0  0  0  0  0999 V2000
   57.9300   32.2930   42.6690 H   0  0  0  0  0  0  0  0  0  0  0  0
   58.4490   33.0640   43.0700 O   0  0  0  0  0  0  0  0  0  0  0  0
   58.4120   33.3450   44.4360 C   0  0  0  0  0  0  0  0  0  0  0  0
   59.2830   34.3100   44.9580 C   0  0  0  0  0  0  0  0  0  0  0  0
   60.0199   34.7952   44.3010 H   0  0  0  0  0  0  0  0  0  0  0  0
   59.2200   34.6580   46.3060 C   0  0  0  0  0  0  0  0  0  0  0  0
   59.9068   35.4118   46.7184 H   0  0  0  0  0  0  0  0  0  0  0  0
   58.2780   34.0410   47.1250 C   0  0  0  0  0  0  0  0  0  0  0  0
   58.2058   34.3195   48.1867 H   0  0  0  0  0  0  0  0  0  0  0  0
   57.4480   33.0950   46.6130 N   0  0  0  0  0  0  0  0  0  0  0  0
   57.4900   32.7070   45.3090 C   0  0  0  0  0  0  0  0  0  0  0  0
   56.6540   31.7810   44.9260 N   0  0  0  0  0  0  0  0  0  0  0  0
   56.9230   30.6110   44.1430 C   0  0  0  0  0  0  0  0  0  0  0  0
   57.1990   30.7410   42.9210 O   0  0  0  0  0  0  0  0  0  0  0  0
   56.7770   29.2640   44.7230 C   0  0  0  0  0  0  0  0  0  0  0  0
   55.6020   28.7700   45.1670 N   0  0  0  0  0  0  0  0  0  0  0  0
   55.8950   27.5350   45.6110 C   0  0  0  0  0  0  0  0  0  0  0  0
   54.9500   26.6780   46.1590 O   0  0  0  0  0  0  0  0  0  0  0  0
   57.2290   27.2310   45.4570 C   0  0  0  0  0  0  0  0  0  0  0  0
   57.7339   26.2941   45.7351 H   0  0  0  0  0  0  0  0  0  0  0  0
   57.7990   28.3450   44.8820 C   0  0  0  0  0  0  0  0  0  0  0  0
   58.8552   28.4776   44.6047 H   0  0  0  0  0  0  0  0  0  0  0  0
  1  2  1  0
  2  3  1  0
  3  4  2  0
  4  5  1  0
  4  6  1  0
  6  7  1  0
  6  8  2  0
  8  9  1  0
  8 10  1  0
 10 11  1  0
 11 12  2  0
 12 13  1  0
 13 14  2  0
 13 15  1  0
 15 16  1  0
 16 17  1  0
 17 18  1  0
 17 19  2  0
 19 20  1  0
 19 21  1  0
 21 22  1  0
 11  3  1  0
 21 15  2  0
M  CHG  3  10  -1  16  -1  18  -1
M  END
>  <UniqueID>  (8) 
8

>  <SMILES>  (8) 
O=C(/N=c1/[n-]cccc1O)c1ccc([O-])[n-]1

>  <Energy>  (8) 
60.19659588422715

>  <Genealogy>  (8) 
O=C(N=c1[n-]cccc1O)c1ccc([O-])[n-]1 (protonated)
O=C(/N=c1/[n-]cccc1O)c1ccc([O-])[n-]1 (cis-trans isomerization)
O=C(/N=c1/[n-]cccc1O)c1ccc([O-])[n-]1 (3D coordinates assigned)
O=C(/N=c1/[n-]cccc1O)c1ccc([O-])[n-]1 (optimized conformer: 60.19659588422715 kcal/mol)

>  <smiles>  (8) 
O=C(N=c1[nH]cccc1O)c1ccc(O)[nH]1

>  <score_type>  (8) 
oracle

>  <origin>  (8) 
adg

>  <m_score__min__energy>  (8) 
-12.35

>  <m_primary>  (8) 
energy

$$$$
8:0
     RDKit          3D

 68 72  0  0  0  0  0  0  0  0999 V2000
   57.5797   35.4946   47.0674 H   0  0  0  0  0  0  0  0  0  0  0  0
   58.1140   34.5980   46.7200 C   0  0  0  0  0  0  0  0  0  0  0  0
   57.4170   33.5540   46.1950 N   0  0  0  0  0  0  0  0  0  0  0  0
   58.0300   32.4200   45.7630 C   0  0  0  0  0  0  0  0  0  0  0  0
   57.2900   31.4430   45.3150 N   0  0  0  0  0  0  0  0  0  0  0  0
   57.7530   30.3190   44.5480 C   0  0  0  0  0  0  0  0  0  0  0  0
   58.2930   30.5270   43.4300 O   0  0  0  0  0  0  0  0  0  0  0  0
   57.5850   28.9260   45.0400 C   0  0  0  0  0  0  0  0  0  0  0  0
   58.7220   28.1410   45.3080 C   0  0  0  0  0  0  0  0  0  0  0  0
   59.7253   28.5496   45.1171 H   0  0  0  0  0  0  0  0  0  0  0  0
   58.5850   26.8460   45.8150 C   0  0  0  0  0  0  0  0  0  0  0  0
   59.4802   26.2414   46.0225 H   0  0  0  0  0  0  0  0  0  0  0  0
   57.3180   26.3170   46.0590 C   0  0  0  0  0  0  0  0  0  0  0  0
   57.2161   25.3034   46.4739 H   0  0  0  0  0  0  0  0  0  0  0  0
   56.1790   27.0730   45.7770 C   0  0  0  0  0  0  0  0  0  0  0  0
   54.9190   26.5340   46.0120 O   0  0  0  0  0  0  0  0  0  0  0  0
   56.3030   28.3690   45.2580 C   0  0  0  0  0  0  0  0  0  0  0  0
   55.1510   29.0830   44.9450 O   0  0  0  0  0  0  0  0  0  0  0  0
   59.4360   32.3390   45.8160 C   0  0  0  0  0  0  0  0  0  0  0  0
   59.9519   31.4396   45.4487 H   0  0  0  0  0  0  0  0  0  0  0  0
   60.1740   33.4100   46.3390 C   0  0  0  0  0  0  0  0  0  0  0  0
   61.5720   33.3540   46.4190 O   0  0  0  0  0  0  0  0  0  0  0  0
   62.2810   32.8570   47.5220 C   0  0  0  0  0  0  0  0  0  0  0  0
   61.8720   31.6930   48.1960 C   0  0  0  0  0  0  0  0  0  0  0  0
   60.9370   31.1921   47.9047 H   0  0  0  0  0  0  0  0  0  0  0  0
   62.6470   31.1690   49.2340 C   0  0  0  0  0  0  0  0  0  0  0  0
   62.3313   30.2437   49.7381 H   0  0  0  0  0  0  0  0  0  0  0  0
   63.8210   31.8130   49.6360 C   0  0  0  0  0  0  0  0  0  0  0  0
   64.6470   31.1880   50.6280 N   0  0  0  0  0  0  0  0  0  0  0  0
   64.2550   30.1090   51.4830 C   0  0  0  0  0  0  0  0  0  0  0  0
   65.1380   29.3380   51.9420 O   0  0  0  0  0  0  0  0  0  0  0  0
   62.8820   29.8780   51.8170 N   0  0  0  0  0  0  0  0  0  0  0  0
   62.2680   28.7290   51.8920 C   0  0  0  0  0  0  0  0  0  0  0  0
   62.7890   27.6350   52.5450 C   0  0  0  0  0  0  0  0  0  0  0  0
   63.7478   27.5604   53.0789 H   0  0  0  0  0  0  0  0  0  0  0  0
   61.8280   26.6470   52.3760 C   0  0  0  0  0  0  0  0  0  0  0  0
   61.9650   25.1860   52.7670 C   0  0  0  0  0  0  0  0  0  0  0  0
   60.6060   24.4900   52.5700 C   0  0  0  0  0  0  0  0  0  0  0  0
   60.1642   24.2637   53.5516 H   0  0  0  0  0  0  0  0  0  0  0  0
   59.9320   25.1539   52.0088 H   0  0  0  0  0  0  0  0  0  0  0  0
   60.7508   23.5551   52.0088 H   0  0  0  0  0  0  0  0  0  0  0  0
   63.0330   24.4950   51.8900 C   0  0  0  0  0  0  0  0  0  0  0  0
   63.7807   24.0112   52.5357 H   0  0  0  0  0  0  0  0  0  0  0  0
   62.5514   23.7368   51.2550 H   0  0  0  0  0  0  0  0  0  0  0  0
   63.5272   25.2450   51.2550 H   0  0  0  0  0  0  0  0  0  0  0  0
   62.3810   25.0700   54.2490 C   0  0  0  0  0  0  0  0  0  0  0  0
   61.5207   25.3099   54.8912 H   0  0  0  0  0  0  0  0  0  0  0  0
   62.7181   24.0436   54.4560 H   0  0  0  0  0  0  0  0  0  0  0  0
   63.2006   25.7739   54.4560 H   0  0  0  0  0  0  0  0  0  0  0  0
   60.8130   27.1310   51.6270 N   0  0  0  0  0  0  0  0  0  0  0  0
   61.0710   28.3970   51.3400 N   0  0  0  0  0  0  0  0  0  0  0  0
   60.2770   29.1140   50.3870 C   0  0  0  0  0  0  0  0  0  0  0  0
   59.6280   30.3040   50.7520 C   0  0  0  0  0  0  0  0  0  0  0  0
   59.7000   30.6740   51.7854 H   0  0  0  0  0  0  0  0  0  0  0  0
   58.8900   31.0200   49.8040 C   0  0  0  0  0  0  0  0  0  0  0  0
   58.3656   31.9413   50.0976 H   0  0  0  0  0  0  0  0  0  0  0  0
   58.8180   30.5660   48.4830 C   0  0  0  0  0  0  0  0  0  0  0  0
   58.2294   31.1243   47.7401 H   0  0  0  0  0  0  0  0  0  0  0  0
   59.4950   29.4020   48.1080 C   0  0  0  0  0  0  0  0  0  0  0  0
   59.4474   29.0506   47.0667 H   0  0  0  0  0  0  0  0  0  0  0  0
   60.2320   28.6840   49.0530 C   0  0  0  0  0  0  0  0  0  0  0  0
   60.7785   27.7788   48.7498 H   0  0  0  0  0  0  0  0  0  0  0  0
   64.2230   32.9880   48.9750 C   0  0  0  0  0  0  0  0  0  0  0  0
   65.1416   33.5056   49.2885 H   0  0  0  0  0  0  0  0  0  0  0  0
   63.4600   33.5010   47.9210 C   0  0  0  0  0  0  0  0  0  0  0  0
   63.8780   34.6140   47.2700 F   0  0  0  0  0  0  0  0  0  0  0  0
   59.5030   34.5350   46.8190 C   0  0  0  0  0  0  0  0  0  0  0  0
   60.0651   35.3651   47.2717 H   0  0  0  0  0  0  0  0  0  0  0  0
  1  2  1  0
  2  3  1  0
  3  4  1  0
  4  5  2  3
  5  6  1  0
  6  7  2  0
  6  8  1  0
  8  9  2  0
  9 10  1  0
  9 11  1  0
 11 12  1  0
 11 13  2  0
 13 14  1  0
 13 15  1  0
 15 16  1  0
 15 17  2  0
 17 18  1  0
  4 19  1  0
 19 20  1  0
 19 21  2  0
 21 22  1  0
 22 23  1  0
 23 24  2  0
 24 25  1  0
 24 26  1  0
 26 27  1  0
 26 28  2  0
 28 29  1  0
 29 30  1  0
 30 31  2  0
 30 32  1  0
 32 33  2  0
 33 34  1  0
 34 35  1  0
 34 36  2  0
 36 37  1  0
 37 38  1  0
 38 39  1  0
 38 40  1  0
 38 41  1  0
 37 42  1  0
 42 43  1  0
 42 44  1  0
 42 45  1  0
 37 46  1  0
 46 47  1  0
 46 48  1  0
 46 49  1  0
 36 50  1  0
 50 51  1  0
 51 52  1  0
 52 53  2  0
 53 54  1  0
 53 55  1  0
 55 56  1  0
 55 57  2  0
 57 58  1  0
 57 59  1  0
 59 60  1  0
 59 61  2  0
 61 62  1  0
 28 63  1  0
 63 64  1  0
 63 65  2  0
 65 66  1  0
 21 67  1  0
 67 68  1  0
 67  2  2  0
 17  8  1  0
 65 23  1  0
 51 33  1  0
 61 52  1  0
M  CHG  5   3  -1  16  -1  18  -1  29  -1  50  -1
M  END
>  <UniqueID>  (9) 
9

>  <SMILES>  (9) 
CC(C)(C)c1c/c(=N/C(=O)[N-]c2ccc(Oc3cc[n-]c(=NC(=O)c4cccc([O-])c4[O-])c3)c(F)c2)n(-c2ccccc2)[n-]1

>  <Energy>  (9) 
139.31801173954358

>  <Genealogy>  (9) 
CC(C)(C)c1cc(=NC(=O)[N-]c2ccc(Oc3cc[n-]c(=NC(=O)c4cccc([O-])c4[O-])c3)c(F)c2)n(-c2ccccc2)[n-]1 (protonated)
CC(C)(C)c1c/c(=N/C(=O)[N-]c2ccc(Oc3cc[n-]c(=NC(=O)c4cccc([O-])c4[O-])c3)c(F)c2)n(-c2ccccc2)[n-]1 (cis-trans isomerization)
CC(C)(C)c1c/c(=N/C(=O)[N-]c2ccc(Oc3cc[n-]c(=NC(=O)c4cccc([O-])c4[O-])c3)c(F)c2)n(-c2ccccc2)[n-]1 (3D coordinates assigned)
CC(C)(C)c1c/c(=N/C(=O)[N-]c2ccc(Oc3cc[n-]c(=NC(=O)c4cccc([O-])c4[O-])c3)c(F)c2)n(-c2ccccc2)[n-]1 (optimized conformer: 139.31801173954358 kcal/mol)

>  <smiles>  (9) 
CC(C)(C)c1cc(=NC(=O)Nc2ccc(Oc3cc[nH]c(=NC(=O)c4cccc(O)c4O)c3)c(F)c2)n(-c2ccccc2)[nH]1

>  <score_type>  (9) 
oracle

>  <origin>  (9) 
adg

>  <m_score__min__energy>  (9) 
-22.379999999999999

>  <m_primary>  (9) 
energy

$$$$
9:0
     RDKit          3D

 68 71  0  0  0  0  0  0  0  0999 V2000
   57.2300   34.2150   45.2880 C   0  0  0  0  0  0  0  0  0  0  0  0
   58.3200   33.9210   46.3170 C   0  0  0  0  0  0  0  0  0  0  0  0
   59.5040   33.1310   45.7300 C   0  0  0  0  0  0  0  0  0  0  0  0
   59.7060   31.7500   46.3760 C   0  0  0  0  0  0  0  0  0  0  0  0
   58.6550   30.7590   45.9520 C   0  0  0  0  0  0  0  0  0  0  0  0
   57.5900   31.1260   45.2090 N   0  0  0  0  0  0  0  0  0  0  0  0
   56.8980   29.9860   45.0340 C   0  0  0  0  0  0  0  0  0  0  0  0
   55.3900   29.9010   44.0660 S   0  0  0  0  0  0  0  0  0  0  0  0
   56.2810   29.7270   42.4880 C   0  0  0  0  0  0  0  0  0  0  0  0
   57.5460   28.9370   45.6620 C   0  0  0  0  0  0  0  0  0  0  0  0
   57.0960   27.5260   45.6780 C   0  0  0  0  0  0  0  0  0  0  0  0
   55.8670   27.2560   45.6490 O   0  0  0  0  0  0  0  0  0  0  0  0
   58.0100   26.4810   45.6990 O   0  0  0  0  0  0  0  0  0  0  0  0
   58.6600   29.4340   46.2500 N   0  0  0  0  0  0  0  0  0  0  0  0
   59.6460   28.7300   47.0810 C   0  0  0  0  0  0  0  0  0  0  0  0
   59.7350   29.3470   48.4540 C   0  0  0  0  0  0  0  0  0  0  0  0
   60.9450   29.8850   48.9240 C   0  0  0  0  0  0  0  0  0  0  0  0
   61.0230   30.4330   50.2070 C   0  0  0  0  0  0  0  0  0  0  0  0
   59.9010   30.4260   51.0460 C   0  0  0  0  0  0  0  0  0  0  0  0
   59.9870   30.9780   52.4090 C   0  0  0  0  0  0  0  0  0  0  0  0
   60.4890   30.1610   53.4330 C   0  0  0  0  0  0  0  0  0  0  0  0
   60.6170   30.6560   54.7320 C   0  0  0  0  0  0  0  0  0  0  0  0
   60.2500   31.9720   55.0180 C   0  0  0  0  0  0  0  0  0  0  0  0
   59.7400   32.7930   54.0100 C   0  0  0  0  0  0  0  0  0  0  0  0
   59.5960   32.3070   52.7000 C   0  0  0  0  0  0  0  0  0  0  0  0
   58.9070   33.3620   51.4560 S   0  0  0  0  0  0  0  0  0  0  0  0
   58.1610   32.5450   50.4400 O   0  0  0  0  0  0  0  0  0  0  0  0
   57.9630   34.3330   52.1070 O   0  0  0  0  0  0  0  0  0  0  0  0
   60.1910   34.2150   50.6620 N   0  0  0  0  0  0  0  0  0  0  0  0
   60.9570   33.6910   49.5730 C   0  0  0  0  0  0  0  0  0  0  0  0
   60.3760   33.4330   48.4850 O   0  0  0  0  0  0  0  0  0  0  0  0
   62.4110   33.4560   49.6870 C   0  0  0  0  0  0  0  0  0  0  0  0
   63.2440   33.4000   48.5500 C   0  0  0  0  0  0  0  0  0  0  0  0
   62.6730   33.5240   47.1620 C   0  0  0  0  0  0  0  0  0  0  0  0
   64.5790   33.1670   48.7080 N   0  0  0  0  0  0  0  0  0  0  0  0
   65.1230   33.0060   49.9450 C   0  0  0  0  0  0  0  0  0  0  0  0
   66.7270   32.7310   50.1170 S   0  0  0  0  0  0  0  0  0  0  0  0
   64.3370   33.0780   51.0490 N   0  0  0  0  0  0  0  0  0  0  0  0
   63.0040   33.2990   50.9500 C   0  0  0  0  0  0  0  0  0  0  0  0
   62.3100   33.3730   52.0000 O   0  0  0  0  0  0  0  0  0  0  0  0
   58.6930   29.8880   50.5830 C   0  0  0  0  0  0  0  0  0  0  0  0
   58.6100   29.3530   49.2960 C   0  0  0  0  0  0  0  0  0  0  0  0
   56.2938   34.4675   45.8075 H   0  0  0  0  0  0  0  0  0  0  0  0
   57.5395   35.0618   44.6578 H   0  0  0  0  0  0  0  0  0  0  0  0
   57.0717   33.3274   44.6578 H   0  0  0  0  0  0  0  0  0  0  0  0
   58.6969   34.8763   46.7111 H   0  0  0  0  0  0  0  0  0  0  0  0
   57.8693   33.3007   47.1058 H   0  0  0  0  0  0  0  0  0  0  0  0
   59.3271   32.9885   44.6537 H   0  0  0  0  0  0  0  0  0  0  0  0
   60.4131   33.7166   45.9317 H   0  0  0  0  0  0  0  0  0  0  0  0
   60.6938   31.3642   46.0836 H   0  0  0  0  0  0  0  0  0  0  0  0
   59.6288   31.8751   47.4661 H   0  0  0  0  0  0  0  0  0  0  0  0
   57.3427   29.5197   42.6873 H   0  0  0  0  0  0  0  0  0  0  0  0
   55.8472   28.8966   41.9116 H   0  0  0  0  0  0  0  0  0  0  0  0
   56.1915   30.6596   41.9116 H   0  0  0  0  0  0  0  0  0  0  0  0
   59.3467   27.6760   47.1790 H   0  0  0  0  0  0  0  0  0  0  0  0
   60.6310   28.8077   46.5975 H   0  0  0  0  0  0  0  0  0  0  0  0
   61.8356   29.8747   48.2785 H   0  0  0  0  0  0  0  0  0  0  0  0
   61.9684   30.8713   50.5594 H   0  0  0  0  0  0  0  0  0  0  0  0
   60.7834   29.1246   53.2111 H   0  0  0  0  0  0  0  0  0  0  0  0
   61.0074   30.0084   55.5309 H   0  0  0  0  0  0  0  0  0  0  0  0
   60.3628   32.3633   56.0398 H   0  0  0  0  0  0  0  0  0  0  0  0
   59.4490   33.8278   54.2436 H   0  0  0  0  0  0  0  0  0  0  0  0
   61.5999   33.7570   47.2264 H   0  0  0  0  0  0  0  0  0  0  0  0
   63.1916   34.3305   46.6229 H   0  0  0  0  0  0  0  0  0  0  0  0
   62.8104   32.5751   46.6229 H   0  0  0  0  0  0  0  0  0  0  0  0
   65.1980   33.1050   47.8670 H   0  0  0  0  0  0  0  0  0  0  0  0
   57.8073   29.8871   51.2354 H   0  0  0  0  0  0  0  0  0  0  0  0
   57.6579   28.9335   48.9389 H   0  0  0  0  0  0  0  0  0  0  0  0
  1  2  1  0
  2  3  1  0
  3  4  1  0
  4  5  1  0
  5  6  2  0
  6  7  1  0
  7  8  1  0
  8  9  1  0
  7 10  2  0
 10 11  1  0
 11 12  2  0
 11 13  1  0
 10 14  1  0
 14 15  1  0
 15 16  1  0
 16 17  2  0
 17 18  1  0
 18 19  2  0
 19 20  1  0
 20 21  2  0
 21 22  1  0
 22 23  2  0
 23 24  1  0
 24 25  2  0
 25 26  1  0
 26 27  2  0
 26 28  2  0
 26 29  1  0
 29 30  1  0
 30 31  2  0
 30 32  1  0
 32 33  2  0
 33 34  1  0
 33 35  1  0
 35 36  1  0
 36 37  2  0
 36 38  1  0
 38 39  1  0
 39 40  2  0
 19 41  1  0
 41 42  2  0
 14  5  1  0
 42 16  1  0
 25 20  1  0
 39 32  1  0
  1 43  1  0
  1 44  1  0
  1 45  1  0
  2 46  1  0
  2 47  1  0
  3 48  1  0
  3 49  1  0
  4 50  1  0
  4 51  1  0
  9 52  1  0
  9 53  1  0
  9 54  1  0
 15 55  1  0
 15 56  1  0
 17 57  1  0
 18 58  1  0
 21 59  1  0
 22 60  1  0
 23 61  1  0
 24 62  1  0
 34 63  1  0
 34 64  1  0
 34 65  1  0
 35 66  1  0
 41 67  1  0
 42 68  1  0
M  CHG  3  13  -1  29  -1  38  -1
M  END
>  <UniqueID>  (10) 
10

>  <SMILES>  (10) 
CCCCc1nc(SC)c(C(=O)[O-])n1Cc1ccc(-c2ccccc2S(=O)(=O)[N-]C(=O)c2c(C)[nH]c(=S)[n-]c2=O)cc1

>  <Energy>  (10) 
111.53980908945678

>  <Genealogy>  (10) 
CCCCc1nc(SC)c(C(=O)[O-])n1Cc1ccc(-c2ccccc2S(=O)(=O)[N-]C(=O)c2c(C)[nH]c(=S)[n-]c2=O)cc1 (protonated)
CCCCc1nc(SC)c(C(=O)[O-])n1Cc1ccc(-c2ccccc2S(=O)(=O)[N-]C(=O)c2c(C)[nH]c(=S)[n-]c2=O)cc1 (3D coordinates assigned)
CCCCc1nc(SC)c(C(=O)[O-])n1Cc1ccc(-c2ccccc2S(=O)(=O)[N-]C(=O)c2c(C)[nH]c(=S)[n-]c2=O)cc1 (optimized conformer: 111.53980908945678 kcal/mol)

>  <smiles>  (10) 
CCCCc1nc(SC)c(C(=O)O)n1Cc1ccc(-c2ccccc2S(=O)(=O)NC(=O)c2c(C)[nH]c(=S)[nH]c2=O)cc1

>  <score_type>  (10) 
oracle

>  <origin>  (10) 
adg

>  <m_score__min__energy>  (10) 
-13.539999999999999

>  <m_primary>  (10) 
energy

$$$$
10:0
     RDKit          3D

 37 40  0  0  0  0  0  0  0  0999 V2000
   58.8418   31.7949   53.8348 H   0  0  0  0  0  0  0  0  0  0  0  0
   58.7490   32.1100   52.7850 C   0  0  0  0  0  0  0  0  0  0  0  0
   59.6120   33.0230   52.3140 C   0  0  0  0  0  0  0  0  0  0  0  0
   60.1906   33.6241   53.0309 H   0  0  0  0  0  0  0  0  0  0  0  0
   59.8140   33.2510   50.8690 C   0  0  0  0  0  0  0  0  0  0  0  0
   60.5170   34.2220   50.4820 O   0  0  0  0  0  0  0  0  0  0  0  0
   59.3000   32.3120   49.9170 N   0  0  0  0  0  0  0  0  0  0  0  0
   58.4770   31.2350   50.3330 C   0  0  0  0  0  0  0  0  0  0  0  0
   58.5340   30.1960   49.5750 N   0  0  0  0  0  0  0  0  0  0  0  0
   57.9900   29.3150   49.7070 H   0  0  0  0  0  0  0  0  0  0  0  0
   59.4350   30.4980   48.5130 C   0  0  0  0  0  0  0  0  0  0  0  0
   59.6590   29.6570   47.4950 C   0  0  0  0  0  0  0  0  0  0  0  0
   60.7008   29.4348   47.2206 H   0  0  0  0  0  0  0  0  0  0  0  0
   58.5830   29.0160   46.7260 C   0  0  0  0  0  0  0  0  0  0  0  0
   58.1960   27.8670   47.0700 O   0  0  0  0  0  0  0  0  0  0  0  0
   57.9880   29.6570   45.5400 C   0  0  0  0  0  0  0  0  0  0  0  0
   56.5020   29.2720   44.8470 S   0  0  0  0  0  0  0  0  0  0  0  0
   56.5480   30.4440   43.6420 C   0  0  0  0  0  0  0  0  0  0  0  0
   55.7756   30.6136   42.8774 H   0  0  0  0  0  0  0  0  0  0  0  0
   57.7300   31.1610   43.7790 C   0  0  0  0  0  0  0  0  0  0  0  0
   58.0095   31.9918   43.1145 H   0  0  0  0  0  0  0  0  0  0  0  0
   58.5320   30.7280   44.8410 C   0  0  0  0  0  0  0  0  0  0  0  0
   59.4971   31.1895   45.0971 H   0  0  0  0  0  0  0  0  0  0  0  0
   59.9930   31.8890   48.7020 C   0  0  1  0  0  0  0  0  0  0  0  0
   61.0917   31.8989   48.7540 H   0  0  0  0  0  0  0  0  0  0  0  0
   59.6820   32.8350   47.5520 C   0  0  0  0  0  0  0  0  0  0  0  0
   58.3450   33.1910   47.2620 C   0  0  0  0  0  0  0  0  0  0  0  0
   57.3160   32.7130   48.0070 F   0  0  0  0  0  0  0  0  0  0  0  0
   58.0540   34.0520   46.2000 C   0  0  0  0  0  0  0  0  0  0  0  0
   57.0090   34.3126   45.9765 H   0  0  0  0  0  0  0  0  0  0  0  0
   59.0820   34.5810   45.4240 C   0  0  0  0  0  0  0  0  0  0  0  0
   58.8471   35.2498   44.5828 H   0  0  0  0  0  0  0  0  0  0  0  0
   60.4080   34.2640   45.7120 C   0  0  0  0  0  0  0  0  0  0  0  0
   61.2165   34.6910   45.1005 H   0  0  0  0  0  0  0  0  0  0  0  0
   60.7190   33.4060   46.7740 C   0  0  0  0  0  0  0  0  0  0  0  0
   62.4250   33.1040   47.0960 Cl  0  0  0  0  0  0  0  0  0  0  0  0
   57.4420   31.3730   51.7790 S   0  0  0  0  0  0  0  0  0  0  0  0
  1  2  1  0
  2  3  2  0
  3  4  1  0
  3  5  1  0
  5  6  2  0
  5  7  1  0
  7  8  1  0
  8  9  2  0
  9 10  1  0
  9 11  1  0
 11 12  2  0
 12 13  1  0
 12 14  1  0
 14 15  2  0
 14 16  1  0
 16 17  1  0
 17 18  1  0
 18 19  1  0
 18 20  2  0
 20 21  1  0
 20 22  1  0
 22 23  1  0
 11 24  1  0
 24 25  1  1
 24 26  1  0
 26 27  2  0
 27 28  1  0
 27 29  1  0
 29 30  1  0
 29 31  2  0
 31 32  1  0
 31 33  1  0
 33 34  1  0
 33 35  2  0
 35 36  1  0
  8 37  1  0
 37  2  1  0
 24  7  1  0
 35 26  1  0
 22 16  2  0
M  CHG  1   9   1
M  END
>  <UniqueID>  (11) 
11

>  <SMILES>  (11) 
O=C(/C=C1/[NH+]=C2SC=CC(=O)N2[C@@H]1c1c(F)cccc1Cl)c1cccs1

>  <Energy>  (11) 
102.82749203151748

>  <Genealogy>  (11) 
O=C(C=C1[NH+]=C2SC=CC(=O)N2C1c1c(F)cccc1Cl)c1cccs1 (protonated)
O=C(C=C1[NH+]=C2SC=CC(=O)N2[C@@H]1c1c(F)cccc1Cl)c1cccs1 (chirality)
O=C(/C=C1/[NH+]=C2SC=CC(=O)N2[C@@H]1c1c(F)cccc1Cl)c1cccs1 (cis-trans isomerization)
O=C(/C=C1/[NH+]=C2SC=CC(=O)N2[C@@H]1c1c(F)cccc1Cl)c1cccs1 (3D coordinates assigned)
O=C(/C=C1/[NH+]=C2SC=CC(=O)N2[C@@H]1c1c(F)cccc1Cl)c1cccs1 (nonaromatic ring conformer: 102.82749203151748 kcal/mol)

>  <smiles>  (11) 
O=C(C=C1N=C2SC=CC(=O)N2C1c1c(F)cccc1Cl)c1cccs1

>  <score_type>  (11) 
oracle

>  <origin>  (11) 
adg

>  <m_score__min__energy>  (11) 
-6.4900000000000002

>  <m_primary>  (11) 
energy

$$$$
11:0
     RDKit          3D

 70 74  0  0  0  0  0  0  0  0999 V2000
   55.1470   29.5280   44.9990 N   0  0  0  0  0  0  0  0  0  0  0  0
   56.3360   30.2900   44.7940 C   0  0  0  0  0  0  0  0  0  0  0  0
   56.2620   31.4380   44.2790 O   0  0  0  0  0  0  0  0  0  0  0  0
   57.6770   29.7110   45.1410 C   0  0  2  0  0  0  0  0  0  0  0  0
   58.7990   30.5690   44.5330 C   0  0  0  0  0  0  0  0  0  0  0  0
   58.7850   31.9650   45.1000 C   0  0  0  0  0  0  0  0  0  0  0  0
   58.5370   33.0690   44.2670 C   0  0  0  0  0  0  0  0  0  0  0  0
   58.5720   34.3660   44.7870 C   0  0  0  0  0  0  0  0  0  0  0  0
   58.8510   34.5710   46.1410 C   0  0  0  0  0  0  0  0  0  0  0  0
   59.1020   33.4780   46.9750 C   0  0  0  0  0  0  0  0  0  0  0  0
   59.0760   32.1790   46.4580 C   0  0  0  0  0  0  0  0  0  0  0  0
   57.7670   28.3320   44.6490 N   0  0  0  0  0  0  0  0  0  0  0  0
   57.2440   27.2130   45.3830 C   0  0  0  0  0  0  0  0  0  0  0  0
   56.4530   27.4200   46.3400 O   0  0  0  0  0  0  0  0  0  0  0  0
   57.6370   25.8250   45.0190 C   0  0  0  0  0  0  0  0  0  0  0  0
   56.8740   25.1310   44.0580 C   0  0  0  0  0  0  0  0  0  0  0  0
   57.1600   23.8040   43.7350 C   0  0  0  0  0  0  0  0  0  0  0  0
   58.2060   23.1390   44.3720 C   0  0  0  0  0  0  0  0  0  0  0  0
   58.5530   21.4650   43.9770 Cl  0  0  0  0  0  0  0  0  0  0  0  0
   58.9830   23.8100   45.3180 C   0  0  0  0  0  0  0  0  0  0  0  0
   58.7360   25.1570   45.6220 C   0  0  0  0  0  0  0  0  0  0  0  0
   59.5810   25.7910   46.5880 N   0  0  0  0  0  0  0  0  0  0  0  0
   60.0280   27.1540   46.5290 C   0  0  0  0  0  0  0  0  0  0  0  0
   60.4280   27.6090   45.4260 O   0  0  0  0  0  0  0  0  0  0  0  0
   60.0790   28.0240   47.7260 C   0  0  0  0  0  0  0  0  0  0  0  0
   59.6580   29.3600   47.6310 C   0  0  0  0  0  0  0  0  0  0  0  0
   59.7010   30.1980   48.7490 C   0  0  0  0  0  0  0  0  0  0  0  0
   60.1540   29.7080   49.9820 C   0  0  0  0  0  0  0  0  0  0  0  0
   60.2130   30.6210   51.1800 C   0  0  0  0  0  0  0  0  0  0  0  0
   61.6110   30.9550   51.5320 N   0  0  0  0  0  0  0  0  0  0  0  0
   61.7770   32.3060   52.1120 C   0  0  0  0  0  0  0  0  0  0  0  0
   61.4230   33.4250   51.1200 C   0  0  0  0  0  0  0  0  0  0  0  0
   61.9650   33.1590   49.7400 C   0  0  0  0  0  0  0  0  0  0  0  0
   61.9290   34.1840   48.7820 C   0  0  0  0  0  0  0  0  0  0  0  0
   62.3830   33.9530   47.4810 C   0  0  0  0  0  0  0  0  0  0  0  0
   62.8700   32.6940   47.1240 C   0  0  0  0  0  0  0  0  0  0  0  0
   62.9000   31.6620   48.0660 C   0  0  0  0  0  0  0  0  0  0  0  0
   62.4280   31.8770   49.3700 C   0  0  0  0  0  0  0  0  0  0  0  0
   62.5250   30.7650   50.3880 C   0  0  0  0  0  0  0  0  0  0  0  0
   60.5550   28.3680   50.0860 C   0  0  0  0  0  0  0  0  0  0  0  0
   60.5090   27.5300   48.9680 C   0  0  0  0  0  0  0  0  0  0  0  0
   55.1500   28.6820   45.6100 H   0  0  0  0  0  0  0  0  0  0  0  0
   57.7933   29.7070   46.2348 H   0  0  0  0  0  0  0  0  0  0  0  0
   59.7693   30.1010   44.7555 H   0  0  0  0  0  0  0  0  0  0  0  0
   58.6393   30.6325   43.4465 H   0  0  0  0  0  0  0  0  0  0  0  0
   58.3144   32.9120   43.2013 H   0  0  0  0  0  0  0  0  0  0  0  0
   58.3796   35.2266   44.1295 H   0  0  0  0  0  0  0  0  0  0  0  0
   58.8730   35.5919   46.5500 H   0  0  0  0  0  0  0  0  0  0  0  0
   59.3206   33.6400   48.0408 H   0  0  0  0  0  0  0  0  0  0  0  0
   59.2839   31.3224   47.1161 H   0  0  0  0  0  0  0  0  0  0  0  0
   58.1500   28.1730   43.6890 H   0  0  0  0  0  0  0  0  0  0  0  0
   56.0405   25.6433   43.5551 H   0  0  0  0  0  0  0  0  0  0  0  0
   56.5587   23.2818   42.9762 H   0  0  0  0  0  0  0  0  0  0  0  0
   59.7974   23.2769   45.8304 H   0  0  0  0  0  0  0  0  0  0  0  0
   59.2917   29.7501   46.6699 H   0  0  0  0  0  0  0  0  0  0  0  0
   59.3782   31.2459   48.6610 H   0  0  0  0  0  0  0  0  0  0  0  0
   59.6696   31.5494   50.9503 H   0  0  0  0  0  0  0  0  0  0  0  0
   59.7536   30.1030   52.0348 H   0  0  0  0  0  0  0  0  0  0  0  0
   61.1215   32.3946   52.9909 H   0  0  0  0  0  0  0  0  0  0  0  0
   62.8370   32.4239   52.3814 H   0  0  0  0  0  0  0  0  0  0  0  0
   60.3280   33.5105   51.0594 H   0  0  0  0  0  0  0  0  0  0  0  0
   61.8794   34.3563   51.4867 H   0  0  0  0  0  0  0  0  0  0  0  0
   61.5408   35.1757   49.0572 H   0  0  0  0  0  0  0  0  0  0  0  0
   62.3568   34.7633   46.7376 H   0  0  0  0  0  0  0  0  0  0  0  0
   63.2304   32.5143   46.1004 H   0  0  0  0  0  0  0  0  0  0  0  0
   63.2959   30.6753   47.7836 H   0  0  0  0  0  0  0  0  0  0  0  0
   62.2769   29.8139   49.8942 H   0  0  0  0  0  0  0  0  0  0  0  0
   63.5523   30.7649   50.7814 H   0  0  0  0  0  0  0  0  0  0  0  0
   60.9071   27.9749   51.0511 H   0  0  0  0  0  0  0  0  0  0  0  0
   60.8117   26.4766   49.0619 H   0  0  0  0  0  0  0  0  0  0  0  0
  1  2  1  0
  2  3  2  0
  2  4  1  0
  4  5  1  0
  5  6  1  0
  6  7  2  0
  7  8  1  0
  8  9  2  0
  9 10  1  0
 10 11  2  0
  4 12  1  0
 12 13  1  0
 13 14  2  0
 13 15  1  0
 15 16  2  0
 16 17  1  0
 17 18  2  0
 18 19  1  0
 18 20  1  0
 20 21  2  0
 21 22  1  0
 22 23  1  0
 23 24  2  0
 23 25  1  0
 25 26  2  0
 26 27  1  0
 27 28  2  0
 28 29  1  0
 29 30  1  0
 30 31  1  0
 31 32  1  0
 32 33  1  0
 33 34  2  0
 34 35  1  0
 35 36  2  0
 36 37  1  0
 37 38  2  0
 38 39  1  0
 28 40  1  0
 40 41  2  0
 11  6  1  0
 21 15  1  0
 41 25  1  0
 39 30  1  0
 38 33  1  0
  1 42  1  0
  4 43  1  1
  5 44  1  0
  5 45  1  0
  7 46  1  0
  8 47  1  0
  9 48  1  0
 10 49  1  0
 11 50  1  0
 12 51  1  0
 16 52  1  0
 17 53  1  0
 20 54  1  0
 26 55  1  0
 27 56  1  0
 29 57  1  0
 29 58  1  0
 31 59  1  0
 31 60  1  0
 32 61  1  0
 32 62  1  0
 34 63  1  0
 35 64  1  0
 36 65  1  0
 37 66  1  0
 39 67  1  0
 39 68  1  0
 40 69  1  0
 41 70  1  0
M  CHG  2   1  -1  22  -1
M  END
>  <UniqueID>  (12) 
12

>  <SMILES>  (12) 
[NH-]C(=O)[C@H](Cc1ccccc1)NC(=O)c1ccc(Cl)cc1[N-]C(=O)c1ccc(CN2CCc3ccccc3C2)cc1

>  <Energy>  (12) 
89.87487204308974

>  <Genealogy>  (12) 
[NH-]C(=O)C(Cc1ccccc1)NC(=O)c1ccc(Cl)cc1[N-]C(=O)c1ccc(CN2CCc3ccccc3C2)cc1 (protonated)
[NH-]C(=O)[C@H](Cc1ccccc1)NC(=O)c1ccc(Cl)cc1[N-]C(=O)c1ccc(CN2CCc3ccccc3C2)cc1 (chirality)
[NH-]C(=O)[C@H](Cc1ccccc1)NC(=O)c1ccc(Cl)cc1[N-]C(=O)c1ccc(CN2CCc3ccccc3C2)cc1 (3D coordinates assigned)
[NH-]C(=O)[C@H](Cc1ccccc1)NC(=O)c1ccc(Cl)cc1[N-]C(=O)c1ccc(CN2CCc3ccccc3C2)cc1 (nonaromatic ring conformer: 89.87487204308974 kcal/mol)

>  <smiles>  (12) 
NC(=O)C(Cc1ccccc1)NC(=O)c1ccc(Cl)cc1NC(=O)c1ccc(CN2CCc3ccccc3C2)cc1

>  <score_type>  (12) 
oracle

>  <origin>  (12) 
adg

>  <m_score__min__energy>  (12) 
-14.85

>  <m_primary>  (12) 
energy

$$$$
12:0
     RDKit          3D

 57 61  0  0  0  0  0  0  0  0999 V2000
   63.3330   33.7700   46.9210 O   0  0  0  0  0  0  0  0  0  0  0  0
   62.5910   33.2140   47.7730 C   0  0  0  0  0  0  0  0  0  0  0  0
   61.7540   32.0380   47.3670 C   0  0  0  0  0  0  0  0  0  0  0  0
   60.4520   32.4860   46.7350 C   0  0  0  0  0  0  0  0  0  0  0  0
   60.1890   33.8630   46.6180 C   0  0  0  0  0  0  0  0  0  0  0  0
   59.0150   34.3170   46.0170 C   0  0  0  0  0  0  0  0  0  0  0  0
   58.0750   33.4060   45.5290 C   0  0  0  0  0  0  0  0  0  0  0  0
   58.3080   32.0260   45.6450 C   0  0  0  0  0  0  0  0  0  0  0  0
   57.3890   31.0710   45.1770 C   0  0  0  0  0  0  0  0  0  0  0  0
   56.3130   31.4240   44.6240 O   0  0  0  0  0  0  0  0  0  0  0  0
   57.6580   29.7490   45.3230 N   0  0  0  0  0  0  0  0  0  0  0  0
   58.8030   29.3160   45.9190 C   0  0  0  0  0  0  0  0  0  0  0  0
   59.0630   28.0470   46.0430 N   0  0  0  0  0  0  0  0  0  0  0  0
   58.1110   26.9780   46.1700 C   0  0  0  0  0  0  0  0  0  0  0  0
   58.5670   25.7120   46.5620 C   0  0  0  0  0  0  0  0  0  0  0  0
   57.6680   24.6530   46.7260 C   0  0  0  0  0  0  0  0  0  0  0  0
   56.3000   24.8610   46.5240 C   0  0  0  0  0  0  0  0  0  0  0  0
   55.8290   26.1290   46.1690 C   0  0  0  0  0  0  0  0  0  0  0  0
   54.4660   26.3390   45.9920 O   0  0  0  0  0  0  0  0  0  0  0  0
   56.7280   27.1860   45.9970 C   0  0  0  0  0  0  0  0  0  0  0  0
   59.7110   30.2230   46.3610 N   0  0  0  0  0  0  0  0  0  0  0  0
   59.4990   31.5620   46.2490 C   0  0  0  0  0  0  0  0  0  0  0  0
   62.4840   33.7500   49.0980 N   0  0  0  0  0  0  0  0  0  0  0  0
   63.5410   33.7670   50.0670 C   0  0  0  0  0  0  0  0  0  0  0  0
   63.4710   34.6730   51.1330 C   0  0  0  0  0  0  0  0  0  0  0  0
   64.4650   34.6850   52.1140 C   0  0  0  0  0  0  0  0  0  0  0  0
   65.5310   33.7830   52.0470 C   0  0  0  0  0  0  0  0  0  0  0  0
   65.6130   32.8640   50.9890 C   0  0  0  0  0  0  0  0  0  0  0  0
   66.7050   31.8700   50.9340 C   0  0  0  0  0  0  0  0  0  0  0  0
   67.8770   32.2710   50.7000 O   0  0  0  0  0  0  0  0  0  0  0  0
   66.4620   30.4670   51.1550 N   0  0  0  0  0  0  0  0  0  0  0  0
   67.4570   29.4490   50.8550 C   0  0  0  0  0  0  0  0  0  0  0  0
   67.0210   28.2040   51.6150 C   0  0  0  0  0  0  0  0  0  0  0  0
   65.5740   28.4500   52.0340 C   0  0  0  0  0  0  0  0  0  0  0  0
   65.3670   29.9560   51.9630 C   0  0  0  0  0  0  0  0  0  0  0  0
   64.6030   32.8460   50.0140 C   0  0  0  0  0  0  0  0  0  0  0  0
   62.3153   31.4312   46.6412 H   0  0  0  0  0  0  0  0  0  0  0  0
   61.5208   31.4487   48.2661 H   0  0  0  0  0  0  0  0  0  0  0  0
   60.9178   34.5903   47.0051 H   0  0  0  0  0  0  0  0  0  0  0  0
   58.8285   35.3973   45.9269 H   0  0  0  0  0  0  0  0  0  0  0  0
   57.1521   33.7697   45.0537 H   0  0  0  0  0  0  0  0  0  0  0  0
   59.6400   25.5500   46.7421 H   0  0  0  0  0  0  0  0  0  0  0  0
   58.0368   23.6574   47.0136 H   0  0  0  0  0  0  0  0  0  0  0  0
   55.5937   24.0264   46.6445 H   0  0  0  0  0  0  0  0  0  0  0  0
   56.3541   28.1842   45.7255 H   0  0  0  0  0  0  0  0  0  0  0  0
   62.6293   35.3782   51.1978 H   0  0  0  0  0  0  0  0  0  0  0  0
   64.4089   35.4067   52.9423 H   0  0  0  0  0  0  0  0  0  0  0  0
   66.3079   33.7934   52.8257 H   0  0  0  0  0  0  0  0  0  0  0  0
   67.4846   29.2475   49.7740 H   0  0  0  0  0  0  0  0  0  0  0  0
   68.4664   29.7706   51.1511 H   0  0  0  0  0  0  0  0  0  0  0  0
   67.0853   27.3182   50.9659 H   0  0  0  0  0  0  0  0  0  0  0  0
   67.6661   28.0182   52.4864 H   0  0  0  0  0  0  0  0  0  0  0  0
   64.8847   27.9367   51.3474 H   0  0  0  0  0  0  0  0  0  0  0  0
   65.3759   28.0633   53.0445 H   0  0  0  0  0  0  0  0  0  0  0  0
   64.4011   30.1883   51.4906 H   0  0  0  0  0  0  0  0  0  0  0  0
   65.3550   30.4113   52.9643 H   0  0  0  0  0  0  0  0  0  0  0  0
   64.6424   32.1054   49.2017 H   0  0  0  0  0  0  0  0  0  0  0  0
  1  2  2  0
  2  3  1  0
  3  4  1  0
  4  5  2  0
  5  6  1  0
  6  7  2  0
  7  8  1  0
  8  9  1  0
  9 10  2  0
  9 11  1  0
 11 12  1  0
 12 13  2  3
 13 14  1  0
 14 15  2  0
 15 16  1  0
 16 17  2  0
 17 18  1  0
 18 19  1  0
 18 20  2  0
 12 21  1  0
 21 22  1  0
  2 23  1  0
 23 24  1  0
 24 25  2  0
 25 26  1  0
 26 27  2  0
 27 28  1  0
 28 29  1  0
 29 30  2  0
 29 31  1  0
 31 32  1  0
 32 33  1  0
 33 34  1  0
 34 35  1  0
 28 36  2  0
 22  4  1  0
 36 24  1  0
 22  8  2  0
 35 31  1  0
 20 14  1  0
  3 37  1  0
  3 38  1  0
  5 39  1  0
  6 40  1  0
  7 41  1  0
 15 42  1  0
 16 43  1  0
 17 44  1  0
 20 45  1  0
 25 46  1  0
 26 47  1  0
 27 48  1  0
 32 49  1  0
 32 50  1  0
 33 51  1  0
 33 52  1  0
 34 53  1  0
 34 54  1  0
 35 55  1  0
 35 56  1  0
 36 57  1  0
M  CHG  4  11  -1  19  -1  21  -1  23  -1
M  END
>  <UniqueID>  (13) 
13

>  <SMILES>  (13) 
O=C(Cc1cccc2c(=O)[n-]c(=Nc3cccc([O-])c3)[n-]c12)[N-]c1cccc(C(=O)N2CCCC2)c1

>  <Energy>  (13) 
82.19841036295759

>  <Genealogy>  (13) 
O=C(Cc1cccc2c(=O)[n-]c(=Nc3cccc([O-])c3)[n-]c12)[N-]c1cccc(C(=O)N2CCCC2)c1 (protonated)
O=C(Cc1cccc2c(=O)[n-]c(=Nc3cccc([O-])c3)[n-]c12)[N-]c1cccc(C(=O)N2CCCC2)c1 (3D coordinates assigned)
O=C(Cc1cccc2c(=O)[n-]c(=Nc3cccc([O-])c3)[n-]c12)[N-]c1cccc(C(=O)N2CCCC2)c1 (nonaromatic ring conformer: 82.19841036295759 kcal/mol)

>  <smiles>  (13) 
O=C(Cc1cccc2c(=O)[nH]c(=Nc3cccc(O)c3)[nH]c12)Nc1cccc(C(=O)N2CCCC2)c1

>  <score_type>  (13) 
oracle

>  <origin>  (13) 
adg

>  <m_score__min__energy>  (13) 
-17.420000000000002

>  <m_primary>  (13) 
energy

$$$$
13:0
     RDKit          3D

 52 55  0  0  0  0  0  0  0  0999 V2000
   58.1430   34.0710   46.9380 N   0  0  0  0  0  0  0  0  0  0  0  0
   58.8810   34.0420   45.3720 S   0  0  0  0  0  0  0  0  0  0  0  0
   58.6690   35.3780   44.7170 O   0  0  0  0  0  0  0  0  0  0  0  0
   60.3550   33.7850   45.5110 O   0  0  0  0  0  0  0  0  0  0  0  0
   58.1560   32.7750   44.3870 C   0  0  0  0  0  0  0  0  0  0  0  0
   58.1450   32.8830   42.9900 C   0  0  0  0  0  0  0  0  0  0  0  0
   57.5620   31.8780   42.2130 C   0  0  0  0  0  0  0  0  0  0  0  0
   56.9970   30.7560   42.8250 C   0  0  0  0  0  0  0  0  0  0  0  0
   57.0250   30.6230   44.2220 C   0  0  0  0  0  0  0  0  0  0  0  0
   56.4120   29.4450   44.8700 C   0  0  0  0  0  0  0  0  0  0  0  0
   55.1580   29.3420   44.9070 O   0  0  0  0  0  0  0  0  0  0  0  0
   57.2050   28.4340   45.5040 N   0  0  0  0  0  0  0  0  0  0  0  0
   58.2620   27.6620   44.8510 C   0  0  2  0  0  0  0  0  0  0  0  0
   57.7720   26.2320   44.6130 C   0  0  0  0  0  0  0  0  0  0  0  0
   57.5520   25.5120   45.9420 C   0  0  0  0  0  0  0  0  0  0  0  0
   58.8430   25.4820   46.7660 C   0  0  0  0  0  0  0  0  0  0  0  0
   59.4600   26.8150   46.9100 N   0  0  0  0  0  0  0  0  0  0  0  0
   59.3540   27.4900   48.2200 C   0  0  0  0  0  0  0  0  0  0  0  0
   59.6580   28.9620   48.1510 C   0  0  0  0  0  0  0  0  0  0  0  0
   58.6130   29.9000   47.9500 C   0  0  0  0  0  0  0  0  0  0  0  0
   58.8930   31.2740   47.8420 C   0  0  0  0  0  0  0  0  0  0  0  0
   60.2220   31.6790   47.9470 C   0  0  0  0  0  0  0  0  0  0  0  0
   60.7050   32.9270   47.8440 N   0  0  0  0  0  0  0  0  0  0  0  0
   62.0460   32.8160   47.9910 C   0  0  0  0  0  0  0  0  0  0  0  0
   62.4130   31.4890   48.1890 C   0  0  0  0  0  0  0  0  0  0  0  0
   61.2320   30.7810   48.1590 C   0  0  0  0  0  0  0  0  0  0  0  0
   60.9920   29.4150   48.2750 C   0  0  0  0  0  0  0  0  0  0  0  0
   59.5490   27.6610   45.7010 C   0  0  0  0  0  0  0  0  0  0  0  0
   57.5950   31.6450   44.9990 C   0  0  0  0  0  0  0  0  0  0  0  0
   58.4700   34.9390   47.4180 H   0  0  0  0  0  0  0  0  0  0  0  0
   57.1150   34.1840   46.7890 H   0  0  0  0  0  0  0  0  0  0  0  0
   58.5961   33.7605   42.5038 H   0  0  0  0  0  0  0  0  0  0  0  0
   57.5479   31.9705   41.1170 H   0  0  0  0  0  0  0  0  0  0  0  0
   56.5285   29.9739   42.2095 H   0  0  0  0  0  0  0  0  0  0  0  0
   58.5012   28.1296   43.8845 H   0  0  0  0  0  0  0  0  0  0  0  0
   56.8235   26.2625   44.0568 H   0  0  0  0  0  0  0  0  0  0  0  0
   58.5336   25.6872   44.0358 H   0  0  0  0  0  0  0  0  0  0  0  0
   56.7725   26.0384   46.5124 H   0  0  0  0  0  0  0  0  0  0  0  0
   57.2425   24.4770   45.7347 H   0  0  0  0  0  0  0  0  0  0  0  0
   58.6115   25.0916   47.7680 H   0  0  0  0  0  0  0  0  0  0  0  0
   59.5608   24.8402   46.2342 H   0  0  0  0  0  0  0  0  0  0  0  0
   58.3291   27.3614   48.5983 H   0  0  0  0  0  0  0  0  0  0  0  0
   60.0993   27.0317   48.8867 H   0  0  0  0  0  0  0  0  0  0  0  0
   57.5730   29.5491   47.8779 H   0  0  0  0  0  0  0  0  0  0  0  0
   58.0881   32.0059   47.6797 H   0  0  0  0  0  0  0  0  0  0  0  0
   60.1640   33.8040   47.6750 H   0  0  0  0  0  0  0  0  0  0  0  0
   62.7500   33.6606   47.9583 H   0  0  0  0  0  0  0  0  0  0  0  0
   63.4276   31.0909   48.3375 H   0  0  0  0  0  0  0  0  0  0  0  0
   61.8153   28.7088   48.4577 H   0  0  0  0  0  0  0  0  0  0  0  0
   59.7594   28.6942   46.0144 H   0  0  0  0  0  0  0  0  0  0  0  0
   60.3495   27.2426   45.0732 H   0  0  0  0  0  0  0  0  0  0  0  0
   57.6013   31.5582   46.0956 H   0  0  0  0  0  0  0  0  0  0  0  0
  1  2  1  0
  2  3  2  0
  2  4  2  0
  2  5  1  0
  5  6  2  0
  6  7  1  0
  7  8  2  0
  8  9  1  0
  9 10  1  0
 10 11  2  0
 10 12  1  0
 12 13  1  0
 13 14  1  0
 14 15  1  0
 15 16  1  0
 16 17  1  0
 17 18  1  0
 18 19  1  0
 19 20  2  0
 20 21  1  0
 21 22  2  0
 22 23  1  0
 23 24  1  0
 24 25  2  0
 25 26  1  0
 26 27  2  0
 17 28  1  0
  9 29  2  0
 29  5  1  0
 28 13  1  0
 27 19  1  0
 26 22  1  0
  1 30  1  0
  1 31  1  0
  6 32  1  0
  7 33  1  0
  8 34  1  0
 13 35  1  6
 14 36  1  0
 14 37  1  0
 15 38  1  0
 15 39  1  0
 16 40  1  0
 16 41  1  0
 18 42  1  0
 18 43  1  0
 20 44  1  0
 21 45  1  0
 23 46  1  0
 24 47  1  0
 25 48  1  0
 27 49  1  0
 28 50  1  0
 28 51  1  0
 29 52  1  0
M  CHG  1  12  -1
M  END
>  <UniqueID>  (14) 
14

>  <SMILES>  (14) 
NS(=O)(=O)c1cccc(C(=O)[N-][C@@H]2CCCN(Cc3ccc4[nH]ccc4c3)C2)c1

>  <Energy>  (14) 
97.38883020007279

>  <Genealogy>  (14) 
NS(=O)(=O)c1cccc(C(=O)[N-]C2CCCN(Cc3ccc4[nH]ccc4c3)C2)c1 (protonated)
NS(=O)(=O)c1cccc(C(=O)[N-][C@@H]2CCCN(Cc3ccc4[nH]ccc4c3)C2)c1 (chirality)
NS(=O)(=O)c1cccc(C(=O)[N-][C@@H]2CCCN(Cc3ccc4[nH]ccc4c3)C2)c1 (3D coordinates assigned)
NS(=O)(=O)c1cccc(C(=O)[N-][C@@H]2CCCN(Cc3ccc4[nH]ccc4c3)C2)c1 (nonaromatic ring conformer: 97.38883020007279 kcal/mol)

>  <smiles>  (14) 
NS(=O)(=O)c1cccc(C(=O)NC2CCCN(Cc3ccc4[nH]ccc4c3)C2)c1

>  <score_type>  (14) 
oracle

>  <origin>  (14) 
adg

>  <m_score__min__energy>  (14) 
-11.470000000000001

>  <m_primary>  (14) 
energy

$$$$
14:0
     RDKit          3D

 62 66  0  0  0  0  0  0  0  0999 V2000
   53.8410   24.6220   45.6010 O   0  0  0  0  0  0  0  0  0  0  0  0
   55.0120   25.0200   45.8490 C   0  0  0  0  0  0  0  0  0  0  0  0
   55.2530   26.4210   45.9810 N   0  0  0  0  0  0  0  0  0  0  0  0
   56.5250   27.0750   45.8770 C   0  0  0  0  0  0  0  0  0  0  0  0
   57.6710   26.5740   46.5240 C   0  0  0  0  0  0  0  0  0  0  0  0
   58.8960   27.2370   46.4010 C   0  0  0  0  0  0  0  0  0  0  0  0
   58.9900   28.4180   45.6460 C   0  0  0  0  0  0  0  0  0  0  0  0
   60.3230   29.0910   45.4610 C   0  0  0  0  0  0  0  0  0  0  0  0
   60.4740   30.1930   46.4580 C   0  0  0  0  0  0  0  0  0  0  0  0
   60.9600   30.0330   47.7570 C   0  0  0  0  0  0  0  0  0  0  0  0
   60.7530   31.2540   48.3580 C   0  0  0  0  0  0  0  0  0  0  0  0
   60.9500   31.6990   49.6550 C   0  0  0  0  0  0  0  0  0  0  0  0
   61.4720   30.9330   50.5100 O   0  0  0  0  0  0  0  0  0  0  0  0
   60.5530   32.9780   49.9800 N   0  0  0  0  0  0  0  0  0  0  0  0
   60.6900   33.4540   51.3700 C   0  0  0  0  0  0  0  0  0  0  0  0
   62.1570   33.4430   51.8240 C   0  0  0  0  0  0  0  0  0  0  0  0
   63.0430   34.3490   50.9620 C   0  0  0  0  0  0  0  0  0  0  0  0
   63.3040   33.7120   49.6740 N   0  0  0  0  0  0  0  0  0  0  0  0
   63.0450   34.2180   48.4570 C   0  0  0  0  0  0  0  0  0  0  0  0
   63.5440   33.3420   47.5210 C   0  0  0  0  0  0  0  0  0  0  0  0
   64.1310   32.2990   48.1470 N   0  0  0  0  0  0  0  0  0  0  0  0
   63.9670   32.5600   49.4600 C   0  0  0  0  0  0  0  0  0  0  0  0
   59.9800   33.7890   49.0110 C   0  0  0  0  0  0  0  0  0  0  0  0
   59.6070   34.9620   49.2870 O   0  0  0  0  0  0  0  0  0  0  0  0
   59.7920   33.3270   47.7410 N   0  0  0  0  0  0  0  0  0  0  0  0
   60.1810   32.0690   47.4390 C   0  0  0  0  0  0  0  0  0  0  0  0
   59.9980   31.4470   46.2640 N   0  0  0  0  0  0  0  0  0  0  0  0
   57.8400   28.9290   45.0210 C   0  0  0  0  0  0  0  0  0  0  0  0
   56.6170   28.2670   45.1460 C   0  0  0  0  0  0  0  0  0  0  0  0
   56.0970   24.0870   45.8780 N   0  0  0  0  0  0  0  0  0  0  0  0
   57.0660   23.9470   44.7940 C   0  0  0  0  0  0  0  0  0  0  0  0
   57.7660   22.5890   44.9280 C   0  0  0  0  0  0  0  0  0  0  0  0
   56.8220   21.4360   44.5170 C   0  0  0  0  0  0  0  0  0  0  0  0
   55.9500   21.7080   43.4170 O   0  0  0  0  0  0  0  0  0  0  0  0
   56.3950   22.7850   42.6210 C   0  0  0  0  0  0  0  0  0  0  0  0
   56.3720   24.0930   43.4190 C   0  0  0  0  0  0  0  0  0  0  0  0
   57.6023   25.6576   47.1285 H   0  0  0  0  0  0  0  0  0  0  0  0
   59.7901   26.8320   46.8976 H   0  0  0  0  0  0  0  0  0  0  0  0
   61.1274   28.3547   45.6054 H   0  0  0  0  0  0  0  0  0  0  0  0
   60.3820   29.5086   44.4451 H   0  0  0  0  0  0  0  0  0  0  0  0
   61.4084   29.1321   48.2012 H   0  0  0  0  0  0  0  0  0  0  0  0
   60.3025   34.4814   51.4363 H   0  0  0  0  0  0  0  0  0  0  0  0
   60.1198   32.7787   52.0249 H   0  0  0  0  0  0  0  0  0  0  0  0
   62.2065   33.7895   52.8668 H   0  0  0  0  0  0  0  0  0  0  0  0
   62.5314   32.4137   51.7226 H   0  0  0  0  0  0  0  0  0  0  0  0
   62.5314   35.3087   50.7969 H   0  0  0  0  0  0  0  0  0  0  0  0
   63.9978   34.5201   51.4807 H   0  0  0  0  0  0  0  0  0  0  0  0
   62.5260   35.1647   48.2462 H   0  0  0  0  0  0  0  0  0  0  0  0
   63.4755   33.4711   46.4307 H   0  0  0  0  0  0  0  0  0  0  0  0
   64.3334   31.9058   50.2648 H   0  0  0  0  0  0  0  0  0  0  0  0
   59.5390   31.8310   45.4070 H   0  0  0  0  0  0  0  0  0  0  0  0
   57.9035   29.8549   44.4305 H   0  0  0  0  0  0  0  0  0  0  0  0
   55.7190   28.6843   44.6671 H   0  0  0  0  0  0  0  0  0  0  0  0
   57.8192   24.7458   44.8621 H   0  0  0  0  0  0  0  0  0  0  0  0
   58.6535   22.5762   44.2783 H   0  0  0  0  0  0  0  0  0  0  0  0
   58.0559   22.4465   45.9795 H   0  0  0  0  0  0  0  0  0  0  0  0
   57.4444   20.5698   44.2481 H   0  0  0  0  0  0  0  0  0  0  0  0
   56.1659   21.2639   45.3830 H   0  0  0  0  0  0  0  0  0  0  0  0
   57.4231   22.5850   42.2847 H   0  0  0  0  0  0  0  0  0  0  0  0
   55.7237   22.8865   41.7555 H   0  0  0  0  0  0  0  0  0  0  0  0
   56.8913   24.8710   42.8402 H   0  0  0  0  0  0  0  0  0  0  0  0
   55.3207   24.3634   43.5967 H   0  0  0  0  0  0  0  0  0  0  0  0
  1  2  2  0
  2  3  1  0
  3  4  1  0
  4  5  2  0
  5  6  1  0
  6  7  2  0
  7  8  1  0
  8  9  1  0
  9 10  2  0
 10 11  1  0
 11 12  1  0
 12 13  2  0
 12 14  1  0
 14 15  1  0
 15 16  1  0
 16 17  1  0
 17 18  1  0
 18 19  1  0
 19 20  2  0
 20 21  1  0
 21 22  2  0
 14 23  1  0
 23 24  2  0
 23 25  1  0
 25 26  1  0
 26 27  1  0
  7 28  1  0
 28 29  2  0
  2 30  1  0
 30 31  1  0
 31 32  1  0
 32 33  1  0
 33 34  1  0
 34 35  1  0
 35 36  1  0
 29  4  1  0
 36 31  1  0
 27  9  1  0
 26 11  2  0
 22 18  1  0
  5 37  1  0
  6 38  1  0
  8 39  1  0
  8 40  1  0
 10 41  1  0
 15 42  1  0
 15 43  1  0
 16 44  1  0
 16 45  1  0
 17 46  1  0
 17 47  1  0
 19 48  1  0
 20 49  1  0
 22 50  1  0
 27 51  1  0
 28 52  1  0
 29 53  1  0
 31 54  1  0
 32 55  1  0
 32 56  1  0
 33 57  1  0
 33 58  1  0
 35 59  1  0
 35 60  1  0
 36 61  1  0
 36 62  1  0
M  CHG  3   3  -1  25  -1  30  -1
M  END
>  <UniqueID>  (15) 
15

>  <SMILES>  (15) 
O=C([N-]c1ccc(Cc2cc3c(=O)n(CCCn4ccnc4)c(=O)[n-]c3[nH]2)cc1)[N-]C1CCOCC1

>  <Energy>  (15) 
137.70244111555684

>  <Genealogy>  (15) 
O=C([N-]c1ccc(Cc2cc3c(=O)n(CCCn4ccnc4)c(=O)[n-]c3[nH]2)cc1)[N-]C1CCOCC1 (protonated)
O=C([N-]c1ccc(Cc2cc3c(=O)n(CCCn4ccnc4)c(=O)[n-]c3[nH]2)cc1)[N-]C1CCOCC1 (3D coordinates assigned)
O=C([N-]c1ccc(Cc2cc3c(=O)n(CCCn4ccnc4)c(=O)[n-]c3[nH]2)cc1)[N-]C1CCOCC1 (nonaromatic ring conformer: 137.70244111555684 kcal/mol)

>  <smiles>  (15) 
O=C(Nc1ccc(Cc2cc3c(=O)n(CCCn4ccnc4)c(=O)[nH]c3[nH]2)cc1)NC1CCOCC1

>  <score_type>  (15) 
oracle

>  <origin>  (15) 
adg

>  <m_score__min__energy>  (15) 
-13.380000000000001

>  <m_primary>  (15) 
energy

$$$$
15:0
     RDKit          3D

 34 36  0  0  1  0  0  0  0  0999 V2000
   59.3220   35.3020   46.4400 C   0  0  0  0  0  0  0  0  0  0  0  0
   58.6810   34.0980   45.8620 C   0  0  0  0  0  0  0  0  0  0  0  0
   58.3810   33.0700   46.7160 C   0  0  0  0  0  0  0  0  0  0  0  0
   57.7810   31.9560   46.1670 C   0  0  0  0  0  0  0  0  0  0  0  0
   57.5130   31.9100   44.8340 C   0  0  0  0  0  0  0  0  0  0  0  0
   56.6620   30.4840   44.1180 S   0  0  0  0  0  0  0  0  0  0  0  0
   55.2730   30.8300   44.5970 O   0  0  0  0  0  0  0  0  0  0  0  0
   56.9490   30.8110   42.6890 O   0  0  0  0  0  0  0  0  0  0  0  0
   57.5150   29.2770   44.8940 N   0  0  0  0  0  0  0  0  0  0  0  0
   57.2000   28.1840   45.3650 C   0  0  0  0  0  0  0  0  0  0  0  0
   55.9030   27.8630   45.5170 N   0  0  0  0  0  0  0  0  0  0  0  0
   55.5010   26.7070   46.0230 N   0  0  0  0  0  0  0  0  0  0  0  0
   56.4090   25.7680   46.4220 C   0  0  0  0  0  0  0  0  0  0  0  0
   57.7350   26.1020   46.2640 C   0  0  0  0  0  0  0  0  0  0  0  0
   58.6650   25.1680   46.6610 C   0  0  0  0  0  0  0  0  0  0  0  0
   59.9850   25.5150   46.4960 C   0  0  0  0  0  0  0  0  0  0  0  0
   60.4300   26.6810   45.9840 C   0  0  0  0  0  0  0  0  0  0  0  0
   59.4740   27.6570   45.5700 C   0  0  0  0  0  0  0  0  0  0  0  0
   58.1770   27.2960   45.7410 C   0  0  0  0  0  0  0  0  0  0  0  0
   57.8340   32.9770   43.9860 C   0  0  0  0  0  0  0  0  0  0  0  0
   58.4330   34.1020   44.5120 C   0  0  0  0  0  0  0  0  0  0  0  0
   59.2905   35.2428   47.5380 H   0  0  0  0  0  0  0  0  0  0  0  0
   60.3685   35.3565   46.1056 H   0  0  0  0  0  0  0  0  0  0  0  0
   58.7829   36.2007   46.1056 H   0  0  0  0  0  0  0  0  0  0  0  0
   58.6082   33.1301   47.7906 H   0  0  0  0  0  0  0  0  0  0  0  0
   57.5184   31.1022   46.8089 H   0  0  0  0  0  0  0  0  0  0  0  0
   55.1520   28.5280   45.2350 H   0  0  0  0  0  0  0  0  0  0  0  0
   56.0987   24.8011   46.8450 H   0  0  0  0  0  0  0  0  0  0  0  0
   58.3685   24.1980   47.0866 H   0  0  0  0  0  0  0  0  0  0  0  0
   60.7419   24.7801   46.8077 H   0  0  0  0  0  0  0  0  0  0  0  0
   61.5083   26.8759   45.8874 H   0  0  0  0  0  0  0  0  0  0  0  0
   59.7665   28.6283   45.1445 H   0  0  0  0  0  0  0  0  0  0  0  0
   57.6105   32.9183   42.9106 H   0  0  0  0  0  0  0  0  0  0  0  0
   58.6995   34.9618   43.8798 H   0  0  0  0  0  0  0  0  0  0  0  0
  1  2  1  0
  2  3  2  0
  3  4  1  0
  4  5  2  0
  5  6  1  0
  6  7  2  0
  6  8  2  0
  6  9  1  0
  9 10  2  0
 10 11  1  0
 11 12  1  0
 12 13  2  0
 13 14  1  0
 14 15  2  0
 15 16  1  0
 16 17  2  0
 17 18  1  0
 18 19  2  0
  5 20  1  0
 20 21  2  0
 21  2  1  0
 19 10  1  0
 19 14  1  0
  1 22  1  0
  1 23  1  0
  1 24  1  0
  3 25  1  0
  4 26  1  0
 11 27  1  0
 13 28  1  0
 15 29  1  0
 16 30  1  0
 17 31  1  0
 18 32  1  0
 20 33  1  0
 21 34  1  0
M  END
>  <smiles>  (16) 
Cc1ccc(S(=O)(=O)N=c2[nH]ncc3ccccc23)cc1

>  <score_type>  (16) 
oracle

>  <origin>  (16) 
adg

>  <m_score__min__energy>  (16) 
-8.7400000000000002

>  <m_primary>  (16) 
energy

$$$$
16:0
     RDKit          3D

 30 31  0  0  0  0  0  0  0  0999 V2000
   61.4690   34.1580   47.2990 N   0  0  0  0  0  0  0  0  0  0  0  0
   59.8120   34.6490   47.2620 S   0  0  0  0  0  0  0  0  0  0  0  0
   59.3560   34.9500   48.6620 O   0  0  0  0  0  0  0  0  0  0  0  0
   59.6830   35.8860   46.4190 O   0  0  0  0  0  0  0  0  0  0  0  0
   58.8230   33.3280   46.5700 C   0  0  0  0  0  0  0  0  0  0  0  0
   57.8840   33.8340   45.4710 C   0  0  0  0  0  0  0  0  0  0  0  0
   58.4650   33.6340   44.1470 N   0  0  0  0  0  0  0  0  0  0  0  0
   58.1310   32.5380   43.2880 C   0  0  0  0  0  0  0  0  0  0  0  0
   58.2020   32.6720   42.0360 O   0  0  0  0  0  0  0  0  0  0  0  0
   57.7090   31.2560   43.8790 C   0  0  0  0  0  0  0  0  0  0  0  0
   56.3600   30.8740   43.9010 C   0  0  0  0  0  0  0  0  0  0  0  0
   55.9910   29.6530   44.4740 C   0  0  0  0  0  0  0  0  0  0  0  0
   54.7720   29.3290   44.4830 O   0  0  0  0  0  0  0  0  0  0  0  0
   56.9770   28.8080   45.0290 C   0  0  0  0  0  0  0  0  0  0  0  0
   56.6770   27.5610   45.6250 C   0  0  0  0  0  0  0  0  0  0  0  0
   55.3700   27.0870   45.6980 O   0  0  0  0  0  0  0  0  0  0  0  0
   57.7040   26.7730   46.1580 C   0  0  0  0  0  0  0  0  0  0  0  0
   59.0290   27.2100   46.1060 C   0  0  0  0  0  0  0  0  0  0  0  0
   59.3410   28.4380   45.5220 C   0  0  0  0  0  0  0  0  0  0  0  0
   58.3280   29.2380   44.9850 C   0  0  0  0  0  0  0  0  0  0  0  0
   58.6460   30.4320   44.4190 N   0  0  0  0  0  0  0  0  0  0  0  0
   61.8580   34.4680   48.2170 H   0  0  0  0  0  0  0  0  0  0  0  0
   59.4936   32.5678   46.1428 H   0  0  0  0  0  0  0  0  0  0  0  0
   58.2069   32.9044   47.3768 H   0  0  0  0  0  0  0  0  0  0  0  0
   56.9323   33.2858   45.5317 H   0  0  0  0  0  0  0  0  0  0  0  0
   57.7212   34.9115   45.6208 H   0  0  0  0  0  0  0  0  0  0  0  0
   55.5934   31.5336   43.4683 H   0  0  0  0  0  0  0  0  0  0  0  0
   57.4657   25.8038   46.6205 H   0  0  0  0  0  0  0  0  0  0  0  0
   59.8296   26.5840   46.5269 H   0  0  0  0  0  0  0  0  0  0  0  0
   60.3866   28.7776   45.4840 H   0  0  0  0  0  0  0  0  0  0  0  0
  1  2  1  0
  2  3  2  0
  2  4  2  0
  2  5  1  0
  5  6  1  0
  6  7  1  0
  7  8  1  0
  8  9  2  0
  8 10  1  0
 10 11  2  0
 11 12  1  0
 12 13  2  0
 12 14  1  0
 14 15  2  0
 15 16  1  0
 15 17  1  0
 17 18  2  0
 18 19  1  0
 19 20  2  0
 20 21  1  0
 21 10  1  0
 20 14  1  0
  1 22  1  0
  5 23  1  0
  5 24  1  0
  6 25  1  0
  6 26  1  0
 11 27  1  0
 17 28  1  0
 18 29  1  0
 19 30  1  0
M  CHG  4   1  -1   7  -1  16  -1  21  -1
M  END
>  <UniqueID>  (17) 
16

>  <SMILES>  (17) 
[NH-]S(=O)(=O)CC[N-]C(=O)c1cc(=O)c2c([O-])cccc2[n-]1

>  <Energy>  (17) 
27.904127271553076

>  <Genealogy>  (17) 
[NH-]S(=O)(=O)CC[N-]C(=O)c1cc(=O)c2c([O-])cccc2[n-]1 (protonated)
[NH-]S(=O)(=O)CC[N-]C(=O)c1cc(=O)c2c([O-])cccc2[n-]1 (3D coordinates assigned)
[NH-]S(=O)(=O)CC[N-]C(=O)c1cc(=O)c2c([O-])cccc2[n-]1 (optimized conformer: 27.904127271553076 kcal/mol)

>  <smiles>  (17) 
NS(=O)(=O)CCNC(=O)c1cc(=O)c2c(O)cccc2[nH]1

>  <score_type>  (17) 
oracle

>  <origin>  (17) 
adg

>  <m_score__min__energy>  (17) 
-13.789999999999999

>  <m_primary>  (17) 
energy

$$$$
17:0
     RDKit          3D

 61 64  0  0  0  0  0  0  0  0999 V2000
   61.6979   30.0769   46.2485 H   0  0  0  0  0  0  0  0  0  0  0  0
   61.2700   30.9470   46.7680 C   0  0  0  0  0  0  0  0  0  0  0  0
   62.2270   31.8610   47.4400 C   0  0  0  0  0  0  0  0  0  0  0  0
   62.7070   32.7990   46.7430 O   0  0  0  0  0  0  0  0  0  0  0  0
   62.6820   31.6500   48.8100 N   0  0  2  0  0  0  0  0  0  0  0  0
   63.6490   31.2650   48.7790 H   0  0  0  0  0  0  0  0  0  0  0  0
   61.8760   30.6440   49.5440 C   0  0  0  0  0  0  0  0  0  0  0  0
   62.4254   30.3462   50.4493 H   0  0  0  0  0  0  0  0  0  0  0  0
   61.7128   29.7926   48.8669 H   0  0  0  0  0  0  0  0  0  0  0  0
   60.5190   31.1660   49.9530 C   0  0  0  0  0  0  0  0  0  0  0  0
   59.4990   30.2580   50.2780 C   0  0  0  0  0  0  0  0  0  0  0  0
   59.6842   29.1766   50.1994 H   0  0  0  0  0  0  0  0  0  0  0  0
   58.2490   30.7200   50.7010 C   0  0  0  0  0  0  0  0  0  0  0  0
   57.4491   30.0030   50.9377 H   0  0  0  0  0  0  0  0  0  0  0  0
   58.0160   32.0900   50.8230 C   0  0  0  0  0  0  0  0  0  0  0  0
   57.0309   32.4520   51.1525 H   0  0  0  0  0  0  0  0  0  0  0  0
   59.0330   33.0050   50.5270 C   0  0  0  0  0  0  0  0  0  0  0  0
   58.8450   34.0842   50.6270 H   0  0  0  0  0  0  0  0  0  0  0  0
   60.2920   32.5510   50.1030 C   0  0  0  0  0  0  0  0  0  0  0  0
   61.3500   33.5560   49.7350 C   0  0  0  0  0  0  0  0  0  0  0  0
   61.4024   34.3190   50.5256 H   0  0  0  0  0  0  0  0  0  0  0  0
   61.0708   33.9966   48.7665 H   0  0  0  0  0  0  0  0  0  0  0  0
   62.7370   32.9160   49.5750 C   0  0  0  0  0  0  0  0  0  0  0  0
   63.1494   32.7092   50.5736 H   0  0  0  0  0  0  0  0  0  0  0  0
   63.3725   33.6204   49.0183 H   0  0  0  0  0  0  0  0  0  0  0  0
   59.9360   31.0760   46.7310 C   0  0  0  0  0  0  0  0  0  0  0  0
   59.3366   30.2679   47.1757 H   0  0  0  0  0  0  0  0  0  0  0  0
   59.2080   32.2160   46.1410 C   0  0  0  0  0  0  0  0  0  0  0  0
   59.2010   33.4370   46.8260 C   0  0  0  0  0  0  0  0  0  0  0  0
   59.7437   33.5324   47.7780 H   0  0  0  0  0  0  0  0  0  0  0  0
   58.5100   34.5340   46.3090 C   0  0  0  0  0  0  0  0  0  0  0  0
   58.5354   35.4985   46.8373 H   0  0  0  0  0  0  0  0  0  0  0  0
   57.7880   34.4080   45.1240 C   0  0  0  0  0  0  0  0  0  0  0  0
   57.2503   35.2755   44.7136 H   0  0  0  0  0  0  0  0  0  0  0  0
   57.7460   33.1830   44.4570 C   0  0  0  0  0  0  0  0  0  0  0  0
   57.1634   33.0865   43.5290 H   0  0  0  0  0  0  0  0  0  0  0  0
   58.4440   32.0690   44.9630 C   0  0  0  0  0  0  0  0  0  0  0  0
   58.4020   30.8130   44.3320 O   0  0  0  0  0  0  0  0  0  0  0  0
   57.2340   30.2260   43.7560 C   0  0  0  0  0  0  0  0  0  0  0  0
   57.5333   29.4964   42.9892 H   0  0  0  0  0  0  0  0  0  0  0  0
   56.6202   31.0163   43.2993 H   0  0  0  0  0  0  0  0  0  0  0  0
   56.4360   29.5340   44.8130 C   0  0  0  0  0  0  0  0  0  0  0  0
   55.2140   29.2890   44.6230 O   0  0  0  0  0  0  0  0  0  0  0  0
   57.0660   29.1690   46.0400 N   0  0  0  0  0  0  0  0  0  0  0  0
   58.3150   27.9750   46.1240 S   0  0  0  0  0  0  0  0  0  0  0  0
   58.6090   27.6700   47.5650 O   0  0  0  0  0  0  0  0  0  0  0  0
   59.5570   28.5080   45.4660 O   0  0  0  0  0  0  0  0  0  0  0  0
   57.7620   26.5020   45.3350 C   0  0  0  0  0  0  0  0  0  0  0  0
   57.2080   25.4720   46.1070 C   0  0  0  0  0  0  0  0  0  0  0  0
   57.1451   25.5802   47.1999 H   0  0  0  0  0  0  0  0  0  0  0  0
   56.7350   24.3080   45.4950 C   0  0  0  0  0  0  0  0  0  0  0  0
   56.3040   23.5027   46.1080 H   0  0  0  0  0  0  0  0  0  0  0  0
   56.8080   24.1630   44.1010 C   0  0  0  0  0  0  0  0  0  0  0  0
   56.2770   22.9340   43.4310 C   0  0  0  0  0  0  0  0  0  0  0  0
   55.9629   22.2069   44.1943 H   0  0  0  0  0  0  0  0  0  0  0  0
   55.4145   23.2023   42.8032 H   0  0  0  0  0  0  0  0  0  0  0  0
   57.0635   22.4898   42.8032 H   0  0  0  0  0  0  0  0  0  0  0  0
   57.3710   25.1900   43.3310 C   0  0  0  0  0  0  0  0  0  0  0  0
   57.4396   25.0799   42.2387 H   0  0  0  0  0  0  0  0  0  0  0  0
   57.8460   26.3540   43.9440 C   0  0  0  0  0  0  0  0  0  0  0  0
   58.2866   27.1553   43.3327 H   0  0  0  0  0  0  0  0  0  0  0  0
  1  2  1  0
  2  3  1  0
  3  4  2  0
  3  5  1  0
  5  6  1  6
  5  7  1  0
  7  8  1  0
  7  9  1  0
  7 10  1  0
 10 11  2  0
 11 12  1  0
 11 13  1  0
 13 14  1  0
 13 15  2  0
 15 16  1  0
 15 17  1  0
 17 18  1  0
 17 19  2  0
 19 20  1  0
 20 21  1  0
 20 22  1  0
 20 23  1  0
 23 24  1  0
 23 25  1  0
  2 26  2  0
 26 27  1  0
 26 28  1  0
 28 29  2  0
 29 30  1  0
 29 31  1  0
 31 32  1  0
 31 33  2  0
 33 34  1  0
 33 35  1  0
 35 36  1  0
 35 37  2  0
 37 38  1  0
 38 39  1  0
 39 40  1  0
 39 41  1  0
 39 42  1  0
 42 43  2  0
 42 44  1  0
 44 45  1  0
 45 46  2  0
 45 47  2  0
 45 48  1  0
 48 49  2  0
 49 50  1  0
 49 51  1  0
 51 52  1  0
 51 53  2  0
 53 54  1  0
 54 55  1  0
 54 56  1  0
 54 57  1  0
 53 58  1  0
 58 59  1  0
 58 60  2  0
 60 61  1  0
 23  5  1  0
 37 28  1  0
 60 48  1  0
 19 10  1  0
M  CHG  2   5   1  44  -1
M  END
>  <UniqueID>  (18) 
17

>  <SMILES>  (18) 
Cc1ccc(S(=O)(=O)[N-]C(=O)COc2ccccc2/C=C\C(=O)[N@H+]2CCc3ccccc3C2)cc1

>  <Energy>  (18) 
81.41041480432416

>  <Genealogy>  (18) 
Cc1ccc(S(=O)(=O)[N-]C(=O)COc2ccccc2C=CC(=O)[NH+]2CCc3ccccc3C2)cc1 (protonated)
Cc1ccc(S(=O)(=O)[N-]C(=O)COc2ccccc2C=CC(=O)[N@H+]2CCc3ccccc3C2)cc1 (chirality)
Cc1ccc(S(=O)(=O)[N-]C(=O)COc2ccccc2/C=C\C(=O)[N@H+]2CCc3ccccc3C2)cc1 (cis-trans isomerization)
Cc1ccc(S(=O)(=O)[N-]C(=O)COc2ccccc2/C=C\C(=O)[N@H+]2CCc3ccccc3C2)cc1 (3D coordinates assigned)
Cc1ccc(S(=O)(=O)[N-]C(=O)COc2ccccc2/C=C\C(=O)[N@H+]2CCc3ccccc3C2)cc1 (nonaromatic ring conformer: 81.41041480432416 kcal/mol)

>  <smiles>  (18) 
Cc1ccc(S(=O)(=O)NC(=O)COc2ccccc2C=CC(=O)N2CCc3ccccc3C2)cc1

>  <score_type>  (18) 
oracle

>  <origin>  (18) 
adg

>  <m_score__min__energy>  (18) 
-9.8599999999999994

>  <m_primary>  (18) 
energy

$$$$
18:0
     RDKit          3D

 61 64  0  0  0  0  0  0  0  0999 V2000
   60.1390   35.3670   46.3140 C   0  0  0  0  0  0  0  0  0  0  0  0
   59.1580   34.3340   45.8450 C   0  0  0  0  0  0  0  0  0  0  0  0
   59.0790   33.9790   44.4980 C   0  0  0  0  0  0  0  0  0  0  0  0
   58.1600   33.0180   44.0690 C   0  0  0  0  0  0  0  0  0  0  0  0
   57.2720   32.4310   44.9840 C   0  0  0  0  0  0  0  0  0  0  0  0
   56.2890   31.4680   44.5870 N   0  0  0  0  0  0  0  0  0  0  0  0
   56.6340   29.7880   44.3180 S   0  0  0  0  0  0  0  0  0  0  0  0
   56.8310   29.5640   42.8520 O   0  0  0  0  0  0  0  0  0  0  0  0
   55.4600   28.9710   44.7650 O   0  0  0  0  0  0  0  0  0  0  0  0
   58.0900   29.2810   45.1640 C   0  0  0  0  0  0  0  0  0  0  0  0
   59.0440   28.4880   44.5180 C   0  0  0  0  0  0  0  0  0  0  0  0
   60.1710   28.0510   45.2090 C   0  0  0  0  0  0  0  0  0  0  0  0
   60.3680   28.4220   46.5400 C   0  0  0  0  0  0  0  0  0  0  0  0
   59.4380   29.2450   47.1960 C   0  0  0  0  0  0  0  0  0  0  0  0
   59.6460   29.6510   48.6070 C   0  0  0  0  0  0  0  0  0  0  0  0
   60.4360   28.9900   49.3360 O   0  0  0  0  0  0  0  0  0  0  0  0
   58.9230   30.7580   49.1660 N   0  0  0  0  0  0  0  0  0  0  0  0
   59.4260   31.5880   50.2300 C   0  0  0  0  0  0  0  0  0  0  0  0
   58.5230   32.1800   51.1300 C   0  0  0  0  0  0  0  0  0  0  0  0
   58.9870   33.0040   52.1560 C   0  0  0  0  0  0  0  0  0  0  0  0
   60.3540   33.2530   52.2910 C   0  0  0  0  0  0  0  0  0  0  0  0
   61.2690   32.6830   51.3980 C   0  0  0  0  0  0  0  0  0  0  0  0
   62.9960   33.0150   51.5680 S   0  0  0  0  0  0  0  0  0  0  0  0
   63.2050   33.8830   52.7770 O   0  0  0  0  0  0  0  0  0  0  0  0
   63.6980   31.7110   51.8210 O   0  0  0  0  0  0  0  0  0  0  0  0
   63.7200   33.7560   50.1530 N   0  0  0  0  0  0  0  0  0  0  0  0
   64.5630   32.8410   49.3530 C   0  0  0  0  0  0  0  0  0  0  0  0
   63.7730   32.0280   48.3060 C   0  0  0  0  0  0  0  0  0  0  0  0
   62.8670   32.9260   47.4670 C   0  0  0  0  0  0  0  0  0  0  0  0
   61.9570   33.7560   48.3730 C   0  0  0  0  0  0  0  0  0  0  0  0
   62.7950   34.5860   49.3530 C   0  0  0  0  0  0  0  0  0  0  0  0
   60.7990   31.8700   50.3560 C   0  0  0  0  0  0  0  0  0  0  0  0
   58.2910   29.6590   46.4980 C   0  0  0  0  0  0  0  0  0  0  0  0
   57.3030   32.8330   46.3300 C   0  0  0  0  0  0  0  0  0  0  0  0
   58.2550   33.7650   46.7570 C   0  0  0  0  0  0  0  0  0  0  0  0
   60.1555   35.3844   47.4137 H   0  0  0  0  0  0  0  0  0  0  0  0
   61.1418   35.1186   45.9361 H   0  0  0  0  0  0  0  0  0  0  0  0
   59.8392   36.3556   45.9361 H   0  0  0  0  0  0  0  0  0  0  0  0
   59.7461   34.4599   43.7674 H   0  0  0  0  0  0  0  0  0  0  0  0
   58.1323   32.7203   43.0104 H   0  0  0  0  0  0  0  0  0  0  0  0
   58.9038   28.2094   43.4632 H   0  0  0  0  0  0  0  0  0  0  0  0
   60.9092   27.4107   44.7038 H   0  0  0  0  0  0  0  0  0  0  0  0
   61.2585   28.0671   47.0794 H   0  0  0  0  0  0  0  0  0  0  0  0
   57.9460   30.9180   48.8340 H   0  0  0  0  0  0  0  0  0  0  0  0
   57.4442   31.9926   51.0248 H   0  0  0  0  0  0  0  0  0  0  0  0
   58.2742   33.4583   52.8599 H   0  0  0  0  0  0  0  0  0  0  0  0
   60.7142   33.9008   53.1038 H   0  0  0  0  0  0  0  0  0  0  0  0
   65.3229   33.4384   48.8280 H   0  0  0  0  0  0  0  0  0  0  0  0
   65.0081   32.1185   50.0529 H   0  0  0  0  0  0  0  0  0  0  0  0
   64.4837   31.5159   47.6407 H   0  0  0  0  0  0  0  0  0  0  0  0
   63.1414   31.3015   48.8383 H   0  0  0  0  0  0  0  0  0  0  0  0
   63.4874   33.6010   46.8592 H   0  0  0  0  0  0  0  0  0  0  0  0
   62.2444   32.2966   46.8142 H   0  0  0  0  0  0  0  0  0  0  0  0
   61.3475   34.4313   47.7545 H   0  0  0  0  0  0  0  0  0  0  0  0
   61.3062   33.0777   48.9443 H   0  0  0  0  0  0  0  0  0  0  0  0
   63.3836   35.3183   48.7810 H   0  0  0  0  0  0  0  0  0  0  0  0
   62.1016   35.0792   50.0501 H   0  0  0  0  0  0  0  0  0  0  0  0
   61.5104   31.4488   49.6304 H   0  0  0  0  0  0  0  0  0  0  0  0
   57.5429   30.2866   47.0043 H   0  0  0  0  0  0  0  0  0  0  0  0
   56.5802   32.4158   47.0466 H   0  0  0  0  0  0  0  0  0  0  0  0
   58.2964   34.0547   47.8174 H   0  0  0  0  0  0  0  0  0  0  0  0
  1  2  1  0
  2  3  2  0
  3  4  1  0
  4  5  2  0
  5  6  1  0
  6  7  1  0
  7  8  2  0
  7  9  2  0
  7 10  1  0
 10 11  2  0
 11 12  1  0
 12 13  2  0
 13 14  1  0
 14 15  1  0
 15 16  2  0
 15 17  1  0
 17 18  1  0
 18 19  2  0
 19 20  1  0
 20 21  2  0
 21 22  1  0
 22 23  1  0
 23 24  2  0
 23 25  2  0
 23 26  1  0
 26 27  1  0
 27 28  1  0
 28 29  1  0
 29 30  1  0
 30 31  1  0
 22 32  2  0
 14 33  2  0
  5 34  1  0
 34 35  2  0
 35  2  1  0
 33 10  1  0
 32 18  1  0
 31 26  1  0
  1 36  1  0
  1 37  1  0
  1 38  1  0
  3 39  1  0
  4 40  1  0
 11 41  1  0
 12 42  1  0
 13 43  1  0
 17 44  1  0
 19 45  1  0
 20 46  1  0
 21 47  1  0
 27 48  1  0
 27 49  1  0
 28 50  1  0
 28 51  1  0
 29 52  1  0
 29 53  1  0
 30 54  1  0
 30 55  1  0
 31 56  1  0
 31 57  1  0
 32 58  1  0
 33 59  1  0
 34 60  1  0
 35 61  1  0
M  CHG  1   6  -1
M  END
>  <UniqueID>  (19) 
18

>  <SMILES>  (19) 
Cc1ccc([N-]S(=O)(=O)c2cccc(C(=O)Nc3cccc(S(=O)(=O)N4CCCCC4)c3)c2)cc1

>  <Energy>  (19) 
76.19121556763994

>  <Genealogy>  (19) 
Cc1ccc([N-]S(=O)(=O)c2cccc(C(=O)Nc3cccc(S(=O)(=O)N4CCCCC4)c3)c2)cc1 (protonated)
Cc1ccc([N-]S(=O)(=O)c2cccc(C(=O)Nc3cccc(S(=O)(=O)N4CCCCC4)c3)c2)cc1 (3D coordinates assigned)
Cc1ccc([N-]S(=O)(=O)c2cccc(C(=O)Nc3cccc(S(=O)(=O)N4CCCCC4)c3)c2)cc1 (nonaromatic ring conformer: 76.19121556763994 kcal/mol)

>  <smiles>  (19) 
Cc1ccc(NS(=O)(=O)c2cccc(C(=O)Nc3cccc(S(=O)(=O)N4CCCCC4)c3)c2)cc1

>  <score_type>  (19) 
oracle

>  <origin>  (19) 
adg

>  <m_score__min__energy>  (19) 
-11.710000000000001

>  <m_primary>  (19) 
energy

$$$$
19:0
     RDKit          3D

 49 52  0  0  0  0  0  0  0  0999 V2000
   55.7250   19.5300   44.6550 C   0  0  0  0  0  0  0  0  0  0  0  0
   56.9900   20.2230   44.9600 N   0  0  0  0  0  0  0  0  0  0  0  0
   57.2440   20.2520   46.4270 C   0  0  0  0  0  0  0  0  0  0  0  0
   56.8900   21.6100   47.0480 C   0  0  0  0  0  0  0  0  0  0  0  0
   57.7080   22.6930   46.4620 N   0  0  0  0  0  0  0  0  0  0  0  0
   56.9440   24.2370   46.7500 S   0  0  0  0  0  0  0  0  0  0  0  0
   55.6820   24.3380   45.9390 O   0  0  0  0  0  0  0  0  0  0  0  0
   56.5990   24.3670   48.2080 O   0  0  0  0  0  0  0  0  0  0  0  0
   58.0240   25.5400   46.2640 C   0  0  0  0  0  0  0  0  0  0  0  0
   59.3770   25.5280   46.6280 C   0  0  0  0  0  0  0  0  0  0  0  0
   60.2190   26.5710   46.2280 C   0  0  0  0  0  0  0  0  0  0  0  0
   59.7120   27.6340   45.4770 C   0  0  0  0  0  0  0  0  0  0  0  0
   58.3570   27.6700   45.1290 C   0  0  0  0  0  0  0  0  0  0  0  0
   57.8670   28.7720   44.3500 N   0  0  0  0  0  0  0  0  0  0  0  0
   57.0810   29.8660   44.8390 C   0  0  0  0  0  0  0  0  0  0  0  0
   55.8260   29.7750   44.8000 O   0  0  0  0  0  0  0  0  0  0  0  0
   57.7070   31.1170   45.3180 C   0  0  0  0  0  0  0  0  0  0  0  0
   58.1370   31.4220   46.9280 S   0  0  0  0  0  0  0  0  0  0  0  0
   58.7570   32.9520   46.6380 C   0  0  0  0  0  0  0  0  0  0  0  0
   59.3060   33.8450   47.5550 C   0  0  0  0  0  0  0  0  0  0  0  0
   59.7620   35.0840   47.0830 C   0  0  0  0  0  0  0  0  0  0  0  0
   59.6600   35.4050   45.7160 C   0  0  0  0  0  0  0  0  0  0  0  0
   59.1020   34.4880   44.8080 C   0  0  0  0  0  0  0  0  0  0  0  0
   58.6500   33.2520   45.2860 C   0  0  0  0  0  0  0  0  0  0  0  0
   58.0660   32.2210   44.5320 C   0  0  0  0  0  0  0  0  0  0  0  0
   57.7710   32.3380   42.8010 Cl  0  0  0  0  0  0  0  0  0  0  0  0
   57.5200   26.6040   45.5030 C   0  0  0  0  0  0  0  0  0  0  0  0
   58.0030   22.5040   45.0210 C   0  0  0  0  0  0  0  0  0  0  0  0
   56.9960   21.5690   44.3340 C   0  0  0  0  0  0  0  0  0  0  0  0
   55.2222   19.2546   45.5938 H   0  0  0  0  0  0  0  0  0  0  0  0
   55.0729   20.1969   44.0718 H   0  0  0  0  0  0  0  0  0  0  0  0
   55.9360   18.6215   44.0718 H   0  0  0  0  0  0  0  0  0  0  0  0
   57.7580   19.6630   44.5170 H   0  0  0  0  0  0  0  0  0  0  0  0
   56.6347   19.4726   46.9078 H   0  0  0  0  0  0  0  0  0  0  0  0
   58.3177   20.0757   46.5882 H   0  0  0  0  0  0  0  0  0  0  0  0
   55.8267   21.8231   46.8636 H   0  0  0  0  0  0  0  0  0  0  0  0
   57.0936   21.5639   48.1280 H   0  0  0  0  0  0  0  0  0  0  0  0
   59.7773   24.6979   47.2286 H   0  0  0  0  0  0  0  0  0  0  0  0
   61.2833   26.5540   46.5056 H   0  0  0  0  0  0  0  0  0  0  0  0
   60.3810   28.4467   45.1576 H   0  0  0  0  0  0  0  0  0  0  0  0
   59.3799   33.5851   48.6213 H   0  0  0  0  0  0  0  0  0  0  0  0
   60.2016   35.8087   47.7841 H   0  0  0  0  0  0  0  0  0  0  0  0
   60.0194   36.3802   45.3558 H   0  0  0  0  0  0  0  0  0  0  0  0
   59.0219   34.7375   43.7397 H   0  0  0  0  0  0  0  0  0  0  0  0
   56.4635   26.6049   45.1967 H   0  0  0  0  0  0  0  0  0  0  0  0
   57.9717   23.4841   44.5226 H   0  0  0  0  0  0  0  0  0  0  0  0
   58.9980   22.0420   44.9405 H   0  0  0  0  0  0  0  0  0  0  0  0
   55.9896   22.0056   44.4152 H   0  0  0  0  0  0  0  0  0  0  0  0
   57.2906   21.4585   43.2799 H   0  0  0  0  0  0  0  0  0  0  0  0
  1  2  1  0
  2  3  1  0
  3  4  1  0
  4  5  1  0
  5  6  1  0
  6  7  2  0
  6  8  2  0
  6  9  1  0
  9 10  2  0
 10 11  1  0
 11 12  2  0
 12 13  1  0
 13 14  1  0
 14 15  1  0
 15 16  2  0
 15 17  1  0
 17 18  1  0
 18 19  1  0
 19 20  2  0
 20 21  1  0
 21 22  2  0
 22 23  1  0
 23 24  2  0
 24 25  1  0
 25 26  1  0
 13 27  2  0
  5 28  1  0
 28 29  1  0
 29  2  1  0
 27  9  1  0
 25 17  2  0
 24 19  1  0
  1 30  1  0
  1 31  1  0
  1 32  1  0
  2 33  1  0
  3 34  1  0
  3 35  1  0
  4 36  1  0
  4 37  1  0
 10 38  1  0
 11 39  1  0
 12 40  1  0
 20 41  1  0
 21 42  1  0
 22 43  1  0
 23 44  1  0
 27 45  1  0
 28 46  1  0
 28 47  1  0
 29 48  1  0
 29 49  1  0
M  CHG  2   2   1  14  -1
M  END
>  <UniqueID>  (20) 
19

>  <SMILES>  (20) 
C[NH+]1CCN(S(=O)(=O)c2cccc([N-]C(=O)c3sc4ccccc4c3Cl)c2)CC1

>  <Energy>  (20) 
99.68622452521782

>  <Genealogy>  (20) 
C[NH+]1CCN(S(=O)(=O)c2cccc([N-]C(=O)c3sc4ccccc4c3Cl)c2)CC1 (protonated)
C[NH+]1CCN(S(=O)(=O)c2cccc([N-]C(=O)c3sc4ccccc4c3Cl)c2)CC1 (3D coordinates assigned)
C[NH+]1CCN(S(=O)(=O)c2cccc([N-]C(=O)c3sc4ccccc4c3Cl)c2)CC1 (nonaromatic ring conformer: 99.68622452521782 kcal/mol)

>  <smiles>  (20) 
CN1CCN(S(=O)(=O)c2cccc(NC(=O)c3sc4ccccc4c3Cl)c2)CC1

>  <score_type>  (20) 
oracle

>  <origin>  (20) 
adg

>  <m_score__min__energy>  (20) 
-10.1

>  <m_primary>  (20) 
energy

$$$$
20:0
     RDKit          3D

 71 74  0  0  0  0  0  0  0  0999 V2000
   56.1904   29.7269   42.0296 H   0  0  0  0  0  0  0  0  0  0  0  0
   56.6360   30.5040   42.6680 C   0  0  0  0  0  0  0  0  0  0  0  0
   56.5230   30.4160   44.0570 C   0  0  0  0  0  0  0  0  0  0  0  0
   55.9780   29.5753   44.5110 H   0  0  0  0  0  0  0  0  0  0  0  0
   57.1010   31.3940   44.8720 C   0  0  0  0  0  0  0  0  0  0  0  0
   57.0117   31.3165   45.9656 H   0  0  0  0  0  0  0  0  0  0  0  0
   57.7970   32.4780   44.3020 C   0  0  0  0  0  0  0  0  0  0  0  0
   58.4070   33.5210   45.1620 C   0  0  0  0  0  0  0  0  0  0  0  0
   57.8850   34.6670   45.2120 O   0  0  0  0  0  0  0  0  0  0  0  0
   59.6310   33.2370   45.8620 N   0  0  0  0  0  0  0  0  0  0  0  0
   59.8310   32.5650   46.9640 C   0  0  0  0  0  0  0  0  0  0  0  0
   59.2450   33.1010   48.2100 C   0  0  0  0  0  0  0  0  0  0  0  0
   59.4370   34.3090   48.5180 O   0  0  0  0  0  0  0  0  0  0  0  0
   58.4200   32.2610   49.0300 N   0  0  0  0  0  0  0  0  0  0  0  0
   58.2370   32.3180   50.4530 C   0  0  0  0  0  0  0  0  0  0  0  0
   58.8490   33.2980   51.2580 C   0  0  0  0  0  0  0  0  0  0  0  0
   59.4824   34.0697   50.7962 H   0  0  0  0  0  0  0  0  0  0  0  0
   58.6540   33.2930   52.6420 C   0  0  0  0  0  0  0  0  0  0  0  0
   59.1230   34.0691   53.2647 H   0  0  0  0  0  0  0  0  0  0  0  0
   57.8650   32.3050   53.2370 C   0  0  0  0  0  0  0  0  0  0  0  0
   57.7107   32.3074   54.3261 H   0  0  0  0  0  0  0  0  0  0  0  0
   57.2700   31.3110   52.4480 C   0  0  0  0  0  0  0  0  0  0  0  0
   56.3200   30.0230   53.1840 S   0  0  0  0  0  0  0  0  0  0  0  0
   56.4700   28.7540   52.3900 O   0  0  0  0  0  0  0  0  0  0  0  0
   56.8310   29.7800   54.5780 O   0  0  0  0  0  0  0  0  0  0  0  0
   54.6380   30.4940   53.2400 N   0  0  0  0  0  0  0  0  0  0  0  0
   54.5390   31.1580   54.0430 H   0  0  0  0  0  0  0  0  0  0  0  0
   53.7910   29.3130   53.5180 C   0  0  0  0  0  0  0  0  0  0  0  0
   54.2082   28.4392   52.9960 H   0  0  0  0  0  0  0  0  0  0  0  0
   53.7748   29.1389   54.6040 H   0  0  0  0  0  0  0  0  0  0  0  0
   52.3490   29.5480   53.0350 C   0  0  0  0  0  0  0  0  0  0  0  0
   51.7546   28.6535   53.2729 H   0  0  0  0  0  0  0  0  0  0  0  0
   51.9841   30.4489   53.5500 H   0  0  0  0  0  0  0  0  0  0  0  0
   52.2390   29.8000   51.6370 O   0  0  0  0  0  0  0  0  0  0  0  0
   53.4320   30.3050   51.0520 C   0  0  0  0  0  0  0  0  0  0  0  0
   54.0638   29.4540   50.7576 H   0  0  0  0  0  0  0  0  0  0  0  0
   53.1366   30.9202   50.1893 H   0  0  0  0  0  0  0  0  0  0  0  0
   54.2400   31.2080   52.0000 C   0  0  0  0  0  0  0  0  0  0  0  0
   55.1470   31.5489   51.4793 H   0  0  0  0  0  0  0  0  0  0  0  0
   53.6034   32.0583   52.2858 H   0  0  0  0  0  0  0  0  0  0  0  0
   57.4660   31.3190   51.0600 C   0  0  0  0  0  0  0  0  0  0  0  0
   57.0094   30.5324   50.4413 H   0  0  0  0  0  0  0  0  0  0  0  0
   60.6720   31.3050   47.0360 C   0  0  0  0  0  0  0  0  0  0  0  0
   60.9342   31.1080   48.0860 H   0  0  0  0  0  0  0  0  0  0  0  0
   61.5787   31.4562   46.4319 H   0  0  0  0  0  0  0  0  0  0  0  0
   59.9220   30.1160   46.4840 C   0  0  0  0  0  0  0  0  0  0  0  0
   58.8870   29.5230   47.2290 C   0  0  0  0  0  0  0  0  0  0  0  0
   58.6246   29.9258   48.2184 H   0  0  0  0  0  0  0  0  0  0  0  0
   58.1900   28.4240   46.7180 C   0  0  0  0  0  0  0  0  0  0  0  0
   57.3771   27.9715   47.3049 H   0  0  0  0  0  0  0  0  0  0  0  0
   58.5210   27.8940   45.4600 C   0  0  0  0  0  0  0  0  0  0  0  0
   57.8000   26.7690   44.9300 N   0  0  0  0  0  0  0  0  0  0  0  0
   57.8010   26.5050   43.4910 C   0  0  0  0  0  0  0  0  0  0  0  0
   57.8051   25.4188   43.3175 H   0  0  0  0  0  0  0  0  0  0  0  0
   56.9012   26.9455   43.0368 H   0  0  0  0  0  0  0  0  0  0  0  0
   58.6975   26.9523   43.0368 H   0  0  0  0  0  0  0  0  0  0  0  0
   56.6540   25.9180   45.9250 S   0  0  0  0  0  0  0  0  0  0  0  0
   57.2240   25.7300   47.3030 O   0  0  0  0  0  0  0  0  0  0  0  0
   55.3690   26.6900   46.0330 O   0  0  0  0  0  0  0  0  0  0  0  0
   56.3070   24.3300   45.2010 C   0  0  0  0  0  0  0  0  0  0  0  0
   56.1454   23.5905   45.9992 H   0  0  0  0  0  0  0  0  0  0  0  0
   55.4031   24.4006   44.5781 H   0  0  0  0  0  0  0  0  0  0  0  0
   57.1580   24.0172   44.5781 H   0  0  0  0  0  0  0  0  0  0  0  0
   59.5470   28.4920   44.7140 C   0  0  0  0  0  0  0  0  0  0  0  0
   59.8036   28.0941   43.7211 H   0  0  0  0  0  0  0  0  0  0  0  0
   60.2450   29.5890   45.2230 C   0  0  0  0  0  0  0  0  0  0  0  0
   61.0537   30.0437   44.6320 H   0  0  0  0  0  0  0  0  0  0  0  0
   57.8930   32.5610   42.8980 C   0  0  0  0  0  0  0  0  0  0  0  0
   58.4266   33.4047   42.4360 H   0  0  0  0  0  0  0  0  0  0  0  0
   57.3150   31.5790   42.0890 C   0  0  0  0  0  0  0  0  0  0  0  0
   57.3948   31.6526   40.9944 H   0  0  0  0  0  0  0  0  0  0  0  0
  1  2  1  0
  2  3  2  0
  3  4  1  0
  3  5  1  0
  5  6  1  0
  5  7  2  0
  7  8  1  0
  8  9  2  0
  8 10  1  0
 10 11  2  0
 11 12  1  0
 12 13  2  0
 12 14  1  0
 14 15  1  0
 15 16  2  0
 16 17  1  0
 16 18  1  0
 18 19  1  0
 18 20  2  0
 20 21  1  0
 20 22  1  0
 22 23  1  0
 23 24  2  0
 23 25  2  0
 23 26  1  0
 26 27  1  0
 26 28  1  0
 28 29  1  0
 28 30  1  0
 28 31  1  0
 31 32  1  0
 31 33  1  0
 31 34  1  0
 34 35  1  0
 35 36  1  0
 35 37  1  0
 35 38  1  0
 38 39  1  0
 38 40  1  0
 22 41  2  0
 41 42  1  0
 11 43  1  0
 43 44  1  0
 43 45  1  0
 43 46  1  0
 46 47  2  0
 47 48  1  0
 47 49  1  0
 49 50  1  0
 49 51  2  0
 51 52  1  0
 52 53  1  0
 53 54  1  0
 53 55  1  0
 53 56  1  0
 52 57  1  0
 57 58  2  0
 57 59  2  0
 57 60  1  0
 60 61  1  0
 60 62  1  0
 60 63  1  0
 51 64  1  0
 64 65  1  0
 64 66  2  0
 66 67  1  0
  7 68  1  0
 68 69  1  0
 68 70  2  0
 70 71  1  0
 70  2  1  0
 41 15  1  0
 66 46  1  0
 38 26  1  0
M  CHG  2  14  -1  26   1
M  END
>  <UniqueID>  (21) 
20

>  <SMILES>  (21) 
CN(c1ccc(C/C(=N\C(=O)c2ccccc2)C(=O)[N-]c2cccc(S(=O)(=O)[NH+]3CCOCC3)c2)cc1)S(C)(=O)=O

>  <Energy>  (21) 
96.31193229906323

>  <Genealogy>  (21) 
CN(c1ccc(CC(=NC(=O)c2ccccc2)C(=O)[N-]c2cccc(S(=O)(=O)[NH+]3CCOCC3)c2)cc1)S(C)(=O)=O (protonated)
CN(c1ccc(C/C(=N\C(=O)c2ccccc2)C(=O)[N-]c2cccc(S(=O)(=O)[NH+]3CCOCC3)c2)cc1)S(C)(=O)=O (cis-trans isomerization)
CN(c1ccc(C/C(=N\C(=O)c2ccccc2)C(=O)[N-]c2cccc(S(=O)(=O)[NH+]3CCOCC3)c2)cc1)S(C)(=O)=O (3D coordinates assigned)
CN(c1ccc(C/C(=N\C(=O)c2ccccc2)C(=O)[N-]c2cccc(S(=O)(=O)[NH+]3CCOCC3)c2)cc1)S(C)(=O)=O (nonaromatic ring conformer: 96.31193229906323 kcal/mol)

>  <smiles>  (21) 
CN(c1ccc(CC(=NC(=O)c2ccccc2)C(=O)Nc2cccc(S(=O)(=O)N3CCOCC3)c2)cc1)S(C)(=O)=O

>  <score_type>  (21) 
oracle

>  <origin>  (21) 
adg

>  <m_score__min__energy>  (21) 
-11.51

>  <m_primary>  (21) 
energy

$$$$
21:0
     RDKit          3D

 49 51  0  0  0  0  0  0  0  0999 V2000
   56.2030   31.2250   44.5440 O   0  0  0  0  0  0  0  0  0  0  0  0
   57.4040   31.5680   44.4880 C   0  0  0  0  0  0  0  0  0  0  0  0
   57.7970   32.9680   44.2030 C   0  0  0  0  0  0  0  0  0  0  0  0
   57.6780   33.8640   45.3980 C   0  0  0  0  0  0  0  0  0  0  0  0
   59.0220   34.3250   45.8390 C   0  0  0  0  0  0  0  0  0  0  0  0
   59.3100   33.9360   47.2960 C   0  0  0  0  0  0  0  0  0  0  0  0
   60.6110   33.2230   47.2950 C   0  0  0  0  0  0  0  0  0  0  0  0
   60.5660   31.8420   47.4890 C   0  0  0  0  0  0  0  0  0  0  0  0
   61.7190   31.0850   47.5030 C   0  0  0  0  0  0  0  0  0  0  0  0
   62.9310   31.7040   47.3220 C   0  0  0  0  0  0  0  0  0  0  0  0
   62.9580   33.0670   47.1310 C   0  0  0  0  0  0  0  0  0  0  0  0
   61.8240   33.8530   47.1120 C   0  0  0  0  0  0  0  0  0  0  0  0
   58.4320   30.6220   44.6980 N   0  0  0  0  0  0  0  0  0  0  0  0
   58.2760   29.2550   44.9810 C   0  0  0  0  0  0  0  0  0  0  0  0
   59.4300   28.4610   45.0520 C   0  0  0  0  0  0  0  0  0  0  0  0
   59.3790   27.1150   45.3220 C   0  0  0  0  0  0  0  0  0  0  0  0
   58.1900   26.4650   45.5390 C   0  0  0  0  0  0  0  0  0  0  0  0
   58.0550   25.0310   45.8330 C   0  0  0  0  0  0  0  0  0  0  0  0
   57.4170   24.2940   44.7130 C   0  0  0  0  0  0  0  0  0  0  0  0
   57.2340   22.9180   44.7130 C   0  0  0  0  0  0  0  0  0  0  0  0
   56.6160   22.5420   43.5350 C   0  0  0  0  0  0  0  0  0  0  0  0
   56.2910   21.3700   43.1840 O   0  0  0  0  0  0  0  0  0  0  0  0
   56.4380   23.6950   42.8480 N   0  0  0  0  0  0  0  0  0  0  0  0
   56.9170   24.7200   43.5570 N   0  0  0  0  0  0  0  0  0  0  0  0
   57.0410   27.2250   45.4740 C   0  0  0  0  0  0  0  0  0  0  0  0
   57.0960   28.5980   45.1970 C   0  0  0  0  0  0  0  0  0  0  0  0
   58.8426   32.9760   43.8615 H   0  0  0  0  0  0  0  0  0  0  0  0
   57.1110   33.3524   43.4338 H   0  0  0  0  0  0  0  0  0  0  0  0
   57.0636   34.7379   45.1356 H   0  0  0  0  0  0  0  0  0  0  0  0
   57.2074   33.3024   46.2185 H   0  0  0  0  0  0  0  0  0  0  0  0
   59.7850   33.8684   45.1914 H   0  0  0  0  0  0  0  0  0  0  0  0
   59.0469   35.4224   45.7674 H   0  0  0  0  0  0  0  0  0  0  0  0
   59.3713   34.8368   47.9243 H   0  0  0  0  0  0  0  0  0  0  0  0
   58.5096   33.3004   47.7026 H   0  0  0  0  0  0  0  0  0  0  0  0
   59.5937   31.3482   47.6333 H   0  0  0  0  0  0  0  0  0  0  0  0
   61.6680   29.9971   47.6575 H   0  0  0  0  0  0  0  0  0  0  0  0
   63.8639   31.1212   47.3295 H   0  0  0  0  0  0  0  0  0  0  0  0
   63.9334   33.5545   46.9861 H   0  0  0  0  0  0  0  0  0  0  0  0
   61.8852   34.9403   46.9568 H   0  0  0  0  0  0  0  0  0  0  0  0
   59.4180   30.9920   44.6350 H   0  0  0  0  0  0  0  0  0  0  0  0
   60.4099   28.9324   44.8857 H   0  0  0  0  0  0  0  0  0  0  0  0
   60.3172   26.5424   45.3655 H   0  0  0  0  0  0  0  0  0  0  0  0
   59.0549   24.6091   46.0125 H   0  0  0  0  0  0  0  0  0  0  0  0
   57.4142   24.9238   46.7206 H   0  0  0  0  0  0  0  0  0  0  0  0
   57.5332   22.2352   45.5219 H   0  0  0  0  0  0  0  0  0  0  0  0
   55.9840   23.7280   41.8970 H   0  0  0  0  0  0  0  0  0  0  0  0
   56.9070   25.7320   43.2580 H   0  0  0  0  0  0  0  0  0  0  0  0
   56.0653   26.7458   45.6423 H   0  0  0  0  0  0  0  0  0  0  0  0
   56.1561   29.1677   45.1517 H   0  0  0  0  0  0  0  0  0  0  0  0
  1  2  2  0
  2  3  1  0
  3  4  1  0
  4  5  1  0
  5  6  1  0
  6  7  1  0
  7  8  2  0
  8  9  1  0
  9 10  2  0
 10 11  1  0
 11 12  2  0
  2 13  1  0
 13 14  1  0
 14 15  2  0
 15 16  1  0
 16 17  2  0
 17 18  1  0
 18 19  1  0
 19 20  2  0
 20 21  1  0
 21 22  2  0
 21 23  1  0
 23 24  1  0
 17 25  1  0
 25 26  2  0
 12  7  1  0
 26 14  1  0
 24 19  1  0
  3 27  1  0
  3 28  1  0
  4 29  1  0
  4 30  1  0
  5 31  1  0
  5 32  1  0
  6 33  1  0
  6 34  1  0
  8 35  1  0
  9 36  1  0
 10 37  1  0
 11 38  1  0
 12 39  1  0
 13 40  1  0
 15 41  1  0
 16 42  1  0
 18 43  1  0
 18 44  1  0
 20 45  1  0
 23 46  1  0
 24 47  1  0
 25 48  1  0
 26 49  1  0
M  END
>  <smiles>  (22) 
O=C(CCCCc1ccccc1)Nc1ccc(Cc2cc(=O)[nH][nH]2)cc1

>  <score_type>  (22) 
oracle

>  <origin>  (22) 
adg

>  <m_score__min__energy>  (22) 
-9.6699999999999999

>  <m_primary>  (22) 
energy

$$$$
22:0
     RDKit          3D

 40 42  0  0  1  0  0  0  0  0999 V2000
   63.5200   31.9550   47.4720 N   0  0  0  0  0  0  0  0  0  0  0  0
   62.6150   33.4110   47.4310 S   0  0  0  0  0  0  0  0  0  0  0  0
   63.0890   34.2150   46.2340 O   0  0  0  0  0  0  0  0  0  0  0  0
   62.8940   34.2780   48.6330 O   0  0  0  0  0  0  0  0  0  0  0  0
   60.8970   33.1530   47.2740 C   0  0  0  0  0  0  0  0  0  0  0  0
   60.0660   33.0290   48.3860 C   0  0  0  0  0  0  0  0  0  0  0  0
   58.7200   32.8290   48.2470 C   0  0  0  0  0  0  0  0  0  0  0  0
   58.2080   32.7520   46.9670 C   0  0  0  0  0  0  0  0  0  0  0  0
   58.9760   32.8680   45.8340 C   0  0  0  0  0  0  0  0  0  0  0  0
   58.4870   32.7960   44.5190 N   0  0  0  0  0  0  0  0  0  0  0  0
   57.7500   31.8750   44.0310 C   0  0  0  0  0  0  0  0  0  0  0  0
   57.2770   30.8280   44.7960 C   0  0  0  0  0  0  0  0  0  0  0  0
   56.4690   29.8280   44.2410 C   0  0  0  0  0  0  0  0  0  0  0  0
   55.9760   28.7540   45.0270 N   0  0  0  0  0  0  0  0  0  0  0  0
   56.7580   27.7100   45.5480 C   0  0  0  0  0  0  0  0  0  0  0  0
   58.1280   27.8520   45.6050 C   0  0  0  0  0  0  0  0  0  0  0  0
   58.9520   26.8620   46.1000 C   0  0  0  0  0  0  0  0  0  0  0  0
   58.3820   25.6920   46.5550 C   0  0  0  0  0  0  0  0  0  0  0  0
   57.0240   25.5560   46.4970 C   0  0  0  0  0  0  0  0  0  0  0  0
   56.1740   26.5370   46.0020 C   0  0  0  0  0  0  0  0  0  0  0  0
   54.7910   26.3340   45.9700 O   0  0  0  0  0  0  0  0  0  0  0  0
   56.2010   29.9700   42.9300 N   0  0  0  0  0  0  0  0  0  0  0  0
   56.6650   30.9920   42.1850 C   0  0  0  0  0  0  0  0  0  0  0  0
   57.4410   31.9520   42.7240 N   0  0  0  0  0  0  0  0  0  0  0  0
   60.3400   33.0710   46.0050 C   0  0  0  0  0  0  0  0  0  0  0  0
   64.4690   32.1230   47.1260 H   0  0  0  0  0  0  0  0  0  0  0  0
   63.0250   31.1250   47.1060 H   0  0  0  0  0  0  0  0  0  0  0  0
   60.5007   33.0932   49.3944 H   0  0  0  0  0  0  0  0  0  0  0  0
   58.0665   32.7326   49.1266 H   0  0  0  0  0  0  0  0  0  0  0  0
   57.1267   32.5890   46.8481 H   0  0  0  0  0  0  0  0  0  0  0  0
   57.5400   30.7781   45.8629 H   0  0  0  0  0  0  0  0  0  0  0  0
   54.9530   28.7420   45.2340 H   0  0  0  0  0  0  0  0  0  0  0  0
   58.5802   28.7872   45.2432 H   0  0  0  0  0  0  0  0  0  0  0  0
   60.0424   27.0035   46.1310 H   0  0  0  0  0  0  0  0  0  0  0  0
   59.0093   24.8829   46.9573 H   0  0  0  0  0  0  0  0  0  0  0  0
   56.5792   24.6185   46.8622 H   0  0  0  0  0  0  0  0  0  0  0  0
   54.2730   26.6670   46.7740 H   0  0  0  0  0  0  0  0  0  0  0  0
   55.6060   29.2740   42.4330 H   0  0  0  0  0  0  0  0  0  0  0  0
   56.4055   31.0434   41.1173 H   0  0  0  0  0  0  0  0  0  0  0  0
   60.9882   33.1682   45.1216 H   0  0  0  0  0  0  0  0  0  0  0  0
  1  2  1  0
  2  3  2  0
  2  4  2  0
  2  5  1  0
  5  6  2  0
  6  7  1  0
  7  8  2  0
  8  9  1  0
  9 10  1  0
 10 11  2  0
 11 12  1  0
 12 13  2  0
 13 14  1  0
 14 15  1  0
 15 16  2  0
 16 17  1  0
 17 18  2  0
 18 19  1  0
 19 20  2  0
 20 21  1  0
 13 22  1  0
 22 23  1  0
 23 24  2  0
  9 25  2  0
 25  5  1  0
 24 11  1  0
 20 15  1  0
  1 26  1  0
  1 27  1  0
  6 28  1  0
  7 29  1  0
  8 30  1  0
 12 31  1  0
 14 32  1  0
 16 33  1  0
 17 34  1  0
 18 35  1  0
 19 36  1  0
 21 37  1  0
 22 38  1  0
 23 39  1  0
 25 40  1  0
M  END
>  <smiles>  (23) 
NS(=O)(=O)c1cccc(N=c2cc(Nc3ccccc3O)[nH]cn2)c1

>  <score_type>  (23) 
oracle

>  <origin>  (23) 
adg

>  <m_score__min__energy>  (23) 
-10.15

>  <m_primary>  (23) 
energy

$$$$
23:0
     RDKit          3D

 49 52  0  0  0  0  0  0  0  0999 V2000
   57.4330   21.7720   44.4210 C   0  0  0  0  0  0  0  0  0  0  0  0
   56.6270   22.9700   44.8310 C   0  0  0  0  0  0  0  0  0  0  0  0
   55.2880   22.8270   45.2160 C   0  0  0  0  0  0  0  0  0  0  0  0
   54.5270   23.9490   45.5750 C   0  0  0  0  0  0  0  0  0  0  0  0
   53.0990   23.7800   46.0140 C   0  0  0  0  0  0  0  0  0  0  0  0
   55.1250   25.2230   45.5750 C   0  0  0  0  0  0  0  0  0  0  0  0
   54.3870   26.3350   45.9760 O   0  0  0  0  0  0  0  0  0  0  0  0
   56.4680   25.3780   45.1860 C   0  0  0  0  0  0  0  0  0  0  0  0
   57.0790   26.6800   45.2150 N   0  0  0  0  0  0  0  0  0  0  0  0
   58.2750   27.1210   46.3940 S   0  0  0  0  0  0  0  0  0  0  0  0
   57.8360   26.6420   47.7490 O   0  0  0  0  0  0  0  0  0  0  0  0
   59.5860   26.4750   46.0450 O   0  0  0  0  0  0  0  0  0  0  0  0
   58.4870   28.8690   46.3870 C   0  0  0  0  0  0  0  0  0  0  0  0
   59.3660   29.4900   47.3090 C   0  0  0  0  0  0  0  0  0  0  0  0
   59.4130   30.8890   47.4210 C   0  0  0  0  0  0  0  0  0  0  0  0
   58.5780   31.6350   46.5870 C   0  0  0  0  0  0  0  0  0  0  0  0
   57.7550   31.0420   45.6710 C   0  0  0  0  0  0  0  0  0  0  0  0
   57.6800   29.6580   45.5410 C   0  0  0  0  0  0  0  0  0  0  0  0
   57.0150   31.9640   45.0280 N   0  0  0  0  0  0  0  0  0  0  0  0
   57.4280   33.1230   45.6000 C   0  0  0  0  0  0  0  0  0  0  0  0
   56.9460   34.2430   45.2840 O   0  0  0  0  0  0  0  0  0  0  0  0
   58.3820   32.9640   46.5530 N   0  0  0  0  0  0  0  0  0  0  0  0
   58.8940   33.9750   47.4810 C   0  0  0  0  0  0  0  0  0  0  0  0
   60.3960   33.8820   47.5650 C   0  0  0  0  0  0  0  0  0  0  0  0
   61.0450   33.8740   48.8120 C   0  0  0  0  0  0  0  0  0  0  0  0
   62.4410   33.8510   48.8790 C   0  0  0  0  0  0  0  0  0  0  0  0
   63.2000   33.8380   47.7050 C   0  0  0  0  0  0  0  0  0  0  0  0
   62.5640   33.8470   46.4620 C   0  0  0  0  0  0  0  0  0  0  0  0
   61.1670   33.8710   46.3890 C   0  0  0  0  0  0  0  0  0  0  0  0
   57.1990   24.2490   44.7810 C   0  0  0  0  0  0  0  0  0  0  0  0
   57.7880   21.2443   45.3185 H   0  0  0  0  0  0  0  0  0  0  0  0
   56.8056   21.0955   43.8220 H   0  0  0  0  0  0  0  0  0  0  0  0
   58.2960   22.0982   43.8220 H   0  0  0  0  0  0  0  0  0  0  0  0
   54.8298   21.8272   45.2370 H   0  0  0  0  0  0  0  0  0  0  0  0
   53.0515   23.7744   47.1130 H   0  0  0  0  0  0  0  0  0  0  0  0
   52.4948   24.6129   45.6251 H   0  0  0  0  0  0  0  0  0  0  0  0
   52.7059   22.8291   45.6251 H   0  0  0  0  0  0  0  0  0  0  0  0
   56.6800   27.4490   44.6340 H   0  0  0  0  0  0  0  0  0  0  0  0
   60.0175   28.8704   47.9428 H   0  0  0  0  0  0  0  0  0  0  0  0
   60.0844   31.3801   48.1408 H   0  0  0  0  0  0  0  0  0  0  0  0
   57.0116   29.1938   44.8009 H   0  0  0  0  0  0  0  0  0  0  0  0
   58.6102   34.9756   47.1229 H   0  0  0  0  0  0  0  0  0  0  0  0
   58.4645   33.8009   48.4786 H   0  0  0  0  0  0  0  0  0  0  0  0
   60.4521   33.8859   49.7384 H   0  0  0  0  0  0  0  0  0  0  0  0
   62.9435   33.8431   49.8575 H   0  0  0  0  0  0  0  0  0  0  0  0
   64.2985   33.8207   47.7605 H   0  0  0  0  0  0  0  0  0  0  0  0
   63.1621   33.8352   45.5389 H   0  0  0  0  0  0  0  0  0  0  0  0
   60.6698   33.8813   45.4078 H   0  0  0  0  0  0  0  0  0  0  0  0
   58.2313   24.3697   44.4207 H   0  0  0  0  0  0  0  0  0  0  0  0
  1  2  1  0
  2  3  2  0
  3  4  1  0
  4  5  1  0
  4  6  2  0
  6  7  1  0
  6  8  1  0
  8  9  1  0
  9 10  1  0
 10 11  2  0
 10 12  2  0
 10 13  1  0
 13 14  2  0
 14 15  1  0
 15 16  2  0
 16 17  1  0
 17 18  2  0
 17 19  1  0
 19 20  1  0
 20 21  2  0
 20 22  1  0
 22 23  1  0
 23 24  1  0
 24 25  2  0
 25 26  1  0
 26 27  2  0
 27 28  1  0
 28 29  2  0
  8 30  2  0
 30  2  1  0
 18 13  1  0
 29 24  1  0
 22 16  1  0
  1 31  1  0
  1 32  1  0
  1 33  1  0
  3 34  1  0
  5 35  1  0
  5 36  1  0
  5 37  1  0
  9 38  1  0
 14 39  1  0
 15 40  1  0
 18 41  1  0
 23 42  1  0
 23 43  1  0
 25 44  1  0
 26 45  1  0
 27 46  1  0
 28 47  1  0
 29 48  1  0
 30 49  1  0
M  CHG  2   7  -1  19  -1
M  END
>  <UniqueID>  (24) 
21

>  <SMILES>  (24) 
Cc1cc(C)c([O-])c(NS(=O)(=O)c2ccc3c(c2)[n-]c(=O)n3Cc2ccccc2)c1

>  <Energy>  (24) 
91.48096000602919

>  <Genealogy>  (24) 
Cc1cc(C)c([O-])c(NS(=O)(=O)c2ccc3c(c2)[n-]c(=O)n3Cc2ccccc2)c1 (protonated)
Cc1cc(C)c([O-])c(NS(=O)(=O)c2ccc3c(c2)[n-]c(=O)n3Cc2ccccc2)c1 (3D coordinates assigned)
Cc1cc(C)c([O-])c(NS(=O)(=O)c2ccc3c(c2)[n-]c(=O)n3Cc2ccccc2)c1 (optimized conformer: 91.48096000602919 kcal/mol)

>  <smiles>  (24) 
Cc1cc(C)c(O)c(NS(=O)(=O)c2ccc3c(c2)[nH]c(=O)n3Cc2ccccc2)c1

>  <score_type>  (24) 
oracle

>  <origin>  (24) 
adg

>  <m_score__min__energy>  (24) 
-15.470000000000001

>  <m_primary>  (24) 
energy

$$$$
24:0
     RDKit          3D

 86 89  0  0  0  0  0  0  0  0999 V2000
   55.0510   26.3450   45.9920 N   0  0  0  0  0  0  0  0  0  0  0  0
   56.1870   25.4860   46.0660 C   0  0  0  0  0  0  0  0  0  0  0  0
   56.8620   25.2500   45.0280 O   0  0  0  0  0  0  0  0  0  0  0  0
   56.5650   24.8530   47.3740 C   0  0  1  0  0  0  0  0  0  0  0  0
   56.4060   23.3630   47.3030 C   0  0  0  0  0  0  0  0  0  0  0  0
   57.2260   22.6370   47.8440 O   0  0  0  0  0  0  0  0  0  0  0  0
   57.9490   25.1720   47.7000 N   0  0  0  0  0  0  0  0  0  0  0  0
   58.6570   26.2760   47.1270 C   0  0  0  0  0  0  0  0  0  0  0  0
   59.1900   26.1710   45.9890 O   0  0  0  0  0  0  0  0  0  0  0  0
   58.7530   27.5650   47.8920 C   0  0  2  0  0  0  0  0  0  0  0  0
   58.1650   28.7440   47.0950 C   0  0  0  0  0  0  0  0  0  0  0  0
   59.2190   29.7100   46.5100 C   0  0  0  0  0  0  0  0  0  0  0  0
   59.8110   29.2570   45.1630 C   0  0  0  0  0  0  0  0  0  0  0  0
   58.8690   29.4600   44.0590 N   0  0  0  0  0  0  0  0  0  0  0  0
   57.7520   28.6010   43.7570 C   0  0  0  0  0  0  0  0  0  0  0  0
   56.9780   28.8640   42.5820 N   0  0  0  0  0  0  0  0  0  0  0  0
   57.4260   27.6100   44.5310 N   0  0  0  0  0  0  0  0  0  0  0  0
   60.1530   27.8460   48.1920 N   0  0  0  0  0  0  0  0  0  0  0  0
   60.7040   27.8050   49.5130 C   0  0  0  0  0  0  0  0  0  0  0  0
   60.9500   26.7000   50.0670 O   0  0  0  0  0  0  0  0  0  0  0  0
   61.0020   29.0900   50.2470 C   0  0  2  0  0  0  0  0  0  0  0  0
   60.0820   29.1710   51.4810 C   0  0  0  0  0  0  0  0  0  0  0  0
   59.1620   30.3560   51.4370 C   0  0  0  0  0  0  0  0  0  0  0  0
   57.9270   30.4270   50.8000 C   0  0  0  0  0  0  0  0  0  0  0  0
   57.3550   31.6360   51.0100 N   0  0  0  0  0  0  0  0  0  0  0  0
   58.2150   32.3230   51.7840 C   0  0  0  0  0  0  0  0  0  0  0  0
   58.0590   33.6170   52.2800 C   0  0  0  0  0  0  0  0  0  0  0  0
   59.0870   34.1430   53.0860 C   0  0  0  0  0  0  0  0  0  0  0  0
   60.2290   33.3660   53.3820 C   0  0  0  0  0  0  0  0  0  0  0  0
   60.3600   32.0610   52.8710 C   0  0  0  0  0  0  0  0  0  0  0  0
   59.3280   31.5720   52.0690 C   0  0  0  0  0  0  0  0  0  0  0  0
   60.8090   30.2720   49.3760 N   0  0  0  0  0  0  0  0  0  0  0  0
   61.6190   31.4280   49.7960 C   0  0  0  0  0  0  0  0  0  0  0  0
   62.0600   32.2600   48.6060 C   0  0  0  0  0  0  0  0  0  0  0  0
   63.4140   32.2120   48.2250 C   0  0  0  0  0  0  0  0  0  0  0  0
   63.8880   32.9890   47.1650 C   0  0  0  0  0  0  0  0  0  0  0  0
   63.0210   33.8310   46.4730 C   0  0  0  0  0  0  0  0  0  0  0  0
   61.6710   33.8800   46.8200 C   0  0  0  0  0  0  0  0  0  0  0  0
   61.1690   33.0890   47.8670 C   0  0  0  0  0  0  0  0  0  0  0  0
   59.7250   33.1960   48.1650 C   0  0  0  0  0  0  0  0  0  0  0  0
   59.2360   32.4670   49.0720 O   0  0  0  0  0  0  0  0  0  0  0  0
   58.8360   34.1590   47.4270 C   0  0  0  0  0  0  0  0  0  0  0  0
   58.3800   33.5780   46.1150 C   0  0  0  0  0  0  0  0  0  0  0  0
   58.9530   34.0100   44.9070 C   0  0  0  0  0  0  0  0  0  0  0  0
   58.5510   33.4410   43.6950 C   0  0  0  0  0  0  0  0  0  0  0  0
   57.5910   32.4260   43.6820 C   0  0  0  0  0  0  0  0  0  0  0  0
   57.0230   31.9820   44.8810 C   0  0  0  0  0  0  0  0  0  0  0  0
   57.4170   32.5550   46.0940 C   0  0  0  0  0  0  0  0  0  0  0  0
   55.1640   27.3830   46.0000 H   0  0  0  0  0  0  0  0  0  0  0  0
   55.8995   25.2495   48.1550 H   0  0  0  0  0  0  0  0  0  0  0  0
   55.5525   22.9250   46.7647 H   0  0  0  0  0  0  0  0  0  0  0  0
   58.1728   27.4520   48.8197 H   0  0  0  0  0  0  0  0  0  0  0  0
   57.5738   28.3351   46.2623 H   0  0  0  0  0  0  0  0  0  0  0  0
   57.5615   29.3307   47.8032 H   0  0  0  0  0  0  0  0  0  0  0  0
   58.7446   30.6919   46.3656 H   0  0  0  0  0  0  0  0  0  0  0  0
   60.0524   29.7408   47.2273 H   0  0  0  0  0  0  0  0  0  0  0  0
   60.7245   29.8362   44.9627 H   0  0  0  0  0  0  0  0  0  0  0  0
   60.0318   28.1815   45.2308 H   0  0  0  0  0  0  0  0  0  0  0  0
   59.0010   30.3130   43.4680 H   0  0  0  0  0  0  0  0  0  0  0  0
   56.1470   28.2790   42.3400 H   0  0  0  0  0  0  0  0  0  0  0  0
   57.2600   29.6250   41.9250 H   0  0  0  0  0  0  0  0  0  0  0  0
   56.4360   27.3420   44.7140 H   0  0  0  0  0  0  0  0  0  0  0  0
   58.1650   27.0310   44.9910 H   0  0  0  0  0  0  0  0  0  0  0  0
   62.0567   29.0906   50.5593 H   0  0  0  0  0  0  0  0  0  0  0  0
   59.4749   28.2550   51.5288 H   0  0  0  0  0  0  0  0  0  0  0  0
   60.7229   29.2790   52.3684 H   0  0  0  0  0  0  0  0  0  0  0  0
   57.4784   29.6150   50.2089 H   0  0  0  0  0  0  0  0  0  0  0  0
   56.4310   31.9630   50.6480 H   0  0  0  0  0  0  0  0  0  0  0  0
   57.1608   34.2085   52.0488 H   0  0  0  0  0  0  0  0  0  0  0  0
   59.0003   35.1637   53.4869 H   0  0  0  0  0  0  0  0  0  0  0  0
   61.0232   33.7846   54.0177 H   0  0  0  0  0  0  0  0  0  0  0  0
   61.2451   31.4479   53.0960 H   0  0  0  0  0  0  0  0  0  0  0  0
   59.8050   30.5560   49.4540 H   0  0  0  0  0  0  0  0  0  0  0  0
   61.0202   32.0579   50.4703 H   0  0  0  0  0  0  0  0  0  0  0  0
   62.5180   31.0522   50.3065 H   0  0  0  0  0  0  0  0  0  0  0  0
   64.1080   31.5543   48.7688 H   0  0  0  0  0  0  0  0  0  0  0  0
   64.9481   32.9356   46.8764 H   0  0  0  0  0  0  0  0  0  0  0  0
   63.4010   34.4575   45.6526 H   0  0  0  0  0  0  0  0  0  0  0  0
   60.9915   34.5456   46.2676 H   0  0  0  0  0  0  0  0  0  0  0  0
   57.9551   34.3821   48.0468 H   0  0  0  0  0  0  0  0  0  0  0  0
   59.4074   35.0766   47.2234 H   0  0  0  0  0  0  0  0  0  0  0  0
   59.7202   34.7983   44.9150 H   0  0  0  0  0  0  0  0  0  0  0  0
   58.9911   33.7929   42.7503 H   0  0  0  0  0  0  0  0  0  0  0  0
   57.2813   31.9753   42.7276 H   0  0  0  0  0  0  0  0  0  0  0  0
   56.2672   31.1829   44.8694 H   0  0  0  0  0  0  0  0  0  0  0  0
   56.9711   32.2034   47.0361 H   0  0  0  0  0  0  0  0  0  0  0  0
  1  2  1  0
  2  3  2  0
  2  4  1  0
  4  5  1  0
  5  6  2  0
  4  7  1  0
  7  8  1  0
  8  9  2  0
  8 10  1  0
 10 11  1  0
 11 12  1  0
 12 13  1  0
 13 14  1  0
 14 15  1  0
 15 16  1  0
 15 17  2  0
 10 18  1  0
 18 19  1  0
 19 20  2  0
 19 21  1  0
 21 22  1  0
 22 23  1  0
 23 24  2  0
 24 25  1  0
 25 26  1  0
 26 27  2  0
 27 28  1  0
 28 29  2  0
 29 30  1  0
 30 31  2  0
 21 32  1  0
 32 33  1  0
 33 34  1  0
 34 35  2  0
 35 36  1  0
 36 37  2  0
 37 38  1  0
 38 39  2  0
 39 40  1  0
 40 41  2  0
 40 42  1  0
 42 43  1  0
 43 44  2  0
 44 45  1  0
 45 46  2  0
 46 47  1  0
 47 48  2  0
 31 23  1  0
 39 34  1  0
 48 43  1  0
 31 26  1  0
  1 49  1  0
  4 50  1  1
  5 51  1  0
 10 52  1  1
 11 53  1  0
 11 54  1  0
 12 55  1  0
 12 56  1  0
 13 57  1  0
 13 58  1  0
 14 59  1  0
 16 60  1  0
 16 61  1  0
 17 62  1  0
 17 63  1  0
 21 64  1  1
 22 65  1  0
 22 66  1  0
 24 67  1  0
 25 68  1  0
 27 69  1  0
 28 70  1  0
 29 71  1  0
 30 72  1  0
 32 73  1  0
 33 74  1  0
 33 75  1  0
 35 76  1  0
 36 77  1  0
 37 78  1  0
 38 79  1  0
 42 80  1  0
 42 81  1  0
 44 82  1  0
 45 83  1  0
 46 84  1  0
 47 85  1  0
 48 86  1  0
M  CHG  4   1  -1   7  -1  17   1  18  -1
M  END
>  <UniqueID>  (25) 
22

>  <SMILES>  (25) 
[NH-]C(=O)[C@@H](C=O)[N-]C(=O)[C@H](CCCNC(N)=[NH2+])[N-]C(=O)C(Cc1c[nH]c2ccccc12)NCc1ccccc1C(=O)Cc1ccccc1

>  <Energy>  (25) 
107.76094737952903

>  <Genealogy>  (25) 
[NH-]C(=O)C(C=O)[N-]C(=O)C(CCCNC(N)=[NH2+])[N-]C(=O)C(Cc1c[nH]c2ccccc12)NCc1ccccc1C(=O)Cc1ccccc1 (protonated)
[NH-]C(=O)[C@@H](C=O)[N-]C(=O)[C@H](CCCNC(N)=[NH2+])[N-]C(=O)C(Cc1c[nH]c2ccccc12)NCc1ccccc1C(=O)Cc1ccccc1 (chirality)
[NH-]C(=O)[C@@H](C=O)[N-]C(=O)[C@H](CCCNC(N)=[NH2+])[N-]C(=O)C(Cc1c[nH]c2ccccc12)NCc1ccccc1C(=O)Cc1ccccc1 (3D coordinates assigned)
[NH-]C(=O)[C@@H](C=O)[N-]C(=O)[C@H](CCCNC(N)=[NH2+])[N-]C(=O)C(Cc1c[nH]c2ccccc12)NCc1ccccc1C(=O)Cc1ccccc1 (optimized conformer: 107.76094737952903 kcal/mol)

>  <smiles>  (25) 
N=C(N)NCCCC(NC(=O)C(Cc1c[nH]c2ccccc12)NCc1ccccc1C(=O)Cc1ccccc1)C(=O)NC(C=O)C(N)=O

>  <score_type>  (25) 
oracle

>  <origin>  (25) 
adg

>  <m_score__min__energy>  (25) 
-14.35

>  <m_primary>  (25) 
energy

$$$$
25:0
     RDKit          3D

 45 47  0  0  0  0  0  0  0  0999 V2000
   57.3540   31.0480   54.0800 C   0  0  0  0  0  0  0  0  0  0  0  0
   56.8600   30.8420   52.3850 S   0  0  0  0  0  0  0  0  0  0  0  0
   55.5730   31.5790   52.1390 O   0  0  0  0  0  0  0  0  0  0  0  0
   56.6420   29.3810   52.1050 O   0  0  0  0  0  0  0  0  0  0  0  0
   58.1140   31.4820   51.3290 C   0  0  0  0  0  0  0  0  0  0  0  0
   58.4620   32.8380   51.3750 C   0  0  0  0  0  0  0  0  0  0  0  0
   59.4510   33.3390   50.5250 C   0  0  0  0  0  0  0  0  0  0  0  0
   60.1140   32.4890   49.6210 C   0  0  0  0  0  0  0  0  0  0  0  0
   61.1610   33.0140   48.7120 C   0  0  0  0  0  0  0  0  0  0  0  0
   61.2200   32.8120   47.3960 C   0  0  0  0  0  0  0  0  0  0  0  0
   60.1520   32.1900   46.5780 C   0  0  0  0  0  0  0  0  0  0  0  0
   60.1410   30.8000   46.3760 C   0  0  0  0  0  0  0  0  0  0  0  0
   59.1400   30.2040   45.6050 C   0  0  0  0  0  0  0  0  0  0  0  0
   58.1290   30.9880   45.0370 C   0  0  0  0  0  0  0  0  0  0  0  0
   56.8800   30.2410   44.0460 S   0  0  0  0  0  0  0  0  0  0  0  0
   57.3940   28.6020   43.5860 C   0  0  0  0  0  0  0  0  0  0  0  0
   56.6520   31.0630   42.8090 O   0  0  0  0  0  0  0  0  0  0  0  0
   55.5940   30.1660   44.8190 O   0  0  0  0  0  0  0  0  0  0  0  0
   58.1340   32.3750   45.2360 C   0  0  0  0  0  0  0  0  0  0  0  0
   59.1360   32.9750   46.0060 C   0  0  0  0  0  0  0  0  0  0  0  0
   59.1340   34.3240   46.1540 F   0  0  0  0  0  0  0  0  0  0  0  0
   62.4230   33.4450   46.7880 C   0  0  0  0  0  0  0  0  0  0  0  0
   63.2210   33.9730   47.9800 C   0  0  0  0  0  0  0  0  0  0  0  0
   62.3010   33.8420   49.1940 C   0  0  0  0  0  0  0  0  0  0  0  0
   59.7440   31.1350   49.5640 C   0  0  0  0  0  0  0  0  0  0  0  0
   58.7550   30.6350   50.4150 C   0  0  0  0  0  0  0  0  0  0  0  0
   56.5431   30.7099   54.7419 H   0  0  0  0  0  0  0  0  0  0  0  0
   58.2580   30.4519   54.2735 H   0  0  0  0  0  0  0  0  0  0  0  0
   57.5666   32.1098   54.2735 H   0  0  0  0  0  0  0  0  0  0  0  0
   57.9550   33.5105   52.0826 H   0  0  0  0  0  0  0  0  0  0  0  0
   59.7134   34.4066   50.5628 H   0  0  0  0  0  0  0  0  0  0  0  0
   60.9262   30.1763   46.8281 H   0  0  0  0  0  0  0  0  0  0  0  0
   59.1463   29.1159   45.4439 H   0  0  0  0  0  0  0  0  0  0  0  0
   57.5803   28.0081   44.4929 H   0  0  0  0  0  0  0  0  0  0  0  0
   56.6029   28.1233   42.9903 H   0  0  0  0  0  0  0  0  0  0  0  0
   58.3168   28.6608   42.9903 H   0  0  0  0  0  0  0  0  0  0  0  0
   57.3458   32.9953   44.7844 H   0  0  0  0  0  0  0  0  0  0  0  0
   63.0095   32.7042   46.2248 H   0  0  0  0  0  0  0  0  0  0  0  0
   62.1618   34.2401   46.0742 H   0  0  0  0  0  0  0  0  0  0  0  0
   64.1326   33.3747   48.1249 H   0  0  0  0  0  0  0  0  0  0  0  0
   63.5364   35.0152   47.8240 H   0  0  0  0  0  0  0  0  0  0  0  0
   62.8214   33.3413   50.0237 H   0  0  0  0  0  0  0  0  0  0  0  0
   61.9742   34.8197   49.5779 H   0  0  0  0  0  0  0  0  0  0  0  0
   60.2361   30.4640   48.8446 H   0  0  0  0  0  0  0  0  0  0  0  0
   58.4783   29.5715   50.3673 H   0  0  0  0  0  0  0  0  0  0  0  0
  1  2  1  0
  2  3  2  0
  2  4  2  0
  2  5  1  0
  5  6  2  0
  6  7  1  0
  7  8  2  0
  8  9  1  0
  9 10  2  0
 10 11  1  0
 11 12  2  0
 12 13  1  0
 13 14  2  0
 14 15  1  0
 15 16  1  0
 15 17  2  0
 15 18  2  0
 14 19  1  0
 19 20  2  0
 20 21  1  0
 10 22  1  0
 22 23  1  0
 23 24  1  0
  8 25  1  0
 25 26  2  0
 26  5  1  0
 24  9  1  0
 20 11  1  0
  1 27  1  0
  1 28  1  0
  1 29  1  0
  6 30  1  0
  7 31  1  0
 12 32  1  0
 13 33  1  0
 16 34  1  0
 16 35  1  0
 16 36  1  0
 19 37  1  0
 22 38  1  0
 22 39  1  0
 23 40  1  0
 23 41  1  0
 24 42  1  0
 24 43  1  0
 25 44  1  0
 26 45  1  0
M  END
>  <UniqueID>  (26) 
23

>  <SMILES>  (26) 
CS(=O)(=O)c1ccc(C2=C(c3ccc(S(C)(=O)=O)cc3F)CCC2)cc1

>  <Energy>  (26) 
54.85847615453253

>  <Genealogy>  (26) 
CS(=O)(=O)c1ccc(C2=C(c3ccc(S(C)(=O)=O)cc3F)CCC2)cc1 (3D coordinates assigned)
CS(=O)(=O)c1ccc(C2=C(c3ccc(S(C)(=O)=O)cc3F)CCC2)cc1 (nonaromatic ring conformer: 54.85847615453253 kcal/mol)

>  <smiles>  (26) 
CS(=O)(=O)c1ccc(C2=C(c3ccc(S(C)(=O)=O)cc3F)CCC2)cc1

>  <score_type>  (26) 
oracle

>  <origin>  (26) 
adg

>  <m_score__min__energy>  (26) 
-9.1600000000000001

>  <m_primary>  (26) 
energy

$$$$
26:0
     RDKit          3D

 43 45  0  0  0  0  0  0  0  0999 V2000
   61.3940   34.2230   48.8590 C   0  0  0  0  0  0  0  0  0  0  0  0
   60.0050   33.6610   48.8990 C   0  0  0  0  0  0  0  0  0  0  0  0
   59.3130   33.8530   49.9370 O   0  0  0  0  0  0  0  0  0  0  0  0
   59.4220   32.9260   47.7390 C   0  0  0  0  0  0  0  0  0  0  0  0
   59.1550   31.5490   47.8370 C   0  0  0  0  0  0  0  0  0  0  0  0
   58.6340   30.8680   46.7860 N   0  0  0  0  0  0  0  0  0  0  0  0
   58.3400   31.4650   45.6000 C   0  0  0  0  0  0  0  0  0  0  0  0
   57.8040   30.7090   44.5290 C   0  0  0  0  0  0  0  0  0  0  0  0
   57.5190   29.2570   44.6610 C   0  0  0  0  0  0  0  0  0  0  0  0
   57.2610   28.5720   43.6340 O   0  0  0  0  0  0  0  0  0  0  0  0
   57.5040   28.6330   45.9570 N   0  0  0  0  0  0  0  0  0  0  0  0
   57.5650   27.2090   46.1580 C   0  0  0  0  0  0  0  0  0  0  0  0
   58.7920   26.5660   46.3950 C   0  0  0  0  0  0  0  0  0  0  0  0
   58.8360   25.1880   46.6120 C   0  0  0  0  0  0  0  0  0  0  0  0
   57.6600   24.4370   46.6070 C   0  0  0  0  0  0  0  0  0  0  0  0
   56.4200   25.0630   46.3920 C   0  0  0  0  0  0  0  0  0  0  0  0
   55.1870   24.3290   46.3870 N   0  0  0  0  0  0  0  0  0  0  0  0
   54.6980   23.1710   45.1920 S   0  0  0  0  0  0  0  0  0  0  0  0
   55.8170   21.7860   45.1830 C   0  0  0  0  0  0  0  0  0  0  0  0
   54.7350   23.8290   43.8410 O   0  0  0  0  0  0  0  0  0  0  0  0
   53.2950   22.7080   45.4660 O   0  0  0  0  0  0  0  0  0  0  0  0
   56.3780   26.4510   46.1750 C   0  0  0  0  0  0  0  0  0  0  0  0
   55.1530   27.0740   45.9630 O   0  0  0  0  0  0  0  0  0  0  0  0
   57.5250   31.3570   43.3120 C   0  0  0  0  0  0  0  0  0  0  0  0
   57.7700   32.7210   43.1580 C   0  0  0  0  0  0  0  0  0  0  0  0
   58.3000   33.4660   44.2110 C   0  0  0  0  0  0  0  0  0  0  0  0
   58.5900   32.8480   45.4410 C   0  0  0  0  0  0  0  0  0  0  0  0
   59.1310   33.5780   46.5210 C   0  0  0  0  0  0  0  0  0  0  0  0
   59.3420   34.8150   46.3970 O   0  0  0  0  0  0  0  0  0  0  0  0
   61.7594   34.3709   49.8859 H   0  0  0  0  0  0  0  0  0  0  0  0
   62.0578   33.5227   48.3309 H   0  0  0  0  0  0  0  0  0  0  0  0
   61.3841   35.1879   48.3309 H   0  0  0  0  0  0  0  0  0  0  0  0
   59.3709   31.0183   48.7760 H   0  0  0  0  0  0  0  0  0  0  0  0
   57.3390   29.2420   46.7890 H   0  0  0  0  0  0  0  0  0  0  0  0
   59.7228   27.1520   46.4096 H   0  0  0  0  0  0  0  0  0  0  0  0
   59.8019   24.6918   46.7877 H   0  0  0  0  0  0  0  0  0  0  0  0
   57.7035   23.3503   46.7720 H   0  0  0  0  0  0  0  0  0  0  0  0
   56.0507   21.4967   46.2182 H   0  0  0  0  0  0  0  0  0  0  0  0
   55.3472   20.9384   44.6626 H   0  0  0  0  0  0  0  0  0  0  0  0
   56.7444   22.0673   44.6626 H   0  0  0  0  0  0  0  0  0  0  0  0
   57.1088   30.7811   42.4723 H   0  0  0  0  0  0  0  0  0  0  0  0
   57.5439   33.2123   42.2002 H   0  0  0  0  0  0  0  0  0  0  0  0
   58.4920   34.5411   44.0793 H   0  0  0  0  0  0  0  0  0  0  0  0
  1  2  1  0
  2  3  2  0
  2  4  1  0
  4  5  2  0
  5  6  1  0
  6  7  1  0
  7  8  2  0
  8  9  1  0
  9 10  2  0
  9 11  1  0
 11 12  1  0
 12 13  2  0
 13 14  1  0
 14 15  2  0
 15 16  1  0
 16 17  1  0
 17 18  1  0
 18 19  1  0
 18 20  2  0
 18 21  2  0
 16 22  2  0
 22 23  1  0
  8 24  1  0
 24 25  2  0
 25 26  1  0
 26 27  2  0
 27 28  1  0
 28 29  2  0
 28  4  1  0
 27  7  1  0
 22 12  1  0
  1 30  1  0
  1 31  1  0
  1 32  1  0
  5 33  1  0
 11 34  1  0
 13 35  1  0
 14 36  1  0
 15 37  1  0
 19 38  1  0
 19 39  1  0
 19 40  1  0
 24 41  1  0
 25 42  1  0
 26 43  1  0
M  CHG  3   6  -1  17  -1  23  -1
M  END
>  <UniqueID>  (27) 
24

>  <SMILES>  (27) 
CC(=O)c1c[n-]c2c(C(=O)Nc3cccc([N-]S(C)(=O)=O)c3[O-])cccc2c1=O

>  <Energy>  (27) 
60.65621667446214

>  <Genealogy>  (27) 
CC(=O)c1c[n-]c2c(C(=O)Nc3cccc([N-]S(C)(=O)=O)c3[O-])cccc2c1=O (protonated)
CC(=O)c1c[n-]c2c(C(=O)Nc3cccc([N-]S(C)(=O)=O)c3[O-])cccc2c1=O (3D coordinates assigned)
CC(=O)c1c[n-]c2c(C(=O)Nc3cccc([N-]S(C)(=O)=O)c3[O-])cccc2c1=O (optimized conformer: 60.65621667446214 kcal/mol)

>  <smiles>  (27) 
CC(=O)c1c[nH]c2c(C(=O)Nc3cccc(NS(C)(=O)=O)c3O)cccc2c1=O

>  <score_type>  (27) 
oracle

>  <origin>  (27) 
adg

>  <m_score__min__energy>  (27) 
-15.56

>  <m_primary>  (27) 
energy

$$$$
27:0
     RDKit          3D

 68 71  0  0  0  0  0  0  0  0999 V2000
   62.5380   28.1450   52.2150 C   0  0  0  0  0  0  0  0  0  0  0  0
   60.7750   28.0100   51.9820 S   0  0  0  0  0  0  0  0  0  0  0  0
   60.3560   26.5880   52.2300 O   0  0  0  0  0  0  0  0  0  0  0  0
   60.4140   28.3790   50.5700 O   0  0  0  0  0  0  0  0  0  0  0  0
   59.9260   29.0400   53.0920 N   0  0  0  0  0  0  0  0  0  0  0  0
   59.1060   30.1380   52.6620 C   0  0  0  0  0  0  0  0  0  0  0  0
   57.8260   30.3340   53.2080 C   0  0  0  0  0  0  0  0  0  0  0  0
   57.0170   31.3760   52.7510 C   0  0  0  0  0  0  0  0  0  0  0  0
   57.4790   32.2390   51.7550 C   0  0  0  0  0  0  0  0  0  0  0  0
   58.7600   32.0700   51.2070 C   0  0  0  0  0  0  0  0  0  0  0  0
   59.2530   33.0220   50.1450 C   0  0  0  0  0  0  0  0  0  0  0  0
   59.3830   32.3270   48.8210 C   0  0  0  0  0  0  0  0  0  0  0  0
   59.0580   32.9410   47.7670 O   0  0  0  0  0  0  0  0  0  0  0  0
   59.8810   30.9800   48.7620 N   0  0  0  0  0  0  0  0  0  0  0  0
   59.9150   30.1930   47.5610 C   0  0  0  0  0  0  0  0  0  0  0  0
   59.4310   30.6440   46.4860 O   0  0  0  0  0  0  0  0  0  0  0  0
   60.4870   28.8790   47.5920 N   0  0  0  0  0  0  0  0  0  0  0  0
   60.4970   28.0010   46.4220 C   0  0  0  0  0  0  0  0  0  0  0  0
   59.1640   27.3150   46.2690 C   0  0  0  0  0  0  0  0  0  0  0  0
   58.6040   26.6030   47.3420 C   0  0  0  0  0  0  0  0  0  0  0  0
   57.3870   25.9340   47.1900 C   0  0  0  0  0  0  0  0  0  0  0  0
   56.7000   25.9750   45.9680 C   0  0  0  0  0  0  0  0  0  0  0  0
   55.4080   25.2600   45.8250 C   0  0  0  0  0  0  0  0  0  0  0  0
   54.3640   25.9440   45.6360 O   0  0  0  0  0  0  0  0  0  0  0  0
   55.3120   23.8150   45.8840 N   0  0  0  0  0  0  0  0  0  0  0  0
   54.4670   23.1850   46.9050 C   0  0  0  0  0  0  0  0  0  0  0  0
   55.3090   22.7570   48.1090 C   0  0  0  0  0  0  0  0  0  0  0  0
   56.8130   22.6730   47.8010 C   0  0  0  0  0  0  0  0  0  0  0  0
   57.1590   21.5690   46.7910 C   0  0  0  0  0  0  0  0  0  0  0  0
   56.8880   21.9330   45.3380 C   0  0  0  0  0  0  0  0  0  0  0  0
   57.5060   21.1390   44.3510 C   0  0  0  0  0  0  0  0  0  0  0  0
   57.2790   21.3750   42.9950 C   0  0  0  0  0  0  0  0  0  0  0  0
   56.4080   22.3870   42.5970 C   0  0  0  0  0  0  0  0  0  0  0  0
   55.7620   23.1660   43.5530 C   0  0  0  0  0  0  0  0  0  0  0  0
   55.9950   22.9690   44.9290 C   0  0  0  0  0  0  0  0  0  0  0  0
   57.2630   26.6830   44.8920 C   0  0  0  0  0  0  0  0  0  0  0  0
   58.4850   27.3450   45.0390 C   0  0  0  0  0  0  0  0  0  0  0  0
   59.0110   28.0120   43.9810 F   0  0  0  0  0  0  0  0  0  0  0  0
   59.5690   31.0080   51.6570 C   0  0  0  0  0  0  0  0  0  0  0  0
   60.8390   30.8220   51.1130 O   0  0  0  0  0  0  0  0  0  0  0  0
   62.7654   28.1624   53.2911 H   0  0  0  0  0  0  0  0  0  0  0  0
   63.0366   27.2824   51.7488 H   0  0  0  0  0  0  0  0  0  0  0  0
   62.8994   29.0735   51.7488 H   0  0  0  0  0  0  0  0  0  0  0  0
   59.8740   28.7330   54.0920 H   0  0  0  0  0  0  0  0  0  0  0  0
   57.4598   29.6632   53.9992 H   0  0  0  0  0  0  0  0  0  0  0  0
   56.0127   31.5177   53.1767 H   0  0  0  0  0  0  0  0  0  0  0  0
   56.8350   33.0561   51.3978 H   0  0  0  0  0  0  0  0  0  0  0  0
   58.5391   33.8531   50.0469 H   0  0  0  0  0  0  0  0  0  0  0  0
   60.2427   33.3986   50.4428 H   0  0  0  0  0  0  0  0  0  0  0  0
   60.2070   30.5350   49.6490 H   0  0  0  0  0  0  0  0  0  0  0  0
   60.9200   28.5340   48.4760 H   0  0  0  0  0  0  0  0  0  0  0  0
   60.7024   28.5989   45.5218 H   0  0  0  0  0  0  0  0  0  0  0  0
   61.2780   27.2379   46.5551 H   0  0  0  0  0  0  0  0  0  0  0  0
   59.1273   26.5718   48.3091 H   0  0  0  0  0  0  0  0  0  0  0  0
   56.9644   25.3708   48.0351 H   0  0  0  0  0  0  0  0  0  0  0  0
   53.7021   23.9033   47.2353 H   0  0  0  0  0  0  0  0  0  0  0  0
   53.9891   22.2944   46.4708 H   0  0  0  0  0  0  0  0  0  0  0  0
   55.1586   23.4875   48.9175 H   0  0  0  0  0  0  0  0  0  0  0  0
   54.9784   21.7476   48.3952 H   0  0  0  0  0  0  0  0  0  0  0  0
   57.1409   23.6392   47.3899 H   0  0  0  0  0  0  0  0  0  0  0  0
   57.3281   22.4305   48.7422 H   0  0  0  0  0  0  0  0  0  0  0  0
   58.2289   21.3342   46.8922 H   0  0  0  0  0  0  0  0  0  0  0  0
   56.5062   20.7153   47.0259 H   0  0  0  0  0  0  0  0  0  0  0  0
   58.1768   20.3217   44.6543 H   0  0  0  0  0  0  0  0  0  0  0  0
   57.7888   20.7607   42.2382 H   0  0  0  0  0  0  0  0  0  0  0  0
   56.2307   22.5705   41.5270 H   0  0  0  0  0  0  0  0  0  0  0  0
   55.0587   23.9475   43.2294 H   0  0  0  0  0  0  0  0  0  0  0  0
   56.7374   26.7162   43.9263 H   0  0  0  0  0  0  0  0  0  0  0  0
  1  2  1  0
  2  3  2  0
  2  4  2  0
  2  5  1  0
  5  6  1  0
  6  7  2  0
  7  8  1  0
  8  9  2  0
  9 10  1  0
 10 11  1  0
 11 12  1  0
 12 13  2  0
 12 14  1  0
 14 15  1  0
 15 16  2  0
 15 17  1  0
 17 18  1  0
 18 19  1  0
 19 20  2  0
 20 21  1  0
 21 22  2  0
 22 23  1  0
 23 24  2  0
 23 25  1  0
 25 26  1  0
 26 27  1  0
 27 28  1  0
 28 29  1  0
 29 30  1  0
 30 31  2  0
 31 32  1  0
 32 33  2  0
 33 34  1  0
 34 35  2  0
 22 36  1  0
 36 37  2  0
 37 38  1  0
 10 39  2  0
 39 40  1  0
 39  6  1  0
 37 19  1  0
 35 25  1  0
 35 30  1  0
  1 41  1  0
  1 42  1  0
  1 43  1  0
  5 44  1  0
  7 45  1  0
  8 46  1  0
  9 47  1  0
 11 48  1  0
 11 49  1  0
 14 50  1  0
 17 51  1  0
 18 52  1  0
 18 53  1  0
 20 54  1  0
 21 55  1  0
 26 56  1  0
 26 57  1  0
 27 58  1  0
 27 59  1  0
 28 60  1  0
 28 61  1  0
 29 62  1  0
 29 63  1  0
 31 64  1  0
 32 65  1  0
 33 66  1  0
 34 67  1  0
 36 68  1  0
M  CHG  1  40  -1
M  END
>  <UniqueID>  (28) 
25

>  <SMILES>  (28) 
CS(=O)(=O)Nc1cccc(CC(=O)NC(=O)NCc2ccc(C(=O)N3CCCCc4ccccc43)cc2F)c1[O-]

>  <Energy>  (28) 
81.6798070819578

>  <Genealogy>  (28) 
CS(=O)(=O)Nc1cccc(CC(=O)NC(=O)NCc2ccc(C(=O)N3CCCCc4ccccc43)cc2F)c1[O-] (protonated)
CS(=O)(=O)Nc1cccc(CC(=O)NC(=O)NCc2ccc(C(=O)N3CCCCc4ccccc43)cc2F)c1[O-] (3D coordinates assigned)
CS(=O)(=O)Nc1cccc(CC(=O)NC(=O)NCc2ccc(C(=O)N3CCCCc4ccccc43)cc2F)c1[O-] (nonaromatic ring conformer: 81.6798070819578 kcal/mol)

>  <smiles>  (28) 
CS(=O)(=O)Nc1cccc(CC(=O)NC(=O)NCc2ccc(C(=O)N3CCCCc4ccccc43)cc2F)c1O

>  <score_type>  (28) 
oracle

>  <origin>  (28) 
adg

>  <m_score__min__energy>  (28) 
-11.17

>  <m_primary>  (28) 
energy

$$$$
28:0
     RDKit          3D

 45 47  0  0  0  0  0  0  0  0999 V2000
   64.3945   34.2191   47.8396 H   0  0  0  0  0  0  0  0  0  0  0  0
   63.3680   33.8350   47.7460 C   0  0  0  0  0  0  0  0  0  0  0  0
   62.7570   33.7780   46.4940 C   0  0  0  0  0  0  0  0  0  0  0  0
   63.2980   34.1273   45.6022 H   0  0  0  0  0  0  0  0  0  0  0  0
   61.4590   33.2780   46.3710 C   0  0  0  0  0  0  0  0  0  0  0  0
   60.9847   33.2321   45.3796 H   0  0  0  0  0  0  0  0  0  0  0  0
   60.7530   32.8330   47.5010 C   0  0  0  0  0  0  0  0  0  0  0  0
   59.1460   32.1250   47.2690 S   0  0  0  0  0  0  0  0  0  0  0  0
   58.0850   33.1730   47.4590 O   0  0  0  0  0  0  0  0  0  0  0  0
   58.9480   31.0240   48.2740 O   0  0  0  0  0  0  0  0  0  0  0  0
   59.0280   31.4970   45.6580 N   0  0  0  0  0  0  0  0  0  0  0  0
   57.9340   31.0180   45.1500 C   0  0  0  0  0  0  0  0  0  0  0  0
   57.2040   30.0380   45.7310 N   0  0  0  0  0  0  0  0  0  0  0  0
   56.1760   29.8820   44.8740 C   0  0  0  0  0  0  0  0  0  0  0  0
   55.1470   28.9700   45.0640 O   0  0  0  0  0  0  0  0  0  0  0  0
   56.2870   30.7440   43.8070 C   0  0  0  0  0  0  0  0  0  0  0  0
   55.5831   30.8355   42.9666 H   0  0  0  0  0  0  0  0  0  0  0  0
   57.4130   31.4520   43.9820 N   0  0  0  0  0  0  0  0  0  0  0  0
   57.9020   32.5350   43.1350 C   0  0  0  0  0  0  0  0  0  0  0  0
   58.2726   33.3558   43.7667 H   0  0  0  0  0  0  0  0  0  0  0  0
   58.7196   32.1632   42.4999 H   0  0  0  0  0  0  0  0  0  0  0  0
   57.0824   32.9024   42.4999 H   0  0  0  0  0  0  0  0  0  0  0  0
   61.3650   32.9150   48.7790 C   0  0  0  0  0  0  0  0  0  0  0  0
   60.6690   32.5090   50.0190 C   0  0  0  0  0  0  0  0  0  0  0  0
   61.3180   31.9480   50.9430 O   0  0  0  0  0  0  0  0  0  0  0  0
   59.2660   32.7750   50.1750 N   0  0  0  0  0  0  0  0  0  0  0  0
   58.8220   33.4450   49.5070 H   0  0  0  0  0  0  0  0  0  0  0  0
   58.4900   32.3460   51.3080 C   0  0  0  0  0  0  0  0  0  0  0  0
   58.8420   32.7910   52.5880 C   0  0  0  0  0  0  0  0  0  0  0  0
   59.7066   33.4588   52.7166 H   0  0  0  0  0  0  0  0  0  0  0  0
   58.1020   32.3920   53.7010 C   0  0  0  0  0  0  0  0  0  0  0  0
   58.3932   32.7357   54.7045 H   0  0  0  0  0  0  0  0  0  0  0  0
   56.9930   31.5580   53.5460 C   0  0  0  0  0  0  0  0  0  0  0  0
   56.4206   31.2421   54.4306 H   0  0  0  0  0  0  0  0  0  0  0  0
   56.6010   31.1180   52.2680 C   0  0  0  0  0  0  0  0  0  0  0  0
   55.4110   30.2440   52.0820 C   0  0  0  0  0  0  0  0  0  0  0  0
   55.5030   29.0060   52.3050 O   0  0  0  0  0  0  0  0  0  0  0  0
   54.0880   30.7900   51.6360 C   0  0  0  0  0  0  0  0  0  0  0  0
   53.4792   31.0413   52.5170 H   0  0  0  0  0  0  0  0  0  0  0  0
   54.2496   31.6949   51.0318 H   0  0  0  0  0  0  0  0  0  0  0  0
   53.5644   30.0345   51.0318 H   0  0  0  0  0  0  0  0  0  0  0  0
   57.3570   31.5270   51.1510 C   0  0  0  0  0  0  0  0  0  0  0  0
   57.0573   31.2017   50.1438 H   0  0  0  0  0  0  0  0  0  0  0  0
   62.6780   33.4050   48.8810 C   0  0  0  0  0  0  0  0  0  0  0  0
   63.1672   33.4503   49.8652 H   0  0  0  0  0  0  0  0  0  0  0  0
  1  2  1  0
  2  3  2  0
  3  4  1  0
  3  5  1  0
  5  6  1  0
  5  7  2  0
  7  8  1  0
  8  9  2  0
  8 10  2  0
  8 11  1  0
 11 12  2  0
 12 13  1  0
 13 14  1  0
 14 15  1  0
 14 16  2  0
 16 17  1  0
 16 18  1  0
 18 19  1  0
 19 20  1  0
 19 21  1  0
 19 22  1  0
  7 23  1  0
 23 24  1  0
 24 25  2  0
 24 26  1  0
 26 27  1  0
 26 28  1  0
 28 29  2  0
 29 30  1  0
 29 31  1  0
 31 32  1  0
 31 33  2  0
 33 34  1  0
 33 35  1  0
 35 36  1  0
 36 37  2  0
 36 38  1  0
 38 39  1  0
 38 40  1  0
 38 41  1  0
 35 42  2  0
 42 43  1  0
 23 44  2  0
 44 45  1  0
 44  2  1  0
 18 12  1  0
 42 28  1  0
M  CHG  2  13  -1  15  -1
M  END
>  <UniqueID>  (29) 
26

>  <SMILES>  (29) 
CC(=O)c1cccc(NC(=O)c2ccccc2S(=O)(=O)/N=c2\[n-]c([O-])cn2C)c1

>  <Energy>  (29) 
89.86992454722204

>  <Genealogy>  (29) 
CC(=O)c1cccc(NC(=O)c2ccccc2S(=O)(=O)N=c2[n-]c([O-])cn2C)c1 (protonated)
CC(=O)c1cccc(NC(=O)c2ccccc2S(=O)(=O)/N=c2\[n-]c([O-])cn2C)c1 (cis-trans isomerization)
CC(=O)c1cccc(NC(=O)c2ccccc2S(=O)(=O)/N=c2\[n-]c([O-])cn2C)c1 (3D coordinates assigned)
CC(=O)c1cccc(NC(=O)c2ccccc2S(=O)(=O)/N=c2\[n-]c([O-])cn2C)c1 (optimized conformer: 89.86992454722204 kcal/mol)

>  <smiles>  (29) 
CC(=O)c1cccc(NC(=O)c2ccccc2S(=O)(=O)N=c2[nH]c(O)cn2C)c1

>  <score_type>  (29) 
oracle

>  <origin>  (29) 
adg

>  <m_score__min__energy>  (29) 
-14.550000000000001

>  <m_primary>  (29) 
energy

$$$$
29:0
     RDKit          3D

 41 43  0  0  0  0  0  0  0  0999 V2000
   56.6670   24.3300   47.8370 O   0  0  0  0  0  0  0  0  0  0  0  0
   56.2600   24.7100   46.7070 C   0  0  0  0  0  0  0  0  0  0  0  0
   55.8510   23.6960   45.6880 C   0  0  0  0  0  0  0  0  0  0  0  0
   54.3600   23.5530   45.6770 C   0  0  0  0  0  0  0  0  0  0  0  0
   53.7230   22.3700   45.6220 N   0  0  0  0  0  0  0  0  0  0  0  0
   52.4180   22.7140   45.5700 C   0  0  0  0  0  0  0  0  0  0  0  0
   51.2160   21.6120   45.4910 S   0  0  0  0  0  0  0  0  0  0  0  0
   52.1890   24.0460   45.5750 N   0  0  0  0  0  0  0  0  0  0  0  0
   53.4260   24.5650   45.6380 C   0  0  0  0  0  0  0  0  0  0  0  0
   53.6830   25.9330   45.6490 O   0  0  0  0  0  0  0  0  0  0  0  0
   56.0880   26.1040   46.4180 N   0  0  0  0  0  0  0  0  0  0  0  0
   57.1320   27.0700   46.2140 C   0  0  0  0  0  0  0  0  0  0  0  0
   58.4600   26.8150   46.5940 C   0  0  0  0  0  0  0  0  0  0  0  0
   59.4550   27.7640   46.3530 C   0  0  0  0  0  0  0  0  0  0  0  0
   59.1380   28.9700   45.7270 C   0  0  0  0  0  0  0  0  0  0  0  0
   57.8210   29.2370   45.3330 C   0  0  0  0  0  0  0  0  0  0  0  0
   57.4430   30.7620   44.5230 S   0  0  0  0  0  0  0  0  0  0  0  0
   57.5660   30.5580   43.0380 O   0  0  0  0  0  0  0  0  0  0  0  0
   56.0370   31.1810   44.8540 O   0  0  0  0  0  0  0  0  0  0  0  0
   58.5520   32.0110   45.0400 N   0  0  0  0  0  0  0  0  0  0  0  0
   58.2710   33.2620   44.3100 C   0  0  0  0  0  0  0  0  0  0  0  0
   58.8640   34.4670   45.0580 C   0  0  0  0  0  0  0  0  0  0  0  0
   58.3650   34.6420   46.3790 O   0  0  0  0  0  0  0  0  0  0  0  0
   57.7890   33.4680   46.9330 C   0  0  0  0  0  0  0  0  0  0  0  0
   58.5190   32.1800   46.5110 C   0  0  0  0  0  0  0  0  0  0  0  0
   56.8200   28.2740   45.5610 C   0  0  0  0  0  0  0  0  0  0  0  0
   55.5130   28.5060   45.1420 O   0  0  0  0  0  0  0  0  0  0  0  0
   56.1932   24.0200   44.6940 H   0  0  0  0  0  0  0  0  0  0  0  0
   56.3048   22.7265   45.9412 H   0  0  0  0  0  0  0  0  0  0  0  0
   54.2300   26.3630   46.3840 H   0  0  0  0  0  0  0  0  0  0  0  0
   58.7169   25.8639   47.0833 H   0  0  0  0  0  0  0  0  0  0  0  0
   60.4922   27.5604   46.6576 H   0  0  0  0  0  0  0  0  0  0  0  0
   59.9263   29.7146   45.5421 H   0  0  0  0  0  0  0  0  0  0  0  0
   58.7175   33.2035   43.3064 H   0  0  0  0  0  0  0  0  0  0  0  0
   57.1814   33.3920   44.2335 H   0  0  0  0  0  0  0  0  0  0  0  0
   59.9542   34.3329   45.1169 H   0  0  0  0  0  0  0  0  0  0  0  0
   58.5724   35.3633   44.4908 H   0  0  0  0  0  0  0  0  0  0  0  0
   57.8221   33.5458   48.0297 H   0  0  0  0  0  0  0  0  0  0  0  0
   56.7580   33.3992   46.5558 H   0  0  0  0  0  0  0  0  0  0  0  0
   59.5523   32.2195   46.8861 H   0  0  0  0  0  0  0  0  0  0  0  0
   57.9706   31.3266   46.9364 H   0  0  0  0  0  0  0  0  0  0  0  0
  1  2  2  0
  2  3  1  0
  3  4  1  0
  4  5  1  0
  5  6  1  0
  6  7  2  0
  6  8  1  0
  8  9  1  0
  9 10  1  0
  2 11  1  0
 11 12  1  0
 12 13  2  0
 13 14  1  0
 14 15  2  0
 15 16  1  0
 16 17  1  0
 17 18  2  0
 17 19  2  0
 17 20  1  0
 20 21  1  0
 21 22  1  0
 22 23  1  0
 23 24  1  0
 24 25  1  0
 16 26  2  0
 26 27  1  0
  9  4  2  0
 26 12  1  0
 25 20  1  0
  3 28  1  0
  3 29  1  0
 10 30  1  0
 13 31  1  0
 14 32  1  0
 15 33  1  0
 21 34  1  0
 21 35  1  0
 22 36  1  0
 22 37  1  0
 24 38  1  0
 24 39  1  0
 25 40  1  0
 25 41  1  0
M  CHG  4   5  -1   8  -1  11  -1  27  -1
M  END
>  <UniqueID>  (30) 
27

>  <SMILES>  (30) 
O=C(Cc1[n-]c(=S)[n-]c1O)[N-]c1cccc(S(=O)(=O)N2CCOCC2)c1[O-]

>  <Energy>  (30) 
85.25594982981272

>  <Genealogy>  (30) 
O=C(Cc1[n-]c(=S)[n-]c1O)[N-]c1cccc(S(=O)(=O)N2CCOCC2)c1[O-] (protonated)
O=C(Cc1[n-]c(=S)[n-]c1O)[N-]c1cccc(S(=O)(=O)N2CCOCC2)c1[O-] (3D coordinates assigned)
O=C(Cc1[n-]c(=S)[n-]c1O)[N-]c1cccc(S(=O)(=O)N2CCOCC2)c1[O-] (nonaromatic ring conformer: 85.25594982981272 kcal/mol)

>  <smiles>  (30) 
O=C(Cc1[nH]c(=S)[nH]c1O)Nc1cccc(S(=O)(=O)N2CCOCC2)c1O

>  <score_type>  (30) 
oracle

>  <origin>  (30) 
adg

>  <m_score__min__energy>  (30) 
-17.449999999999999

>  <m_primary>  (30) 
energy

$$$$
30:0
     RDKit          3D

 51 53  0  0  0  0  0  0  0  0999 V2000
   60.5890   31.4730   47.1790 C   0  0  0  0  0  0  0  0  0  0  0  0
   59.4080   31.8030   48.0770 C   0  0  0  0  0  0  0  0  0  0  0  0
   58.1960   31.6120   47.3540 O   0  0  0  0  0  0  0  0  0  0  0  0
   58.0290   31.8800   45.9870 C   0  0  0  0  0  0  0  0  0  0  0  0
   58.0440   33.1960   45.4810 C   0  0  0  0  0  0  0  0  0  0  0  0
   57.9170   33.4270   44.1090 C   0  0  0  0  0  0  0  0  0  0  0  0
   57.7780   32.3550   43.2280 C   0  0  0  0  0  0  0  0  0  0  0  0
   57.7560   31.0490   43.7160 C   0  0  0  0  0  0  0  0  0  0  0  0
   57.8650   30.8010   45.0950 C   0  0  0  0  0  0  0  0  0  0  0  0
   57.8260   29.4460   45.5750 N   0  0  0  0  0  0  0  0  0  0  0  0
   58.8870   28.7280   45.9910 C   0  0  0  0  0  0  0  0  0  0  0  0
   58.4900   27.4320   46.2800 C   0  0  0  0  0  0  0  0  0  0  0  0
   59.3490   26.3160   46.7250 C   0  0  0  0  0  0  0  0  0  0  0  0
   60.0090   26.4390   47.7900 O   0  0  0  0  0  0  0  0  0  0  0  0
   59.4920   25.1100   45.9600 N   0  0  0  0  0  0  0  0  0  0  0  0
   58.4940   24.0940   45.7830 C   0  0  0  0  0  0  0  0  0  0  0  0
   57.1210   24.4010   45.8140 C   0  0  0  0  0  0  0  0  0  0  0  0
   56.1640   23.4000   45.6020 C   0  0  0  0  0  0  0  0  0  0  0  0
   54.4470   23.8090   45.5760 S   0  0  0  0  0  0  0  0  0  0  0  0
   54.2960   25.3030   45.6420 O   0  0  0  0  0  0  0  0  0  0  0  0
   53.8470   23.3390   44.2800 O   0  0  0  0  0  0  0  0  0  0  0  0
   53.5930   23.0770   46.9120 N   0  0  0  0  0  0  0  0  0  0  0  0
   54.5210   22.8340   48.0240 C   0  0  0  0  0  0  0  0  0  0  0  0
   52.9770   21.8170   46.4790 C   0  0  0  0  0  0  0  0  0  0  0  0
   56.5790   22.0760   45.4040 C   0  0  0  0  0  0  0  0  0  0  0  0
   57.9390   21.7580   45.4180 C   0  0  0  0  0  0  0  0  0  0  0  0
   58.8950   22.7610   45.6070 C   0  0  0  0  0  0  0  0  0  0  0  0
   60.2460   22.4320   45.6090 O   0  0  0  0  0  0  0  0  0  0  0  0
   57.1260   27.3630   46.0500 C   0  0  0  0  0  0  0  0  0  0  0  0
   56.7640   28.6150   45.6020 C   0  0  0  0  0  0  0  0  0  0  0  0
   55.4850   28.9650   45.1840 O   0  0  0  0  0  0  0  0  0  0  0  0
   61.4640   31.2285   47.7991 H   0  0  0  0  0  0  0  0  0  0  0  0
   60.3371   30.6108   46.5440 H   0  0  0  0  0  0  0  0  0  0  0  0
   60.8205   32.3408   46.5440 H   0  0  0  0  0  0  0  0  0  0  0  0
   59.4192   31.1416   48.9559 H   0  0  0  0  0  0  0  0  0  0  0  0
   59.4782   32.8502   48.4063 H   0  0  0  0  0  0  0  0  0  0  0  0
   58.1563   34.0457   46.1705 H   0  0  0  0  0  0  0  0  0  0  0  0
   57.9267   34.4569   43.7228 H   0  0  0  0  0  0  0  0  0  0  0  0
   57.6857   32.5398   42.1476 H   0  0  0  0  0  0  0  0  0  0  0  0
   57.6526   30.2065   43.0164 H   0  0  0  0  0  0  0  0  0  0  0  0
   59.9133   29.1122   46.0868 H   0  0  0  0  0  0  0  0  0  0  0  0
   56.7968   25.4344   46.0061 H   0  0  0  0  0  0  0  0  0  0  0  0
   53.9930   22.9722   48.9791 H   0  0  0  0  0  0  0  0  0  0  0  0
   54.9050   21.8050   47.9629 H   0  0  0  0  0  0  0  0  0  0  0  0
   55.3600   23.5427   47.9629 H   0  0  0  0  0  0  0  0  0  0  0  0
   52.6888   21.2274   47.3618 H   0  0  0  0  0  0  0  0  0  0  0  0
   52.0834   22.0341   45.8754 H   0  0  0  0  0  0  0  0  0  0  0  0
   53.6972   21.2452   45.8754 H   0  0  0  0  0  0  0  0  0  0  0  0
   55.8322   21.2858   45.2372 H   0  0  0  0  0  0  0  0  0  0  0  0
   58.2593   20.7148   45.2799 H   0  0  0  0  0  0  0  0  0  0  0  0
   56.4697   26.4921   46.1945 H   0  0  0  0  0  0  0  0  0  0  0  0
  1  2  1  0
  2  3  1  0
  3  4  1  0
  4  5  2  0
  5  6  1  0
  6  7  2  0
  7  8  1  0
  8  9  2  0
  9 10  1  0
 10 11  1  0
 11 12  2  0
 12 13  1  0
 13 14  2  0
 13 15  1  0
 15 16  1  0
 16 17  2  0
 17 18  1  0
 18 19  1  0
 19 20  2  0
 19 21  2  0
 19 22  1  0
 22 23  1  0
 22 24  1  0
 18 25  2  0
 25 26  1  0
 26 27  2  0
 27 28  1  0
 12 29  1  0
 29 30  2  0
 30 31  1  0
  9  4  1  0
 30 10  1  0
 27 16  1  0
  1 32  1  0
  1 33  1  0
  1 34  1  0
  2 35  1  0
  2 36  1  0
  5 37  1  0
  6 38  1  0
  7 39  1  0
  8 40  1  0
 11 41  1  0
 17 42  1  0
 23 43  1  0
 23 44  1  0
 23 45  1  0
 24 46  1  0
 24 47  1  0
 24 48  1  0
 25 49  1  0
 26 50  1  0
 29 51  1  0
M  CHG  3  15  -1  28  -1  31  -1
M  END
>  <UniqueID>  (31) 
28

>  <SMILES>  (31) 
CCOc1ccccc1-n1cc(C(=O)[N-]c2cc(S(=O)(=O)N(C)C)ccc2[O-])cc1[O-]

>  <Energy>  (31) 
83.71498337914885

>  <Genealogy>  (31) 
CCOc1ccccc1-n1cc(C(=O)[N-]c2cc(S(=O)(=O)N(C)C)ccc2[O-])cc1[O-] (protonated)
CCOc1ccccc1-n1cc(C(=O)[N-]c2cc(S(=O)(=O)N(C)C)ccc2[O-])cc1[O-] (3D coordinates assigned)
CCOc1ccccc1-n1cc(C(=O)[N-]c2cc(S(=O)(=O)N(C)C)ccc2[O-])cc1[O-] (optimized conformer: 83.71498337914885 kcal/mol)

>  <smiles>  (31) 
CCOc1ccccc1-n1cc(C(=O)Nc2cc(S(=O)(=O)N(C)C)ccc2O)cc1O

>  <score_type>  (31) 
oracle

>  <origin>  (31) 
adg

>  <m_score__min__energy>  (31) 
-14.93

>  <m_primary>  (31) 
energy

$$$$
31:0
     RDKit          3D

 49 52  0  0  0  0  0  0  0  0999 V2000
   60.9570   30.1780   47.6090 C   0  0  0  0  0  0  0  0  0  0  0  0
   59.8140   30.7310   46.8600 N   0  0  0  0  0  0  0  0  0  0  0  0
   59.7180   32.0890   46.6700 C   0  0  0  0  0  0  0  0  0  0  0  0
   60.5760   33.0060   47.3750 N   0  0  0  0  0  0  0  0  0  0  0  0
   60.1670   33.4810   48.7030 C   0  0  0  0  0  0  0  0  0  0  0  0
   61.3160   34.2070   49.4030 C   0  0  0  0  0  0  0  0  0  0  0  0
   62.5570   33.4680   49.1600 N   0  0  0  0  0  0  0  0  0  0  0  0
   62.9850   33.6230   47.7670 C   0  0  0  0  0  0  0  0  0  0  0  0
   61.8320   33.4490   46.7480 C   0  0  0  0  0  0  0  0  0  0  0  0
   58.7690   32.5970   45.8400 N   0  0  0  0  0  0  0  0  0  0  0  0
   57.8650   31.8030   45.2150 C   0  0  0  0  0  0  0  0  0  0  0  0
   57.0170   32.3190   44.4380 O   0  0  0  0  0  0  0  0  0  0  0  0
   57.8590   30.4280   45.4680 C   0  0  0  0  0  0  0  0  0  0  0  0
   56.8870   29.5830   44.9020 C   0  0  0  0  0  0  0  0  0  0  0  0
   56.8370   28.2330   45.2530 C   0  0  0  0  0  0  0  0  0  0  0  0
   57.7540   27.7090   46.1720 C   0  0  0  0  0  0  0  0  0  0  0  0
   57.6630   26.3570   46.6360 N   0  0  0  0  0  0  0  0  0  0  0  0
   56.2710   25.3450   46.4140 S   0  0  0  0  0  0  0  0  0  0  0  0
   55.9390   24.6560   47.7110 O   0  0  0  0  0  0  0  0  0  0  0  0
   55.1080   26.1960   45.9970 O   0  0  0  0  0  0  0  0  0  0  0  0
   56.5930   24.1660   45.1410 C   0  0  0  0  0  0  0  0  0  0  0  0
   55.7330   24.0610   44.0380 C   0  0  0  0  0  0  0  0  0  0  0  0
   55.9490   23.0690   43.0800 C   0  0  0  0  0  0  0  0  0  0  0  0
   57.0170   22.1810   43.2130 C   0  0  0  0  0  0  0  0  0  0  0  0
   57.8870   22.2950   44.2960 C   0  0  0  0  0  0  0  0  0  0  0  0
   57.6810   23.2870   45.2570 C   0  0  0  0  0  0  0  0  0  0  0  0
   58.5270   23.3800   46.3100 F   0  0  0  0  0  0  0  0  0  0  0  0
   58.7630   28.5290   46.6860 C   0  0  0  0  0  0  0  0  0  0  0  0
   58.8410   29.9000   46.3410 C   0  0  0  0  0  0  0  0  0  0  0  0
   60.7670   30.2699   48.6886 H   0  0  0  0  0  0  0  0  0  0  0  0
   61.0873   29.1172   47.3487 H   0  0  0  0  0  0  0  0  0  0  0  0
   61.8696   30.7342   47.3487 H   0  0  0  0  0  0  0  0  0  0  0  0
   59.3189   34.1726   48.5922 H   0  0  0  0  0  0  0  0  0  0  0  0
   59.8785   32.6120   49.3125 H   0  0  0  0  0  0  0  0  0  0  0  0
   61.4082   35.2271   49.0018 H   0  0  0  0  0  0  0  0  0  0  0  0
   61.1197   34.2640   50.4838 H   0  0  0  0  0  0  0  0  0  0  0  0
   63.3030   33.8620   49.7760 H   0  0  0  0  0  0  0  0  0  0  0  0
   63.4115   34.6293   47.6429 H   0  0  0  0  0  0  0  0  0  0  0  0
   63.7217   32.8320   47.5630 H   0  0  0  0  0  0  0  0  0  0  0  0
   61.6547   34.4138   46.2503 H   0  0  0  0  0  0  0  0  0  0  0  0
   62.1372   32.6702   46.0337 H   0  0  0  0  0  0  0  0  0  0  0  0
   58.7140   33.6300   45.6980 H   0  0  0  0  0  0  0  0  0  0  0  0
   56.1631   29.9881   44.1796 H   0  0  0  0  0  0  0  0  0  0  0  0
   56.0743   27.5784   44.8059 H   0  0  0  0  0  0  0  0  0  0  0  0
   54.8900   24.7590   43.9281 H   0  0  0  0  0  0  0  0  0  0  0  0
   55.2737   22.9869   42.2156 H   0  0  0  0  0  0  0  0  0  0  0  0
   57.1723   21.3911   42.4633 H   0  0  0  0  0  0  0  0  0  0  0  0
   58.7365   21.6030   44.3938 H   0  0  0  0  0  0  0  0  0  0  0  0
   59.5099   28.1012   47.3709 H   0  0  0  0  0  0  0  0  0  0  0  0
  1  2  1  0
  2  3  1  0
  3  4  1  0
  4  5  1  0
  5  6  1  0
  6  7  1  0
  7  8  1  0
  8  9  1  0
  3 10  2  0
 10 11  1  0
 11 12  2  0
 11 13  1  0
 13 14  2  0
 14 15  1  0
 15 16  2  0
 16 17  1  0
 17 18  1  0
 18 19  2  0
 18 20  2  0
 18 21  1  0
 21 22  2  0
 22 23  1  0
 23 24  2  0
 24 25  1  0
 25 26  2  0
 26 27  1  0
 16 28  1  0
 28 29  2  0
 29  2  1  0
  9  4  1  0
 29 13  1  0
 26 21  1  0
  1 30  1  0
  1 31  1  0
  1 32  1  0
  5 33  1  0
  5 34  1  0
  6 35  1  0
  6 36  1  0
  7 37  1  0
  8 38  1  0
  8 39  1  0
  9 40  1  0
  9 41  1  0
 10 42  1  0
 14 43  1  0
 15 44  1  0
 22 45  1  0
 23 46  1  0
 24 47  1  0
 25 48  1  0
 28 49  1  0
M  CHG  2  10   1  17  -1
M  END
>  <UniqueID>  (32) 
29

>  <SMILES>  (32) 
Cn1c(N2CCNCC2)[nH+]c(=O)c2ccc([N-]S(=O)(=O)c3ccccc3F)cc21

>  <Energy>  (32) 
77.83375227749723

>  <Genealogy>  (32) 
Cn1c(N2CCNCC2)[nH+]c(=O)c2ccc([N-]S(=O)(=O)c3ccccc3F)cc21 (protonated)
Cn1c(N2CCNCC2)[nH+]c(=O)c2ccc([N-]S(=O)(=O)c3ccccc3F)cc21 (3D coordinates assigned)
Cn1c(N2CCNCC2)[nH+]c(=O)c2ccc([N-]S(=O)(=O)c3ccccc3F)cc21 (nonaromatic ring conformer: 77.83375227749723 kcal/mol)

>  <smiles>  (32) 
Cn1c(N2CCNCC2)nc(=O)c2ccc(NS(=O)(=O)c3ccccc3F)cc21

>  <score_type>  (32) 
oracle

>  <origin>  (32) 
adg

>  <m_score__min__energy>  (32) 
-8.8499999999999996

>  <m_primary>  (32) 
energy

$$$$
32:0
     RDKit          3D

 60 63  0  0  0  0  0  0  0  0999 V2000
   58.9720   30.7220   51.5120 C   0  0  0  0  0  0  0  0  0  0  0  0
   58.0180   31.0990   50.5430 O   0  0  0  0  0  0  0  0  0  0  0  0
   58.5320   32.1650   49.7720 C   0  0  0  0  0  0  0  0  0  0  0  0
   59.5130   32.9720   50.6200 C   0  0  0  0  0  0  0  0  0  0  0  0
   60.4860   33.6170   49.7970 O   0  0  0  0  0  0  0  0  0  0  0  0
   61.8550   33.3050   49.7410 C   0  0  0  0  0  0  0  0  0  0  0  0
   62.8090   33.9620   50.5470 C   0  0  0  0  0  0  0  0  0  0  0  0
   64.1650   33.6460   50.4350 C   0  0  0  0  0  0  0  0  0  0  0  0
   64.5870   32.6770   49.5250 C   0  0  0  0  0  0  0  0  0  0  0  0
   63.6530   32.0120   48.7300 C   0  0  0  0  0  0  0  0  0  0  0  0
   62.2860   32.3110   48.8380 C   0  0  0  0  0  0  0  0  0  0  0  0
   61.3390   31.6080   48.0130 N   0  0  0  0  0  0  0  0  0  0  0  0
   60.8190   31.9880   46.8170 C   0  0  0  0  0  0  0  0  0  0  0  0
   61.0880   33.0870   46.2640 O   0  0  0  0  0  0  0  0  0  0  0  0
   59.9650   31.0840   46.2670 N   0  0  0  0  0  0  0  0  0  0  0  0
   59.9670   30.0900   47.1780 C   0  0  0  0  0  0  0  0  0  0  0  0
   59.2850   28.8780   47.1330 C   0  0  0  0  0  0  0  0  0  0  0  0
   58.4470   28.5950   46.0430 O   0  0  0  0  0  0  0  0  0  0  0  0
   58.8680   28.5320   44.6800 C   0  0  0  0  0  0  0  0  0  0  0  0
   57.7360   28.9800   43.7470 C   0  0  0  0  0  0  0  0  0  0  0  0
   56.5780   29.6130   44.5240 C   0  0  0  0  0  0  0  0  0  0  0  0
   57.0490   30.7820   45.2810 N   0  0  0  0  0  0  0  0  0  0  0  0
   57.3240   31.9170   44.3910 C   0  0  0  0  0  0  0  0  0  0  0  0
   57.9610   33.0450   45.1590 C   0  0  0  0  0  0  0  0  0  0  0  0
   58.7140   34.0250   44.4990 C   0  0  0  0  0  0  0  0  0  0  0  0
   59.2760   35.0710   45.2340 C   0  0  0  0  0  0  0  0  0  0  0  0
   59.0900   35.1400   46.5800 N   0  0  0  0  0  0  0  0  0  0  0  0
   58.3590   34.2040   47.2430 C   0  0  0  0  0  0  0  0  0  0  0  0
   57.7800   33.1410   46.5460 C   0  0  0  0  0  0  0  0  0  0  0  0
   59.4970   27.9870   48.2130 C   0  0  0  0  0  0  0  0  0  0  0  0
   60.3710   28.3490   49.2640 C   0  0  0  0  0  0  0  0  0  0  0  0
   61.0130   29.5560   49.2520 N   0  0  0  0  0  0  0  0  0  0  0  0
   60.7860   30.4040   48.2180 C   0  0  0  0  0  0  0  0  0  0  0  0
   58.5576   30.8858   52.5177 H   0  0  0  0  0  0  0  0  0  0  0  0
   59.2210   29.6579   51.3868 H   0  0  0  0  0  0  0  0  0  0  0  0
   59.8811   31.3285   51.3868 H   0  0  0  0  0  0  0  0  0  0  0  0
   59.0523   31.7634   48.8899 H   0  0  0  0  0  0  0  0  0  0  0  0
   57.7071   32.8143   49.4435 H   0  0  0  0  0  0  0  0  0  0  0  0
   58.9576   33.7343   51.1861 H   0  0  0  0  0  0  0  0  0  0  0  0
   60.0315   32.2864   51.3063 H   0  0  0  0  0  0  0  0  0  0  0  0
   62.4831   34.7269   51.2672 H   0  0  0  0  0  0  0  0  0  0  0  0
   64.9024   34.1631   51.0666 H   0  0  0  0  0  0  0  0  0  0  0  0
   65.6566   32.4369   49.4340 H   0  0  0  0  0  0  0  0  0  0  0  0
   63.9903   31.2483   48.0138 H   0  0  0  0  0  0  0  0  0  0  0  0
   59.7364   29.1921   44.5385 H   0  0  0  0  0  0  0  0  0  0  0  0
   59.1380   27.4933   44.4386 H   0  0  0  0  0  0  0  0  0  0  0  0
   58.1326   29.7181   43.0343 H   0  0  0  0  0  0  0  0  0  0  0  0
   57.3523   28.0923   43.2229 H   0  0  0  0  0  0  0  0  0  0  0  0
   55.7969   29.9294   43.8170 H   0  0  0  0  0  0  0  0  0  0  0  0
   56.1720   28.8714   45.2277 H   0  0  0  0  0  0  0  0  0  0  0  0
   57.9490   30.5180   45.7460 H   0  0  0  0  0  0  0  0  0  0  0  0
   58.0058   31.5931   43.5908 H   0  0  0  0  0  0  0  0  0  0  0  0
   56.3755   32.2701   43.9601 H   0  0  0  0  0  0  0  0  0  0  0  0
   58.8614   33.9709   43.4103 H   0  0  0  0  0  0  0  0  0  0  0  0
   59.8712   35.8420   44.7228 H   0  0  0  0  0  0  0  0  0  0  0  0
   59.5170   35.9300   47.1160 H   0  0  0  0  0  0  0  0  0  0  0  0
   58.2234   34.2844   48.3316 H   0  0  0  0  0  0  0  0  0  0  0  0
   57.1866   32.3850   47.0812 H   0  0  0  0  0  0  0  0  0  0  0  0
   58.9827   27.0149   48.2343 H   0  0  0  0  0  0  0  0  0  0  0  0
   60.5360   27.6527   50.0994 H   0  0  0  0  0  0  0  0  0  0  0  0
  1  2  1  0
  2  3  1  0
  3  4  1  0
  4  5  1  0
  5  6  1  0
  6  7  2  0
  7  8  1  0
  8  9  2  0
  9 10  1  0
 10 11  2  0
 11 12  1  0
 12 13  1  0
 13 14  2  0
 13 15  1  0
 15 16  1  0
 16 17  2  0
 17 18  1  0
 18 19  1  0
 19 20  1  0
 20 21  1  0
 21 22  1  0
 22 23  1  0
 23 24  1  0
 24 25  2  0
 25 26  1  0
 26 27  2  0
 27 28  1  0
 28 29  2  0
 17 30  1  0
 30 31  2  0
 31 32  1  0
 32 33  2  0
 11  6  1  0
 33 12  1  0
 33 16  1  0
 29 24  1  0
  1 34  1  0
  1 35  1  0
  1 36  1  0
  3 37  1  0
  3 38  1  0
  4 39  1  0
  4 40  1  0
  7 41  1  0
  8 42  1  0
  9 43  1  0
 10 44  1  0
 19 45  1  0
 19 46  1  0
 20 47  1  0
 20 48  1  0
 21 49  1  0
 21 50  1  0
 22 51  1  0
 23 52  1  0
 23 53  1  0
 25 54  1  0
 26 55  1  0
 27 56  1  0
 28 57  1  0
 29 58  1  0
 30 59  1  0
 31 60  1  0
M  CHG  2  15  -1  27   1
M  END
>  <UniqueID>  (33) 
30

>  <SMILES>  (33) 
COCCOc1ccccc1-n1c(=O)[n-]c2c(OCCCNCc3cc[nH+]cc3)ccnc21

>  <Energy>  (33) 
104.14139783603346

>  <Genealogy>  (33) 
COCCOc1ccccc1-n1c(=O)[n-]c2c(OCCCNCc3cc[nH+]cc3)ccnc21 (protonated)
COCCOc1ccccc1-n1c(=O)[n-]c2c(OCCCNCc3cc[nH+]cc3)ccnc21 (3D coordinates assigned)
COCCOc1ccccc1-n1c(=O)[n-]c2c(OCCCNCc3cc[nH+]cc3)ccnc21 (optimized conformer: 104.14139783603346 kcal/mol)

>  <smiles>  (33) 
COCCOc1ccccc1-n1c(=O)[nH]c2c(OCCCNCc3ccncc3)ccnc21

>  <score_type>  (33) 
oracle

>  <origin>  (33) 
adg

>  <m_score__min__energy>  (33) 
-7.8399999999999999

>  <m_primary>  (33) 
energy

$$$$
33:0
     RDKit          3D

 72 76  0  0  0  0  0  0  0  0999 V2000
   57.4830   32.5760   43.7190 O   0  0  0  0  0  0  0  0  0  0  0  0
   57.7980   31.8220   44.6810 C   0  0  0  0  0  0  0  0  0  0  0  0
   58.7970   32.2490   45.6200 N   0  0  0  0  0  0  0  0  0  0  0  0
   59.4200   33.5690   45.5520 C   0  0  0  0  0  0  0  0  0  0  0  0
   60.2900   33.8010   46.7600 C   0  0  0  0  0  0  0  0  0  0  0  0
   59.7230   34.2660   47.9620 C   0  0  0  0  0  0  0  0  0  0  0  0
   60.5350   34.5170   49.0720 C   0  0  0  0  0  0  0  0  0  0  0  0
   61.9160   34.3050   48.9930 C   0  0  0  0  0  0  0  0  0  0  0  0
   62.4860   33.8440   47.8030 C   0  0  0  0  0  0  0  0  0  0  0  0
   61.6780   33.5920   46.6910 C   0  0  0  0  0  0  0  0  0  0  0  0
   57.1150   30.5210   44.8570 C   0  0  0  0  0  0  0  0  0  0  0  0
   55.8590   30.4710   44.7490 O   0  0  0  0  0  0  0  0  0  0  0  0
   57.8670   29.2710   45.1370 C   0  0  0  0  0  0  0  0  0  0  0  0
   57.9550   28.2620   44.1560 C   0  0  0  0  0  0  0  0  0  0  0  0
   58.6460   27.0770   44.4100 C   0  0  0  0  0  0  0  0  0  0  0  0
   59.2880   26.8900   45.6360 C   0  0  0  0  0  0  0  0  0  0  0  0
   59.2280   27.8850   46.6130 C   0  0  0  0  0  0  0  0  0  0  0  0
   58.5130   29.0730   46.3810 C   0  0  0  0  0  0  0  0  0  0  0  0
   58.4850   30.0980   47.3820 N   0  0  0  0  0  0  0  0  0  0  0  0
   59.5530   30.3490   48.3000 C   0  0  0  0  0  0  0  0  0  0  0  0
   60.5100   31.0850   47.9410 O   0  0  0  0  0  0  0  0  0  0  0  0
   59.4380   29.9030   49.7400 C   0  0  2  0  0  0  0  0  0  0  0  0
   58.1450   30.4550   50.3770 C   0  0  0  0  0  0  0  0  0  0  0  0
   58.6180   31.7430   51.0300 C   0  0  1  0  0  0  0  0  0  0  0  0
   57.7930   32.3440   52.1750 C   0  0  0  0  0  0  0  0  0  0  0  0
   58.6530   33.3350   53.0140 C   0  0  0  0  0  0  0  0  0  0  0  0
   59.9180   33.8490   52.2690 C   0  0  0  0  0  0  0  0  0  0  0  0
   60.8120   32.7060   51.7010 C   0  0  0  0  0  0  0  0  0  0  0  0
   60.0120   31.4020   51.5290 C   0  0  2  0  0  0  0  0  0  0  0  0
   60.5320   30.4670   50.5410 N   0  0  0  0  0  0  0  0  0  0  0  0
   61.8080   29.8240   50.6800 C   0  0  0  0  0  0  0  0  0  0  0  0
   61.8820   28.5660   50.6710 O   0  0  0  0  0  0  0  0  0  0  0  0
   62.9630   30.5970   50.8430 O   0  0  0  0  0  0  0  0  0  0  0  0
   63.4640   31.4770   49.8400 C   0  0  0  0  0  0  0  0  0  0  0  0
   64.5040   32.3920   50.4240 C   0  0  0  0  0  0  0  0  0  0  0  0
   65.8600   32.1980   50.1130 C   0  0  0  0  0  0  0  0  0  0  0  0
   66.8320   33.0570   50.6330 C   0  0  0  0  0  0  0  0  0  0  0  0
   66.4560   34.1190   51.4620 C   0  0  0  0  0  0  0  0  0  0  0  0
   65.1080   34.3230   51.7700 C   0  0  0  0  0  0  0  0  0  0  0  0
   64.1330   33.4660   51.2510 C   0  0  0  0  0  0  0  0  0  0  0  0
   59.0870   31.6110   46.3960 H   0  0  0  0  0  0  0  0  0  0  0  0
   60.0367   33.6325   44.6434 H   0  0  0  0  0  0  0  0  0  0  0  0
   58.6313   34.3354   45.5273 H   0  0  0  0  0  0  0  0  0  0  0  0
   58.6376   34.4323   48.0279 H   0  0  0  0  0  0  0  0  0  0  0  0
   60.0879   34.8816   50.0086 H   0  0  0  0  0  0  0  0  0  0  0  0
   62.5532   34.5013   49.8679 H   0  0  0  0  0  0  0  0  0  0  0  0
   63.5719   33.6794   47.7417 H   0  0  0  0  0  0  0  0  0  0  0  0
   62.1308   33.2282   45.7569 H   0  0  0  0  0  0  0  0  0  0  0  0
   57.4730   28.4110   43.1785 H   0  0  0  0  0  0  0  0  0  0  0  0
   58.6852   26.2889   43.6436 H   0  0  0  0  0  0  0  0  0  0  0  0
   59.8406   25.9592   45.8316 H   0  0  0  0  0  0  0  0  0  0  0  0
   59.7447   27.7383   47.5729 H   0  0  0  0  0  0  0  0  0  0  0  0
   59.4557   28.8032   49.7340 H   0  0  0  0  0  0  0  0  0  0  0  0
   57.3803   30.6556   49.6121 H   0  0  0  0  0  0  0  0  0  0  0  0
   57.6729   29.7556   51.0826 H   0  0  0  0  0  0  0  0  0  0  0  0
   58.5380   32.5390   50.2750 H   0  0  0  0  0  0  0  0  0  0  0  0
   56.9303   32.8816   51.7546 H   0  0  0  0  0  0  0  0  0  0  0  0
   57.4531   31.5289   52.8308 H   0  0  0  0  0  0  0  0  0  0  0  0
   58.0281   34.2015   53.2761 H   0  0  0  0  0  0  0  0  0  0  0  0
   59.0025   32.7865   53.9011 H   0  0  0  0  0  0  0  0  0  0  0  0
   59.5947   34.4864   51.4328 H   0  0  0  0  0  0  0  0  0  0  0  0
   60.5245   34.3998   53.0031 H   0  0  0  0  0  0  0  0  0  0  0  0
   61.2089   33.0144   50.7226 H   0  0  0  0  0  0  0  0  0  0  0  0
   61.6302   32.5197   52.4122 H   0  0  0  0  0  0  0  0  0  0  0  0
   60.0571   30.9266   52.5199 H   0  0  0  0  0  0  0  0  0  0  0  0
   63.9146   30.8852   49.0296 H   0  0  0  0  0  0  0  0  0  0  0  0
   62.6340   32.0822   49.4465 H   0  0  0  0  0  0  0  0  0  0  0  0
   66.1581   31.3665   49.4574 H   0  0  0  0  0  0  0  0  0  0  0  0
   67.8930   32.8979   50.3903 H   0  0  0  0  0  0  0  0  0  0  0  0
   67.2217   34.7941   51.8718 H   0  0  0  0  0  0  0  0  0  0  0  0
   64.8139   35.1590   52.4216 H   0  0  0  0  0  0  0  0  0  0  0  0
   63.0725   33.6328   51.4906 H   0  0  0  0  0  0  0  0  0  0  0  0
  1  2  2  0
  2  3  1  0
  3  4  1  0
  4  5  1  0
  5  6  2  0
  6  7  1  0
  7  8  2  0
  8  9  1  0
  9 10  2  0
  2 11  1  0
 11 12  2  0
 11 13  1  0
 13 14  2  0
 14 15  1  0
 15 16  2  0
 16 17  1  0
 17 18  2  0
 18 19  1  0
 19 20  1  0
 20 21  2  0
 20 22  1  0
 22 23  1  0
 23 24  1  0
 24 25  1  0
 25 26  1  0
 26 27  1  0
 27 28  1  0
 28 29  1  0
 29 30  1  0
 30 31  1  0
 31 32  2  0
 31 33  1  0
 33 34  1  0
 34 35  1  0
 35 36  2  0
 36 37  1  0
 37 38  2  0
 38 39  1  0
 39 40  2  0
 10  5  1  0
 18 13  1  0
 30 22  1  0
 40 35  1  0
 29 24  1  0
  3 41  1  0
  4 42  1  0
  4 43  1  0
  6 44  1  0
  7 45  1  0
  8 46  1  0
  9 47  1  0
 10 48  1  0
 14 49  1  0
 15 50  1  0
 16 51  1  0
 17 52  1  0
 22 53  1  6
 23 54  1  0
 23 55  1  0
 24 56  1  6
 25 57  1  0
 25 58  1  0
 26 59  1  0
 26 60  1  0
 27 61  1  0
 27 62  1  0
 28 63  1  0
 28 64  1  0
 29 65  1  1
 34 66  1  0
 34 67  1  0
 36 68  1  0
 37 69  1  0
 38 70  1  0
 39 71  1  0
 40 72  1  0
M  CHG  1  19  -1
M  END
>  <UniqueID>  (34) 
31

>  <SMILES>  (34) 
O=C(NCc1ccccc1)C(=O)c1ccccc1[N-]C(=O)[C@@H]1C[C@H]2CCCCC2N1C(=O)OCc1ccccc1

>  <Energy>  (34) 
96.73226004347015

>  <Genealogy>  (34) 
O=C(NCc1ccccc1)C(=O)c1ccccc1[N-]C(=O)C1CC2CCCCC2N1C(=O)OCc1ccccc1 (protonated)
O=C(NCc1ccccc1)C(=O)c1ccccc1[N-]C(=O)[C@@H]1C[C@H]2CCCCC2N1C(=O)OCc1ccccc1 (chirality)
O=C(NCc1ccccc1)C(=O)c1ccccc1[N-]C(=O)[C@@H]1C[C@H]2CCCCC2N1C(=O)OCc1ccccc1 (3D coordinates assigned)
O=C(NCc1ccccc1)C(=O)c1ccccc1[N-]C(=O)[C@@H]1C[C@H]2CCCCC2N1C(=O)OCc1ccccc1 (nonaromatic ring conformer: 96.73226004347015 kcal/mol)

>  <smiles>  (34) 
O=C(NCc1ccccc1)C(=O)c1ccccc1NC(=O)C1CC2CCCCC2N1C(=O)OCc1ccccc1

>  <score_type>  (34) 
oracle

>  <origin>  (34) 
adg

>  <m_score__min__energy>  (34) 
-11.4

>  <m_primary>  (34) 
energy

$$$$
34:0
     RDKit          3D

 43 45  0  0  0  0  0  0  0  0999 V2000
   57.1360   31.1790   42.7190 C   0  0  0  0  0  0  0  0  0  0  0  0
   57.7920   31.8920   43.8700 C   0  0  0  0  0  0  0  0  0  0  0  0
   58.3720   33.1520   43.6500 C   0  0  0  0  0  0  0  0  0  0  0  0
   59.0150   33.8280   44.6880 C   0  0  0  0  0  0  0  0  0  0  0  0
   59.0850   33.2610   45.9660 C   0  0  0  0  0  0  0  0  0  0  0  0
   59.8810   34.1270   47.2830 S   0  0  0  0  0  0  0  0  0  0  0  0
   59.7110   35.6060   47.0760 O   0  0  0  0  0  0  0  0  0  0  0  0
   59.2250   33.7600   48.5850 O   0  0  0  0  0  0  0  0  0  0  0  0
   61.5870   33.7480   47.3640 N   0  0  0  0  0  0  0  0  0  0  0  0
   62.1470   34.1680   48.6630 C   0  0  0  0  0  0  0  0  0  0  0  0
   63.4500   33.4100   48.9620 C   0  0  0  0  0  0  0  0  0  0  0  0
   63.2970   31.9970   49.0310 O   0  0  0  0  0  0  0  0  0  0  0  0
   62.1700   31.5070   48.3150 C   0  0  0  0  0  0  0  0  0  0  0  0
   61.8490   32.3260   47.0520 C   0  0  0  0  0  0  0  0  0  0  0  0
   58.5050   32.0060   46.1950 C   0  0  0  0  0  0  0  0  0  0  0  0
   57.8310   31.3320   45.1690 C   0  0  0  0  0  0  0  0  0  0  0  0
   57.2180   30.0670   45.4610 N   0  0  0  0  0  0  0  0  0  0  0  0
   57.8590   28.8180   45.1570 C   0  0  0  0  0  0  0  0  0  0  0  0
   58.9410   28.8100   44.5090 O   0  0  0  0  0  0  0  0  0  0  0  0
   57.2480   27.5410   45.5830 C   0  0  0  0  0  0  0  0  0  0  0  0
   58.0380   26.4460   45.9600 C   0  0  0  0  0  0  0  0  0  0  0  0
   57.4190   25.2630   46.3590 C   0  0  0  0  0  0  0  0  0  0  0  0
   56.0260   25.1980   46.3770 C   0  0  0  0  0  0  0  0  0  0  0  0
   55.4410   24.1410   46.7320 O   0  0  0  0  0  0  0  0  0  0  0  0
   55.3010   26.2840   46.0050 N   0  0  0  0  0  0  0  0  0  0  0  0
   55.8930   27.4180   45.6230 N   0  0  0  0  0  0  0  0  0  0  0  0
   56.4389   30.4214   43.1064 H   0  0  0  0  0  0  0  0  0  0  0  0
   56.5838   31.9053   42.1046 H   0  0  0  0  0  0  0  0  0  0  0  0
   57.9057   30.6891   42.1046 H   0  0  0  0  0  0  0  0  0  0  0  0
   58.3191   33.6099   42.6512 H   0  0  0  0  0  0  0  0  0  0  0  0
   59.4694   34.8121   44.5008 H   0  0  0  0  0  0  0  0  0  0  0  0
   62.3555   35.2477   48.6345 H   0  0  0  0  0  0  0  0  0  0  0  0
   61.4163   33.9418   49.4535 H   0  0  0  0  0  0  0  0  0  0  0  0
   64.1742   33.6407   48.1668 H   0  0  0  0  0  0  0  0  0  0  0  0
   63.7893   33.7413   49.9545 H   0  0  0  0  0  0  0  0  0  0  0  0
   62.3712   30.4678   48.0157 H   0  0  0  0  0  0  0  0  0  0  0  0
   61.3000   31.5843   48.9837 H   0  0  0  0  0  0  0  0  0  0  0  0
   62.7043   32.2656   46.3629 H   0  0  0  0  0  0  0  0  0  0  0  0
   60.9401   31.9055   46.5969 H   0  0  0  0  0  0  0  0  0  0  0  0
   58.5799   31.5455   47.1911 H   0  0  0  0  0  0  0  0  0  0  0  0
   56.2070   30.0670   45.7190 H   0  0  0  0  0  0  0  0  0  0  0  0
   59.1354   26.5199   45.9410 H   0  0  0  0  0  0  0  0  0  0  0  0
   58.0213   24.3917   46.6559 H   0  0  0  0  0  0  0  0  0  0  0  0
  1  2  1  0
  2  3  2  0
  3  4  1  0
  4  5  2  0
  5  6  1  0
  6  7  2  0
  6  8  2  0
  6  9  1  0
  9 10  1  0
 10 11  1  0
 11 12  1  0
 12 13  1  0
 13 14  1  0
  5 15  1  0
 15 16  2  0
 16 17  1  0
 17 18  1  0
 18 19  2  0
 18 20  1  0
 20 21  1  0
 21 22  2  0
 22 23  1  0
 23 24  2  0
 23 25  1  0
 25 26  1  0
 16  2  1  0
 26 20  2  0
 14  9  1  0
  1 27  1  0
  1 28  1  0
  1 29  1  0
  3 30  1  0
  4 31  1  0
 10 32  1  0
 10 33  1  0
 11 34  1  0
 11 35  1  0
 13 36  1  0
 13 37  1  0
 14 38  1  0
 14 39  1  0
 15 40  1  0
 17 41  1  0
 21 42  1  0
 22 43  1  0
M  CHG  1  25  -1
M  END
>  <UniqueID>  (35) 
32

>  <SMILES>  (35) 
Cc1ccc(S(=O)(=O)N2CCOCC2)cc1NC(=O)c1ccc(=O)[n-]n1

>  <Energy>  (35) 
63.26292505354536

>  <Genealogy>  (35) 
Cc1ccc(S(=O)(=O)N2CCOCC2)cc1NC(=O)c1ccc(=O)[n-]n1 (protonated)
Cc1ccc(S(=O)(=O)N2CCOCC2)cc1NC(=O)c1ccc(=O)[n-]n1 (3D coordinates assigned)
Cc1ccc(S(=O)(=O)N2CCOCC2)cc1NC(=O)c1ccc(=O)[n-]n1 (nonaromatic ring conformer: 63.26292505354536 kcal/mol)

>  <smiles>  (35) 
Cc1ccc(S(=O)(=O)N2CCOCC2)cc1NC(=O)c1ccc(=O)[nH]n1

>  <score_type>  (35) 
oracle

>  <origin>  (35) 
adg

>  <m_score__min__energy>  (35) 
-11.619999999999999

>  <m_primary>  (35) 
energy

$$$$
35:0
     RDKit          3D

 47 49  0  0  1  0  0  0  0  0999 V2000
   57.4820   28.3950   43.6080 N   0  0  0  0  0  0  0  0  0  0  0  0
   56.3820   29.7280   43.6870 S   0  0  0  0  0  0  0  0  0  0  0  0
   55.2080   29.3390   44.5080 O   0  0  0  0  0  0  0  0  0  0  0  0
   55.9750   30.0580   42.2620 O   0  0  0  0  0  0  0  0  0  0  0  0
   57.2420   31.0960   44.3370 C   0  0  0  0  0  0  0  0  0  0  0  0
   57.7710   31.0070   45.6180 C   0  0  0  0  0  0  0  0  0  0  0  0
   58.4620   32.0600   46.1840 C   0  0  0  0  0  0  0  0  0  0  0  0
   58.6270   33.2270   45.4500 C   0  0  0  0  0  0  0  0  0  0  0  0
   60.2740   34.2110   50.5430 N   0  0  0  0  0  0  0  0  0  0  0  0
   60.6430   34.1030   49.3130 C   0  0  0  0  0  0  0  0  0  0  0  0
   61.5200   33.8590   46.7220 C   0  0  0  0  0  0  0  0  0  0  0  0
   62.3850   33.7150   47.7990 C   0  0  0  0  0  0  0  0  0  0  0  0
   63.8260   33.4220   47.5610 C   0  0  0  0  0  0  0  0  0  0  0  0
   63.9940   32.2760   46.7860 O   0  0  0  0  0  0  0  0  0  0  0  0
   64.4700   33.2390   48.7840 O   0  0  0  0  0  0  0  0  0  0  0  0
   61.9400   33.8390   49.0800 N   0  0  0  0  0  0  0  0  0  0  0  0
   60.1970   34.1300   47.0260 C   0  0  0  0  0  0  0  0  0  0  0  0
   59.3470   34.2740   46.0890 N   0  0  0  0  0  0  0  0  0  0  0  0
   59.4950   33.1690   51.1700 C   0  0  0  0  0  0  0  0  0  0  0  0
   59.8200   31.9130   50.4070 C   0  0  0  0  0  0  0  0  0  0  0  0
   58.8980   31.3810   49.5090 C   0  0  0  0  0  0  0  0  0  0  0  0
   59.1990   30.2170   48.8020 C   0  0  0  0  0  0  0  0  0  0  0  0
   60.4070   29.5810   48.9810 C   0  0  0  0  0  0  0  0  0  0  0  0
   61.3250   30.1160   49.8790 C   0  0  0  0  0  0  0  0  0  0  0  0
   61.0230   31.2700   50.5790 C   0  0  0  0  0  0  0  0  0  0  0  0
   59.7570   34.2530   48.2940 N   0  0  0  0  0  0  0  0  0  0  0  0
   58.1090   33.3330   44.1760 C   0  0  0  0  0  0  0  0  0  0  0  0
   57.4280   32.2720   43.6410 C   0  0  0  0  0  0  0  0  0  0  0  0
   57.0040   27.5000   43.3290 H   0  0  0  0  0  0  0  0  0  0  0  0
   58.2480   28.6690   42.9530 H   0  0  0  0  0  0  0  0  0  0  0  0
   57.6368   30.0791   46.1933 H   0  0  0  0  0  0  0  0  0  0  0  0
   58.8751   31.9757   47.2000 H   0  0  0  0  0  0  0  0  0  0  0  0
   61.8677   33.7628   45.6828 H   0  0  0  0  0  0  0  0  0  0  0  0
   64.2599   34.2752   47.0190 H   0  0  0  0  0  0  0  0  0  0  0  0
   64.8980   32.3590   46.3580 H   0  0  0  0  0  0  0  0  0  0  0  0
   65.2960   32.7270   48.5940 H   0  0  0  0  0  0  0  0  0  0  0  0
   62.6040   33.7280   49.8870 H   0  0  0  0  0  0  0  0  0  0  0  0
   59.7775   33.0608   52.2276 H   0  0  0  0  0  0  0  0  0  0  0  0
   58.4184   33.3938   51.1483 H   0  0  0  0  0  0  0  0  0  0  0  0
   57.9297   31.8802   49.3569 H   0  0  0  0  0  0  0  0  0  0  0  0
   58.4647   29.8034   48.0951 H   0  0  0  0  0  0  0  0  0  0  0  0
   60.6428   28.6633   48.4222 H   0  0  0  0  0  0  0  0  0  0  0  0
   62.2944   29.6195   50.0329 H   0  0  0  0  0  0  0  0  0  0  0  0
   61.7586   31.6808   51.2862 H   0  0  0  0  0  0  0  0  0  0  0  0
   58.7560   34.4580   48.5040 H   0  0  0  0  0  0  0  0  0  0  0  0
   58.2413   34.2587   43.5966 H   0  0  0  0  0  0  0  0  0  0  0  0
   57.0166   32.3606   42.6247 H   0  0  0  0  0  0  0  0  0  0  0  0
  1  2  1  0
  2  3  2  0
  2  4  2  0
  2  5  1  0
  5  6  2  0
  6  7  1  0
  7  8  2  0
  8  9  1  0
  9 10  2  0
 10 11  1  0
 11 12  2  0
 12 13  1  0
 13 14  1  0
 13 15  1  0
 12 16  1  0
 16 17  1  0
 17 18  2  0
 18 19  1  0
 19 20  1  0
 20 21  2  0
 21 22  1  0
 22 23  2  0
 23 24  1  0
 24 25  2  0
 17 26  1  0
  8 27  1  0
 27 28  2  0
 28  5  1  0
 26 10  1  0
 25 20  1  0
  1 29  1  0
  1 30  1  0
  6 31  1  0
  7 32  1  0
 11 33  1  0
 13 34  1  0
 14 35  1  0
 15 36  1  0
 16 37  1  0
 19 38  1  0
 19 39  1  0
 21 40  1  0
 22 41  1  0
 23 42  1  0
 24 43  1  0
 25 44  1  0
 26 45  1  0
 27 46  1  0
 28 47  1  0
M  END
>  <smiles>  (36) 
NS(=O)(=O)c1ccc(N=c2cc(C(O)O)[nH]c(=NCc3ccccc3)[nH]2)cc1

>  <score_type>  (36) 
oracle

>  <origin>  (36) 
adg

>  <m_score__min__energy>  (36) 
-10.18

>  <m_primary>  (36) 
energy

$$$$
36:0
     RDKit          3D

 50 53  0  0  0  0  0  0  0  0999 V2000
   58.2820   34.2220   45.8600 C   0  0  0  0  0  0  0  0  0  0  0  0
   58.3490   32.7230   45.9080 C   0  0  0  0  0  0  0  0  0  0  0  0
   57.3820   32.0070   45.2750 N   0  0  0  0  0  0  0  0  0  0  0  0
   57.3710   30.6490   45.2490 C   0  0  0  0  0  0  0  0  0  0  0  0
   56.4400   30.0640   44.6350 O   0  0  0  0  0  0  0  0  0  0  0  0
   58.3930   29.9190   45.8950 C   0  0  0  0  0  0  0  0  0  0  0  0
   58.4390   28.4300   45.8910 C   0  0  0  0  0  0  0  0  0  0  0  0
   59.5450   27.8410   46.0380 O   0  0  0  0  0  0  0  0  0  0  0  0
   57.2360   27.6640   45.7500 N   0  0  0  0  0  0  0  0  0  0  0  0
   57.0020   26.3430   46.2540 C   0  0  0  0  0  0  0  0  0  0  0  0
   57.9370   25.4160   46.6910 C   0  0  0  0  0  0  0  0  0  0  0  0
   57.2020   24.2930   47.0280 C   0  0  0  0  0  0  0  0  0  0  0  0
   57.7430   23.1120   47.5260 O   0  0  0  0  0  0  0  0  0  0  0  0
   55.8850   24.4840   46.8040 N   0  0  0  0  0  0  0  0  0  0  0  0
   54.8000   23.5480   47.0930 C   0  0  0  0  0  0  0  0  0  0  0  0
   55.1780   22.1410   46.6250 C   0  0  0  0  0  0  0  0  0  0  0  0
   55.5490   22.1490   45.1670 C   0  0  0  0  0  0  0  0  0  0  0  0
   55.2490   23.2560   44.3600 C   0  0  0  0  0  0  0  0  0  0  0  0
   55.6300   23.2640   43.0160 C   0  0  0  0  0  0  0  0  0  0  0  0
   56.3180   22.1670   42.4950 C   0  0  0  0  0  0  0  0  0  0  0  0
   56.6160   21.1060   43.2930 N   0  0  0  0  0  0  0  0  0  0  0  0
   56.2540   21.0740   44.6040 C   0  0  0  0  0  0  0  0  0  0  0  0
   55.7650   25.7410   46.3350 C   0  0  0  0  0  0  0  0  0  0  0  0
   54.5570   26.3360   45.9920 O   0  0  0  0  0  0  0  0  0  0  0  0
   59.3990   30.6430   46.5600 C   0  0  0  0  0  0  0  0  0  0  0  0
   59.3800   32.0430   46.5880 C   0  0  0  0  0  0  0  0  0  0  0  0
   60.4480   32.7640   47.3120 C   0  0  0  0  0  0  0  0  0  0  0  0
   61.7370   32.8330   46.7640 C   0  0  0  0  0  0  0  0  0  0  0  0
   62.7550   33.5130   47.4410 C   0  0  0  0  0  0  0  0  0  0  0  0
   62.4930   34.1200   48.6720 C   0  0  0  0  0  0  0  0  0  0  0  0
   61.2130   34.0440   49.2310 C   0  0  0  0  0  0  0  0  0  0  0  0
   60.1920   33.3660   48.5580 C   0  0  0  0  0  0  0  0  0  0  0  0
   58.9630   33.2780   49.1280 F   0  0  0  0  0  0  0  0  0  0  0  0
   58.2642   34.6212   46.8848 H   0  0  0  0  0  0  0  0  0  0  0  0
   59.1636   34.6117   45.3300 H   0  0  0  0  0  0  0  0  0  0  0  0
   57.3691   34.5315   45.3300 H   0  0  0  0  0  0  0  0  0  0  0  0
   59.0274   25.5457   46.7557 H   0  0  0  0  0  0  0  0  0  0  0  0
   54.6124   23.5324   48.1768 H   0  0  0  0  0  0  0  0  0  0  0  0
   53.8941   23.8726   46.5600 H   0  0  0  0  0  0  0  0  0  0  0  0
   56.0350   21.7823   47.2140 H   0  0  0  0  0  0  0  0  0  0  0  0
   54.3133   21.4761   46.7669 H   0  0  0  0  0  0  0  0  0  0  0  0
   54.7138   24.1178   44.7852 H   0  0  0  0  0  0  0  0  0  0  0  0
   55.3904   24.1254   42.3753 H   0  0  0  0  0  0  0  0  0  0  0  0
   56.6199   22.1602   41.4373 H   0  0  0  0  0  0  0  0  0  0  0  0
   56.5145   20.2036   45.2241 H   0  0  0  0  0  0  0  0  0  0  0  0
   60.2124   30.1017   47.0654 H   0  0  0  0  0  0  0  0  0  0  0  0
   61.9484   32.3507   45.7983 H   0  0  0  0  0  0  0  0  0  0  0  0
   63.7628   33.5699   47.0038 H   0  0  0  0  0  0  0  0  0  0  0  0
   63.2934   34.6576   49.2015 H   0  0  0  0  0  0  0  0  0  0  0  0
   61.0092   34.5187   50.2022 H   0  0  0  0  0  0  0  0  0  0  0  0
  1  2  1  0
  2  3  1  0
  3  4  1  0
  4  5  2  0
  4  6  1  0
  6  7  1  0
  7  8  2  0
  7  9  1  0
  9 10  1  0
 10 11  1  0
 11 12  2  0
 12 13  1  0
 12 14  1  0
 14 15  1  0
 15 16  1  0
 16 17  1  0
 17 18  2  0
 18 19  1  0
 19 20  2  0
 20 21  1  0
 21 22  2  0
 14 23  1  0
 23 24  1  0
  6 25  2  0
 25 26  1  0
 26 27  1  0
 27 28  2  0
 28 29  1  0
 29 30  2  0
 30 31  1  0
 31 32  2  0
 32 33  1  0
 26  2  2  0
 32 27  1  0
 23 10  2  0
 22 17  1  0
  1 34  1  0
  1 35  1  0
  1 36  1  0
 11 37  1  0
 15 38  1  0
 15 39  1  0
 16 40  1  0
 16 41  1  0
 18 42  1  0
 19 43  1  0
 20 44  1  0
 22 45  1  0
 25 46  1  0
 28 47  1  0
 29 48  1  0
 30 49  1  0
 31 50  1  0
M  CHG  4   3  -1   9  -1  13  -1  24  -1
M  END
>  <UniqueID>  (37) 
33

>  <SMILES>  (37) 
Cc1[n-]c(=O)c(C(=O)[N-]c2cc([O-])n(CCc3cccnc3)c2[O-])cc1-c1ccccc1F

>  <Energy>  (37) 
94.28135669018724

>  <Genealogy>  (37) 
Cc1[n-]c(=O)c(C(=O)[N-]c2cc([O-])n(CCc3cccnc3)c2[O-])cc1-c1ccccc1F (protonated)
Cc1[n-]c(=O)c(C(=O)[N-]c2cc([O-])n(CCc3cccnc3)c2[O-])cc1-c1ccccc1F (3D coordinates assigned)
Cc1[n-]c(=O)c(C(=O)[N-]c2cc([O-])n(CCc3cccnc3)c2[O-])cc1-c1ccccc1F (optimized conformer: 94.28135669018724 kcal/mol)

>  <smiles>  (37) 
Cc1[nH]c(=O)c(C(=O)Nc2cc(O)n(CCc3cccnc3)c2O)cc1-c1ccccc1F

>  <score_type>  (37) 
oracle

>  <origin>  (37) 
adg

>  <m_score__min__energy>  (37) 
-17.48

>  <m_primary>  (37) 
energy

$$$$
37:0
     RDKit          3D

 44 46  0  0  0  0  0  0  0  0999 V2000
   60.9140   29.7540   46.3670 O   0  0  0  0  0  0  0  0  0  0  0  0
   59.6960   29.5300   46.1270 C   0  0  0  0  0  0  0  0  0  0  0  0
   59.3060   28.8670   44.8420 C   0  0  0  0  0  0  0  0  0  0  0  0
   57.8690   29.1860   44.5100 C   0  0  0  0  0  0  0  0  0  0  0  0
   57.5810   30.0910   43.4760 C   0  0  0  0  0  0  0  0  0  0  0  0
   56.2560   30.4180   43.1760 C   0  0  0  0  0  0  0  0  0  0  0  0
   55.2260   29.8470   43.9250 C   0  0  0  0  0  0  0  0  0  0  0  0
   55.5160   28.9820   44.9330 N   0  0  0  0  0  0  0  0  0  0  0  0
   56.7970   28.6400   45.2440 C   0  0  0  0  0  0  0  0  0  0  0  0
   57.0050   27.8310   46.1860 O   0  0  0  0  0  0  0  0  0  0  0  0
   58.6810   29.9710   47.0400 N   0  0  0  0  0  0  0  0  0  0  0  0
   58.9720   30.6810   48.2540 C   0  0  0  0  0  0  0  0  0  0  0  0
   59.5220   29.9930   49.3480 C   0  0  0  0  0  0  0  0  0  0  0  0
   59.7070   30.6410   50.5710 C   0  0  0  0  0  0  0  0  0  0  0  0
   59.3300   31.9760   50.7200 C   0  0  0  0  0  0  0  0  0  0  0  0
   58.7810   32.6730   49.6420 C   0  0  0  0  0  0  0  0  0  0  0  0
   58.6100   32.0430   48.3970 C   0  0  0  0  0  0  0  0  0  0  0  0
   58.0940   32.8310   47.2540 C   0  0  0  0  0  0  0  0  0  0  0  0
   57.4180   32.2670   46.3500 O   0  0  0  0  0  0  0  0  0  0  0  0
   58.3750   34.2330   47.1680 N   0  0  0  0  0  0  0  0  0  0  0  0
   59.6310   34.7720   46.6580 C   0  0  0  0  0  0  0  0  0  0  0  0
   60.8020   34.1550   47.3760 C   0  0  0  0  0  0  0  0  0  0  0  0
   61.1130   34.5540   48.6870 C   0  0  0  0  0  0  0  0  0  0  0  0
   62.2140   34.0000   49.3480 C   0  0  0  0  0  0  0  0  0  0  0  0
   63.0060   33.0420   48.7090 C   0  0  0  0  0  0  0  0  0  0  0  0
   62.6990   32.6360   47.4080 C   0  0  0  0  0  0  0  0  0  0  0  0
   61.6040   33.1920   46.7400 C   0  0  0  0  0  0  0  0  0  0  0  0
   59.9560   29.2311   44.0327 H   0  0  0  0  0  0  0  0  0  0  0  0
   59.4177   27.7780   44.9500 H   0  0  0  0  0  0  0  0  0  0  0  0
   58.4013   30.5442   42.9000 H   0  0  0  0  0  0  0  0  0  0  0  0
   56.0273   31.1177   42.3586 H   0  0  0  0  0  0  0  0  0  0  0  0
   54.1788   30.0970   43.6996 H   0  0  0  0  0  0  0  0  0  0  0  0
   57.6800   29.8590   46.7620 H   0  0  0  0  0  0  0  0  0  0  0  0
   59.8090   28.9365   49.2407 H   0  0  0  0  0  0  0  0  0  0  0  0
   60.1508   30.0980   51.4185 H   0  0  0  0  0  0  0  0  0  0  0  0
   59.4655   32.4801   51.6882 H   0  0  0  0  0  0  0  0  0  0  0  0
   58.4799   33.7235   49.7679 H   0  0  0  0  0  0  0  0  0  0  0  0
   59.7090   34.5519   45.5831 H   0  0  0  0  0  0  0  0  0  0  0  0
   59.6447   35.8591   46.8254 H   0  0  0  0  0  0  0  0  0  0  0  0
   60.4888   35.3041   49.1947 H   0  0  0  0  0  0  0  0  0  0  0  0
   62.4570   34.3188   50.3724 H   0  0  0  0  0  0  0  0  0  0  0  0
   63.8715   32.6075   49.2307 H   0  0  0  0  0  0  0  0  0  0  0  0
   63.3198   31.8777   46.9085 H   0  0  0  0  0  0  0  0  0  0  0  0
   61.3694   32.8747   45.7132 H   0  0  0  0  0  0  0  0  0  0  0  0
  1  2  2  0
  2  3  1  0
  3  4  1  0
  4  5  2  0
  5  6  1  0
  6  7  2  0
  7  8  1  0
  8  9  1  0
  9 10  2  0
  2 11  1  0
 11 12  1  0
 12 13  2  0
 13 14  1  0
 14 15  2  0
 15 16  1  0
 16 17  2  0
 17 18  1  0
 18 19  2  0
 18 20  1  0
 20 21  1  0
 21 22  1  0
 22 23  2  0
 23 24  1  0
 24 25  2  0
 25 26  1  0
 26 27  2  0
  9  4  1  0
 17 12  1  0
 27 22  1  0
  3 28  1  0
  3 29  1  0
  5 30  1  0
  6 31  1  0
  7 32  1  0
 11 33  1  0
 13 34  1  0
 14 35  1  0
 15 36  1  0
 16 37  1  0
 21 38  1  0
 21 39  1  0
 23 40  1  0
 24 41  1  0
 25 42  1  0
 26 43  1  0
 27 44  1  0
M  CHG  2   8  -1  20  -1
M  END
>  <UniqueID>  (38) 
34

>  <SMILES>  (38) 
O=C(Cc1ccc[n-]c1=O)Nc1ccccc1C(=O)[N-]Cc1ccccc1

>  <Energy>  (38) 
49.64304100294557

>  <Genealogy>  (38) 
O=C(Cc1ccc[n-]c1=O)Nc1ccccc1C(=O)[N-]Cc1ccccc1 (protonated)
O=C(Cc1ccc[n-]c1=O)Nc1ccccc1C(=O)[N-]Cc1ccccc1 (3D coordinates assigned)
O=C(Cc1ccc[n-]c1=O)Nc1ccccc1C(=O)[N-]Cc1ccccc1 (optimized conformer: 49.64304100294557 kcal/mol)

>  <smiles>  (38) 
O=C(Cc1ccc[nH]c1=O)Nc1ccccc1C(=O)NCc1ccccc1

>  <score_type>  (38) 
oracle

>  <origin>  (38) 
adg

>  <m_score__min__energy>  (38) 
-12.5

>  <m_primary>  (38) 
energy

$$$$
38:0
     RDKit          3D

 49 51  0  0  0  0  0  0  0  0999 V2000
   59.0760   34.9760   44.8500 C   0  0  0  0  0  0  0  0  0  0  0  0
   58.5650   33.5660   44.8120 C   0  0  0  0  0  0  0  0  0  0  0  0
   58.3110   32.8670   46.0010 C   0  0  0  0  0  0  0  0  0  0  0  0
   57.8200   31.5580   45.9580 C   0  0  0  0  0  0  0  0  0  0  0  0
   57.5720   30.9390   44.7270 C   0  0  0  0  0  0  0  0  0  0  0  0
   57.0170   29.2690   44.6910 S   0  0  0  0  0  0  0  0  0  0  0  0
   55.5750   29.2270   45.1200 O   0  0  0  0  0  0  0  0  0  0  0  0
   57.1190   28.7030   43.3010 O   0  0  0  0  0  0  0  0  0  0  0  0
   57.9920   28.3170   45.7720 N   0  0  0  0  0  0  0  0  0  0  0  0
   59.1000   28.9350   46.5050 C   0  0  0  0  0  0  0  0  0  0  0  0
   58.9880   28.6600   47.9710 C   0  0  0  0  0  0  0  0  0  0  0  0
   58.9170   27.4710   48.3830 O   0  0  0  0  0  0  0  0  0  0  0  0
   58.9780   29.7500   48.8970 N   0  0  0  0  0  0  0  0  0  0  0  0
   59.2690   29.6030   50.3180 C   0  0  0  0  0  0  0  0  0  0  0  0
   58.1820   30.2280   51.1400 C   0  0  0  0  0  0  0  0  0  0  0  0
   58.0460   31.6210   51.2020 C   0  0  0  0  0  0  0  0  0  0  0  0
   57.0130   32.1740   51.9620 C   0  0  0  0  0  0  0  0  0  0  0  0
   56.1280   31.3370   52.6450 C   0  0  0  0  0  0  0  0  0  0  0  0
   56.2890   29.9520   52.5550 C   0  0  0  0  0  0  0  0  0  0  0  0
   57.3010   29.4320   51.8120 N   0  0  0  0  0  0  0  0  0  0  0  0
   57.8830   26.8890   45.7320 C   0  0  0  0  0  0  0  0  0  0  0  0
   59.0380   26.1020   45.5920 C   0  0  0  0  0  0  0  0  0  0  0  0
   58.9390   24.7090   45.5590 C   0  0  0  0  0  0  0  0  0  0  0  0
   57.6890   24.0940   45.6670 C   0  0  0  0  0  0  0  0  0  0  0  0
   56.5330   24.8720   45.8080 C   0  0  0  0  0  0  0  0  0  0  0  0
   56.6250   26.2710   45.8430 C   0  0  0  0  0  0  0  0  0  0  0  0
   55.4760   27.0480   45.9810 O   0  0  0  0  0  0  0  0  0  0  0  0
   57.8070   31.6430   43.5370 C   0  0  0  0  0  0  0  0  0  0  0  0
   58.2950   32.9520   43.5800 C   0  0  0  0  0  0  0  0  0  0  0  0
   59.1919   35.2959   45.8960 H   0  0  0  0  0  0  0  0  0  0  0  0
   60.0498   35.0269   44.3409 H   0  0  0  0  0  0  0  0  0  0  0  0
   58.3610   35.6390   44.3409 H   0  0  0  0  0  0  0  0  0  0  0  0
   58.4987   33.3501   46.9713 H   0  0  0  0  0  0  0  0  0  0  0  0
   57.6281   31.0133   46.8942 H   0  0  0  0  0  0  0  0  0  0  0  0
   60.0509   28.5256   46.1332 H   0  0  0  0  0  0  0  0  0  0  0  0
   59.0629   30.0230   46.3472 H   0  0  0  0  0  0  0  0  0  0  0  0
   59.3409   28.5335   50.5648 H   0  0  0  0  0  0  0  0  0  0  0  0
   60.2209   30.1067   50.5419 H   0  0  0  0  0  0  0  0  0  0  0  0
   58.7456   32.2724   50.6577 H   0  0  0  0  0  0  0  0  0  0  0  0
   56.8968   33.2662   52.0225 H   0  0  0  0  0  0  0  0  0  0  0  0
   55.3126   31.7637   53.2476 H   0  0  0  0  0  0  0  0  0  0  0  0
   55.5963   29.2823   53.0858 H   0  0  0  0  0  0  0  0  0  0  0  0
   60.0232   26.5840   45.5081 H   0  0  0  0  0  0  0  0  0  0  0  0
   59.8455   24.0959   45.4479 H   0  0  0  0  0  0  0  0  0  0  0  0
   57.6128   22.9969   45.6412 H   0  0  0  0  0  0  0  0  0  0  0  0
   55.5504   24.3845   45.8915 H   0  0  0  0  0  0  0  0  0  0  0  0
   55.1500   27.6510   45.2350 H   0  0  0  0  0  0  0  0  0  0  0  0
   57.6067   31.1637   42.5674 H   0  0  0  0  0  0  0  0  0  0  0  0
   58.4681   33.5030   42.6438 H   0  0  0  0  0  0  0  0  0  0  0  0
  1  2  1  0
  2  3  2  0
  3  4  1  0
  4  5  2  0
  5  6  1  0
  6  7  2  0
  6  8  2  0
  6  9  1  0
  9 10  1  0
 10 11  1  0
 11 12  2  0
 11 13  1  0
 13 14  1  0
 14 15  1  0
 15 16  2  0
 16 17  1  0
 17 18  2  0
 18 19  1  0
 19 20  2  0
  9 21  1  0
 21 22  2  0
 22 23  1  0
 23 24  2  0
 24 25  1  0
 25 26  2  0
 26 27  1  0
  5 28  1  0
 28 29  2  0
 29  2  1  0
 20 15  1  0
 26 21  1  0
  1 30  1  0
  1 31  1  0
  1 32  1  0
  3 33  1  0
  4 34  1  0
 10 35  1  0
 10 36  1  0
 14 37  1  0
 14 38  1  0
 16 39  1  0
 17 40  1  0
 18 41  1  0
 19 42  1  0
 22 43  1  0
 23 44  1  0
 24 45  1  0
 25 46  1  0
 27 47  1  0
 28 48  1  0
 29 49  1  0
M  CHG  1  13  -1
M  END
>  <UniqueID>  (39) 
35

>  <SMILES>  (39) 
Cc1ccc(S(=O)(=O)N(CC(=O)[N-]Cc2ccccn2)c2ccccc2O)cc1

>  <Energy>  (39) 
51.26908528684065

>  <Genealogy>  (39) 
Cc1ccc(S(=O)(=O)N(CC(=O)[N-]Cc2ccccn2)c2ccccc2O)cc1 (protonated)
Cc1ccc(S(=O)(=O)N(CC(=O)[N-]Cc2ccccn2)c2ccccc2O)cc1 (3D coordinates assigned)
Cc1ccc(S(=O)(=O)N(CC(=O)[N-]Cc2ccccn2)c2ccccc2O)cc1 (optimized conformer: 51.26908528684065 kcal/mol)

>  <smiles>  (39) 
Cc1ccc(S(=O)(=O)N(CC(=O)NCc2ccccn2)c2ccccc2O)cc1

>  <score_type>  (39) 
oracle

>  <origin>  (39) 
adg

>  <m_score__min__energy>  (39) 
-10.800000000000001

>  <m_primary>  (39) 
energy

$$$$
39:0
     RDKit          3D

 49 52  0  0  0  0  0  0  0  0999 V2000
   58.1770   28.6880   46.9920 C   0  0  0  0  0  0  0  0  0  0  0  0
   57.9920   28.9430   45.6870 C   0  0  0  0  0  0  0  0  0  0  0  0
   57.6940   28.0180   44.6720 C   0  0  0  0  0  0  0  0  0  0  0  0
   57.6870   26.6710   44.6760 C   0  0  0  0  0  0  0  0  0  0  0  0
   57.2260   25.8180   45.7840 C   0  0  0  0  0  0  0  0  0  0  0  0
   57.9280   24.7930   46.3040 N   0  0  0  0  0  0  0  0  0  0  0  0
   57.0590   24.2340   47.1750 C   0  0  0  0  0  0  0  0  0  0  0  0
   57.3580   23.2360   47.8820 O   0  0  0  0  0  0  0  0  0  0  0  0
   55.8430   24.8190   47.2190 N   0  0  0  0  0  0  0  0  0  0  0  0
   55.9620   25.8110   46.3210 C   0  0  0  0  0  0  0  0  0  0  0  0
   54.9350   26.6870   45.9960 O   0  0  0  0  0  0  0  0  0  0  0  0
   57.4010   28.7640   43.5420 C   0  0  0  0  0  0  0  0  0  0  0  0
   57.5860   30.0900   43.8780 C   0  0  0  0  0  0  0  0  0  0  0  0
   57.3840   31.2450   42.9450 C   0  0  0  0  0  0  0  0  0  0  0  0
   57.9520   30.1990   45.1730 N   0  0  0  0  0  0  0  0  0  0  0  0
   58.1460   31.4380   45.8770 C   0  0  0  0  0  0  0  0  0  0  0  0
   57.3470   32.5480   45.5760 C   0  0  0  0  0  0  0  0  0  0  0  0
   57.5210   33.7450   46.2730 C   0  0  0  0  0  0  0  0  0  0  0  0
   58.4950   33.8420   47.2710 C   0  0  0  0  0  0  0  0  0  0  0  0
   59.3190   32.7410   47.5730 C   0  0  0  0  0  0  0  0  0  0  0  0
   60.3070   32.8310   48.6270 N   0  0  0  0  0  0  0  0  0  0  0  0
   61.6650   33.2340   48.1900 C   0  0  0  0  0  0  0  0  0  0  0  0
   61.7290   33.9230   46.8300 C   0  0  0  0  0  0  0  0  0  0  0  0
   63.1900   33.8040   46.4080 C   0  0  0  0  0  0  0  0  0  0  0  0
   63.7870   32.6360   47.2010 C   0  0  0  0  0  0  0  0  0  0  0  0
   62.6740   32.0930   48.0920 C   0  0  0  0  0  0  0  0  0  0  0  0
   59.1170   31.5320   46.8840 C   0  0  0  0  0  0  0  0  0  0  0  0
   58.4067   29.5101   47.6859 H   0  0  0  0  0  0  0  0  0  0  0  0
   58.0988   27.6570   47.3674 H   0  0  0  0  0  0  0  0  0  0  0  0
   58.0580   26.1642   43.7729 H   0  0  0  0  0  0  0  0  0  0  0  0
   57.0820   28.3742   42.5641 H   0  0  0  0  0  0  0  0  0  0  0  0
   57.2233   32.1637   43.5282 H   0  0  0  0  0  0  0  0  0  0  0  0
   58.2749   31.3643   42.3109 H   0  0  0  0  0  0  0  0  0  0  0  0
   56.5055   31.0549   42.3109 H   0  0  0  0  0  0  0  0  0  0  0  0
   56.5814   32.4766   44.7894 H   0  0  0  0  0  0  0  0  0  0  0  0
   56.8899   34.6143   46.0362 H   0  0  0  0  0  0  0  0  0  0  0  0
   58.6185   34.7848   47.8241 H   0  0  0  0  0  0  0  0  0  0  0  0
   59.9790   33.5140   49.3500 H   0  0  0  0  0  0  0  0  0  0  0  0
   60.3770   31.9060   49.1130 H   0  0  0  0  0  0  0  0  0  0  0  0
   61.9263   33.9305   49.0003 H   0  0  0  0  0  0  0  0  0  0  0  0
   61.0732   33.4165   46.1066 H   0  0  0  0  0  0  0  0  0  0  0  0
   61.3913   34.9689   46.8754 H   0  0  0  0  0  0  0  0  0  0  0  0
   63.2571   33.6023   45.3287 H   0  0  0  0  0  0  0  0  0  0  0  0
   63.7360   34.7374   46.6094 H   0  0  0  0  0  0  0  0  0  0  0  0
   64.1383   31.8522   46.5138 H   0  0  0  0  0  0  0  0  0  0  0  0
   64.6476   32.9658   47.8015 H   0  0  0  0  0  0  0  0  0  0  0  0
   62.2118   31.2044   47.6373 H   0  0  0  0  0  0  0  0  0  0  0  0
   63.0460   31.7803   49.0789 H   0  0  0  0  0  0  0  0  0  0  0  0
   59.7263   30.6519   47.1374 H   0  0  0  0  0  0  0  0  0  0  0  0
  1  2  2  0
  2  3  1  0
  3  4  2  3
  4  5  1  0
  5  6  1  0
  6  7  1  0
  7  8  2  0
  7  9  1  0
  9 10  1  0
 10 11  1  0
  3 12  1  0
 12 13  2  0
 13 14  1  0
 13 15  1  0
 15 16  1  0
 16 17  2  0
 17 18  1  0
 18 19  2  0
 19 20  1  0
 20 21  1  0
 21 22  1  0
 22 23  1  0
 23 24  1  0
 24 25  1  0
 25 26  1  0
 20 27  2  0
 15  2  1  0
 27 16  1  0
 10  5  2  0
 26 22  1  0
  1 28  1  0
  1 29  1  0
  4 30  1  0
 12 31  1  0
 14 32  1  0
 14 33  1  0
 14 34  1  0
 17 35  1  0
 18 36  1  0
 19 37  1  0
 21 38  1  0
 21 39  1  0
 22 40  1  0
 23 41  1  0
 23 42  1  0
 24 43  1  0
 24 44  1  0
 25 45  1  0
 25 46  1  0
 26 47  1  0
 26 48  1  0
 27 49  1  0
M  CHG  4   6  -1   9  -1  11  -1  21   1
M  END
>  <UniqueID>  (40) 
36

>  <SMILES>  (40) 
C=c1c(=Cc2[n-]c(=O)[n-]c2[O-])cc(C)n1-c1cccc([NH2+]C2CCCC2)c1

>  <Energy>  (40) 
132.97054619336373

>  <Genealogy>  (40) 
C=c1c(=Cc2[n-]c(=O)[n-]c2[O-])cc(C)n1-c1cccc([NH2+]C2CCCC2)c1 (protonated)
C=c1c(=Cc2[n-]c(=O)[n-]c2[O-])cc(C)n1-c1cccc([NH2+]C2CCCC2)c1 (3D coordinates assigned)
C=c1c(=Cc2[n-]c(=O)[n-]c2[O-])cc(C)n1-c1cccc([NH2+]C2CCCC2)c1 (nonaromatic ring conformer: 132.97054619336373 kcal/mol)

>  <smiles>  (40) 
C=c1c(=Cc2[nH]c(=O)[nH]c2O)cc(C)n1-c1cccc(NC2CCCC2)c1

>  <score_type>  (40) 
oracle

>  <origin>  (40) 
adg

>  <m_score__min__energy>  (40) 
-15.34

>  <m_primary>  (40) 
energy

$$$$
40:0
     RDKit          3D

 41 42  0  0  0  0  0  0  0  0999 V2000
   56.6600   22.0200   43.7980 C   0  0  0  0  0  0  0  0  0  0  0  0
   56.7850   23.4390   44.2540 C   0  0  0  0  0  0  0  0  0  0  0  0
   57.3800   24.3960   43.4310 C   0  0  0  0  0  0  0  0  0  0  0  0
   57.5150   25.7200   43.8750 C   0  0  0  0  0  0  0  0  0  0  0  0
   58.1490   26.7320   42.9550 C   0  0  0  0  0  0  0  0  0  0  0  0
   57.0170   26.0770   45.1550 C   0  0  0  0  0  0  0  0  0  0  0  0
   57.0970   27.5080   45.6600 C   0  0  0  0  0  0  0  0  0  0  0  0
   55.9110   28.2590   45.2620 N   0  0  0  0  0  0  0  0  0  0  0  0
   55.9710   29.5070   44.5700 C   0  0  0  0  0  0  0  0  0  0  0  0
   55.0770   29.7900   43.7290 O   0  0  0  0  0  0  0  0  0  0  0  0
   57.0330   30.4290   44.8360 N   0  0  0  0  0  0  0  0  0  0  0  0
   57.1720   31.7120   44.1600 C   0  0  0  0  0  0  0  0  0  0  0  0
   57.9780   32.6440   45.0210 C   0  0  0  0  0  0  0  0  0  0  0  0
   58.4370   33.8660   44.5050 C   0  0  0  0  0  0  0  0  0  0  0  0
   59.1310   34.7590   45.3250 C   0  0  0  0  0  0  0  0  0  0  0  0
   59.3710   34.4420   46.6640 C   0  0  0  0  0  0  0  0  0  0  0  0
   58.9080   33.2300   47.1940 C   0  0  0  0  0  0  0  0  0  0  0  0
   59.1920   32.8180   48.8830 S   0  0  0  0  0  0  0  0  0  0  0  0
   59.6870   34.2260   49.7540 N   0  0  0  0  0  0  0  0  0  0  0  0
   60.2720   31.7770   48.9900 O   0  0  0  0  0  0  0  0  0  0  0  0
   57.9260   32.2710   49.4820 O   0  0  0  0  0  0  0  0  0  0  0  0
   58.2080   32.3370   46.3720 C   0  0  0  0  0  0  0  0  0  0  0  0
   56.4240   25.0700   45.9480 C   0  0  0  0  0  0  0  0  0  0  0  0
   55.9720   25.3310   47.0940 O   0  0  0  0  0  0  0  0  0  0  0  0
   56.3320   23.7970   45.4830 N   0  0  0  0  0  0  0  0  0  0  0  0
   56.6016   21.3572   44.6739 H   0  0  0  0  0  0  0  0  0  0  0  0
   55.7485   21.9084   43.1924 H   0  0  0  0  0  0  0  0  0  0  0  0
   57.5379   21.7508   43.1924 H   0  0  0  0  0  0  0  0  0  0  0  0
   57.7438   24.1119   42.4325 H   0  0  0  0  0  0  0  0  0  0  0  0
   58.6392   27.5145   43.5528 H   0  0  0  0  0  0  0  0  0  0  0  0
   58.8963   26.2331   42.3204 H   0  0  0  0  0  0  0  0  0  0  0  0
   57.3741   27.1868   42.3204 H   0  0  0  0  0  0  0  0  0  0  0  0
   57.1691   27.5007   46.7576 H   0  0  0  0  0  0  0  0  0  0  0  0
   57.9849   27.9893   45.2241 H   0  0  0  0  0  0  0  0  0  0  0  0
   57.6840   31.5663   43.1974 H   0  0  0  0  0  0  0  0  0  0  0  0
   56.1761   32.1440   43.9823 H   0  0  0  0  0  0  0  0  0  0  0  0
   58.2496   34.1213   43.4516 H   0  0  0  0  0  0  0  0  0  0  0  0
   59.4895   35.7147   44.9150 H   0  0  0  0  0  0  0  0  0  0  0  0
   59.9245   35.1450   47.3038 H   0  0  0  0  0  0  0  0  0  0  0  0
   59.3340   35.0560   49.2270 H   0  0  0  0  0  0  0  0  0  0  0  0
   57.8360   31.3889   46.7877 H   0  0  0  0  0  0  0  0  0  0  0  0
  1  2  1  0
  2  3  2  0
  3  4  1  0
  4  5  1  0
  4  6  2  0
  6  7  1  0
  7  8  1  0
  8  9  1  0
  9 10  2  0
  9 11  1  0
 11 12  1  0
 12 13  1  0
 13 14  2  0
 14 15  1  0
 15 16  2  0
 16 17  1  0
 17 18  1  0
 18 19  1  0
 18 20  2  0
 18 21  2  0
 17 22  2  0
  6 23  1  0
 23 24  2  0
 23 25  1  0
 25  2  1  0
 22 13  1  0
  1 26  1  0
  1 27  1  0
  1 28  1  0
  3 29  1  0
  5 30  1  0
  5 31  1  0
  5 32  1  0
  7 33  1  0
  7 34  1  0
 12 35  1  0
 12 36  1  0
 14 37  1  0
 15 38  1  0
 16 39  1  0
 19 40  1  0
 22 41  1  0
M  CHG  4   8  -1  11  -1  19  -1  25  -1
M  END
>  <UniqueID>  (41) 
37

>  <SMILES>  (41) 
Cc1cc(C)c(C[N-]C(=O)[N-]Cc2cccc(S([NH-])(=O)=O)c2)c(=O)[n-]1

>  <Energy>  (41) 
33.715274414077044

>  <Genealogy>  (41) 
Cc1cc(C)c(C[N-]C(=O)[N-]Cc2cccc(S([NH-])(=O)=O)c2)c(=O)[n-]1 (protonated)
Cc1cc(C)c(C[N-]C(=O)[N-]Cc2cccc(S([NH-])(=O)=O)c2)c(=O)[n-]1 (3D coordinates assigned)
Cc1cc(C)c(C[N-]C(=O)[N-]Cc2cccc(S([NH-])(=O)=O)c2)c(=O)[n-]1 (optimized conformer: 33.715274414077044 kcal/mol)

>  <smiles>  (41) 
Cc1cc(C)c(CNC(=O)NCc2cccc(S(N)(=O)=O)c2)c(=O)[nH]1

>  <score_type>  (41) 
oracle

>  <origin>  (41) 
adg

>  <m_score__min__energy>  (41) 
-15.130000000000001

>  <m_primary>  (41) 
energy

$$$$
41:0
     RDKit          3D

 29 30  0  0  0  0  0  0  0  0999 V2000
   57.1532   27.6143   44.4987 H   0  0  0  0  0  0  0  0  0  0  0  0
   57.7190   27.2480   45.3680 C   0  0  0  0  0  0  0  0  0  0  0  0
   58.7820   27.8900   45.7490 N   0  0  0  0  0  0  0  0  0  0  0  0
   58.8200   28.8100   46.8510 C   0  0  0  0  0  0  0  0  0  0  0  0
   58.5990   28.3940   48.0210 O   0  0  0  0  0  0  0  0  0  0  0  0
   59.1240   30.2490   46.6070 C   0  0  0  0  0  0  0  0  0  0  0  0
   60.3440   30.7810   47.0620 C   0  0  0  0  0  0  0  0  0  0  0  0
   61.0542   30.1277   47.5901 H   0  0  0  0  0  0  0  0  0  0  0  0
   60.6720   32.1290   46.8550 C   0  0  0  0  0  0  0  0  0  0  0  0
   61.9250   32.6600   47.3260 N   0  0  0  0  0  0  0  0  0  0  0  0
   61.9770   33.7760   47.8820 O   0  0  0  0  0  0  0  0  0  0  0  0
   63.0900   31.9420   47.1780 O   0  0  0  0  0  0  0  0  0  0  0  0
   59.7610   32.9570   46.1850 C   0  0  0  0  0  0  0  0  0  0  0  0
   60.0132   34.0149   46.0203 H   0  0  0  0  0  0  0  0  0  0  0  0
   58.5320   32.4610   45.7200 C   0  0  0  0  0  0  0  0  0  0  0  0
   57.6240   33.3510   45.0350 N   0  0  0  0  0  0  0  0  0  0  0  0
   57.6370   33.4580   43.7910 O   0  0  0  0  0  0  0  0  0  0  0  0
   56.6850   34.0640   45.7440 O   0  0  0  0  0  0  0  0  0  0  0  0
   58.2190   31.0970   45.9270 C   0  0  0  0  0  0  0  0  0  0  0  0
   57.0170   30.5860   45.4450 O   0  0  0  0  0  0  0  0  0  0  0  0
   57.2490   26.0300   46.0790 C   0  0  0  0  0  0  0  0  0  0  0  0
   55.8880   25.7970   46.3730 C   0  0  0  0  0  0  0  0  0  0  0  0
   54.9020   26.7080   46.0080 O   0  0  0  0  0  0  0  0  0  0  0  0
   55.5180   24.6650   47.0250 N   0  0  0  0  0  0  0  0  0  0  0  0
   56.4340   23.7410   47.4060 C   0  0  0  0  0  0  0  0  0  0  0  0
   55.9550   22.3910   48.1880 S   0  0  0  0  0  0  0  0  0  0  0  0
   57.7480   23.9370   47.1380 N   0  0  0  0  0  0  0  0  0  0  0  0
   58.1760   25.0510   46.4890 C   0  0  0  0  0  0  0  0  0  0  0  0
   59.4070   25.1910   46.2610 O   0  0  0  0  0  0  0  0  0  0  0  0
  1  2  1  0
  2  3  2  0
  3  4  1  0
  4  5  2  0
  4  6  1  0
  6  7  2  0
  7  8  1  0
  7  9  1  0
  9 10  1  0
 10 11  2  0
 10 12  1  0
  9 13  2  0
 13 14  1  0
 13 15  1  0
 15 16  1  0
 16 17  2  0
 16 18  1  0
 15 19  2  0
 19 20  1  0
  2 21  1  0
 21 22  2  0
 22 23  1  0
 22 24  1  0
 24 25  1  0
 25 26  2  0
 25 27  1  0
 27 28  1  0
 28 29  2  0
 19  6  1  0
 28 21  1  0
M  CHG  8  10   1  12  -1  16   1  18  -1  20  -1  23  -1  24  -1  27  -1
M  END
>  <UniqueID>  (42) 
38

>  <SMILES>  (42) 
O=C(/N=C/c1c([O-])[n-]c(=S)[n-]c1=O)c1cc([N+](=O)[O-])cc([N+](=O)[O-])c1[O-]

>  <Energy>  (42) 
41.144124972719986

>  <Genealogy>  (42) 
O=C(N=Cc1c([O-])[n-]c(=S)[n-]c1=O)c1cc([N+](=O)[O-])cc([N+](=O)[O-])c1[O-] (protonated)
O=C(/N=C/c1c([O-])[n-]c(=S)[n-]c1=O)c1cc([N+](=O)[O-])cc([N+](=O)[O-])c1[O-] (cis-trans isomerization)
O=C(/N=C/c1c([O-])[n-]c(=S)[n-]c1=O)c1cc([N+](=O)[O-])cc([N+](=O)[O-])c1[O-] (3D coordinates assigned)
O=C(/N=C/c1c([O-])[n-]c(=S)[n-]c1=O)c1cc([N+](=O)[O-])cc([N+](=O)[O-])c1[O-] (optimized conformer: 41.144124972719986 kcal/mol)

>  <smiles>  (42) 
O=C(N=Cc1c(O)[nH]c(=S)[nH]c1=O)c1cc([N+](=O)[O-])cc([N+](=O)[O-])c1O

>  <score_type>  (42) 
oracle

>  <origin>  (42) 
adg

>  <m_score__min__energy>  (42) 
-16.530000000000001

>  <m_primary>  (42) 
energy

$$$$
42:0
     RDKit          3D

 49 52  0  0  0  0  0  0  0  0999 V2000
   58.8860   32.5600   49.5290 C   0  0  0  0  0  0  0  0  0  0  0  0
   58.8900   33.1910   48.2020 N   0  0  0  0  0  0  0  0  0  0  0  0
   58.2620   32.5670   47.1580 C   0  0  0  0  0  0  0  0  0  0  0  0
   58.2580   33.1380   45.8740 C   0  0  0  0  0  0  0  0  0  0  0  0
   57.5690   32.4570   44.7550 C   0  0  0  0  0  0  0  0  0  0  0  0
   57.3920   33.0750   43.6710 O   0  0  0  0  0  0  0  0  0  0  0  0
   57.0500   31.1250   44.8770 N   0  0  0  0  0  0  0  0  0  0  0  0
   57.8290   29.9350   45.0590 C   0  0  0  0  0  0  0  0  0  0  0  0
   59.0920   29.7800   44.4640 C   0  0  0  0  0  0  0  0  0  0  0  0
   59.8290   28.6100   44.6680 C   0  0  0  0  0  0  0  0  0  0  0  0
   59.3090   27.5840   45.4610 C   0  0  0  0  0  0  0  0  0  0  0  0
   58.0450   27.7220   46.0580 C   0  0  0  0  0  0  0  0  0  0  0  0
   57.4920   26.6280   46.9350 C   0  0  0  0  0  0  0  0  0  0  0  0
   56.4420   25.8190   46.2110 C   0  0  0  0  0  0  0  0  0  0  0  0
   55.1640   26.2770   46.2320 N   0  0  0  0  0  0  0  0  0  0  0  0
   54.1620   25.6160   45.6580 N   0  0  0  0  0  0  0  0  0  0  0  0
   54.3610   24.4340   45.0280 C   0  0  0  0  0  0  0  0  0  0  0  0
   53.3820   23.8480   44.4930 O   0  0  0  0  0  0  0  0  0  0  0  0
   55.6490   23.8780   44.9760 C   0  0  0  0  0  0  0  0  0  0  0  0
   56.7260   24.5980   45.5490 C   0  0  0  0  0  0  0  0  0  0  0  0
   58.1280   24.0130   45.5630 C   0  0  0  0  0  0  0  0  0  0  0  0
   58.3320   22.9230   44.5100 C   0  0  0  0  0  0  0  0  0  0  0  0
   57.1970   21.9070   44.5780 C   0  0  0  0  0  0  0  0  0  0  0  0
   55.8700   22.5800   44.2250 C   0  0  0  0  0  0  0  0  0  0  0  0
   57.2990   28.8920   45.8280 C   0  0  0  0  0  0  0  0  0  0  0  0
   58.9410   34.3450   45.6760 C   0  0  0  0  0  0  0  0  0  0  0  0
   59.5830   34.9660   46.7430 C   0  0  0  0  0  0  0  0  0  0  0  0
   59.5520   34.3750   48.0080 C   0  0  0  0  0  0  0  0  0  0  0  0
   60.1490   34.9410   48.9640 O   0  0  0  0  0  0  0  0  0  0  0  0
   58.8909   33.3391   50.3055 H   0  0  0  0  0  0  0  0  0  0  0  0
   57.9839   31.9399   49.6375 H   0  0  0  0  0  0  0  0  0  0  0  0
   59.7802   31.9286   49.6375 H   0  0  0  0  0  0  0  0  0  0  0  0
   57.7538   31.6060   47.3263 H   0  0  0  0  0  0  0  0  0  0  0  0
   59.5029   30.5831   43.8346 H   0  0  0  0  0  0  0  0  0  0  0  0
   60.8197   28.4969   44.2036 H   0  0  0  0  0  0  0  0  0  0  0  0
   59.8917   26.6644   45.6185 H   0  0  0  0  0  0  0  0  0  0  0  0
   58.3133   25.9609   47.2358 H   0  0  0  0  0  0  0  0  0  0  0  0
   57.0245   27.0932   47.8154 H   0  0  0  0  0  0  0  0  0  0  0  0
   58.8476   24.8230   45.3728 H   0  0  0  0  0  0  0  0  0  0  0  0
   58.2812   23.5502   46.5491 H   0  0  0  0  0  0  0  0  0  0  0  0
   58.3496   23.3820   43.5105 H   0  0  0  0  0  0  0  0  0  0  0  0
   59.2855   22.4099   44.7041 H   0  0  0  0  0  0  0  0  0  0  0  0
   57.3936   21.0931   43.8647 H   0  0  0  0  0  0  0  0  0  0  0  0
   57.1359   21.5021   45.5989 H   0  0  0  0  0  0  0  0  0  0  0  0
   55.8605   22.7929   43.1458 H   0  0  0  0  0  0  0  0  0  0  0  0
   55.0630   21.8903   44.5132 H   0  0  0  0  0  0  0  0  0  0  0  0
   56.2903   28.9884   46.2561 H   0  0  0  0  0  0  0  0  0  0  0  0
   58.9698   34.8023   44.6760 H   0  0  0  0  0  0  0  0  0  0  0  0
   60.1125   35.9181   46.5908 H   0  0  0  0  0  0  0  0  0  0  0  0
  1  2  1  0
  2  3  1  0
  3  4  2  0
  4  5  1  0
  5  6  2  0
  5  7  1  0
  7  8  1  0
  8  9  2  0
  9 10  1  0
 10 11  2  0
 11 12  1  0
 12 13  1  0
 13 14  1  0
 14 15  2  0
 15 16  1  0
 16 17  1  0
 17 18  2  0
 17 19  1  0
 19 20  2  0
 20 21  1  0
 21 22  1  0
 22 23  1  0
 23 24  1  0
 12 25  2  0
  4 26  1  0
 26 27  2  0
 27 28  1  0
 28 29  2  0
 28  2  1  0
 25  8  1  0
 20 14  1  0
 24 19  1  0
  1 30  1  0
  1 31  1  0
  1 32  1  0
  3 33  1  0
  9 34  1  0
 10 35  1  0
 11 36  1  0
 13 37  1  0
 13 38  1  0
 21 39  1  0
 21 40  1  0
 22 41  1  0
 22 42  1  0
 23 43  1  0
 23 44  1  0
 24 45  1  0
 24 46  1  0
 25 47  1  0
 26 48  1  0
 27 49  1  0
M  CHG  2   7  -1  16  -1
M  END
>  <UniqueID>  (43) 
39

>  <SMILES>  (43) 
Cn1cc(C(=O)[N-]c2cccc(Cc3n[n-]c(=O)c4c3CCCC4)c2)ccc1=O

>  <Energy>  (43) 
62.96348380191523

>  <Genealogy>  (43) 
Cn1cc(C(=O)[N-]c2cccc(Cc3n[n-]c(=O)c4c3CCCC4)c2)ccc1=O (protonated)
Cn1cc(C(=O)[N-]c2cccc(Cc3n[n-]c(=O)c4c3CCCC4)c2)ccc1=O (3D coordinates assigned)
Cn1cc(C(=O)[N-]c2cccc(Cc3n[n-]c(=O)c4c3CCCC4)c2)ccc1=O (nonaromatic ring conformer: 62.96348380191523 kcal/mol)

>  <smiles>  (43) 
Cn1cc(C(=O)Nc2cccc(Cc3n[nH]c(=O)c4c3CCCC4)c2)ccc1=O

>  <score_type>  (43) 
oracle

>  <origin>  (43) 
adg

>  <m_score__min__energy>  (43) 
-13.33

>  <m_primary>  (43) 
energy

$$$$
43:0
     RDKit          3D

 82 86  0  0  1  0  0  0  0  0999 V2000
   66.8810   28.3060   51.2620 C   0  0  0  0  0  0  0  0  0  0  0  0
   67.4870   29.6710   51.3120 C   0  0  0  0  0  0  0  0  0  0  0  0
   66.6040   30.7170   50.9500 N   0  0  0  0  0  0  0  0  0  0  0  0
   67.1250   32.0230   50.7890 C   0  0  0  0  0  0  0  0  0  0  0  0
   66.1580   32.7510   49.8400 C   0  0  0  0  0  0  0  0  0  0  0  0
   64.8060   32.5400   50.3320 N   0  0  0  0  0  0  0  0  0  0  0  0
   63.6970   32.9310   49.4910 C   0  0  0  0  0  0  0  0  0  0  0  0
   62.7330   33.7970   50.0120 C   0  0  0  0  0  0  0  0  0  0  0  0
   61.6770   34.2050   49.2270 C   0  0  0  0  0  0  0  0  0  0  0  0
   61.5750   33.7520   47.9190 C   0  0  0  0  0  0  0  0  0  0  0  0
   60.4630   34.3280   47.1140 C   0  0  0  0  0  0  0  0  0  0  0  0
   59.1720   33.6270   47.4330 C   0  0  0  0  0  0  0  0  0  0  0  0
   58.9630   33.0560   48.5270 O   0  0  0  0  0  0  0  0  0  0  0  0
   61.3170   30.5950   49.4720 N   0  0  0  0  0  0  0  0  0  0  0  0
   60.4000   29.7840   48.9770 C   0  0  0  0  0  0  0  0  0  0  0  0
   59.1440   29.9570   48.6280 N   0  0  0  0  0  0  0  0  0  0  0  0
   58.5230   28.9190   48.1810 N   0  0  0  0  0  0  0  0  0  0  0  0
   58.9510   27.8030   48.0450 C   0  0  0  0  0  0  0  0  0  0  0  0
   58.4010   26.5190   47.5710 C   0  0  0  0  0  0  0  0  0  0  0  0
   58.3490   26.5140   46.0640 C   0  0  0  0  0  0  0  0  0  0  0  0
   59.6530   27.6370   45.4340 S   0  0  0  0  0  0  0  0  0  0  0  0
   58.7810   28.6080   44.1100 C   0  0  0  0  0  0  0  0  0  0  0  0
   57.3860   28.7800   44.6540 C   0  0  0  0  0  0  0  0  0  0  0  0
   57.1500   30.2630   44.7760 C   0  0  0  0  0  0  0  0  0  0  0  0
   56.6390   31.2310   44.5230 N   0  0  0  0  0  0  0  0  0  0  0  0
   56.7610   32.4670   44.8660 N   0  0  0  0  0  0  0  0  0  0  0  0
   57.7580   32.6630   45.7610 C   0  0  0  0  0  0  0  0  0  0  0  0
   58.2120   33.6780   46.3730 N   0  0  0  0  0  0  0  0  0  0  0  0
   61.6360   30.4950   50.8330 C   0  0  0  0  0  0  0  0  0  0  0  0
   62.4280   29.5900   51.2560 O   0  0  0  0  0  0  0  0  0  0  0  0
   61.0540   31.4600   51.8460 C   0  0  0  0  0  0  0  0  0  0  0  0
   59.5770   31.3030   51.8160 C   0  0  0  0  0  0  0  0  0  0  0  0
   58.9150   30.1110   51.9240 C   0  0  0  0  0  0  0  0  0  0  0  0
   57.5450   29.9600   51.9310 C   0  0  0  0  0  0  0  0  0  0  0  0
   56.7580   31.1230   51.8160 C   0  0  0  0  0  0  0  0  0  0  0  0
   57.3960   32.3280   51.7050 C   0  0  0  0  0  0  0  0  0  0  0  0
   58.7870   32.4500   51.7010 C   0  0  0  0  0  0  0  0  0  0  0  0
   59.3580   33.8090   51.5630 C   0  0  0  0  0  0  0  0  0  0  0  0
   58.4630   30.9430   46.0340 S   0  0  0  0  0  0  0  0  0  0  0  0
   60.7260   27.9830   48.6430 S   0  0  0  0  0  0  0  0  0  0  0  0
   62.5150   32.8860   47.3750 C   0  0  0  0  0  0  0  0  0  0  0  0
   63.5750   32.4920   48.1950 C   0  0  0  0  0  0  0  0  0  0  0  0
   64.6000   31.9550   51.6390 C   0  0  0  0  0  0  0  0  0  0  0  0
   65.3890   30.6540   51.6920 C   0  0  0  0  0  0  0  0  0  0  0  0
   66.7182   27.9394   52.2862 H   0  0  0  0  0  0  0  0  0  0  0  0
   65.9185   28.3514   50.7315 H   0  0  0  0  0  0  0  0  0  0  0  0
   67.5602   27.6225   50.7315 H   0  0  0  0  0  0  0  0  0  0  0  0
   67.8357   29.8551   52.3389 H   0  0  0  0  0  0  0  0  0  0  0  0
   68.3026   29.6794   50.5740 H   0  0  0  0  0  0  0  0  0  0  0  0
   67.1693   32.5392   51.7594 H   0  0  0  0  0  0  0  0  0  0  0  0
   68.1475   32.0019   50.3840 H   0  0  0  0  0  0  0  0  0  0  0  0
   66.3871   33.8268   49.8260 H   0  0  0  0  0  0  0  0  0  0  0  0
   66.2588   32.3606   48.8166 H   0  0  0  0  0  0  0  0  0  0  0  0
   62.8170   34.1533   51.0493 H   0  0  0  0  0  0  0  0  0  0  0  0
   60.9172   34.8875   49.6355 H   0  0  0  0  0  0  0  0  0  0  0  0
   60.3623   35.3982   47.3474 H   0  0  0  0  0  0  0  0  0  0  0  0
   60.6882   34.1954   46.0455 H   0  0  0  0  0  0  0  0  0  0  0  0
   58.6600   30.9090   48.7110 H   0  0  0  0  0  0  0  0  0  0  0  0
   57.3856   26.3857   47.9724 H   0  0  0  0  0  0  0  0  0  0  0  0
   59.0454   25.6970   47.9161 H   0  0  0  0  0  0  0  0  0  0  0  0
   57.3626   26.8639   45.7255 H   0  0  0  0  0  0  0  0  0  0  0  0
   58.5134   25.4948   45.6844 H   0  0  0  0  0  0  0  0  0  0  0  0
   58.7663   28.0520   43.1610 H   0  0  0  0  0  0  0  0  0  0  0  0
   59.2739   29.5663   43.8893 H   0  0  0  0  0  0  0  0  0  0  0  0
   57.3016   28.3001   45.6402 H   0  0  0  0  0  0  0  0  0  0  0  0
   56.6421   28.3137   43.9914 H   0  0  0  0  0  0  0  0  0  0  0  0
   56.1990   33.3280   44.5600 H   0  0  0  0  0  0  0  0  0  0  0  0
   61.4362   31.2256   52.8505 H   0  0  0  0  0  0  0  0  0  0  0  0
   61.3384   32.4945   51.6030 H   0  0  0  0  0  0  0  0  0  0  0  0
   59.5249   29.1998   52.0124 H   0  0  0  0  0  0  0  0  0  0  0  0
   57.0823   28.9663   52.0231 H   0  0  0  0  0  0  0  0  0  0  0  0
   55.6596   31.0636   51.8155 H   0  0  0  0  0  0  0  0  0  0  0  0
   56.7872   33.2398   51.6151 H   0  0  0  0  0  0  0  0  0  0  0  0
   59.5369   34.2347   52.5614 H   0  0  0  0  0  0  0  0  0  0  0  0
   60.3087   33.7531   51.0125 H   0  0  0  0  0  0  0  0  0  0  0  0
   58.6527   34.4489   51.0125 H   0  0  0  0  0  0  0  0  0  0  0  0
   62.4281   32.5248   46.3396 H   0  0  0  0  0  0  0  0  0  0  0  0
   64.3361   31.8087   47.7902 H   0  0  0  0  0  0  0  0  0  0  0  0
   64.9590   32.6431   52.4185 H   0  0  0  0  0  0  0  0  0  0  0  0
   63.5305   31.7649   51.8124 H   0  0  0  0  0  0  0  0  0  0  0  0
   65.6291   30.4306   52.7420 H   0  0  0  0  0  0  0  0  0  0  0  0
   64.7648   29.8683   51.2413 H   0  0  0  0  0  0  0  0  0  0  0  0
  1  2  1  0
  2  3  1  0
  3  4  1  0
  4  5  1  0
  5  6  1  0
  6  7  1  0
  7  8  2  0
  8  9  1  0
  9 10  2  0
 10 11  1  0
 11 12  1  0
 12 13  2  0
 12 14  1  0
 14 15  2  0
 15 16  1  0
 16 17  1  0
 17 18  2  0
 18 19  1  0
 19 20  1  0
 20 21  1  0
 21 22  1  0
 22 23  1  0
 23 24  1  0
 24 25  2  0
 25 26  1  0
 26 27  1  0
 27 28  2  0
 28 29  1  0
 29 30  2  0
 29 31  1  0
 31 32  1  0
 32 33  2  0
 33 34  1  0
 34 35  2  0
 35 36  1  0
 36 37  2  0
 37 38  1  0
 27 39  1  0
 18 40  1  0
 10 41  1  0
 41 42  2  0
  6 43  1  0
 43 44  1  0
 44  3  1  0
 42  7  1  0
 40 15  1  0
 39 24  1  0
 37 32  1  0
  1 45  1  0
  1 46  1  0
  1 47  1  0
  2 48  1  0
  2 49  1  0
  4 50  1  0
  4 51  1  0
  5 52  1  0
  5 53  1  0
  8 54  1  0
  9 55  1  0
 11 56  1  0
 11 57  1  0
 16 58  1  0
 19 59  1  0
 19 60  1  0
 20 61  1  0
 20 62  1  0
 22 63  1  0
 22 64  1  0
 23 65  1  0
 23 66  1  0
 26 67  1  0
 31 68  1  0
 31 69  1  0
 33 70  1  0
 34 71  1  0
 35 72  1  0
 36 73  1  0
 38 74  1  0
 38 75  1  0
 38 76  1  0
 41 77  1  0
 42 78  1  0
 43 79  1  0
 43 80  1  0
 44 81  1  0
 44 82  1  0
M  END
>  <smiles>  (44) 
CCN1CCN(c2ccc(CC(=O)N=c3[nH]nc(CCSCCc4n[nH]c(=NC(=O)Cc5ccccc5C)s4)s3)cc2)CC1

>  <score_type>  (44) 
oracle

>  <origin>  (44) 
adg

>  <m_score__min__energy>  (44) 
-11.210000000000001

>  <m_primary>  (44) 
energy

$$$$
44:0
     RDKit          3D

 63 66  0  0  0  0  0  0  0  0999 V2000
   59.2354   28.3473   44.3316 H   0  0  0  0  0  0  0  0  0  0  0  0
   58.5520   29.0670   44.8060 C   0  0  0  0  0  0  0  0  0  0  0  0
   58.5530   29.1460   46.1060 N   0  0  0  0  0  0  0  0  0  0  0  0
   59.5580   29.7610   46.9250 C   0  0  0  0  0  0  0  0  0  0  0  0
   59.5800   29.5680   48.3140 C   0  0  0  0  0  0  0  0  0  0  0  0
   58.8023   28.9561   48.7945 H   0  0  0  0  0  0  0  0  0  0  0  0
   60.5860   30.1500   49.0900 C   0  0  0  0  0  0  0  0  0  0  0  0
   60.5833   30.0094   50.1810 H   0  0  0  0  0  0  0  0  0  0  0  0
   61.6020   30.9140   48.4880 C   0  0  0  0  0  0  0  0  0  0  0  0
   62.6370   31.5210   49.2910 N   0  0  0  0  0  0  0  0  0  0  0  0
   63.6650   32.3640   48.6650 C   0  0  0  0  0  0  0  0  0  0  0  0
   63.8984   31.9708   47.6645 H   0  0  0  0  0  0  0  0  0  0  0  0
   63.2860   33.3934   48.5833 H   0  0  0  0  0  0  0  0  0  0  0  0
   64.9370   32.3640   49.5190 C   0  0  0  0  0  0  0  0  0  0  0  0
   65.3296   31.3378   49.5718 H   0  0  0  0  0  0  0  0  0  0  0  0
   65.6629   33.0433   49.0483 H   0  0  0  0  0  0  0  0  0  0  0  0
   64.6800   32.8500   50.8960 N   0  0  0  0  0  0  0  0  0  0  0  0
   65.7920   32.4720   51.7910 C   0  0  0  0  0  0  0  0  0  0  0  0
   66.6982   33.0203   51.4939 H   0  0  0  0  0  0  0  0  0  0  0  0
   65.5176   32.7252   52.8257 H   0  0  0  0  0  0  0  0  0  0  0  0
   66.0580   30.9920   51.7060 C   0  0  0  0  0  0  0  0  0  0  0  0
   65.2300   30.0740   52.3770 C   0  0  0  0  0  0  0  0  0  0  0  0
   64.3753   30.4366   52.9670 H   0  0  0  0  0  0  0  0  0  0  0  0
   65.4890   28.7030   52.2970 C   0  0  0  0  0  0  0  0  0  0  0  0
   64.8391   27.9895   52.8248 H   0  0  0  0  0  0  0  0  0  0  0  0
   66.5730   28.2370   51.5470 C   0  0  0  0  0  0  0  0  0  0  0  0
   66.7755   27.1576   51.4853 H   0  0  0  0  0  0  0  0  0  0  0  0
   67.3990   29.1420   50.8760 C   0  0  0  0  0  0  0  0  0  0  0  0
   68.2507   28.7739   50.2852 H   0  0  0  0  0  0  0  0  0  0  0  0
   67.1450   30.5160   50.9540 C   0  0  0  0  0  0  0  0  0  0  0  0
   67.7984   31.2254   50.4249 H   0  0  0  0  0  0  0  0  0  0  0  0
   63.3560   32.4600   51.4510 C   0  0  0  0  0  0  0  0  0  0  0  0
   63.4866   32.2005   52.5119 H   0  0  0  0  0  0  0  0  0  0  0  0
   62.6820   33.3177   51.3096 H   0  0  0  0  0  0  0  0  0  0  0  0
   62.7170   31.2630   50.7340 C   0  0  0  0  0  0  0  0  0  0  0  0
   63.3283   30.3655   50.9094 H   0  0  0  0  0  0  0  0  0  0  0  0
   61.7017   31.1083   51.1281 H   0  0  0  0  0  0  0  0  0  0  0  0
   61.5930   31.0730   47.0890 C   0  0  0  0  0  0  0  0  0  0  0  0
   62.3849   31.6602   46.6010 H   0  0  0  0  0  0  0  0  0  0  0  0
   60.5850   30.4900   46.3160 C   0  0  0  0  0  0  0  0  0  0  0  0
   60.5993   30.6051   45.2221 H   0  0  0  0  0  0  0  0  0  0  0  0
   57.6680   29.9050   43.9090 C   0  0  1  0  0  0  0  0  0  0  0  0
   57.9119   29.6682   42.8628 H   0  0  0  0  0  0  0  0  0  0  0  0
   56.2590   29.5960   44.1830 C   0  0  0  0  0  0  0  0  0  0  0  0
   55.1480   29.3550   44.3980 N   0  0  0  0  0  0  0  0  0  0  0  0
   57.9050   31.3700   44.1390 C   0  0  0  0  0  0  0  0  0  0  0  0
   58.0240   32.1380   43.1460 O   0  0  0  0  0  0  0  0  0  0  0  0
   57.9600   31.9040   45.4720 N   0  0  0  0  0  0  0  0  0  0  0  0
   57.8570   31.2600   46.2870 H   0  0  0  0  0  0  0  0  0  0  0  0
   58.1330   33.3300   45.7370 C   0  0  0  0  0  0  0  0  0  0  0  0
   58.6788   33.7911   44.9006 H   0  0  0  0  0  0  0  0  0  0  0  0
   57.1429   33.7973   45.8435 H   0  0  0  0  0  0  0  0  0  0  0  0
   58.9100   33.5330   47.0090 C   0  0  0  0  0  0  0  0  0  0  0  0
   58.4930   32.9030   48.1940 C   0  0  0  0  0  0  0  0  0  0  0  0
   57.6078   32.2501   48.1852 H   0  0  0  0  0  0  0  0  0  0  0  0
   59.1990   33.1030   49.3840 C   0  0  0  0  0  0  0  0  0  0  0  0
   58.8675   32.6086   50.3090 H   0  0  0  0  0  0  0  0  0  0  0  0
   60.3250   33.9300   49.4000 C   0  0  0  0  0  0  0  0  0  0  0  0
   60.8816   34.0826   50.3364 H   0  0  0  0  0  0  0  0  0  0  0  0
   60.7450   34.5640   48.2260 C   0  0  0  0  0  0  0  0  0  0  0  0
   61.6318   35.2147   48.2396 H   0  0  0  0  0  0  0  0  0  0  0  0
   60.0380   34.3710   47.0350 C   0  0  0  0  0  0  0  0  0  0  0  0
   60.3660   34.8770   46.1150 H   0  0  0  0  0  0  0  0  0  0  0  0
  1  2  1  0
  2  3  2  0
  3  4  1  0
  4  5  2  0
  5  6  1  0
  5  7  1  0
  7  8  1  0
  7  9  2  0
  9 10  1  0
 10 11  1  0
 11 12  1  0
 11 13  1  0
 11 14  1  0
 14 15  1  0
 14 16  1  0
 14 17  1  0
 17 18  1  0
 18 19  1  0
 18 20  1  0
 18 21  1  0
 21 22  2  0
 22 23  1  0
 22 24  1  0
 24 25  1  0
 24 26  2  0
 26 27  1  0
 26 28  1  0
 28 29  1  0
 28 30  2  0
 30 31  1  0
 17 32  1  0
 32 33  1  0
 32 34  1  0
 32 35  1  0
 35 36  1  0
 35 37  1  0
  9 38  1  0
 38 39  1  0
 38 40  2  0
 40 41  1  0
  2 42  1  0
 42 43  1  6
 42 44  1  0
 44 45  3  0
 42 46  1  0
 46 47  2  0
 46 48  1  0
 48 49  1  0
 48 50  1  0
 50 51  1  0
 50 52  1  0
 50 53  1  0
 53 54  2  0
 54 55  1  0
 54 56  1  0
 56 57  1  0
 56 58  2  0
 58 59  1  0
 58 60  1  0
 60 61  1  0
 60 62  2  0
 62 63  1  0
 40  4  1  0
 62 53  1  0
 35 10  1  0
 30 21  1  0
M  END
>  <UniqueID>  (45) 
40

>  <SMILES>  (45) 
N#C[C@H](/C=N\c1ccc(N2CCN(Cc3ccccc3)CC2)cc1)C(=O)NCc1ccccc1

>  <Energy>  (45) 
79.05209684135153

>  <Genealogy>  (45) 
N#C[C@H](C=Nc1ccc(N2CCN(Cc3ccccc3)CC2)cc1)C(=O)NCc1ccccc1 (chirality)
N#C[C@H](/C=N\c1ccc(N2CCN(Cc3ccccc3)CC2)cc1)C(=O)NCc1ccccc1 (cis-trans isomerization)
N#C[C@H](/C=N\c1ccc(N2CCN(Cc3ccccc3)CC2)cc1)C(=O)NCc1ccccc1 (3D coordinates assigned)
N#C[C@H](/C=N\c1ccc(N2CCN(Cc3ccccc3)CC2)cc1)C(=O)NCc1ccccc1 (nonaromatic ring conformer: 79.05209684135153 kcal/mol)

>  <smiles>  (45) 
N#CC(C=Nc1ccc(N2CCN(Cc3ccccc3)CC2)cc1)C(=O)NCc1ccccc1

>  <score_type>  (45) 
oracle

>  <origin>  (45) 
adg

>  <m_score__min__energy>  (45) 
-9.1300000000000008

>  <m_primary>  (45) 
energy

$$$$
45:0
     RDKit          3D

 55 58  0  0  0  0  0  0  0  0999 V2000
   55.1430   29.3660   44.8370 N   0  0  0  0  0  0  0  0  0  0  0  0
   56.4380   29.3380   44.2450 C   0  0  0  0  0  0  0  0  0  0  0  0
   56.5450   29.4070   42.9910 O   0  0  0  0  0  0  0  0  0  0  0  0
   57.6140   29.2720   45.0730 N   0  0  0  0  0  0  0  0  0  0  0  0
   58.6970   28.3390   44.7280 C   0  0  0  0  0  0  0  0  0  0  0  0
   59.1300   27.5680   45.9550 C   0  0  0  0  0  0  0  0  0  0  0  0
   60.3090   27.9650   46.6090 C   0  0  0  0  0  0  0  0  0  0  0  0
   60.6890   27.3460   47.7990 C   0  0  0  0  0  0  0  0  0  0  0  0
   59.9190   26.3630   48.3300 N   0  0  0  0  0  0  0  0  0  0  0  0
   58.7770   25.9440   47.7250 C   0  0  0  0  0  0  0  0  0  0  0  0
   58.3590   26.5200   46.5180 C   0  0  0  0  0  0  0  0  0  0  0  0
   57.1400   25.9860   45.8750 C   0  0  0  0  0  0  0  0  0  0  0  0
   56.0480   26.5880   46.0660 O   0  0  0  0  0  0  0  0  0  0  0  0
   57.1650   24.7670   45.0980 N   0  0  0  0  0  0  0  0  0  0  0  0
   55.9690   24.3700   44.3360 C   0  0  0  0  0  0  0  0  0  0  0  0
   56.3440   23.4230   43.1940 C   0  0  0  0  0  0  0  0  0  0  0  0
   57.0720   22.1660   43.7050 C   0  0  0  0  0  0  0  0  0  0  0  0
   57.8930   22.4070   44.9870 C   0  0  0  0  0  0  0  0  0  0  0  0
   58.3330   23.8680   45.1320 C   0  0  0  0  0  0  0  0  0  0  0  0
   57.7830   30.1860   46.2130 C   0  0  0  0  0  0  0  0  0  0  0  0
   58.1270   31.5810   45.7260 C   0  0  0  0  0  0  0  0  0  0  0  0
   57.8980   31.8640   44.3680 C   0  0  0  0  0  0  0  0  0  0  0  0
   58.2480   33.0930   43.8170 C   0  0  0  0  0  0  0  0  0  0  0  0
   58.8330   34.0750   44.6130 C   0  0  0  0  0  0  0  0  0  0  0  0
   59.0660   33.8370   45.9750 C   0  0  0  0  0  0  0  0  0  0  0  0
   59.6440   34.8430   46.7660 C   0  0  0  0  0  0  0  0  0  0  0  0
   59.8690   34.6270   48.1260 C   0  0  0  0  0  0  0  0  0  0  0  0
   59.5250   33.4080   48.7060 C   0  0  0  0  0  0  0  0  0  0  0  0
   58.9520   32.3950   47.9320 C   0  0  0  0  0  0  0  0  0  0  0  0
   58.7140   32.5840   46.5520 C   0  0  0  0  0  0  0  0  0  0  0  0
   54.6480   30.2700   45.0000 H   0  0  0  0  0  0  0  0  0  0  0  0
   58.3399   27.6341   43.9628 H   0  0  0  0  0  0  0  0  0  0  0  0
   59.5539   28.9097   44.3407 H   0  0  0  0  0  0  0  0  0  0  0  0
   60.9322   28.7644   46.1818 H   0  0  0  0  0  0  0  0  0  0  0  0
   61.6140   27.6548   48.3080 H   0  0  0  0  0  0  0  0  0  0  0  0
   58.1759   25.1465   48.1862 H   0  0  0  0  0  0  0  0  0  0  0  0
   55.2640   23.8613   45.0100 H   0  0  0  0  0  0  0  0  0  0  0  0
   55.5063   25.2722   43.9094 H   0  0  0  0  0  0  0  0  0  0  0  0
   55.4262   23.1147   42.6719 H   0  0  0  0  0  0  0  0  0  0  0  0
   57.0249   23.9592   42.5166 H   0  0  0  0  0  0  0  0  0  0  0  0
   56.3210   21.3898   43.9137 H   0  0  0  0  0  0  0  0  0  0  0  0
   57.7806   21.8622   42.9204 H   0  0  0  0  0  0  0  0  0  0  0  0
   57.2774   22.1353   45.8572 H   0  0  0  0  0  0  0  0  0  0  0  0
   58.8000   21.7876   44.9262 H   0  0  0  0  0  0  0  0  0  0  0  0
   58.8585   23.9940   46.0901 H   0  0  0  0  0  0  0  0  0  0  0  0
   59.0008   24.1221   44.2957 H   0  0  0  0  0  0  0  0  0  0  0  0
   56.8467   30.2239   46.7891 H   0  0  0  0  0  0  0  0  0  0  0  0
   58.6025   29.8174   46.8474 H   0  0  0  0  0  0  0  0  0  0  0  0
   57.4331   31.0991   43.7286 H   0  0  0  0  0  0  0  0  0  0  0  0
   58.0623   33.2894   42.7507 H   0  0  0  0  0  0  0  0  0  0  0  0
   59.1137   35.0423   44.1708 H   0  0  0  0  0  0  0  0  0  0  0  0
   59.9207   35.8057   46.3114 H   0  0  0  0  0  0  0  0  0  0  0  0
   60.3187   35.4204   48.7411 H   0  0  0  0  0  0  0  0  0  0  0  0
   59.7052   33.2419   49.7784 H   0  0  0  0  0  0  0  0  0  0  0  0
   58.6828   31.4382   48.4032 H   0  0  0  0  0  0  0  0  0  0  0  0
  1  2  1  0
  2  3  2  0
  2  4  1  0
  4  5  1  0
  5  6  1  0
  6  7  2  0
  7  8  1  0
  8  9  2  0
  9 10  1  0
 10 11  2  0
 11 12  1  0
 12 13  2  0
 12 14  1  0
 14 15  1  0
 15 16  1  0
 16 17  1  0
 17 18  1  0
 18 19  1  0
  4 20  1  0
 20 21  1  0
 21 22  2  0
 22 23  1  0
 23 24  2  0
 24 25  1  0
 25 26  2  0
 26 27  1  0
 27 28  2  0
 28 29  1  0
 29 30  2  0
 11  6  1  0
 19 14  1  0
 30 21  1  0
 30 25  1  0
  1 31  1  0
  5 32  1  0
  5 33  1  0
  7 34  1  0
  8 35  1  0
 10 36  1  0
 15 37  1  0
 15 38  1  0
 16 39  1  0
 16 40  1  0
 17 41  1  0
 17 42  1  0
 18 43  1  0
 18 44  1  0
 19 45  1  0
 19 46  1  0
 20 47  1  0
 20 48  1  0
 22 49  1  0
 23 50  1  0
 24 51  1  0
 26 52  1  0
 27 53  1  0
 28 54  1  0
 29 55  1  0
M  CHG  1   1  -1
M  END
>  <UniqueID>  (46) 
41

>  <SMILES>  (46) 
[NH-]C(=O)N(Cc1ccncc1C(=O)N1CCCCC1)Cc1cccc2ccccc12

>  <Energy>  (46) 
72.60328397067362

>  <Genealogy>  (46) 
[NH-]C(=O)N(Cc1ccncc1C(=O)N1CCCCC1)Cc1cccc2ccccc12 (protonated)
[NH-]C(=O)N(Cc1ccncc1C(=O)N1CCCCC1)Cc1cccc2ccccc12 (3D coordinates assigned)
[NH-]C(=O)N(Cc1ccncc1C(=O)N1CCCCC1)Cc1cccc2ccccc12 (nonaromatic ring conformer: 72.60328397067362 kcal/mol)

>  <smiles>  (46) 
NC(=O)N(Cc1ccncc1C(=O)N1CCCCC1)Cc1cccc2ccccc12

>  <score_type>  (46) 
oracle

>  <origin>  (46) 
adg

>  <m_score__min__energy>  (46) 
-11.91

>  <m_primary>  (46) 
energy

$$$$
46:0
     RDKit          3D

 42 44  0  0  0  0  0  0  0  0999 V2000
   56.7160   19.1460   44.3260 H   0  0  0  0  0  0  0  0  0  0  0  0
   56.6120   19.7910   45.1020 O   0  0  0  0  0  0  0  0  0  0  0  0
   56.7900   21.1630   44.9370 C   0  0  0  0  0  0  0  0  0  0  0  0
   57.3270   21.9410   45.9720 C   0  0  0  0  0  0  0  0  0  0  0  0
   57.6117   21.4666   46.9227 H   0  0  0  0  0  0  0  0  0  0  0  0
   57.5020   23.3160   45.8010 C   0  0  0  0  0  0  0  0  0  0  0  0
   57.9318   23.9193   46.6142 H   0  0  0  0  0  0  0  0  0  0  0  0
   57.1310   23.9310   44.5940 C   0  0  0  0  0  0  0  0  0  0  0  0
   57.3500   25.4070   44.3970 C   0  0  0  0  0  0  0  0  0  0  0  0
   56.6696   25.7716   43.6133 H   0  0  0  0  0  0  0  0  0  0  0  0
   58.3965   25.5729   44.1014 H   0  0  0  0  0  0  0  0  0  0  0  0
   57.0780   26.1720   45.6940 C   0  0  0  0  0  0  0  0  0  0  0  0
   57.5266   25.6276   46.5380 H   0  0  0  0  0  0  0  0  0  0  0  0
   55.9910   26.2587   45.8387 H   0  0  0  0  0  0  0  0  0  0  0  0
   57.6600   27.5160   45.6200 N   0  0  0  0  0  0  0  0  0  0  0  0
   56.9150   28.6470   45.4420 C   0  0  0  0  0  0  0  0  0  0  0  0
   55.5410   28.6060   45.2290 O   0  0  0  0  0  0  0  0  0  0  0  0
   57.6370   29.8390   45.4740 C   0  0  0  0  0  0  0  0  0  0  0  0
   57.1200   31.1950   45.2080 C   0  0  0  0  0  0  0  0  0  0  0  0
   56.0687   31.2760   44.8946 H   0  0  0  0  0  0  0  0  0  0  0  0
   57.8260   32.3580   45.3150 C   0  0  0  0  0  0  0  0  0  0  0  0
   58.2740   33.0690   44.1590 C   0  0  0  0  0  0  0  0  0  0  0  0
   57.9940   32.7180   42.8920 C   0  0  0  0  0  0  0  0  0  0  0  0
   57.4072   31.8098   42.6898 H   0  0  0  0  0  0  0  0  0  0  0  0
   58.3517   33.3389   42.0574 H   0  0  0  0  0  0  0  0  0  0  0  0
   59.0020   34.2020   44.3200 N   0  0  0  0  0  0  0  0  0  0  0  0
   59.3090   34.7100   45.5330 C   0  0  0  0  0  0  0  0  0  0  0  0
   59.9960   35.7670   45.5940 O   0  0  0  0  0  0  0  0  0  0  0  0
   58.8860   34.0840   46.6690 N   0  0  0  0  0  0  0  0  0  0  0  0
   59.2530   34.6290   47.9890 C   0  0  0  0  0  0  0  0  0  0  0  0
   58.8257   33.9944   48.7794 H   0  0  0  0  0  0  0  0  0  0  0  0
   60.3485   34.6479   48.0862 H   0  0  0  0  0  0  0  0  0  0  0  0
   58.8586   35.6512   48.0862 H   0  0  0  0  0  0  0  0  0  0  0  0
   58.2050   32.8950   46.5830 C   0  0  0  0  0  0  0  0  0  0  0  0
   57.9670   32.2540   47.6440 O   0  0  0  0  0  0  0  0  0  0  0  0
   59.2630   29.4620   45.6770 S   0  0  0  0  0  0  0  0  0  0  0  0
   58.9790   27.8080   45.7760 C   0  0  0  0  0  0  0  0  0  0  0  0
   60.1650   26.7050   46.0370 S   0  0  0  0  0  0  0  0  0  0  0  0
   56.6050   23.1480   43.5550 C   0  0  0  0  0  0  0  0  0  0  0  0
   56.3282   23.6196   42.6006 H   0  0  0  0  0  0  0  0  0  0  0  0
   56.4310   21.7710   43.7270 C   0  0  0  0  0  0  0  0  0  0  0  0
   55.9020   21.0070   42.6930 O   0  0  0  0  0  0  0  0  0  0  0  0
  1  2  1  0
  2  3  1  0
  3  4  2  0
  4  5  1  0
  4  6  1  0
  6  7  1  0
  6  8  2  0
  8  9  1  0
  9 10  1  0
  9 11  1  0
  9 12  1  0
 12 13  1  0
 12 14  1  0
 12 15  1  0
 15 16  1  0
 16 17  1  0
 16 18  2  0
 18 19  1  0
 19 20  1  0
 19 21  2  0
 21 22  1  0
 22 23  2  0
 23 24  1  0
 23 25  1  0
 22 26  1  0
 26 27  1  0
 27 28  2  0
 27 29  1  0
 29 30  1  0
 30 31  1  0
 30 32  1  0
 30 33  1  0
 29 34  1  0
 34 35  2  0
 18 36  1  0
 36 37  1  0
 37 38  2  0
  8 39  1  0
 39 40  1  0
 39 41  2  0
 41 42  1  0
 41  3  1  0
 37 15  1  0
 34 21  1  0
M  CHG  3  17  -1  26  -1  42  -1
M  END
>  <UniqueID>  (47) 
42

>  <SMILES>  (47) 
C=c1[n-]c(=O)n(C)c(=O)/c1=C\c1sc(=S)n(CCc2ccc(O)c([O-])c2)c1[O-]

>  <Energy>  (47) 
97.4323252309422

>  <Genealogy>  (47) 
C=c1[n-]c(=O)n(C)c(=O)c1=Cc1sc(=S)n(CCc2ccc(O)c([O-])c2)c1[O-] (protonated)
C=c1[n-]c(=O)n(C)c(=O)/c1=C\c1sc(=S)n(CCc2ccc(O)c([O-])c2)c1[O-] (cis-trans isomerization)
C=c1[n-]c(=O)n(C)c(=O)/c1=C\c1sc(=S)n(CCc2ccc(O)c([O-])c2)c1[O-] (3D coordinates assigned)
C=c1[n-]c(=O)n(C)c(=O)/c1=C\c1sc(=S)n(CCc2ccc(O)c([O-])c2)c1[O-] (optimized conformer: 97.4323252309422 kcal/mol)

>  <smiles>  (47) 
C=c1[nH]c(=O)n(C)c(=O)c1=Cc1sc(=S)n(CCc2ccc(O)c(O)c2)c1O

>  <score_type>  (47) 
oracle

>  <origin>  (47) 
adg

>  <m_score__min__energy>  (47) 
-14.289999999999999

>  <m_primary>  (47) 
energy

$$$$
47:0
     RDKit          3D

 61 63  0  0  0  0  0  0  0  0999 V2000
   52.9320   24.1010   45.1890 C   0  0  0  0  0  0  0  0  0  0  0  0
   54.3520   24.1950   45.1550 O   0  0  0  0  0  0  0  0  0  0  0  0
   55.2000   23.2480   44.5580 C   0  0  0  0  0  0  0  0  0  0  0  0
   55.6140   23.3650   43.2150 C   0  0  0  0  0  0  0  0  0  0  0  0
   56.4630   22.4110   42.6510 C   0  0  0  0  0  0  0  0  0  0  0  0
   56.9080   21.3310   43.4130 C   0  0  0  0  0  0  0  0  0  0  0  0
   56.5070   21.2010   44.7440 C   0  0  0  0  0  0  0  0  0  0  0  0
   55.6490   22.1510   45.3250 C   0  0  0  0  0  0  0  0  0  0  0  0
   55.2560   22.0090   46.7770 C   0  0  0  0  0  0  0  0  0  0  0  0
   55.9680   23.0400   47.6630 C   0  0  0  0  0  0  0  0  0  0  0  0
   57.4180   23.0140   47.4680 N   0  0  0  0  0  0  0  0  0  0  0  0
   58.1360   23.6080   46.3780 C   0  0  0  0  0  0  0  0  0  0  0  0
   58.8690   22.8730   45.6650 O   0  0  0  0  0  0  0  0  0  0  0  0
   58.0820   25.0500   46.0860 C   0  0  0  0  0  0  0  0  0  0  0  0
   59.2490   25.7990   45.9020 C   0  0  0  0  0  0  0  0  0  0  0  0
   59.1540   27.1650   45.6380 C   0  0  0  0  0  0  0  0  0  0  0  0
   57.8970   27.7890   45.5750 C   0  0  0  0  0  0  0  0  0  0  0  0
   57.7810   29.2430   45.2920 C   0  0  0  0  0  0  0  0  0  0  0  0
   58.3660   30.1900   46.1520 C   0  0  0  0  0  0  0  0  0  0  0  0
   58.2500   31.5570   45.8860 C   0  0  0  0  0  0  0  0  0  0  0  0
   57.5490   32.0030   44.7560 C   0  0  0  0  0  0  0  0  0  0  0  0
   57.3940   33.4790   44.5030 C   0  0  0  0  0  0  0  0  0  0  0  0
   57.9490   34.2460   45.6240 N   0  0  0  0  0  0  0  0  0  0  0  0
   59.3320   34.6760   45.3580 C   0  0  0  0  0  0  0  0  0  0  0  0
   60.1760   34.6490   46.6460 C   0  0  0  0  0  0  0  0  0  0  0  0
   61.1790   33.4880   46.6470 C   0  0  0  0  0  0  0  0  0  0  0  0
   59.2840   34.5990   47.8940 C   0  0  0  0  0  0  0  0  0  0  0  0
   56.9640   31.0630   43.8950 C   0  0  0  0  0  0  0  0  0  0  0  0
   57.0810   29.6960   44.1590 C   0  0  0  0  0  0  0  0  0  0  0  0
   56.7530   27.0030   45.7930 C   0  0  0  0  0  0  0  0  0  0  0  0
   56.8730   25.6720   46.0440 N   0  0  0  0  0  0  0  0  0  0  0  0
   52.5910   24.0784   46.2346 H   0  0  0  0  0  0  0  0  0  0  0  0
   52.4946   24.9722   44.6794 H   0  0  0  0  0  0  0  0  0  0  0  0
   52.6132   23.1798   44.6794 H   0  0  0  0  0  0  0  0  0  0  0  0
   55.2657   24.2135   42.6078 H   0  0  0  0  0  0  0  0  0  0  0  0
   56.7818   22.5114   41.6030 H   0  0  0  0  0  0  0  0  0  0  0  0
   57.5758   20.5806   42.9647 H   0  0  0  0  0  0  0  0  0  0  0  0
   56.8647   20.3498   45.3419 H   0  0  0  0  0  0  0  0  0  0  0  0
   54.1691   22.1518   46.8674 H   0  0  0  0  0  0  0  0  0  0  0  0
   55.5520   21.0049   47.1149 H   0  0  0  0  0  0  0  0  0  0  0  0
   55.5930   24.0436   47.4135 H   0  0  0  0  0  0  0  0  0  0  0  0
   55.7595   22.7904   48.7138 H   0  0  0  0  0  0  0  0  0  0  0  0
   60.2343   25.3141   45.9651 H   0  0  0  0  0  0  0  0  0  0  0  0
   60.0675   27.7566   45.4784 H   0  0  0  0  0  0  0  0  0  0  0  0
   58.9190   29.8519   47.0407 H   0  0  0  0  0  0  0  0  0  0  0  0
   58.7112   32.2876   46.5669 H   0  0  0  0  0  0  0  0  0  0  0  0
   57.9278   33.7474   43.5794 H   0  0  0  0  0  0  0  0  0  0  0  0
   56.3246   33.7154   44.4007 H   0  0  0  0  0  0  0  0  0  0  0  0
   57.9640   33.6180   46.4630 H   0  0  0  0  0  0  0  0  0  0  0  0
   59.7832   33.9986   44.6180 H   0  0  0  0  0  0  0  0  0  0  0  0
   59.3108   35.7068   44.9745 H   0  0  0  0  0  0  0  0  0  0  0  0
   60.7528   35.5853   46.6733 H   0  0  0  0  0  0  0  0  0  0  0  0
   61.4183   33.2110   47.6843 H   0  0  0  0  0  0  0  0  0  0  0  0
   60.7393   32.6231   46.1287 H   0  0  0  0  0  0  0  0  0  0  0  0
   62.0986   33.7974   46.1287 H   0  0  0  0  0  0  0  0  0  0  0  0
   59.9129   34.6342   48.7958 H   0  0  0  0  0  0  0  0  0  0  0  0
   58.5997   35.4602   47.8903 H   0  0  0  0  0  0  0  0  0  0  0  0
   58.7002   33.6667   47.8903 H   0  0  0  0  0  0  0  0  0  0  0  0
   56.4104   31.4037   43.0076 H   0  0  0  0  0  0  0  0  0  0  0  0
   56.6216   28.9674   43.4748 H   0  0  0  0  0  0  0  0  0  0  0  0
   55.7559   27.4664   45.7605 H   0  0  0  0  0  0  0  0  0  0  0  0
  1  2  1  0
  2  3  1  0
  3  4  2  0
  4  5  1  0
  5  6  2  0
  6  7  1  0
  7  8  2  0
  8  9  1  0
  9 10  1  0
 10 11  1  0
 11 12  1  0
 12 13  2  0
 12 14  1  0
 14 15  2  0
 15 16  1  0
 16 17  2  0
 17 18  1  0
 18 19  2  0
 19 20  1  0
 20 21  2  0
 21 22  1  0
 22 23  1  0
 23 24  1  0
 24 25  1  0
 25 26  1  0
 25 27  1  0
 21 28  1  0
 28 29  2  0
 17 30  1  0
 30 31  2  0
  8  3  1  0
 31 14  1  0
 29 18  1  0
  1 32  1  0
  1 33  1  0
  1 34  1  0
  4 35  1  0
  5 36  1  0
  6 37  1  0
  7 38  1  0
  9 39  1  0
  9 40  1  0
 10 41  1  0
 10 42  1  0
 15 43  1  0
 16 44  1  0
 19 45  1  0
 20 46  1  0
 22 47  1  0
 22 48  1  0
 23 49  1  0
 24 50  1  0
 24 51  1  0
 25 52  1  0
 26 53  1  0
 26 54  1  0
 26 55  1  0
 27 56  1  0
 27 57  1  0
 27 58  1  0
 28 59  1  0
 29 60  1  0
 30 61  1  0
M  CHG  1  11  -1
M  END
>  <UniqueID>  (48) 
43

>  <SMILES>  (48) 
COc1ccccc1CC[N-]C(=O)c1ccc(-c2ccc(CNCC(C)C)cc2)cn1

>  <Energy>  (48) 
62.65876555432557

>  <Genealogy>  (48) 
COc1ccccc1CC[N-]C(=O)c1ccc(-c2ccc(CNCC(C)C)cc2)cn1 (protonated)
COc1ccccc1CC[N-]C(=O)c1ccc(-c2ccc(CNCC(C)C)cc2)cn1 (3D coordinates assigned)
COc1ccccc1CC[N-]C(=O)c1ccc(-c2ccc(CNCC(C)C)cc2)cn1 (optimized conformer: 62.65876555432557 kcal/mol)

>  <smiles>  (48) 
COc1ccccc1CCNC(=O)c1ccc(-c2ccc(CNCC(C)C)cc2)cn1

>  <score_type>  (48) 
oracle

>  <origin>  (48) 
adg

>  <m_score__min__energy>  (48) 
-9.7100000000000009

>  <m_primary>  (48) 
energy

$$$$
48:0
     RDKit          3D

 50 53  0  0  0  0  0  0  0  0999 V2000
   56.6220   29.6080   42.7120 C   0  0  0  0  0  0  0  0  0  0  0  0
   57.2240   30.8410   43.3490 C   0  0  0  0  0  0  0  0  0  0  0  0
   57.5460   30.8790   44.7320 C   0  0  0  0  0  0  0  0  0  0  0  0
   57.2950   29.6890   45.6380 C   0  0  0  0  0  0  0  0  0  0  0  0
   58.1170   32.0640   45.2630 C   0  0  0  0  0  0  0  0  0  0  0  0
   58.4810   32.1960   46.6220 C   0  0  0  0  0  0  0  0  0  0  0  0
   59.0320   33.3930   47.1010 C   0  0  0  0  0  0  0  0  0  0  0  0
   59.4650   33.5550   48.8050 S   0  0  0  0  0  0  0  0  0  0  0  0
   58.5400   32.7050   49.6320 O   0  0  0  0  0  0  0  0  0  0  0  0
   59.2880   34.9850   49.2330 O   0  0  0  0  0  0  0  0  0  0  0  0
   61.1150   33.0600   49.0960 N   0  0  0  0  0  0  0  0  0  0  0  0
   61.3750   31.7530   48.4750 C   0  0  0  0  0  0  0  0  0  0  0  0
   62.7100   31.2130   48.9980 C   0  0  0  0  0  0  0  0  0  0  0  0
   63.6840   32.3010   49.1630 N   0  0  0  0  0  0  0  0  0  0  0  0
   64.8550   32.1030   49.9780 C   0  0  0  0  0  0  0  0  0  0  0  0
   64.9210   31.0260   50.8790 C   0  0  0  0  0  0  0  0  0  0  0  0
   66.0610   30.8270   51.6620 C   0  0  0  0  0  0  0  0  0  0  0  0
   67.1500   31.6960   51.5500 C   0  0  0  0  0  0  0  0  0  0  0  0
   67.0990   32.7670   50.6530 C   0  0  0  0  0  0  0  0  0  0  0  0
   68.4660   33.8570   50.5120 Cl  0  0  0  0  0  0  0  0  0  0  0  0
   65.9580   32.9690   49.8660 C   0  0  0  0  0  0  0  0  0  0  0  0
   63.4880   33.5490   48.4150 C   0  0  0  0  0  0  0  0  0  0  0  0
   62.0550   34.0910   48.6090 C   0  0  0  0  0  0  0  0  0  0  0  0
   59.2320   34.4650   46.2240 C   0  0  0  0  0  0  0  0  0  0  0  0
   58.8830   34.3470   44.8800 C   0  0  0  0  0  0  0  0  0  0  0  0
   58.3290   33.1590   44.3950 C   0  0  0  0  0  0  0  0  0  0  0  0
   58.0050   33.0750   43.1130 O   0  0  0  0  0  0  0  0  0  0  0  0
   57.4750   31.9880   42.5690 C   0  0  0  0  0  0  0  0  0  0  0  0
   57.2020   32.0040   41.3390 O   0  0  0  0  0  0  0  0  0  0  0  0
   56.2845   28.9167   43.4983 H   0  0  0  0  0  0  0  0  0  0  0  0
   55.7648   29.8994   42.0873 H   0  0  0  0  0  0  0  0  0  0  0  0
   57.3790   29.1113   42.0873 H   0  0  0  0  0  0  0  0  0  0  0  0
   57.3622   30.0075   46.6887 H   0  0  0  0  0  0  0  0  0  0  0  0
   56.2916   29.2835   45.4412 H   0  0  0  0  0  0  0  0  0  0  0  0
   58.0492   28.9128   45.4412 H   0  0  0  0  0  0  0  0  0  0  0  0
   58.3306   31.3516   47.3107 H   0  0  0  0  0  0  0  0  0  0  0  0
   60.5666   31.0535   48.7341 H   0  0  0  0  0  0  0  0  0  0  0  0
   61.4193   31.8618   47.3813 H   0  0  0  0  0  0  0  0  0  0  0  0
   62.5458   30.7254   49.9702 H   0  0  0  0  0  0  0  0  0  0  0  0
   63.1079   30.4908   48.2699 H   0  0  0  0  0  0  0  0  0  0  0  0
   64.0695   30.3353   50.9682 H   0  0  0  0  0  0  0  0  0  0  0  0
   66.1015   29.9846   52.3681 H   0  0  0  0  0  0  0  0  0  0  0  0
   68.0466   31.5373   52.1673 H   0  0  0  0  0  0  0  0  0  0  0  0
   65.9242   33.8091   49.1567 H   0  0  0  0  0  0  0  0  0  0  0  0
   64.2081   34.2997   48.7727 H   0  0  0  0  0  0  0  0  0  0  0  0
   63.6437   33.3448   47.3454 H   0  0  0  0  0  0  0  0  0  0  0  0
   62.0857   34.9124   49.3400 H   0  0  0  0  0  0  0  0  0  0  0  0
   61.6938   34.4322   47.6276 H   0  0  0  0  0  0  0  0  0  0  0  0
   59.6663   35.4043   46.5969 H   0  0  0  0  0  0  0  0  0  0  0  0
   59.0445   35.1939   44.1968 H   0  0  0  0  0  0  0  0  0  0  0  0
  1  2  1  0
  2  3  2  0
  3  4  1  0
  3  5  1  0
  5  6  2  0
  6  7  1  0
  7  8  1  0
  8  9  2  0
  8 10  2  0
  8 11  1  0
 11 12  1  0
 12 13  1  0
 13 14  1  0
 14 15  1  0
 15 16  2  0
 16 17  1  0
 17 18  2  0
 18 19  1  0
 19 20  1  0
 19 21  2  0
 14 22  1  0
 22 23  1  0
  7 24  2  0
 24 25  1  0
 25 26  2  0
 26 27  1  0
 27 28  1  0
 28 29  2  0
 28  2  1  0
 26  5  1  0
 23 11  1  0
 21 15  1  0
  1 30  1  0
  1 31  1  0
  1 32  1  0
  4 33  1  0
  4 34  1  0
  4 35  1  0
  6 36  1  0
 12 37  1  0
 12 38  1  0
 13 39  1  0
 13 40  1  0
 16 41  1  0
 17 42  1  0
 18 43  1  0
 21 44  1  0
 22 45  1  0
 22 46  1  0
 23 47  1  0
 23 48  1  0
 24 49  1  0
 25 50  1  0
M  END
>  <UniqueID>  (49) 
44

>  <SMILES>  (49) 
Cc1c(C)c2cc(S(=O)(=O)N3CCN(c4cccc(Cl)c4)CC3)ccc2oc1=O

>  <Energy>  (49) 
70.15238398051466

>  <Genealogy>  (49) 
Cc1c(C)c2cc(S(=O)(=O)N3CCN(c4cccc(Cl)c4)CC3)ccc2oc1=O (3D coordinates assigned)
Cc1c(C)c2cc(S(=O)(=O)N3CCN(c4cccc(Cl)c4)CC3)ccc2oc1=O (nonaromatic ring conformer: 70.15238398051466 kcal/mol)

>  <smiles>  (49) 
Cc1c(C)c2cc(S(=O)(=O)N3CCN(c4cccc(Cl)c4)CC3)ccc2oc1=O

>  <score_type>  (49) 
oracle

>  <origin>  (49) 
adg

>  <m_score__min__energy>  (49) 
-9.2200000000000006

>  <m_primary>  (49) 
energy

$$$$
49:0
     RDKit          3D

 52 55  0  0  0  0  0  0  0  0999 V2000
   58.8539   32.9980   49.5703 H   0  0  0  0  0  0  0  0  0  0  0  0
   59.6090   32.5990   48.8770 C   0  0  0  0  0  0  0  0  0  0  0  0
   60.5570   33.4550   48.3120 C   0  0  0  0  0  0  0  0  0  0  0  0
   60.5600   34.5222   48.5785 H   0  0  0  0  0  0  0  0  0  0  0  0
   61.5050   32.9580   47.4060 C   0  0  0  0  0  0  0  0  0  0  0  0
   62.5410   33.8710   46.8200 C   0  0  0  0  0  0  0  0  0  0  0  0
   63.0982   34.3620   47.6315 H   0  0  0  0  0  0  0  0  0  0  0  0
   63.2361   33.2864   46.1994 H   0  0  0  0  0  0  0  0  0  0  0  0
   62.0484   34.6341   46.1994 H   0  0  0  0  0  0  0  0  0  0  0  0
   61.5230   31.5870   47.1070 C   0  0  0  0  0  0  0  0  0  0  0  0
   62.2697   31.1923   46.4023 H   0  0  0  0  0  0  0  0  0  0  0  0
   60.5940   30.7130   47.7010 C   0  0  0  0  0  0  0  0  0  0  0  0
   60.6050   29.2430   47.3670 C   0  0  0  0  0  0  0  0  0  0  0  0
   61.3993   29.0549   46.6296 H   0  0  0  0  0  0  0  0  0  0  0  0
   60.7805   28.6898   48.3014 H   0  0  0  0  0  0  0  0  0  0  0  0
   59.2930   28.7700   46.7950 C   0  0  0  0  0  0  0  0  0  0  0  0
   58.8120   27.5520   47.1720 N   0  0  0  0  0  0  0  0  0  0  0  0
   57.6230   27.2700   46.6020 C   0  0  0  0  0  0  0  0  0  0  0  0
   56.9520   26.1750   46.8020 N   0  0  0  0  0  0  0  0  0  0  0  0
   55.8550   25.6940   46.0050 C   0  0  0  0  0  0  0  0  0  0  0  0
   54.7630   26.3260   45.9720 O   0  0  0  0  0  0  0  0  0  0  0  0
   56.0070   24.4460   45.2180 C   0  0  0  0  0  0  0  0  0  0  0  0
   56.5020   24.4850   43.9010 C   0  0  0  0  0  0  0  0  0  0  0  0
   56.7797   25.4490   43.4498 H   0  0  0  0  0  0  0  0  0  0  0  0
   56.6430   23.3050   43.1620 C   0  0  0  0  0  0  0  0  0  0  0  0
   57.0303   23.3447   42.1332 H   0  0  0  0  0  0  0  0  0  0  0  0
   56.2930   22.0770   43.7280 C   0  0  0  0  0  0  0  0  0  0  0  0
   56.4320   20.9360   43.0090 F   0  0  0  0  0  0  0  0  0  0  0  0
   55.8010   22.0250   45.0340 C   0  0  0  0  0  0  0  0  0  0  0  0
   55.5262   21.0573   45.4790 H   0  0  0  0  0  0  0  0  0  0  0  0
   55.6570   23.2010   45.7770 C   0  0  0  0  0  0  0  0  0  0  0  0
   55.2679   23.1536   46.8048 H   0  0  0  0  0  0  0  0  0  0  0  0
   57.1000   28.5070   45.6100 S   0  0  0  0  0  0  0  0  0  0  0  0
   58.4580   29.4710   45.8910 C   0  0  0  0  0  0  0  0  0  0  0  0
   58.5680   30.8650   45.3030 C   0  0  0  0  0  0  0  0  0  0  0  0
   59.6296   31.1272   45.4220 H   0  0  0  0  0  0  0  0  0  0  0  0
   58.2300   30.8900   43.7980 C   0  0  0  0  0  0  0  0  0  0  0  0
   59.1209   30.5859   43.2289 H   0  0  0  0  0  0  0  0  0  0  0  0
   57.3926   30.1977   43.6264 H   0  0  0  0  0  0  0  0  0  0  0  0
   57.7930   32.2920   43.3270 C   0  0  0  0  0  0  0  0  0  0  0  0
   58.0260   32.3985   42.2573 H   0  0  0  0  0  0  0  0  0  0  0  0
   56.7122   32.3944   43.5043 H   0  0  0  0  0  0  0  0  0  0  0  0
   58.4860   33.3520   44.0750 N   0  0  0  0  0  0  0  0  0  0  0  0
   59.5190   33.2140   43.9680 H   0  0  0  0  0  0  0  0  0  0  0  0
   58.1440   33.3490   45.5140 C   0  0  0  0  0  0  0  0  0  0  0  0
   59.0039   33.7427   46.0758 H   0  0  0  0  0  0  0  0  0  0  0  0
   57.2445   33.9712   45.6311 H   0  0  0  0  0  0  0  0  0  0  0  0
   57.7990   31.9500   46.0690 C   0  0  0  0  0  0  0  0  0  0  0  0
   58.0727   31.9049   47.1335 H   0  0  0  0  0  0  0  0  0  0  0  0
   56.7198   31.7747   45.9480 H   0  0  0  0  0  0  0  0  0  0  0  0
   59.6170   31.2370   48.5640 C   0  0  0  0  0  0  0  0  0  0  0  0
   58.8545   30.5719   48.9955 H   0  0  0  0  0  0  0  0  0  0  0  0
  1  2  1  0
  2  3  2  0
  3  4  1  0
  3  5  1  0
  5  6  1  0
  6  7  1  0
  6  8  1  0
  6  9  1  0
  5 10  2  0
 10 11  1  0
 10 12  1  0
 12 13  1  0
 13 14  1  0
 13 15  1  0
 13 16  1  0
 16 17  1  0
 17 18  1  0
 18 19  2  0
 19 20  1  0
 20 21  2  0
 20 22  1  0
 22 23  2  0
 23 24  1  0
 23 25  1  0
 25 26  1  0
 25 27  2  0
 27 28  1  0
 27 29  1  0
 29 30  1  0
 29 31  2  0
 31 32  1  0
 18 33  1  0
 33 34  1  0
 34 35  1  0
 35 36  1  0
 35 37  1  0
 37 38  1  0
 37 39  1  0
 37 40  1  0
 40 41  1  0
 40 42  1  0
 40 43  1  0
 43 44  1  0
 43 45  1  0
 45 46  1  0
 45 47  1  0
 45 48  1  0
 48 49  1  0
 48 50  1  0
 12 51  2  0
 51 52  1  0
 51  2  1  0
 34 16  2  0
 48 35  1  0
 31 22  1  0
M  CHG  1  17  -1
M  END
>  <UniqueID>  (50) 
45

>  <SMILES>  (50) 
Cc1cccc(Cc2[n-]/c(=N\C(=O)c3ccc(F)cc3)sc2C2CCNCC2)c1

>  <Energy>  (50) 
93.19631993218663

>  <Genealogy>  (50) 
Cc1cccc(Cc2[n-]c(=NC(=O)c3ccc(F)cc3)sc2C2CCNCC2)c1 (protonated)
Cc1cccc(Cc2[n-]/c(=N\C(=O)c3ccc(F)cc3)sc2C2CCNCC2)c1 (cis-trans isomerization)
Cc1cccc(Cc2[n-]/c(=N\C(=O)c3ccc(F)cc3)sc2C2CCNCC2)c1 (3D coordinates assigned)
Cc1cccc(Cc2[n-]/c(=N\C(=O)c3ccc(F)cc3)sc2C2CCNCC2)c1 (nonaromatic ring conformer: 93.19631993218663 kcal/mol)

>  <smiles>  (50) 
Cc1cccc(Cc2[nH]c(=NC(=O)c3ccc(F)cc3)sc2C2CCNCC2)c1

>  <score_type>  (50) 
oracle

>  <origin>  (50) 
adg

>  <m_score__min__energy>  (50) 
-10.140000000000001

>  <m_primary>  (50) 
energy

$$$$
50:0
     RDKit          3D

 73 77  0  0  0  0  0  0  0  0999 V2000
   57.2670   21.0960   42.8260 C   0  0  0  0  0  0  0  0  0  0  0  0
   56.2760   20.5540   43.6920 O   0  0  0  0  0  0  0  0  0  0  0  0
   56.0950   20.9960   45.0080 C   0  0  0  0  0  0  0  0  0  0  0  0
   56.4230   20.2630   45.9800 O   0  0  0  0  0  0  0  0  0  0  0  0
   55.5010   22.3140   45.2490 C   0  0  0  0  0  0  0  0  0  0  0  0
   56.1650   23.4370   45.7130 C   0  0  0  0  0  0  0  0  0  0  0  0
   55.1690   24.3820   45.8300 C   0  0  0  0  0  0  0  0  0  0  0  0
   55.3790   25.5920   46.2710 N   0  0  0  0  0  0  0  0  0  0  0  0
   56.5680   26.3670   46.1230 C   0  0  0  0  0  0  0  0  0  0  0  0
   57.0180   27.0070   47.1130 O   0  0  0  0  0  0  0  0  0  0  0  0
   57.1710   26.4990   44.8280 N   0  0  0  0  0  0  0  0  0  0  0  0
   58.4170   27.2350   44.5860 C   0  0  2  0  0  0  0  0  0  0  0  0
   59.4200   26.9480   45.7050 C   0  0  0  0  0  0  0  0  0  0  0  0
   58.1290   28.7160   44.4790 C   0  0  0  0  0  0  0  0  0  0  0  0
   58.7140   29.6200   45.3790 C   0  0  0  0  0  0  0  0  0  0  0  0
   58.5070   30.9960   45.2390 C   0  0  0  0  0  0  0  0  0  0  0  0
   57.7210   31.4920   44.1850 C   0  0  0  0  0  0  0  0  0  0  0  0
   57.5560   32.8650   43.9630 O   0  0  0  0  0  0  0  0  0  0  0  0
   57.7730   33.8730   44.9540 C   0  0  1  0  0  0  0  0  0  0  0  0
   57.0480   33.4860   46.2500 C   0  0  0  0  0  0  0  0  0  0  0  0
   58.0990   33.4190   47.3550 C   0  0  0  0  0  0  0  0  0  0  0  0
   59.3730   33.6450   46.7040 N   0  0  0  0  0  0  0  0  0  0  0  0
   60.6010   33.1820   47.2740 C   0  0  0  0  0  0  0  0  0  0  0  0
   60.6000   32.0590   48.1130 C   0  0  0  0  0  0  0  0  0  0  0  0
   61.7920   31.6040   48.6830 C   0  0  0  0  0  0  0  0  0  0  0  0
   62.9990   32.2940   48.4450 C   0  0  0  0  0  0  0  0  0  0  0  0
   64.2290   31.9090   49.0090 O   0  0  0  0  0  0  0  0  0  0  0  0
   65.2620   32.7830   49.4770 C   0  0  0  0  0  0  0  0  0  0  0  0
   64.9330   33.4680   50.8170 C   0  0  0  0  0  0  0  0  0  0  0  0
   63.9210   32.7540   51.7010 C   0  0  0  0  0  0  0  0  0  0  0  0
   63.5460   34.0600   51.0210 C   0  0  0  0  0  0  0  0  0  0  0  0
   62.9920   33.4000   47.5830 C   0  0  0  0  0  0  0  0  0  0  0  0
   61.8050   33.8330   46.9840 C   0  0  0  0  0  0  0  0  0  0  0  0
   59.2620   33.9580   45.2930 C   0  0  0  0  0  0  0  0  0  0  0  0
   57.1300   30.5940   43.2930 C   0  0  0  0  0  0  0  0  0  0  0  0
   57.3200   29.2190   43.4440 C   0  0  0  0  0  0  0  0  0  0  0  0
   53.9890   23.8490   45.4200 N   0  0  0  0  0  0  0  0  0  0  0  0
   52.6830   24.4840   45.2630 C   0  0  0  0  0  0  0  0  0  0  0  0
   54.1930   22.5870   45.0710 N   0  0  0  0  0  0  0  0  0  0  0  0
   58.0759   21.5384   43.4259 H   0  0  0  0  0  0  0  0  0  0  0  0
   57.6765   20.2962   42.1914 H   0  0  0  0  0  0  0  0  0  0  0  0
   56.8145   21.8722   42.1914 H   0  0  0  0  0  0  0  0  0  0  0  0
   57.2364   23.5486   45.9359 H   0  0  0  0  0  0  0  0  0  0  0  0
   56.6520   26.0990   44.0150 H   0  0  0  0  0  0  0  0  0  0  0  0
   58.8590   26.9013   43.6356 H   0  0  0  0  0  0  0  0  0  0  0  0
   58.9311   27.0879   46.6804 H   0  0  0  0  0  0  0  0  0  0  0  0
   59.7780   25.9114   45.6196 H   0  0  0  0  0  0  0  0  0  0  0  0
   60.2721   27.6384   45.6196 H   0  0  0  0  0  0  0  0  0  0  0  0
   59.3403   29.2433   46.2011 H   0  0  0  0  0  0  0  0  0  0  0  0
   58.9618   31.6936   45.9576 H   0  0  0  0  0  0  0  0  0  0  0  0
   57.4022   34.8298   44.5579 H   0  0  0  0  0  0  0  0  0  0  0  0
   56.2893   34.2431   46.4974 H   0  0  0  0  0  0  0  0  0  0  0  0
   56.5389   32.5174   46.1373 H   0  0  0  0  0  0  0  0  0  0  0  0
   57.9113   34.1971   48.1095 H   0  0  0  0  0  0  0  0  0  0  0  0
   58.0772   32.4502   47.8755 H   0  0  0  0  0  0  0  0  0  0  0  0
   59.6568   31.5336   48.3236 H   0  0  0  0  0  0  0  0  0  0  0  0
   61.7890   30.7061   49.3184 H   0  0  0  0  0  0  0  0  0  0  0  0
   66.1831   32.1953   49.6043 H   0  0  0  0  0  0  0  0  0  0  0  0
   65.3732   33.5800   48.7271 H   0  0  0  0  0  0  0  0  0  0  0  0
   65.9538   33.8611   50.9330 H   0  0  0  0  0  0  0  0  0  0  0  0
   63.4677   31.8095   51.3657 H   0  0  0  0  0  0  0  0  0  0  0  0
   63.9162   32.3882   52.7384 H   0  0  0  0  0  0  0  0  0  0  0  0
   62.8213   34.0608   50.1935 H   0  0  0  0  0  0  0  0  0  0  0  0
   63.1575   35.0308   51.3624 H   0  0  0  0  0  0  0  0  0  0  0  0
   63.9314   33.9333   47.3756 H   0  0  0  0  0  0  0  0  0  0  0  0
   61.8178   34.6834   46.2864 H   0  0  0  0  0  0  0  0  0  0  0  0
   59.6408   34.9718   45.0962 H   0  0  0  0  0  0  0  0  0  0  0  0
   59.8535   33.2621   44.6799 H   0  0  0  0  0  0  0  0  0  0  0  0
   56.5109   30.9726   42.4663 H   0  0  0  0  0  0  0  0  0  0  0  0
   56.8322   28.5221   42.7466 H   0  0  0  0  0  0  0  0  0  0  0  0
   52.2549   24.6921   46.2547 H   0  0  0  0  0  0  0  0  0  0  0  0
   52.7980   25.4268   44.7080 H   0  0  0  0  0  0  0  0  0  0  0  0
   52.0125   23.8113   44.7080 H   0  0  0  0  0  0  0  0  0  0  0  0
  1  2  1  0
  2  3  1  0
  3  4  2  0
  3  5  1  0
  5  6  2  0
  6  7  1  0
  7  8  2  3
  8  9  1  0
  9 10  2  0
  9 11  1  0
 11 12  1  0
 12 13  1  0
 12 14  1  0
 14 15  2  0
 15 16  1  0
 16 17  2  0
 17 18  1  0
 18 19  1  0
 19 20  1  0
 20 21  1  0
 21 22  1  0
 22 23  1  0
 23 24  2  0
 24 25  1  0
 25 26  2  0
 26 27  1  0
 27 28  1  0
 28 29  1  0
 29 30  1  0
 30 31  1  0
 26 32  1  0
 32 33  2  0
 22 34  1  0
 17 35  1  0
 35 36  2  0
  7 37  1  0
 37 38  1  0
 37 39  1  0
 39  5  1  0
 36 14  1  0
 34 19  1  0
 33 23  1  0
 31 29  1  0
  1 40  1  0
  1 41  1  0
  1 42  1  0
  6 43  1  0
 11 44  1  0
 12 45  1  6
 13 46  1  0
 13 47  1  0
 13 48  1  0
 15 49  1  0
 16 50  1  0
 19 51  1  6
 20 52  1  0
 20 53  1  0
 21 54  1  0
 21 55  1  0
 24 56  1  0
 25 57  1  0
 28 58  1  0
 28 59  1  0
 29 60  1  0
 30 61  1  0
 30 62  1  0
 31 63  1  0
 31 64  1  0
 32 65  1  0
 33 66  1  0
 34 67  1  0
 34 68  1  0
 35 69  1  0
 36 70  1  0
 38 71  1  0
 38 72  1  0
 38 73  1  0
M  CHG  1  39  -1
M  END
>  <UniqueID>  (51) 
46

>  <SMILES>  (51) 
COC(=O)c1cc(=NC(=O)N[C@H](C)c2ccc(O[C@H]3CCN(c4ccc(OCC5CC5)cc4)C3)cc2)n(C)[n-]1

>  <Energy>  (51) 
393.4805513173881

>  <Genealogy>  (51) 
COC(=O)c1cc(=NC(=O)NC(C)c2ccc(OC3CCN(c4ccc(OCC5CC5)cc4)C3)cc2)n(C)[n-]1 (protonated)
COC(=O)c1cc(=NC(=O)N[C@H](C)c2ccc(O[C@H]3CCN(c4ccc(OCC5CC5)cc4)C3)cc2)n(C)[n-]1 (chirality)
COC(=O)c1cc(=NC(=O)N[C@H](C)c2ccc(O[C@H]3CCN(c4ccc(OCC5CC5)cc4)C3)cc2)n(C)[n-]1 (3D coordinates assigned)
COC(=O)c1cc(=NC(=O)N[C@H](C)c2ccc(O[C@H]3CCN(c4ccc(OCC5CC5)cc4)C3)cc2)n(C)[n-]1 (nonaromatic ring conformer: 393.4805513173881 kcal/mol)

>  <smiles>  (51) 
COC(=O)c1cc(=NC(=O)NC(C)c2ccc(OC3CCN(c4ccc(OCC5CC5)cc4)C3)cc2)n(C)[nH]1

>  <score_type>  (51) 
oracle

>  <origin>  (51) 
adg

>  <m_score__min__energy>  (51) 
-11.029999999999999

>  <m_primary>  (51) 
energy

$$$$
51:0
     RDKit          3D

 46 48  0  0  0  0  0  0  0  0999 V2000
   57.7840   33.1060   44.0760 C   0  0  0  0  0  0  0  0  0  0  0  0
   57.4750   33.4260   45.4290 O   0  0  0  0  0  0  0  0  0  0  0  0
   58.4240   33.5150   46.4600 C   0  0  0  0  0  0  0  0  0  0  0  0
   59.6430   34.1510   46.1880 C   0  0  0  0  0  0  0  0  0  0  0  0
   60.6230   34.2610   47.1770 C   0  0  0  0  0  0  0  0  0  0  0  0
   60.3930   33.7380   48.4530 C   0  0  0  0  0  0  0  0  0  0  0  0
   59.1730   33.1140   48.7520 C   0  0  0  0  0  0  0  0  0  0  0  0
   58.9440   32.5300   50.1170 C   0  0  0  0  0  0  0  0  0  0  0  0
   60.0070   31.5730   50.4270 N   0  0  0  0  0  0  0  0  0  0  0  0
   59.4880   29.9660   50.0160 S   0  0  0  0  0  0  0  0  0  0  0  0
   60.3890   28.9590   50.6790 O   0  0  0  0  0  0  0  0  0  0  0  0
   58.0830   29.7550   50.5060 O   0  0  0  0  0  0  0  0  0  0  0  0
   59.5170   29.7640   48.2670 C   0  0  0  0  0  0  0  0  0  0  0  0
   60.7310   29.7170   47.5730 C   0  0  0  0  0  0  0  0  0  0  0  0
   60.7370   29.6040   46.1820 C   0  0  0  0  0  0  0  0  0  0  0  0
   59.5350   29.5330   45.4720 C   0  0  0  0  0  0  0  0  0  0  0  0
   59.5860   29.4240   44.1200 F   0  0  0  0  0  0  0  0  0  0  0  0
   58.3010   29.5710   46.1570 C   0  0  0  0  0  0  0  0  0  0  0  0
   57.0090   29.5010   45.4270 C   0  0  0  0  0  0  0  0  0  0  0  0
   56.5400   30.5310   44.8710 O   0  0  0  0  0  0  0  0  0  0  0  0
   56.3000   28.2500   45.3530 N   0  0  0  0  0  0  0  0  0  0  0  0
   56.7200   27.0800   45.7440 C   0  0  0  0  0  0  0  0  0  0  0  0
   58.0520   26.8000   45.8360 N   0  0  0  0  0  0  0  0  0  0  0  0
   58.5070   25.5790   46.2300 C   0  0  0  0  0  0  0  0  0  0  0  0
   57.6030   24.5660   46.5470 C   0  0  0  0  0  0  0  0  0  0  0  0
   56.2340   24.8230   46.4640 C   0  0  0  0  0  0  0  0  0  0  0  0
   55.7840   26.0840   46.0630 C   0  0  0  0  0  0  0  0  0  0  0  0
   54.4200   26.3410   45.9870 O   0  0  0  0  0  0  0  0  0  0  0  0
   58.3090   29.6910   47.5610 C   0  0  0  0  0  0  0  0  0  0  0  0
   58.1950   32.9920   47.7480 C   0  0  0  0  0  0  0  0  0  0  0  0
   58.5479   32.3149   44.0516 H   0  0  0  0  0  0  0  0  0  0  0  0
   56.8753   32.7541   43.5657 H   0  0  0  0  0  0  0  0  0  0  0  0
   58.1675   34.0019   43.5657 H   0  0  0  0  0  0  0  0  0  0  0  0
   59.8295   34.5671   45.1870 H   0  0  0  0  0  0  0  0  0  0  0  0
   61.5771   34.7598   46.9517 H   0  0  0  0  0  0  0  0  0  0  0  0
   61.1721   33.8162   49.2256 H   0  0  0  0  0  0  0  0  0  0  0  0
   58.9478   33.3362   50.8653 H   0  0  0  0  0  0  0  0  0  0  0  0
   57.9723   32.0148   50.1352 H   0  0  0  0  0  0  0  0  0  0  0  0
   60.8300   31.7930   49.8210 H   0  0  0  0  0  0  0  0  0  0  0  0
   61.6815   29.7692   48.1242 H   0  0  0  0  0  0  0  0  0  0  0  0
   61.6940   29.5706   45.6407 H   0  0  0  0  0  0  0  0  0  0  0  0
   59.5887   25.3914   46.2983 H   0  0  0  0  0  0  0  0  0  0  0  0
   57.9649   23.5752   46.8591 H   0  0  0  0  0  0  0  0  0  0  0  0
   55.5096   24.0338   46.7140 H   0  0  0  0  0  0  0  0  0  0  0  0
   57.3559   29.7278   48.1090 H   0  0  0  0  0  0  0  0  0  0  0  0
   57.2447   32.4846   47.9703 H   0  0  0  0  0  0  0  0  0  0  0  0
  1  2  1  0
  2  3  1  0
  3  4  2  0
  4  5  1  0
  5  6  2  0
  6  7  1  0
  7  8  1  0
  8  9  1  0
  9 10  1  0
 10 11  2  0
 10 12  2  0
 10 13  1  0
 13 14  2  0
 14 15  1  0
 15 16  2  0
 16 17  1  0
 16 18  1  0
 18 19  1  0
 19 20  2  0
 19 21  1  0
 21 22  2  3
 22 23  1  0
 23 24  1  0
 24 25  2  0
 25 26  1  0
 26 27  2  0
 27 28  1  0
 18 29  2  0
  7 30  2  0
 30  3  1  0
 29 13  1  0
 27 22  1  0
  1 31  1  0
  1 32  1  0
  1 33  1  0
  4 34  1  0
  5 35  1  0
  6 36  1  0
  8 37  1  0
  8 38  1  0
  9 39  1  0
 14 40  1  0
 15 41  1  0
 24 42  1  0
 25 43  1  0
 26 44  1  0
 29 45  1  0
 30 46  1  0
M  CHG  2  23  -1  28  -1
M  END
>  <UniqueID>  (52) 
47

>  <SMILES>  (52) 
COc1cccc(CNS(=O)(=O)c2ccc(F)c(C(=O)N=c3[n-]cccc3[O-])c2)c1

>  <Energy>  (52) 
50.73276501800022

>  <Genealogy>  (52) 
COc1cccc(CNS(=O)(=O)c2ccc(F)c(C(=O)N=c3[n-]cccc3[O-])c2)c1 (protonated)
COc1cccc(CNS(=O)(=O)c2ccc(F)c(C(=O)N=c3[n-]cccc3[O-])c2)c1 (3D coordinates assigned)
COc1cccc(CNS(=O)(=O)c2ccc(F)c(C(=O)N=c3[n-]cccc3[O-])c2)c1 (optimized conformer: 50.73276501800022 kcal/mol)

>  <smiles>  (52) 
COc1cccc(CNS(=O)(=O)c2ccc(F)c(C(=O)N=c3[nH]cccc3O)c2)c1

>  <score_type>  (52) 
oracle

>  <origin>  (52) 
adg

>  <m_score__min__energy>  (52) 
-14.699999999999999

>  <m_primary>  (52) 
energy

$$$$
52:0
     RDKit          3D

 73 76  0  0  0  0  0  0  0  0999 V2000
   60.3720   28.3950   45.4110 C   0  0  0  0  0  0  0  0  0  0  0  0
   59.8090   29.6950   45.9360 C   0  0  0  0  0  0  0  0  0  0  0  0
   60.5580   30.4060   46.8780 C   0  0  0  0  0  0  0  0  0  0  0  0
   60.1070   31.5920   47.3460 N   0  0  0  0  0  0  0  0  0  0  0  0
   58.9310   32.1280   46.9410 C   0  0  0  0  0  0  0  0  0  0  0  0
   58.6030   33.3000   47.4170 N   0  0  0  0  0  0  0  0  0  0  0  0
   59.1740   34.6090   47.0950 C   0  0  0  0  0  0  0  0  0  0  0  0
   60.4110   34.4410   46.2130 C   0  0  0  0  0  0  0  0  0  0  0  0
   61.6120   34.0120   47.0190 C   0  0  0  0  0  0  0  0  0  0  0  0
   62.7500   33.4960   46.3750 C   0  0  0  0  0  0  0  0  0  0  0  0
   63.8780   33.1340   47.1230 C   0  0  0  0  0  0  0  0  0  0  0  0
   63.8820   33.2850   48.5130 C   0  0  0  0  0  0  0  0  0  0  0  0
   65.0140   32.9240   49.2400 O   0  0  0  0  0  0  0  0  0  0  0  0
   62.7490   33.8030   49.1580 C   0  0  0  0  0  0  0  0  0  0  0  0
   61.6220   34.1690   48.4140 C   0  0  0  0  0  0  0  0  0  0  0  0
   58.1410   31.4000   46.0140 C   0  0  0  0  0  0  0  0  0  0  0  0
   57.0320   31.8580   45.6210 O   0  0  0  0  0  0  0  0  0  0  0  0
   58.5880   30.1900   45.5310 N   0  0  0  0  0  0  0  0  0  0  0  0
   57.7810   29.4960   44.5020 C   0  0  0  0  0  0  0  0  0  0  0  0
   56.7940   28.5820   45.1600 C   0  0  0  0  0  0  0  0  0  0  0  0
   55.5690   28.6720   44.8800 O   0  0  0  0  0  0  0  0  0  0  0  0
   57.2470   27.6250   46.1210 N   0  0  0  0  0  0  0  0  0  0  0  0
   57.2210   26.1850   45.8890 C   0  0  2  0  0  0  0  0  0  0  0  0
   57.4180   25.9020   44.3850 C   0  0  0  0  0  0  0  0  0  0  0  0
   57.4350   24.4240   44.0870 C   0  0  0  0  0  0  0  0  0  0  0  0
   58.2850   23.5700   44.8100 C   0  0  0  0  0  0  0  0  0  0  0  0
   58.3020   22.2000   44.5350 C   0  0  0  0  0  0  0  0  0  0  0  0
   57.4600   21.6700   43.5540 C   0  0  0  0  0  0  0  0  0  0  0  0
   56.5960   22.5090   42.8480 C   0  0  0  0  0  0  0  0  0  0  0  0
   56.5860   23.8840   43.1060 C   0  0  0  0  0  0  0  0  0  0  0  0
   55.9090   25.6500   46.3830 C   0  0  0  0  0  0  0  0  0  0  0  0
   54.8410   25.9570   45.7850 O   0  0  0  0  0  0  0  0  0  0  0  0
   55.8800   24.7850   47.5190 N   0  0  0  0  0  0  0  0  0  0  0  0
   55.8410   23.0570   47.4120 S   0  0  0  0  0  0  0  0  0  0  0  0
   54.9400   22.5130   48.4830 O   0  0  0  0  0  0  0  0  0  0  0  0
   57.2240   22.4950   47.5850 O   0  0  0  0  0  0  0  0  0  0  0  0
   55.2250   22.5780   45.8050 C   0  0  0  0  0  0  0  0  0  0  0  0
   53.7570   22.8820   45.6900 C   0  0  0  0  0  0  0  0  0  0  0  0
   52.8410   22.3120   46.5910 C   0  0  0  0  0  0  0  0  0  0  0  0
   51.4790   22.6230   46.5030 C   0  0  0  0  0  0  0  0  0  0  0  0
   51.0250   23.5090   45.5210 C   0  0  0  0  0  0  0  0  0  0  0  0
   51.9310   24.0920   44.6310 C   0  0  0  0  0  0  0  0  0  0  0  0
   53.2940   23.7860   44.7170 C   0  0  0  0  0  0  0  0  0  0  0  0
   60.6519   27.7488   46.2560 H   0  0  0  0  0  0  0  0  0  0  0  0
   59.6129   27.8879   44.7974 H   0  0  0  0  0  0  0  0  0  0  0  0
   61.2612   28.6018   44.7974 H   0  0  0  0  0  0  0  0  0  0  0  0
   61.5148   30.0006   47.2389 H   0  0  0  0  0  0  0  0  0  0  0  0
   58.4248   35.2109   46.5598 H   0  0  0  0  0  0  0  0  0  0  0  0
   59.4636   35.1144   48.0281 H   0  0  0  0  0  0  0  0  0  0  0  0
   60.2033   33.6784   45.4479 H   0  0  0  0  0  0  0  0  0  0  0  0
   60.6370   35.4118   45.7478 H   0  0  0  0  0  0  0  0  0  0  0  0
   62.7549   33.3762   45.2816 H   0  0  0  0  0  0  0  0  0  0  0  0
   64.7651   32.7289   46.6141 H   0  0  0  0  0  0  0  0  0  0  0  0
   65.8990   32.7300   48.7820 H   0  0  0  0  0  0  0  0  0  0  0  0
   62.7466   33.9217   50.2516 H   0  0  0  0  0  0  0  0  0  0  0  0
   60.7395   34.5818   48.9246 H   0  0  0  0  0  0  0  0  0  0  0  0
   57.2421   30.2405   43.8976 H   0  0  0  0  0  0  0  0  0  0  0  0
   58.4475   28.9052   43.8564 H   0  0  0  0  0  0  0  0  0  0  0  0
   58.0360   25.6850   46.4329 H   0  0  0  0  0  0  0  0  0  0  0  0
   56.5940   26.3680   43.8248 H   0  0  0  0  0  0  0  0  0  0  0  0
   58.3896   26.3209   44.0843 H   0  0  0  0  0  0  0  0  0  0  0  0
   58.9383   23.9807   45.5940 H   0  0  0  0  0  0  0  0  0  0  0  0
   58.9801   21.5370   45.0924 H   0  0  0  0  0  0  0  0  0  0  0  0
   57.4779   20.5916   43.3380 H   0  0  0  0  0  0  0  0  0  0  0  0
   55.9218   22.0882   42.0874 H   0  0  0  0  0  0  0  0  0  0  0  0
   55.9122   24.5438   42.5398 H   0  0  0  0  0  0  0  0  0  0  0  0
   55.7713   23.1330   45.0281 H   0  0  0  0  0  0  0  0  0  0  0  0
   55.3748   21.4960   45.6754 H   0  0  0  0  0  0  0  0  0  0  0  0
   53.1957   21.6190   47.3681 H   0  0  0  0  0  0  0  0  0  0  0  0
   50.7653   22.1701   47.2069 H   0  0  0  0  0  0  0  0  0  0  0  0
   49.9535   23.7473   45.4490 H   0  0  0  0  0  0  0  0  0  0  0  0
   51.5725   24.7921   43.8620 H   0  0  0  0  0  0  0  0  0  0  0  0
   54.0057   24.2542   44.0211 H   0  0  0  0  0  0  0  0  0  0  0  0
  1  2  1  0
  2  3  2  0
  3  4  1  0
  4  5  1  0
  5  6  2  3
  6  7  1  0
  7  8  1  0
  8  9  1  0
  9 10  2  0
 10 11  1  0
 11 12  2  0
 12 13  1  0
 12 14  1  0
 14 15  2  0
  5 16  1  0
 16 17  2  0
 16 18  1  0
 18 19  1  0
 19 20  1  0
 20 21  2  0
 20 22  1  0
 22 23  1  0
 23 24  1  0
 24 25  1  0
 25 26  2  0
 26 27  1  0
 27 28  2  0
 28 29  1  0
 29 30  2  0
 23 31  1  0
 31 32  2  0
 31 33  1  0
 33 34  1  0
 34 35  2  0
 34 36  2  0
 34 37  1  0
 37 38  1  0
 38 39  2  0
 39 40  1  0
 40 41  2  0
 41 42  1  0
 42 43  2  0
 18  2  1  0
 30 25  1  0
 43 38  1  0
 15  9  1  0
  1 44  1  0
  1 45  1  0
  1 46  1  0
  3 47  1  0
  7 48  1  0
  7 49  1  0
  8 50  1  0
  8 51  1  0
 10 52  1  0
 11 53  1  0
 13 54  1  0
 14 55  1  0
 15 56  1  0
 19 57  1  0
 19 58  1  0
 23 59  1  1
 24 60  1  0
 24 61  1  0
 26 62  1  0
 27 63  1  0
 28 64  1  0
 29 65  1  0
 30 66  1  0
 37 67  1  0
 37 68  1  0
 39 69  1  0
 40 70  1  0
 41 71  1  0
 42 72  1  0
 43 73  1  0
M  CHG  3   4  -1  22  -1  33  -1
M  END
>  <UniqueID>  (53) 
48

>  <SMILES>  (53) 
Cc1c[n-]c(=NCCc2ccc(O)cc2)c(=O)n1CC(=O)[N-][C@H](Cc1ccccc1)C(=O)[N-]S(=O)(=O)Cc1ccccc1

>  <Energy>  (53) 
74.65353958195885

>  <Genealogy>  (53) 
Cc1c[n-]c(=NCCc2ccc(O)cc2)c(=O)n1CC(=O)[N-]C(Cc1ccccc1)C(=O)[N-]S(=O)(=O)Cc1ccccc1 (protonated)
Cc1c[n-]c(=NCCc2ccc(O)cc2)c(=O)n1CC(=O)[N-][C@H](Cc1ccccc1)C(=O)[N-]S(=O)(=O)Cc1ccccc1 (chirality)
Cc1c[n-]c(=NCCc2ccc(O)cc2)c(=O)n1CC(=O)[N-][C@H](Cc1ccccc1)C(=O)[N-]S(=O)(=O)Cc1ccccc1 (3D coordinates assigned)
Cc1c[n-]c(=NCCc2ccc(O)cc2)c(=O)n1CC(=O)[N-][C@H](Cc1ccccc1)C(=O)[N-]S(=O)(=O)Cc1ccccc1 (optimized conformer: 74.65353958195885 kcal/mol)

>  <smiles>  (53) 
Cc1c[nH]c(=NCCc2ccc(O)cc2)c(=O)n1CC(=O)NC(Cc1ccccc1)C(=O)NS(=O)(=O)Cc1ccccc1

>  <score_type>  (53) 
oracle

>  <origin>  (53) 
adg

>  <m_score__min__energy>  (53) 
-15.550000000000001

>  <m_primary>  (53) 
energy

$$$$
53:0
     RDKit          3D

 52 55  0  0  0  0  0  0  0  0999 V2000
   67.4310   35.0690   51.8820 C   0  0  0  0  0  0  0  0  0  0  0  0
   67.3140   33.4410   51.1640 S   0  0  0  0  0  0  0  0  0  0  0  0
   67.8290   33.4870   49.7530 O   0  0  0  0  0  0  0  0  0  0  0  0
   68.1680   32.5040   51.9720 O   0  0  0  0  0  0  0  0  0  0  0  0
   65.6570   32.8810   51.1800 N   0  0  0  0  0  0  0  0  0  0  0  0
   65.3210   32.2060   49.8970 C   0  0  0  0  0  0  0  0  0  0  0  0
   64.4780   33.0760   48.9550 C   0  0  0  0  0  0  0  0  0  0  0  0
   63.2610   33.5260   49.6430 N   0  0  0  0  0  0  0  0  0  0  0  0
   62.0480   33.7870   48.9030 C   0  0  0  0  0  0  0  0  0  0  0  0
   60.8270   33.9860   49.5740 C   0  0  0  0  0  0  0  0  0  0  0  0
   59.6550   34.2410   48.8550 C   0  0  0  0  0  0  0  0  0  0  0  0
   59.6820   34.3170   47.4590 C   0  0  0  0  0  0  0  0  0  0  0  0
   58.4610   34.5620   46.7510 N   0  0  0  0  0  0  0  0  0  0  0  0
   58.0760   33.9300   45.5260 C   0  0  0  0  0  0  0  0  0  0  0  0
   57.8670   34.6470   44.5110 O   0  0  0  0  0  0  0  0  0  0  0  0
   57.9740   32.5010   45.4230 N   0  0  0  0  0  0  0  0  0  0  0  0
   57.3050   31.8290   44.3060 C   0  0  0  0  0  0  0  0  0  0  0  0
   57.6790   30.4070   44.4960 C   0  0  0  0  0  0  0  0  0  0  0  0
   57.3050   29.3090   43.7190 C   0  0  0  0  0  0  0  0  0  0  0  0
   57.7830   28.0390   44.0770 C   0  0  0  0  0  0  0  0  0  0  0  0
   58.6220   27.8870   45.1980 C   0  0  0  0  0  0  0  0  0  0  0  0
   58.9880   29.0060   45.9650 C   0  0  0  0  0  0  0  0  0  0  0  0
   58.5010   30.2590   45.5900 C   0  0  0  0  0  0  0  0  0  0  0  0
   58.7480   31.5650   46.2450 C   0  0  0  0  0  0  0  0  0  0  0  0
   60.8920   34.0930   46.7810 C   0  0  0  0  0  0  0  0  0  0  0  0
   62.0640   33.8380   47.4970 C   0  0  0  0  0  0  0  0  0  0  0  0
   63.3090   33.7440   51.0950 C   0  0  0  0  0  0  0  0  0  0  0  0
   64.7530   34.0000   51.5410 C   0  0  0  0  0  0  0  0  0  0  0  0
   67.4251   34.9872   52.9789 H   0  0  0  0  0  0  0  0  0  0  0  0
   68.3659   35.5476   51.5550 H   0  0  0  0  0  0  0  0  0  0  0  0
   66.5742   35.6764   51.5550 H   0  0  0  0  0  0  0  0  0  0  0  0
   65.5970   32.1650   51.9420 H   0  0  0  0  0  0  0  0  0  0  0  0
   66.2584   31.9440   49.3846 H   0  0  0  0  0  0  0  0  0  0  0  0
   64.7208   31.3179   50.1440 H   0  0  0  0  0  0  0  0  0  0  0  0
   65.0661   33.9521   48.6442 H   0  0  0  0  0  0  0  0  0  0  0  0
   64.1961   32.4841   48.0717 H   0  0  0  0  0  0  0  0  0  0  0  0
   60.7943   33.9406   50.6726 H   0  0  0  0  0  0  0  0  0  0  0  0
   58.7052   34.3828   49.3914 H   0  0  0  0  0  0  0  0  0  0  0  0
   56.2144   31.9613   44.3617 H   0  0  0  0  0  0  0  0  0  0  0  0
   57.6000   32.2260   43.3235 H   0  0  0  0  0  0  0  0  0  0  0  0
   56.6496   29.4366   42.8448 H   0  0  0  0  0  0  0  0  0  0  0  0
   57.5014   27.1591   43.4799 H   0  0  0  0  0  0  0  0  0  0  0  0
   58.9921   26.8886   45.4741 H   0  0  0  0  0  0  0  0  0  0  0  0
   59.6437   28.8969   46.8414 H   0  0  0  0  0  0  0  0  0  0  0  0
   58.3869   31.5602   47.2840 H   0  0  0  0  0  0  0  0  0  0  0  0
   59.8155   31.8234   46.3055 H   0  0  0  0  0  0  0  0  0  0  0  0
   60.9165   34.1185   45.6816 H   0  0  0  0  0  0  0  0  0  0  0  0
   63.0082   33.6756   46.9566 H   0  0  0  0  0  0  0  0  0  0  0  0
   62.6886   34.6149   51.3530 H   0  0  0  0  0  0  0  0  0  0  0  0
   62.9273   32.8482   51.6067 H   0  0  0  0  0  0  0  0  0  0  0  0
   65.1157   34.9188   51.0571 H   0  0  0  0  0  0  0  0  0  0  0  0
   64.7561   34.0969   52.6367 H   0  0  0  0  0  0  0  0  0  0  0  0
  1  2  1  0
  2  3  2  0
  2  4  2  0
  2  5  1  0
  5  6  1  0
  6  7  1  0
  7  8  1  0
  8  9  1  0
  9 10  2  0
 10 11  1  0
 11 12  2  0
 12 13  1  0
 13 14  1  0
 14 15  2  0
 14 16  1  0
 16 17  1  0
 17 18  1  0
 18 19  2  0
 19 20  1  0
 20 21  2  0
 21 22  1  0
 22 23  2  0
 23 24  1  0
 12 25  1  0
 25 26  2  0
  8 27  1  0
 27 28  1  0
 28  5  1  0
 26  9  1  0
 24 16  1  0
 23 18  1  0
  1 29  1  0
  1 30  1  0
  1 31  1  0
  5 32  1  0
  6 33  1  0
  6 34  1  0
  7 35  1  0
  7 36  1  0
 10 37  1  0
 11 38  1  0
 17 39  1  0
 17 40  1  0
 19 41  1  0
 20 42  1  0
 21 43  1  0
 22 44  1  0
 24 45  1  0
 24 46  1  0
 25 47  1  0
 26 48  1  0
 27 49  1  0
 27 50  1  0
 28 51  1  0
 28 52  1  0
M  CHG  2   5   1  13  -1
M  END
>  <UniqueID>  (54) 
49

>  <SMILES>  (54) 
CS(=O)(=O)[NH+]1CCN(c2ccc([N-]C(=O)N3Cc4ccccc4C3)cc2)CC1

>  <Energy>  (54) 
73.83840914453214

>  <Genealogy>  (54) 
CS(=O)(=O)[NH+]1CCN(c2ccc([N-]C(=O)N3Cc4ccccc4C3)cc2)CC1 (protonated)
CS(=O)(=O)[NH+]1CCN(c2ccc([N-]C(=O)N3Cc4ccccc4C3)cc2)CC1 (3D coordinates assigned)
CS(=O)(=O)[NH+]1CCN(c2ccc([N-]C(=O)N3Cc4ccccc4C3)cc2)CC1 (nonaromatic ring conformer: 73.83840914453214 kcal/mol)

>  <smiles>  (54) 
CS(=O)(=O)N1CCN(c2ccc(NC(=O)N3Cc4ccccc4C3)cc2)CC1

>  <score_type>  (54) 
oracle

>  <origin>  (54) 
adg

>  <m_score__min__energy>  (54) 
-8.25

>  <m_primary>  (54) 
energy

$$$$
54:0
     RDKit          3D

 59 62  0  0  0  0  0  0  0  0999 V2000
   55.4319   31.0832   43.7816 H   0  0  0  0  0  0  0  0  0  0  0  0
   56.0530   30.4290   44.4110 C   0  0  0  0  0  0  0  0  0  0  0  0
   55.6550   29.1530   44.6600 N   0  0  0  0  0  0  0  0  0  0  0  0
   56.3860   28.2970   45.4230 C   0  0  0  0  0  0  0  0  0  0  0  0
   55.9270   27.0930   45.6200 N   0  0  0  0  0  0  0  0  0  0  0  0
   56.6290   25.9730   46.2540 C   0  0  0  0  0  0  0  0  0  0  0  0
   56.1181   25.7171   47.1939 H   0  0  0  0  0  0  0  0  0  0  0  0
   57.6680   26.2802   46.4439 H   0  0  0  0  0  0  0  0  0  0  0  0
   56.6510   24.7500   45.3560 C   0  0  0  0  0  0  0  0  0  0  0  0
   57.8960   24.2210   44.9590 C   0  0  0  0  0  0  0  0  0  0  0  0
   58.8249   24.7007   45.3012 H   0  0  0  0  0  0  0  0  0  0  0  0
   57.9630   23.0960   44.1370 C   0  0  0  0  0  0  0  0  0  0  0  0
   58.9414   22.7023   43.8245 H   0  0  0  0  0  0  0  0  0  0  0  0
   56.7940   22.4700   43.7110 C   0  0  0  0  0  0  0  0  0  0  0  0
   56.8506   21.5908   43.0524 H   0  0  0  0  0  0  0  0  0  0  0  0
   55.5520   22.9560   44.1180 C   0  0  0  0  0  0  0  0  0  0  0  0
   54.6335   22.4531   43.7812 H   0  0  0  0  0  0  0  0  0  0  0  0
   55.4620   24.0830   44.9550 C   0  0  0  0  0  0  0  0  0  0  0  0
   54.1000   24.5540   45.3950 C   0  0  0  0  0  0  0  0  0  0  0  0
   54.0548   24.5696   46.4940 H   0  0  0  0  0  0  0  0  0  0  0  0
   53.9190   25.5669   45.0061 H   0  0  0  0  0  0  0  0  0  0  0  0
   53.3319   23.8693   45.0061 H   0  0  0  0  0  0  0  0  0  0  0  0
   57.6060   28.7410   45.9690 C   0  0  0  0  0  0  0  0  0  0  0  0
   58.2175   28.0627   46.5822 H   0  0  0  0  0  0  0  0  0  0  0  0
   58.0340   30.0470   45.7270 C   0  0  0  0  0  0  0  0  0  0  0  0
   58.9893   30.3967   46.1456 H   0  0  0  0  0  0  0  0  0  0  0  0
   57.2520   30.9150   44.9530 C   0  0  0  0  0  0  0  0  0  0  0  0
   57.6970   32.3000   44.6820 C   0  0  0  0  0  0  0  0  0  0  0  0
   57.4120   32.8370   43.5770 O   0  0  0  0  0  0  0  0  0  0  0  0
   58.4690   33.0380   45.6450 N   0  0  0  0  0  0  0  0  0  0  0  0
   59.5810   33.8720   45.1800 C   0  0  0  0  0  0  0  0  0  0  0  0
   60.3083   33.2349   44.6554 H   0  0  0  0  0  0  0  0  0  0  0  0
   59.1724   34.6422   44.5093 H   0  0  0  0  0  0  0  0  0  0  0  0
   60.2900   34.5810   46.3430 C   0  0  0  0  0  0  0  0  0  0  0  0
   61.2524   34.9785   45.9883 H   0  0  0  0  0  0  0  0  0  0  0  0
   59.6436   35.3956   46.7015 H   0  0  0  0  0  0  0  0  0  0  0  0
   60.5490   33.6010   47.5220 C   0  0  0  0  0  0  0  0  0  0  0  0
   61.2048   32.8013   47.1474 H   0  0  0  0  0  0  0  0  0  0  0  0
   61.2840   34.2450   48.6650 N   0  0  0  0  0  0  0  0  0  0  0  0
   61.0220   35.2600   48.6390 H   0  0  0  0  0  0  0  0  0  0  0  0
   62.7660   34.2300   48.5410 C   0  0  0  0  0  0  0  0  0  0  0  0
   63.0446   34.7823   47.6314 H   0  0  0  0  0  0  0  0  0  0  0  0
   63.1710   34.6941   49.4524 H   0  0  0  0  0  0  0  0  0  0  0  0
   63.3630   32.8110   48.4520 C   0  0  0  0  0  0  0  0  0  0  0  0
   63.3022   32.4767   47.4058 H   0  0  0  0  0  0  0  0  0  0  0  0
   64.3976   32.8809   48.8190 H   0  0  0  0  0  0  0  0  0  0  0  0
   62.5170   31.5700   49.5010 S   0  0  0  0  0  0  0  0  0  0  0  0
   61.8350   32.7640   50.6890 C   0  0  0  0  0  0  0  0  0  0  0  0
   61.3079   32.2174   51.4848 H   0  0  0  0  0  0  0  0  0  0  0  0
   62.6649   33.3524   51.1073 H   0  0  0  0  0  0  0  0  0  0  0  0
   60.8490   33.7290   50.0040 C   0  0  0  0  0  0  0  0  0  0  0  0
   59.8935   33.2006   49.8706 H   0  0  0  0  0  0  0  0  0  0  0  0
   60.7780   34.6086   50.6608 H   0  0  0  0  0  0  0  0  0  0  0  0
   59.1930   32.9780   48.0050 C   0  0  0  0  0  0  0  0  0  0  0  0
   59.3496   31.9007   48.1629 H   0  0  0  0  0  0  0  0  0  0  0  0
   58.9160   33.5183   48.9222 H   0  0  0  0  0  0  0  0  0  0  0  0
   58.0160   33.1510   47.0330 C   0  0  0  0  0  0  0  0  0  0  0  0
   57.2657   32.3717   47.2324 H   0  0  0  0  0  0  0  0  0  0  0  0
   57.5787   34.1493   47.1818 H   0  0  0  0  0  0  0  0  0  0  0  0
  1  2  1  0
  2  3  1  0
  3  4  1  0
  4  5  2  0
  5  6  1  0
  6  7  1  0
  6  8  1  0
  6  9  1  0
  9 10  2  0
 10 11  1  0
 10 12  1  0
 12 13  1  0
 12 14  2  0
 14 15  1  0
 14 16  1  0
 16 17  1  0
 16 18  2  0
 18 19  1  0
 19 20  1  0
 19 21  1  0
 19 22  1  0
  4 23  1  0
 23 24  1  0
 23 25  2  0
 25 26  1  0
 25 27  1  0
 27 28  1  0
 28 29  2  0
 28 30  1  0
 30 31  1  0
 31 32  1  0
 31 33  1  0
 31 34  1  0
 34 35  1  0
 34 36  1  0
 34 37  1  0
 37 38  1  0
 37 39  1  0
 39 40  1  0
 39 41  1  0
 41 42  1  0
 41 43  1  0
 41 44  1  0
 44 45  1  0
 44 46  1  0
 44 47  1  0
 47 48  1  0
 48 49  1  0
 48 50  1  0
 48 51  1  0
 51 52  1  0
 51 53  1  0
 37 54  1  0
 54 55  1  0
 54 56  1  0
 54 57  1  0
 57 58  1  0
 57 59  1  0
 27  2  2  0
 57 30  1  0
 18  9  1  0
 51 39  1  0
M  CHG  2   3  -1  39   1
M  END
>  <UniqueID>  (55) 
50

>  <SMILES>  (55) 
Cc1ccccc1C/N=c1\ccc(C(=O)N2CCC([NH+]3CCSCC3)CC2)c[n-]1

>  <Energy>  (55) 
87.97745723561069

>  <Genealogy>  (55) 
Cc1ccccc1CN=c1ccc(C(=O)N2CCC([NH+]3CCSCC3)CC2)c[n-]1 (protonated)
Cc1ccccc1C/N=c1\ccc(C(=O)N2CCC([NH+]3CCSCC3)CC2)c[n-]1 (cis-trans isomerization)
Cc1ccccc1C/N=c1\ccc(C(=O)N2CCC([NH+]3CCSCC3)CC2)c[n-]1 (3D coordinates assigned)
Cc1ccccc1C/N=c1\ccc(C(=O)N2CCC([NH+]3CCSCC3)CC2)c[n-]1 (nonaromatic ring conformer: 87.97745723561069 kcal/mol)

>  <smiles>  (55) 
Cc1ccccc1CN=c1ccc(C(=O)N2CCC(N3CCSCC3)CC2)c[nH]1

>  <score_type>  (55) 
oracle

>  <origin>  (55) 
adg

>  <m_score__min__energy>  (55) 
-9.4100000000000001

>  <m_primary>  (55) 
energy

$$$$
55:0
     RDKit          3D

 48 50  0  0  0  0  0  0  0  0999 V2000
   63.3490   33.7700   46.6020 C   0  0  0  0  0  0  0  0  0  0  0  0
   63.0260   33.1690   47.9050 N   0  0  0  0  0  0  0  0  0  0  0  0
   64.2460   33.1100   48.7300 C   0  0  0  0  0  0  0  0  0  0  0  0
   62.4450   31.8200   47.7180 C   0  0  0  0  0  0  0  0  0  0  0  0
   61.6680   31.3510   48.9610 C   0  0  0  0  0  0  0  0  0  0  0  0
   60.3110   30.7150   48.6200 C   0  0  0  0  0  0  0  0  0  0  0  0
   60.2360   30.3050   47.2180 N   0  0  0  0  0  0  0  0  0  0  0  0
   59.0590   30.5880   46.4500 C   0  0  0  0  0  0  0  0  0  0  0  0
   58.1990   29.5420   46.0500 C   0  0  0  0  0  0  0  0  0  0  0  0
   58.4670   28.1330   46.4380 C   0  0  0  0  0  0  0  0  0  0  0  0
   59.6540   27.7100   46.4830 O   0  0  0  0  0  0  0  0  0  0  0  0
   57.3670   27.2610   46.7540 N   0  0  0  0  0  0  0  0  0  0  0  0
   57.1120   26.0970   46.2270 C   0  0  0  0  0  0  0  0  0  0  0  0
   58.0990   25.1760   46.0360 N   0  0  0  0  0  0  0  0  0  0  0  0
   57.8550   23.9620   45.4740 C   0  0  0  0  0  0  0  0  0  0  0  0
   56.5590   23.6240   45.0770 C   0  0  0  0  0  0  0  0  0  0  0  0
   55.5280   24.5440   45.2620 C   0  0  0  0  0  0  0  0  0  0  0  0
   55.7990   25.7880   45.8380 C   0  0  0  0  0  0  0  0  0  0  0  0
   54.7690   26.7040   46.0230 O   0  0  0  0  0  0  0  0  0  0  0  0
   57.0880   29.8680   45.2430 C   0  0  0  0  0  0  0  0  0  0  0  0
   56.2780   28.9770   44.8740 O   0  0  0  0  0  0  0  0  0  0  0  0
   56.8680   31.1230   44.8670 O   0  0  0  0  0  0  0  0  0  0  0  0
   57.6540   32.1320   45.2210 C   0  0  0  0  0  0  0  0  0  0  0  0
   57.3560   33.4240   44.7760 C   0  0  0  0  0  0  0  0  0  0  0  0
   58.1770   34.4960   45.1380 C   0  0  0  0  0  0  0  0  0  0  0  0
   59.2910   34.2820   45.9520 C   0  0  0  0  0  0  0  0  0  0  0  0
   59.5940   32.9960   46.4060 C   0  0  0  0  0  0  0  0  0  0  0  0
   58.7840   31.9050   46.0370 C   0  0  0  0  0  0  0  0  0  0  0  0
   63.8645   34.7291   46.7583 H   0  0  0  0  0  0  0  0  0  0  0  0
   64.0032   33.0900   46.0366 H   0  0  0  0  0  0  0  0  0  0  0  0
   62.4209   33.9404   46.0366 H   0  0  0  0  0  0  0  0  0  0  0  0
   63.9697   33.1234   49.7946 H   0  0  0  0  0  0  0  0  0  0  0  0
   64.7960   32.1842   48.5055 H   0  0  0  0  0  0  0  0  0  0  0  0
   64.8828   33.9784   48.5055 H   0  0  0  0  0  0  0  0  0  0  0  0
   61.7590   31.8445   46.8584 H   0  0  0  0  0  0  0  0  0  0  0  0
   63.2713   31.1143   47.5468 H   0  0  0  0  0  0  0  0  0  0  0  0
   62.2783   30.6081   49.4955 H   0  0  0  0  0  0  0  0  0  0  0  0
   61.4677   32.2400   49.5771 H   0  0  0  0  0  0  0  0  0  0  0  0
   60.1629   29.8307   49.2572 H   0  0  0  0  0  0  0  0  0  0  0  0
   59.5285   31.4677   48.7967 H   0  0  0  0  0  0  0  0  0  0  0  0
   61.0780   29.9440   46.7160 H   0  0  0  0  0  0  0  0  0  0  0  0
   58.6781   23.2462   45.3320 H   0  0  0  0  0  0  0  0  0  0  0  0
   56.3543   22.6430   44.6235 H   0  0  0  0  0  0  0  0  0  0  0  0
   54.5025   24.2910   44.9549 H   0  0  0  0  0  0  0  0  0  0  0  0
   56.4748   33.5968   44.1406 H   0  0  0  0  0  0  0  0  0  0  0  0
   57.9449   35.5102   44.7808 H   0  0  0  0  0  0  0  0  0  0  0  0
   59.9324   35.1290   46.2369 H   0  0  0  0  0  0  0  0  0  0  0  0
   60.4683   32.8352   47.0539 H   0  0  0  0  0  0  0  0  0  0  0  0
  1  2  1  0
  2  3  1  0
  2  4  1  0
  4  5  1  0
  5  6  1  0
  6  7  1  0
  7  8  1  0
  8  9  2  0
  9 10  1  0
 10 11  2  0
 10 12  1  0
 12 13  2  3
 13 14  1  0
 14 15  1  0
 15 16  2  0
 16 17  1  0
 17 18  2  0
 18 19  1  0
  9 20  1  0
 20 21  2  0
 20 22  1  0
 22 23  1  0
 23 24  2  0
 24 25  1  0
 25 26  2  0
 26 27  1  0
 27 28  2  0
 28  8  1  0
 18 13  1  0
 28 23  1  0
  1 29  1  0
  1 30  1  0
  1 31  1  0
  3 32  1  0
  3 33  1  0
  3 34  1  0
  4 35  1  0
  4 36  1  0
  5 37  1  0
  5 38  1  0
  6 39  1  0
  6 40  1  0
  7 41  1  0
 15 42  1  0
 16 43  1  0
 17 44  1  0
 24 45  1  0
 25 46  1  0
 26 47  1  0
 27 48  1  0
M  CHG  2  14  -1  19  -1
M  END
>  <UniqueID>  (56) 
51

>  <SMILES>  (56) 
CN(C)CCCNc1c(C(=O)N=c2[n-]cccc2[O-])c(=O)oc2ccccc12

>  <Energy>  (56) 
66.41253641912745

>  <Genealogy>  (56) 
CN(C)CCCNc1c(C(=O)N=c2[n-]cccc2[O-])c(=O)oc2ccccc12 (protonated)
CN(C)CCCNc1c(C(=O)N=c2[n-]cccc2[O-])c(=O)oc2ccccc12 (3D coordinates assigned)
CN(C)CCCNc1c(C(=O)N=c2[n-]cccc2[O-])c(=O)oc2ccccc12 (optimized conformer: 66.41253641912745 kcal/mol)

>  <smiles>  (56) 
CN(C)CCCNc1c(C(=O)N=c2[nH]cccc2O)c(=O)oc2ccccc12

>  <score_type>  (56) 
oracle

>  <origin>  (56) 
adg

>  <m_score__min__energy>  (56) 
-13.56

>  <m_primary>  (56) 
energy

$$$$
56:0
     RDKit          3D

 42 44  0  0  0  0  0  0  0  0999 V2000
   53.9990   23.4950   46.0330 C   0  0  0  0  0  0  0  0  0  0  0  0
   55.0950   23.6200   45.0140 C   0  0  0  0  0  0  0  0  0  0  0  0
   55.2050   22.6470   44.0720 N   0  0  0  0  0  0  0  0  0  0  0  0
   56.1510   22.7130   43.1030 C   0  0  0  0  0  0  0  0  0  0  0  0
   56.2300   21.7980   42.2400 O   0  0  0  0  0  0  0  0  0  0  0  0
   56.9860   23.7400   43.0560 O   0  0  0  0  0  0  0  0  0  0  0  0
   56.9420   24.7270   43.9450 C   0  0  0  0  0  0  0  0  0  0  0  0
   57.7630   25.6820   43.8430 O   0  0  0  0  0  0  0  0  0  0  0  0
   55.9990   24.7030   44.9890 C   0  0  0  0  0  0  0  0  0  0  0  0
   55.9530   25.8040   45.9820 C   0  0  0  0  0  0  0  0  0  0  0  0
   56.2760   25.5670   47.1750 O   0  0  0  0  0  0  0  0  0  0  0  0
   55.5880   27.1420   45.6220 N   0  0  0  0  0  0  0  0  0  0  0  0
   56.4870   28.2280   45.3590 C   0  0  0  0  0  0  0  0  0  0  0  0
   56.1460   29.2800   44.4890 C   0  0  0  0  0  0  0  0  0  0  0  0
   57.0540   30.3200   44.2520 C   0  0  0  0  0  0  0  0  0  0  0  0
   58.2980   30.3230   44.8870 C   0  0  0  0  0  0  0  0  0  0  0  0
   58.6380   29.2900   45.7740 C   0  0  0  0  0  0  0  0  0  0  0  0
   60.2010   29.2640   46.5860 S   0  0  0  0  0  0  0  0  0  0  0  0
   60.3560   27.9450   47.2960 O   0  0  0  0  0  0  0  0  0  0  0  0
   61.3050   29.3950   45.5710 O   0  0  0  0  0  0  0  0  0  0  0  0
   60.3150   30.5370   47.7670 N   0  0  0  0  0  0  0  0  0  0  0  0
   61.1420   31.5390   47.6840 C   0  0  0  0  0  0  0  0  0  0  0  0
   60.8830   32.9220   48.1680 C   0  0  0  0  0  0  0  0  0  0  0  0
   62.2370   33.6220   47.9870 C   0  0  0  0  0  0  0  0  0  0  0  0
   63.1270   32.6760   47.1590 C   0  0  0  0  0  0  0  0  0  0  0  0
   62.4240   31.4100   47.1070 N   0  0  0  0  0  0  0  0  0  0  0  0
   57.7240   28.2530   46.0140 C   0  0  0  0  0  0  0  0  0  0  0  0
   54.4306   23.5442   47.0436 H   0  0  0  0  0  0  0  0  0  0  0  0
   53.2800   24.3170   45.9009 H   0  0  0  0  0  0  0  0  0  0  0  0
   53.4836   22.5322   45.9009 H   0  0  0  0  0  0  0  0  0  0  0  0
   55.1638   29.2857   43.9937 H   0  0  0  0  0  0  0  0  0  0  0  0
   56.7867   31.1360   43.5644 H   0  0  0  0  0  0  0  0  0  0  0  0
   59.0124   31.1363   44.6916 H   0  0  0  0  0  0  0  0  0  0  0  0
   59.6610   30.4860   48.5820 H   0  0  0  0  0  0  0  0  0  0  0  0
   60.1036   33.4106   47.5648 H   0  0  0  0  0  0  0  0  0  0  0  0
   60.5192   32.9526   49.2056 H   0  0  0  0  0  0  0  0  0  0  0  0
   62.1012   34.5750   47.4547 H   0  0  0  0  0  0  0  0  0  0  0  0
   62.6982   33.8418   48.9612 H   0  0  0  0  0  0  0  0  0  0  0  0
   63.2696   33.0760   46.1443 H   0  0  0  0  0  0  0  0  0  0  0  0
   64.1246   32.5647   47.6088 H   0  0  0  0  0  0  0  0  0  0  0  0
   62.7940   30.5460   46.6490 H   0  0  0  0  0  0  0  0  0  0  0  0
   57.9816   27.4525   46.7231 H   0  0  0  0  0  0  0  0  0  0  0  0
  1  2  1  0
  2  3  1  0
  3  4  1  0
  4  5  2  0
  4  6  1  0
  6  7  1  0
  7  8  2  0
  7  9  1  0
  9 10  1  0
 10 11  2  0
 10 12  1  0
 12 13  1  0
 13 14  2  0
 14 15  1  0
 15 16  2  0
 16 17  1  0
 17 18  1  0
 18 19  2  0
 18 20  2  0
 18 21  1  0
 21 22  2  3
 22 23  1  0
 23 24  1  0
 24 25  1  0
 25 26  1  0
 17 27  2  0
  9  2  2  0
 27 13  1  0
 26 22  1  0
  1 28  1  0
  1 29  1  0
  1 30  1  0
 14 31  1  0
 15 32  1  0
 16 33  1  0
 21 34  1  0
 23 35  1  0
 23 36  1  0
 24 37  1  0
 24 38  1  0
 25 39  1  0
 25 40  1  0
 26 41  1  0
 27 42  1  0
M  CHG  3   3  -1  12  -1  21   1
M  END
>  <UniqueID>  (57) 
52

>  <SMILES>  (57) 
Cc1[n-]c(=O)oc(=O)c1C(=O)[N-]c1cccc(S(=O)(=O)[NH+]=C2CCCN2)c1

>  <Energy>  (57) 
63.243071186977204

>  <Genealogy>  (57) 
Cc1[n-]c(=O)oc(=O)c1C(=O)[N-]c1cccc(S(=O)(=O)[NH+]=C2CCCN2)c1 (protonated)
Cc1[n-]c(=O)oc(=O)c1C(=O)[N-]c1cccc(S(=O)(=O)[NH+]=C2CCCN2)c1 (3D coordinates assigned)
Cc1[n-]c(=O)oc(=O)c1C(=O)[N-]c1cccc(S(=O)(=O)[NH+]=C2CCCN2)c1 (nonaromatic ring conformer: 63.243071186977204 kcal/mol)

>  <smiles>  (57) 
Cc1[nH]c(=O)oc(=O)c1C(=O)Nc1cccc(S(=O)(=O)N=C2CCCN2)c1

>  <score_type>  (57) 
oracle

>  <origin>  (57) 
adg

>  <m_score__min__energy>  (57) 
-10.779999999999999

>  <m_primary>  (57) 
energy

$$$$
57:0
     RDKit          3D

 30 31  0  0  0  0  0  0  0  0999 V2000
   55.1470   27.3560   46.0630 H   0  0  0  0  0  0  0  0  0  0  0  0
   54.8880   26.3470   45.9790 N   0  0  0  0  0  0  0  0  0  0  0  0
   56.3520   25.4400   46.1130 S   0  0  0  0  0  0  0  0  0  0  0  0
   56.3350   24.6700   47.4030 O   0  0  0  0  0  0  0  0  0  0  0  0
   56.4650   24.4730   44.9680 O   0  0  0  0  0  0  0  0  0  0  0  0
   57.7180   26.5130   46.1160 N   0  0  0  0  0  0  0  0  0  0  0  0
   57.7660   27.7110   45.6050 C   0  0  0  0  0  0  0  0  0  0  0  0
   58.9090   28.5290   45.7090 C   0  0  0  0  0  0  0  0  0  0  0  0
   59.8034   28.1650   46.2359 H   0  0  0  0  0  0  0  0  0  0  0  0
   58.9000   29.8030   45.1400 C   0  0  0  0  0  0  0  0  0  0  0  0
   59.7915   30.4432   45.2134 H   0  0  0  0  0  0  0  0  0  0  0  0
   57.7590   30.2680   44.4760 C   0  0  0  0  0  0  0  0  0  0  0  0
   57.7530   31.6240   43.8250 C   0  0  0  0  0  0  0  0  0  0  0  0
   58.4930   31.6394   43.0112 H   0  0  0  0  0  0  0  0  0  0  0  0
   56.7485   31.8245   43.4240 H   0  0  0  0  0  0  0  0  0  0  0  0
   58.1000   32.6870   44.8320 C   0  0  0  0  0  0  0  0  0  0  0  0
   58.8620   33.8040   44.4500 C   0  0  0  0  0  0  0  0  0  0  0  0
   59.1820   33.9176   43.4037 H   0  0  0  0  0  0  0  0  0  0  0  0
   59.2150   34.7720   45.3960 C   0  0  0  0  0  0  0  0  0  0  0  0
   59.8062   35.6481   45.0913 H   0  0  0  0  0  0  0  0  0  0  0  0
   58.8170   34.6270   46.7290 C   0  0  0  0  0  0  0  0  0  0  0  0
   59.0921   35.3911   47.4709 H   0  0  0  0  0  0  0  0  0  0  0  0
   58.0700   33.5120   47.1190 C   0  0  0  0  0  0  0  0  0  0  0  0
   57.7610   33.3972   48.1685 H   0  0  0  0  0  0  0  0  0  0  0  0
   57.7150   32.5420   46.1760 C   0  0  0  0  0  0  0  0  0  0  0  0
   57.1324   31.6624   46.4873 H   0  0  0  0  0  0  0  0  0  0  0  0
   56.6450   29.4250   44.3820 C   0  0  0  0  0  0  0  0  0  0  0  0
   55.7443   29.7663   43.8507 H   0  0  0  0  0  0  0  0  0  0  0  0
   56.6700   28.1860   44.9440 N   0  0  0  0  0  0  0  0  0  0  0  0
   55.8190   27.5850   44.8570 H   0  0  0  0  0  0  0  0  0  0  0  0
  1  2  1  0
  2  3  1  0
  3  4  2  0
  3  5  2  0
  3  6  1  0
  6  7  2  0
  7  8  1  0
  8  9  1  0
  8 10  2  0
 10 11  1  0
 10 12  1  0
 12 13  1  0
 13 14  1  0
 13 15  1  0
 13 16  1  0
 16 17  2  0
 17 18  1  0
 17 19  1  0
 19 20  1  0
 19 21  2  0
 21 22  1  0
 21 23  1  0
 23 24  1  0
 23 25  2  0
 25 26  1  0
 12 27  2  0
 27 28  1  0
 27 29  1  0
 29 30  1  0
 29  7  1  0
 25 16  1  0
M  CHG  1   2  -1
M  END
>  <UniqueID>  (58) 
53

>  <SMILES>  (58) 
[NH-]S(=O)(=O)/N=c1\ccc(Cc2ccccc2)c[nH]1

>  <Energy>  (58) 
32.500845621558256

>  <Genealogy>  (58) 
[NH-]S(=O)(=O)N=c1ccc(Cc2ccccc2)c[nH]1 (protonated)
[NH-]S(=O)(=O)/N=c1\ccc(Cc2ccccc2)c[nH]1 (cis-trans isomerization)
[NH-]S(=O)(=O)/N=c1\ccc(Cc2ccccc2)c[nH]1 (3D coordinates assigned)
[NH-]S(=O)(=O)/N=c1\ccc(Cc2ccccc2)c[nH]1 (optimized conformer: 32.500845621558256 kcal/mol)

>  <smiles>  (58) 
NS(=O)(=O)N=c1ccc(Cc2ccccc2)c[nH]1

>  <score_type>  (58) 
oracle

>  <origin>  (58) 
adg

>  <m_score__min__energy>  (58) 
-11.039999999999999

>  <m_primary>  (58) 
energy

$$$$
58:0
     RDKit          3D

 47 48  0  0  0  0  0  0  0  0999 V2000
   67.7690   33.5450   50.5510 C   0  0  0  0  0  0  0  0  0  0  0  0
   66.8020   32.6690   50.2630 C   0  0  0  0  0  0  0  0  0  0  0  0
   65.4160   32.8100   50.8270 C   0  0  0  0  0  0  0  0  0  0  0  0
   64.3760   32.6060   49.7540 C   0  0  0  0  0  0  0  0  0  0  0  0
   64.3450   33.4620   48.6420 C   0  0  0  0  0  0  0  0  0  0  0  0
   63.4060   33.2680   47.6270 C   0  0  0  0  0  0  0  0  0  0  0  0
   62.4910   32.2190   47.7100 C   0  0  0  0  0  0  0  0  0  0  0  0
   62.4980   31.3540   48.8170 C   0  0  0  0  0  0  0  0  0  0  0  0
   61.4840   30.2370   48.9070 C   0  0  0  0  0  0  0  0  0  0  0  0
   60.4700   30.3680   47.8580 N   0  0  0  0  0  0  0  0  0  0  0  0
   59.6280   29.2900   47.4080 C   0  0  0  0  0  0  0  0  0  0  0  0
   59.3470   28.2280   48.2790 C   0  0  0  0  0  0  0  0  0  0  0  0
   58.4940   27.1940   47.8860 C   0  0  0  0  0  0  0  0  0  0  0  0
   57.9030   27.2010   46.6140 C   0  0  0  0  0  0  0  0  0  0  0  0
   56.7820   25.9080   46.1710 S   0  0  0  0  0  0  0  0  0  0  0  0
   55.1800   26.5420   46.0270 N   0  0  0  0  0  0  0  0  0  0  0  0
   57.2060   25.2970   44.8650 O   0  0  0  0  0  0  0  0  0  0  0  0
   56.7780   24.8430   47.2320 O   0  0  0  0  0  0  0  0  0  0  0  0
   58.2050   28.2490   45.7200 C   0  0  0  0  0  0  0  0  0  0  0  0
   57.6280   28.2940   44.4090 N   0  0  0  0  0  0  0  0  0  0  0  0
   58.2350   27.5290   43.3230 C   0  0  0  0  0  0  0  0  0  0  0  0
   56.5240   29.5750   44.0190 S   0  0  0  0  0  0  0  0  0  0  0  0
   55.0370   29.3490   44.8710 N   0  0  0  0  0  0  0  0  0  0  0  0
   56.2640   29.5860   42.5380 O   0  0  0  0  0  0  0  0  0  0  0  0
   57.1170   30.8940   44.4270 O   0  0  0  0  0  0  0  0  0  0  0  0
   59.0690   29.2780   46.1190 C   0  0  0  0  0  0  0  0  0  0  0  0
   63.4570   31.5400   49.8330 C   0  0  0  0  0  0  0  0  0  0  0  0
   63.4970   30.6680   50.9180 O   0  0  0  0  0  0  0  0  0  0  0  0
   68.7739   33.4153   50.1229 H   0  0  0  0  0  0  0  0  0  0  0  0
   67.5601   34.3958   51.2162 H   0  0  0  0  0  0  0  0  0  0  0  0
   67.0260   31.8232   49.5963 H   0  0  0  0  0  0  0  0  0  0  0  0
   65.2705   32.0589   51.6173 H   0  0  0  0  0  0  0  0  0  0  0  0
   65.3044   33.8247   51.2367 H   0  0  0  0  0  0  0  0  0  0  0  0
   65.0648   34.2907   48.5697 H   0  0  0  0  0  0  0  0  0  0  0  0
   63.3880   33.9444   46.7597 H   0  0  0  0  0  0  0  0  0  0  0  0
   61.7587   32.0678   46.9032 H   0  0  0  0  0  0  0  0  0  0  0  0
   61.9994   29.2721   48.7916 H   0  0  0  0  0  0  0  0  0  0  0  0
   60.9864   30.2911   49.8865 H   0  0  0  0  0  0  0  0  0  0  0  0
   60.4230   31.2800   47.3500 H   0  0  0  0  0  0  0  0  0  0  0  0
   59.8021   28.2088   49.2803 H   0  0  0  0  0  0  0  0  0  0  0  0
   58.2839   26.3670   48.5802 H   0  0  0  0  0  0  0  0  0  0  0  0
   55.1580   27.1230   45.1600 H   0  0  0  0  0  0  0  0  0  0  0  0
   58.8667   26.7328   43.7438 H   0  0  0  0  0  0  0  0  0  0  0  0
   57.4442   27.0807   42.7036 H   0  0  0  0  0  0  0  0  0  0  0  0
   58.8513   28.1972   42.7036 H   0  0  0  0  0  0  0  0  0  0  0  0
   55.2290   28.6810   45.6510 H   0  0  0  0  0  0  0  0  0  0  0  0
   59.3125   30.0865   45.4140 H   0  0  0  0  0  0  0  0  0  0  0  0
  1  2  2  0
  2  3  1  0
  3  4  1  0
  4  5  2  0
  5  6  1  0
  6  7  2  0
  7  8  1  0
  8  9  1  0
  9 10  1  0
 10 11  1  0
 11 12  2  0
 12 13  1  0
 13 14  2  0
 14 15  1  0
 15 16  1  0
 15 17  2  0
 15 18  2  0
 14 19  1  0
 19 20  1  0
 20 21  1  0
 20 22  1  0
 22 23  1  0
 22 24  2  0
 22 25  2  0
 19 26  2  0
  8 27  2  0
 27 28  1  0
 27  4  1  0
 26 11  1  0
  1 29  1  0
  1 30  1  0
  2 31  1  0
  3 32  1  0
  3 33  1  0
  5 34  1  0
  6 35  1  0
  7 36  1  0
  9 37  1  0
  9 38  1  0
 10 39  1  0
 12 40  1  0
 13 41  1  0
 16 42  1  0
 21 43  1  0
 21 44  1  0
 21 45  1  0
 23 46  1  0
 26 47  1  0
M  CHG  3  16  -1  23  -1  28  -1
M  END
>  <UniqueID>  (59) 
54

>  <SMILES>  (59) 
C=CCc1cccc(CNc2ccc(S([NH-])(=O)=O)c(N(C)S([NH-])(=O)=O)c2)c1[O-]

>  <Energy>  (59) 
47.308701562228286

>  <Genealogy>  (59) 
C=CCc1cccc(CNc2ccc(S([NH-])(=O)=O)c(N(C)S([NH-])(=O)=O)c2)c1[O-] (protonated)
C=CCc1cccc(CNc2ccc(S([NH-])(=O)=O)c(N(C)S([NH-])(=O)=O)c2)c1[O-] (3D coordinates assigned)
C=CCc1cccc(CNc2ccc(S([NH-])(=O)=O)c(N(C)S([NH-])(=O)=O)c2)c1[O-] (optimized conformer: 47.308701562228286 kcal/mol)

>  <smiles>  (59) 
C=CCc1cccc(CNc2ccc(S(N)(=O)=O)c(N(C)S(N)(=O)=O)c2)c1O

>  <score_type>  (59) 
oracle

>  <origin>  (59) 
adg

>  <m_score__min__energy>  (59) 
-15.82

>  <m_primary>  (59) 
energy

$$$$
59:0
     RDKit          3D

 35 37  0  0  0  0  0  0  0  0999 V2000
   57.7930   32.2450   43.3870 O   0  0  0  0  0  0  0  0  0  0  0  0
   57.4920   31.8520   44.5490 C   0  0  0  0  0  0  0  0  0  0  0  0
   56.7760   30.5640   44.6840 C   0  0  0  0  0  0  0  0  0  0  0  0
   55.5210   30.2390   44.2070 C   0  0  0  0  0  0  0  0  0  0  0  0
   55.2310   28.9740   44.5600 N   0  0  0  0  0  0  0  0  0  0  0  0
   56.3230   28.5720   45.2400 C   0  0  0  0  0  0  0  0  0  0  0  0
   56.4620   27.0810   45.8900 S   0  0  0  0  0  0  0  0  0  0  0  0
   57.2880   29.5070   45.3400 N   0  0  0  0  0  0  0  0  0  0  0  0
   57.9160   32.6260   45.7040 N   0  0  2  0  0  0  0  0  0  0  0  0
   57.6300   34.0760   45.5010 C   0  0  0  0  0  0  0  0  0  0  0  0
   58.8510   34.8640   45.0020 C   0  0  0  0  0  0  0  0  0  0  0  0
   60.0190   34.7740   45.9990 C   0  0  0  0  0  0  0  0  0  0  0  0
   60.0080   33.4670   46.8120 C   0  0  0  0  0  0  0  0  0  0  0  0
   59.3490   32.3270   46.0070 C   0  0  1  0  0  0  0  0  0  0  0  0
   59.4940   30.9920   46.7250 C   0  0  0  0  0  0  0  0  0  0  0  0
   60.1900   29.9340   46.1160 C   0  0  0  0  0  0  0  0  0  0  0  0
   60.2850   28.6970   46.7530 C   0  0  0  0  0  0  0  0  0  0  0  0
   59.6800   28.5180   47.9960 C   0  0  0  0  0  0  0  0  0  0  0  0
   59.0000   29.5430   48.5740 N   0  0  0  0  0  0  0  0  0  0  0  0
   58.8920   30.7600   47.9760 C   0  0  0  0  0  0  0  0  0  0  0  0
   54.8643   30.9075   43.6309 H   0  0  0  0  0  0  0  0  0  0  0  0
   57.3320   32.3460   46.5250 H   0  0  0  0  0  0  0  0  0  0  0  0
   56.8228   34.1738   44.7601 H   0  0  0  0  0  0  0  0  0  0  0  0
   57.3441   34.4950   46.4770 H   0  0  0  0  0  0  0  0  0  0  0  0
   59.1730   34.4514   44.0345 H   0  0  0  0  0  0  0  0  0  0  0  0
   58.5637   35.9207   44.8978 H   0  0  0  0  0  0  0  0  0  0  0  0
   60.9643   34.8322   45.4395 H   0  0  0  0  0  0  0  0  0  0  0  0
   59.9140   35.6074   46.7092 H   0  0  0  0  0  0  0  0  0  0  0  0
   61.0429   33.1850   47.0557 H   0  0  0  0  0  0  0  0  0  0  0  0
   59.4287   33.6292   47.7329 H   0  0  0  0  0  0  0  0  0  0  0  0
   59.8794   32.2517   45.0463 H   0  0  0  0  0  0  0  0  0  0  0  0
   60.6616   30.0820   45.1333 H   0  0  0  0  0  0  0  0  0  0  0  0
   60.8328   27.8695   46.2785 H   0  0  0  0  0  0  0  0  0  0  0  0
   59.7529   27.5476   48.5088 H   0  0  0  0  0  0  0  0  0  0  0  0
   58.3318   31.5662   48.4722 H   0  0  0  0  0  0  0  0  0  0  0  0
  1  2  2  0
  2  3  1  0
  3  4  2  0
  4  5  1  0
  5  6  1  0
  6  7  2  0
  6  8  1  0
  2  9  1  0
  9 10  1  0
 10 11  1  0
 11 12  1  0
 12 13  1  0
 13 14  1  0
 14 15  1  0
 15 16  2  0
 16 17  1  0
 17 18  2  0
 18 19  1  0
 19 20  2  0
  8  3  1  0
 14  9  1  0
 20 15  1  0
  4 21  1  0
  9 22  1  1
 10 23  1  0
 10 24  1  0
 11 25  1  0
 11 26  1  0
 12 27  1  0
 12 28  1  0
 13 29  1  0
 13 30  1  0
 14 31  1  6
 16 32  1  0
 17 33  1  0
 18 34  1  0
 20 35  1  0
M  CHG  3   5  -1   8  -1   9   1
M  END
>  <UniqueID>  (60) 
55

>  <SMILES>  (60) 
O=C(c1c[n-]c(=S)[n-]1)[N@@H+]1CCCC[C@H]1c1cccnc1

>  <Energy>  (60) 
75.02192980025707

>  <Genealogy>  (60) 
O=C(c1c[n-]c(=S)[n-]1)[NH+]1CCCCC1c1cccnc1 (protonated)
O=C(c1c[n-]c(=S)[n-]1)[N@@H+]1CCCC[C@H]1c1cccnc1 (chirality)
O=C(c1c[n-]c(=S)[n-]1)[N@@H+]1CCCC[C@H]1c1cccnc1 (3D coordinates assigned)
O=C(c1c[n-]c(=S)[n-]1)[N@@H+]1CCCC[C@H]1c1cccnc1 (nonaromatic ring conformer: 75.02192980025707 kcal/mol)

>  <smiles>  (60) 
O=C(c1c[nH]c(=S)[nH]1)N1CCCCC1c1cccnc1

>  <score_type>  (60) 
oracle

>  <origin>  (60) 
adg

>  <m_score__min__energy>  (60) 
-8.6699999999999999

>  <m_primary>  (60) 
energy

$$$$
60:0
     RDKit          3D

 52 55  0  0  0  0  0  0  0  0999 V2000
   55.7860   26.9050   45.9940 O   0  0  0  0  0  0  0  0  0  0  0  0
   57.0430   26.9780   45.9450 C   0  0  0  0  0  0  0  0  0  0  0  0
   57.7620   26.5090   44.7050 C   0  0  0  0  0  0  0  0  0  0  0  0
   57.6580   25.0150   44.5260 C   0  0  0  0  0  0  0  0  0  0  0  0
   58.4160   24.1520   45.3370 C   0  0  0  0  0  0  0  0  0  0  0  0
   58.3200   22.7660   45.1750 C   0  0  0  0  0  0  0  0  0  0  0  0
   57.4750   22.2300   44.2010 C   0  0  0  0  0  0  0  0  0  0  0  0
   56.7260   23.0800   43.3820 C   0  0  0  0  0  0  0  0  0  0  0  0
   56.8200   24.4670   43.5400 C   0  0  0  0  0  0  0  0  0  0  0  0
   57.7570   27.3250   47.1380 N   0  0  0  0  0  0  0  0  0  0  0  0
   58.5780   28.3230   47.2780 C   0  0  0  0  0  0  0  0  0  0  0  0
   59.4440   28.6790   46.3050 N   0  0  0  0  0  0  0  0  0  0  0  0
   60.2290   29.7230   46.6840 C   0  0  0  0  0  0  0  0  0  0  0  0
   59.9890   30.1940   47.9700 C   0  0  0  0  0  0  0  0  0  0  0  0
   60.7170   31.3090   48.6540 C   0  0  0  0  0  0  0  0  0  0  0  0
   61.1910   32.3440   47.6540 C   0  0  0  0  0  0  0  0  0  0  0  0
   62.2990   32.1950   47.1530 O   0  0  0  0  0  0  0  0  0  0  0  0
   60.4260   33.5440   47.3360 N   0  0  0  0  0  0  0  0  0  0  0  0
   60.4710   33.9040   45.8890 C   0  0  0  0  0  0  0  0  0  0  0  0
   59.1050   33.8480   45.1780 C   0  0  0  0  0  0  0  0  0  0  0  0
   58.3070   32.7170   45.6680 N   0  0  0  0  0  0  0  0  0  0  0  0
   57.5860   31.8560   44.7620 C   0  0  0  0  0  0  0  0  0  0  0  0
   56.6760   30.9560   45.2310 N   0  0  0  0  0  0  0  0  0  0  0  0
   55.9880   30.1430   44.3860 C   0  0  0  0  0  0  0  0  0  0  0  0
   55.1540   29.3200   44.8480 O   0  0  0  0  0  0  0  0  0  0  0  0
   56.2060   30.2250   43.0110 C   0  0  0  0  0  0  0  0  0  0  0  0
   57.1400   31.1480   42.5420 C   0  0  0  0  0  0  0  0  0  0  0  0
   57.8080   31.9400   43.4190 N   0  0  0  0  0  0  0  0  0  0  0  0
   58.1370   32.5430   47.1160 C   0  0  0  0  0  0  0  0  0  0  0  0
   59.0610   33.4780   47.9070 C   0  0  0  0  0  0  0  0  0  0  0  0
   58.7670   29.2670   48.6620 S   0  0  0  0  0  0  0  0  0  0  0  0
   57.3189   27.0040   43.8283 H   0  0  0  0  0  0  0  0  0  0  0  0
   58.8263   26.7666   44.8099 H   0  0  0  0  0  0  0  0  0  0  0  0
   59.0874   24.5687   46.1022 H   0  0  0  0  0  0  0  0  0  0  0  0
   58.9117   22.0965   45.8166 H   0  0  0  0  0  0  0  0  0  0  0  0
   57.3988   21.1395   44.0783 H   0  0  0  0  0  0  0  0  0  0  0  0
   56.0623   22.6581   42.6129 H   0  0  0  0  0  0  0  0  0  0  0  0
   56.2345   25.1324   42.8886 H   0  0  0  0  0  0  0  0  0  0  0  0
   60.9935   30.1603   46.0250 H   0  0  0  0  0  0  0  0  0  0  0  0
   60.0409   31.7901   49.3761 H   0  0  0  0  0  0  0  0  0  0  0  0
   61.5953   30.8904   49.1671 H   0  0  0  0  0  0  0  0  0  0  0  0
   60.8970   34.3320   47.8440 H   0  0  0  0  0  0  0  0  0  0  0  0
   60.8633   34.9279   45.8009 H   0  0  0  0  0  0  0  0  0  0  0  0
   61.1119   33.1565   45.3986 H   0  0  0  0  0  0  0  0  0  0  0  0
   58.5599   34.7839   45.3703 H   0  0  0  0  0  0  0  0  0  0  0  0
   59.2747   33.7180   44.0990 H   0  0  0  0  0  0  0  0  0  0  0  0
   55.6546   29.5774   42.3135 H   0  0  0  0  0  0  0  0  0  0  0  0
   57.3352   31.2342   41.4629 H   0  0  0  0  0  0  0  0  0  0  0  0
   57.0927   32.7633   47.3823 H   0  0  0  0  0  0  0  0  0  0  0  0
   58.3957   31.5049   47.3716 H   0  0  0  0  0  0  0  0  0  0  0  0
   58.6275   34.4890   47.9022 H   0  0  0  0  0  0  0  0  0  0  0  0
   59.1453   33.0785   48.9284 H   0  0  0  0  0  0  0  0  0  0  0  0
  1  2  2  0
  2  3  1  0
  3  4  1  0
  4  5  2  0
  5  6  1  0
  6  7  2  0
  7  8  1  0
  8  9  2  0
  2 10  1  0
 10 11  2  3
 11 12  1  0
 12 13  1  0
 13 14  2  0
 14 15  1  0
 15 16  1  0
 16 17  2  0
 16 18  1  0
 18 19  1  0
 19 20  1  0
 20 21  1  0
 21 22  1  0
 22 23  2  0
 23 24  1  0
 24 25  2  0
 24 26  1  0
 26 27  2  0
 27 28  1  0
 21 29  1  0
 29 30  1  0
 14 31  1  0
  9  4  1  0
 31 11  1  0
 30 18  1  0
 28 22  1  0
  3 32  1  0
  3 33  1  0
  5 34  1  0
  6 35  1  0
  7 36  1  0
  8 37  1  0
  9 38  1  0
 13 39  1  0
 15 40  1  0
 15 41  1  0
 18 42  1  0
 19 43  1  0
 19 44  1  0
 20 45  1  0
 20 46  1  0
 26 47  1  0
 27 48  1  0
 29 49  1  0
 29 50  1  0
 30 51  1  0
 30 52  1  0
M  CHG  3  12  -1  18   1  28  -1
M  END
>  <UniqueID>  (61) 
56

>  <SMILES>  (61) 
O=C(Cc1ccccc1)N=c1[n-]cc(CC(=O)[NH+]2CCN(c3nc(=O)cc[n-]3)CC2)s1

>  <Energy>  (61) 
102.61788493390596

>  <Genealogy>  (61) 
O=C(Cc1ccccc1)N=c1[n-]cc(CC(=O)[NH+]2CCN(c3nc(=O)cc[n-]3)CC2)s1 (protonated)
O=C(Cc1ccccc1)N=c1[n-]cc(CC(=O)[NH+]2CCN(c3nc(=O)cc[n-]3)CC2)s1 (3D coordinates assigned)
O=C(Cc1ccccc1)N=c1[n-]cc(CC(=O)[NH+]2CCN(c3nc(=O)cc[n-]3)CC2)s1 (nonaromatic ring conformer: 102.61788493390596 kcal/mol)

>  <smiles>  (61) 
O=C(Cc1ccccc1)N=c1[nH]cc(CC(=O)N2CCN(c3nc(=O)cc[nH]3)CC2)s1

>  <score_type>  (61) 
oracle

>  <origin>  (61) 
adg

>  <m_score__min__energy>  (61) 
-10.970000000000001

>  <m_primary>  (61) 
energy

$$$$
61:0
     RDKit          3D

 45 47  0  0  0  0  0  0  0  0999 V2000
   63.3400   33.8110   47.4890 C   0  0  0  0  0  0  0  0  0  0  0  0
   61.8470   33.6770   47.4250 C   0  0  0  0  0  0  0  0  0  0  0  0
   61.2500   33.9410   46.3020 N   0  0  0  0  0  0  0  0  0  0  0  0
   59.8330   33.8270   46.1420 C   0  0  0  0  0  0  0  0  0  0  0  0
   59.2620   33.9820   44.8730 C   0  0  0  0  0  0  0  0  0  0  0  0
   57.8790   33.8650   44.7090 C   0  0  0  0  0  0  0  0  0  0  0  0
   57.0630   33.6000   45.8130 C   0  0  0  0  0  0  0  0  0  0  0  0
   57.6280   33.4520   47.0830 C   0  0  0  0  0  0  0  0  0  0  0  0
   59.0170   33.5550   47.2520 C   0  0  0  0  0  0  0  0  0  0  0  0
   59.6270   33.4660   48.6240 C   0  0  0  0  0  0  0  0  0  0  0  0
   61.0790   33.2270   48.5680 N   0  0  0  0  0  0  0  0  0  0  0  0
   61.7270   32.5770   49.7170 C   0  0  0  0  0  0  0  0  0  0  0  0
   61.7900   31.1000   49.4970 C   0  0  0  0  0  0  0  0  0  0  0  0
   61.9850   30.3250   50.4720 O   0  0  0  0  0  0  0  0  0  0  0  0
   61.6050   30.5750   48.1770 N   0  0  0  0  0  0  0  0  0  0  0  0
   60.4570   29.8210   47.7680 C   0  0  0  0  0  0  0  0  0  0  0  0
   59.5700   30.3980   46.8510 C   0  0  0  0  0  0  0  0  0  0  0  0
   58.4110   29.7240   46.4510 C   0  0  0  0  0  0  0  0  0  0  0  0
   57.5300   30.3720   45.5230 N   0  0  0  0  0  0  0  0  0  0  0  0
   56.3290   29.5890   44.5460 S   0  0  0  0  0  0  0  0  0  0  0  0
   57.0050   29.1840   42.9500 C   0  0  0  0  0  0  0  0  0  0  0  0
   55.9080   28.3190   45.2290 O   0  0  0  0  0  0  0  0  0  0  0  0
   55.1270   30.4780   44.3970 O   0  0  0  0  0  0  0  0  0  0  0  0
   58.1480   28.4450   46.9680 C   0  0  0  0  0  0  0  0  0  0  0  0
   59.0440   27.8480   47.8580 C   0  0  0  0  0  0  0  0  0  0  0  0
   60.2110   28.5140   48.2460 C   0  0  0  0  0  0  0  0  0  0  0  0
   61.1160   27.8430   49.0700 O   0  0  0  0  0  0  0  0  0  0  0  0
   63.6608   33.8398   48.5408 H   0  0  0  0  0  0  0  0  0  0  0  0
   63.8072   32.9512   46.9866 H   0  0  0  0  0  0  0  0  0  0  0  0
   63.6466   34.7403   46.9866 H   0  0  0  0  0  0  0  0  0  0  0  0
   59.9023   34.1960   44.0046 H   0  0  0  0  0  0  0  0  0  0  0  0
   57.4321   33.9815   43.7106 H   0  0  0  0  0  0  0  0  0  0  0  0
   55.9747   33.5078   45.6820 H   0  0  0  0  0  0  0  0  0  0  0  0
   56.9824   33.2544   47.9515 H   0  0  0  0  0  0  0  0  0  0  0  0
   59.4429   34.4108   49.1564 H   0  0  0  0  0  0  0  0  0  0  0  0
   59.1630   32.6171   49.1476 H   0  0  0  0  0  0  0  0  0  0  0  0
   62.7470   32.9724   49.8323 H   0  0  0  0  0  0  0  0  0  0  0  0
   61.1433   32.7831   50.6263 H   0  0  0  0  0  0  0  0  0  0  0  0
   59.7873   31.3947   46.4395 H   0  0  0  0  0  0  0  0  0  0  0  0
   57.9420   28.6227   43.0804 H   0  0  0  0  0  0  0  0  0  0  0  0
   56.2838   28.5691   42.3916 H   0  0  0  0  0  0  0  0  0  0  0  0
   57.2070   30.1100   42.3916 H   0  0  0  0  0  0  0  0  0  0  0  0
   57.2331   27.9114   46.6710 H   0  0  0  0  0  0  0  0  0  0  0  0
   58.8299   26.8456   48.2571 H   0  0  0  0  0  0  0  0  0  0  0  0
   61.7870   28.3250   49.6540 H   0  0  0  0  0  0  0  0  0  0  0  0
  1  2  1  0
  2  3  2  0
  3  4  1  0
  4  5  2  0
  5  6  1  0
  6  7  2  0
  7  8  1  0
  8  9  2  0
  9 10  1  0
 10 11  1  0
 11 12  1  0
 12 13  1  0
 13 14  2  0
 13 15  1  0
 15 16  1  0
 16 17  2  0
 17 18  1  0
 18 19  1  0
 19 20  1  0
 20 21  1  0
 20 22  2  0
 20 23  2  0
 18 24  2  0
 24 25  1  0
 25 26  2  0
 26 27  1  0
 11  2  1  0
 26 16  1  0
  9  4  1  0
  1 28  1  0
  1 29  1  0
  1 30  1  0
  5 31  1  0
  6 32  1  0
  7 33  1  0
  8 34  1  0
 10 35  1  0
 10 36  1  0
 12 37  1  0
 12 38  1  0
 17 39  1  0
 21 40  1  0
 21 41  1  0
 21 42  1  0
 24 43  1  0
 25 44  1  0
 27 45  1  0
M  CHG  2  15  -1  19  -1
M  END
>  <UniqueID>  (62) 
57

>  <SMILES>  (62) 
CC1=Nc2ccccc2CN1CC(=O)[N-]c1cc([N-]S(C)(=O)=O)ccc1O

>  <Energy>  (62) 
51.39943535141958

>  <Genealogy>  (62) 
CC1=Nc2ccccc2CN1CC(=O)[N-]c1cc([N-]S(C)(=O)=O)ccc1O (protonated)
CC1=Nc2ccccc2CN1CC(=O)[N-]c1cc([N-]S(C)(=O)=O)ccc1O (3D coordinates assigned)
CC1=Nc2ccccc2CN1CC(=O)[N-]c1cc([N-]S(C)(=O)=O)ccc1O (nonaromatic ring conformer: 51.39943535141958 kcal/mol)

>  <smiles>  (62) 
CC1=Nc2ccccc2CN1CC(=O)Nc1cc(NS(C)(=O)=O)ccc1O

>  <score_type>  (62) 
oracle

>  <origin>  (62) 
adg

>  <m_score__min__energy>  (62) 
-11.93

>  <m_primary>  (62) 
energy

$$$$
62:0
     RDKit          3D

 47 50  0  0  0  0  0  0  0  0999 V2000
   56.0210   30.1560   43.0240 O   0  0  0  0  0  0  0  0  0  0  0  0
   56.4420   30.2180   44.2090 C   0  0  0  0  0  0  0  0  0  0  0  0
   56.0590   29.1840   45.1280 N   0  0  0  0  0  0  0  0  0  0  0  0
   56.8730   28.0780   45.5450 C   0  0  0  0  0  0  0  0  0  0  0  0
   58.2580   28.2560   45.6040 C   0  0  0  0  0  0  0  0  0  0  0  0
   59.0910   27.2030   45.9810 C   0  0  0  0  0  0  0  0  0  0  0  0
   58.5460   25.9620   46.3110 C   0  0  0  0  0  0  0  0  0  0  0  0
   57.1530   25.7630   46.2940 C   0  0  0  0  0  0  0  0  0  0  0  0
   56.5840   24.4350   46.6400 C   0  0  0  0  0  0  0  0  0  0  0  0
   55.3260   23.9940   46.2160 C   0  0  0  0  0  0  0  0  0  0  0  0
   55.0660   22.4500   46.8360 S   0  0  0  0  0  0  0  0  0  0  0  0
   56.5500   22.4160   47.6140 C   0  0  0  0  0  0  0  0  0  0  0  0
   56.9710   21.4500   48.3010 O   0  0  0  0  0  0  0  0  0  0  0  0
   57.2590   23.5470   47.4220 N   0  0  0  0  0  0  0  0  0  0  0  0
   56.3140   26.8400   45.9310 C   0  0  0  0  0  0  0  0  0  0  0  0
   54.9310   26.6980   45.9960 O   0  0  0  0  0  0  0  0  0  0  0  0
   57.2780   31.3710   44.6220 C   0  0  0  0  0  0  0  0  0  0  0  0
   57.6110   32.3870   43.7090 C   0  0  0  0  0  0  0  0  0  0  0  0
   58.3870   33.4760   44.1130 C   0  0  0  0  0  0  0  0  0  0  0  0
   58.8510   33.5650   45.4340 C   0  0  0  0  0  0  0  0  0  0  0  0
   59.7300   34.7130   45.8580 C   0  0  0  0  0  0  0  0  0  0  0  0
   60.0020   34.6940   47.3690 C   0  0  0  0  0  0  0  0  0  0  0  0
   61.3410   34.0780   47.6880 C   0  0  0  0  0  0  0  0  0  0  0  0
   62.2650   33.8150   46.6620 C   0  0  0  0  0  0  0  0  0  0  0  0
   63.5240   33.2880   46.9650 C   0  0  0  0  0  0  0  0  0  0  0  0
   63.8700   33.0240   48.2940 C   0  0  0  0  0  0  0  0  0  0  0  0
   62.9600   33.2880   49.3200 C   0  0  0  0  0  0  0  0  0  0  0  0
   61.7000   33.8170   49.0210 C   0  0  0  0  0  0  0  0  0  0  0  0
   58.5450   32.5370   46.3400 C   0  0  0  0  0  0  0  0  0  0  0  0
   57.7660   31.4490   45.9370 C   0  0  0  0  0  0  0  0  0  0  0  0
   58.6941   29.2337   45.3513 H   0  0  0  0  0  0  0  0  0  0  0  0
   60.1803   27.3513   46.0182 H   0  0  0  0  0  0  0  0  0  0  0  0
   59.2116   25.1309   46.5872 H   0  0  0  0  0  0  0  0  0  0  0  0
   54.6253   24.5599   45.5845 H   0  0  0  0  0  0  0  0  0  0  0  0
   57.2579   32.3239   42.6691 H   0  0  0  0  0  0  0  0  0  0  0  0
   58.6356   34.2681   43.3914 H   0  0  0  0  0  0  0  0  0  0  0  0
   60.6885   34.6444   45.3226 H   0  0  0  0  0  0  0  0  0  0  0  0
   59.2086   35.6508   45.6159 H   0  0  0  0  0  0  0  0  0  0  0  0
   59.9859   35.7269   47.7469 H   0  0  0  0  0  0  0  0  0  0  0  0
   59.2218   34.0856   47.8498 H   0  0  0  0  0  0  0  0  0  0  0  0
   61.9964   34.0247   45.6161 H   0  0  0  0  0  0  0  0  0  0  0  0
   64.2424   33.0810   46.1581 H   0  0  0  0  0  0  0  0  0  0  0  0
   64.8602   32.6079   48.5316 H   0  0  0  0  0  0  0  0  0  0  0  0
   63.2344   33.0797   50.3646 H   0  0  0  0  0  0  0  0  0  0  0  0
   60.9880   34.0293   49.8322 H   0  0  0  0  0  0  0  0  0  0  0  0
   58.9205   32.5883   47.3727 H   0  0  0  0  0  0  0  0  0  0  0  0
   57.5334   30.6482   46.6544 H   0  0  0  0  0  0  0  0  0  0  0  0
  1  2  2  0
  2  3  1  0
  3  4  1  0
  4  5  2  0
  5  6  1  0
  6  7  2  0
  7  8  1  0
  8  9  1  0
  9 10  2  0
 10 11  1  0
 11 12  1  0
 12 13  2  0
 12 14  1  0
  8 15  2  0
 15 16  1  0
  2 17  1  0
 17 18  2  0
 18 19  1  0
 19 20  2  0
 20 21  1  0
 21 22  1  0
 22 23  1  0
 23 24  2  0
 24 25  1  0
 25 26  2  0
 26 27  1  0
 27 28  2  0
 20 29  1  0
 29 30  2  0
 15  4  1  0
 30 17  1  0
 14  9  1  0
 28 23  1  0
  5 31  1  0
  6 32  1  0
  7 33  1  0
 10 34  1  0
 18 35  1  0
 19 36  1  0
 21 37  1  0
 21 38  1  0
 22 39  1  0
 22 40  1  0
 24 41  1  0
 25 42  1  0
 26 43  1  0
 27 44  1  0
 28 45  1  0
 29 46  1  0
 30 47  1  0
M  CHG  3   3  -1  14  -1  16  -1
M  END
>  <UniqueID>  (63) 
58

>  <SMILES>  (63) 
O=C([N-]c1cccc(-c2csc(=O)[n-]2)c1[O-])c1ccc(CCc2ccccc2)cc1

>  <Energy>  (63) 
90.65425646103446

>  <Genealogy>  (63) 
O=C([N-]c1cccc(-c2csc(=O)[n-]2)c1[O-])c1ccc(CCc2ccccc2)cc1 (protonated)
O=C([N-]c1cccc(-c2csc(=O)[n-]2)c1[O-])c1ccc(CCc2ccccc2)cc1 (3D coordinates assigned)
O=C([N-]c1cccc(-c2csc(=O)[n-]2)c1[O-])c1ccc(CCc2ccccc2)cc1 (optimized conformer: 90.65425646103446 kcal/mol)

>  <smiles>  (63) 
O=C(Nc1cccc(-c2csc(=O)[nH]2)c1O)c1ccc(CCc2ccccc2)cc1

>  <score_type>  (63) 
oracle

>  <origin>  (63) 
adg

>  <m_score__min__energy>  (63) 
-18.050000000000001

>  <m_primary>  (63) 
energy

$$$$
63:0
     RDKit          3D

 39 41  0  0  0  0  0  0  0  0999 V2000
   62.7500   33.4450   47.1110 C   0  0  0  0  0  0  0  0  0  0  0  0
   61.2670   33.4010   47.1970 C   0  0  0  0  0  0  0  0  0  0  0  0
   60.6730   32.8800   48.3290 C   0  0  0  0  0  0  0  0  0  0  0  0
   59.3100   32.7970   48.5030 C   0  0  0  0  0  0  0  0  0  0  0  0
   58.4950   33.2650   47.4750 C   0  0  0  0  0  0  0  0  0  0  0  0
   59.0910   33.7870   46.3410 C   0  0  0  0  0  0  0  0  0  0  0  0
   58.1400   34.2720   45.2770 C   0  0  0  0  0  0  0  0  0  0  0  0
   58.3430   33.0940   43.8860 S   0  0  0  0  0  0  0  0  0  0  0  0
   57.8900   31.4630   44.4570 C   0  0  0  0  0  0  0  0  0  0  0  0
   58.6890   30.7150   45.2420 N   0  0  0  0  0  0  0  0  0  0  0  0
   58.3060   29.4720   45.6570 C   0  0  0  0  0  0  0  0  0  0  0  0
   59.1610   28.6510   46.5090 C   0  0  0  0  0  0  0  0  0  0  0  0
   59.8300   27.5430   45.9810 C   0  0  0  0  0  0  0  0  0  0  0  0
   60.6430   26.7530   46.7710 C   0  0  0  0  0  0  0  0  0  0  0  0
   60.7780   27.0870   48.1010 C   0  0  0  0  0  0  0  0  0  0  0  0
   60.1410   28.1670   48.6770 C   0  0  0  0  0  0  0  0  0  0  0  0
   59.3350   28.9280   47.8310 C   0  0  0  0  0  0  0  0  0  0  0  0
   57.0740   29.0030   45.2500 C   0  0  0  0  0  0  0  0  0  0  0  0
   56.5770   27.7120   45.6330 C   0  0  0  0  0  0  0  0  0  0  0  0
   56.1630   26.6750   45.9370 N   0  0  0  0  0  0  0  0  0  0  0  0
   56.2430   29.7660   44.4400 C   0  0  0  0  0  0  0  0  0  0  0  0
   55.1110   29.3570   44.0550 O   0  0  0  0  0  0  0  0  0  0  0  0
   56.6850   30.9940   44.0640 N   0  0  0  0  0  0  0  0  0  0  0  0
   60.4520   33.8690   46.1690 C   0  0  0  0  0  0  0  0  0  0  0  0
   63.1759   33.4576   48.1251 H   0  0  0  0  0  0  0  0  0  0  0  0
   63.1125   32.5572   46.5721 H   0  0  0  0  0  0  0  0  0  0  0  0
   63.0593   34.3527   46.5721 H   0  0  0  0  0  0  0  0  0  0  0  0
   61.3239   32.5113   49.1354 H   0  0  0  0  0  0  0  0  0  0  0  0
   58.8790   32.3753   49.4230 H   0  0  0  0  0  0  0  0  0  0  0  0
   57.3994   33.2204   47.5631 H   0  0  0  0  0  0  0  0  0  0  0  0
   57.1046   34.2573   45.6481 H   0  0  0  0  0  0  0  0  0  0  0  0
   58.3517   35.3083   44.9750 H   0  0  0  0  0  0  0  0  0  0  0  0
   59.7069   27.2953   44.9163 H   0  0  0  0  0  0  0  0  0  0  0  0
   61.1674   25.8824   46.3502 H   0  0  0  0  0  0  0  0  0  0  0  0
   61.4250   26.4623   48.7343 H   0  0  0  0  0  0  0  0  0  0  0  0
   60.2620   28.4135   49.7422 H   0  0  0  0  0  0  0  0  0  0  0  0
   58.8119   29.7983   48.2539 H   0  0  0  0  0  0  0  0  0  0  0  0
   56.0420   31.5530   43.4540 H   0  0  0  0  0  0  0  0  0  0  0  0
   60.8837   34.2906   45.2493 H   0  0  0  0  0  0  0  0  0  0  0  0
  1  2  1  0
  2  3  2  0
  3  4  1  0
  4  5  2  0
  5  6  1  0
  6  7  1  0
  7  8  1  0
  8  9  1  0
  9 10  2  0
 10 11  1  0
 11 12  1  0
 12 13  2  0
 13 14  1  0
 14 15  2  0
 15 16  1  0
 16 17  2  0
 11 18  2  0
 18 19  1  0
 19 20  3  0
 18 21  1  0
 21 22  2  0
 21 23  1  0
  6 24  2  0
 24  2  1  0
 23  9  1  0
 17 12  1  0
  1 25  1  0
  1 26  1  0
  1 27  1  0
  3 28  1  0
  4 29  1  0
  5 30  1  0
  7 31  1  0
  7 32  1  0
 13 33  1  0
 14 34  1  0
 15 35  1  0
 16 36  1  0
 17 37  1  0
 23 38  1  0
 24 39  1  0
M  END
>  <smiles>  (64) 
Cc1cccc(CSc2nc(-c3ccccc3)c(C#N)c(=O)[nH]2)c1

>  <score_type>  (64) 
oracle

>  <origin>  (64) 
adg

>  <m_score__min__energy>  (64) 
-7.8899999999999997

>  <m_primary>  (64) 
energy

$$$$
64:0
     RDKit          3D

 25 25  0  0  0  0  0  0  0  0999 V2000
   58.3930   34.5550   44.8800 C   0  0  0  0  0  0  0  0  0  0  0  0
   58.0170   33.4010   45.4370 C   0  0  0  0  0  0  0  0  0  0  0  0
   59.0170   32.4580   46.0370 C   0  0  0  0  0  0  0  0  0  0  0  0
   58.9000   31.1500   45.4010 N   0  0  0  0  0  0  0  0  0  0  0  0
   57.7510   30.2970   45.4870 C   0  0  0  0  0  0  0  0  0  0  0  0
   56.6460   30.7270   45.0640 O   0  0  0  0  0  0  0  0  0  0  0  0
   57.8120   28.9510   46.0920 C   0  0  0  0  0  0  0  0  0  0  0  0
   58.3250   28.8370   47.4380 C   0  0  0  0  0  0  0  0  0  0  0  0
   58.7360   28.7430   48.5170 N   0  0  0  0  0  0  0  0  0  0  0  0
   57.2790   27.8940   45.4540 C   0  0  0  0  0  0  0  0  0  0  0  0
   57.1900   26.5330   46.0320 C   0  0  0  0  0  0  0  0  0  0  0  0
   55.9350   25.9720   46.3110 C   0  0  0  0  0  0  0  0  0  0  0  0
   54.7690   26.6930   46.0830 O   0  0  0  0  0  0  0  0  0  0  0  0
   55.8510   24.7150   46.8200 N   0  0  0  0  0  0  0  0  0  0  0  0
   56.9660   23.9770   47.0540 C   0  0  0  0  0  0  0  0  0  0  0  0
   56.8630   22.8180   47.5320 O   0  0  0  0  0  0  0  0  0  0  0  0
   58.1900   24.4860   46.7670 N   0  0  0  0  0  0  0  0  0  0  0  0
   58.3290   25.7360   46.2550 C   0  0  0  0  0  0  0  0  0  0  0  0
   59.4800   26.1590   45.9630 O   0  0  0  0  0  0  0  0  0  0  0  0
   57.6385   35.2283   44.4471 H   0  0  0  0  0  0  0  0  0  0  0  0
   59.4572   34.8322   44.8541 H   0  0  0  0  0  0  0  0  0  0  0  0
   56.9496   33.1361   45.4562 H   0  0  0  0  0  0  0  0  0  0  0  0
   60.0319   32.8520   45.8796 H   0  0  0  0  0  0  0  0  0  0  0  0
   58.8235   32.3583   47.1153 H   0  0  0  0  0  0  0  0  0  0  0  0
   56.8843   28.0498   44.4391 H   0  0  0  0  0  0  0  0  0  0  0  0
  1  2  2  0
  2  3  1  0
  3  4  1  0
  4  5  1  0
  5  6  2  0
  5  7  1  0
  7  8  1  0
  8  9  3  0
  7 10  2  3
 10 11  1  0
 11 12  2  0
 12 13  1  0
 12 14  1  0
 14 15  1  0
 15 16  2  0
 15 17  1  0
 17 18  1  0
 18 19  2  0
 18 11  1  0
  1 20  1  0
  1 21  1  0
  2 22  1  0
  3 23  1  0
  3 24  1  0
 10 25  1  0
M  CHG  4   4  -1  13  -1  14  -1  17  -1
M  END
>  <UniqueID>  (65) 
59

>  <SMILES>  (65) 
C=CC[N-]C(=O)C(C#N)=Cc1c([O-])[n-]c(=O)[n-]c1=O

>  <Energy>  (65) 
32.125673740762615

>  <Genealogy>  (65) 
C=CC[N-]C(=O)C(C#N)=Cc1c([O-])[n-]c(=O)[n-]c1=O (protonated)
C=CC[N-]C(=O)C(C#N)=Cc1c([O-])[n-]c(=O)[n-]c1=O (3D coordinates assigned)
C=CC[N-]C(=O)C(C#N)=Cc1c([O-])[n-]c(=O)[n-]c1=O (optimized conformer: 32.125673740762615 kcal/mol)

>  <smiles>  (65) 
C=CCNC(=O)C(C#N)=Cc1c(O)[nH]c(=O)[nH]c1=O

>  <score_type>  (65) 
oracle

>  <origin>  (65) 
adg

>  <m_score__min__energy>  (65) 
-15.27

>  <m_primary>  (65) 
energy

$$$$
65:0
     RDKit          3D

 34 36  0  0  0  0  0  0  0  0999 V2000
   59.8160   34.9240   46.5350 C   0  0  0  0  0  0  0  0  0  0  0  0
   59.0880   33.8450   45.9460 N   0  0  0  0  0  0  0  0  0  0  0  0
   59.0690   33.9870   44.5030 C   0  0  0  0  0  0  0  0  0  0  0  0
   58.4170   32.8100   43.8180 C   0  0  0  0  0  0  0  0  0  0  0  0
   57.5960   32.1720   44.8680 N   0  0  0  0  0  0  0  0  0  0  0  0
   57.6890   30.7920   44.9890 C   0  0  0  0  0  0  0  0  0  0  0  0
   58.3960   30.2940   46.0500 N   0  0  0  0  0  0  0  0  0  0  0  0
   58.5760   28.9830   46.2530 C   0  0  0  0  0  0  0  0  0  0  0  0
   59.3400   28.4930   47.4010 C   0  0  0  0  0  0  0  0  0  0  0  0
   59.6610   29.1430   48.5600 C   0  0  0  0  0  0  0  0  0  0  0  0
   60.3760   28.4940   49.4810 C   0  0  0  0  0  0  0  0  0  0  0  0
   60.7440   27.1890   49.1870 C   0  0  0  0  0  0  0  0  0  0  0  0
   60.0620   26.8650   47.5630 S   0  0  0  0  0  0  0  0  0  0  0  0
   58.0500   28.0910   45.3930 N   0  0  0  0  0  0  0  0  0  0  0  0
   57.3420   28.5060   44.3310 N   0  0  0  0  0  0  0  0  0  0  0  0
   57.1700   29.8460   44.1400 C   0  0  0  0  0  0  0  0  0  0  0  0
   56.2790   30.2690   42.8480 S   0  0  0  0  0  0  0  0  0  0  0  0
   56.7800   33.0920   45.6240 C   0  0  0  0  0  0  0  0  0  0  0  0
   57.7530   33.8430   46.5290 C   0  0  0  0  0  0  0  0  0  0  0  0
   59.7637   34.8465   47.6310 H   0  0  0  0  0  0  0  0  0  0  0  0
   60.8669   34.8758   46.2137 H   0  0  0  0  0  0  0  0  0  0  0  0
   59.3779   35.8805   46.2137 H   0  0  0  0  0  0  0  0  0  0  0  0
   58.5113   34.8994   44.2450 H   0  0  0  0  0  0  0  0  0  0  0  0
   60.1119   34.0411   44.1573 H   0  0  0  0  0  0  0  0  0  0  0  0
   57.7851   33.1482   42.9836 H   0  0  0  0  0  0  0  0  0  0  0  0
   59.1556   32.1169   43.3889 H   0  0  0  0  0  0  0  0  0  0  0  0
   59.3364   30.1802   48.7300 H   0  0  0  0  0  0  0  0  0  0  0  0
   60.6606   28.9719   50.4300 H   0  0  0  0  0  0  0  0  0  0  0  0
   61.3287   26.5015   49.8159 H   0  0  0  0  0  0  0  0  0  0  0  0
   56.9340   27.8110   43.6620 H   0  0  0  0  0  0  0  0  0  0  0  0
   56.2624   33.7910   44.9505 H   0  0  0  0  0  0  0  0  0  0  0  0
   56.0018   32.5711   46.2011 H   0  0  0  0  0  0  0  0  0  0  0  0
   57.4085   34.8806   46.6501 H   0  0  0  0  0  0  0  0  0  0  0  0
   57.7909   33.3415   47.5073 H   0  0  0  0  0  0  0  0  0  0  0  0
  1  2  1  0
  2  3  1  0
  3  4  1  0
  4  5  1  0
  5  6  1  0
  6  7  2  0
  7  8  1  0
  8  9  1  0
  9 10  2  0
 10 11  1  0
 11 12  2  0
 12 13  1  0
  8 14  2  0
 14 15  1  0
 15 16  1  0
 16 17  2  0
  5 18  1  0
 18 19  1  0
 19  2  1  0
 16  6  1  0
 13  9  1  0
  1 20  1  0
  1 21  1  0
  1 22  1  0
  3 23  1  0
  3 24  1  0
  4 25  1  0
  4 26  1  0
 10 27  1  0
 11 28  1  0
 12 29  1  0
 15 30  1  0
 18 31  1  0
 18 32  1  0
 19 33  1  0
 19 34  1  0
M  END
>  <smiles>  (66) 
CN1CCN(c2nc(-c3cccs3)n[nH]c2=S)CC1

>  <score_type>  (66) 
oracle

>  <origin>  (66) 
adg

>  <m_score__min__energy>  (66) 
-6.8700000000000001

>  <m_primary>  (66) 
energy

$$$$
66:0
     RDKit          3D

 53 55  0  0  0  0  0  0  0  0999 V2000
   58.4030   34.2350   45.9030 C   0  0  0  0  0  0  0  0  0  0  0  0
   59.3850   33.8250   46.9590 C   0  0  0  0  0  0  0  0  0  0  0  0
   60.0520   34.7250   47.5380 O   0  0  0  0  0  0  0  0  0  0  0  0
   59.5850   32.4000   47.3360 C   0  0  0  0  0  0  0  0  0  0  0  0
   60.5940   31.6190   46.7420 C   0  0  0  0  0  0  0  0  0  0  0  0
   60.7680   30.2820   47.1080 C   0  0  0  0  0  0  0  0  0  0  0  0
   59.9390   29.6960   48.0810 C   0  0  0  0  0  0  0  0  0  0  0  0
   60.0650   28.3510   48.4600 O   0  0  0  0  0  0  0  0  0  0  0  0
   59.5590   27.2620   47.7410 C   0  0  0  0  0  0  0  0  0  0  0  0
   60.3330   26.3750   47.2870 O   0  0  0  0  0  0  0  0  0  0  0  0
   58.1430   27.1480   47.5630 N   0  0  0  0  0  0  0  0  0  0  0  0
   57.4710   26.1350   46.7450 C   0  0  2  0  0  0  0  0  0  0  0  0
   58.4280   25.5260   45.6990 C   0  0  0  0  0  0  0  0  0  0  0  0
   57.7500   24.4390   44.9030 C   0  0  0  0  0  0  0  0  0  0  0  0
   57.8750   23.0950   45.2920 C   0  0  0  0  0  0  0  0  0  0  0  0
   57.2690   22.0840   44.5390 C   0  0  0  0  0  0  0  0  0  0  0  0
   56.5430   22.4060   43.3890 C   0  0  0  0  0  0  0  0  0  0  0  0
   55.9420   21.4000   42.6420 O   0  0  0  0  0  0  0  0  0  0  0  0
   56.4230   23.7410   42.9900 C   0  0  0  0  0  0  0  0  0  0  0  0
   57.0260   24.7550   43.7410 C   0  0  0  0  0  0  0  0  0  0  0  0
   56.2280   26.7180   46.1290 C   0  0  0  0  0  0  0  0  0  0  0  0
   55.1660   26.0400   46.0510 O   0  0  0  0  0  0  0  0  0  0  0  0
   56.2870   28.0280   45.5570 N   0  0  0  0  0  0  0  0  0  0  0  0
   57.4780   28.8690   45.5920 C   0  0  0  0  0  0  0  0  0  0  0  0
   57.4490   29.8520   44.4540 C   0  0  0  0  0  0  0  0  0  0  0  0
   58.1670   31.0570   44.5280 C   0  0  0  0  0  0  0  0  0  0  0  0
   58.1350   31.9630   43.4620 C   0  0  0  0  0  0  0  0  0  0  0  0
   57.3790   31.6760   42.3210 C   0  0  0  0  0  0  0  0  0  0  0  0
   56.6470   30.4880   42.2490 C   0  0  0  0  0  0  0  0  0  0  0  0
   56.6790   29.5790   43.3110 C   0  0  0  0  0  0  0  0  0  0  0  0
   58.9250   30.4630   48.6610 C   0  0  0  0  0  0  0  0  0  0  0  0
   58.7500   31.8020   48.3000 C   0  0  0  0  0  0  0  0  0  0  0  0
   57.4887   34.6167   46.3809 H   0  0  0  0  0  0  0  0  0  0  0  0
   58.8459   35.0234   45.2767 H   0  0  0  0  0  0  0  0  0  0  0  0
   58.1538   33.3657   45.2767 H   0  0  0  0  0  0  0  0  0  0  0  0
   61.2521   32.0657   45.9821 H   0  0  0  0  0  0  0  0  0  0  0  0
   61.5588   29.6837   46.6319 H   0  0  0  0  0  0  0  0  0  0  0  0
   57.1623   25.2998   47.3908 H   0  0  0  0  0  0  0  0  0  0  0  0
   58.7599   26.3188   45.0125 H   0  0  0  0  0  0  0  0  0  0  0  0
   59.2857   25.0852   46.2282 H   0  0  0  0  0  0  0  0  0  0  0  0
   58.4517   22.8366   46.1923 H   0  0  0  0  0  0  0  0  0  0  0  0
   57.3640   21.0339   44.8524 H   0  0  0  0  0  0  0  0  0  0  0  0
   55.8532   23.9940   42.0837 H   0  0  0  0  0  0  0  0  0  0  0  0
   56.9332   25.8033   43.4210 H   0  0  0  0  0  0  0  0  0  0  0  0
   57.5090   29.4167   46.5454 H   0  0  0  0  0  0  0  0  0  0  0  0
   58.3709   28.2336   45.4968 H   0  0  0  0  0  0  0  0  0  0  0  0
   58.7566   31.2893   45.4271 H   0  0  0  0  0  0  0  0  0  0  0  0
   58.7051   32.9019   43.5216 H   0  0  0  0  0  0  0  0  0  0  0  0
   57.3606   32.3853   41.4804 H   0  0  0  0  0  0  0  0  0  0  0  0
   56.0446   30.2675   41.3554 H   0  0  0  0  0  0  0  0  0  0  0  0
   56.0989   28.6463   43.2513 H   0  0  0  0  0  0  0  0  0  0  0  0
   58.2582   30.0087   49.4087 H   0  0  0  0  0  0  0  0  0  0  0  0
   57.9528   32.3942   48.7731 H   0  0  0  0  0  0  0  0  0  0  0  0
  1  2  1  0
  2  3  2  0
  2  4  1  0
  4  5  2  0
  5  6  1  0
  6  7  2  0
  7  8  1  0
  8  9  1  0
  9 10  2  0
  9 11  1  0
 11 12  1  0
 12 13  1  0
 13 14  1  0
 14 15  2  0
 15 16  1  0
 16 17  2  0
 17 18  1  0
 17 19  1  0
 19 20  2  0
 12 21  1  0
 21 22  2  0
 21 23  1  0
 23 24  1  0
 24 25  1  0
 25 26  2  0
 26 27  1  0
 27 28  2  0
 28 29  1  0
 29 30  2  0
  7 31  1  0
 31 32  2  0
 32  4  1  0
 20 14  1  0
 30 25  1  0
  1 33  1  0
  1 34  1  0
  1 35  1  0
  5 36  1  0
  6 37  1  0
 12 38  1  1
 13 39  1  0
 13 40  1  0
 15 41  1  0
 16 42  1  0
 19 43  1  0
 20 44  1  0
 24 45  1  0
 24 46  1  0
 26 47  1  0
 27 48  1  0
 28 49  1  0
 29 50  1  0
 30 51  1  0
 31 52  1  0
 32 53  1  0
M  CHG  3  11  -1  18  -1  23  -1
M  END
>  <UniqueID>  (67) 
60

>  <SMILES>  (67) 
CC(=O)c1ccc(OC(=O)[N-][C@H](Cc2ccc([O-])cc2)C(=O)[N-]Cc2ccccc2)cc1

>  <Energy>  (67) 
52.331168727074086

>  <Genealogy>  (67) 
CC(=O)c1ccc(OC(=O)[N-]C(Cc2ccc([O-])cc2)C(=O)[N-]Cc2ccccc2)cc1 (protonated)
CC(=O)c1ccc(OC(=O)[N-][C@H](Cc2ccc([O-])cc2)C(=O)[N-]Cc2ccccc2)cc1 (chirality)
CC(=O)c1ccc(OC(=O)[N-][C@H](Cc2ccc([O-])cc2)C(=O)[N-]Cc2ccccc2)cc1 (3D coordinates assigned)
CC(=O)c1ccc(OC(=O)[N-][C@H](Cc2ccc([O-])cc2)C(=O)[N-]Cc2ccccc2)cc1 (optimized conformer: 52.331168727074086 kcal/mol)

>  <smiles>  (67) 
CC(=O)c1ccc(OC(=O)NC(Cc2ccc(O)cc2)C(=O)NCc2ccccc2)cc1

>  <score_type>  (67) 
oracle

>  <origin>  (67) 
adg

>  <m_score__min__energy>  (67) 
-13.82

>  <m_primary>  (67) 
energy

$$$$
67:0
     RDKit          3D

 43 45  0  0  0  0  0  0  0  0999 V2000
   55.1470   29.3370   44.8440 O   0  0  0  0  0  0  0  0  0  0  0  0
   56.2770   29.8360   44.5980 C   0  0  0  0  0  0  0  0  0  0  0  0
   57.4130   28.9420   44.1600 C   0  0  0  0  0  0  0  0  0  0  0  0
   58.6550   29.0500   45.0600 C   0  0  0  0  0  0  0  0  0  0  0  0
   58.3510   28.7430   46.4610 N   0  0  0  0  0  0  0  0  0  0  0  0
   59.7740   28.3100   47.3680 S   0  0  0  0  0  0  0  0  0  0  0  0
   59.4290   27.3240   48.4510 O   0  0  0  0  0  0  0  0  0  0  0  0
   60.7700   27.6740   46.4390 O   0  0  0  0  0  0  0  0  0  0  0  0
   60.5020   29.7540   48.0640 C   0  0  0  0  0  0  0  0  0  0  0  0
   60.3380   30.0520   49.4240 C   0  0  0  0  0  0  0  0  0  0  0  0
   60.9030   31.2090   49.9670 C   0  0  0  0  0  0  0  0  0  0  0  0
   61.6340   32.0860   49.1520 C   0  0  0  0  0  0  0  0  0  0  0  0
   62.1820   33.2650   49.6790 C   0  0  0  0  0  0  0  0  0  0  0  0
   62.8910   34.1400   48.8510 C   0  0  0  0  0  0  0  0  0  0  0  0
   63.0620   33.8450   47.4960 C   0  0  0  0  0  0  0  0  0  0  0  0
   62.5240   32.6720   46.9590 C   0  0  0  0  0  0  0  0  0  0  0  0
   61.8060   31.7870   47.7780 C   0  0  0  0  0  0  0  0  0  0  0  0
   61.2420   30.6180   47.2460 C   0  0  0  0  0  0  0  0  0  0  0  0
   56.4660   31.2410   44.8160 N   0  0  0  0  0  0  0  0  0  0  0  0
   57.5220   32.0580   44.2260 C   0  0  0  0  0  0  0  0  0  0  0  0
   58.1580   32.9270   45.2700 C   0  0  0  0  0  0  0  0  0  0  0  0
   58.0650   32.6020   46.6320 C   0  0  0  0  0  0  0  0  0  0  0  0
   58.6550   33.4430   47.5780 C   0  0  0  0  0  0  0  0  0  0  0  0
   59.3380   34.5880   47.1610 C   0  0  0  0  0  0  0  0  0  0  0  0
   59.4230   34.8730   45.7970 C   0  0  0  0  0  0  0  0  0  0  0  0
   58.8350   34.0470   44.8900 N   0  0  0  0  0  0  0  0  0  0  0  0
   57.0619   27.8996   44.1735 H   0  0  0  0  0  0  0  0  0  0  0  0
   57.7122   29.2661   43.1523 H   0  0  0  0  0  0  0  0  0  0  0  0
   59.4166   28.3429   44.6994 H   0  0  0  0  0  0  0  0  0  0  0  0
   59.0180   30.0873   45.0123 H   0  0  0  0  0  0  0  0  0  0  0  0
   59.7613   29.3712   50.0674 H   0  0  0  0  0  0  0  0  0  0  0  0
   60.7742   31.4326   51.0363 H   0  0  0  0  0  0  0  0  0  0  0  0
   62.0535   33.5013   50.7456 H   0  0  0  0  0  0  0  0  0  0  0  0
   63.3162   35.0649   49.2680 H   0  0  0  0  0  0  0  0  0  0  0  0
   63.6215   34.5377   46.8501 H   0  0  0  0  0  0  0  0  0  0  0  0
   62.6637   32.4421   45.8924 H   0  0  0  0  0  0  0  0  0  0  0  0
   61.3813   30.3784   46.1815 H   0  0  0  0  0  0  0  0  0  0  0  0
   58.2867   31.4000   43.7876 H   0  0  0  0  0  0  0  0  0  0  0  0
   57.0830   32.6996   43.4478 H   0  0  0  0  0  0  0  0  0  0  0  0
   57.5327   31.6939   46.9513 H   0  0  0  0  0  0  0  0  0  0  0  0
   58.5820   33.2043   48.6493 H   0  0  0  0  0  0  0  0  0  0  0  0
   59.8036   35.2576   47.8991 H   0  0  0  0  0  0  0  0  0  0  0  0
   59.9660   35.7665   45.4553 H   0  0  0  0  0  0  0  0  0  0  0  0
  1  2  2  0
  2  3  1  0
  3  4  1  0
  4  5  1  0
  5  6  1  0
  6  7  2  0
  6  8  2  0
  6  9  1  0
  9 10  2  0
 10 11  1  0
 11 12  2  0
 12 13  1  0
 13 14  2  0
 14 15  1  0
 15 16  2  0
 16 17  1  0
 17 18  2  0
  2 19  1  0
 19 20  1  0
 20 21  1  0
 21 22  2  0
 22 23  1  0
 23 24  2  0
 24 25  1  0
 25 26  2  0
 18  9  1  0
 26 21  1  0
 17 12  1  0
  3 27  1  0
  3 28  1  0
  4 29  1  0
  4 30  1  0
 10 31  1  0
 11 32  1  0
 13 33  1  0
 14 34  1  0
 15 35  1  0
 16 36  1  0
 18 37  1  0
 20 38  1  0
 20 39  1  0
 22 40  1  0
 23 41  1  0
 24 42  1  0
 25 43  1  0
M  CHG  2   5  -1  19  -1
M  END
>  <UniqueID>  (68) 
61

>  <SMILES>  (68) 
O=C(CC[N-]S(=O)(=O)c1ccc2ccccc2c1)[N-]Cc1ccccn1

>  <Energy>  (68) 
41.630285705146996

>  <Genealogy>  (68) 
O=C(CC[N-]S(=O)(=O)c1ccc2ccccc2c1)[N-]Cc1ccccn1 (protonated)
O=C(CC[N-]S(=O)(=O)c1ccc2ccccc2c1)[N-]Cc1ccccn1 (3D coordinates assigned)
O=C(CC[N-]S(=O)(=O)c1ccc2ccccc2c1)[N-]Cc1ccccn1 (optimized conformer: 41.630285705146996 kcal/mol)

>  <smiles>  (68) 
O=C(CCNS(=O)(=O)c1ccc2ccccc2c1)NCc1ccccn1

>  <score_type>  (68) 
oracle

>  <origin>  (68) 
adg

>  <m_score__min__energy>  (68) 
-12.779999999999999

>  <m_primary>  (68) 
energy

$$$$
68:0
     RDKit          3D

 46 48  0  0  0  0  0  0  0  0999 V2000
   54.7210   26.3280   45.9600 O   0  0  0  0  0  0  0  0  0  0  0  0
   55.8320   25.8250   46.2760 C   0  0  0  0  0  0  0  0  0  0  0  0
   55.8910   24.8700   47.2830 O   0  0  0  0  0  0  0  0  0  0  0  0
   57.0870   26.2730   45.5950 C   0  0  0  0  0  0  0  0  0  0  0  0
   57.0390   27.7440   45.3080 C   0  0  0  0  0  0  0  0  0  0  0  0
   55.8930   28.4390   45.1870 N   0  0  0  0  0  0  0  0  0  0  0  0
   56.3150   29.6860   44.8930 C   0  0  0  0  0  0  0  0  0  0  0  0
   55.5220   30.6440   44.7070 O   0  0  0  0  0  0  0  0  0  0  0  0
   57.6540   29.8230   44.8100 N   0  0  0  0  0  0  0  0  0  0  0  0
   58.1090   28.5850   45.0670 C   0  0  0  0  0  0  0  0  0  0  0  0
   59.5650   28.2200   45.0770 C   0  0  0  0  0  0  0  0  0  0  0  0
   60.3740   29.3690   45.3250 O   0  0  0  0  0  0  0  0  0  0  0  0
   60.3920   30.1110   46.5170 C   0  0  0  0  0  0  0  0  0  0  0  0
   61.4750   30.9650   46.7480 C   0  0  0  0  0  0  0  0  0  0  0  0
   61.5390   31.7350   47.9130 C   0  0  0  0  0  0  0  0  0  0  0  0
   60.5130   31.6640   48.8700 C   0  0  0  0  0  0  0  0  0  0  0  0
   60.5920   32.4350   50.0850 N   0  0  0  0  0  0  0  0  0  0  0  0
   59.6420   33.5560   50.0300 C   0  0  0  0  0  0  0  0  0  0  0  0
   60.0250   34.5730   48.9430 C   0  0  0  0  0  0  0  0  0  0  0  0
   59.3350   34.2840   47.6340 C   0  0  0  0  0  0  0  0  0  0  0  0
   58.1640   33.5070   47.6110 C   0  0  0  0  0  0  0  0  0  0  0  0
   57.5080   33.2590   46.4010 C   0  0  0  0  0  0  0  0  0  0  0  0
   58.0120   33.7870   45.2090 C   0  0  0  0  0  0  0  0  0  0  0  0
   59.1730   34.5660   45.2250 C   0  0  0  0  0  0  0  0  0  0  0  0
   59.8320   34.8160   46.4330 C   0  0  0  0  0  0  0  0  0  0  0  0
   59.4340   30.7900   48.6490 C   0  0  0  0  0  0  0  0  0  0  0  0
   59.3710   30.0210   47.4830 C   0  0  0  0  0  0  0  0  0  0  0  0
   57.9471   26.0603   46.2469 H   0  0  0  0  0  0  0  0  0  0  0  0
   57.1856   25.7303   44.6433 H   0  0  0  0  0  0  0  0  0  0  0  0
   59.7446   27.4753   45.8664 H   0  0  0  0  0  0  0  0  0  0  0  0
   59.8316   27.8070   44.0930 H   0  0  0  0  0  0  0  0  0  0  0  0
   62.2843   31.0315   46.0059 H   0  0  0  0  0  0  0  0  0  0  0  0
   62.3983   32.4008   48.0815 H   0  0  0  0  0  0  0  0  0  0  0  0
   61.5660   32.7980   50.2100 H   0  0  0  0  0  0  0  0  0  0  0  0
   60.3700   31.8170   50.9000 H   0  0  0  0  0  0  0  0  0  0  0  0
   58.6383   33.1623   49.8120 H   0  0  0  0  0  0  0  0  0  0  0  0
   59.6613   34.0698   51.0024 H   0  0  0  0  0  0  0  0  0  0  0  0
   59.7386   35.5798   49.2812 H   0  0  0  0  0  0  0  0  0  0  0  0
   61.1104   34.5035   48.7786 H   0  0  0  0  0  0  0  0  0  0  0  0
   57.7623   33.0927   48.5475 H   0  0  0  0  0  0  0  0  0  0  0  0
   56.5938   32.6474   46.3874 H   0  0  0  0  0  0  0  0  0  0  0  0
   57.4952   33.5897   44.2582 H   0  0  0  0  0  0  0  0  0  0  0  0
   59.5684   34.9825   44.2868 H   0  0  0  0  0  0  0  0  0  0  0  0
   60.7434   35.4319   46.4425 H   0  0  0  0  0  0  0  0  0  0  0  0
   58.6334   30.7106   49.3991 H   0  0  0  0  0  0  0  0  0  0  0  0
   58.5205   29.3429   47.3194 H   0  0  0  0  0  0  0  0  0  0  0  0
  1  2  2  0
  2  3  1  0
  2  4  1  0
  4  5  1  0
  5  6  1  0
  6  7  1  0
  7  8  2  0
  7  9  1  0
  9 10  1  0
 10 11  1  0
 11 12  1  0
 12 13  1  0
 13 14  2  0
 14 15  1  0
 15 16  2  0
 16 17  1  0
 17 18  1  0
 18 19  1  0
 19 20  1  0
 20 21  2  0
 21 22  1  0
 22 23  2  0
 23 24  1  0
 24 25  2  0
 16 26  1  0
 26 27  2  0
 10  5  2  0
 27 13  1  0
 25 20  1  0
  4 28  1  0
  4 29  1  0
 11 30  1  0
 11 31  1  0
 14 32  1  0
 15 33  1  0
 17 34  1  0
 17 35  1  0
 18 36  1  0
 18 37  1  0
 19 38  1  0
 19 39  1  0
 21 40  1  0
 22 41  1  0
 23 42  1  0
 24 43  1  0
 25 44  1  0
 26 45  1  0
 27 46  1  0
M  CHG  4   3  -1   6  -1   9  -1  17   1
M  END
>  <UniqueID>  (69) 
62

>  <SMILES>  (69) 
O=C([O-])Cc1[n-]c(=O)[n-]c1COc1ccc([NH2+]CCc2ccccc2)cc1

>  <Energy>  (69) 
71.19758960079581

>  <Genealogy>  (69) 
O=C([O-])Cc1[n-]c(=O)[n-]c1COc1ccc([NH2+]CCc2ccccc2)cc1 (protonated)
O=C([O-])Cc1[n-]c(=O)[n-]c1COc1ccc([NH2+]CCc2ccccc2)cc1 (3D coordinates assigned)
O=C([O-])Cc1[n-]c(=O)[n-]c1COc1ccc([NH2+]CCc2ccccc2)cc1 (optimized conformer: 71.19758960079581 kcal/mol)

>  <smiles>  (69) 
O=C(O)Cc1[nH]c(=O)[nH]c1COc1ccc(NCCc2ccccc2)cc1

>  <score_type>  (69) 
oracle

>  <origin>  (69) 
adg

>  <m_score__min__energy>  (69) 
-13.51

>  <m_primary>  (69) 
energy

$$$$
69:0
     RDKit          3D

 27 28  0  0  0  0  0  0  0  0999 V2000
   57.7520   31.5680   43.2260 C   0  0  0  0  0  0  0  0  0  0  0  0
   56.6870   30.0970   43.1150 S   0  0  0  0  0  0  0  0  0  0  0  0
   57.4680   29.2780   44.5050 C   0  0  0  0  0  0  0  0  0  0  0  0
   58.5380   29.8870   45.1650 C   0  0  0  0  0  0  0  0  0  0  0  0
   59.1440   29.2530   46.2520 C   0  0  0  0  0  0  0  0  0  0  0  0
   58.6820   28.0030   46.6990 C   0  0  0  0  0  0  0  0  0  0  0  0
   59.3440   27.3630   47.8890 C   0  0  0  0  0  0  0  0  0  0  0  0
   57.6140   27.3730   46.0150 C   0  0  0  0  0  0  0  0  0  0  0  0
   57.1370   26.0730   46.4030 N   0  0  0  0  0  0  0  0  0  0  0  0
   57.8760   25.0280   46.8160 C   0  0  0  0  0  0  0  0  0  0  0  0
   57.0180   23.9690   47.0140 C   0  0  0  0  0  0  0  0  0  0  0  0
   57.3860   22.6980   47.4440 O   0  0  0  0  0  0  0  0  0  0  0  0
   55.7480   24.3200   46.7270 N   0  0  0  0  0  0  0  0  0  0  0  0
   55.8690   25.6090   46.3520 C   0  0  0  0  0  0  0  0  0  0  0  0
   54.8850   26.3120   45.9970 O   0  0  0  0  0  0  0  0  0  0  0  0
   57.0070   28.0290   44.9310 C   0  0  0  0  0  0  0  0  0  0  0  0
   57.9295   31.8132   44.2835 H   0  0  0  0  0  0  0  0  0  0  0  0
   58.7127   31.3634   42.7308 H   0  0  0  0  0  0  0  0  0  0  0  0
   57.2577   32.4168   42.7308 H   0  0  0  0  0  0  0  0  0  0  0  0
   58.9041   30.8680   44.8279 H   0  0  0  0  0  0  0  0  0  0  0  0
   59.9901   29.7361   46.7627 H   0  0  0  0  0  0  0  0  0  0  0  0
   58.9156   27.7771   48.8137 H   0  0  0  0  0  0  0  0  0  0  0  0
   59.1759   26.2763   47.8617 H   0  0  0  0  0  0  0  0  0  0  0  0
   60.4244   27.5677   47.8617 H   0  0  0  0  0  0  0  0  0  0  0  0
   58.9655   25.0205   46.9678 H   0  0  0  0  0  0  0  0  0  0  0  0
   57.7300   22.5480   48.3850 H   0  0  0  0  0  0  0  0  0  0  0  0
   56.1606   27.5551   44.4124 H   0  0  0  0  0  0  0  0  0  0  0  0
  1  2  1  0
  2  3  1  0
  3  4  2  0
  4  5  1  0
  5  6  2  0
  6  7  1  0
  6  8  1  0
  8  9  1  0
  9 10  1  0
 10 11  2  0
 11 12  1  0
 11 13  1  0
 13 14  1  0
 14 15  2  0
  8 16  2  0
 16  3  1  0
 14  9  1  0
  1 17  1  0
  1 18  1  0
  1 19  1  0
  4 20  1  0
  5 21  1  0
  7 22  1  0
  7 23  1  0
  7 24  1  0
 10 25  1  0
 12 26  1  0
 16 27  1  0
M  CHG  1  13  -1
M  END
>  <UniqueID>  (70) 
63

>  <SMILES>  (70) 
CSc1ccc(C)c(-n2cc(O)[n-]c2=O)c1

>  <Energy>  (70) 
60.051628313927665

>  <Genealogy>  (70) 
CSc1ccc(C)c(-n2cc(O)[n-]c2=O)c1 (protonated)
CSc1ccc(C)c(-n2cc(O)[n-]c2=O)c1 (3D coordinates assigned)
CSc1ccc(C)c(-n2cc(O)[n-]c2=O)c1 (optimized conformer: 60.051628313927665 kcal/mol)

>  <smiles>  (70) 
CSc1ccc(C)c(-n2cc(O)[nH]c2=O)c1

>  <score_type>  (70) 
oracle

>  <origin>  (70) 
adg

>  <m_score__min__energy>  (70) 
-8.4800000000000004

>  <m_primary>  (70) 
energy

$$$$
70:0
     RDKit          3D

 47 49  0  0  0  0  0  0  0  0999 V2000
   55.8360   27.1330   46.6100 H   0  0  0  0  0  0  0  0  0  0  0  0
   55.1440   26.7040   46.0090 O   0  0  0  0  0  0  0  0  0  0  0  0
   55.0700   25.3270   45.7910 C   0  0  0  0  0  0  0  0  0  0  0  0
   53.8570   24.7860   45.5010 N   0  0  0  0  0  0  0  0  0  0  0  0
   53.6930   23.4610   45.2290 C   0  0  0  0  0  0  0  0  0  0  0  0
   52.5200   22.9780   44.9450 N   0  0  0  0  0  0  0  0  0  0  0  0
   51.3850   23.7880   44.5170 C   0  0  0  0  0  0  0  0  0  0  0  0
   50.8520   24.1684   45.4008 H   0  0  0  0  0  0  0  0  0  0  0  0
   51.7453   24.6343   43.9137 H   0  0  0  0  0  0  0  0  0  0  0  0
   50.7018   23.1722   43.9137 H   0  0  0  0  0  0  0  0  0  0  0  0
   54.8010   22.6110   45.2450 C   0  0  0  0  0  0  0  0  0  0  0  0
   54.6823   21.5402   45.0229 H   0  0  0  0  0  0  0  0  0  0  0  0
   56.0590   23.1320   45.5450 C   0  0  0  0  0  0  0  0  0  0  0  0
   56.9362   22.4685   45.5591 H   0  0  0  0  0  0  0  0  0  0  0  0
   56.2130   24.4970   45.8290 C   0  0  0  0  0  0  0  0  0  0  0  0
   57.5600   25.0210   46.1440 C   0  0  0  0  0  0  0  0  0  0  0  0
   58.5730   24.3450   45.8290 O   0  0  0  0  0  0  0  0  0  0  0  0
   57.7520   26.3250   46.7130 N   0  0  0  0  0  0  0  0  0  0  0  0
   58.2400   27.5040   46.0460 C   0  0  0  0  0  0  0  0  0  0  0  0
   57.3610   28.5090   45.6050 C   0  0  0  0  0  0  0  0  0  0  0  0
   56.2774   28.3782   45.7420 H   0  0  0  0  0  0  0  0  0  0  0  0
   57.8440   29.6780   44.9920 C   0  0  0  0  0  0  0  0  0  0  0  0
   56.9120   30.7260   44.4960 C   0  0  0  0  0  0  0  0  0  0  0  0
   56.2550   30.5170   43.4430 O   0  0  0  0  0  0  0  0  0  0  0  0
   56.6750   31.9460   45.2140 N   0  0  0  0  0  0  0  0  0  0  0  0
   57.6570   32.9330   45.5620 C   0  0  0  0  0  0  0  0  0  0  0  0
   58.3000   33.6390   44.5390 C   0  0  0  0  0  0  0  0  0  0  0  0
   58.0618   33.4181   43.4881 H   0  0  0  0  0  0  0  0  0  0  0  0
   59.2430   34.6230   44.8460 C   0  0  0  0  0  0  0  0  0  0  0  0
   59.7368   35.1815   44.0371 H   0  0  0  0  0  0  0  0  0  0  0  0
   59.5600   34.8990   46.1780 C   0  0  0  0  0  0  0  0  0  0  0  0
   60.2983   35.6788   46.4163 H   0  0  0  0  0  0  0  0  0  0  0  0
   58.9390   34.1840   47.2120 C   0  0  0  0  0  0  0  0  0  0  0  0
   59.2720   34.4570   48.5770 N   0  0  0  0  0  0  0  0  0  0  0  0
   59.6110   33.6960   49.2070 H   0  0  0  0  0  0  0  0  0  0  0  0
   59.1720   35.4190   48.9690 H   0  0  0  0  0  0  0  0  0  0  0  0
   57.9930   33.1970   46.9010 C   0  0  0  0  0  0  0  0  0  0  0  0
   57.5114   32.6265   47.7089 H   0  0  0  0  0  0  0  0  0  0  0  0
   59.2270   29.8260   44.8120 C   0  0  0  0  0  0  0  0  0  0  0  0
   59.6188   30.7241   44.3121 H   0  0  0  0  0  0  0  0  0  0  0  0
   60.1110   28.8430   45.2620 C   0  0  0  0  0  0  0  0  0  0  0  0
   61.1939   28.9781   45.1240 H   0  0  0  0  0  0  0  0  0  0  0  0
   59.6280   27.6840   45.8890 C   0  0  0  0  0  0  0  0  0  0  0  0
   60.5920   26.6370   46.3750 C   0  0  0  0  0  0  0  0  0  0  0  0
   60.6000   26.6283   47.4749 H   0  0  0  0  0  0  0  0  0  0  0  0
   60.2798   25.6501   46.0028 H   0  0  0  0  0  0  0  0  0  0  0  0
   61.6013   26.8668   46.0028 H   0  0  0  0  0  0  0  0  0  0  0  0
  1  2  1  0
  2  3  1  0
  3  4  1  0
  4  5  1  0
  5  6  2  0
  6  7  1  0
  7  8  1  0
  7  9  1  0
  7 10  1  0
  5 11  1  0
 11 12  1  0
 11 13  2  0
 13 14  1  0
 13 15  1  0
 15 16  1  0
 16 17  2  0
 16 18  1  0
 18 19  1  0
 19 20  2  0
 20 21  1  0
 20 22  1  0
 22 23  1  0
 23 24  2  0
 23 25  1  0
 25 26  1  0
 26 27  2  0
 27 28  1  0
 27 29  1  0
 29 30  1  0
 29 31  2  0
 31 32  1  0
 31 33  1  0
 33 34  1  0
 34 35  1  0
 34 36  1  0
 33 37  2  0
 37 38  1  0
 22 39  2  0
 39 40  1  0
 39 41  1  0
 41 42  1  0
 41 43  2  0
 43 44  1  0
 44 45  1  0
 44 46  1  0
 44 47  1  0
 15  3  2  0
 43 19  1  0
 37 26  1  0
M  CHG  3   4  -1  18  -1  25  -1
M  END
>  <UniqueID>  (71) 
64

>  <SMILES>  (71) 
C/N=c1/ccc(C(=O)[N-]c2cc(C(=O)[N-]c3cccc(N)c3)ccc2C)c(O)[n-]1

>  <Energy>  (71) 
62.62787006158726

>  <Genealogy>  (71) 
CN=c1ccc(C(=O)[N-]c2cc(C(=O)[N-]c3cccc(N)c3)ccc2C)c(O)[n-]1 (protonated)
C/N=c1/ccc(C(=O)[N-]c2cc(C(=O)[N-]c3cccc(N)c3)ccc2C)c(O)[n-]1 (cis-trans isomerization)
C/N=c1/ccc(C(=O)[N-]c2cc(C(=O)[N-]c3cccc(N)c3)ccc2C)c(O)[n-]1 (3D coordinates assigned)
C/N=c1/ccc(C(=O)[N-]c2cc(C(=O)[N-]c3cccc(N)c3)ccc2C)c(O)[n-]1 (optimized conformer: 62.62787006158726 kcal/mol)

>  <smiles>  (71) 
CN=c1ccc(C(=O)Nc2cc(C(=O)Nc3cccc(N)c3)ccc2C)c(O)[nH]1

>  <score_type>  (71) 
oracle

>  <origin>  (71) 
adg

>  <m_score__min__energy>  (71) 
-14.449999999999999

>  <m_primary>  (71) 
energy

$$$$
71:0
     RDKit          3D

 55 58  0  0  0  0  0  0  0  0999 V2000
   58.9200   34.5580   53.5330 C   0  0  0  0  0  0  0  0  0  0  0  0
   58.4930   33.9900   52.2430 N   0  0  0  0  0  0  0  0  0  0  0  0
   57.3860   33.0480   52.4770 C   0  0  0  0  0  0  0  0  0  0  0  0
   59.6040   33.2880   51.5660 C   0  0  0  0  0  0  0  0  0  0  0  0
   59.1510   32.0210   50.8860 C   0  0  0  0  0  0  0  0  0  0  0  0
   59.3850   30.9150   51.4330 O   0  0  0  0  0  0  0  0  0  0  0  0
   58.3770   32.0430   49.6790 N   0  0  0  0  0  0  0  0  0  0  0  0
   58.6630   32.8130   48.5040 C   0  0  0  0  0  0  0  0  0  0  0  0
   59.8260   33.5890   48.4630 C   0  0  0  0  0  0  0  0  0  0  0  0
   60.1050   34.3810   47.3470 C   0  0  0  0  0  0  0  0  0  0  0  0
   59.2050   34.4260   46.2780 C   0  0  0  0  0  0  0  0  0  0  0  0
   58.0120   33.6880   46.3250 C   0  0  0  0  0  0  0  0  0  0  0  0
   57.0460   33.7330   45.1730 C   0  0  0  0  0  0  0  0  0  0  0  0
   57.4520   32.7540   44.1180 C   0  0  0  0  0  0  0  0  0  0  0  0
   58.5200   32.9460   43.4790 O   0  0  0  0  0  0  0  0  0  0  0  0
   56.6410   31.6000   43.8670 N   0  0  0  0  0  0  0  0  0  0  0  0
   56.7550   30.4510   44.4640 C   0  0  0  0  0  0  0  0  0  0  0  0
   55.7100   29.6040   44.5870 N   0  0  0  0  0  0  0  0  0  0  0  0
   56.2420   28.5670   45.2530 C   0  0  0  0  0  0  0  0  0  0  0  0
   55.5250   27.4290   45.6110 O   0  0  0  0  0  0  0  0  0  0  0  0
   57.5680   28.8010   45.5190 C   0  0  0  0  0  0  0  0  0  0  0  0
   58.5300   27.8650   46.1850 C   0  0  0  0  0  0  0  0  0  0  0  0
   59.1400   28.5100   47.3920 C   0  0  0  0  0  0  0  0  0  0  0  0
   58.8460   28.2200   48.7200 C   0  0  0  0  0  0  0  0  0  0  0  0
   59.6310   28.9470   49.5470 N   0  0  0  0  0  0  0  0  0  0  0  0
   60.4310   29.6810   48.7530 C   0  0  0  0  0  0  0  0  0  0  0  0
   61.4230   30.5770   49.1510 C   0  0  0  0  0  0  0  0  0  0  0  0
   62.1630   31.2300   48.1480 C   0  0  0  0  0  0  0  0  0  0  0  0
   61.9000   30.9740   46.7840 C   0  0  0  0  0  0  0  0  0  0  0  0
   60.8930   30.0660   46.4110 C   0  0  0  0  0  0  0  0  0  0  0  0
   60.6450   29.8160   45.1030 F   0  0  0  0  0  0  0  0  0  0  0  0
   60.1690   29.4370   47.4280 C   0  0  0  0  0  0  0  0  0  0  0  0
   57.9080   29.9970   45.0090 N   0  0  0  0  0  0  0  0  0  0  0  0
   57.7490   32.8760   47.4400 C   0  0  0  0  0  0  0  0  0  0  0  0
   58.4805   33.9733   54.3545 H   0  0  0  0  0  0  0  0  0  0  0  0
   60.0171   34.5228   53.6040 H   0  0  0  0  0  0  0  0  0  0  0  0
   58.5813   35.6022   53.6040 H   0  0  0  0  0  0  0  0  0  0  0  0
   57.2358   32.9202   53.5592 H   0  0  0  0  0  0  0  0  0  0  0  0
   56.4655   33.4440   52.0233 H   0  0  0  0  0  0  0  0  0  0  0  0
   57.6296   32.0760   52.0233 H   0  0  0  0  0  0  0  0  0  0  0  0
   60.0382   33.9591   50.8103 H   0  0  0  0  0  0  0  0  0  0  0  0
   60.3441   33.0126   52.3318 H   0  0  0  0  0  0  0  0  0  0  0  0
   60.5238   33.5754   49.3133 H   0  0  0  0  0  0  0  0  0  0  0  0
   61.0334   34.9698   47.3090 H   0  0  0  0  0  0  0  0  0  0  0  0
   59.4329   35.0426   45.3960 H   0  0  0  0  0  0  0  0  0  0  0  0
   56.0382   33.4804   45.5342 H   0  0  0  0  0  0  0  0  0  0  0  0
   57.0487   34.7453   44.7425 H   0  0  0  0  0  0  0  0  0  0  0  0
   57.9948   26.9546   46.4927 H   0  0  0  0  0  0  0  0  0  0  0  0
   59.3305   27.6126   45.4740 H   0  0  0  0  0  0  0  0  0  0  0  0
   58.0825   27.5006   49.0510 H   0  0  0  0  0  0  0  0  0  0  0  0
   59.6260   28.9270   50.5910 H   0  0  0  0  0  0  0  0  0  0  0  0
   61.6208   30.7673   50.2162 H   0  0  0  0  0  0  0  0  0  0  0  0
   62.9513   31.9443   48.4279 H   0  0  0  0  0  0  0  0  0  0  0  0
   62.4867   31.4882   46.0085 H   0  0  0  0  0  0  0  0  0  0  0  0
   56.8216   32.2859   47.4801 H   0  0  0  0  0  0  0  0  0  0  0  0
  1  2  1  0
  2  3  1  0
  2  4  1  0
  4  5  1  0
  5  6  2  0
  5  7  1  0
  7  8  1  0
  8  9  2  0
  9 10  1  0
 10 11  2  0
 11 12  1  0
 12 13  1  0
 13 14  1  0
 14 15  2  0
 14 16  1  0
 16 17  2  3
 17 18  1  0
 18 19  1  0
 19 20  1  0
 19 21  2  0
 21 22  1  0
 22 23  1  0
 23 24  2  0
 24 25  1  0
 25 26  1  0
 26 27  2  0
 27 28  1  0
 28 29  2  0
 29 30  1  0
 30 31  1  0
 30 32  2  0
 21 33  1  0
 12 34  2  0
 34  8  1  0
 33 17  1  0
 32 23  1  0
 32 26  1  0
  1 35  1  0
  1 36  1  0
  1 37  1  0
  3 38  1  0
  3 39  1  0
  3 40  1  0
  4 41  1  0
  4 42  1  0
  9 43  1  0
 10 44  1  0
 11 45  1  0
 13 46  1  0
 13 47  1  0
 22 48  1  0
 22 49  1  0
 24 50  1  0
 25 51  1  0
 27 52  1  0
 28 53  1  0
 29 54  1  0
 34 55  1  0
M  CHG  4   7  -1  18  -1  20  -1  33  -1
M  END
>  <UniqueID>  (72) 
65

>  <SMILES>  (72) 
CN(C)CC(=O)[N-]c1cccc(CC(=O)N=c2[n-]c([O-])c(Cc3c[nH]c4cccc(F)c34)[n-]2)c1

>  <Energy>  (72) 
123.62159602797725

>  <Genealogy>  (72) 
CN(C)CC(=O)[N-]c1cccc(CC(=O)N=c2[n-]c([O-])c(Cc3c[nH]c4cccc(F)c34)[n-]2)c1 (protonated)
CN(C)CC(=O)[N-]c1cccc(CC(=O)N=c2[n-]c([O-])c(Cc3c[nH]c4cccc(F)c34)[n-]2)c1 (3D coordinates assigned)
CN(C)CC(=O)[N-]c1cccc(CC(=O)N=c2[n-]c([O-])c(Cc3c[nH]c4cccc(F)c34)[n-]2)c1 (optimized conformer: 123.62159602797725 kcal/mol)

>  <smiles>  (72) 
CN(C)CC(=O)Nc1cccc(CC(=O)N=c2[nH]c(O)c(Cc3c[nH]c4cccc(F)c34)[nH]2)c1

>  <score_type>  (72) 
oracle

>  <origin>  (72) 
adg

>  <m_score__min__energy>  (72) 
-16.109999999999999

>  <m_primary>  (72) 
energy

$$$$
72:0
     RDKit          3D

 46 48  0  0  0  0  0  0  0  0999 V2000
   57.9940   27.5880   54.1130 O   0  0  0  0  0  0  0  0  0  0  0  0
   57.9500   28.7950   53.7510 C   0  0  0  0  0  0  0  0  0  0  0  0
   56.7690   29.6340   54.1240 C   0  0  0  0  0  0  0  0  0  0  0  0
   55.5450   29.0930   53.5320 N   0  0  0  0  0  0  0  0  0  0  0  0
   54.4970   29.8960   52.9540 C   0  0  0  0  0  0  0  0  0  0  0  0
   54.5780   30.3870   51.6400 C   0  0  0  0  0  0  0  0  0  0  0  0
   53.5500   31.1740   51.1130 C   0  0  0  0  0  0  0  0  0  0  0  0
   52.4160   31.4880   51.8810 C   0  0  0  0  0  0  0  0  0  0  0  0
   51.3470   32.3310   51.2860 C   0  0  0  0  0  0  0  0  0  0  0  0
   51.4100   32.7080   50.0870 O   0  0  0  0  0  0  0  0  0  0  0  0
   50.2520   32.7180   52.0510 O   0  0  0  0  0  0  0  0  0  0  0  0
   52.3270   30.9880   53.2000 C   0  0  0  0  0  0  0  0  0  0  0  0
   51.2170   31.2700   53.9960 O   0  0  0  0  0  0  0  0  0  0  0  0
   53.3630   30.1980   53.7210 C   0  0  0  0  0  0  0  0  0  0  0  0
   59.0540   29.3910   53.0590 N   0  0  0  0  0  0  0  0  0  0  0  0
   59.5180   29.0420   51.7460 C   0  0  0  0  0  0  0  0  0  0  0  0
   60.5730   28.1290   51.5590 C   0  0  0  0  0  0  0  0  0  0  0  0
   60.9860   27.7820   50.2710 C   0  0  0  0  0  0  0  0  0  0  0  0
   60.3400   28.3240   49.1590 C   0  0  0  0  0  0  0  0  0  0  0  0
   59.2750   29.2110   49.3320 C   0  0  0  0  0  0  0  0  0  0  0  0
   58.8640   29.5840   50.6250 C   0  0  0  0  0  0  0  0  0  0  0  0
   57.7550   30.4750   50.8250 N   0  0  0  0  0  0  0  0  0  0  0  0
   57.8110   31.9080   50.8300 C   0  0  0  0  0  0  0  0  0  0  0  0
   57.1740   32.5320   51.7200 O   0  0  0  0  0  0  0  0  0  0  0  0
   58.6350   32.6680   49.8600 C   0  0  0  0  0  0  0  0  0  0  0  0
   58.3530   32.5910   48.4840 C   0  0  0  0  0  0  0  0  0  0  0  0
   59.1240   33.3080   47.5630 C   0  0  0  0  0  0  0  0  0  0  0  0
   60.1740   34.1150   48.0080 C   0  0  0  0  0  0  0  0  0  0  0  0
   60.4530   34.2090   49.3730 C   0  0  0  0  0  0  0  0  0  0  0  0
   59.6850   33.4950   50.2970 C   0  0  0  0  0  0  0  0  0  0  0  0
   56.6659   29.6466   55.2191 H   0  0  0  0  0  0  0  0  0  0  0  0
   56.9252   30.6546   53.7446 H   0  0  0  0  0  0  0  0  0  0  0  0
   55.4140   28.0560   53.5730 H   0  0  0  0  0  0  0  0  0  0  0  0
   55.4565   30.1504   51.0217 H   0  0  0  0  0  0  0  0  0  0  0  0
   53.6298   31.5526   50.0833 H   0  0  0  0  0  0  0  0  0  0  0  0
   50.4810   31.8940   53.6850 H   0  0  0  0  0  0  0  0  0  0  0  0
   53.2842   29.8096   54.7471 H   0  0  0  0  0  0  0  0  0  0  0  0
   61.0748   27.6865   52.4322 H   0  0  0  0  0  0  0  0  0  0  0  0
   61.8218   27.0804   50.1327 H   0  0  0  0  0  0  0  0  0  0  0  0
   60.6698   28.0524   48.1454 H   0  0  0  0  0  0  0  0  0  0  0  0
   58.7550   29.6200   48.4531 H   0  0  0  0  0  0  0  0  0  0  0  0
   57.5216   31.9635   48.1303 H   0  0  0  0  0  0  0  0  0  0  0  0
   58.9034   33.2364   46.4877 H   0  0  0  0  0  0  0  0  0  0  0  0
   60.7812   34.6766   47.2828 H   0  0  0  0  0  0  0  0  0  0  0  0
   61.2789   34.8463   49.7218 H   0  0  0  0  0  0  0  0  0  0  0  0
   59.9031   33.5804   51.3718 H   0  0  0  0  0  0  0  0  0  0  0  0
  1  2  2  0
  2  3  1  0
  3  4  1  0
  4  5  1  0
  5  6  2  0
  6  7  1  0
  7  8  2  0
  8  9  1  0
  9 10  2  0
  9 11  1  0
  8 12  1  0
 12 13  1  0
 12 14  2  0
  2 15  1  0
 15 16  1  0
 16 17  2  0
 17 18  1  0
 18 19  2  0
 19 20  1  0
 20 21  2  0
 21 22  1  0
 22 23  1  0
 23 24  2  0
 23 25  1  0
 25 26  2  0
 26 27  1  0
 27 28  2  0
 28 29  1  0
 29 30  2  0
 14  5  1  0
 21 16  1  0
 30 25  1  0
  3 31  1  0
  3 32  1  0
  4 33  1  0
  6 34  1  0
  7 35  1  0
 13 36  1  0
 14 37  1  0
 17 38  1  0
 18 39  1  0
 19 40  1  0
 20 41  1  0
 26 42  1  0
 27 43  1  0
 28 44  1  0
 29 45  1  0
 30 46  1  0
M  CHG  3  11  -1  15  -1  22  -1
M  END
>  <UniqueID>  (73) 
66

>  <SMILES>  (73) 
O=C(CNc1ccc(C(=O)[O-])c(O)c1)[N-]c1ccccc1[N-]C(=O)c1ccccc1

>  <Energy>  (73) 
59.66141508337916

>  <Genealogy>  (73) 
O=C(CNc1ccc(C(=O)[O-])c(O)c1)[N-]c1ccccc1[N-]C(=O)c1ccccc1 (protonated)
O=C(CNc1ccc(C(=O)[O-])c(O)c1)[N-]c1ccccc1[N-]C(=O)c1ccccc1 (3D coordinates assigned)
O=C(CNc1ccc(C(=O)[O-])c(O)c1)[N-]c1ccccc1[N-]C(=O)c1ccccc1 (optimized conformer: 59.66141508337916 kcal/mol)

>  <smiles>  (73) 
O=C(CNc1ccc(C(=O)O)c(O)c1)Nc1ccccc1NC(=O)c1ccccc1

>  <score_type>  (73) 
oracle

>  <origin>  (73) 
adg

>  <m_score__min__energy>  (73) 
-13.779999999999999

>  <m_primary>  (73) 
energy

$$$$
73:0
     RDKit          3D

 49 51  0  0  0  0  0  0  0  0999 V2000
   55.9130   29.7240   42.8300 C   0  0  0  0  0  0  0  0  0  0  0  0
   55.7660   29.9550   44.3280 C   0  0  0  0  0  0  0  0  0  0  0  0
   56.9030   29.3810   45.0740 N   0  0  0  0  0  0  0  0  0  0  0  0
   56.7330   28.1960   45.7450 C   0  0  0  0  0  0  0  0  0  0  0  0
   55.5470   27.4740   45.6300 O   0  0  0  0  0  0  0  0  0  0  0  0
   57.7420   27.6970   46.5670 C   0  0  0  0  0  0  0  0  0  0  0  0
   58.9180   28.4240   46.6970 C   0  0  0  0  0  0  0  0  0  0  0  0
   59.8380   28.0160   47.4540 O   0  0  0  0  0  0  0  0  0  0  0  0
   59.0800   29.5700   45.9940 N   0  0  0  0  0  0  0  0  0  0  0  0
   58.1110   30.0380   45.1630 C   0  0  0  0  0  0  0  0  0  0  0  0
   58.4700   31.5190   44.1930 S   0  0  0  0  0  0  0  0  0  0  0  0
   57.9390   32.7420   45.4510 C   0  0  0  0  0  0  0  0  0  0  0  0
   58.8860   32.8360   46.6090 C   0  0  0  0  0  0  0  0  0  0  0  0
   58.7210   33.7460   47.4660 O   0  0  0  0  0  0  0  0  0  0  0  0
   59.9940   31.9330   46.7110 N   0  0  0  0  0  0  0  0  0  0  0  0
   60.7700   31.7590   47.9080 C   0  0  0  0  0  0  0  0  0  0  0  0
   60.2860   31.6120   49.2010 C   0  0  0  0  0  0  0  0  0  0  0  0
   58.8510   31.4300   49.6030 C   0  0  0  0  0  0  0  0  0  0  0  0
   61.3420   31.5640   50.0530 N   0  0  0  0  0  0  0  0  0  0  0  0
   61.2650   31.3610   51.5030 C   0  0  0  0  0  0  0  0  0  0  0  0
   62.4630   31.7400   49.3580 N   0  0  0  0  0  0  0  0  0  0  0  0
   63.7900   31.8500   49.9060 C   0  0  0  0  0  0  0  0  0  0  0  0
   64.6180   32.9230   49.5400 C   0  0  0  0  0  0  0  0  0  0  0  0
   65.8990   33.0430   50.0870 C   0  0  0  0  0  0  0  0  0  0  0  0
   66.3580   32.0980   51.0090 C   0  0  0  0  0  0  0  0  0  0  0  0
   65.5350   31.0340   51.3860 C   0  0  0  0  0  0  0  0  0  0  0  0
   64.2540   30.9100   50.8410 C   0  0  0  0  0  0  0  0  0  0  0  0
   62.1410   31.8600   48.0560 C   0  0  0  0  0  0  0  0  0  0  0  0
   62.9730   32.1000   47.1390 O   0  0  0  0  0  0  0  0  0  0  0  0
   56.4961   28.8077   42.6558 H   0  0  0  0  0  0  0  0  0  0  0  0
   54.9168   29.6165   42.3761 H   0  0  0  0  0  0  0  0  0  0  0  0
   56.4323   30.5809   42.3761 H   0  0  0  0  0  0  0  0  0  0  0  0
   55.7207   31.0370   44.5208 H   0  0  0  0  0  0  0  0  0  0  0  0
   54.8438   29.4601   44.6664 H   0  0  0  0  0  0  0  0  0  0  0  0
   57.6093   26.7454   47.1026 H   0  0  0  0  0  0  0  0  0  0  0  0
   57.8702   33.7302   44.9727 H   0  0  0  0  0  0  0  0  0  0  0  0
   56.9674   32.4095   45.8452 H   0  0  0  0  0  0  0  0  0  0  0  0
   60.2500   31.3780   45.8630 H   0  0  0  0  0  0  0  0  0  0  0  0
   58.7760   31.4205   50.7004 H   0  0  0  0  0  0  0  0  0  0  0  0
   58.2498   32.2591   49.2016 H   0  0  0  0  0  0  0  0  0  0  0  0
   58.4758   30.4771   49.2016 H   0  0  0  0  0  0  0  0  0  0  0  0
   61.6095   32.2692   52.0192 H   0  0  0  0  0  0  0  0  0  0  0  0
   60.2241   31.1493   51.7888 H   0  0  0  0  0  0  0  0  0  0  0  0
   61.9036   30.5122   51.7888 H   0  0  0  0  0  0  0  0  0  0  0  0
   64.2574   33.6723   48.8199 H   0  0  0  0  0  0  0  0  0  0  0  0
   66.5463   33.8819   49.7915 H   0  0  0  0  0  0  0  0  0  0  0  0
   67.3667   32.1921   51.4375 H   0  0  0  0  0  0  0  0  0  0  0  0
   65.8960   30.2921   52.1135 H   0  0  0  0  0  0  0  0  0  0  0  0
   63.6072   30.0738   51.1452 H   0  0  0  0  0  0  0  0  0  0  0  0
  1  2  1  0
  2  3  1  0
  3  4  1  0
  4  5  1  0
  4  6  2  0
  6  7  1  0
  7  8  2  0
  7  9  1  0
  9 10  2  0
 10 11  1  0
 11 12  1  0
 12 13  1  0
 13 14  2  0
 13 15  1  0
 15 16  1  0
 16 17  2  0
 17 18  1  0
 17 19  1  0
 19 20  1  0
 19 21  1  0
 21 22  1  0
 22 23  2  0
 23 24  1  0
 24 25  2  0
 25 26  1  0
 26 27  2  0
 21 28  1  0
 28 29  2  0
 10  3  1  0
 28 16  1  0
 27 22  1  0
  1 30  1  0
  1 31  1  0
  1 32  1  0
  2 33  1  0
  2 34  1  0
  6 35  1  0
 12 36  1  0
 12 37  1  0
 15 38  1  0
 18 39  1  0
 18 40  1  0
 18 41  1  0
 20 42  1  0
 20 43  1  0
 20 44  1  0
 23 45  1  0
 24 46  1  0
 25 47  1  0
 26 48  1  0
 27 49  1  0
M  CHG  1   5  -1
M  END
>  <UniqueID>  (74) 
67

>  <SMILES>  (74) 
CCn1c([O-])cc(=O)nc1SCC(=O)Nc1c(C)n(C)n(-c2ccccc2)c1=O

>  <Energy>  (74) 
93.42332686058289

>  <Genealogy>  (74) 
CCn1c([O-])cc(=O)nc1SCC(=O)Nc1c(C)n(C)n(-c2ccccc2)c1=O (protonated)
CCn1c([O-])cc(=O)nc1SCC(=O)Nc1c(C)n(C)n(-c2ccccc2)c1=O (3D coordinates assigned)
CCn1c([O-])cc(=O)nc1SCC(=O)Nc1c(C)n(C)n(-c2ccccc2)c1=O (optimized conformer: 93.42332686058289 kcal/mol)

>  <smiles>  (74) 
CCn1c(O)cc(=O)nc1SCC(=O)Nc1c(C)n(C)n(-c2ccccc2)c1=O

>  <score_type>  (74) 
oracle

>  <origin>  (74) 
adg

>  <m_score__min__energy>  (74) 
-10.359999999999999

>  <m_primary>  (74) 
energy

$$$$
74:0
     RDKit          3D

 40 42  0  0  0  0  0  0  0  0999 V2000
   59.7430   33.8440   50.3890 C   0  0  0  0  0  0  0  0  0  0  0  0
   58.9330   33.0920   49.5090 O   0  0  0  0  0  0  0  0  0  0  0  0
   58.8860   33.4550   48.1750 C   0  0  0  0  0  0  0  0  0  0  0  0
   59.6450   34.5660   47.8140 C   0  0  0  0  0  0  0  0  0  0  0  0
   59.6650   35.0040   46.5210 C   0  0  0  0  0  0  0  0  0  0  0  0
   58.9130   34.3150   45.5920 C   0  0  0  0  0  0  0  0  0  0  0  0
   58.1470   33.2100   45.9030 C   0  0  0  0  0  0  0  0  0  0  0  0
   57.3910   32.5670   44.8280 C   0  0  0  0  0  0  0  0  0  0  0  0
   57.7860   31.2260   44.5150 N   0  0  0  0  0  0  0  0  0  0  0  0
   56.8960   30.1290   44.3630 C   0  0  0  0  0  0  0  0  0  0  0  0
   55.6560   30.2910   44.5030 O   0  0  0  0  0  0  0  0  0  0  0  0
   57.3850   28.7450   44.0330 C   0  0  0  0  0  0  0  0  0  0  0  0
   57.8880   27.9760   45.5980 S   0  0  0  0  0  0  0  0  0  0  0  0
   59.0470   29.0190   46.4680 C   0  0  0  0  0  0  0  0  0  0  0  0
   59.8700   29.9700   45.9750 N   0  0  0  0  0  0  0  0  0  0  0  0
   60.5800   30.5170   46.9880 C   0  0  0  0  0  0  0  0  0  0  0  0
   61.5430   31.5010   47.0880 C   0  0  0  0  0  0  0  0  0  0  0  0
   62.0930   31.8390   48.3300 C   0  0  0  0  0  0  0  0  0  0  0  0
   61.6610   31.1690   49.4760 C   0  0  0  0  0  0  0  0  0  0  0  0
   60.6860   30.1730   49.3770 C   0  0  0  0  0  0  0  0  0  0  0  0
   60.1720   29.8730   48.1380 C   0  0  0  0  0  0  0  0  0  0  0  0
   59.2240   28.9490   47.8070 N   0  0  0  0  0  0  0  0  0  0  0  0
   58.1530   32.7980   47.2220 C   0  0  0  0  0  0  0  0  0  0  0  0
   59.4798   33.5997   51.4287 H   0  0  0  0  0  0  0  0  0  0  0  0
   60.8010   33.6007   50.2117 H   0  0  0  0  0  0  0  0  0  0  0  0
   59.5788   34.9171   50.2117 H   0  0  0  0  0  0  0  0  0  0  0  0
   60.2337   35.0953   48.5778 H   0  0  0  0  0  0  0  0  0  0  0  0
   60.2628   35.8799   46.2288 H   0  0  0  0  0  0  0  0  0  0  0  0
   58.9246   34.6646   44.5491 H   0  0  0  0  0  0  0  0  0  0  0  0
   56.3313   32.5485   45.1226 H   0  0  0  0  0  0  0  0  0  0  0  0
   57.5883   33.1598   43.9227 H   0  0  0  0  0  0  0  0  0  0  0  0
   58.8080   31.0040   44.3780 H   0  0  0  0  0  0  0  0  0  0  0  0
   56.5786   28.1603   43.5663 H   0  0  0  0  0  0  0  0  0  0  0  0
   58.2260   28.7831   43.3250 H   0  0  0  0  0  0  0  0  0  0  0  0
   61.8817   32.0250   46.1821 H   0  0  0  0  0  0  0  0  0  0  0  0
   62.8587   32.6254   48.4024 H   0  0  0  0  0  0  0  0  0  0  0  0
   62.0881   31.4251   50.4568 H   0  0  0  0  0  0  0  0  0  0  0  0
   60.3366   29.6394   50.2732 H   0  0  0  0  0  0  0  0  0  0  0  0
   58.7320   28.3070   48.4880 H   0  0  0  0  0  0  0  0  0  0  0  0
   57.5552   31.9219   47.5137 H   0  0  0  0  0  0  0  0  0  0  0  0
  1  2  1  0
  2  3  1  0
  3  4  2  0
  4  5  1  0
  5  6  2  0
  6  7  1  0
  7  8  1  0
  8  9  1  0
  9 10  1  0
 10 11  2  0
 10 12  1  0
 12 13  1  0
 13 14  1  0
 14 15  2  0
 15 16  1  0
 16 17  2  0
 17 18  1  0
 18 19  2  0
 19 20  1  0
 20 21  2  0
 21 22  1  0
  7 23  2  0
 23  3  1  0
 22 14  1  0
 21 16  1  0
  1 24  1  0
  1 25  1  0
  1 26  1  0
  4 27  1  0
  5 28  1  0
  6 29  1  0
  8 30  1  0
  8 31  1  0
  9 32  1  0
 12 33  1  0
 12 34  1  0
 17 35  1  0
 18 36  1  0
 19 37  1  0
 20 38  1  0
 22 39  1  0
 23 40  1  0
M  END
>  <smiles>  (75) 
COc1cccc(CNC(=O)CSc2nc3ccccc3[nH]2)c1

>  <score_type>  (75) 
oracle

>  <origin>  (75) 
adg

>  <m_score__min__energy>  (75) 
-8.7599999999999998

>  <m_primary>  (75) 
energy

$$$$
75:0
     RDKit          3D

 60 63  0  0  0  0  0  0  0  0999 V2000
   58.0970   25.6090   46.8570 C   0  0  0  0  0  0  0  0  0  0  0  0
   57.8730   27.0290   46.4130 C   0  0  0  0  0  0  0  0  0  0  0  0
   56.6350   27.3700   45.8470 C   0  0  0  0  0  0  0  0  0  0  0  0
   56.4030   28.6560   45.3560 C   0  0  0  0  0  0  0  0  0  0  0  0
   55.1530   28.9670   44.8310 O   0  0  0  0  0  0  0  0  0  0  0  0
   57.4210   29.6220   45.4070 C   0  0  0  0  0  0  0  0  0  0  0  0
   57.2060   30.9810   44.8730 C   0  0  0  0  0  0  0  0  0  0  0  0
   56.6210   31.1220   43.7660 O   0  0  0  0  0  0  0  0  0  0  0  0
   57.6350   32.1480   45.5830 N   0  0  0  0  0  0  0  0  0  0  0  0
   58.7300   33.0120   45.1560 C   0  0  0  0  0  0  0  0  0  0  0  0
   59.8330   32.9650   46.1790 C   0  0  0  0  0  0  0  0  0  0  0  0
   60.4380   31.7320   46.4830 C   0  0  0  0  0  0  0  0  0  0  0  0
   61.4800   31.6630   47.4110 C   0  0  0  0  0  0  0  0  0  0  0  0
   61.9370   32.8230   48.0380 C   0  0  0  0  0  0  0  0  0  0  0  0
   61.3570   34.0570   47.7340 C   0  0  0  0  0  0  0  0  0  0  0  0
   60.3120   34.1390   46.8040 C   0  0  0  0  0  0  0  0  0  0  0  0
   59.6340   35.7240   46.4410 Cl  0  0  0  0  0  0  0  0  0  0  0  0
   58.6420   29.3030   46.0180 C   0  0  0  0  0  0  0  0  0  0  0  0
   58.8680   28.0260   46.5470 C   0  0  0  0  0  0  0  0  0  0  0  0
   60.1360   27.7600   47.1610 N   0  0  0  0  0  0  0  0  0  0  0  0
   60.3300   27.5590   48.5660 C   0  0  0  0  0  0  0  0  0  0  0  0
   60.3780   26.3860   49.0270 O   0  0  0  0  0  0  0  0  0  0  0  0
   60.4610   28.7200   49.4750 C   0  0  0  0  0  0  0  0  0  0  0  0
   61.4480   28.7290   50.4800 C   0  0  0  0  0  0  0  0  0  0  0  0
   61.5890   29.8340   51.3230 C   0  0  0  0  0  0  0  0  0  0  0  0
   60.7520   30.9420   51.1730 C   0  0  0  0  0  0  0  0  0  0  0  0
   59.7680   30.9520   50.1760 C   0  0  0  0  0  0  0  0  0  0  0  0
   58.7100   32.3490   49.9860 S   0  0  0  0  0  0  0  0  0  0  0  0
   59.5140   33.6130   50.1180 O   0  0  0  0  0  0  0  0  0  0  0  0
   58.0970   32.3140   48.6130 O   0  0  0  0  0  0  0  0  0  0  0  0
   57.4400   32.3160   51.1880 N   0  0  0  0  0  0  0  0  0  0  0  0
   57.1490   30.9230   51.5810 C   0  0  0  0  0  0  0  0  0  0  0  0
   56.4670   30.8810   52.9560 C   0  0  0  0  0  0  0  0  0  0  0  0
   57.2510   31.4290   54.0090 O   0  0  0  0  0  0  0  0  0  0  0  0
   58.2260   32.3640   53.5680 C   0  0  0  0  0  0  0  0  0  0  0  0
   57.7770   33.1800   52.3410 C   0  0  0  0  0  0  0  0  0  0  0  0
   59.6210   29.8390   49.3360 C   0  0  0  0  0  0  0  0  0  0  0  0
   58.1039   25.5653   47.9561 H   0  0  0  0  0  0  0  0  0  0  0  0
   57.2883   24.9718   46.4698 H   0  0  0  0  0  0  0  0  0  0  0  0
   59.0626   25.2517   46.4698 H   0  0  0  0  0  0  0  0  0  0  0  0
   55.8375   26.6146   45.7895 H   0  0  0  0  0  0  0  0  0  0  0  0
   59.1145   32.6645   44.1857 H   0  0  0  0  0  0  0  0  0  0  0  0
   58.3652   34.0450   45.0567 H   0  0  0  0  0  0  0  0  0  0  0  0
   60.0880   30.8151   45.9862 H   0  0  0  0  0  0  0  0  0  0  0  0
   61.9410   30.6928   47.6479 H   0  0  0  0  0  0  0  0  0  0  0  0
   62.7543   32.7656   48.7719 H   0  0  0  0  0  0  0  0  0  0  0  0
   61.7227   34.9695   48.2275 H   0  0  0  0  0  0  0  0  0  0  0  0
   59.4324   30.0653   46.0827 H   0  0  0  0  0  0  0  0  0  0  0  0
   62.1119   27.8604   50.6018 H   0  0  0  0  0  0  0  0  0  0  0  0
   62.3609   29.8314   52.1067 H   0  0  0  0  0  0  0  0  0  0  0  0
   60.8658   31.8094   51.8398 H   0  0  0  0  0  0  0  0  0  0  0  0
   56.4831   30.4679   50.8331 H   0  0  0  0  0  0  0  0  0  0  0  0
   58.0954   30.3652   51.6372 H   0  0  0  0  0  0  0  0  0  0  0  0
   55.5271   31.4491   52.8932 H   0  0  0  0  0  0  0  0  0  0  0  0
   56.3062   29.8202   53.1986 H   0  0  0  0  0  0  0  0  0  0  0  0
   58.4390   33.0610   54.3919 H   0  0  0  0  0  0  0  0  0  0  0  0
   59.1159   31.7903   53.2697 H   0  0  0  0  0  0  0  0  0  0  0  0
   56.8892   33.7696   52.6133 H   0  0  0  0  0  0  0  0  0  0  0  0
   58.6132   33.8297   52.0431 H   0  0  0  0  0  0  0  0  0  0  0  0
   58.8408   29.8413   48.5606 H   0  0  0  0  0  0  0  0  0  0  0  0
  1  2  1  0
  2  3  2  0
  3  4  1  0
  4  5  1  0
  4  6  2  0
  6  7  1  0
  7  8  2  0
  7  9  1  0
  9 10  1  0
 10 11  1  0
 11 12  2  0
 12 13  1  0
 13 14  2  0
 14 15  1  0
 15 16  2  0
 16 17  1  0
  6 18  1  0
 18 19  2  0
 19 20  1  0
 20 21  1  0
 21 22  2  0
 21 23  1  0
 23 24  2  0
 24 25  1  0
 25 26  2  0
 26 27  1  0
 27 28  1  0
 28 29  2  0
 28 30  2  0
 28 31  1  0
 31 32  1  0
 32 33  1  0
 33 34  1  0
 34 35  1  0
 35 36  1  0
 27 37  2  0
 19  2  1  0
 37 23  1  0
 16 11  1  0
 36 31  1  0
  1 38  1  0
  1 39  1  0
  1 40  1  0
  3 41  1  0
 10 42  1  0
 10 43  1  0
 12 44  1  0
 13 45  1  0
 14 46  1  0
 15 47  1  0
 18 48  1  0
 24 49  1  0
 25 50  1  0
 26 51  1  0
 32 52  1  0
 32 53  1  0
 33 54  1  0
 33 55  1  0
 35 56  1  0
 35 57  1  0
 36 58  1  0
 36 59  1  0
 37 60  1  0
M  CHG  3   5  -1   9  -1  20  -1
M  END
>  <UniqueID>  (76) 
68

>  <SMILES>  (76) 
Cc1cc([O-])c(C(=O)[N-]Cc2ccccc2Cl)cc1[N-]C(=O)c1cccc(S(=O)(=O)N2CCOCC2)c1

>  <Energy>  (76) 
89.34821968180256

>  <Genealogy>  (76) 
Cc1cc([O-])c(C(=O)[N-]Cc2ccccc2Cl)cc1[N-]C(=O)c1cccc(S(=O)(=O)N2CCOCC2)c1 (protonated)
Cc1cc([O-])c(C(=O)[N-]Cc2ccccc2Cl)cc1[N-]C(=O)c1cccc(S(=O)(=O)N2CCOCC2)c1 (3D coordinates assigned)
Cc1cc([O-])c(C(=O)[N-]Cc2ccccc2Cl)cc1[N-]C(=O)c1cccc(S(=O)(=O)N2CCOCC2)c1 (nonaromatic ring conformer: 89.34821968180256 kcal/mol)

>  <smiles>  (76) 
Cc1cc(O)c(C(=O)NCc2ccccc2Cl)cc1NC(=O)c1cccc(S(=O)(=O)N2CCOCC2)c1

>  <score_type>  (76) 
oracle

>  <origin>  (76) 
adg

>  <m_score__min__energy>  (76) 
-15.859999999999999

>  <m_primary>  (76) 
energy

$$$$
76:0
     RDKit          3D

 28 28  0  0  0  0  0  0  0  0999 V2000
   56.9631   30.8035   43.4908 H   0  0  0  0  0  0  0  0  0  0  0  0
   56.3520   30.1920   44.1710 C   0  0  0  0  0  0  0  0  0  0  0  0
   55.1480   30.5030   44.3720 O   0  0  0  0  0  0  0  0  0  0  0  0
   56.9550   29.0200   44.8340 C   0  0  0  0  0  0  0  0  0  0  0  0
   58.3390   28.9850   45.0350 C   0  0  0  0  0  0  0  0  0  0  0  0
   58.9641   29.8256   44.6994 H   0  0  0  0  0  0  0  0  0  0  0  0
   58.9300   27.8810   45.6630 C   0  0  0  0  0  0  0  0  0  0  0  0
   60.2590   27.8620   45.8490 C   0  0  0  0  0  0  0  0  0  0  0  0
   60.7332   27.0000   46.3410 H   0  0  0  0  0  0  0  0  0  0  0  0
   60.8740   28.7084   45.5094 H   0  0  0  0  0  0  0  0  0  0  0  0
   58.1110   26.8130   46.0870 C   0  0  0  0  0  0  0  0  0  0  0  0
   58.6250   25.8070   46.6570 O   0  0  0  0  0  0  0  0  0  0  0  0
   56.7130   26.8760   45.8700 C   0  0  0  0  0  0  0  0  0  0  0  0
   55.9110   25.8670   46.2670 C   0  0  0  0  0  0  0  0  0  0  0  0
   56.3317   25.0441   46.8635 H   0  0  0  0  0  0  0  0  0  0  0  0
   54.5550   25.8500   45.9330 O   0  0  0  0  0  0  0  0  0  0  0  0
   53.9150   24.6910   45.4070 C   0  0  0  0  0  0  0  0  0  0  0  0
   53.1757   24.3274   46.1358 H   0  0  0  0  0  0  0  0  0  0  0  0
   53.4250   24.9628   44.4604 H   0  0  0  0  0  0  0  0  0  0  0  0
   54.9300   23.5770   45.1260 C   0  0  0  0  0  0  0  0  0  0  0  0
   55.7329   23.6298   45.8760 H   0  0  0  0  0  0  0  0  0  0  0  0
   54.4022   22.6133   45.1780 H   0  0  0  0  0  0  0  0  0  0  0  0
   55.5450   23.7060   43.7340 C   0  0  0  0  0  0  0  0  0  0  0  0
   56.6178   23.9310   43.8265 H   0  0  0  0  0  0  0  0  0  0  0  0
   55.4145   22.7609   43.1865 H   0  0  0  0  0  0  0  0  0  0  0  0
   55.0457   24.5190   43.1865 H   0  0  0  0  0  0  0  0  0  0  0  0
   56.1810   27.9760   45.2510 N   0  0  0  0  0  0  0  0  0  0  0  0
   55.1500   28.0310   45.0870 H   0  0  0  0  0  0  0  0  0  0  0  0
  1  2  1  0
  2  3  2  0
  2  4  1  0
  4  5  2  0
  5  6  1  0
  5  7  1  0
  7  8  2  0
  8  9  1  0
  8 10  1  0
  7 11  1  0
 11 12  2  0
 11 13  1  0
 13 14  2  0
 14 15  1  0
 14 16  1  0
 16 17  1  0
 17 18  1  0
 17 19  1  0
 17 20  1  0
 20 21  1  0
 20 22  1  0
 20 23  1  0
 23 24  1  0
 23 25  1  0
 23 26  1  0
 13 27  1  0
 27 28  1  0
 27  4  1  0
M  END
>  <UniqueID>  (77) 
69

>  <SMILES>  (77) 
C=c1cc(C=O)[nH]/c(=C\OCCC)c1=O

>  <Energy>  (77) 
24.35262203468081

>  <Genealogy>  (77) 
C=c1cc(C=O)[nH]/c(=C\OCCC)c1=O (cis-trans isomerization)
C=c1cc(C=O)[nH]/c(=C\OCCC)c1=O (3D coordinates assigned)
C=c1cc(C=O)[nH]/c(=C\OCCC)c1=O (optimized conformer: 24.35262203468081 kcal/mol)

>  <smiles>  (77) 
C=c1cc(C=O)[nH]c(=COCCC)c1=O

>  <score_type>  (77) 
oracle

>  <origin>  (77) 
adg

>  <m_score__min__energy>  (77) 
-6.0899999999999999

>  <m_primary>  (77) 
energy

$$$$
77:0
     RDKit          3D

 58 61  0  0  0  0  0  0  0  0999 V2000
   58.0553   32.1517   41.4264 H   0  0  0  0  0  0  0  0  0  0  0  0
   57.8520   32.0430   42.5020 C   0  0  0  0  0  0  0  0  0  0  0  0
   58.1750   33.0470   43.3590 N   0  0  0  0  0  0  0  0  0  0  0  0
   57.9700   32.9380   44.6990 C   0  0  0  0  0  0  0  0  0  0  0  0
   58.2780   34.3530   45.7540 S   0  0  0  0  0  0  0  0  0  0  0  0
   58.5060   33.3910   47.2900 C   0  0  0  0  0  0  0  0  0  0  0  0
   57.8412   32.5150   47.2661 H   0  0  0  0  0  0  0  0  0  0  0  0
   58.2646   34.0397   48.1449 H   0  0  0  0  0  0  0  0  0  0  0  0
   59.9370   32.9200   47.4370 C   0  0  0  0  0  0  0  0  0  0  0  0
   60.9620   33.8060   47.0530 C   0  0  0  0  0  0  0  0  0  0  0  0
   60.7058   34.8290   46.7401 H   0  0  0  0  0  0  0  0  0  0  0  0
   62.2980   33.4040   47.0640 C   0  0  0  0  0  0  0  0  0  0  0  0
   63.0885   34.1163   46.7852 H   0  0  0  0  0  0  0  0  0  0  0  0
   62.6310   32.1040   47.4270 C   0  0  0  0  0  0  0  0  0  0  0  0
   63.6839   31.7856   47.4265 H   0  0  0  0  0  0  0  0  0  0  0  0
   61.6300   31.2030   47.7920 C   0  0  0  0  0  0  0  0  0  0  0  0
   61.9006   30.1702   48.0570 H   0  0  0  0  0  0  0  0  0  0  0  0
   60.2810   31.5960   47.8260 C   0  0  0  0  0  0  0  0  0  0  0  0
   59.2790   30.6050   48.2820 C   0  0  0  0  0  0  0  0  0  0  0  0
   59.0320   30.4730   49.5110 O   0  0  0  0  0  0  0  0  0  0  0  0
   58.6330   29.7410   47.3440 N   0  0  0  0  0  0  0  0  0  0  0  0
   57.9780   28.9990   47.6760 H   0  0  0  0  0  0  0  0  0  0  0  0
   58.7900   29.8490   46.3170 H   0  0  0  0  0  0  0  0  0  0  0  0
   57.4230   31.7630   45.2300 C   0  0  0  0  0  0  0  0  0  0  0  0
   57.2887   31.6542   46.3163 H   0  0  0  0  0  0  0  0  0  0  0  0
   57.0480   30.7260   44.3620 C   0  0  0  0  0  0  0  0  0  0  0  0
   56.3690   29.5260   44.8860 C   0  0  0  0  0  0  0  0  0  0  0  0
   55.1450   29.3510   44.6430 O   0  0  0  0  0  0  0  0  0  0  0  0
   57.0560   28.5810   45.7150 N   0  0  0  0  0  0  0  0  0  0  0  0
   56.9060   27.2900   45.6410 C   0  0  0  0  0  0  0  0  0  0  0  0
   55.7210   26.7020   45.9710 N   0  0  0  0  0  0  0  0  0  0  0  0
   55.5590   25.3520   45.9630 C   0  0  0  0  0  0  0  0  0  0  0  0
   54.5872   24.9144   46.2351 H   0  0  0  0  0  0  0  0  0  0  0  0
   56.6270   24.5170   45.6090 C   0  0  0  0  0  0  0  0  0  0  0  0
   56.4490   23.0220   45.5960 C   0  0  0  0  0  0  0  0  0  0  0  0
   55.3947   22.7864   45.3888 H   0  0  0  0  0  0  0  0  0  0  0  0
   57.0975   22.5971   44.8157 H   0  0  0  0  0  0  0  0  0  0  0  0
   56.8290   22.4360   46.8970 N   0  0  0  0  0  0  0  0  0  0  0  0
   57.0240   20.9720   46.7880 C   0  0  0  0  0  0  0  0  0  0  0  0
   56.1622   20.5363   46.2612 H   0  0  0  0  0  0  0  0  0  0  0  0
   57.9578   20.7917   46.2352 H   0  0  0  0  0  0  0  0  0  0  0  0
   57.1510   20.3060   48.1740 C   0  0  0  0  0  0  0  0  0  0  0  0
   56.2199   19.7668   48.4026 H   0  0  0  0  0  0  0  0  0  0  0  0
   58.0005   19.6075   48.1552 H   0  0  0  0  0  0  0  0  0  0  0  0
   57.3910   21.3140   49.2110 N   0  0  0  0  0  0  0  0  0  0  0  0
   57.4810   20.8210   50.1300 H   0  0  0  0  0  0  0  0  0  0  0  0
   56.2530   22.2420   49.3010 C   0  0  0  0  0  0  0  0  0  0  0  0
   55.4102   21.7254   49.7836 H   0  0  0  0  0  0  0  0  0  0  0  0
   56.5715   23.1158   49.8883 H   0  0  0  0  0  0  0  0  0  0  0  0
   55.8040   22.7380   47.9120 C   0  0  0  0  0  0  0  0  0  0  0  0
   54.8638   22.2381   47.6362 H   0  0  0  0  0  0  0  0  0  0  0  0
   55.6575   23.8274   47.9548 H   0  0  0  0  0  0  0  0  0  0  0  0
   57.8530   25.1010   45.2650 C   0  0  0  0  0  0  0  0  0  0  0  0
   58.7046   24.4648   44.9820 H   0  0  0  0  0  0  0  0  0  0  0  0
   57.9950   26.4900   45.2810 C   0  0  0  0  0  0  0  0  0  0  0  0
   58.9566   26.9516   45.0123 H   0  0  0  0  0  0  0  0  0  0  0  0
   57.2620   30.8730   42.9860 C   0  0  0  0  0  0  0  0  0  0  0  0
   56.9676   30.0727   42.2911 H   0  0  0  0  0  0  0  0  0  0  0  0
  1  2  1  0
  2  3  2  0
  3  4  1  0
  4  5  1  0
  5  6  1  0
  6  7  1  0
  6  8  1  0
  6  9  1  0
  9 10  2  0
 10 11  1  0
 10 12  1  0
 12 13  1  0
 12 14  2  0
 14 15  1  0
 14 16  1  0
 16 17  1  0
 16 18  2  0
 18 19  1  0
 19 20  2  0
 19 21  1  0
 21 22  1  0
 21 23  1  0
  4 24  2  0
 24 25  1  0
 24 26  1  0
 26 27  1  0
 27 28  2  0
 27 29  1  0
 29 30  2  0
 30 31  1  0
 31 32  1  0
 32 33  1  0
 32 34  2  0
 34 35  1  0
 35 36  1  0
 35 37  1  0
 35 38  1  0
 38 39  1  0
 39 40  1  0
 39 41  1  0
 39 42  1  0
 42 43  1  0
 42 44  1  0
 42 45  1  0
 45 46  1  0
 45 47  1  0
 47 48  1  0
 47 49  1  0
 47 50  1  0
 50 51  1  0
 50 52  1  0
 34 53  1  0
 53 54  1  0
 53 55  2  0
 55 56  1  0
 26 57  2  0
 57 58  1  0
 57  2  1  0
 18  9  1  0
 55 30  1  0
 50 38  1  0
M  CHG  1  31  -1
M  END
>  <UniqueID>  (78) 
70

>  <SMILES>  (78) 
NC(=O)c1ccccc1CSc1cc(C(=O)/N=c2/ccc(CN3CCNCC3)c[n-]2)ccn1

>  <Energy>  (78) 
75.59536110697282

>  <Genealogy>  (78) 
NC(=O)c1ccccc1CSc1cc(C(=O)N=c2ccc(CN3CCNCC3)c[n-]2)ccn1 (protonated)
NC(=O)c1ccccc1CSc1cc(C(=O)/N=c2/ccc(CN3CCNCC3)c[n-]2)ccn1 (cis-trans isomerization)
NC(=O)c1ccccc1CSc1cc(C(=O)/N=c2/ccc(CN3CCNCC3)c[n-]2)ccn1 (3D coordinates assigned)
NC(=O)c1ccccc1CSc1cc(C(=O)/N=c2/ccc(CN3CCNCC3)c[n-]2)ccn1 (nonaromatic ring conformer: 75.59536110697282 kcal/mol)

>  <smiles>  (78) 
NC(=O)c1ccccc1CSc1cc(C(=O)N=c2ccc(CN3CCNCC3)c[nH]2)ccn1

>  <score_type>  (78) 
oracle

>  <origin>  (78) 
adg

>  <m_score__min__energy>  (78) 
-12.16

>  <m_primary>  (78) 
energy

$$$$
78:0
     RDKit          3D

 26 28  0  0  0  0  0  0  0  0999 V2000
   55.0770   24.2170   46.3250 C   0  0  0  0  0  0  0  0  0  0  0  0
   56.0250   25.3530   46.1320 C   0  0  0  0  0  0  0  0  0  0  0  0
   57.3600   25.1870   46.4040 N   0  0  0  0  0  0  0  0  0  0  0  0
   58.2430   26.2190   46.2670 C   0  0  0  0  0  0  0  0  0  0  0  0
   59.4680   26.0550   46.5080 O   0  0  0  0  0  0  0  0  0  0  0  0
   57.7410   27.4450   45.8570 C   0  0  0  0  0  0  0  0  0  0  0  0
   58.4050   28.6000   45.6400 N   0  0  0  0  0  0  0  0  0  0  0  0
   57.4750   29.4790   45.2600 N   0  0  0  0  0  0  0  0  0  0  0  0
   57.7660   30.8470   44.9090 C   0  0  0  0  0  0  0  0  0  0  0  0
   58.0800   31.8030   45.8930 C   0  0  0  0  0  0  0  0  0  0  0  0
   58.3690   33.1220   45.5310 C   0  0  0  0  0  0  0  0  0  0  0  0
   58.3550   33.4990   44.1860 C   0  0  0  0  0  0  0  0  0  0  0  0
   58.0600   32.5550   43.2000 C   0  0  0  0  0  0  0  0  0  0  0  0
   57.7700   31.2350   43.5580 C   0  0  0  0  0  0  0  0  0  0  0  0
   56.2790   28.8390   45.2410 C   0  0  0  0  0  0  0  0  0  0  0  0
   55.1830   29.3450   44.8800 O   0  0  0  0  0  0  0  0  0  0  0  0
   56.4350   27.5680   45.6200 N   0  0  0  0  0  0  0  0  0  0  0  0
   55.5590   26.5760   45.7400 N   0  0  0  0  0  0  0  0  0  0  0  0
   54.9300   24.0408   47.4008 H   0  0  0  0  0  0  0  0  0  0  0  0
   54.1115   24.4618   45.8582 H   0  0  0  0  0  0  0  0  0  0  0  0
   55.4906   23.3109   45.8582 H   0  0  0  0  0  0  0  0  0  0  0  0
   58.0981   31.5106   46.9533 H   0  0  0  0  0  0  0  0  0  0  0  0
   58.6079   33.8644   46.3067 H   0  0  0  0  0  0  0  0  0  0  0  0
   58.5762   34.5389   43.9036 H   0  0  0  0  0  0  0  0  0  0  0  0
   58.0558   32.8504   42.1404 H   0  0  0  0  0  0  0  0  0  0  0  0
   57.5433   30.4946   42.7767 H   0  0  0  0  0  0  0  0  0  0  0  0
  1  2  1  0
  2  3  2  0
  3  4  1  0
  4  5  2  0
  4  6  1  0
  6  7  2  0
  7  8  1  0
  8  9  1  0
  9 10  2  0
 10 11  1  0
 11 12  2  0
 12 13  1  0
 13 14  2  0
  8 15  1  0
 15 16  2  0
 15 17  1  0
 17 18  1  0
 18  2  1  0
 17  6  1  0
 14  9  1  0
  1 19  1  0
  1 20  1  0
  1 21  1  0
 10 22  1  0
 11 23  1  0
 12 24  1  0
 13 25  1  0
 14 26  1  0
M  CHG  1  18  -1
M  END
>  <UniqueID>  (79) 
71

>  <SMILES>  (79) 
Cc1nc(=O)c2nn(-c3ccccc3)c(=O)n2[n-]1

>  <Energy>  (79) 
79.86859213664073

>  <Genealogy>  (79) 
Cc1nc(=O)c2nn(-c3ccccc3)c(=O)n2[n-]1 (protonated)
Cc1nc(=O)c2nn(-c3ccccc3)c(=O)n2[n-]1 (3D coordinates assigned)
Cc1nc(=O)c2nn(-c3ccccc3)c(=O)n2[n-]1 (optimized conformer: 79.86859213664073 kcal/mol)

>  <smiles>  (79) 
Cc1nc(=O)c2nn(-c3ccccc3)c(=O)n2[nH]1

>  <score_type>  (79) 
oracle

>  <origin>  (79) 
adg

>  <m_score__min__energy>  (79) 
-8.0299999999999994

>  <m_primary>  (79) 
energy

$$$$
79:0
     RDKit          3D

 80 84  0  0  0  0  0  0  0  0999 V2000
   60.7897   31.2773   48.1928 H   0  0  0  0  0  0  0  0  0  0  0  0
   61.2480   30.8720   49.1070 C   0  0  0  0  0  0  0  0  0  0  0  0
   60.6850   29.8210   49.7270 C   0  0  0  0  0  0  0  0  0  0  0  0
   59.5100   29.2170   49.2520 O   0  0  0  0  0  0  0  0  0  0  0  0
   59.3810   28.3890   48.1250 C   0  0  0  0  0  0  0  0  0  0  0  0
   58.1190   28.2750   47.5370 C   0  0  0  0  0  0  0  0  0  0  0  0
   57.2786   28.8605   47.9381 H   0  0  0  0  0  0  0  0  0  0  0  0
   57.9090   27.4240   46.4420 C   0  0  0  0  0  0  0  0  0  0  0  0
   56.5440   27.2410   45.9210 C   0  0  0  0  0  0  0  0  0  0  0  0
   55.9230   26.1610   46.0990 O   0  0  0  0  0  0  0  0  0  0  0  0
   55.9090   28.3360   45.2620 N   0  0  0  0  0  0  0  0  0  0  0  0
   56.5520   29.5200   44.7810 C   0  0  0  0  0  0  0  0  0  0  0  0
   56.4490   29.9470   43.4480 C   0  0  0  0  0  0  0  0  0  0  0  0
   55.7709   29.4284   42.7543 H   0  0  0  0  0  0  0  0  0  0  0  0
   57.2100   31.0330   43.0030 C   0  0  0  0  0  0  0  0  0  0  0  0
   57.0976   31.3931   41.9697 H   0  0  0  0  0  0  0  0  0  0  0  0
   58.1140   31.6640   43.8660 C   0  0  0  0  0  0  0  0  0  0  0  0
   58.7211   32.5074   43.5053 H   0  0  0  0  0  0  0  0  0  0  0  0
   58.2460   31.2210   45.1910 C   0  0  0  0  0  0  0  0  0  0  0  0
   59.2960   31.7730   46.0790 C   0  0  0  0  0  0  0  0  0  0  0  0
   60.3830   31.1510   46.2240 O   0  0  0  0  0  0  0  0  0  0  0  0
   59.1080   33.0230   46.7640 N   0  0  0  0  0  0  0  0  0  0  0  0
   59.0450   33.1210   48.1940 C   0  0  0  0  0  0  0  0  0  0  0  0
   59.9880   33.8890   48.8940 C   0  0  0  0  0  0  0  0  0  0  0  0
   60.6905   34.5306   48.3419 H   0  0  0  0  0  0  0  0  0  0  0  0
   60.0380   33.8420   50.2880 C   0  0  0  0  0  0  0  0  0  0  0  0
   60.7537   34.4734   50.8349 H   0  0  0  0  0  0  0  0  0  0  0  0
   59.1780   32.9920   50.9880 C   0  0  0  0  0  0  0  0  0  0  0  0
   59.2412   32.9329   52.0846 H   0  0  0  0  0  0  0  0  0  0  0  0
   58.2340   32.2130   50.3010 C   0  0  0  0  0  0  0  0  0  0  0  0
   57.4400   31.2060   51.0310 C   0  0  0  0  0  0  0  0  0  0  0  0
   57.9170   30.0590   51.2390 O   0  0  0  0  0  0  0  0  0  0  0  0
   56.1700   31.5830   51.5920 N   0  0  0  0  0  0  0  0  0  0  0  0
   56.0000   32.6000   51.7430 H   0  0  0  0  0  0  0  0  0  0  0  0
   55.2130   30.6660   52.1380 C   0  0  0  0  0  0  0  0  0  0  0  0
   53.8510   30.7350   51.8050 C   0  0  0  0  0  0  0  0  0  0  0  0
   53.5020   31.4769   51.0716 H   0  0  0  0  0  0  0  0  0  0  0  0
   52.9630   29.8870   52.3870 N   0  0  0  0  0  0  0  0  0  0  0  0
   53.3510   28.9490   53.2990 C   0  0  0  0  0  0  0  0  0  0  0  0
   52.4820   28.1510   53.8470 N   0  0  0  0  0  0  0  0  0  0  0  0
   52.3790   26.7280   53.5410 C   0  0  0  0  0  0  0  0  0  0  0  0
   52.3374   26.1535   54.4781 H   0  0  0  0  0  0  0  0  0  0  0  0
   51.4652   26.5437   52.9571 H   0  0  0  0  0  0  0  0  0  0  0  0
   53.2568   26.4140   52.9571 H   0  0  0  0  0  0  0  0  0  0  0  0
   54.6980   28.8560   53.6640 C   0  0  0  0  0  0  0  0  0  0  0  0
   55.0230   28.1040   54.3980 H   0  0  0  0  0  0  0  0  0  0  0  0
   55.6250   29.7240   53.0900 C   0  0  0  0  0  0  0  0  0  0  0  0
   56.6833   29.6695   53.3852 H   0  0  0  0  0  0  0  0  0  0  0  0
   58.1350   32.3240   48.9040 C   0  0  0  0  0  0  0  0  0  0  0  0
   57.3418   31.7845   48.3656 H   0  0  0  0  0  0  0  0  0  0  0  0
   57.4130   30.1910   45.6510 C   0  0  0  0  0  0  0  0  0  0  0  0
   57.4384   29.9075   46.7135 H   0  0  0  0  0  0  0  0  0  0  0  0
   58.9890   26.7050   45.9080 C   0  0  0  0  0  0  0  0  0  0  0  0
   58.8396   26.0653   45.0257 H   0  0  0  0  0  0  0  0  0  0  0  0
   60.2600   26.8000   46.4970 C   0  0  0  0  0  0  0  0  0  0  0  0
   61.3900   25.9500   46.0000 C   0  0  0  0  0  0  0  0  0  0  0  0
   61.9413   25.5353   46.8568 H   0  0  0  0  0  0  0  0  0  0  0  0
   60.9891   25.1277   45.3892 H   0  0  0  0  0  0  0  0  0  0  0  0
   62.0689   26.5632   45.3892 H   0  0  0  0  0  0  0  0  0  0  0  0
   60.4460   27.6180   47.6220 C   0  0  0  0  0  0  0  0  0  0  0  0
   61.4293   27.6569   48.1135 H   0  0  0  0  0  0  0  0  0  0  0  0
   61.2970   29.2590   50.9840 C   0  0  0  0  0  0  0  0  0  0  0  0
   62.0562   28.5115   50.7103 H   0  0  0  0  0  0  0  0  0  0  0  0
   60.4986   28.7989   51.5846 H   0  0  0  0  0  0  0  0  0  0  0  0
   61.9580   30.3600   51.8180 C   0  0  0  0  0  0  0  0  0  0  0  0
   62.5054   29.9040   52.6561 H   0  0  0  0  0  0  0  0  0  0  0  0
   61.1820   31.0365   52.2054 H   0  0  0  0  0  0  0  0  0  0  0  0
   62.8920   31.1230   50.9850 N   0  0  0  0  0  0  0  0  0  0  0  0
   64.1940   31.5380   51.5150 C   0  0  0  0  0  0  0  0  0  0  0  0
   64.1624   31.5279   52.6145 H   0  0  0  0  0  0  0  0  0  0  0  0
   64.9711   30.8430   51.1641 H   0  0  0  0  0  0  0  0  0  0  0  0
   64.4256   32.5545   51.1641 H   0  0  0  0  0  0  0  0  0  0  0  0
   62.4860   31.4900   49.6490 C   0  0  0  0  0  0  0  0  0  0  0  0
   63.2570   32.2670   48.9380 N   0  0  0  0  0  0  0  0  0  0  0  0
   63.3700   32.3610   47.5080 C   0  0  0  0  0  0  0  0  0  0  0  0
   63.6390   31.3520   46.8040 O   0  0  0  0  0  0  0  0  0  0  0  0
   63.0610   33.6590   46.8400 C   0  0  0  0  0  0  0  0  0  0  0  0
   62.8776   34.4296   47.6032 H   0  0  0  0  0  0  0  0  0  0  0  0
   63.9126   33.9601   46.2122 H   0  0  0  0  0  0  0  0  0  0  0  0
   62.1651   33.5441   46.2122 H   0  0  0  0  0  0  0  0  0  0  0  0
  1  2  1  0
  2  3  2  0
  3  4  1  0
  4  5  1  0
  5  6  2  0
  6  7  1  0
  6  8  1  0
  8  9  1  0
  9 10  2  0
  9 11  1  0
 11 12  1  0
 12 13  2  0
 13 14  1  0
 13 15  1  0
 15 16  1  0
 15 17  2  0
 17 18  1  0
 17 19  1  0
 19 20  1  0
 20 21  2  0
 20 22  1  0
 22 23  1  0
 23 24  2  0
 24 25  1  0
 24 26  1  0
 26 27  1  0
 26 28  2  0
 28 29  1  0
 28 30  1  0
 30 31  1  0
 31 32  2  0
 31 33  1  0
 33 34  1  0
 33 35  1  0
 35 36  2  0
 36 37  1  0
 36 38  1  0
 38 39  1  0
 39 40  2  3
 40 41  1  0
 41 42  1  0
 41 43  1  0
 41 44  1  0
 39 45  1  0
 45 46  1  0
 45 47  2  0
 47 48  1  0
 30 49  2  0
 49 50  1  0
 19 51  2  0
 51 52  1  0
  8 53  2  0
 53 54  1  0
 53 55  1  0
 55 56  1  0
 56 57  1  0
 56 58  1  0
 56 59  1  0
 55 60  2  0
 60 61  1  0
  3 62  1  0
 62 63  1  0
 62 64  1  0
 62 65  1  0
 65 66  1  0
 65 67  1  0
 65 68  1  0
 68 69  1  0
 69 70  1  0
 69 71  1  0
 69 72  1  0
 68 73  1  0
 73 74  2  0
 74 75  1  0
 75 76  2  0
 75 77  1  0
 77 78  1  0
 77 79  1  0
 77 80  1  0
 73  2  1  0
 60  5  1  0
 51 12  1  0
 49 23  1  0
 47 35  1  0
M  CHG  3  11  -1  22  -1  38  -1
M  END
>  <UniqueID>  (80) 
72

>  <SMILES>  (80) 
CN=c1ccc(NC(=O)c2cccc([N-]C(=O)c3cccc([N-]C(=O)c4cc(C)cc(OC5=C/C(=N\C(C)=O)N(C)CC5)c4)c3)c2)c[n-]1

>  <Energy>  (80) 
116.80930308894051

>  <Genealogy>  (80) 
CN=c1ccc(NC(=O)c2cccc([N-]C(=O)c3cccc([N-]C(=O)c4cc(C)cc(OC5=CC(=NC(C)=O)N(C)CC5)c4)c3)c2)c[n-]1 (protonated)
CN=c1ccc(NC(=O)c2cccc([N-]C(=O)c3cccc([N-]C(=O)c4cc(C)cc(OC5=C/C(=N\C(C)=O)N(C)CC5)c4)c3)c2)c[n-]1 (cis-trans isomerization)
CN=c1ccc(NC(=O)c2cccc([N-]C(=O)c3cccc([N-]C(=O)c4cc(C)cc(OC5=C/C(=N\C(C)=O)N(C)CC5)c4)c3)c2)c[n-]1 (3D coordinates assigned)
CN=c1ccc(NC(=O)c2cccc([N-]C(=O)c3cccc([N-]C(=O)c4cc(C)cc(OC5=C/C(=N\C(C)=O)N(C)CC5)c4)c3)c2)c[n-]1 (nonaromatic ring conformer: 116.80930308894051 kcal/mol)

>  <smiles>  (80) 
CN=c1ccc(NC(=O)c2cccc(NC(=O)c3cccc(NC(=O)c4cc(C)cc(OC5=CC(=NC(C)=O)N(C)CC5)c4)c3)c2)c[nH]1

>  <score_type>  (80) 
oracle

>  <origin>  (80) 
adg

>  <m_score__min__energy>  (80) 
-13.970000000000001

>  <m_primary>  (80) 
energy

$$$$
80:0
     RDKit          3D

 47 49  0  0  0  0  0  0  0  0999 V2000
   54.7730   28.4580   44.5070 H   0  0  0  0  0  0  0  0  0  0  0  0
   54.9460   29.3820   44.1340 O   0  0  0  0  0  0  0  0  0  0  0  0
   55.7810   30.2480   44.8000 N   0  0  0  0  0  0  0  0  0  0  0  0
   57.0300   30.3880   44.4730 C   0  0  0  0  0  0  0  0  0  0  0  0
   57.8730   31.3840   45.1900 C   0  0  0  0  0  0  0  0  0  0  0  0
   57.4580   32.7200   45.3300 C   0  0  0  0  0  0  0  0  0  0  0  0
   56.4883   33.0370   44.9187 H   0  0  0  0  0  0  0  0  0  0  0  0
   58.2470   33.6220   45.9700 N   0  0  0  0  0  0  0  0  0  0  0  0
   59.4550   33.2890   46.4930 C   0  0  0  0  0  0  0  0  0  0  0  0
   60.2050   34.2800   47.1420 O   0  0  0  0  0  0  0  0  0  0  0  0
   61.1730   34.0270   48.1210 C   0  0  0  0  0  0  0  0  0  0  0  0
   60.7790   34.0240   49.4640 C   0  0  0  0  0  0  0  0  0  0  0  0
   59.7328   34.2397   49.7268 H   0  0  0  0  0  0  0  0  0  0  0  0
   61.7050   33.7490   50.4730 C   0  0  0  0  0  0  0  0  0  0  0  0
   61.3860   33.7538   51.5257 H   0  0  0  0  0  0  0  0  0  0  0  0
   63.0390   33.4670   50.1490 C   0  0  0  0  0  0  0  0  0  0  0  0
   64.0390   33.1990   51.2350 C   0  0  0  0  0  0  0  0  0  0  0  0
   63.5583   33.3278   52.2160 H   0  0  0  0  0  0  0  0  0  0  0  0
   64.4134   32.1688   51.1426 H   0  0  0  0  0  0  0  0  0  0  0  0
   64.8784   33.9039   51.1426 H   0  0  0  0  0  0  0  0  0  0  0  0
   63.4480   33.5110   48.8080 C   0  0  0  0  0  0  0  0  0  0  0  0
   64.4994   33.3124   48.5527 H   0  0  0  0  0  0  0  0  0  0  0  0
   62.5290   33.8060   47.7880 C   0  0  0  0  0  0  0  0  0  0  0  0
   63.0070   33.8660   46.3630 C   0  0  0  0  0  0  0  0  0  0  0  0
   64.0983   34.0030   46.3478 H   0  0  0  0  0  0  0  0  0  0  0  0
   62.7480   32.9283   45.8496 H   0  0  0  0  0  0  0  0  0  0  0  0
   62.5242   34.7106   45.8496 H   0  0  0  0  0  0  0  0  0  0  0  0
   59.9060   31.9640   46.3880 C   0  0  0  0  0  0  0  0  0  0  0  0
   60.8751   31.6730   46.8194 H   0  0  0  0  0  0  0  0  0  0  0  0
   59.1170   31.0190   45.7330 C   0  0  0  0  0  0  0  0  0  0  0  0
   59.4704   29.9814   45.6407 H   0  0  0  0  0  0  0  0  0  0  0  0
   57.5910   29.5950   43.4150 N   0  0  0  0  0  0  0  0  0  0  0  0
   58.1850   30.0750   42.7020 H   0  0  0  0  0  0  0  0  0  0  0  0
   57.7540   28.1510   43.5610 C   0  0  0  0  0  0  0  0  0  0  0  0
   56.8640   27.6410   43.1637 H   0  0  0  0  0  0  0  0  0  0  0  0
   58.6459   27.8281   43.0039 H   0  0  0  0  0  0  0  0  0  0  0  0
   57.9220   27.8030   45.0080 C   0  0  0  0  0  0  0  0  0  0  0  0
   56.9200   27.5390   45.9180 C   0  0  0  0  0  0  0  0  0  0  0  0
   55.5680   27.4520   45.6130 O   0  0  0  0  0  0  0  0  0  0  0  0
   57.4070   27.3940   47.1650 N   0  0  0  0  0  0  0  0  0  0  0  0
   58.7390   27.5700   47.0380 C   0  0  0  0  0  0  0  0  0  0  0  0
   59.6780   27.5780   48.1980 C   0  0  0  0  0  0  0  0  0  0  0  0
   59.1026   27.5731   49.1355 H   0  0  0  0  0  0  0  0  0  0  0  0
   60.3194   26.6853   48.1567 H   0  0  0  0  0  0  0  0  0  0  0  0
   60.3041   28.4815   48.1567 H   0  0  0  0  0  0  0  0  0  0  0  0
   59.0940   27.8470   45.7290 C   0  0  0  0  0  0  0  0  0  0  0  0
   60.1028   28.0583   45.3448 H   0  0  0  0  0  0  0  0  0  0  0  0
  1  2  1  0
  2  3  1  0
  3  4  2  0
  4  5  1  0
  5  6  2  0
  6  7  1  0
  6  8  1  0
  8  9  2  0
  9 10  1  0
 10 11  1  0
 11 12  2  0
 12 13  1  0
 12 14  1  0
 14 15  1  0
 14 16  2  0
 16 17  1  0
 17 18  1  0
 17 19  1  0
 17 20  1  0
 16 21  1  0
 21 22  1  0
 21 23  2  0
 23 24  1  0
 24 25  1  0
 24 26  1  0
 24 27  1  0
  9 28  1  0
 28 29  1  0
 28 30  2  0
 30 31  1  0
  4 32  1  0
 32 33  1  0
 32 34  1  0
 34 35  1  0
 34 36  1  0
 34 37  1  0
 37 38  2  0
 38 39  1  0
 38 40  1  0
 40 41  1  0
 41 42  1  0
 42 43  1  0
 42 44  1  0
 42 45  1  0
 41 46  2  0
 46 47  1  0
 30  5  1  0
 46 37  1  0
 23 11  1  0
M  CHG  2  39  -1  40  -1
M  END
>  <UniqueID>  (81) 
73

>  <SMILES>  (81) 
Cc1ccc(Oc2ccc(/C(=N/O)NCc3cc(C)[n-]c3[O-])cn2)c(C)c1

>  <Energy>  (81) 
83.34589839183623

>  <Genealogy>  (81) 
Cc1ccc(Oc2ccc(C(=NO)NCc3cc(C)[n-]c3[O-])cn2)c(C)c1 (protonated)
Cc1ccc(Oc2ccc(/C(=N/O)NCc3cc(C)[n-]c3[O-])cn2)c(C)c1 (cis-trans isomerization)
Cc1ccc(Oc2ccc(/C(=N/O)NCc3cc(C)[n-]c3[O-])cn2)c(C)c1 (3D coordinates assigned)
Cc1ccc(Oc2ccc(/C(=N/O)NCc3cc(C)[n-]c3[O-])cn2)c(C)c1 (optimized conformer: 83.34589839183623 kcal/mol)

>  <smiles>  (81) 
Cc1ccc(Oc2ccc(C(=NO)NCc3cc(C)[nH]c3O)cn2)c(C)c1

>  <score_type>  (81) 
oracle

>  <origin>  (81) 
adg

>  <m_score__min__energy>  (81) 
-14.42

>  <m_primary>  (81) 
energy

$$$$
81:0
     RDKit          3D

 58 60  0  0  0  0  0  0  0  0999 V2000
   57.8010   33.9490   45.4560 C   0  0  0  0  0  0  0  0  0  0  0  0
   57.7690   32.7500   46.0450 C   0  0  0  0  0  0  0  0  0  0  0  0
   58.5670   32.4890   47.3040 C   0  0  0  0  0  0  0  0  0  0  0  0
   58.7530   31.0520   47.6240 N   0  0  0  0  0  0  0  0  0  0  0  0
   59.1360   30.2010   46.4710 C   0  0  0  0  0  0  0  0  0  0  0  0
   58.6460   28.7740   46.5820 C   0  0  0  0  0  0  0  0  0  0  0  0
   59.4410   27.7990   47.2110 C   0  0  0  0  0  0  0  0  0  0  0  0
   58.9880   26.4800   47.3130 C   0  0  0  0  0  0  0  0  0  0  0  0
   57.7390   26.1250   46.7990 C   0  0  0  0  0  0  0  0  0  0  0  0
   56.9330   27.0900   46.1780 C   0  0  0  0  0  0  0  0  0  0  0  0
   55.6860   26.7510   45.6660 O   0  0  0  0  0  0  0  0  0  0  0  0
   57.3860   28.4100   46.0720 C   0  0  0  0  0  0  0  0  0  0  0  0
   59.4890   30.7530   48.8710 C   0  0  0  0  0  0  0  0  0  0  0  0
   58.7210   31.2320   50.0750 C   0  0  0  0  0  0  0  0  0  0  0  0
   58.8960   32.5420   50.5450 C   0  0  0  0  0  0  0  0  0  0  0  0
   58.2340   32.9690   51.6990 C   0  0  0  0  0  0  0  0  0  0  0  0
   57.4050   32.0890   52.4000 C   0  0  0  0  0  0  0  0  0  0  0  0
   57.2260   30.7740   51.9440 C   0  0  0  0  0  0  0  0  0  0  0  0
   56.3920   29.8060   52.7410 C   0  0  0  0  0  0  0  0  0  0  0  0
   54.9970   30.2880   52.8410 N   0  0  0  0  0  0  0  0  0  0  0  0
   54.5160   30.2920   54.2320 C   0  0  0  0  0  0  0  0  0  0  0  0
   54.0810   29.5580   51.9380 C   0  0  0  0  0  0  0  0  0  0  0  0
   52.9570   30.4150   51.3900 C   0  0  0  0  0  0  0  0  0  0  0  0
   52.4020   30.1400   50.1320 C   0  0  0  0  0  0  0  0  0  0  0  0
   51.3710   30.9430   49.6410 C   0  0  0  0  0  0  0  0  0  0  0  0
   50.9060   31.9830   50.3820 N   0  0  0  0  0  0  0  0  0  0  0  0
   51.4180   32.2730   51.6070 C   0  0  0  0  0  0  0  0  0  0  0  0
   50.9580   33.2440   52.2650 O   0  0  0  0  0  0  0  0  0  0  0  0
   52.4520   31.4920   52.1360 C   0  0  0  0  0  0  0  0  0  0  0  0
   57.8840   30.3520   50.7780 C   0  0  0  0  0  0  0  0  0  0  0  0
   57.2171   34.1281   44.5411 H   0  0  0  0  0  0  0  0  0  0  0  0
   58.4112   34.7569   45.8860 H   0  0  0  0  0  0  0  0  0  0  0  0
   57.1572   31.9455   45.6108 H   0  0  0  0  0  0  0  0  0  0  0  0
   59.5602   32.9460   47.1829 H   0  0  0  0  0  0  0  0  0  0  0  0
   57.9935   32.9245   48.1356 H   0  0  0  0  0  0  0  0  0  0  0  0
   58.7137   30.6435   45.5568 H   0  0  0  0  0  0  0  0  0  0  0  0
   60.2351   30.1637   46.4488 H   0  0  0  0  0  0  0  0  0  0  0  0
   60.4224   28.0750   47.6241 H   0  0  0  0  0  0  0  0  0  0  0  0
   59.6171   25.7200   47.7994 H   0  0  0  0  0  0  0  0  0  0  0  0
   57.3867   25.0862   46.8814 H   0  0  0  0  0  0  0  0  0  0  0  0
   55.5930   26.1420   44.8610 H   0  0  0  0  0  0  0  0  0  0  0  0
   56.7531   29.1677   45.5869 H   0  0  0  0  0  0  0  0  0  0  0  0
   59.6398   29.6662   48.9487 H   0  0  0  0  0  0  0  0  0  0  0  0
   60.4576   31.2735   48.8414 H   0  0  0  0  0  0  0  0  0  0  0  0
   59.5564   33.2352   50.0034 H   0  0  0  0  0  0  0  0  0  0  0  0
   58.3657   34.0008   52.0568 H   0  0  0  0  0  0  0  0  0  0  0  0
   56.8914   32.4281   53.3117 H   0  0  0  0  0  0  0  0  0  0  0  0
   56.4017   28.8247   52.2441 H   0  0  0  0  0  0  0  0  0  0  0  0
   56.8137   29.7212   53.7534 H   0  0  0  0  0  0  0  0  0  0  0  0
   55.3763   30.2848   54.9175 H   0  0  0  0  0  0  0  0  0  0  0  0
   53.9136   31.1952   54.4091 H   0  0  0  0  0  0  0  0  0  0  0  0
   53.8986   29.3990   54.4091 H   0  0  0  0  0  0  0  0  0  0  0  0
   54.6651   29.1680   51.0915 H   0  0  0  0  0  0  0  0  0  0  0  0
   53.6156   28.7564   52.5304 H   0  0  0  0  0  0  0  0  0  0  0  0
   52.7771   29.2957   49.5350 H   0  0  0  0  0  0  0  0  0  0  0  0
   50.9345   30.7337   48.6532 H   0  0  0  0  0  0  0  0  0  0  0  0
   52.8661   31.7203   53.1292 H   0  0  0  0  0  0  0  0  0  0  0  0
   57.7425   29.3241   50.4128 H   0  0  0  0  0  0  0  0  0  0  0  0
  1  2  2  0
  2  3  1  0
  3  4  1  0
  4  5  1  0
  5  6  1  0
  6  7  2  0
  7  8  1  0
  8  9  2  0
  9 10  1  0
 10 11  1  0
 10 12  2  0
  4 13  1  0
 13 14  1  0
 14 15  2  0
 15 16  1  0
 16 17  2  0
 17 18  1  0
 18 19  1  0
 19 20  1  0
 20 21  1  0
 20 22  1  0
 22 23  1  0
 23 24  1  0
 24 25  2  0
 25 26  1  0
 26 27  1  0
 27 28  2  0
 27 29  1  0
 18 30  2  0
 12  6  1  0
 30 14  1  0
 29 23  2  0
  1 31  1  0
  1 32  1  0
  2 33  1  0
  3 34  1  0
  3 35  1  0
  5 36  1  0
  5 37  1  0
  7 38  1  0
  8 39  1  0
  9 40  1  0
 11 41  1  0
 12 42  1  0
 13 43  1  0
 13 44  1  0
 15 45  1  0
 16 46  1  0
 17 47  1  0
 19 48  1  0
 19 49  1  0
 21 50  1  0
 21 51  1  0
 21 52  1  0
 22 53  1  0
 22 54  1  0
 24 55  1  0
 25 56  1  0
 29 57  1  0
 30 58  1  0
M  CHG  1  26  -1
M  END
>  <UniqueID>  (82) 
74

>  <SMILES>  (82) 
C=CCN(Cc1cccc(O)c1)Cc1cccc(CN(C)Cc2cc[n-]c(=O)c2)c1

>  <Energy>  (82) 
65.71783100954889

>  <Genealogy>  (82) 
C=CCN(Cc1cccc(O)c1)Cc1cccc(CN(C)Cc2cc[n-]c(=O)c2)c1 (protonated)
C=CCN(Cc1cccc(O)c1)Cc1cccc(CN(C)Cc2cc[n-]c(=O)c2)c1 (3D coordinates assigned)
C=CCN(Cc1cccc(O)c1)Cc1cccc(CN(C)Cc2cc[n-]c(=O)c2)c1 (optimized conformer: 65.71783100954889 kcal/mol)

>  <smiles>  (82) 
C=CCN(Cc1cccc(O)c1)Cc1cccc(CN(C)Cc2cc[nH]c(=O)c2)c1

>  <score_type>  (82) 
oracle

>  <origin>  (82) 
adg

>  <m_score__min__energy>  (82) 
-12.779999999999999

>  <m_primary>  (82) 
energy

$$$$
82:0
     RDKit          3D

 69 74  0  0  0  0  0  0  0  0999 V2000
   57.8970   31.6330   51.6010 C   0  0  0  0  0  0  0  0  0  0  0  0
   58.6230   30.9440   52.7550 C   0  0  0  0  0  0  0  0  0  0  0  0
   59.9940   31.4440   52.8760 N   0  0  0  0  0  0  0  0  0  0  0  0
   60.8180   31.8510   51.7650 C   0  0  0  0  0  0  0  0  0  0  0  0
   61.0330   33.2080   51.4470 C   0  0  0  0  0  0  0  0  0  0  0  0
   61.7930   33.5580   50.3260 C   0  0  0  0  0  0  0  0  0  0  0  0
   62.3530   32.5660   49.5120 C   0  0  0  0  0  0  0  0  0  0  0  0
   63.1140   33.0160   47.9850 S   0  0  0  0  0  0  0  0  0  0  0  0
   64.4710   33.6040   48.2600 O   0  0  0  0  0  0  0  0  0  0  0  0
   63.2830   31.8030   47.1130 O   0  0  0  0  0  0  0  0  0  0  0  0
   62.1240   34.1870   47.1610 N   0  0  0  0  0  0  0  0  0  0  0  0
   61.2440   33.4810   46.2240 C   0  0  0  0  0  0  0  0  0  0  0  0
   59.7640   33.9020   46.3600 C   0  0  1  0  0  0  0  0  0  0  0  0
   58.8570   32.8860   45.5840 C   0  0  0  0  0  0  0  0  0  0  0  0
   58.1590   31.8260   46.4890 C   0  0  2  0  0  0  0  0  0  0  0  0
   58.9820   31.5960   47.7380 C   0  0  0  0  0  0  0  0  0  0  0  0
   59.7820   30.5250   47.8410 C   0  0  0  0  0  0  0  0  0  0  0  0
   59.9160   29.6090   46.6650 C   0  0  0  0  0  0  0  0  0  0  0  0
   58.5120   29.2830   46.0720 C   0  0  2  0  0  0  0  0  0  0  0  0
   58.6040   29.0680   44.5890 C   0  0  0  0  0  0  0  0  0  0  0  0
   58.0350   30.3220   44.3380 C   0  0  0  0  0  0  0  0  0  0  0  0
   57.7210   30.4860   45.8000 C   0  0  2  0  0  0  0  0  0  0  0  0
   58.6390   27.7930   43.8190 C   0  0  0  0  0  0  0  0  0  0  0  0
   57.8480   26.6960   44.6050 C   0  0  1  0  0  0  0  0  0  0  0  0
   58.7950   25.6850   45.2880 C   0  0  0  0  0  0  0  0  0  0  0  0
   59.4280   26.2700   46.5230 C   0  0  0  0  0  0  0  0  0  0  0  0
   60.5950   26.0290   46.7880 O   0  0  0  0  0  0  0  0  0  0  0  0
   58.5780   27.0590   47.4880 C   0  0  0  0  0  0  0  0  0  0  0  0
   57.7050   28.0890   46.7340 C   0  0  2  0  0  0  0  0  0  0  0  0
   56.8810   27.3030   45.6670 C   0  0  0  0  0  0  0  0  0  0  0  0
   59.1230   32.7730   48.6610 C   0  0  0  0  0  0  0  0  0  0  0  0
   59.3650   34.0120   47.8290 C   0  0  0  0  0  0  0  0  0  0  0  0
   59.2890   35.1140   48.3540 O   0  0  0  0  0  0  0  0  0  0  0  0
   62.1610   31.2170   49.8330 C   0  0  0  0  0  0  0  0  0  0  0  0
   61.3980   30.8640   50.9500 C   0  0  0  0  0  0  0  0  0  0  0  0
   57.1545   32.3377   52.0035 H   0  0  0  0  0  0  0  0  0  0  0  0
   58.6251   32.1802   50.9842 H   0  0  0  0  0  0  0  0  0  0  0  0
   57.3886   30.8773   50.9842 H   0  0  0  0  0  0  0  0  0  0  0  0
   58.0821   31.1428   53.6920 H   0  0  0  0  0  0  0  0  0  0  0  0
   58.6571   29.8627   52.5561 H   0  0  0  0  0  0  0  0  0  0  0  0
   60.4020   31.4850   53.8370 H   0  0  0  0  0  0  0  0  0  0  0  0
   60.6012   33.9946   52.0832 H   0  0  0  0  0  0  0  0  0  0  0  0
   61.9516   34.6189   50.0826 H   0  0  0  0  0  0  0  0  0  0  0  0
   61.5350   34.6260   47.9050 H   0  0  0  0  0  0  0  0  0  0  0  0
   61.5778   33.6962   45.1982 H   0  0  0  0  0  0  0  0  0  0  0  0
   61.3057   32.4076   46.4564 H   0  0  0  0  0  0  0  0  0  0  0  0
   59.6254   34.8982   45.9146 H   0  0  0  0  0  0  0  0  0  0  0  0
   58.0774   33.4544   45.0556 H   0  0  0  0  0  0  0  0  0  0  0  0
   59.5185   32.3309   44.9026 H   0  0  0  0  0  0  0  0  0  0  0  0
   57.1881   32.2702   46.7538 H   0  0  0  0  0  0  0  0  0  0  0  0
   60.3301   30.3232   48.7731 H   0  0  0  0  0  0  0  0  0  0  0  0
   60.5317   30.0955   45.8941 H   0  0  0  0  0  0  0  0  0  0  0  0
   60.3928   28.6733   46.9922 H   0  0  0  0  0  0  0  0  0  0  0  0
   57.8805   30.9366   43.4389 H   0  0  0  0  0  0  0  0  0  0  0  0
   56.6814   30.5630   46.1512 H   0  0  0  0  0  0  0  0  0  0  0  0
   58.1754   27.9456   42.8332 H   0  0  0  0  0  0  0  0  0  0  0  0
   59.6822   27.4712   43.6839 H   0  0  0  0  0  0  0  0  0  0  0  0
   57.2438   26.1677   43.8528 H   0  0  0  0  0  0  0  0  0  0  0  0
   58.2199   24.7908   45.5703 H   0  0  0  0  0  0  0  0  0  0  0  0
   59.5953   25.4277   44.5785 H   0  0  0  0  0  0  0  0  0  0  0  0
   57.9245   26.3684   48.0412 H   0  0  0  0  0  0  0  0  0  0  0  0
   59.2397   27.5979   48.1821 H   0  0  0  0  0  0  0  0  0  0  0  0
   57.0534   28.5870   47.4671 H   0  0  0  0  0  0  0  0  0  0  0  0
   56.3223   26.4932   46.1591 H   0  0  0  0  0  0  0  0  0  0  0  0
   56.1764   27.9873   45.1717 H   0  0  0  0  0  0  0  0  0  0  0  0
   58.2013   32.8955   49.2488 H   0  0  0  0  0  0  0  0  0  0  0  0
   59.9658   32.6120   49.3493 H   0  0  0  0  0  0  0  0  0  0  0  0
   62.6111   30.4337   49.2055 H   0  0  0  0  0  0  0  0  0  0  0  0
   61.2500   29.8016   51.1937 H   0  0  0  0  0  0  0  0  0  0  0  0
  1  2  1  0
  2  3  1  0
  3  4  1  0
  4  5  2  0
  5  6  1  0
  6  7  2  0
  7  8  1  0
  8  9  2  0
  8 10  2  0
  8 11  1  0
 11 12  1  0
 12 13  1  0
 13 14  1  0
 14 15  1  0
 15 16  1  0
 16 17  2  0
 17 18  1  0
 19 18  1  1
 19 20  1  0
 20 21  2  0
 21 22  1  0
 20 23  1  0
 23 24  1  0
 24 25  1  0
 25 26  1  0
 26 27  2  0
 26 28  1  0
 28 29  1  0
 29 30  1  0
 16 31  1  0
 31 32  1  0
 32 33  2  0
  7 34  1  0
 34 35  2  0
 35  4  1  0
 32 13  1  0
 22 15  1  0
 30 24  1  0
 22 19  1  0
 29 19  1  0
  1 36  1  0
  1 37  1  0
  1 38  1  0
  2 39  1  0
  2 40  1  0
  3 41  1  0
  5 42  1  0
  6 43  1  0
 11 44  1  0
 12 45  1  0
 12 46  1  0
 13 47  1  6
 14 48  1  0
 14 49  1  0
 15 50  1  1
 17 51  1  0
 18 52  1  0
 18 53  1  0
 21 54  1  0
 22 55  1  6
 23 56  1  0
 23 57  1  0
 24 58  1  6
 25 59  1  0
 25 60  1  0
 28 61  1  0
 28 62  1  0
 29 63  1  1
 30 64  1  0
 30 65  1  0
 31 66  1  0
 31 67  1  0
 34 68  1  0
 35 69  1  0
M  END
>  <UniqueID>  (83) 
75

>  <SMILES>  (83) 
CCNc1ccc(S(=O)(=O)NC[C@H]2C[C@@H]3C(=CCC45C(=CC34)CC3CC(=O)CC5C3)CC2=O)cc1

>  <Energy>  (83) 
137.87285209761365

>  <Genealogy>  (83) 
CCNc1ccc(S(=O)(=O)NC[C@H]2C[C@@H]3C(=CCC45C(=CC34)CC3CC(=O)CC5C3)CC2=O)cc1 (chirality)
CCNc1ccc(S(=O)(=O)NC[C@H]2C[C@@H]3C(=CCC45C(=CC34)CC3CC(=O)CC5C3)CC2=O)cc1 (3D coordinates assigned)
CCNc1ccc(S(=O)(=O)NC[C@H]2C[C@@H]3C(=CCC45C(=CC34)CC3CC(=O)CC5C3)CC2=O)cc1 (nonaromatic ring conformer: 137.87285209761365 kcal/mol)

>  <smiles>  (83) 
CCNc1ccc(S(=O)(=O)NCC2CC3C(=CCC45C(=CC34)CC3CC(=O)CC5C3)CC2=O)cc1

>  <score_type>  (83) 
oracle

>  <origin>  (83) 
adg

>  <m_score__min__energy>  (83) 
-11.34

>  <m_primary>  (83) 
energy

$$$$
83:0
     RDKit          3D

 48 50  0  0  0  0  0  0  0  0999 V2000
   63.1892   30.5221   49.4268 H   0  0  0  0  0  0  0  0  0  0  0  0
   62.2300   31.0350   49.2630 C   0  0  0  0  0  0  0  0  0  0  0  0
   60.9990   30.2120   49.3080 C   0  0  0  0  0  0  0  0  0  0  0  0
   60.5740   29.7930   50.4210 O   0  0  0  0  0  0  0  0  0  0  0  0
   60.2540   29.9290   48.1050 N   0  0  0  0  0  0  0  0  0  0  0  0
   58.9080   29.3400   48.1990 C   0  0  0  0  0  0  0  0  0  0  0  0
   58.4616   29.6122   49.1668 H   0  0  0  0  0  0  0  0  0  0  0  0
   58.9937   28.2468   48.1120 H   0  0  0  0  0  0  0  0  0  0  0  0
   58.0110   29.8550   47.0690 C   0  0  0  0  0  0  0  0  0  0  0  0
   57.7301   30.8969   47.2825 H   0  0  0  0  0  0  0  0  0  0  0  0
   57.1203   29.2118   47.0157 H   0  0  0  0  0  0  0  0  0  0  0  0
   58.6950   29.8020   45.7710 N   0  0  0  0  0  0  0  0  0  0  0  0
   57.9980   30.2250   44.5910 C   0  0  0  0  0  0  0  0  0  0  0  0
   58.5460   31.2460   43.8000 C   0  0  0  0  0  0  0  0  0  0  0  0
   59.5127   31.6926   44.0758 H   0  0  0  0  0  0  0  0  0  0  0  0
   57.8710   31.6980   42.6650 C   0  0  0  0  0  0  0  0  0  0  0  0
   58.3038   32.5024   42.0521 H   0  0  0  0  0  0  0  0  0  0  0  0
   56.6470   31.1300   42.3070 C   0  0  0  0  0  0  0  0  0  0  0  0
   56.1161   31.4882   41.4127 H   0  0  0  0  0  0  0  0  0  0  0  0
   56.0950   30.1070   43.0830 C   0  0  0  0  0  0  0  0  0  0  0  0
   55.1357   29.6557   42.7898 H   0  0  0  0  0  0  0  0  0  0  0  0
   56.7580   29.6510   44.2360 C   0  0  0  0  0  0  0  0  0  0  0  0
   56.2240   28.5550   45.0020 N   0  0  0  0  0  0  0  0  0  0  0  0
   55.2090   28.5780   45.2500 H   0  0  0  0  0  0  0  0  0  0  0  0
   56.9820   27.3800   45.3360 C   0  0  0  0  0  0  0  0  0  0  0  0
   58.1110   27.1800   44.8100 O   0  0  0  0  0  0  0  0  0  0  0  0
   56.4370   26.3780   46.2610 C   0  0  0  0  0  0  0  0  0  0  0  0
   55.1930   26.1990   46.3520 O   0  0  0  0  0  0  0  0  0  0  0  0
   57.2940   25.6180   47.0480 O   0  0  0  0  0  0  0  0  0  0  0  0
   60.0970   29.3860   45.6820 C   0  0  0  0  0  0  0  0  0  0  0  0
   60.5034   29.6790   44.7027 H   0  0  0  0  0  0  0  0  0  0  0  0
   60.1598   28.2939   45.7977 H   0  0  0  0  0  0  0  0  0  0  0  0
   60.9090   30.0590   46.7910 C   0  0  0  0  0  0  0  0  0  0  0  0
   61.0202   31.1271   46.5527 H   0  0  0  0  0  0  0  0  0  0  0  0
   61.8888   29.5622   46.8468 H   0  0  0  0  0  0  0  0  0  0  0  0
   62.2660   32.3570   49.0380 C   0  0  0  0  0  0  0  0  0  0  0  0
   63.0650   32.9319   49.5290 H   0  0  0  0  0  0  0  0  0  0  0  0
   61.3180   33.1040   48.1830 C   0  0  0  0  0  0  0  0  0  0  0  0
   61.5940   33.3550   46.8260 C   0  0  0  0  0  0  0  0  0  0  0  0
   62.5470   33.0213   46.3895 H   0  0  0  0  0  0  0  0  0  0  0  0
   60.6610   34.0270   46.0310 C   0  0  0  0  0  0  0  0  0  0  0  0
   60.8887   34.2360   44.9753 H   0  0  0  0  0  0  0  0  0  0  0  0
   59.4390   34.4340   46.5750 C   0  0  0  0  0  0  0  0  0  0  0  0
   58.7088   34.9686   45.9497 H   0  0  0  0  0  0  0  0  0  0  0  0
   59.1460   34.1610   47.9140 C   0  0  0  0  0  0  0  0  0  0  0  0
   58.1819   34.4754   48.3401 H   0  0  0  0  0  0  0  0  0  0  0  0
   60.0760   33.4890   48.7130 C   0  0  0  0  0  0  0  0  0  0  0  0
   59.8336   33.2609   49.7614 H   0  0  0  0  0  0  0  0  0  0  0  0
  1  2  1  0
  2  3  1  0
  3  4  2  0
  3  5  1  0
  5  6  1  0
  6  7  1  0
  6  8  1  0
  6  9  1  0
  9 10  1  0
  9 11  1  0
  9 12  1  0
 12 13  1  0
 13 14  2  0
 14 15  1  0
 14 16  1  0
 16 17  1  0
 16 18  2  0
 18 19  1  0
 18 20  1  0
 20 21  1  0
 20 22  2  0
 22 23  1  0
 23 24  1  0
 23 25  1  0
 25 26  2  0
 25 27  1  0
 27 28  2  0
 27 29  1  0
 12 30  1  0
 30 31  1  0
 30 32  1  0
 30 33  1  0
 33 34  1  0
 33 35  1  0
  2 36  2  0
 36 37  1  0
 36 38  1  0
 38 39  2  0
 39 40  1  0
 39 41  1  0
 41 42  1  0
 41 43  2  0
 43 44  1  0
 43 45  1  0
 45 46  1  0
 45 47  2  0
 47 48  1  0
 33  5  1  0
 47 38  1  0
 22 13  1  0
M  CHG  1  29  -1
M  END
>  <UniqueID>  (84) 
76

>  <SMILES>  (84) 
O=C([O-])C(=O)Nc1ccccc1N1CCN(C(=O)/C=C\c2ccccc2)CC1

>  <Energy>  (84) 
65.82803411412324

>  <Genealogy>  (84) 
O=C([O-])C(=O)Nc1ccccc1N1CCN(C(=O)C=Cc2ccccc2)CC1 (protonated)
O=C([O-])C(=O)Nc1ccccc1N1CCN(C(=O)/C=C\c2ccccc2)CC1 (cis-trans isomerization)
O=C([O-])C(=O)Nc1ccccc1N1CCN(C(=O)/C=C\c2ccccc2)CC1 (3D coordinates assigned)
O=C([O-])C(=O)Nc1ccccc1N1CCN(C(=O)/C=C\c2ccccc2)CC1 (nonaromatic ring conformer: 65.82803411412324 kcal/mol)

>  <smiles>  (84) 
O=C(O)C(=O)Nc1ccccc1N1CCN(C(=O)C=Cc2ccccc2)CC1

>  <score_type>  (84) 
oracle

>  <origin>  (84) 
adg

>  <m_score__min__energy>  (84) 
-10.949999999999999

>  <m_primary>  (84) 
energy

$$$$
84:0
     RDKit          3D

 46 48  0  0  0  0  0  0  0  0999 V2000
   56.9230   23.8630   46.7180 C   0  0  0  0  0  0  0  0  0  0  0  0
   56.6790   25.5160   46.1040 S   0  0  0  0  0  0  0  0  0  0  0  0
   57.0840   25.5580   44.6570 O   0  0  0  0  0  0  0  0  0  0  0  0
   55.2300   25.8890   46.2270 O   0  0  0  0  0  0  0  0  0  0  0  0
   57.6600   26.6300   46.9990 N   0  0  0  0  0  0  0  0  0  0  0  0
   58.1790   27.8090   46.3860 C   0  0  0  0  0  0  0  0  0  0  0  0
   59.5050   28.1770   46.6340 C   0  0  0  0  0  0  0  0  0  0  0  0
   60.0110   29.3740   46.1230 C   0  0  0  0  0  0  0  0  0  0  0  0
   59.1890   30.2210   45.3760 C   0  0  0  0  0  0  0  0  0  0  0  0
   57.8590   29.8610   45.1130 C   0  0  0  0  0  0  0  0  0  0  0  0
   56.8040   30.9770   44.2400 S   0  0  0  0  0  0  0  0  0  0  0  0
   55.4490   30.3460   44.0860 O   0  0  0  0  0  0  0  0  0  0  0  0
   57.3640   31.2890   42.8800 O   0  0  0  0  0  0  0  0  0  0  0  0
   56.6520   32.4500   45.1430 N   0  0  0  0  0  0  0  0  0  0  0  0
   57.6900   32.9970   45.9650 C   0  0  0  0  0  0  0  0  0  0  0  0
   58.5040   34.0690   45.5220 C   0  0  0  0  0  0  0  0  0  0  0  0
   59.5490   34.5460   46.3280 C   0  0  0  0  0  0  0  0  0  0  0  0
   59.7680   33.9420   47.5650 C   0  0  0  0  0  0  0  0  0  0  0  0
   58.9780   32.9160   48.0030 C   0  0  0  0  0  0  0  0  0  0  0  0
   57.9240   32.4260   47.2280 C   0  0  0  0  0  0  0  0  0  0  0  0
   59.4070   32.4470   49.2680 N   0  0  0  0  0  0  0  0  0  0  0  0
   58.8960   30.9740   50.0260 S   0  0  0  0  0  0  0  0  0  0  0  0
   60.2060   30.3480   51.0550 C   0  0  0  0  0  0  0  0  0  0  0  0
   57.6880   31.2450   50.8780 O   0  0  0  0  0  0  0  0  0  0  0  0
   58.5350   29.9580   48.9780 O   0  0  0  0  0  0  0  0  0  0  0  0
   60.5970   33.1910   49.6700 C   0  0  0  0  0  0  0  0  0  0  0  0
   60.8380   34.2410   48.5560 C   0  0  0  0  0  0  0  0  0  0  0  0
   57.3610   28.6320   45.5860 C   0  0  0  0  0  0  0  0  0  0  0  0
   56.0660   28.2390   45.2430 O   0  0  0  0  0  0  0  0  0  0  0  0
   56.9210   23.8764   47.8179 H   0  0  0  0  0  0  0  0  0  0  0  0
   56.1109   23.2144   46.3577 H   0  0  0  0  0  0  0  0  0  0  0  0
   57.8879   23.4767   46.3577 H   0  0  0  0  0  0  0  0  0  0  0  0
   60.1523   27.5207   47.2342 H   0  0  0  0  0  0  0  0  0  0  0  0
   61.0593   29.6505   46.3092 H   0  0  0  0  0  0  0  0  0  0  0  0
   59.5857   31.1728   44.9930 H   0  0  0  0  0  0  0  0  0  0  0  0
   58.3157   34.5297   44.5410 H   0  0  0  0  0  0  0  0  0  0  0  0
   60.1824   35.3796   45.9905 H   0  0  0  0  0  0  0  0  0  0  0  0
   57.2888   31.6083   47.5993 H   0  0  0  0  0  0  0  0  0  0  0  0
   59.9348   30.4776   52.1132 H   0  0  0  0  0  0  0  0  0  0  0  0
   60.3592   29.2794   50.8440 H   0  0  0  0  0  0  0  0  0  0  0  0
   61.1337   30.9001   50.8440 H   0  0  0  0  0  0  0  0  0  0  0  0
   60.4283   33.6897   50.6358 H   0  0  0  0  0  0  0  0  0  0  0  0
   61.4654   32.5273   49.7941 H   0  0  0  0  0  0  0  0  0  0  0  0
   60.7360   35.2632   48.9494 H   0  0  0  0  0  0  0  0  0  0  0  0
   61.8492   34.1878   48.1263 H   0  0  0  0  0  0  0  0  0  0  0  0
   55.8540   27.3160   44.8890 H   0  0  0  0  0  0  0  0  0  0  0  0
  1  2  1  0
  2  3  2  0
  2  4  2  0
  2  5  1  0
  5  6  1  0
  6  7  2  0
  7  8  1  0
  8  9  2  0
  9 10  1  0
 10 11  1  0
 11 12  2  0
 11 13  2  0
 11 14  1  0
 14 15  1  0
 15 16  2  0
 16 17  1  0
 17 18  2  0
 18 19  1  0
 19 20  2  0
 19 21  1  0
 21 22  1  0
 22 23  1  0
 22 24  2  0
 22 25  2  0
 21 26  1  0
 26 27  1  0
 10 28  2  0
 28 29  1  0
 28  6  1  0
 20 15  1  0
 27 18  1  0
  1 30  1  0
  1 31  1  0
  1 32  1  0
  7 33  1  0
  8 34  1  0
  9 35  1  0
 16 36  1  0
 17 37  1  0
 20 38  1  0
 23 39  1  0
 23 40  1  0
 23 41  1  0
 26 42  1  0
 26 43  1  0
 27 44  1  0
 27 45  1  0
 29 46  1  0
M  CHG  2   5  -1  14  -1
M  END
>  <UniqueID>  (85) 
77

>  <SMILES>  (85) 
CS(=O)(=O)[N-]c1cccc(S(=O)(=O)[N-]c2ccc3c(c2)N(S(C)(=O)=O)CC3)c1O

>  <Energy>  (85) 
65.4464532982503

>  <Genealogy>  (85) 
CS(=O)(=O)[N-]c1cccc(S(=O)(=O)[N-]c2ccc3c(c2)N(S(C)(=O)=O)CC3)c1O (protonated)
CS(=O)(=O)[N-]c1cccc(S(=O)(=O)[N-]c2ccc3c(c2)N(S(C)(=O)=O)CC3)c1O (3D coordinates assigned)
CS(=O)(=O)[N-]c1cccc(S(=O)(=O)[N-]c2ccc3c(c2)N(S(C)(=O)=O)CC3)c1O (nonaromatic ring conformer: 65.4464532982503 kcal/mol)

>  <smiles>  (85) 
CS(=O)(=O)Nc1cccc(S(=O)(=O)Nc2ccc3c(c2)N(S(C)(=O)=O)CC3)c1O

>  <score_type>  (85) 
oracle

>  <origin>  (85) 
adg

>  <m_score__min__energy>  (85) 
-13.92

>  <m_primary>  (85) 
energy

$$$$
85:0
     RDKit          3D

 25 26  0  0  0  0  0  0  0  0999 V2000
   57.3880   31.9990   42.4990 C   0  0  0  0  0  0  0  0  0  0  0  0
   57.3500   31.1110   43.6990 C   0  0  0  0  0  0  0  0  0  0  0  0
   56.4000   31.2210   44.5200 O   0  0  0  0  0  0  0  0  0  0  0  0
   58.3380   30.0810   43.8570 N   0  0  0  0  0  0  0  0  0  0  0  0
   58.5030   29.2970   45.0510 C   0  0  0  0  0  0  0  0  0  0  0  0
   59.3420   29.7680   46.0700 C   0  0  0  0  0  0  0  0  0  0  0  0
   59.5150   29.0290   47.2410 C   0  0  0  0  0  0  0  0  0  0  0  0
   58.8350   27.8220   47.4160 C   0  0  0  0  0  0  0  0  0  0  0  0
   57.9560   27.3490   46.4270 C   0  0  0  0  0  0  0  0  0  0  0  0
   57.2350   26.0720   46.6430 C   0  0  0  0  0  0  0  0  0  0  0  0
   57.8250   24.9570   47.1170 N   0  0  0  0  0  0  0  0  0  0  0  0
   56.8210   24.0580   47.1670 C   0  0  0  0  0  0  0  0  0  0  0  0
   56.9890   22.8750   47.5630 O   0  0  0  0  0  0  0  0  0  0  0  0
   55.6220   24.5260   46.7660 N   0  0  0  0  0  0  0  0  0  0  0  0
   55.8950   25.8010   46.4400 C   0  0  0  0  0  0  0  0  0  0  0  0
   54.9270   26.6970   46.0050 O   0  0  0  0  0  0  0  0  0  0  0  0
   57.7990   28.0930   45.2420 C   0  0  0  0  0  0  0  0  0  0  0  0
   57.4330   33.0497   42.8216 H   0  0  0  0  0  0  0  0  0  0  0  0
   58.2768   31.7623   41.8957 H   0  0  0  0  0  0  0  0  0  0  0  0
   56.4822   31.8391   41.8957 H   0  0  0  0  0  0  0  0  0  0  0  0
   58.9130   29.8280   43.0210 H   0  0  0  0  0  0  0  0  0  0  0  0
   59.8675   30.7264   45.9459 H   0  0  0  0  0  0  0  0  0  0  0  0
   60.1888   29.3982   48.0282 H   0  0  0  0  0  0  0  0  0  0  0  0
   58.9886   27.2371   48.3349 H   0  0  0  0  0  0  0  0  0  0  0  0
   57.1192   27.7297   44.4573 H   0  0  0  0  0  0  0  0  0  0  0  0
  1  2  1  0
  2  3  2  0
  2  4  1  0
  4  5  1  0
  5  6  2  0
  6  7  1  0
  7  8  2  0
  8  9  1  0
  9 10  1  0
 10 11  1  0
 11 12  1  0
 12 13  2  0
 12 14  1  0
 14 15  1  0
 15 16  1  0
  9 17  2  0
 17  5  1  0
 15 10  2  0
  1 18  1  0
  1 19  1  0
  1 20  1  0
  4 21  1  0
  6 22  1  0
  7 23  1  0
  8 24  1  0
 17 25  1  0
M  CHG  3  11  -1  14  -1  16  -1
M  END
>  <UniqueID>  (86) 
78

>  <SMILES>  (86) 
CC(=O)Nc1cccc(-c2[n-]c(=O)[n-]c2[O-])c1

>  <Energy>  (86) 
59.82335554268654

>  <Genealogy>  (86) 
CC(=O)Nc1cccc(-c2[n-]c(=O)[n-]c2[O-])c1 (protonated)
CC(=O)Nc1cccc(-c2[n-]c(=O)[n-]c2[O-])c1 (3D coordinates assigned)
CC(=O)Nc1cccc(-c2[n-]c(=O)[n-]c2[O-])c1 (optimized conformer: 59.82335554268654 kcal/mol)

>  <smiles>  (86) 
CC(=O)Nc1cccc(-c2[nH]c(=O)[nH]c2O)c1

>  <score_type>  (86) 
oracle

>  <origin>  (86) 
adg

>  <m_score__min__energy>  (86) 
-15.609999999999999

>  <m_primary>  (86) 
energy

$$$$
86:0
     RDKit          3D

 57 60  0  0  0  0  0  0  0  0999 V2000
   55.1560   25.5610   46.3480 O   0  0  0  0  0  0  0  0  0  0  0  0
   56.2410   25.0170   46.6920 C   0  0  0  0  0  0  0  0  0  0  0  0
   56.3910   23.5250   46.6670 C   0  0  0  0  0  0  0  0  0  0  0  0
   56.4730   22.9740   45.2640 C   0  0  0  0  0  0  0  0  0  0  0  0
   55.6540   23.5030   44.2500 C   0  0  0  0  0  0  0  0  0  0  0  0
   55.7460   23.0090   42.9450 C   0  0  0  0  0  0  0  0  0  0  0  0
   56.6580   21.9900   42.6420 C   0  0  0  0  0  0  0  0  0  0  0  0
   57.4850   21.4700   43.6430 C   0  0  0  0  0  0  0  0  0  0  0  0
   57.3990   21.9620   44.9490 C   0  0  0  0  0  0  0  0  0  0  0  0
   57.3490   25.8170   47.1280 N   0  0  0  0  0  0  0  0  0  0  0  0
   57.7630   27.0740   46.5740 C   0  0  0  0  0  0  0  0  0  0  0  0
   58.9650   27.6400   47.0190 C   0  0  0  0  0  0  0  0  0  0  0  0
   59.4000   28.8660   46.5090 C   0  0  0  0  0  0  0  0  0  0  0  0
   58.6340   29.5420   45.5570 C   0  0  0  0  0  0  0  0  0  0  0  0
   57.4150   29.0020   45.1180 C   0  0  0  0  0  0  0  0  0  0  0  0
   56.5510   29.7560   44.1450 C   0  0  0  0  0  0  0  0  0  0  0  0
   56.4880   31.1690   44.5160 N   0  0  0  0  0  0  0  0  0  0  0  0
   57.3910   32.1890   44.0650 C   0  0  0  0  0  0  0  0  0  0  0  0
   57.6030   32.3060   42.8290 O   0  0  0  0  0  0  0  0  0  0  0  0
   58.0730   33.1060   44.9990 C   0  0  0  0  0  0  0  0  0  0  0  0
   58.7410   34.2400   44.5110 C   0  0  0  0  0  0  0  0  0  0  0  0
   59.3890   35.1090   45.3940 C   0  0  0  0  0  0  0  0  0  0  0  0
   59.3940   34.8430   46.7650 C   0  0  0  0  0  0  0  0  0  0  0  0
   58.7640   33.6900   47.2610 C   0  0  0  0  0  0  0  0  0  0  0  0
   58.7450   33.3890   48.6660 N   0  0  0  0  0  0  0  0  0  0  0  0
   59.8950   33.1570   49.4930 C   0  0  0  0  0  0  0  0  0  0  0  0
   59.7260   33.0410   50.7350 O   0  0  0  0  0  0  0  0  0  0  0  0
   61.2590   33.0140   48.9280 C   0  0  0  0  0  0  0  0  0  0  0  0
   61.5500   31.9580   48.0470 C   0  0  0  0  0  0  0  0  0  0  0  0
   62.8350   31.8180   47.5100 C   0  0  0  0  0  0  0  0  0  0  0  0
   63.8390   32.7310   47.8440 C   0  0  0  0  0  0  0  0  0  0  0  0
   63.5560   33.7930   48.7020 C   0  0  0  0  0  0  0  0  0  0  0  0
   62.2730   33.9450   49.2350 C   0  0  0  0  0  0  0  0  0  0  0  0
   58.1010   32.8310   46.3770 C   0  0  0  0  0  0  0  0  0  0  0  0
   56.9750   27.7760   45.6430 C   0  0  0  0  0  0  0  0  0  0  0  0
   57.3107   23.2542   47.2063 H   0  0  0  0  0  0  0  0  0  0  0  0
   55.4992   23.0921   47.1437 H   0  0  0  0  0  0  0  0  0  0  0  0
   54.9401   24.3065   44.4840 H   0  0  0  0  0  0  0  0  0  0  0  0
   55.1010   23.4214   42.1551 H   0  0  0  0  0  0  0  0  0  0  0  0
   56.7239   21.5985   41.6162 H   0  0  0  0  0  0  0  0  0  0  0  0
   58.2040   20.6730   43.4025 H   0  0  0  0  0  0  0  0  0  0  0  0
   58.0567   21.5571   45.7322 H   0  0  0  0  0  0  0  0  0  0  0  0
   59.5696   27.1163   47.7741 H   0  0  0  0  0  0  0  0  0  0  0  0
   60.3485   29.2999   46.8584 H   0  0  0  0  0  0  0  0  0  0  0  0
   58.9871   30.5009   45.1498 H   0  0  0  0  0  0  0  0  0  0  0  0
   56.9761   29.6641   43.1346 H   0  0  0  0  0  0  0  0  0  0  0  0
   55.5354   29.3339   44.1647 H   0  0  0  0  0  0  0  0  0  0  0  0
   58.7547   34.4456   43.4305 H   0  0  0  0  0  0  0  0  0  0  0  0
   59.8965   36.0052   45.0076 H   0  0  0  0  0  0  0  0  0  0  0  0
   59.8921   35.5376   47.4574 H   0  0  0  0  0  0  0  0  0  0  0  0
   60.7634   31.2376   47.7781 H   0  0  0  0  0  0  0  0  0  0  0  0
   63.0552   30.9873   46.8234 H   0  0  0  0  0  0  0  0  0  0  0  0
   64.8513   32.6119   47.4305 H   0  0  0  0  0  0  0  0  0  0  0  0
   64.3456   34.5140   48.9604 H   0  0  0  0  0  0  0  0  0  0  0  0
   62.0529   34.7952   49.8974 H   0  0  0  0  0  0  0  0  0  0  0  0
   57.5975   31.9329   46.7641 H   0  0  0  0  0  0  0  0  0  0  0  0
   56.0073   27.3614   45.3242 H   0  0  0  0  0  0  0  0  0  0  0  0
  1  2  2  0
  2  3  1  0
  3  4  1  0
  4  5  2  0
  5  6  1  0
  6  7  2  0
  7  8  1  0
  8  9  2  0
  2 10  1  0
 10 11  1  0
 11 12  2  0
 12 13  1  0
 13 14  2  0
 14 15  1  0
 15 16  1  0
 16 17  1  0
 17 18  1  0
 18 19  2  0
 18 20  1  0
 20 21  2  0
 21 22  1  0
 22 23  2  0
 23 24  1  0
 24 25  1  0
 25 26  1  0
 26 27  2  0
 26 28  1  0
 28 29  2  0
 29 30  1  0
 30 31  2  0
 31 32  1  0
 32 33  2  0
 24 34  2  0
 15 35  2  0
  9  4  1  0
 35 11  1  0
 34 20  1  0
 33 28  1  0
  3 36  1  0
  3 37  1  0
  5 38  1  0
  6 39  1  0
  7 40  1  0
  8 41  1  0
  9 42  1  0
 12 43  1  0
 13 44  1  0
 14 45  1  0
 16 46  1  0
 16 47  1  0
 21 48  1  0
 22 49  1  0
 23 50  1  0
 29 51  1  0
 30 52  1  0
 31 53  1  0
 32 54  1  0
 33 55  1  0
 34 56  1  0
 35 57  1  0
M  CHG  3  10  -1  17  -1  25  -1
M  END
>  <UniqueID>  (87) 
79

>  <SMILES>  (87) 
O=C(Cc1ccccc1)[N-]c1cccc(C[N-]C(=O)c2cccc([N-]C(=O)c3ccccc3)c2)c1

>  <Energy>  (87) 
74.91653451841249

>  <Genealogy>  (87) 
O=C(Cc1ccccc1)[N-]c1cccc(C[N-]C(=O)c2cccc([N-]C(=O)c3ccccc3)c2)c1 (protonated)
O=C(Cc1ccccc1)[N-]c1cccc(C[N-]C(=O)c2cccc([N-]C(=O)c3ccccc3)c2)c1 (3D coordinates assigned)
O=C(Cc1ccccc1)[N-]c1cccc(C[N-]C(=O)c2cccc([N-]C(=O)c3ccccc3)c2)c1 (optimized conformer: 74.91653451841249 kcal/mol)

>  <smiles>  (87) 
O=C(Cc1ccccc1)Nc1cccc(CNC(=O)c2cccc(NC(=O)c3ccccc3)c2)c1

>  <score_type>  (87) 
oracle

>  <origin>  (87) 
adg

>  <m_score__min__energy>  (87) 
-14.59

>  <m_primary>  (87) 
energy

$$$$
87:0
     RDKit          3D

 41 44  0  0  0  0  0  0  0  0999 V2000
   62.7520   33.8400   46.7190 C   0  0  0  0  0  0  0  0  0  0  0  0
   61.4420   34.2150   47.1320 O   0  0  0  0  0  0  0  0  0  0  0  0
   60.2620   33.8460   46.4650 C   0  0  0  0  0  0  0  0  0  0  0  0
   59.7890   32.5180   46.4520 C   0  0  0  0  0  0  0  0  0  0  0  0
   58.6040   32.1860   45.7720 C   0  0  0  0  0  0  0  0  0  0  0  0
   58.1060   30.7860   45.7610 C   0  0  0  0  0  0  0  0  0  0  0  0
   58.5900   29.8480   46.6890 C   0  0  0  0  0  0  0  0  0  0  0  0
   58.1200   28.5310   46.6800 C   0  0  0  0  0  0  0  0  0  0  0  0
   57.1580   28.1230   45.7410 C   0  0  0  0  0  0  0  0  0  0  0  0
   56.6620   26.7290   45.7300 C   0  0  0  0  0  0  0  0  0  0  0  0
   55.3600   26.4050   45.9620 N   0  0  0  0  0  0  0  0  0  0  0  0
   55.3650   25.0690   45.8560 C   0  0  0  0  0  0  0  0  0  0  0  0
   54.2880   24.1990   46.0000 C   0  0  0  0  0  0  0  0  0  0  0  0
   54.5260   22.8120   45.8440 C   0  0  0  0  0  0  0  0  0  0  0  0
   53.4140   21.8450   45.9880 C   0  0  0  0  0  0  0  0  0  0  0  0
   52.1860   22.0420   45.2890 N   0  0  0  0  0  0  0  0  0  0  0  0
   53.5410   20.8350   46.7320 O   0  0  0  0  0  0  0  0  0  0  0  0
   55.8420   22.3610   45.5480 C   0  0  0  0  0  0  0  0  0  0  0  0
   56.9020   23.2750   45.4100 C   0  0  0  0  0  0  0  0  0  0  0  0
   56.6180   24.6260   45.5730 C   0  0  0  0  0  0  0  0  0  0  0  0
   57.4670   25.6600   45.4860 N   0  0  0  0  0  0  0  0  0  0  0  0
   56.6740   29.0600   44.8120 C   0  0  0  0  0  0  0  0  0  0  0  0
   57.1430   30.3770   44.8230 C   0  0  0  0  0  0  0  0  0  0  0  0
   57.8950   33.1970   45.1010 C   0  0  0  0  0  0  0  0  0  0  0  0
   58.3610   34.5140   45.1130 C   0  0  0  0  0  0  0  0  0  0  0  0
   59.5370   34.8380   45.7910 C   0  0  0  0  0  0  0  0  0  0  0  0
   59.9890   36.1530   45.7940 O   0  0  0  0  0  0  0  0  0  0  0  0
   63.3786   33.6606   47.6052 H   0  0  0  0  0  0  0  0  0  0  0  0
   62.6976   32.9214   46.1164 H   0  0  0  0  0  0  0  0  0  0  0  0
   63.1919   34.6483   46.1164 H   0  0  0  0  0  0  0  0  0  0  0  0
   60.3525   31.7339   46.9790 H   0  0  0  0  0  0  0  0  0  0  0  0
   59.3450   30.1525   47.4288 H   0  0  0  0  0  0  0  0  0  0  0  0
   58.5066   27.8087   47.4140 H   0  0  0  0  0  0  0  0  0  0  0  0
   53.2810   24.5781   46.2284 H   0  0  0  0  0  0  0  0  0  0  0  0
   51.6570   21.2330   44.8930 H   0  0  0  0  0  0  0  0  0  0  0  0
   56.0330   21.2847   45.4256 H   0  0  0  0  0  0  0  0  0  0  0  0
   57.9218   22.9322   45.1807 H   0  0  0  0  0  0  0  0  0  0  0  0
   55.9206   28.7549   44.0708 H   0  0  0  0  0  0  0  0  0  0  0  0
   56.7545   31.0998   44.0905 H   0  0  0  0  0  0  0  0  0  0  0  0
   56.9678   32.9499   44.5632 H   0  0  0  0  0  0  0  0  0  0  0  0
   57.7987   35.2988   44.5859 H   0  0  0  0  0  0  0  0  0  0  0  0
  1  2  1  0
  2  3  1  0
  3  4  2  0
  4  5  1  0
  5  6  1  0
  6  7  2  0
  7  8  1  0
  8  9  2  0
  9 10  1  0
 10 11  2  0
 11 12  1  0
 12 13  2  0
 13 14  1  0
 14 15  1  0
 15 16  1  0
 15 17  2  0
 14 18  2  0
 18 19  1  0
 19 20  2  0
 20 21  1  0
  9 22  1  0
 22 23  2  0
  5 24  2  0
 24 25  1  0
 25 26  2  0
 26 27  1  0
 26  3  1  0
 23  6  1  0
 21 10  1  0
 20 12  1  0
  1 28  1  0
  1 29  1  0
  1 30  1  0
  4 31  1  0
  7 32  1  0
  8 33  1  0
 13 34  1  0
 16 35  1  0
 18 36  1  0
 19 37  1  0
 22 38  1  0
 23 39  1  0
 24 40  1  0
 25 41  1  0
M  CHG  3  16  -1  21  -1  27  -1
M  END
>  <UniqueID>  (88) 
80

>  <SMILES>  (88) 
COc1cc(-c2ccc(-c3nc4cc(C([NH-])=O)ccc4[n-]3)cc2)ccc1[O-]

>  <Energy>  (88) 
86.40983018998817

>  <Genealogy>  (88) 
COc1cc(-c2ccc(-c3nc4cc(C([NH-])=O)ccc4[n-]3)cc2)ccc1[O-] (protonated)
COc1cc(-c2ccc(-c3nc4cc(C([NH-])=O)ccc4[n-]3)cc2)ccc1[O-] (3D coordinates assigned)
COc1cc(-c2ccc(-c3nc4cc(C([NH-])=O)ccc4[n-]3)cc2)ccc1[O-] (optimized conformer: 86.40983018998817 kcal/mol)

>  <smiles>  (88) 
COc1cc(-c2ccc(-c3nc4cc(C(N)=O)ccc4[nH]3)cc2)ccc1O

>  <score_type>  (88) 
oracle

>  <origin>  (88) 
adg

>  <m_score__min__energy>  (88) 
-12.06

>  <m_primary>  (88) 
energy

$$$$
88:0
     RDKit          3D

 45 47  0  0  0  0  0  0  0  0999 V2000
   59.6130   26.4090   47.2510 C   0  0  0  0  0  0  0  0  0  0  0  0
   58.3170   26.8950   46.6710 C   0  0  0  0  0  0  0  0  0  0  0  0
   57.2760   26.0240   46.6210 N   0  0  0  0  0  0  0  0  0  0  0  0
   56.0760   26.3800   46.1020 C   0  0  0  0  0  0  0  0  0  0  0  0
   55.1330   25.5470   46.0690 O   0  0  0  0  0  0  0  0  0  0  0  0
   55.8920   27.6310   45.6150 N   0  0  0  0  0  0  0  0  0  0  0  0
   56.8900   28.5490   45.6430 C   0  0  0  0  0  0  0  0  0  0  0  0
   56.6790   29.6950   45.1630 O   0  0  0  0  0  0  0  0  0  0  0  0
   58.1420   28.2180   46.1960 C   0  0  0  0  0  0  0  0  0  0  0  0
   59.4620   29.4090   46.2200 S   0  0  0  0  0  0  0  0  0  0  0  0
   59.9490   29.6530   44.8190 O   0  0  0  0  0  0  0  0  0  0  0  0
   60.6120   28.9060   47.0450 O   0  0  0  0  0  0  0  0  0  0  0  0
   58.8530   30.8760   46.9130 N   0  0  0  0  0  0  0  0  0  0  0  0
   58.6090   32.1030   46.2080 C   0  0  0  0  0  0  0  0  0  0  0  0
   58.0650   32.1080   44.9100 C   0  0  0  0  0  0  0  0  0  0  0  0
   57.8130   33.3150   44.2540 C   0  0  0  0  0  0  0  0  0  0  0  0
   58.1080   34.5270   44.8790 C   0  0  0  0  0  0  0  0  0  0  0  0
   58.6650   34.5350   46.1580 C   0  0  0  0  0  0  0  0  0  0  0  0
   58.9220   33.3300   46.8310 C   0  0  0  0  0  0  0  0  0  0  0  0
   59.6930   33.3700   48.4230 S   0  0  0  0  0  0  0  0  0  0  0  0
   59.1770   32.2360   49.2680 O   0  0  0  0  0  0  0  0  0  0  0  0
   59.3350   34.6700   49.0880 O   0  0  0  0  0  0  0  0  0  0  0  0
   61.4300   33.2450   48.2840 N   0  0  0  0  0  0  0  0  0  0  0  0
   61.8330   31.8340   48.4090 C   0  0  0  0  0  0  0  0  0  0  0  0
   63.3650   31.7100   48.4970 C   0  0  0  0  0  0  0  0  0  0  0  0
   64.0870   32.9260   47.8980 C   0  0  0  0  0  0  0  0  0  0  0  0
   63.3450   33.4600   46.6700 C   0  0  0  0  0  0  0  0  0  0  0  0
   61.8730   33.8040   46.9880 C   0  0  0  0  0  0  0  0  0  0  0  0
   59.5543   26.4310   48.3492 H   0  0  0  0  0  0  0  0  0  0  0  0
   59.8019   25.3789   46.9145 H   0  0  0  0  0  0  0  0  0  0  0  0
   60.4327   27.0608   46.9145 H   0  0  0  0  0  0  0  0  0  0  0  0
   57.8369   31.1556   44.4092 H   0  0  0  0  0  0  0  0  0  0  0  0
   57.3810   33.3100   43.2424 H   0  0  0  0  0  0  0  0  0  0  0  0
   57.9014   35.4763   44.3632 H   0  0  0  0  0  0  0  0  0  0  0  0
   58.9047   35.4928   46.6429 H   0  0  0  0  0  0  0  0  0  0  0  0
   61.3838   31.4097   49.3190 H   0  0  0  0  0  0  0  0  0  0  0  0
   61.4850   31.2873   47.5202 H   0  0  0  0  0  0  0  0  0  0  0  0
   63.6514   31.6151   49.5548 H   0  0  0  0  0  0  0  0  0  0  0  0
   63.6633   30.8241   47.9172 H   0  0  0  0  0  0  0  0  0  0  0  0
   64.1428   33.7201   48.6571 H   0  0  0  0  0  0  0  0  0  0  0  0
   65.0955   32.6148   47.5879 H   0  0  0  0  0  0  0  0  0  0  0  0
   63.8534   34.3686   46.3151 H   0  0  0  0  0  0  0  0  0  0  0  0
   63.3518   32.6741   45.9004 H   0  0  0  0  0  0  0  0  0  0  0  0
   61.7650   34.8982   47.0199 H   0  0  0  0  0  0  0  0  0  0  0  0
   61.2472   33.3598   46.1999 H   0  0  0  0  0  0  0  0  0  0  0  0
  1  2  1  0
  2  3  1  0
  3  4  1  0
  4  5  2  0
  4  6  1  0
  6  7  1  0
  7  8  2  0
  7  9  1  0
  9 10  1  0
 10 11  2  0
 10 12  2  0
 10 13  1  0
 13 14  1  0
 14 15  2  0
 15 16  1  0
 16 17  2  0
 17 18  1  0
 18 19  2  0
 19 20  1  0
 20 21  2  0
 20 22  2  0
 20 23  1  0
 23 24  1  0
 24 25  1  0
 25 26  1  0
 26 27  1  0
 27 28  1  0
  9  2  2  0
 19 14  1  0
 28 23  1  0
  1 29  1  0
  1 30  1  0
  1 31  1  0
 15 32  1  0
 16 33  1  0
 17 34  1  0
 18 35  1  0
 24 36  1  0
 24 37  1  0
 25 38  1  0
 25 39  1  0
 26 40  1  0
 26 41  1  0
 27 42  1  0
 27 43  1  0
 28 44  1  0
 28 45  1  0
M  CHG  3   3  -1   6  -1  13  -1
M  END
>  <UniqueID>  (89) 
81

>  <SMILES>  (89) 
Cc1[n-]c(=O)[n-]c(=O)c1S(=O)(=O)[N-]c1ccccc1S(=O)(=O)N1CCCCC1

>  <Energy>  (89) 
54.870668284680605

>  <Genealogy>  (89) 
Cc1[n-]c(=O)[n-]c(=O)c1S(=O)(=O)[N-]c1ccccc1S(=O)(=O)N1CCCCC1 (protonated)
Cc1[n-]c(=O)[n-]c(=O)c1S(=O)(=O)[N-]c1ccccc1S(=O)(=O)N1CCCCC1 (3D coordinates assigned)
Cc1[n-]c(=O)[n-]c(=O)c1S(=O)(=O)[N-]c1ccccc1S(=O)(=O)N1CCCCC1 (nonaromatic ring conformer: 54.870668284680605 kcal/mol)

>  <smiles>  (89) 
Cc1[nH]c(=O)[nH]c(=O)c1S(=O)(=O)Nc1ccccc1S(=O)(=O)N1CCCCC1

>  <score_type>  (89) 
oracle

>  <origin>  (89) 
adg

>  <m_score__min__energy>  (89) 
-14.82

>  <m_primary>  (89) 
energy

$$$$
89:0
     RDKit          3D

 58 61  0  0  0  0  0  0  0  0999 V2000
   58.8525   28.4997   43.8101 H   0  0  0  0  0  0  0  0  0  0  0  0
   58.3520   28.6140   44.7830 C   0  0  0  0  0  0  0  0  0  0  0  0
   58.5070   29.7900   45.4350 C   0  0  0  0  0  0  0  0  0  0  0  0
   59.2240   29.7940   46.7440 C   0  0  0  0  0  0  0  0  0  0  0  0
   58.6520   29.3250   47.7660 O   0  0  0  0  0  0  0  0  0  0  0  0
   60.5470   30.3430   46.8780 N   0  0  0  0  0  0  0  0  0  0  0  0
   61.0780   30.6790   46.0470 H   0  0  0  0  0  0  0  0  0  0  0  0
   61.1870   30.5160   48.1810 C   0  0  0  0  0  0  0  0  0  0  0  0
   60.4202   30.7456   48.9355 H   0  0  0  0  0  0  0  0  0  0  0  0
   61.7111   29.5874   48.4513 H   0  0  0  0  0  0  0  0  0  0  0  0
   62.1820   31.6450   48.1220 C   0  0  0  0  0  0  0  0  0  0  0  0
   62.0940   32.6090   47.1010 C   0  0  0  0  0  0  0  0  0  0  0  0
   61.3125   32.5223   46.3318 H   0  0  0  0  0  0  0  0  0  0  0  0
   62.9960   33.6770   47.0600 C   0  0  0  0  0  0  0  0  0  0  0  0
   62.9211   34.4290   46.2607 H   0  0  0  0  0  0  0  0  0  0  0  0
   63.9940   33.7900   48.0350 C   0  0  0  0  0  0  0  0  0  0  0  0
   64.7020   34.6312   48.0024 H   0  0  0  0  0  0  0  0  0  0  0  0
   64.0910   32.8330   49.0510 C   0  0  0  0  0  0  0  0  0  0  0  0
   64.8778   32.9206   49.8147 H   0  0  0  0  0  0  0  0  0  0  0  0
   63.1880   31.7640   49.0970 C   0  0  0  0  0  0  0  0  0  0  0  0
   63.2659   31.0148   49.8986 H   0  0  0  0  0  0  0  0  0  0  0  0
   57.8650   31.3290   44.7950 S   0  0  0  0  0  0  0  0  0  0  0  0
   56.3650   31.4120   44.8540 O   0  0  0  0  0  0  0  0  0  0  0  0
   58.2750   31.4360   43.3510 O   0  0  0  0  0  0  0  0  0  0  0  0
   58.5110   32.6930   45.7110 C   0  0  0  0  0  0  0  0  0  0  0  0
   59.1180   33.7700   45.0470 C   0  0  0  0  0  0  0  0  0  0  0  0
   59.2292   33.7476   43.9529 H   0  0  0  0  0  0  0  0  0  0  0  0
   59.5820   34.8720   45.7730 C   0  0  0  0  0  0  0  0  0  0  0  0
   60.0596   35.7129   45.2488 H   0  0  0  0  0  0  0  0  0  0  0  0
   59.4400   34.9070   47.1640 C   0  0  0  0  0  0  0  0  0  0  0  0
   59.7867   35.7834   47.7312 H   0  0  0  0  0  0  0  0  0  0  0  0
   58.8570   33.8270   47.8320 C   0  0  0  0  0  0  0  0  0  0  0  0
   58.7635   33.8448   48.9279 H   0  0  0  0  0  0  0  0  0  0  0  0
   58.3920   32.7230   47.1090 C   0  0  0  0  0  0  0  0  0  0  0  0
   57.9316   31.8757   47.6382 H   0  0  0  0  0  0  0  0  0  0  0  0
   57.5610   27.4760   45.2830 C   0  0  0  0  0  0  0  0  0  0  0  0
   56.1890   27.6010   45.5120 C   0  0  0  0  0  0  0  0  0  0  0  0
   55.5310   28.7960   45.2470 O   0  0  0  0  0  0  0  0  0  0  0  0
   55.4930   26.5530   46.0130 N   0  0  0  0  0  0  0  0  0  0  0  0
   56.0970   25.3710   46.2990 C   0  0  0  0  0  0  0  0  0  0  0  0
   55.4020   24.4380   46.7860 O   0  0  0  0  0  0  0  0  0  0  0  0
   57.4370   25.1990   46.0560 N   0  0  0  0  0  0  0  0  0  0  0  0
   58.1110   23.9420   46.4380 C   0  0  0  0  0  0  0  0  0  0  0  0
   59.1987   24.0650   46.3295 H   0  0  0  0  0  0  0  0  0  0  0  0
   57.8633   23.7042   47.4830 H   0  0  0  0  0  0  0  0  0  0  0  0
   57.6460   22.8140   45.5520 C   0  0  0  0  0  0  0  0  0  0  0  0
   57.4120   23.0400   44.1850 C   0  0  0  0  0  0  0  0  0  0  0  0
   57.6094   24.0318   43.7523 H   0  0  0  0  0  0  0  0  0  0  0  0
   56.9290   22.0090   43.3720 C   0  0  0  0  0  0  0  0  0  0  0  0
   56.7502   22.1913   42.3021 H   0  0  0  0  0  0  0  0  0  0  0  0
   56.6730   20.7460   43.9180 C   0  0  0  0  0  0  0  0  0  0  0  0
   56.2932   19.9366   43.2773 H   0  0  0  0  0  0  0  0  0  0  0  0
   56.9000   20.5130   45.2780 C   0  0  0  0  0  0  0  0  0  0  0  0
   56.6992   19.5199   45.7063 H   0  0  0  0  0  0  0  0  0  0  0  0
   57.3820   21.5410   46.0940 C   0  0  0  0  0  0  0  0  0  0  0  0
   57.5558   21.3548   47.1641 H   0  0  0  0  0  0  0  0  0  0  0  0
   58.1650   26.2330   45.5200 C   0  0  0  0  0  0  0  0  0  0  0  0
   59.3850   26.0750   45.2320 O   0  0  0  0  0  0  0  0  0  0  0  0
  1  2  1  0
  2  3  2  0
  3  4  1  0
  4  5  2  0
  4  6  1  0
  6  7  1  0
  6  8  1  0
  8  9  1  0
  8 10  1  0
  8 11  1  0
 11 12  2  0
 12 13  1  0
 12 14  1  0
 14 15  1  0
 14 16  2  0
 16 17  1  0
 16 18  1  0
 18 19  1  0
 18 20  2  0
 20 21  1  0
  3 22  1  0
 22 23  2  0
 22 24  2  0
 22 25  1  0
 25 26  2  0
 26 27  1  0
 26 28  1  0
 28 29  1  0
 28 30  2  0
 30 31  1  0
 30 32  1  0
 32 33  1  0
 32 34  2  0
 34 35  1  0
  2 36  1  0
 36 37  2  0
 37 38  1  0
 37 39  1  0
 39 40  1  0
 40 41  2  0
 40 42  1  0
 42 43  1  0
 43 44  1  0
 43 45  1  0
 43 46  1  0
 46 47  2  0
 47 48  1  0
 47 49  1  0
 49 50  1  0
 49 51  2  0
 51 52  1  0
 51 53  1  0
 53 54  1  0
 53 55  2  0
 55 56  1  0
 42 57  1  0
 57 58  2  0
 20 11  1  0
 34 25  1  0
 57 36  1  0
 55 46  1  0
M  CHG  2  38  -1  39  -1
M  END
>  <UniqueID>  (90) 
82

>  <SMILES>  (90) 
O=C(NCc1ccccc1)/C(=C/c1c([O-])[n-]c(=O)n(Cc2ccccc2)c1=O)S(=O)(=O)c1ccccc1

>  <Energy>  (90) 
76.27057036577537

>  <Genealogy>  (90) 
O=C(NCc1ccccc1)C(=Cc1c([O-])[n-]c(=O)n(Cc2ccccc2)c1=O)S(=O)(=O)c1ccccc1 (protonated)
O=C(NCc1ccccc1)/C(=C/c1c([O-])[n-]c(=O)n(Cc2ccccc2)c1=O)S(=O)(=O)c1ccccc1 (cis-trans isomerization)
O=C(NCc1ccccc1)/C(=C/c1c([O-])[n-]c(=O)n(Cc2ccccc2)c1=O)S(=O)(=O)c1ccccc1 (3D coordinates assigned)
O=C(NCc1ccccc1)/C(=C/c1c([O-])[n-]c(=O)n(Cc2ccccc2)c1=O)S(=O)(=O)c1ccccc1 (optimized conformer: 76.27057036577537 kcal/mol)

>  <smiles>  (90) 
O=C(NCc1ccccc1)C(=Cc1c(O)[nH]c(=O)n(Cc2ccccc2)c1=O)S(=O)(=O)c1ccccc1

>  <score_type>  (90) 
oracle

>  <origin>  (90) 
adg

>  <m_score__min__energy>  (90) 
-16.489999999999998

>  <m_primary>  (90) 
energy

$$$$
90:0
     RDKit          3D

 52 54  0  0  0  0  0  0  0  0999 V2000
   55.7410   19.1680   44.9420 C   0  0  0  0  0  0  0  0  0  0  0  0
   55.9030   20.6440   45.1290 C   0  0  0  0  0  0  0  0  0  0  0  0
   55.4570   21.3760   46.2120 C   0  0  0  0  0  0  0  0  0  0  0  0
   55.8430   22.6730   45.9210 C   0  0  0  0  0  0  0  0  0  0  0  0
   55.5450   23.8820   46.7470 C   0  0  0  0  0  0  0  0  0  0  0  0
   56.6080   24.8720   46.5850 N   0  0  0  0  0  0  0  0  0  0  0  0
   56.3360   26.2430   46.2550 C   0  0  0  0  0  0  0  0  0  0  0  0
   55.1510   26.6010   46.0100 O   0  0  0  0  0  0  0  0  0  0  0  0
   57.4260   27.2470   46.1880 C   0  0  0  0  0  0  0  0  0  0  0  0
   58.5000   27.2190   47.0880 C   0  0  0  0  0  0  0  0  0  0  0  0
   59.4990   28.1850   47.0140 C   0  0  0  0  0  0  0  0  0  0  0  0
   59.4250   29.1870   46.0440 C   0  0  0  0  0  0  0  0  0  0  0  0
   60.3340   30.0590   45.9990 O   0  0  0  0  0  0  0  0  0  0  0  0
   58.3740   29.2190   45.1600 N   0  0  0  0  0  0  0  0  0  0  0  0
   58.2440   30.3030   44.1700 C   0  0  0  0  0  0  0  0  0  0  0  0
   57.2910   31.3430   44.6850 C   0  0  0  0  0  0  0  0  0  0  0  0
   56.0690   31.0550   44.8080 O   0  0  0  0  0  0  0  0  0  0  0  0
   57.7730   32.6120   45.1490 N   0  0  0  0  0  0  0  0  0  0  0  0
   58.5120   33.4970   44.2330 C   0  0  0  0  0  0  0  0  0  0  0  0
   58.9000   34.8130   44.9190 C   0  0  0  0  0  0  0  0  0  0  0  0
   59.5130   34.5380   46.3000 C   0  0  0  0  0  0  0  0  0  0  0  0
   58.6110   33.6680   47.2080 C   0  0  0  0  0  0  0  0  0  0  0  0
   57.3880   33.0860   46.4830 C   0  0  0  0  0  0  0  0  0  0  0  0
   57.3830   28.2770   45.2320 C   0  0  0  0  0  0  0  0  0  0  0  0
   56.4740   22.7140   44.7300 N   0  0  0  0  0  0  0  0  0  0  0  0
   56.5200   21.4750   44.2660 N   0  0  0  0  0  0  0  0  0  0  0  0
   57.1070   21.1190   42.9780 C   0  0  0  0  0  0  0  0  0  0  0  0
   55.6872   18.6776   45.9252 H   0  0  0  0  0  0  0  0  0  0  0  0
   54.8156   18.9688   44.3817 H   0  0  0  0  0  0  0  0  0  0  0  0
   56.6012   18.7728   44.3817 H   0  0  0  0  0  0  0  0  0  0  0  0
   54.9195   21.0124   47.1002 H   0  0  0  0  0  0  0  0  0  0  0  0
   54.5885   24.3180   46.4229 H   0  0  0  0  0  0  0  0  0  0  0  0
   55.4818   23.5897   47.8056 H   0  0  0  0  0  0  0  0  0  0  0  0
   57.5930   24.5260   46.5980 H   0  0  0  0  0  0  0  0  0  0  0  0
   58.5534   26.4318   47.8545 H   0  0  0  0  0  0  0  0  0  0  0  0
   60.3443   28.1594   47.7174 H   0  0  0  0  0  0  0  0  0  0  0  0
   59.2288   30.7619   43.9979 H   0  0  0  0  0  0  0  0  0  0  0  0
   57.8599   29.8911   43.2251 H   0  0  0  0  0  0  0  0  0  0  0  0
   59.4261   32.9841   43.8994 H   0  0  0  0  0  0  0  0  0  0  0  0
   57.8616   33.7309   43.3772 H   0  0  0  0  0  0  0  0  0  0  0  0
   59.6349   35.3435   44.2956 H   0  0  0  0  0  0  0  0  0  0  0  0
   57.9970   35.4282   45.0462 H   0  0  0  0  0  0  0  0  0  0  0  0
   60.4719   34.0177   46.1590 H   0  0  0  0  0  0  0  0  0  0  0  0
   59.6382   35.5097   46.8002 H   0  0  0  0  0  0  0  0  0  0  0  0
   59.2125   32.8344   47.5996 H   0  0  0  0  0  0  0  0  0  0  0  0
   58.2316   34.3215   48.0073 H   0  0  0  0  0  0  0  0  0  0  0  0
   56.9853   32.2447   47.0661 H   0  0  0  0  0  0  0  0  0  0  0  0
   56.6228   33.8696   46.3804 H   0  0  0  0  0  0  0  0  0  0  0  0
   56.5381   28.3269   44.5294 H   0  0  0  0  0  0  0  0  0  0  0  0
   58.0370   20.5550   43.1422 H   0  0  0  0  0  0  0  0  0  0  0  0
   56.3975   20.4989   42.4105 H   0  0  0  0  0  0  0  0  0  0  0  0
   57.3289   22.0348   42.4105 H   0  0  0  0  0  0  0  0  0  0  0  0
  1  2  1  0
  2  3  2  0
  3  4  1  0
  4  5  1  0
  5  6  1  0
  6  7  1  0
  7  8  2  0
  7  9  1  0
  9 10  1  0
 10 11  2  0
 11 12  1  0
 12 13  2  0
 12 14  1  0
 14 15  1  0
 15 16  1  0
 16 17  2  0
 16 18  1  0
 18 19  1  0
 19 20  1  0
 20 21  1  0
 21 22  1  0
 22 23  1  0
 14 24  1  0
  4 25  2  0
 25 26  1  0
 26 27  1  0
 26  2  1  0
 24  9  2  0
 23 18  1  0
  1 28  1  0
  1 29  1  0
  1 30  1  0
  3 31  1  0
  5 32  1  0
  5 33  1  0
  6 34  1  0
 10 35  1  0
 11 36  1  0
 15 37  1  0
 15 38  1  0
 19 39  1  0
 19 40  1  0
 20 41  1  0
 20 42  1  0
 21 43  1  0
 21 44  1  0
 22 45  1  0
 22 46  1  0
 23 47  1  0
 23 48  1  0
 24 49  1  0
 27 50  1  0
 27 51  1  0
 27 52  1  0
M  END
>  <UniqueID>  (91) 
83

>  <SMILES>  (91) 
Cc1cc(CNC(=O)c2ccc(=O)n(CC(=O)N3CCCCC3)c2)nn1C

>  <Energy>  (91) 
84.48665378978673

>  <Genealogy>  (91) 
Cc1cc(CNC(=O)c2ccc(=O)n(CC(=O)N3CCCCC3)c2)nn1C (3D coordinates assigned)
Cc1cc(CNC(=O)c2ccc(=O)n(CC(=O)N3CCCCC3)c2)nn1C (nonaromatic ring conformer: 84.48665378978673 kcal/mol)

>  <smiles>  (91) 
Cc1cc(CNC(=O)c2ccc(=O)n(CC(=O)N3CCCCC3)c2)nn1C

>  <score_type>  (91) 
oracle

>  <origin>  (91) 
adg

>  <m_score__min__energy>  (91) 
-8.4199999999999999

>  <m_primary>  (91) 
energy

$$$$
91:0
     RDKit          3D

 39 43  0  0  0  0  0  0  0  0999 V2000
   59.9980   28.4920   51.8970 H   0  0  0  0  0  0  0  0  0  0  0  0
   60.9790   28.5740   52.0210 O   0  0  0  0  0  0  0  0  0  0  0  0
   61.5090   28.7600   50.7370 C   0  0  0  0  0  0  0  0  0  0  0  0
   62.5706   28.5402   50.9232 H   0  0  0  0  0  0  0  0  0  0  0  0
   60.6920   28.0960   49.6750 C   0  0  0  0  0  0  0  0  0  0  0  0
   59.8807   27.4779   50.0869 H   0  0  0  0  0  0  0  0  0  0  0  0
   61.2078   27.3795   49.0188 H   0  0  0  0  0  0  0  0  0  0  0  0
   60.2020   29.3420   49.0580 N   0  0  0  0  0  0  0  0  0  0  0  0
   59.3600   29.7180   47.9730 C   0  0  0  0  0  0  0  0  0  0  0  0
   58.9830   31.0250   47.8280 N   0  0  0  0  0  0  0  0  0  0  0  0
   58.1740   31.4020   46.7950 C   0  0  0  0  0  0  0  0  0  0  0  0
   57.8010   32.6360   46.6440 N   0  0  0  0  0  0  0  0  0  0  0  0
   58.4980   33.5840   45.7800 C   0  0  0  0  0  0  0  0  0  0  0  0
   57.8432   33.4936   44.9008 H   0  0  0  0  0  0  0  0  0  0  0  0
   60.0000   33.6160   45.9970 C   0  0  0  0  0  0  0  0  0  0  0  0
   60.4726   32.8964   46.6817 H   0  0  0  0  0  0  0  0  0  0  0  0
   60.8824   33.5712   45.3417 H   0  0  0  0  0  0  0  0  0  0  0  0
   59.1250   34.7310   46.5500 C   0  0  0  0  0  0  0  0  0  0  0  0
   58.9649   34.8180   47.6348 H   0  0  0  0  0  0  0  0  0  0  0  0
   59.1124   35.8273   46.4605 H   0  0  0  0  0  0  0  0  0  0  0  0
   57.7630   30.4460   45.9280 N   0  0  0  0  0  0  0  0  0  0  0  0
   56.9750   30.5860   44.8750 N   0  0  0  0  0  0  0  0  0  0  0  0
   56.8420   29.3530   44.3230 C   0  0  0  0  0  0  0  0  0  0  0  0
   56.2450   29.1226   43.4283 H   0  0  0  0  0  0  0  0  0  0  0  0
   57.5760   28.4200   45.0600 C   0  0  0  0  0  0  0  0  0  0  0  0
   57.6860   27.0950   44.8860 C   0  0  0  0  0  0  0  0  0  0  0  0
   58.1751   26.7332   43.9695 H   0  0  0  0  0  0  0  0  0  0  0  0
   57.1920   26.0950   45.8470 C   0  0  0  0  0  0  0  0  0  0  0  0
   57.9530   25.0940   46.3240 N   0  0  0  0  0  0  0  0  0  0  0  0
   57.0960   24.3870   47.0930 C   0  0  0  0  0  0  0  0  0  0  0  0
   57.4480   23.3610   47.7310 O   0  0  0  0  0  0  0  0  0  0  0  0
   55.8320   24.8600   47.1150 N   0  0  0  0  0  0  0  0  0  0  0  0
   55.9050   25.9330   46.3120 C   0  0  0  0  0  0  0  0  0  0  0  0
   54.8070   26.7130   45.9740 O   0  0  0  0  0  0  0  0  0  0  0  0
   58.1310   29.1720   46.0710 C   0  0  0  0  0  0  0  0  0  0  0  0
   58.9320   28.7730   47.0870 N   0  0  0  0  0  0  0  0  0  0  0  0
   61.0030   30.0130   50.0980 C   0  0  0  0  0  0  0  0  0  0  0  0
   60.3905   30.6207   50.7803 H   0  0  0  0  0  0  0  0  0  0  0  0
   61.7535   30.7431   49.7607 H   0  0  0  0  0  0  0  0  0  0  0  0
  1  2  1  0
  2  3  1  0
  3  4  1  0
  3  5  1  0
  5  6  1  0
  5  7  1  0
  5  8  1  0
  8  9  1  0
  9 10  2  0
 10 11  1  0
 11 12  2  3
 12 13  1  0
 13 14  1  0
 13 15  1  0
 15 16  1  0
 15 17  1  0
 15 18  1  0
 18 19  1  0
 18 20  1  0
 11 21  1  0
 21 22  1  0
 22 23  2  0
 23 24  1  0
 23 25  1  0
 25 26  2  0
 26 27  1  0
 26 28  1  0
 28 29  1  0
 29 30  1  0
 30 31  2  0
 30 32  1  0
 32 33  1  0
 33 34  1  0
 25 35  1  0
 35 36  2  0
  8 37  1  0
 37 38  1  0
 37 39  1  0
 37  3  1  0
 36  9  1  0
 18 13  1  0
 35 21  1  0
 33 28  2  0
M  CHG  3  29  -1  32  -1  34  -1
M  END
>  <UniqueID>  (92) 
84

>  <SMILES>  (92) 
O=c1[n-]c([O-])c(/C=c2\cnn3c(=NC4CC4)nc(N4CC(O)C4)nc23)[n-]1

>  <Energy>  (92) 
425.0008305620177

>  <Genealogy>  (92) 
O=c1[n-]c([O-])c(C=c2cnn3c(=NC4CC4)nc(N4CC(O)C4)nc23)[n-]1 (protonated)
O=c1[n-]c([O-])c(/C=c2\cnn3c(=NC4CC4)nc(N4CC(O)C4)nc23)[n-]1 (cis-trans isomerization)
O=c1[n-]c([O-])c(/C=c2\cnn3c(=NC4CC4)nc(N4CC(O)C4)nc23)[n-]1 (3D coordinates assigned)
O=c1[n-]c([O-])c(/C=c2\cnn3c(=NC4CC4)nc(N4CC(O)C4)nc23)[n-]1 (nonaromatic ring conformer: 425.0008305620177 kcal/mol)

>  <smiles>  (92) 
O=c1[nH]c(O)c(C=c2cnn3c(=NC4CC4)nc(N4CC(O)C4)nc23)[nH]1

>  <score_type>  (92) 
oracle

>  <origin>  (92) 
adg

>  <m_score__min__energy>  (92) 
-15.17

>  <m_primary>  (92) 
energy

$$$$
92:0
     RDKit          3D

 70 73  0  0  0  0  0  0  0  0999 V2000
   63.4280   33.4500   47.1500 C   0  0  0  0  0  0  0  0  0  0  0  0
   62.2230   33.8150   47.8160 O   0  0  0  0  0  0  0  0  0  0  0  0
   60.9490   33.7990   47.2260 C   0  0  0  0  0  0  0  0  0  0  0  0
   60.7520   34.1380   45.8730 C   0  0  0  0  0  0  0  0  0  0  0  0
   59.4720   34.1130   45.3150 C   0  0  0  0  0  0  0  0  0  0  0  0
   58.3700   33.7340   46.0920 C   0  0  0  0  0  0  0  0  0  0  0  0
   56.9890   33.7430   45.5050 C   0  0  0  0  0  0  0  0  0  0  0  0
   58.5570   33.4070   47.4420 C   0  0  0  0  0  0  0  0  0  0  0  0
   59.8390   33.4360   48.0110 C   0  0  0  0  0  0  0  0  0  0  0  0
   60.0570   32.9990   49.7090 S   0  0  0  0  0  0  0  0  0  0  0  0
   61.2800   33.7020   50.2300 O   0  0  0  0  0  0  0  0  0  0  0  0
   58.8710   33.4510   50.5180 O   0  0  0  0  0  0  0  0  0  0  0  0
   60.2610   31.2670   49.8630 N   0  0  0  0  0  0  0  0  0  0  0  0
   61.2260   30.7390   48.8690 C   0  0  0  0  0  0  0  0  0  0  0  0
   60.5740   30.3610   47.5280 C   0  0  0  0  0  0  0  0  0  0  0  0
   59.3270   29.4540   47.6930 C   0  0  0  0  0  0  0  0  0  0  0  0
   59.4900   28.1340   46.9830 C   0  0  0  0  0  0  0  0  0  0  0  0
   60.4070   28.0090   46.1250 O   0  0  0  0  0  0  0  0  0  0  0  0
   58.6480   27.0170   47.3080 N   0  0  0  0  0  0  0  0  0  0  0  0
   58.4330   25.8990   46.4290 C   0  0  0  0  0  0  0  0  0  0  0  0
   57.3210   25.8970   45.5740 C   0  0  0  0  0  0  0  0  0  0  0  0
   57.0950   24.8250   44.7030 C   0  0  0  0  0  0  0  0  0  0  0  0
   57.9940   23.7490   44.6590 C   0  0  0  0  0  0  0  0  0  0  0  0
   57.7470   22.5910   43.7280 C   0  0  0  0  0  0  0  0  0  0  0  0
   56.2730   22.3820   43.5070 C   0  0  0  0  0  0  0  0  0  0  0  0
   55.7890   22.5710   42.3610 O   0  0  0  0  0  0  0  0  0  0  0  0
   55.4090   21.9300   44.5580 N   0  0  0  0  0  0  0  0  0  0  0  0
   55.5760   22.1480   45.9680 C   0  0  0  0  0  0  0  0  0  0  0  0
   56.3850   21.2790   46.7230 C   0  0  0  0  0  0  0  0  0  0  0  0
   56.6120   21.5170   48.0790 C   0  0  0  0  0  0  0  0  0  0  0  0
   56.0570   22.6380   48.6960 C   0  0  0  0  0  0  0  0  0  0  0  0
   55.2730   23.5260   47.9580 C   0  0  0  0  0  0  0  0  0  0  0  0
   55.0210   23.3010   46.5890 C   0  0  0  0  0  0  0  0  0  0  0  0
   54.1810   24.2820   45.8490 C   0  0  0  0  0  0  0  0  0  0  0  0
   54.3830   25.6860   45.9860 N   0  0  0  0  0  0  0  0  0  0  0  0
   53.2760   23.8740   45.0700 O   0  0  0  0  0  0  0  0  0  0  0  0
   59.1170   23.7560   45.5020 C   0  0  0  0  0  0  0  0  0  0  0  0
   59.3380   24.8250   46.3750 C   0  0  0  0  0  0  0  0  0  0  0  0
   58.9500   29.2370   49.1670 C   0  0  0  0  0  0  0  0  0  0  0  0
   58.9430   30.5870   49.8910 C   0  0  0  0  0  0  0  0  0  0  0  0
   64.2023   33.2155   47.8953 H   0  0  0  0  0  0  0  0  0  0  0  0
   63.2458   32.5668   46.5202 H   0  0  0  0  0  0  0  0  0  0  0  0
   63.7665   34.2859   46.5202 H   0  0  0  0  0  0  0  0  0  0  0  0
   61.6129   34.4246   45.2512 H   0  0  0  0  0  0  0  0  0  0  0  0
   59.3287   34.3922   44.2607 H   0  0  0  0  0  0  0  0  0  0  0  0
   56.2459   33.7478   46.3160 H   0  0  0  0  0  0  0  0  0  0  0  0
   56.8602   34.6420   44.8843 H   0  0  0  0  0  0  0  0  0  0  0  0
   56.8485   32.8458   44.8843 H   0  0  0  0  0  0  0  0  0  0  0  0
   57.6918   33.1254   48.0602 H   0  0  0  0  0  0  0  0  0  0  0  0
   61.9896   31.5082   48.6812 H   0  0  0  0  0  0  0  0  0  0  0  0
   61.6581   29.8198   49.2913 H   0  0  0  0  0  0  0  0  0  0  0  0
   60.2697   31.2846   47.0139 H   0  0  0  0  0  0  0  0  0  0  0  0
   61.3181   29.7940   46.9494 H   0  0  0  0  0  0  0  0  0  0  0  0
   58.4948   29.9929   47.2166 H   0  0  0  0  0  0  0  0  0  0  0  0
   58.2130   26.9900   48.2560 H   0  0  0  0  0  0  0  0  0  0  0  0
   56.6207   26.7451   45.5882 H   0  0  0  0  0  0  0  0  0  0  0  0
   56.2093   24.8262   44.0506 H   0  0  0  0  0  0  0  0  0  0  0  0
   58.2301   22.7970   42.7615 H   0  0  0  0  0  0  0  0  0  0  0  0
   58.1660   21.6808   44.1818 H   0  0  0  0  0  0  0  0  0  0  0  0
   56.8430   20.4035   46.2396 H   0  0  0  0  0  0  0  0  0  0  0  0
   57.2301   20.8190   48.6627 H   0  0  0  0  0  0  0  0  0  0  0  0
   56.2374   22.8224   49.7653 H   0  0  0  0  0  0  0  0  0  0  0  0
   54.8464   24.4123   48.4504 H   0  0  0  0  0  0  0  0  0  0  0  0
   53.5720   26.3450   46.0220 H   0  0  0  0  0  0  0  0  0  0  0  0
   59.8265   22.9158   45.4752 H   0  0  0  0  0  0  0  0  0  0  0  0
   60.2261   24.8257   47.0241 H   0  0  0  0  0  0  0  0  0  0  0  0
   57.9503   28.7822   49.2276 H   0  0  0  0  0  0  0  0  0  0  0  0
   59.6837   28.5682   49.6407 H   0  0  0  0  0  0  0  0  0  0  0  0
   58.2014   31.2400   49.4077 H   0  0  0  0  0  0  0  0  0  0  0  0
   58.6951   30.3936   50.9451 H   0  0  0  0  0  0  0  0  0  0  0  0
  1  2  1  0
  2  3  1  0
  3  4  2  0
  4  5  1  0
  5  6  2  0
  6  7  1  0
  6  8  1  0
  8  9  2  0
  9 10  1  0
 10 11  2  0
 10 12  2  0
 10 13  1  0
 13 14  1  0
 14 15  1  0
 15 16  1  0
 16 17  1  0
 17 18  2  0
 17 19  1  0
 19 20  1  0
 20 21  2  0
 21 22  1  0
 22 23  2  0
 23 24  1  0
 24 25  1  0
 25 26  2  0
 25 27  1  0
 27 28  1  0
 28 29  2  0
 29 30  1  0
 30 31  2  0
 31 32  1  0
 32 33  2  0
 33 34  1  0
 34 35  1  0
 34 36  2  0
 23 37  1  0
 37 38  2  0
 16 39  1  0
 39 40  1  0
  9  3  1  0
 40 13  1  0
 38 20  1  0
 33 28  1  0
  1 41  1  0
  1 42  1  0
  1 43  1  0
  4 44  1  0
  5 45  1  0
  7 46  1  0
  7 47  1  0
  7 48  1  0
  8 49  1  0
 14 50  1  0
 14 51  1  0
 15 52  1  0
 15 53  1  0
 16 54  1  0
 19 55  1  0
 21 56  1  0
 22 57  1  0
 24 58  1  0
 24 59  1  0
 29 60  1  0
 30 61  1  0
 31 62  1  0
 32 63  1  0
 35 64  1  0
 37 65  1  0
 38 66  1  0
 39 67  1  0
 39 68  1  0
 40 69  1  0
 40 70  1  0
M  CHG  2  27  -1  35  -1
M  END
>  <UniqueID>  (93) 
85

>  <SMILES>  (93) 
COc1ccc(C)cc1S(=O)(=O)N1CCC(C(=O)Nc2ccc(CC(=O)[N-]c3ccccc3C([NH-])=O)cc2)CC1

>  <Energy>  (93) 
90.17948708089754

>  <Genealogy>  (93) 
COc1ccc(C)cc1S(=O)(=O)N1CCC(C(=O)Nc2ccc(CC(=O)[N-]c3ccccc3C([NH-])=O)cc2)CC1 (protonated)
COc1ccc(C)cc1S(=O)(=O)N1CCC(C(=O)Nc2ccc(CC(=O)[N-]c3ccccc3C([NH-])=O)cc2)CC1 (3D coordinates assigned)
COc1ccc(C)cc1S(=O)(=O)N1CCC(C(=O)Nc2ccc(CC(=O)[N-]c3ccccc3C([NH-])=O)cc2)CC1 (nonaromatic ring conformer: 90.17948708089754 kcal/mol)

>  <smiles>  (93) 
COc1ccc(C)cc1S(=O)(=O)N1CCC(C(=O)Nc2ccc(CC(=O)Nc3ccccc3C(N)=O)cc2)CC1

>  <score_type>  (93) 
oracle

>  <origin>  (93) 
adg

>  <m_score__min__energy>  (93) 
-14.869999999999999

>  <m_primary>  (93) 
energy

$$$$
93:0
     RDKit          3D

 58 61  0  0  0  0  0  0  0  0999 V2000
   56.1000   29.7370   43.3710 C   0  0  0  0  0  0  0  0  0  0  0  0
   56.0860   30.6090   44.4940 O   0  0  0  0  0  0  0  0  0  0  0  0
   57.0450   31.6070   44.6850 C   0  0  0  0  0  0  0  0  0  0  0  0
   57.4560   32.2920   43.7060 O   0  0  0  0  0  0  0  0  0  0  0  0
   57.5700   31.8340   45.9980 N   0  0  0  0  0  0  0  0  0  0  0  0
   58.6630   32.7340   46.2370 C   0  0  0  0  0  0  0  0  0  0  0  0
   58.4800   34.1020   45.9770 C   0  0  0  0  0  0  0  0  0  0  0  0
   57.2950   34.5510   45.4910 F   0  0  0  0  0  0  0  0  0  0  0  0
   59.5010   35.0150   46.2460 C   0  0  0  0  0  0  0  0  0  0  0  0
   60.7150   34.5730   46.7690 C   0  0  0  0  0  0  0  0  0  0  0  0
   60.9210   33.2130   47.0080 C   0  0  0  0  0  0  0  0  0  0  0  0
   59.9130   32.2740   46.7220 C   0  0  0  0  0  0  0  0  0  0  0  0
   60.2120   30.8040   46.9290 C   0  0  0  0  0  0  0  0  0  0  0  0
   59.1050   29.9610   46.4310 N   0  0  0  0  0  0  0  0  0  0  0  0
   59.3870   29.4220   45.0750 C   0  0  0  0  0  0  0  0  0  0  0  0
   59.6650   27.9120   45.0790 C   0  0  0  0  0  0  0  0  0  0  0  0
   58.5160   27.1570   45.6320 N   0  0  0  0  0  0  0  0  0  0  0  0
   58.8860   25.7610   45.9620 C   0  0  0  0  0  0  0  0  0  0  0  0
   58.1700   24.7320   45.0490 C   0  0  2  0  0  0  0  0  0  0  0  0
   56.7380   25.2060   44.6490 C   0  0  0  0  0  0  0  0  0  0  0  0
   55.7700   25.1230   45.8040 C   0  0  0  0  0  0  0  0  0  0  0  0
   54.7680   25.8830   45.8700 O   0  0  0  0  0  0  0  0  0  0  0  0
   55.9940   24.0860   46.8060 C   0  0  0  0  0  0  0  0  0  0  0  0
   55.2430   23.7650   47.8250 O   0  0  0  0  0  0  0  0  0  0  0  0
   55.8590   22.7640   48.4240 C   0  0  0  0  0  0  0  0  0  0  0  0
   55.3170   22.0690   49.6260 C   0  0  0  0  0  0  0  0  0  0  0  0
   57.0140   22.4010   47.8120 N   0  0  0  0  0  0  0  0  0  0  0  0
   57.0870   23.2750   46.7930 C   0  0  0  0  0  0  0  0  0  0  0  0
   58.1380   23.3280   45.7240 C   0  0  0  0  0  0  0  0  0  0  0  0
   57.8560   27.8420   46.7750 C   0  0  0  0  0  0  0  0  0  0  0  0
   58.7430   28.9160   47.4160 C   0  0  0  0  0  0  0  0  0  0  0  0
   56.1168   28.6931   43.7175 H   0  0  0  0  0  0  0  0  0  0  0  0
   55.1990   29.9072   42.7633 H   0  0  0  0  0  0  0  0  0  0  0  0
   56.9951   29.9360   42.7633 H   0  0  0  0  0  0  0  0  0  0  0  0
   57.3100   31.1560   46.7500 H   0  0  0  0  0  0  0  0  0  0  0  0
   59.3472   36.0855   46.0448 H   0  0  0  0  0  0  0  0  0  0  0  0
   61.5121   35.2969   46.9938 H   0  0  0  0  0  0  0  0  0  0  0  0
   61.8807   32.8723   47.4239 H   0  0  0  0  0  0  0  0  0  0  0  0
   61.1331   30.5448   46.3865 H   0  0  0  0  0  0  0  0  0  0  0  0
   60.3336   30.6204   48.0067 H   0  0  0  0  0  0  0  0  0  0  0  0
   58.5164   29.6170   44.4316 H   0  0  0  0  0  0  0  0  0  0  0  0
   60.2920   29.9236   44.7017 H   0  0  0  0  0  0  0  0  0  0  0  0
   59.8503   27.5786   44.0473 H   0  0  0  0  0  0  0  0  0  0  0  0
   60.5442   27.7214   45.7120 H   0  0  0  0  0  0  0  0  0  0  0  0
   59.9732   25.6450   45.8413 H   0  0  0  0  0  0  0  0  0  0  0  0
   58.5744   25.5659   46.9987 H   0  0  0  0  0  0  0  0  0  0  0  0
   58.7497   24.6515   44.1176 H   0  0  0  0  0  0  0  0  0  0  0  0
   56.7926   26.2498   44.3061 H   0  0  0  0  0  0  0  0  0  0  0  0
   56.3718   24.5429   43.8514 H   0  0  0  0  0  0  0  0  0  0  0  0
   55.6980   22.5575   50.5349 H   0  0  0  0  0  0  0  0  0  0  0  0
   54.2183   22.1206   49.6151 H   0  0  0  0  0  0  0  0  0  0  0  0
   55.6347   21.0159   49.6151 H   0  0  0  0  0  0  0  0  0  0  0  0
   59.1205   23.1215   46.1736 H   0  0  0  0  0  0  0  0  0  0  0  0
   57.9011   22.5741   44.9588 H   0  0  0  0  0  0  0  0  0  0  0  0
   56.9326   28.3183   46.4137 H   0  0  0  0  0  0  0  0  0  0  0  0
   57.6493   27.0816   47.5425 H   0  0  0  0  0  0  0  0  0  0  0  0
   58.1984   29.3814   48.2508 H   0  0  0  0  0  0  0  0  0  0  0  0
   59.6662   28.4391   47.7770 H   0  0  0  0  0  0  0  0  0  0  0  0
  1  2  1  0
  2  3  1  0
  3  4  2  0
  3  5  1  0
  5  6  1  0
  6  7  2  0
  7  8  1  0
  7  9  1  0
  9 10  2  0
 10 11  1  0
 11 12  2  0
 12 13  1  0
 13 14  1  0
 14 15  1  0
 15 16  1  0
 16 17  1  0
 17 18  1  0
 18 19  1  0
 19 20  1  0
 20 21  1  0
 21 22  2  0
 21 23  1  0
 23 24  1  0
 24 25  1  0
 25 26  1  0
 25 27  2  0
 27 28  1  0
 28 29  1  0
 17 30  1  0
 30 31  1  0
 12  6  1  0
 31 14  1  0
 29 19  1  0
 28 23  2  0
  1 32  1  0
  1 33  1  0
  1 34  1  0
  5 35  1  0
  9 36  1  0
 10 37  1  0
 11 38  1  0
 13 39  1  0
 13 40  1  0
 15 41  1  0
 15 42  1  0
 16 43  1  0
 16 44  1  0
 18 45  1  0
 18 46  1  0
 19 47  1  6
 20 48  1  0
 20 49  1  0
 26 50  1  0
 26 51  1  0
 26 52  1  0
 29 53  1  0
 29 54  1  0
 30 55  1  0
 30 56  1  0
 31 57  1  0
 31 58  1  0
M  END
>  <UniqueID>  (94) 
86

>  <SMILES>  (94) 
COC(=O)Nc1c(F)cccc1CN1CCN(C[C@@H]2CC(=O)c3oc(C)nc3C2)CC1

>  <Energy>  (94) 
109.66486634145134

>  <Genealogy>  (94) 
COC(=O)Nc1c(F)cccc1CN1CCN(C[C@@H]2CC(=O)c3oc(C)nc3C2)CC1 (chirality)
COC(=O)Nc1c(F)cccc1CN1CCN(C[C@@H]2CC(=O)c3oc(C)nc3C2)CC1 (3D coordinates assigned)
COC(=O)Nc1c(F)cccc1CN1CCN(C[C@@H]2CC(=O)c3oc(C)nc3C2)CC1 (nonaromatic ring conformer: 109.66486634145134 kcal/mol)

>  <smiles>  (94) 
COC(=O)Nc1c(F)cccc1CN1CCN(CC2CC(=O)c3oc(C)nc3C2)CC1

>  <score_type>  (94) 
oracle

>  <origin>  (94) 
adg

>  <m_score__min__energy>  (94) 
-8.9499999999999993

>  <m_primary>  (94) 
energy

$$$$
94:0
     RDKit          3D

 45 47  0  0  0  0  0  0  0  0999 V2000
   55.1430   28.6330   45.6260 H   0  0  0  0  0  0  0  0  0  0  0  0
   55.2040   29.3340   44.8540 N   0  0  0  0  0  0  0  0  0  0  0  0
   56.4620   29.6940   44.2910 C   0  0  0  0  0  0  0  0  0  0  0  0
   56.7160   30.9040   44.0480 O   0  0  0  0  0  0  0  0  0  0  0  0
   57.4840   28.6410   43.9940 C   0  0  0  0  0  0  0  0  0  0  0  0
   58.3202   29.0940   43.4412 H   0  0  0  0  0  0  0  0  0  0  0  0
   57.0144   27.8500   43.3908 H   0  0  0  0  0  0  0  0  0  0  0  0
   58.0030   28.0370   45.2670 C   0  0  0  0  0  0  0  0  0  0  0  0
   59.3280   28.6490   46.1140 S   0  0  0  0  0  0  0  0  0  0  0  0
   59.2090   27.4990   47.3250 C   0  0  0  0  0  0  0  0  0  0  0  0
   60.0120   27.4420   48.3490 N   0  0  0  0  0  0  0  0  0  0  0  0
   60.1930   28.4440   49.3660 C   0  0  0  0  0  0  0  0  0  0  0  0
   60.6280   28.0820   50.4910 O   0  0  0  0  0  0  0  0  0  0  0  0
   59.8880   29.8760   49.1510 C   0  0  0  0  0  0  0  0  0  0  0  0
   60.6840   30.6220   48.2690 C   0  0  0  0  0  0  0  0  0  0  0  0
   61.4926   30.1278   47.7106 H   0  0  0  0  0  0  0  0  0  0  0  0
   60.4550   31.9900   48.0960 C   0  0  0  0  0  0  0  0  0  0  0  0
   61.0873   32.5659   47.4042 H   0  0  0  0  0  0  0  0  0  0  0  0
   59.4290   32.6320   48.7950 C   0  0  0  0  0  0  0  0  0  0  0  0
   59.2720   34.0160   48.6230 O   0  0  0  0  0  0  0  0  0  0  0  0
   59.3010   34.6780   47.3630 C   0  0  0  0  0  0  0  0  0  0  0  0
   59.3486   35.7655   47.5212 H   0  0  0  0  0  0  0  0  0  0  0  0
   60.1857   34.3507   46.7971 H   0  0  0  0  0  0  0  0  0  0  0  0
   58.3911   34.4293   46.7971 H   0  0  0  0  0  0  0  0  0  0  0  0
   58.5980   31.8780   49.6440 C   0  0  0  0  0  0  0  0  0  0  0  0
   57.7735   32.3700   50.1807 H   0  0  0  0  0  0  0  0  0  0  0  0
   58.8150   30.5060   49.8090 C   0  0  0  0  0  0  0  0  0  0  0  0
   57.9610   29.7760   50.6290 O   0  0  0  0  0  0  0  0  0  0  0  0
   58.1870   26.6450   47.1100 N   0  0  0  0  0  0  0  0  0  0  0  0
   57.4970   26.9350   45.9750 C   0  0  0  0  0  0  0  0  0  0  0  0
   56.2710   26.1810   45.6240 C   0  0  0  0  0  0  0  0  0  0  0  0
   55.1510   26.6150   46.0030 O   0  0  0  0  0  0  0  0  0  0  0  0
   56.3330   24.9310   44.9110 N   0  0  0  0  0  0  0  0  0  0  0  0
   55.2400   23.9710   44.9330 C   0  0  0  0  0  0  0  0  0  0  0  0
   55.2151   23.4426   45.8975 H   0  0  0  0  0  0  0  0  0  0  0  0
   54.2663   24.4670   44.8068 H   0  0  0  0  0  0  0  0  0  0  0  0
   55.5170   22.9910   43.8000 C   0  0  0  0  0  0  0  0  0  0  0  0
   55.4068   21.9562   44.1565 H   0  0  0  0  0  0  0  0  0  0  0  0
   54.8098   23.1316   42.9693 H   0  0  0  0  0  0  0  0  0  0  0  0
   56.9550   23.2450   43.3520 C   0  0  0  0  0  0  0  0  0  0  0  0
   57.6172   22.4532   43.7323 H   0  0  0  0  0  0  0  0  0  0  0  0
   57.0360   23.2461   42.2550 H   0  0  0  0  0  0  0  0  0  0  0  0
   57.3570   24.5930   43.9360 C   0  0  0  0  0  0  0  0  0  0  0  0
   58.3399   24.5197   44.4244 H   0  0  0  0  0  0  0  0  0  0  0  0
   57.4370   25.3623   43.1538 H   0  0  0  0  0  0  0  0  0  0  0  0
  1  2  1  0
  2  3  1  0
  3  4  2  0
  3  5  1  0
  5  6  1  0
  5  7  1  0
  5  8  1  0
  8  9  1  0
  9 10  1  0
 10 11  2  0
 11 12  1  0
 12 13  2  0
 12 14  1  0
 14 15  2  0
 15 16  1  0
 15 17  1  0
 17 18  1  0
 17 19  2  0
 19 20  1  0
 20 21  1  0
 21 22  1  0
 21 23  1  0
 21 24  1  0
 19 25  1  0
 25 26  1  0
 25 27  2  0
 27 28  1  0
 10 29  1  0
 29 30  1  0
 30 31  1  0
 31 32  2  0
 31 33  1  0
 33 34  1  0
 34 35  1  0
 34 36  1  0
 34 37  1  0
 37 38  1  0
 37 39  1  0
 37 40  1  0
 40 41  1  0
 40 42  1  0
 40 43  1  0
 43 44  1  0
 43 45  1  0
 30  8  2  0
 43 33  1  0
 27 14  1  0
M  CHG  3   2  -1  28  -1  29  -1
M  END
>  <UniqueID>  (95) 
87

>  <SMILES>  (95) 
COc1ccc(C(=O)/N=c2\[n-]c(C(=O)N3CCCC3)c(CC([NH-])=O)s2)c([O-])c1

>  <Energy>  (95) 
81.59918154021794

>  <Genealogy>  (95) 
COc1ccc(C(=O)N=c2[n-]c(C(=O)N3CCCC3)c(CC([NH-])=O)s2)c([O-])c1 (protonated)
COc1ccc(C(=O)/N=c2\[n-]c(C(=O)N3CCCC3)c(CC([NH-])=O)s2)c([O-])c1 (cis-trans isomerization)
COc1ccc(C(=O)/N=c2\[n-]c(C(=O)N3CCCC3)c(CC([NH-])=O)s2)c([O-])c1 (3D coordinates assigned)
COc1ccc(C(=O)/N=c2\[n-]c(C(=O)N3CCCC3)c(CC([NH-])=O)s2)c([O-])c1 (nonaromatic ring conformer: 81.59918154021794 kcal/mol)

>  <smiles>  (95) 
COc1ccc(C(=O)N=c2[nH]c(C(=O)N3CCCC3)c(CC(N)=O)s2)c(O)c1

>  <score_type>  (95) 
oracle

>  <origin>  (95) 
adg

>  <m_score__min__energy>  (95) 
-13.859999999999999

>  <m_primary>  (95) 
energy

$$$$
95:0
     RDKit          3D

 39 41  0  0  0  0  0  0  0  0999 V2000
   56.7626   33.8793   43.6610 H   0  0  0  0  0  0  0  0  0  0  0  0
   57.3970   33.5790   44.5080 C   0  0  0  0  0  0  0  0  0  0  0  0
   58.3030   34.3330   45.0880 O   0  0  0  0  0  0  0  0  0  0  0  0
   58.8730   33.6570   46.0650 C   0  0  0  0  0  0  0  0  0  0  0  0
   59.9340   34.2240   46.9140 C   0  0  0  0  0  0  0  0  0  0  0  0
   59.6050   34.9390   47.8980 O   0  0  0  0  0  0  0  0  0  0  0  0
   61.3150   33.9590   46.6180 N   0  0  0  0  0  0  0  0  0  0  0  0
   62.2790   33.7200   47.4600 C   0  0  0  0  0  0  0  0  0  0  0  0
   63.7460   32.9530   47.1270 S   0  0  0  0  0  0  0  0  0  0  0  0
   64.3080   33.0950   48.7070 C   0  0  0  0  0  0  0  0  0  0  0  0
   65.2818   32.7462   49.0813 H   0  0  0  0  0  0  0  0  0  0  0  0
   63.3210   33.7330   49.4580 C   0  0  0  0  0  0  0  0  0  0  0  0
   63.4970   34.0770   50.9020 C   0  0  0  0  0  0  0  0  0  0  0  0
   63.0839   33.2695   51.5243 H   0  0  0  0  0  0  0  0  0  0  0  0
   64.5679   34.1982   51.1222 H   0  0  0  0  0  0  0  0  0  0  0  0
   62.9688   35.0164   51.1222 H   0  0  0  0  0  0  0  0  0  0  0  0
   62.2080   34.0850   48.7580 N   0  0  0  0  0  0  0  0  0  0  0  0
   61.3910   34.5850   49.1760 H   0  0  0  0  0  0  0  0  0  0  0  0
   58.3140   32.3870   46.1360 C   0  0  0  0  0  0  0  0  0  0  0  0
   58.6460   31.2780   47.0870 C   0  0  0  0  0  0  0  0  0  0  0  0
   58.5385   31.6372   48.1211 H   0  0  0  0  0  0  0  0  0  0  0  0
   57.9612   30.4337   46.9191 H   0  0  0  0  0  0  0  0  0  0  0  0
   59.6821   30.9488   46.9191 H   0  0  0  0  0  0  0  0  0  0  0  0
   57.3700   32.3480   45.1340 C   0  0  0  0  0  0  0  0  0  0  0  0
   56.5510   31.2570   44.8270 O   0  0  0  0  0  0  0  0  0  0  0  0
   56.9230   30.2490   43.8940 C   0  0  0  0  0  0  0  0  0  0  0  0
   56.0185   29.7882   43.4702 H   0  0  0  0  0  0  0  0  0  0  0  0
   57.5167   30.6968   43.0835 H   0  0  0  0  0  0  0  0  0  0  0  0
   57.7370   29.2030   44.5960 C   0  0  0  0  0  0  0  0  0  0  0  0
   57.1010   28.1590   45.2880 C   0  0  0  0  0  0  0  0  0  0  0  0
   56.0028   28.1264   45.3421 H   0  0  0  0  0  0  0  0  0  0  0  0
   57.8600   27.1600   45.9090 C   0  0  0  0  0  0  0  0  0  0  0  0
   57.3580   26.3508   46.4596 H   0  0  0  0  0  0  0  0  0  0  0  0
   59.2550   27.1900   45.8300 C   0  0  0  0  0  0  0  0  0  0  0  0
   59.8505   26.4057   46.3201 H   0  0  0  0  0  0  0  0  0  0  0  0
   59.8940   28.2170   45.1280 C   0  0  0  0  0  0  0  0  0  0  0  0
   60.9920   28.2385   45.0648 H   0  0  0  0  0  0  0  0  0  0  0  0
   59.1390   29.2170   44.5060 C   0  0  0  0  0  0  0  0  0  0  0  0
   59.6445   30.0167   43.9448 H   0  0  0  0  0  0  0  0  0  0  0  0
  1  2  1  0
  2  3  1  0
  3  4  1  0
  4  5  1  0
  5  6  2  0
  5  7  1  0
  7  8  2  0
  8  9  1  0
  9 10  1  0
 10 11  1  0
 10 12  2  0
 12 13  1  0
 13 14  1  0
 13 15  1  0
 13 16  1  0
 12 17  1  0
 17 18  1  0
  4 19  2  0
 19 20  1  0
 20 21  1  0
 20 22  1  0
 20 23  1  0
 19 24  1  0
 24 25  1  0
 25 26  1  0
 26 27  1  0
 26 28  1  0
 26 29  1  0
 29 30  2  0
 30 31  1  0
 30 32  1  0
 32 33  1  0
 32 34  2  0
 34 35  1  0
 34 36  1  0
 36 37  1  0
 36 38  2  0
 38 39  1  0
 24  2  2  0
 38 29  1  0
 17  8  1  0
M  END
>  <UniqueID>  (96) 
88

>  <SMILES>  (96) 
Cc1cs/c(=N\C(=O)c2occ(OCc3ccccc3)c2C)[nH]1

>  <Energy>  (96) 
97.29452350394678

>  <Genealogy>  (96) 
Cc1cs/c(=N\C(=O)c2occ(OCc3ccccc3)c2C)[nH]1 (cis-trans isomerization)
Cc1cs/c(=N\C(=O)c2occ(OCc3ccccc3)c2C)[nH]1 (3D coordinates assigned)
Cc1cs/c(=N\C(=O)c2occ(OCc3ccccc3)c2C)[nH]1 (optimized conformer: 97.29452350394678 kcal/mol)

>  <smiles>  (96) 
Cc1csc(=NC(=O)c2occ(OCc3ccccc3)c2C)[nH]1

>  <score_type>  (96) 
oracle

>  <origin>  (96) 
adg

>  <m_score__min__energy>  (96) 
-7.7999999999999998

>  <m_primary>  (96) 
energy

$$$$
96:0
     RDKit          3D

 61 64  0  0  0  0  0  0  0  0999 V2000
   60.8050   26.7340   47.3040 C   0  0  0  0  0  0  0  0  0  0  0  0
   59.4550   26.6930   46.6510 C   0  0  0  0  0  0  0  0  0  0  0  0
   58.5200   27.7170   46.6210 C   0  0  0  0  0  0  0  0  0  0  0  0
   58.7020   29.0670   47.0730 N   0  0  0  0  0  0  0  0  0  0  0  0
   59.9330   29.7860   46.9360 C   0  0  0  0  0  0  0  0  0  0  0  0
   60.8560   29.3370   46.2030 O   0  0  0  0  0  0  0  0  0  0  0  0
   60.0620   31.0660   47.5640 N   0  0  0  0  0  0  0  0  0  0  0  0
   61.1820   31.9590   47.4700 C   0  0  0  0  0  0  0  0  0  0  0  0
   62.4360   31.6330   48.0190 C   0  0  0  0  0  0  0  0  0  0  0  0
   63.5090   32.5220   47.9020 C   0  0  0  0  0  0  0  0  0  0  0  0
   63.3400   33.7420   47.2460 C   0  0  0  0  0  0  0  0  0  0  0  0
   62.0940   34.0860   46.7170 C   0  0  0  0  0  0  0  0  0  0  0  0
   61.0090   33.2050   46.8390 C   0  0  0  0  0  0  0  0  0  0  0  0
   59.7340   33.5680   46.2920 N   0  0  0  0  0  0  0  0  0  0  0  0
   59.6440   34.0330   44.9070 C   0  0  0  0  0  0  0  0  0  0  0  0
   58.1820   34.2620   44.5010 C   0  0  0  0  0  0  0  0  0  0  0  0
   57.2970   33.1540   44.9220 N   0  0  0  0  0  0  0  0  0  0  0  0
   57.4150   31.7670   43.8600 S   0  0  0  0  0  0  0  0  0  0  0  0
   56.0410   30.6580   44.0940 C   0  0  0  0  0  0  0  0  0  0  0  0
   57.4590   32.2070   42.4250 O   0  0  0  0  0  0  0  0  0  0  0  0
   58.6790   31.0170   44.1780 O   0  0  0  0  0  0  0  0  0  0  0  0
   57.4200   32.7550   46.3480 C   0  0  0  0  0  0  0  0  0  0  0  0
   58.5270   33.4950   47.1130 C   0  0  0  0  0  0  0  0  0  0  0  0
   57.4350   27.1860   45.9560 C   0  0  0  0  0  0  0  0  0  0  0  0
   56.3880   27.8070   45.6300 O   0  0  0  0  0  0  0  0  0  0  0  0
   57.6870   25.9010   45.6360 N   0  0  0  0  0  0  0  0  0  0  0  0
   56.8050   25.0270   44.9110 C   0  0  0  0  0  0  0  0  0  0  0  0
   55.5800   24.6290   45.4700 C   0  0  0  0  0  0  0  0  0  0  0  0
   54.7320   23.7670   44.7670 C   0  0  0  0  0  0  0  0  0  0  0  0
   55.1050   23.2900   43.5070 C   0  0  0  0  0  0  0  0  0  0  0  0
   56.3290   23.6720   42.9510 C   0  0  0  0  0  0  0  0  0  0  0  0
   57.1780   24.5340   43.6510 C   0  0  0  0  0  0  0  0  0  0  0  0
   58.9060   25.5930   46.0750 N   0  0  0  0  0  0  0  0  0  0  0  0
   59.5450   24.2800   45.9520 C   0  0  0  0  0  0  0  0  0  0  0  0
   60.6837   26.7303   48.3973 H   0  0  0  0  0  0  0  0  0  0  0  0
   61.3878   25.8531   46.9968 H   0  0  0  0  0  0  0  0  0  0  0  0
   61.3333   27.6486   46.9968 H   0  0  0  0  0  0  0  0  0  0  0  0
   57.8830   29.5810   47.4660 H   0  0  0  0  0  0  0  0  0  0  0  0
   62.5727   30.6751   48.5422 H   0  0  0  0  0  0  0  0  0  0  0  0
   64.4885   32.2591   48.3280 H   0  0  0  0  0  0  0  0  0  0  0  0
   64.1893   34.4338   47.1454 H   0  0  0  0  0  0  0  0  0  0  0  0
   61.9631   35.0499   46.2035 H   0  0  0  0  0  0  0  0  0  0  0  0
   60.1978   34.9782   44.8076 H   0  0  0  0  0  0  0  0  0  0  0  0
   60.0755   33.2643   44.2491 H   0  0  0  0  0  0  0  0  0  0  0  0
   57.8280   35.1931   44.9677 H   0  0  0  0  0  0  0  0  0  0  0  0
   58.1452   34.3205   43.4032 H   0  0  0  0  0  0  0  0  0  0  0  0
   55.8642   30.5153   45.1703 H   0  0  0  0  0  0  0  0  0  0  0  0
   55.1410   31.0858   43.6281 H   0  0  0  0  0  0  0  0  0  0  0  0
   56.2692   29.6880   43.6281 H   0  0  0  0  0  0  0  0  0  0  0  0
   56.4608   32.9570   46.8472 H   0  0  0  0  0  0  0  0  0  0  0  0
   57.6872   31.6880   46.3569 H   0  0  0  0  0  0  0  0  0  0  0  0
   58.1868   34.5131   47.3531 H   0  0  0  0  0  0  0  0  0  0  0  0
   58.7525   32.9503   48.0417 H   0  0  0  0  0  0  0  0  0  0  0  0
   55.2862   24.9964   46.4643 H   0  0  0  0  0  0  0  0  0  0  0  0
   53.7701   23.4640   45.2063 H   0  0  0  0  0  0  0  0  0  0  0  0
   54.4358   22.6147   42.9537 H   0  0  0  0  0  0  0  0  0  0  0  0
   56.6246   23.2938   41.9613 H   0  0  0  0  0  0  0  0  0  0  0  0
   58.1431   24.8274   43.2122 H   0  0  0  0  0  0  0  0  0  0  0  0
   59.7430   23.8732   46.9547 H   0  0  0  0  0  0  0  0  0  0  0  0
   58.8783   23.5976   45.4045 H   0  0  0  0  0  0  0  0  0  0  0  0
   60.4934   24.3836   45.4045 H   0  0  0  0  0  0  0  0  0  0  0  0
  1  2  1  0
  2  3  2  0
  3  4  1  0
  4  5  1  0
  5  6  2  0
  5  7  1  0
  7  8  1  0
  8  9  2  0
  9 10  1  0
 10 11  2  0
 11 12  1  0
 12 13  2  0
 13 14  1  0
 14 15  1  0
 15 16  1  0
 16 17  1  0
 17 18  1  0
 18 19  1  0
 18 20  2  0
 18 21  2  0
 17 22  1  0
 22 23  1  0
  3 24  1  0
 24 25  2  0
 24 26  1  0
 26 27  1  0
 27 28  2  0
 28 29  1  0
 29 30  2  0
 30 31  1  0
 31 32  2  0
 26 33  1  0
 33 34  1  0
 33  2  1  0
 13  8  1  0
 23 14  1  0
 32 27  1  0
  1 35  1  0
  1 36  1  0
  1 37  1  0
  4 38  1  0
  9 39  1  0
 10 40  1  0
 11 41  1  0
 12 42  1  0
 15 43  1  0
 15 44  1  0
 16 45  1  0
 16 46  1  0
 19 47  1  0
 19 48  1  0
 19 49  1  0
 22 50  1  0
 22 51  1  0
 23 52  1  0
 23 53  1  0
 28 54  1  0
 29 55  1  0
 30 56  1  0
 31 57  1  0
 32 58  1  0
 34 59  1  0
 34 60  1  0
 34 61  1  0
M  CHG  1   7  -1
M  END
>  <UniqueID>  (97) 
89

>  <SMILES>  (97) 
Cc1c(NC(=O)[N-]c2ccccc2N2CCN(S(C)(=O)=O)CC2)c(=O)n(-c2ccccc2)n1C

>  <Energy>  (97) 
117.41319026143421

>  <Genealogy>  (97) 
Cc1c(NC(=O)[N-]c2ccccc2N2CCN(S(C)(=O)=O)CC2)c(=O)n(-c2ccccc2)n1C (protonated)
Cc1c(NC(=O)[N-]c2ccccc2N2CCN(S(C)(=O)=O)CC2)c(=O)n(-c2ccccc2)n1C (3D coordinates assigned)
Cc1c(NC(=O)[N-]c2ccccc2N2CCN(S(C)(=O)=O)CC2)c(=O)n(-c2ccccc2)n1C (nonaromatic ring conformer: 117.41319026143421 kcal/mol)

>  <smiles>  (97) 
Cc1c(NC(=O)Nc2ccccc2N2CCN(S(C)(=O)=O)CC2)c(=O)n(-c2ccccc2)n1C

>  <score_type>  (97) 
oracle

>  <origin>  (97) 
adg

>  <m_score__min__energy>  (97) 
-10.710000000000001

>  <m_primary>  (97) 
energy

$$$$
