0:0
     RDKit          3D

 29 30  0  0  0  0  0  0  0  0999 V2000
   55.1340   27.3310   45.9980 H   0  0  0  0  0  0  0  0  0  0  0  0
   54.7860   26.3470   45.9720 N   0  0  0  0  0  0  0  0  0  0  0  0
   56.1710   25.3180   46.0870 S   0  0  0  0  0  0  0  0  0  0  0  0
   56.3280   24.5020   44.8360 O   0  0  0  0  0  0  0  0  0  0  0  0
   55.9250   24.3620   47.2210 O   0  0  0  0  0  0  0  0  0  0  0  0
   57.6290   26.2870   46.4180 C   0  0  0  0  0  0  0  0  0  0  0  0
   58.6850   25.6060   47.0600 C   0  0  0  0  0  0  0  0  0  0  0  0
   58.6252   24.5150   47.1872 H   0  0  0  0  0  0  0  0  0  0  0  0
   59.7720   26.2710   47.5230 N   0  0  0  0  0  0  0  0  0  0  0  0
   59.8930   27.6130   47.3950 C   0  0  0  0  0  0  0  0  0  0  0  0
   60.7786   28.1263   47.7978 H   0  0  0  0  0  0  0  0  0  0  0  0
   58.8990   28.3420   46.7550 C   0  0  0  0  0  0  0  0  0  0  0  0
   58.9998   29.4335   46.6630 H   0  0  0  0  0  0  0  0  0  0  0  0
   57.7670   27.7030   46.2240 C   0  0  0  0  0  0  0  0  0  0  0  0
   56.9570   28.4790   45.5520 N   0  0  0  0  0  0  0  0  0  0  0  0
   56.9550   28.9530   44.1750 C   0  0  0  0  0  0  0  0  0  0  0  0
   57.6517   28.3497   43.5745 H   0  0  0  0  0  0  0  0  0  0  0  0
   55.9454   28.8621   43.7479 H   0  0  0  0  0  0  0  0  0  0  0  0
   57.3900   30.3910   44.1620 C   0  0  0  0  0  0  0  0  0  0  0  0
   57.7580   31.0380   45.3500 C   0  0  0  0  0  0  0  0  0  0  0  0
   57.7591   30.4837   46.3001 H   0  0  0  0  0  0  0  0  0  0  0  0
   58.1230   32.3850   45.3280 C   0  0  0  0  0  0  0  0  0  0  0  0
   58.4219   32.8947   46.2558 H   0  0  0  0  0  0  0  0  0  0  0  0
   58.1050   33.0790   44.1170 C   0  0  0  0  0  0  0  0  0  0  0  0
   58.3946   34.1398   44.0878 H   0  0  0  0  0  0  0  0  0  0  0  0
   57.7300   32.4460   42.9730 N   0  0  0  0  0  0  0  0  0  0  0  0
   57.7140   32.9810   42.0750 H   0  0  0  0  0  0  0  0  0  0  0  0
   57.3700   31.1330   42.9700 C   0  0  0  0  0  0  0  0  0  0  0  0
   57.0622   30.6515   42.0301 H   0  0  0  0  0  0  0  0  0  0  0  0
  1  2  1  0
  2  3  1  0
  3  4  2  0
  3  5  2  0
  3  6  1  0
  6  7  2  0
  7  8  1  0
  7  9  1  0
  9 10  1  0
 10 11  1  0
 10 12  2  0
 12 13  1  0
 12 14  1  0
 14 15  2  0
 15 16  1  0
 16 17  1  0
 16 18  1  0
 16 19  1  0
 19 20  2  0
 20 21  1  0
 20 22  1  0
 22 23  1  0
 22 24  2  0
 24 25  1  0
 24 26  1  0
 26 27  1  0
 26 28  2  0
 28 29  1  0
 14  6  1  0
 28 19  1  0
M  CHG  3   2  -1   9  -1  26   1
M  END
>  <UniqueID>  (1) 
1

>  <SMILES>  (1) 
[NH-]S(=O)(=O)c1c[n-]cc/c1=N/Cc1ccc[nH+]c1

>  <Energy>  (1) 
45.52005269028622

>  <Genealogy>  (1) 
[NH-]S(=O)(=O)c1c[n-]ccc1=NCc1ccc[nH+]c1 (protonated)
[NH-]S(=O)(=O)c1c[n-]cc/c1=N/Cc1ccc[nH+]c1 (cis-trans isomerization)
[NH-]S(=O)(=O)c1c[n-]cc/c1=N/Cc1ccc[nH+]c1 (3D coordinates assigned)
[NH-]S(=O)(=O)c1c[n-]cc/c1=N/Cc1ccc[nH+]c1 (optimized conformer: 45.52005269028622 kcal/mol)

>  <smiles>  (1) 
NS(=O)(=O)c1c[nH]ccc1=NCc1cccnc1

>  <score_type>  (1) 
oracle

>  <origin>  (1) 
adg

>  <m_score__min__energy>  (1) 
-9.2400000000000002

>  <m_primary>  (1) 
energy

$$$$
1:0
     RDKit          3D

 31 32  0  0  0  0  0  0  0  0999 V2000
   55.5920   25.0380   46.1910 C   0  0  0  0  0  0  0  0  0  0  0  0
   56.5870   26.1420   45.9880 C   0  0  0  0  0  0  0  0  0  0  0  0
   57.9430   25.9150   46.2340 C   0  0  0  0  0  0  0  0  0  0  0  0
   58.8720   26.9530   46.0710 C   0  0  0  0  0  0  0  0  0  0  0  0
   60.3280   26.6460   46.3010 C   0  0  0  0  0  0  0  0  0  0  0  0
   58.4120   28.2460   45.7150 C   0  0  0  0  0  0  0  0  0  0  0  0
   59.5170   29.6380   45.5480 S   0  0  0  0  0  0  0  0  0  0  0  0
   60.0540   29.6350   44.1450 O   0  0  0  0  0  0  0  0  0  0  0  0
   60.6830   29.5360   46.4890 O   0  0  0  0  0  0  0  0  0  0  0  0
   58.6710   31.1540   45.9590 C   0  0  0  0  0  0  0  0  0  0  0  0
   58.5760   31.5380   47.3200 C   0  0  0  0  0  0  0  0  0  0  0  0
   59.2480   30.5590   48.6230 Cl  0  0  0  0  0  0  0  0  0  0  0  0
   57.9230   32.7220   47.6760 C   0  0  0  0  0  0  0  0  0  0  0  0
   57.3530   33.5340   46.7000 C   0  0  0  0  0  0  0  0  0  0  0  0
   57.4250   33.1670   45.3590 C   0  0  0  0  0  0  0  0  0  0  0  0
   58.0730   31.9870   44.9760 C   0  0  0  0  0  0  0  0  0  0  0  0
   58.0670   31.6110   43.2570 Cl  0  0  0  0  0  0  0  0  0  0  0  0
   57.0340   28.4180   45.4570 C   0  0  0  0  0  0  0  0  0  0  0  0
   56.5910   29.5330   45.0730 O   0  0  0  0  0  0  0  0  0  0  0  0
   56.1670   27.3810   45.6130 N   0  0  0  0  0  0  0  0  0  0  0  0
   55.4427   24.8724   47.2682 H   0  0  0  0  0  0  0  0  0  0  0  0
   54.6346   25.3173   45.7268 H   0  0  0  0  0  0  0  0  0  0  0  0
   55.9690   24.1147   45.7268 H   0  0  0  0  0  0  0  0  0  0  0  0
   58.2831   24.9198   46.5563 H   0  0  0  0  0  0  0  0  0  0  0  0
   60.5276   26.6039   47.3819 H   0  0  0  0  0  0  0  0  0  0  0  0
   60.5748   25.6761   45.8445 H   0  0  0  0  0  0  0  0  0  0  0  0
   60.9454   27.4337   45.8445 H   0  0  0  0  0  0  0  0  0  0  0  0
   57.8594   33.0137   48.7347 H   0  0  0  0  0  0  0  0  0  0  0  0
   56.8453   34.4663   46.9883 H   0  0  0  0  0  0  0  0  0  0  0  0
   56.9681   33.8107   44.5929 H   0  0  0  0  0  0  0  0  0  0  0  0
   55.1490   27.5450   45.4330 H   0  0  0  0  0  0  0  0  0  0  0  0
  1  2  1  0
  2  3  2  0
  3  4  1  0
  4  5  1  0
  4  6  2  0
  6  7  1  0
  7  8  2  0
  7  9  2  0
  7 10  1  0
 10 11  2  0
 11 12  1  0
 11 13  1  0
 13 14  2  0
 14 15  1  0
 15 16  2  0
 16 17  1  0
  6 18  1  0
 18 19  2  0
 18 20  1  0
 20  2  1  0
 16 10  1  0
  1 21  1  0
  1 22  1  0
  1 23  1  0
  3 24  1  0
  5 25  1  0
  5 26  1  0
  5 27  1  0
 13 28  1  0
 14 29  1  0
 15 30  1  0
 20 31  1  0
M  END
>  <UniqueID>  (2) 
2

>  <SMILES>  (2) 
Cc1cc(C)c(S(=O)(=O)c2c(Cl)cccc2Cl)c(=O)[nH]1

>  <Energy>  (2) 
43.11090713033395

>  <Genealogy>  (2) 
Cc1cc(C)c(S(=O)(=O)c2c(Cl)cccc2Cl)c(=O)[nH]1 (3D coordinates assigned)
Cc1cc(C)c(S(=O)(=O)c2c(Cl)cccc2Cl)c(=O)[nH]1 (optimized conformer: 43.11090713033395 kcal/mol)

>  <smiles>  (2) 
Cc1cc(C)c(S(=O)(=O)c2c(Cl)cccc2Cl)c(=O)[nH]1

>  <score_type>  (2) 
oracle

>  <origin>  (2) 
adg

>  <m_score__min__energy>  (2) 
-7.3799999999999999

>  <m_primary>  (2) 
energy

$$$$
2:0
     RDKit          3D

 50 51  0  0  0  0  0  0  0  0999 V2000
   57.4370   32.3510   41.1050 C   0  0  0  0  0  0  0  0  0  0  0  0
   56.6790   31.3260   41.7430 O   0  0  0  0  0  0  0  0  0  0  0  0
   57.0350   30.7090   42.9530 C   0  0  0  0  0  0  0  0  0  0  0  0
   58.1890   31.1520   43.6060 C   0  0  0  0  0  0  0  0  0  0  0  0
   58.5840   30.5780   44.8150 C   0  0  0  0  0  0  0  0  0  0  0  0
   57.8250   29.5530   45.4020 C   0  0  0  0  0  0  0  0  0  0  0  0
   58.2900   28.9420   46.7040 C   0  0  0  0  0  0  0  0  0  0  0  0
   59.6750   29.4590   47.1130 C   0  0  0  0  0  0  0  0  0  0  0  0
   59.5780   30.5010   48.1370 N   0  0  0  0  0  0  0  0  0  0  0  0
   60.7240   31.1940   48.6510 C   0  0  0  0  0  0  0  0  0  0  0  0
   61.8740   30.9240   48.2080 O   0  0  0  0  0  0  0  0  0  0  0  0
   60.5310   32.2850   49.6710 C   0  0  0  0  0  0  0  0  0  0  0  0
   60.9710   33.6770   49.1860 C   0  0  0  0  0  0  0  0  0  0  0  0
   59.7760   34.6000   48.9070 C   0  0  0  0  0  0  0  0  0  0  0  0
   59.2870   34.3980   47.5430 N   0  0  0  0  0  0  0  0  0  0  0  0
   59.6370   35.2390   46.4120 C   0  0  0  0  0  0  0  0  0  0  0  0
   58.9140   34.6320   45.1920 C   0  0  0  0  0  0  0  0  0  0  0  0
   57.9680   33.5400   45.7160 C   0  0  0  0  0  0  0  0  0  0  0  0
   58.3150   33.4480   47.1500 C   0  0  0  0  0  0  0  0  0  0  0  0
   57.7910   32.6260   47.9470 O   0  0  0  0  0  0  0  0  0  0  0  0
   56.6630   29.0850   44.7500 C   0  0  0  0  0  0  0  0  0  0  0  0
   55.9200   28.0480   45.3390 O   0  0  0  0  0  0  0  0  0  0  0  0
   56.4250   26.7460   45.6230 C   0  0  0  0  0  0  0  0  0  0  0  0
   56.2750   29.6710   43.5260 C   0  0  0  0  0  0  0  0  0  0  0  0
   57.9079   32.9878   41.8683 H   0  0  0  0  0  0  0  0  0  0  0  0
   58.2161   31.8940   40.4772 H   0  0  0  0  0  0  0  0  0  0  0  0
   56.7718   32.9621   40.4772 H   0  0  0  0  0  0  0  0  0  0  0  0
   58.7905   31.9596   43.1632 H   0  0  0  0  0  0  0  0  0  0  0  0
   59.4988   30.9319   45.3129 H   0  0  0  0  0  0  0  0  0  0  0  0
   57.5678   29.1952   47.4941 H   0  0  0  0  0  0  0  0  0  0  0  0
   58.3587   27.8529   46.5654 H   0  0  0  0  0  0  0  0  0  0  0  0
   60.2662   28.6210   47.5107 H   0  0  0  0  0  0  0  0  0  0  0  0
   60.1579   29.8921   46.2246 H   0  0  0  0  0  0  0  0  0  0  0  0
   58.6380   30.7060   48.5460 H   0  0  0  0  0  0  0  0  0  0  0  0
   59.4633   32.3306   49.9315 H   0  0  0  0  0  0  0  0  0  0  0  0
   61.1657   32.0320   50.5330 H   0  0  0  0  0  0  0  0  0  0  0  0
   61.6017   34.1386   49.9601 H   0  0  0  0  0  0  0  0  0  0  0  0
   61.5235   33.5466   48.2438 H   0  0  0  0  0  0  0  0  0  0  0  0
   58.9687   34.3741   49.6192 H   0  0  0  0  0  0  0  0  0  0  0  0
   60.0970   35.6459   49.0212 H   0  0  0  0  0  0  0  0  0  0  0  0
   59.2972   36.2711   46.5833 H   0  0  0  0  0  0  0  0  0  0  0  0
   60.7256   35.2757   46.2584 H   0  0  0  0  0  0  0  0  0  0  0  0
   58.3377   35.4105   44.6706 H   0  0  0  0  0  0  0  0  0  0  0  0
   59.6392   34.2097   44.4808 H   0  0  0  0  0  0  0  0  0  0  0  0
   56.9161   33.8331   45.5832 H   0  0  0  0  0  0  0  0  0  0  0  0
   58.0788   32.5834   45.1843 H   0  0  0  0  0  0  0  0  0  0  0  0
   56.4802   26.6037   46.7124 H   0  0  0  0  0  0  0  0  0  0  0  0
   55.7549   25.9899   45.1879 H   0  0  0  0  0  0  0  0  0  0  0  0
   57.4297   26.6394   45.1879 H   0  0  0  0  0  0  0  0  0  0  0  0
   55.3694   29.3132   43.0142 H   0  0  0  0  0  0  0  0  0  0  0  0
  1  2  1  0
  2  3  1  0
  3  4  2  0
  4  5  1  0
  5  6  2  0
  6  7  1  0
  7  8  1  0
  8  9  1  0
  9 10  1  0
 10 11  2  0
 10 12  1  0
 12 13  1  0
 13 14  1  0
 14 15  1  0
 15 16  1  0
 16 17  1  0
 17 18  1  0
 18 19  1  0
 19 20  2  0
  6 21  1  0
 21 22  1  0
 22 23  1  0
 21 24  2  0
 24  3  1  0
 19 15  1  0
  1 25  1  0
  1 26  1  0
  1 27  1  0
  4 28  1  0
  5 29  1  0
  7 30  1  0
  7 31  1  0
  8 32  1  0
  8 33  1  0
  9 34  1  0
 12 35  1  0
 12 36  1  0
 13 37  1  0
 13 38  1  0
 14 39  1  0
 14 40  1  0
 16 41  1  0
 16 42  1  0
 17 43  1  0
 17 44  1  0
 18 45  1  0
 18 46  1  0
 23 47  1  0
 23 48  1  0
 23 49  1  0
 24 50  1  0
M  END
>  <UniqueID>  (3) 
3

>  <SMILES>  (3) 
COc1ccc(CCNC(=O)CCCN2CCCC2=O)c(OC)c1

>  <Energy>  (3) 
42.66213670308768

>  <Genealogy>  (3) 
COc1ccc(CCNC(=O)CCCN2CCCC2=O)c(OC)c1 (3D coordinates assigned)
COc1ccc(CCNC(=O)CCCN2CCCC2=O)c(OC)c1 (nonaromatic ring conformer: 42.66213670308768 kcal/mol)

>  <smiles>  (3) 
COc1ccc(CCNC(=O)CCCN2CCCC2=O)c(OC)c1

>  <score_type>  (3) 
oracle

>  <origin>  (3) 
adg

>  <m_score__min__energy>  (3) 
-6.7599999999999998

>  <m_primary>  (3) 
energy

$$$$
3:0
     RDKit          3D

 31 33  0  0  0  0  0  0  0  0999 V2000
   54.7780   26.7160   46.0000 O   0  0  0  0  0  0  0  0  0  0  0  0
   56.1560   26.5420   46.0550 C   0  0  0  0  0  0  0  0  0  0  0  0
   56.6860   25.3790   46.6240 C   0  0  0  0  0  0  0  0  0  0  0  0
   58.0710   25.1910   46.6850 C   0  0  0  0  0  0  0  0  0  0  0  0
   58.9360   26.1660   46.1770 C   0  0  0  0  0  0  0  0  0  0  0  0
   58.4150   27.3350   45.6040 C   0  0  0  0  0  0  0  0  0  0  0  0
   59.2560   28.3280   45.0870 C   0  0  0  0  0  0  0  0  0  0  0  0
   58.7060   29.4800   44.5210 C   0  0  0  0  0  0  0  0  0  0  0  0
   57.3140   29.6310   44.4740 C   0  0  0  0  0  0  0  0  0  0  0  0
   56.7000   30.8570   43.8650 C   0  0  0  0  0  0  0  0  0  0  0  0
   56.4460   31.8440   44.8650 O   0  0  0  0  0  0  0  0  0  0  0  0
   57.3870   32.7620   45.3600 C   0  0  0  0  0  0  0  0  0  0  0  0
   57.9740   33.6590   44.4580 C   0  0  0  0  0  0  0  0  0  0  0  0
   58.9130   34.5960   44.8980 C   0  0  0  0  0  0  0  0  0  0  0  0
   59.2750   34.6430   46.2470 C   0  0  0  0  0  0  0  0  0  0  0  0
   58.7000   33.7510   47.1550 C   0  0  0  0  0  0  0  0  0  0  0  0
   57.7600   32.8120   46.7190 C   0  0  0  0  0  0  0  0  0  0  0  0
   56.5100   28.6580   44.9860 N   0  0  0  0  0  0  0  0  0  0  0  0
   57.0160   27.5240   45.5430 C   0  0  0  0  0  0  0  0  0  0  0  0
   56.0107   24.6089   47.0252 H   0  0  0  0  0  0  0  0  0  0  0  0
   58.4809   24.2741   47.1336 H   0  0  0  0  0  0  0  0  0  0  0  0
   60.0245   26.0157   46.2270 H   0  0  0  0  0  0  0  0  0  0  0  0
   60.3479   28.2009   45.1266 H   0  0  0  0  0  0  0  0  0  0  0  0
   59.3617   30.2641   44.1145 H   0  0  0  0  0  0  0  0  0  0  0  0
   57.3897   31.2718   43.1151 H   0  0  0  0  0  0  0  0  0  0  0  0
   55.7463   30.5779   43.3932 H   0  0  0  0  0  0  0  0  0  0  0  0
   57.6936   33.6255   43.3949 H   0  0  0  0  0  0  0  0  0  0  0  0
   59.3673   35.2968   44.1822 H   0  0  0  0  0  0  0  0  0  0  0  0
   60.0124   35.3821   46.5935 H   0  0  0  0  0  0  0  0  0  0  0  0
   58.9874   33.7872   48.2162 H   0  0  0  0  0  0  0  0  0  0  0  0
   57.3106   32.1109   47.4376 H   0  0  0  0  0  0  0  0  0  0  0  0
  1  2  1  0
  2  3  2  0
  3  4  1  0
  4  5  2  0
  5  6  1  0
  6  7  2  0
  7  8  1  0
  8  9  2  0
  9 10  1  0
 10 11  1  0
 11 12  1  0
 12 13  2  0
 13 14  1  0
 14 15  2  0
 15 16  1  0
 16 17  2  0
  9 18  1  0
 18 19  2  0
 19  2  1  0
 19  6  1  0
 17 12  1  0
  3 20  1  0
  4 21  1  0
  5 22  1  0
  7 23  1  0
  8 24  1  0
 10 25  1  0
 10 26  1  0
 13 27  1  0
 14 28  1  0
 15 29  1  0
 16 30  1  0
 17 31  1  0
M  CHG  1   1  -1
M  END
>  <UniqueID>  (4) 
4

>  <SMILES>  (4) 
[O-]c1cccc2ccc(COc3ccccc3)nc12

>  <Energy>  (4) 
36.544512888610164

>  <Genealogy>  (4) 
[O-]c1cccc2ccc(COc3ccccc3)nc12 (protonated)
[O-]c1cccc2ccc(COc3ccccc3)nc12 (3D coordinates assigned)
[O-]c1cccc2ccc(COc3ccccc3)nc12 (optimized conformer: 36.544512888610164 kcal/mol)

>  <smiles>  (4) 
Oc1cccc2ccc(COc3ccccc3)nc12

>  <score_type>  (4) 
oracle

>  <origin>  (4) 
adg

>  <m_score__min__energy>  (4) 
-12.109999999999999

>  <m_primary>  (4) 
energy

$$$$
4:0
     RDKit          3D

 31 33  0  0  0  0  0  0  0  0999 V2000
   55.8681   22.3375   41.9207 H   0  0  0  0  0  0  0  0  0  0  0  0
   56.4050   22.2640   42.8780 C   0  0  0  0  0  0  0  0  0  0  0  0
   56.2550   23.2280   43.8230 N   0  0  0  0  0  0  0  0  0  0  0  0
   56.9070   23.1760   45.0150 C   0  0  0  0  0  0  0  0  0  0  0  0
   56.7040   24.1380   45.8710 N   0  0  0  0  0  0  0  0  0  0  0  0
   56.4490   25.5320   45.6290 C   0  0  0  0  0  0  0  0  0  0  0  0
   55.5260   26.1430   46.2310 O   0  0  0  0  0  0  0  0  0  0  0  0
   57.3930   26.3010   44.7610 C   0  0  0  0  0  0  0  0  0  0  0  0
   58.2219   25.6460   44.4545 H   0  0  0  0  0  0  0  0  0  0  0  0
   56.8544   26.6615   43.8722 H   0  0  0  0  0  0  0  0  0  0  0  0
   57.9270   27.4460   45.4960 N   0  0  0  0  0  0  0  0  0  0  0  0
   58.5880   27.3930   46.6790 C   0  0  0  0  0  0  0  0  0  0  0  0
   58.8477   26.4653   47.2099 H   0  0  0  0  0  0  0  0  0  0  0  0
   58.8920   28.6730   47.1280 C   0  0  0  0  0  0  0  0  0  0  0  0
   59.4280   28.9477   48.0484 H   0  0  0  0  0  0  0  0  0  0  0  0
   58.3780   29.5250   46.1730 C   0  0  0  0  0  0  0  0  0  0  0  0
   58.3760   30.9170   46.1140 C   0  0  0  0  0  0  0  0  0  0  0  0
   58.8492   31.5195   46.9033 H   0  0  0  0  0  0  0  0  0  0  0  0
   57.7490   31.5270   45.0120 C   0  0  0  0  0  0  0  0  0  0  0  0
   57.7120   33.4310   44.8750 Br  0  0  0  0  0  0  0  0  0  0  0  0
   57.1450   30.7370   44.0080 C   0  0  0  0  0  0  0  0  0  0  0  0
   56.6581   31.2240   43.1502 H   0  0  0  0  0  0  0  0  0  0  0  0
   57.1610   29.3330   44.0960 C   0  0  0  0  0  0  0  0  0  0  0  0
   56.6900   28.7101   43.3213 H   0  0  0  0  0  0  0  0  0  0  0  0
   57.7950   28.7550   45.2000 C   0  0  0  0  0  0  0  0  0  0  0  0
   57.7410   22.0660   45.2740 C   0  0  0  0  0  0  0  0  0  0  0  0
   58.2666   21.9809   46.2366 H   0  0  0  0  0  0  0  0  0  0  0  0
   57.8900   21.1020   44.3240 N   0  0  0  0  0  0  0  0  0  0  0  0
   58.5060   20.2810   44.5180 H   0  0  0  0  0  0  0  0  0  0  0  0
   57.2440   21.1820   43.1310 C   0  0  0  0  0  0  0  0  0  0  0  0
   57.3828   20.3984   42.3716 H   0  0  0  0  0  0  0  0  0  0  0  0
  1  2  1  0
  2  3  1  0
  3  4  1  0
  4  5  2  0
  5  6  1  0
  6  7  2  0
  6  8  1  0
  8  9  1  0
  8 10  1  0
  8 11  1  0
 11 12  1  0
 12 13  1  0
 12 14  2  0
 14 15  1  0
 14 16  1  0
 16 17  2  0
 17 18  1  0
 17 19  1  0
 19 20  1  0
 19 21  2  0
 21 22  1  0
 21 23  1  0
 23 24  1  0
 23 25  2  0
  4 26  1  0
 26 27  1  0
 26 28  2  0
 28 29  1  0
 28 30  1  0
 30 31  1  0
 30  2  2  0
 25 11  1  0
 25 16  1  0
M  CHG  2   3  -1  28   1
M  END
>  <UniqueID>  (5) 
5

>  <SMILES>  (5) 
O=C(Cn1ccc2cc(Br)ccc21)/N=c1\c[nH+]cc[n-]1

>  <Energy>  (5) 
73.21273422813792

>  <Genealogy>  (5) 
O=C(Cn1ccc2cc(Br)ccc21)N=c1c[nH+]cc[n-]1 (protonated)
O=C(Cn1ccc2cc(Br)ccc21)/N=c1\c[nH+]cc[n-]1 (cis-trans isomerization)
O=C(Cn1ccc2cc(Br)ccc21)/N=c1\c[nH+]cc[n-]1 (3D coordinates assigned)
O=C(Cn1ccc2cc(Br)ccc21)/N=c1\c[nH+]cc[n-]1 (optimized conformer: 73.21273422813792 kcal/mol)

>  <smiles>  (5) 
O=C(Cn1ccc2cc(Br)ccc21)N=c1cncc[nH]1

>  <score_type>  (5) 
oracle

>  <origin>  (5) 
adg

>  <m_score__min__energy>  (5) 
-7.9199999999999999

>  <m_primary>  (5) 
energy

$$$$
5:0
     RDKit          3D

 52 56  0  0  0  0  0  0  0  0999 V2000
   55.9533   31.9609   53.7307 H   0  0  0  0  0  0  0  0  0  0  0  0
   56.6660   31.6540   52.9510 C   0  0  0  0  0  0  0  0  0  0  0  0
   56.8570   30.2970   52.6750 C   0  0  0  0  0  0  0  0  0  0  0  0
   56.3000   29.5367   53.2422 H   0  0  0  0  0  0  0  0  0  0  0  0
   57.7560   29.9060   51.6780 C   0  0  0  0  0  0  0  0  0  0  0  0
   57.9102   28.8374   51.4676 H   0  0  0  0  0  0  0  0  0  0  0  0
   58.4630   30.8730   50.9440 C   0  0  0  0  0  0  0  0  0  0  0  0
   59.3870   30.4790   49.8640 C   0  0  0  0  0  0  0  0  0  0  0  0
   59.0130   29.7060   48.8250 N   0  0  0  0  0  0  0  0  0  0  0  0
   60.0800   29.5130   48.0660 N   0  0  0  0  0  0  0  0  0  0  0  0
   60.0620   28.7710   46.8120 C   0  0  0  0  0  0  0  0  0  0  0  0
   59.8607   27.7095   47.0186 H   0  0  0  0  0  0  0  0  0  0  0  0
   61.0382   28.8731   46.3154 H   0  0  0  0  0  0  0  0  0  0  0  0
   58.9880   29.3170   45.9130 C   0  0  0  0  0  0  0  0  0  0  0  0
   59.2000   30.5100   45.2020 C   0  0  0  0  0  0  0  0  0  0  0  0
   60.1675   31.0281   45.2761 H   0  0  0  0  0  0  0  0  0  0  0  0
   58.1840   31.0410   44.4000 C   0  0  0  0  0  0  0  0  0  0  0  0
   58.3576   31.9700   43.8371 H   0  0  0  0  0  0  0  0  0  0  0  0
   56.9490   30.3930   44.3130 C   0  0  0  0  0  0  0  0  0  0  0  0
   56.1520   30.8110   43.6805 H   0  0  0  0  0  0  0  0  0  0  0  0
   56.7260   29.2130   45.0300 C   0  0  0  0  0  0  0  0  0  0  0  0
   55.5240   28.5910   44.9520 F   0  0  0  0  0  0  0  0  0  0  0  0
   57.7390   28.6790   45.8330 C   0  0  0  0  0  0  0  0  0  0  0  0
   57.5571   27.7564   46.4038 H   0  0  0  0  0  0  0  0  0  0  0  0
   61.1430   30.1530   48.5880 C   0  0  0  0  0  0  0  0  0  0  0  0
   62.1539   30.1823   48.1553 H   0  0  0  0  0  0  0  0  0  0  0  0
   60.7470   30.7660   49.7590 C   0  0  0  0  0  0  0  0  0  0  0  0
   61.6490   31.5180   50.7020 C   0  0  0  0  0  0  0  0  0  0  0  0
   61.0401   31.9271   51.5217 H   0  0  0  0  0  0  0  0  0  0  0  0
   62.4064   30.8125   51.0743 H   0  0  0  0  0  0  0  0  0  0  0  0
   62.3530   32.6210   50.0440 N   0  0  0  0  0  0  0  0  0  0  0  0
   62.3190   33.1210   48.8330 C   0  0  0  0  0  0  0  0  0  0  0  0
   63.5640   33.2500   48.2050 C   0  0  0  0  0  0  0  0  0  0  0  0
   64.4849   33.1505   48.7984 H   0  0  0  0  0  0  0  0  0  0  0  0
   63.6500   33.5020   46.8420 C   0  0  0  0  0  0  0  0  0  0  0  0
   64.6361   33.5884   46.3623 H   0  0  0  0  0  0  0  0  0  0  0  0
   62.5240   33.6420   46.1000 N   0  0  0  0  0  0  0  0  0  0  0  0
   62.6300   33.8030   45.0710 H   0  0  0  0  0  0  0  0  0  0  0  0
   61.2860   33.6140   46.6670 C   0  0  0  0  0  0  0  0  0  0  0  0
   60.1550   33.8190   45.8610 C   0  0  0  0  0  0  0  0  0  0  0  0
   60.2730   33.9323   44.7732 H   0  0  0  0  0  0  0  0  0  0  0  0
   58.8840   33.8800   46.4290 C   0  0  0  0  0  0  0  0  0  0  0  0
   57.4780   34.1420   45.4140 Cl  0  0  0  0  0  0  0  0  0  0  0  0
   58.7370   33.7810   47.8110 C   0  0  0  0  0  0  0  0  0  0  0  0
   57.7376   33.8662   48.2627 H   0  0  0  0  0  0  0  0  0  0  0  0
   59.8530   33.5740   48.6260 C   0  0  0  0  0  0  0  0  0  0  0  0
   59.7262   33.5398   49.7181 H   0  0  0  0  0  0  0  0  0  0  0  0
   61.1410   33.4080   48.0710 C   0  0  0  0  0  0  0  0  0  0  0  0
   58.2810   32.2330   51.2420 C   0  0  0  0  0  0  0  0  0  0  0  0
   58.8498   32.9959   50.6902 H   0  0  0  0  0  0  0  0  0  0  0  0
   57.3790   32.6210   52.2380 C   0  0  0  0  0  0  0  0  0  0  0  0
   57.2309   33.6881   52.4601 H   0  0  0  0  0  0  0  0  0  0  0  0
  1  2  1  0
  2  3  2  0
  3  4  1  0
  3  5  1  0
  5  6  1  0
  5  7  2  0
  7  8  1  0
  8  9  2  0
  9 10  1  0
 10 11  1  0
 11 12  1  0
 11 13  1  0
 11 14  1  0
 14 15  2  0
 15 16  1  0
 15 17  1  0
 17 18  1  0
 17 19  2  0
 19 20  1  0
 19 21  1  0
 21 22  1  0
 21 23  2  0
 23 24  1  0
 10 25  1  0
 25 26  1  0
 25 27  2  0
 27 28  1  0
 28 29  1  0
 28 30  1  0
 28 31  1  0
 31 32  2  0
 32 33  1  0
 33 34  1  0
 33 35  2  0
 35 36  1  0
 35 37  1  0
 37 38  1  0
 37 39  1  0
 39 40  2  0
 40 41  1  0
 40 42  1  0
 42 43  1  0
 42 44  2  0
 44 45  1  0
 44 46  1  0
 46 47  1  0
 46 48  2  0
  7 49  1  0
 49 50  1  0
 49 51  2  0
 51 52  1  0
 51  2  1  0
 27  8  1  0
 48 32  1  0
 23 14  1  0
 48 39  1  0
M  END
>  <UniqueID>  (6) 
6

>  <SMILES>  (6) 
Fc1cccc(Cn2cc(C/N=c3/cc[nH]c4cc(Cl)ccc34)c(-c3ccccc3)n2)c1

>  <Energy>  (6) 
107.80536972639048

>  <Genealogy>  (6) 
Fc1cccc(Cn2cc(C/N=c3/cc[nH]c4cc(Cl)ccc34)c(-c3ccccc3)n2)c1 (cis-trans isomerization)
Fc1cccc(Cn2cc(C/N=c3/cc[nH]c4cc(Cl)ccc34)c(-c3ccccc3)n2)c1 (3D coordinates assigned)
Fc1cccc(Cn2cc(C/N=c3/cc[nH]c4cc(Cl)ccc34)c(-c3ccccc3)n2)c1 (optimized conformer: 107.80536972639048 kcal/mol)

>  <smiles>  (6) 
Fc1cccc(Cn2cc(CN=c3cc[nH]c4cc(Cl)ccc34)c(-c3ccccc3)n2)c1

>  <score_type>  (6) 
oracle

>  <origin>  (6) 
adg

>  <m_score__min__energy>  (6) 
-9.6899999999999995

>  <m_primary>  (6) 
energy

$$$$
6:0
     RDKit          3D

 40 42  0  0  0  0  0  0  0  0999 V2000
   54.9361   28.6451   44.4258 H   0  0  0  0  0  0  0  0  0  0  0  0
   55.8920   28.9510   44.8760 C   0  0  0  0  0  0  0  0  0  0  0  0
   56.1690   30.2260   44.8960 N   0  0  0  0  0  0  0  0  0  0  0  0
   56.8980   31.0060   43.9310 C   0  0  0  0  0  0  0  0  0  0  0  0
   56.7490   30.7760   42.5490 C   0  0  0  0  0  0  0  0  0  0  0  0
   56.1295   29.9375   42.1981 H   0  0  0  0  0  0  0  0  0  0  0  0
   57.3830   31.6060   41.6220 C   0  0  0  0  0  0  0  0  0  0  0  0
   57.2894   31.3993   40.5457 H   0  0  0  0  0  0  0  0  0  0  0  0
   58.1350   32.6970   42.0590 C   0  0  0  0  0  0  0  0  0  0  0  0
   58.6383   33.3461   41.3273 H   0  0  0  0  0  0  0  0  0  0  0  0
   58.2490   32.9650   43.4230 C   0  0  0  0  0  0  0  0  0  0  0  0
   58.8211   33.8416   43.7611 H   0  0  0  0  0  0  0  0  0  0  0  0
   57.6410   32.1270   44.3650 C   0  0  0  0  0  0  0  0  0  0  0  0
   57.7540   32.4590   45.7230 O   0  0  0  0  0  0  0  0  0  0  0  0
   58.9450   32.8500   46.3510 C   0  0  0  0  0  0  0  0  0  0  0  0
   59.1550   34.1730   46.7730 C   0  0  0  0  0  0  0  0  0  0  0  0
   58.3686   34.9269   46.6208 H   0  0  0  0  0  0  0  0  0  0  0  0
   60.3570   34.5370   47.3850 C   0  0  0  0  0  0  0  0  0  0  0  0
   60.5192   35.5789   47.6984 H   0  0  0  0  0  0  0  0  0  0  0  0
   61.3620   33.5740   47.6020 C   0  0  0  0  0  0  0  0  0  0  0  0
   62.5870   33.8880   48.2080 O   0  0  0  0  0  0  0  0  0  0  0  0
   63.7430   33.0580   48.1630 C   0  0  0  0  0  0  0  0  0  0  0  0
   64.0673   32.8251   49.1880 H   0  0  0  0  0  0  0  0  0  0  0  0
   63.5036   32.1242   47.6331 H   0  0  0  0  0  0  0  0  0  0  0  0
   64.5512   33.5834   47.6331 H   0  0  0  0  0  0  0  0  0  0  0  0
   61.1350   32.2510   47.2040 C   0  0  0  0  0  0  0  0  0  0  0  0
   61.9097   31.4894   47.3768 H   0  0  0  0  0  0  0  0  0  0  0  0
   59.9330   31.8890   46.5890 C   0  0  0  0  0  0  0  0  0  0  0  0
   59.7634   30.8438   46.2909 H   0  0  0  0  0  0  0  0  0  0  0  0
   56.7680   27.8850   45.4140 C   0  0  0  0  0  0  0  0  0  0  0  0
   58.1690   28.0260   45.4180 C   0  0  0  0  0  0  0  0  0  0  0  0
   58.6290   28.9287   44.9896 H   0  0  0  0  0  0  0  0  0  0  0  0
   58.9780   27.0260   45.9630 C   0  0  0  0  0  0  0  0  0  0  0  0
   60.0723   27.1372   45.9492 H   0  0  0  0  0  0  0  0  0  0  0  0
   58.4010   25.8860   46.5250 C   0  0  0  0  0  0  0  0  0  0  0  0
   59.0406   25.0971   46.9474 H   0  0  0  0  0  0  0  0  0  0  0  0
   57.0110   25.7470   46.5510 C   0  0  0  0  0  0  0  0  0  0  0  0
   56.5577   24.8520   47.0020 H   0  0  0  0  0  0  0  0  0  0  0  0
   56.1940   26.7430   46.0050 C   0  0  0  0  0  0  0  0  0  0  0  0
   54.8120   26.5880   46.0460 O   0  0  0  0  0  0  0  0  0  0  0  0
  1  2  1  0
  2  3  2  0
  3  4  1  0
  4  5  2  0
  5  6  1  0
  5  7  1  0
  7  8  1  0
  7  9  2  0
  9 10  1  0
  9 11  1  0
 11 12  1  0
 11 13  2  0
 13 14  1  0
 14 15  1  0
 15 16  2  0
 16 17  1  0
 16 18  1  0
 18 19  1  0
 18 20  2  0
 20 21  1  0
 21 22  1  0
 22 23  1  0
 22 24  1  0
 22 25  1  0
 20 26  1  0
 26 27  1  0
 26 28  2  0
 28 29  1  0
  2 30  1  0
 30 31  2  0
 31 32  1  0
 31 33  1  0
 33 34  1  0
 33 35  2  0
 35 36  1  0
 35 37  1  0
 37 38  1  0
 37 39  2  0
 39 40  1  0
 13  4  1  0
 28 15  1  0
 39 30  1  0
M  CHG  1  40  -1
M  END
>  <UniqueID>  (7) 
7

>  <SMILES>  (7) 
COc1ccc(Oc2ccccc2/N=C\c2ccccc2[O-])cc1

>  <Energy>  (7) 
61.1971517997477

>  <Genealogy>  (7) 
COc1ccc(Oc2ccccc2N=Cc2ccccc2[O-])cc1 (protonated)
COc1ccc(Oc2ccccc2/N=C\c2ccccc2[O-])cc1 (cis-trans isomerization)
COc1ccc(Oc2ccccc2/N=C\c2ccccc2[O-])cc1 (3D coordinates assigned)
COc1ccc(Oc2ccccc2/N=C\c2ccccc2[O-])cc1 (optimized conformer: 61.1971517997477 kcal/mol)

>  <smiles>  (7) 
COc1ccc(Oc2ccccc2N=Cc2ccccc2O)cc1

>  <score_type>  (7) 
oracle

>  <origin>  (7) 
adg

>  <m_score__min__energy>  (7) 
-11.699999999999999

>  <m_primary>  (7) 
energy

$$$$
7:0
     RDKit          3D

 64 69  0  0  0  0  0  0  0  0999 V2000
   56.6430   31.1840   43.8410 C   0  0  0  0  0  0  0  0  0  0  0  0
   57.3430   29.9140   44.2310 C   0  0  0  0  0  0  0  0  0  0  0  0
   57.1430   28.7330   43.5070 C   0  0  0  0  0  0  0  0  0  0  0  0
   57.8120   27.5610   43.8670 C   0  0  0  0  0  0  0  0  0  0  0  0
   58.7080   27.5550   44.9520 C   0  0  0  0  0  0  0  0  0  0  0  0
   59.4770   26.3890   45.2840 N   0  0  0  0  0  0  0  0  0  0  0  0
   58.9090   25.0020   46.1530 S   0  0  0  0  0  0  0  0  0  0  0  0
   58.7550   25.3660   47.6020 O   0  0  0  0  0  0  0  0  0  0  0  0
   59.9150   23.8910   46.0490 O   0  0  0  0  0  0  0  0  0  0  0  0
   57.3390   24.4990   45.5260 C   0  0  0  0  0  0  0  0  0  0  0  0
   56.1740   25.2150   45.8540 C   0  0  0  0  0  0  0  0  0  0  0  0
   54.9250   24.8380   45.3300 C   0  0  0  0  0  0  0  0  0  0  0  0
   54.8170   23.7400   44.4660 C   0  0  0  0  0  0  0  0  0  0  0  0
   55.9640   23.0180   44.1320 C   0  0  0  0  0  0  0  0  0  0  0  0
   55.9390   21.9450   43.3040 N   0  0  0  0  0  0  0  0  0  0  0  0
   57.5430   21.5400   43.3040 S   0  0  0  0  0  0  0  0  0  0  0  0
   58.2940   22.6340   44.2930 N   0  0  0  0  0  0  0  0  0  0  0  0
   57.2320   23.3940   44.6650 C   0  0  0  0  0  0  0  0  0  0  0  0
   58.9020   28.7410   45.6960 C   0  0  0  0  0  0  0  0  0  0  0  0
   59.8020   28.7700   46.8640 C   0  0  0  0  0  0  0  0  0  0  0  0
   59.7730   27.8350   47.7090 O   0  0  0  0  0  0  0  0  0  0  0  0
   60.7280   29.8510   47.0180 N   0  0  0  0  0  0  0  0  0  0  0  0
   61.2130   30.3330   48.3090 C   0  0  1  0  0  0  0  0  0  0  0  0
   62.1500   31.5220   48.1600 C   0  0  0  0  0  0  0  0  0  0  0  0
   63.3500   31.5440   48.8950 C   0  0  0  0  0  0  0  0  0  0  0  0
   64.1580   32.6840   48.9040 C   0  0  0  0  0  0  0  0  0  0  0  0
   63.7720   33.8210   48.1930 C   0  0  0  0  0  0  0  0  0  0  0  0
   62.5850   33.8150   47.4550 C   0  0  0  0  0  0  0  0  0  0  0  0
   61.7760   32.6710   47.4260 C   0  0  0  0  0  0  0  0  0  0  0  0
   60.3200   32.6840   46.3690 S   0  0  0  0  0  0  0  0  0  0  0  0
   58.9940   32.4760   47.6260 C   0  0  0  0  0  0  0  0  0  0  0  0
   59.3980   32.1040   49.0790 C   0  0  1  0  0  0  0  0  0  0  0  0
   58.1380   32.2590   49.9830 C   0  0  0  0  0  0  0  0  0  0  0  0
   58.1630   31.4030   51.2620 C   0  0  0  0  0  0  0  0  0  0  0  0
   59.5880   31.1960   51.7600 C   0  0  0  0  0  0  0  0  0  0  0  0
   60.4350   30.4310   50.7280 C   0  0  0  0  0  0  0  0  0  0  0  0
   60.0140   30.6710   49.2450 C   0  0  2  0  0  0  0  0  0  0  0  0
   58.2280   29.9150   45.3170 C   0  0  0  0  0  0  0  0  0  0  0  0
   56.3421   31.7300   44.7473 H   0  0  0  0  0  0  0  0  0  0  0  0
   57.3237   31.8097   43.2450 H   0  0  0  0  0  0  0  0  0  0  0  0
   55.7505   30.9426   43.2450 H   0  0  0  0  0  0  0  0  0  0  0  0
   56.4546   28.7278   42.6491 H   0  0  0  0  0  0  0  0  0  0  0  0
   57.6372   26.6359   43.2982 H   0  0  0  0  0  0  0  0  0  0  0  0
   56.2407   26.0809   46.5290 H   0  0  0  0  0  0  0  0  0  0  0  0
   54.0250   25.4097   45.6005 H   0  0  0  0  0  0  0  0  0  0  0  0
   53.8386   23.4501   44.0553 H   0  0  0  0  0  0  0  0  0  0  0  0
   61.7999   29.5247   48.7695 H   0  0  0  0  0  0  0  0  0  0  0  0
   63.6546   30.6556   49.4677 H   0  0  0  0  0  0  0  0  0  0  0  0
   65.0998   32.6852   49.4724 H   0  0  0  0  0  0  0  0  0  0  0  0
   64.4022   34.7224   48.2133 H   0  0  0  0  0  0  0  0  0  0  0  0
   62.2844   34.7124   46.8943 H   0  0  0  0  0  0  0  0  0  0  0  0
   58.4428   33.4266   47.6761 H   0  0  0  0  0  0  0  0  0  0  0  0
   58.4256   31.6025   47.2739 H   0  0  0  0  0  0  0  0  0  0  0  0
   60.2047   32.7899   49.3769 H   0  0  0  0  0  0  0  0  0  0  0  0
   58.0541   33.3154   50.2778 H   0  0  0  0  0  0  0  0  0  0  0  0
   57.2807   31.9099   49.3887 H   0  0  0  0  0  0  0  0  0  0  0  0
   57.5798   31.9104   52.0446 H   0  0  0  0  0  0  0  0  0  0  0  0
   57.7290   30.4191   51.0306 H   0  0  0  0  0  0  0  0  0  0  0  0
   60.0490   32.1774   51.9452 H   0  0  0  0  0  0  0  0  0  0  0  0
   59.5497   30.6032   52.6858 H   0  0  0  0  0  0  0  0  0  0  0  0
   61.4833   30.7439   50.8432 H   0  0  0  0  0  0  0  0  0  0  0  0
   60.2831   29.3601   50.9285 H   0  0  0  0  0  0  0  0  0  0  0  0
   59.2046   29.9916   48.9396 H   0  0  0  0  0  0  0  0  0  0  0  0
   58.3974   30.8450   45.8795 H   0  0  0  0  0  0  0  0  0  0  0  0
  1  2  1  0
  2  3  2  0
  3  4  1  0
  4  5  2  0
  5  6  1  0
  6  7  1  0
  7  8  2  0
  7  9  2  0
  7 10  1  0
 10 11  2  0
 11 12  1  0
 12 13  2  0
 13 14  1  0
 14 15  2  0
 15 16  1  0
 16 17  1  0
 17 18  2  0
  5 19  1  0
 19 20  1  0
 20 21  2  0
 20 22  1  0
 22 23  1  0
 23 24  1  0
 24 25  2  0
 25 26  1  0
 26 27  2  0
 27 28  1  0
 28 29  2  0
 29 30  1  0
 30 31  1  0
 31 32  1  0
 32 33  1  0
 33 34  1  0
 34 35  1  0
 35 36  1  0
 36 37  1  0
 19 38  2  0
 38  2  1  0
 18 10  1  0
 37 23  1  0
 18 14  1  0
 29 24  1  0
 37 32  1  0
  1 39  1  0
  1 40  1  0
  1 41  1  0
  3 42  1  0
  4 43  1  0
 11 44  1  0
 12 45  1  0
 13 46  1  0
 23 47  1  1
 25 48  1  0
 26 49  1  0
 27 50  1  0
 28 51  1  0
 31 52  1  0
 31 53  1  0
 32 54  1  1
 33 55  1  0
 33 56  1  0
 34 57  1  0
 34 58  1  0
 35 59  1  0
 35 60  1  0
 36 61  1  0
 36 62  1  0
 37 63  1  6
 38 64  1  0
M  CHG  2   6  -1  22  -1
M  END
>  <UniqueID>  (8) 
8

>  <SMILES>  (8) 
Cc1ccc([N-]S(=O)(=O)c2cccc3nsnc23)c(C(=O)[N-][C@H]2c3ccccc3SC[C@H]3CCCCC32)c1

>  <Energy>  (8) 
130.6523365343795

>  <Genealogy>  (8) 
Cc1ccc([N-]S(=O)(=O)c2cccc3nsnc23)c(C(=O)[N-]C2c3ccccc3SCC3CCCCC32)c1 (protonated)
Cc1ccc([N-]S(=O)(=O)c2cccc3nsnc23)c(C(=O)[N-][C@H]2c3ccccc3SC[C@H]3CCCCC32)c1 (chirality)
Cc1ccc([N-]S(=O)(=O)c2cccc3nsnc23)c(C(=O)[N-][C@H]2c3ccccc3SC[C@H]3CCCCC32)c1 (3D coordinates assigned)
Cc1ccc([N-]S(=O)(=O)c2cccc3nsnc23)c(C(=O)[N-][C@H]2c3ccccc3SC[C@H]3CCCCC32)c1 (nonaromatic ring conformer: 130.6523365343795 kcal/mol)

>  <smiles>  (8) 
Cc1ccc(NS(=O)(=O)c2cccc3nsnc23)c(C(=O)NC2c3ccccc3SCC3CCCCC32)c1

>  <score_type>  (8) 
oracle

>  <origin>  (8) 
adg

>  <m_score__min__energy>  (8) 
-11.35

>  <m_primary>  (8) 
energy

$$$$
8:0
     RDKit          3D

 41 43  0  0  0  0  0  0  0  0999 V2000
   59.7510   22.0470   45.0380 N   0  0  0  0  0  0  0  0  0  0  0  0
   58.9260   23.1880   45.2840 C   0  0  0  0  0  0  0  0  0  0  0  0
   57.5940   23.1970   44.8580 C   0  0  0  0  0  0  0  0  0  0  0  0
   56.7880   24.3130   45.0910 C   0  0  0  0  0  0  0  0  0  0  0  0
   57.2980   25.4430   45.7550 C   0  0  0  0  0  0  0  0  0  0  0  0
   56.4250   26.6280   45.8990 C   0  0  0  0  0  0  0  0  0  0  0  0
   55.1790   26.4840   46.0180 O   0  0  0  0  0  0  0  0  0  0  0  0
   57.0140   27.9360   45.9680 N   0  0  0  0  0  0  0  0  0  0  0  0
   57.2360   28.8640   44.8540 C   0  0  2  0  0  0  0  0  0  0  0  0
   58.6020   29.5840   44.9490 C   0  0  0  0  0  0  0  0  0  0  0  0
   58.7540   30.5140   46.1220 C   0  0  0  0  0  0  0  0  0  0  0  0
   59.0490   30.1450   47.4330 C   0  0  0  0  0  0  0  0  0  0  0  0
   59.1600   31.2390   48.2210 N   0  0  0  0  0  0  0  0  0  0  0  0
   58.9600   32.2970   47.4180 C   0  0  0  0  0  0  0  0  0  0  0  0
   59.0060   33.6440   47.7720 C   0  0  0  0  0  0  0  0  0  0  0  0
   58.8030   34.5990   46.7590 C   0  0  0  0  0  0  0  0  0  0  0  0
   58.5680   34.1900   45.4280 C   0  0  0  0  0  0  0  0  0  0  0  0
   58.5310   32.8230   45.0980 C   0  0  0  0  0  0  0  0  0  0  0  0
   58.7180   31.8970   46.1260 C   0  0  0  0  0  0  0  0  0  0  0  0
   56.0590   29.7840   44.6510 C   0  0  0  0  0  0  0  0  0  0  0  0
   56.2460   31.0280   44.5790 O   0  0  0  0  0  0  0  0  0  0  0  0
   54.7730   29.2830   44.4870 O   0  0  0  0  0  0  0  0  0  0  0  0
   58.6390   25.4220   46.2190 C   0  0  0  0  0  0  0  0  0  0  0  0
   59.1900   26.4960   46.9950 N   0  0  0  0  0  0  0  0  0  0  0  0
   59.4410   24.2990   45.9630 C   0  0  0  0  0  0  0  0  0  0  0  0
   59.3600   21.0810   45.0960 H   0  0  0  0  0  0  0  0  0  0  0  0
   60.7610   22.1590   44.7940 H   0  0  0  0  0  0  0  0  0  0  0  0
   57.1796   22.3212   44.3372 H   0  0  0  0  0  0  0  0  0  0  0  0
   55.7418   24.3084   44.7512 H   0  0  0  0  0  0  0  0  0  0  0  0
   57.3020   28.2685   43.9315 H   0  0  0  0  0  0  0  0  0  0  0  0
   59.3873   28.8169   45.0186 H   0  0  0  0  0  0  0  0  0  0  0  0
   58.6804   30.2114   44.0489 H   0  0  0  0  0  0  0  0  0  0  0  0
   59.1742   29.1084   47.7790 H   0  0  0  0  0  0  0  0  0  0  0  0
   59.3780   31.2530   49.2420 H   0  0  0  0  0  0  0  0  0  0  0  0
   59.1952   33.9511   48.8112 H   0  0  0  0  0  0  0  0  0  0  0  0
   58.8275   35.6708   47.0053 H   0  0  0  0  0  0  0  0  0  0  0  0
   58.4128   34.9456   44.6438 H   0  0  0  0  0  0  0  0  0  0  0  0
   58.3601   32.4940   44.0624 H   0  0  0  0  0  0  0  0  0  0  0  0
   59.9770   26.3190   47.6580 H   0  0  0  0  0  0  0  0  0  0  0  0
   58.7490   27.4400   47.0240 H   0  0  0  0  0  0  0  0  0  0  0  0
   60.4880   24.2916   46.3002 H   0  0  0  0  0  0  0  0  0  0  0  0
  1  2  1  0
  2  3  2  0
  3  4  1  0
  4  5  2  0
  5  6  1  0
  6  7  2  0
  6  8  1  0
  8  9  1  0
  9 10  1  0
 10 11  1  0
 11 12  2  0
 12 13  1  0
 13 14  1  0
 14 15  2  0
 15 16  1  0
 16 17  2  0
 17 18  1  0
 18 19  2  0
  9 20  1  0
 20 21  2  0
 20 22  1  0
  5 23  1  0
 23 24  1  0
 23 25  2  0
 25  2  1  0
 19 11  1  0
 19 14  1  0
  1 26  1  0
  1 27  1  0
  3 28  1  0
  4 29  1  0
  9 30  1  6
 10 31  1  0
 10 32  1  0
 12 33  1  0
 13 34  1  0
 15 35  1  0
 16 36  1  0
 17 37  1  0
 18 38  1  0
 24 39  1  0
 24 40  1  0
 25 41  1  0
M  CHG  2   8  -1  22  -1
M  END
>  <UniqueID>  (9) 
9

>  <SMILES>  (9) 
Nc1ccc(C(=O)[N-][C@H](Cc2c[nH]c3ccccc23)C(=O)[O-])c(N)c1

>  <Energy>  (9) 
81.19862441829063

>  <Genealogy>  (9) 
Nc1ccc(C(=O)[N-]C(Cc2c[nH]c3ccccc23)C(=O)[O-])c(N)c1 (protonated)
Nc1ccc(C(=O)[N-][C@H](Cc2c[nH]c3ccccc23)C(=O)[O-])c(N)c1 (chirality)
Nc1ccc(C(=O)[N-][C@H](Cc2c[nH]c3ccccc23)C(=O)[O-])c(N)c1 (3D coordinates assigned)
Nc1ccc(C(=O)[N-][C@H](Cc2c[nH]c3ccccc23)C(=O)[O-])c(N)c1 (optimized conformer: 81.19862441829063 kcal/mol)

>  <smiles>  (9) 
Nc1ccc(C(=O)NC(Cc2c[nH]c3ccccc23)C(=O)O)c(N)c1

>  <score_type>  (9) 
oracle

>  <origin>  (9) 
adg

>  <m_score__min__energy>  (9) 
-12.630000000000001

>  <m_primary>  (9) 
energy

$$$$
9:0
     RDKit          3D

 38 40  0  0  0  0  0  0  0  0999 V2000
   58.7520   31.8500   47.7840 C   0  0  0  0  0  0  0  0  0  0  0  0
   58.9270   32.9550   46.7600 C   0  0  0  0  0  0  0  0  0  0  0  0
   58.5350   32.7380   45.4120 C   0  0  0  0  0  0  0  0  0  0  0  0
   58.0190   31.4370   44.9250 C   0  0  0  0  0  0  0  0  0  0  0  0
   58.8380   30.2970   44.9520 C   0  0  0  0  0  0  0  0  0  0  0  0
   58.3460   29.0660   44.5090 C   0  0  0  0  0  0  0  0  0  0  0  0
   57.0320   28.9630   44.0440 C   0  0  0  0  0  0  0  0  0  0  0  0
   56.2060   30.0910   44.0260 C   0  0  0  0  0  0  0  0  0  0  0  0
   56.6940   31.3230   44.4690 C   0  0  0  0  0  0  0  0  0  0  0  0
   58.6570   33.7830   44.4900 C   0  0  0  0  0  0  0  0  0  0  0  0
   59.1980   34.9990   44.8810 C   0  0  0  0  0  0  0  0  0  0  0  0
   59.6260   35.1680   46.1920 C   0  0  0  0  0  0  0  0  0  0  0  0
   59.4970   34.1650   47.1150 N   0  0  0  0  0  0  0  0  0  0  0  0
   59.9910   34.4290   48.4840 C   0  0  0  0  0  0  0  0  0  0  0  0
   61.4400   34.0270   48.6400 C   0  0  0  0  0  0  0  0  0  0  0  0
   62.0720   34.1400   49.8910 C   0  0  0  0  0  0  0  0  0  0  0  0
   63.4040   33.7450   50.0490 C   0  0  0  0  0  0  0  0  0  0  0  0
   64.1130   33.2210   48.9660 C   0  0  0  0  0  0  0  0  0  0  0  0
   65.4030   32.8370   49.1210 F   0  0  0  0  0  0  0  0  0  0  0  0
   63.4870   33.0830   47.7240 C   0  0  0  0  0  0  0  0  0  0  0  0
   62.1550   33.4770   47.5620 C   0  0  0  0  0  0  0  0  0  0  0  0
   58.8192   32.2745   48.7966 H   0  0  0  0  0  0  0  0  0  0  0  0
   57.7678   31.3775   47.6491 H   0  0  0  0  0  0  0  0  0  0  0  0
   59.5420   31.0966   47.6491 H   0  0  0  0  0  0  0  0  0  0  0  0
   59.8707   30.3729   45.3232 H   0  0  0  0  0  0  0  0  0  0  0  0
   58.9938   28.1771   44.5264 H   0  0  0  0  0  0  0  0  0  0  0  0
   56.6476   27.9943   43.6921 H   0  0  0  0  0  0  0  0  0  0  0  0
   55.1710   30.0084   43.6627 H   0  0  0  0  0  0  0  0  0  0  0  0
   56.0392   32.2068   44.4610 H   0  0  0  0  0  0  0  0  0  0  0  0
   58.3229   33.6400   43.4518 H   0  0  0  0  0  0  0  0  0  0  0  0
   59.2875   35.8235   44.1584 H   0  0  0  0  0  0  0  0  0  0  0  0
   60.0767   36.1250   46.4938 H   0  0  0  0  0  0  0  0  0  0  0  0
   59.8937   35.5037   48.6975 H   0  0  0  0  0  0  0  0  0  0  0  0
   59.3909   33.8328   49.1872 H   0  0  0  0  0  0  0  0  0  0  0  0
   61.5152   34.5415   50.7505 H   0  0  0  0  0  0  0  0  0  0  0  0
   63.8944   33.8472   51.0283 H   0  0  0  0  0  0  0  0  0  0  0  0
   64.0430   32.6638   46.8725 H   0  0  0  0  0  0  0  0  0  0  0  0
   61.6639   33.3558   46.5852 H   0  0  0  0  0  0  0  0  0  0  0  0
  1  2  1  0
  2  3  2  0
  3  4  1  0
  4  5  2  0
  5  6  1  0
  6  7  2  0
  7  8  1  0
  8  9  2  0
  3 10  1  0
 10 11  2  0
 11 12  1  0
 12 13  2  0
 13 14  1  0
 14 15  1  0
 15 16  2  0
 16 17  1  0
 17 18  2  0
 18 19  1  0
 18 20  1  0
 20 21  2  0
 13  2  1  0
 21 15  1  0
  9  4  1  0
  1 22  1  0
  1 23  1  0
  1 24  1  0
  5 25  1  0
  6 26  1  0
  7 27  1  0
  8 28  1  0
  9 29  1  0
 10 30  1  0
 11 31  1  0
 12 32  1  0
 14 33  1  0
 14 34  1  0
 16 35  1  0
 17 36  1  0
 20 37  1  0
 21 38  1  0
M  CHG  1  13   1
M  END
>  <UniqueID>  (10) 
10

>  <SMILES>  (10) 
Cc1c(-c2ccccc2)ccc[n+]1Cc1ccc(F)cc1

>  <Energy>  (10) 
52.6043721114889

>  <Genealogy>  (10) 
Cc1c(-c2ccccc2)ccc[n+]1Cc1ccc(F)cc1 (3D coordinates assigned)
Cc1c(-c2ccccc2)ccc[n+]1Cc1ccc(F)cc1 (optimized conformer: 52.6043721114889 kcal/mol)

>  <smiles>  (10) 
Cc1c(-c2ccccc2)ccc[n+]1Cc1ccc(F)cc1

>  <score_type>  (10) 
oracle

>  <origin>  (10) 
adg

>  <m_score__min__energy>  (10) 
-6.2400000000000002

>  <m_primary>  (10) 
energy

$$$$
10:0
     RDKit          3D

 43 44  0  0  0  0  0  0  0  0999 V2000
   56.7220   30.5020   43.5480 C   0  0  0  0  0  0  0  0  0  0  0  0
   57.1630   30.6510   44.8930 O   0  0  0  0  0  0  0  0  0  0  0  0
   57.7410   31.8190   45.4210 C   0  0  0  0  0  0  0  0  0  0  0  0
   57.1430   33.0830   45.2460 C   0  0  0  0  0  0  0  0  0  0  0  0
   57.7340   34.2270   45.7880 C   0  0  0  0  0  0  0  0  0  0  0  0
   58.9220   34.1250   46.5110 C   0  0  0  0  0  0  0  0  0  0  0  0
   59.5260   32.8800   46.6930 C   0  0  0  0  0  0  0  0  0  0  0  0
   58.9480   31.7210   46.1480 C   0  0  0  0  0  0  0  0  0  0  0  0
   59.6190   30.3900   46.3870 C   0  0  0  0  0  0  0  0  0  0  0  0
   59.9060   29.7260   45.1060 N   0  0  0  0  0  0  0  0  0  0  0  0
   59.6830   28.2660   45.1560 C   0  0  1  0  0  0  0  0  0  0  0  0
   58.8840   27.8400   46.4190 C   0  0  0  0  0  0  0  0  0  0  0  0
   57.3840   27.6960   46.1210 C   0  0  0  0  0  0  0  0  0  0  0  0
   57.0980   26.7030   45.0490 N   0  0  2  0  0  0  0  0  0  0  0  0
   56.6500   25.1570   45.7340 S   0  0  0  0  0  0  0  0  0  0  0  0
   56.7830   23.8720   44.5090 C   0  0  0  0  0  0  0  0  0  0  0  0
   55.2250   25.2130   46.2110 O   0  0  0  0  0  0  0  0  0  0  0  0
   57.5460   24.8270   46.8960 O   0  0  0  0  0  0  0  0  0  0  0  0
   58.2040   26.5240   44.0760 C   0  0  0  0  0  0  0  0  0  0  0  0
   58.9800   27.8260   43.8560 C   0  0  0  0  0  0  0  0  0  0  0  0
   55.6799   30.1499   43.5407 H   0  0  0  0  0  0  0  0  0  0  0  0
   56.7851   31.4714   43.0319 H   0  0  0  0  0  0  0  0  0  0  0  0
   57.3601   29.7696   43.0319 H   0  0  0  0  0  0  0  0  0  0  0  0
   56.2045   33.1695   44.6788 H   0  0  0  0  0  0  0  0  0  0  0  0
   57.2614   35.2098   45.6442 H   0  0  0  0  0  0  0  0  0  0  0  0
   59.3838   35.0272   46.9386 H   0  0  0  0  0  0  0  0  0  0  0  0
   60.4613   32.8056   47.2672 H   0  0  0  0  0  0  0  0  0  0  0  0
   60.5612   30.5511   46.9314 H   0  0  0  0  0  0  0  0  0  0  0  0
   58.9466   29.7513   46.9786 H   0  0  0  0  0  0  0  0  0  0  0  0
   59.3010   30.1480   44.3620 H   0  0  0  0  0  0  0  0  0  0  0  0
   60.6554   27.7573   45.2322 H   0  0  0  0  0  0  0  0  0  0  0  0
   59.0205   28.6016   47.2008 H   0  0  0  0  0  0  0  0  0  0  0  0
   59.2630   26.8621   46.7506 H   0  0  0  0  0  0  0  0  0  0  0  0
   56.9934   28.6748   45.8058 H   0  0  0  0  0  0  0  0  0  0  0  0
   56.8981   27.3376   47.0405 H   0  0  0  0  0  0  0  0  0  0  0  0
   56.2600   27.0430   44.5200 H   0  0  0  0  0  0  0  0  0  0  0  0
   56.8839   22.8975   45.0093 H   0  0  0  0  0  0  0  0  0  0  0  0
   55.8803   23.8698   43.8804 H   0  0  0  0  0  0  0  0  0  0  0  0
   57.6670   24.0547   43.8804 H   0  0  0  0  0  0  0  0  0  0  0  0
   57.7835   26.1927   43.1150 H   0  0  0  0  0  0  0  0  0  0  0  0
   58.8995   25.7741   44.4809 H   0  0  0  0  0  0  0  0  0  0  0  0
   58.2812   28.6140   43.5386 H   0  0  0  0  0  0  0  0  0  0  0  0
   59.7419   27.6577   43.0807 H   0  0  0  0  0  0  0  0  0  0  0  0
  1  2  1  0
  2  3  1  0
  3  4  2  0
  4  5  1  0
  5  6  2  0
  6  7  1  0
  7  8  2  0
  8  9  1  0
  9 10  1  0
 10 11  1  0
 11 12  1  0
 12 13  1  0
 13 14  1  0
 14 15  1  0
 15 16  1  0
 15 17  2  0
 15 18  2  0
 14 19  1  0
 19 20  1  0
  8  3  1  0
 20 11  1  0
  1 21  1  0
  1 22  1  0
  1 23  1  0
  4 24  1  0
  5 25  1  0
  6 26  1  0
  7 27  1  0
  9 28  1  0
  9 29  1  0
 10 30  1  0
 11 31  1  1
 12 32  1  0
 12 33  1  0
 13 34  1  0
 13 35  1  0
 14 36  1  6
 16 37  1  0
 16 38  1  0
 16 39  1  0
 19 40  1  0
 19 41  1  0
 20 42  1  0
 20 43  1  0
M  CHG  1  14   1
M  END
>  <UniqueID>  (11) 
11

>  <SMILES>  (11) 
COc1ccccc1CNC1CC[NH+](S(C)(=O)=O)CC1

>  <Energy>  (11) 
44.003693452405074

>  <Genealogy>  (11) 
COc1ccccc1CNC1CC[NH+](S(C)(=O)=O)CC1 (protonated)
COc1ccccc1CNC1CC[NH+](S(C)(=O)=O)CC1 (3D coordinates assigned)
COc1ccccc1CNC1CC[NH+](S(C)(=O)=O)CC1 (nonaromatic ring conformer: 44.003693452405074 kcal/mol)

>  <smiles>  (11) 
COc1ccccc1CNC1CCN(S(C)(=O)=O)CC1

>  <score_type>  (11) 
oracle

>  <origin>  (11) 
adg

>  <m_score__min__energy>  (11) 
-5.9800000000000004

>  <m_primary>  (11) 
energy

$$$$
11:0
     RDKit          3D

 23 24  0  0  0  0  0  0  0  0999 V2000
   58.0870   26.2120   44.3040 C   0  0  0  0  0  0  0  0  0  0  0  0
   58.4780   27.6390   44.5050 C   0  0  0  0  0  0  0  0  0  0  0  0
   59.6870   28.1020   44.2940 O   0  0  0  0  0  0  0  0  0  0  0  0
   59.7510   29.3810   44.5270 N   0  0  0  0  0  0  0  0  0  0  0  0
   58.5230   29.7790   44.9160 C   0  0  0  0  0  0  0  0  0  0  0  0
   58.2260   31.1690   45.3200 C   0  0  0  0  0  0  0  0  0  0  0  0
   57.6630   32.0590   44.3910 C   0  0  0  0  0  0  0  0  0  0  0  0
   57.4060   33.3860   44.7530 C   0  0  0  0  0  0  0  0  0  0  0  0
   57.7240   33.8370   46.0370 C   0  0  0  0  0  0  0  0  0  0  0  0
   58.3070   32.9640   46.9580 C   0  0  0  0  0  0  0  0  0  0  0  0
   58.5660   31.6360   46.6010 C   0  0  0  0  0  0  0  0  0  0  0  0
   57.6660   28.6850   44.9110 C   0  0  0  0  0  0  0  0  0  0  0  0
   56.2090   28.6490   45.1460 C   0  0  0  0  0  0  0  0  0  0  0  0
   55.5080   29.6780   44.9530 O   0  0  0  0  0  0  0  0  0  0  0  0
   55.5980   27.4960   45.6210 O   0  0  0  0  0  0  0  0  0  0  0  0
   57.9541   25.7269   45.2823 H   0  0  0  0  0  0  0  0  0  0  0  0
   57.1432   26.1662   43.7408 H   0  0  0  0  0  0  0  0  0  0  0  0
   58.8757   25.6916   43.7408 H   0  0  0  0  0  0  0  0  0  0  0  0
   57.4232   31.7117   43.3752 H   0  0  0  0  0  0  0  0  0  0  0  0
   56.9528   34.0755   44.0256 H   0  0  0  0  0  0  0  0  0  0  0  0
   57.5153   34.8787   46.3219 H   0  0  0  0  0  0  0  0  0  0  0  0
   58.5632   33.3211   47.9664 H   0  0  0  0  0  0  0  0  0  0  0  0
   59.0373   30.9555   47.3254 H   0  0  0  0  0  0  0  0  0  0  0  0
  1  2  1  0
  2  3  1  0
  3  4  1  0
  4  5  2  0
  5  6  1  0
  6  7  2  0
  7  8  1  0
  8  9  2  0
  9 10  1  0
 10 11  2  0
  5 12  1  0
 12 13  1  0
 13 14  2  0
 13 15  1  0
 12  2  2  0
 11  6  1  0
  1 16  1  0
  1 17  1  0
  1 18  1  0
  7 19  1  0
  8 20  1  0
  9 21  1  0
 10 22  1  0
 11 23  1  0
M  CHG  1  15  -1
M  END
>  <UniqueID>  (12) 
12

>  <SMILES>  (12) 
Cc1onc(-c2ccccc2)c1C(=O)[O-]

>  <Energy>  (12) 
59.732194645095404

>  <Genealogy>  (12) 
Cc1onc(-c2ccccc2)c1C(=O)[O-] (protonated)
Cc1onc(-c2ccccc2)c1C(=O)[O-] (3D coordinates assigned)
Cc1onc(-c2ccccc2)c1C(=O)[O-] (optimized conformer: 59.732194645095404 kcal/mol)

>  <smiles>  (12) 
Cc1onc(-c2ccccc2)c1C(=O)O

>  <score_type>  (12) 
oracle

>  <origin>  (12) 
adg

>  <m_score__min__energy>  (12) 
-8.6199999999999992

>  <m_primary>  (12) 
energy

$$$$
12:0
     RDKit          3D

 30 32  0  0  0  0  0  0  0  0999 V2000
   59.9500   26.3530   48.9410 F   0  0  0  0  0  0  0  0  0  0  0  0
   60.3910   26.9610   47.7780 C   0  0  0  0  0  0  0  0  0  0  0  0
   61.5530   26.3390   47.3610 F   0  0  0  0  0  0  0  0  0  0  0  0
   60.6550   28.2920   48.0440 F   0  0  0  0  0  0  0  0  0  0  0  0
   59.3500   26.8570   46.7020 C   0  0  0  0  0  0  0  0  0  0  0  0
   59.0400   25.6180   46.1350 C   0  0  0  0  0  0  0  0  0  0  0  0
   58.0560   25.5540   45.1380 C   0  0  0  0  0  0  0  0  0  0  0  0
   57.6970   24.2540   44.5180 C   0  0  0  0  0  0  0  0  0  0  0  0
   58.4020   23.0800   44.8470 C   0  0  0  0  0  0  0  0  0  0  0  0
   58.0600   21.8600   44.2570 C   0  0  0  0  0  0  0  0  0  0  0  0
   57.0120   21.7970   43.3350 C   0  0  0  0  0  0  0  0  0  0  0  0
   56.3060   22.9540   43.0010 C   0  0  0  0  0  0  0  0  0  0  0  0
   56.6440   24.1780   43.5870 C   0  0  0  0  0  0  0  0  0  0  0  0
   57.4240   26.7020   44.7500 N   0  0  0  0  0  0  0  0  0  0  0  0
   57.7350   27.9040   45.3160 C   0  0  0  0  0  0  0  0  0  0  0  0
   57.0650   29.1030   44.8960 N   0  0  0  0  0  0  0  0  0  0  0  0
   57.5410   30.3580   44.9600 C   0  0  0  0  0  0  0  0  0  0  0  0
   56.6460   31.2440   44.4790 N   0  0  0  0  0  0  0  0  0  0  0  0
   55.6120   30.4490   44.1270 C   0  0  0  0  0  0  0  0  0  0  0  0
   55.8540   29.1480   44.3740 N   0  0  0  0  0  0  0  0  0  0  0  0
   58.6900   27.9670   46.2820 N   0  0  0  0  0  0  0  0  0  0  0  0
   59.5599   24.7068   46.4657 H   0  0  0  0  0  0  0  0  0  0  0  0
   59.2272   23.1235   45.5731 H   0  0  0  0  0  0  0  0  0  0  0  0
   58.6167   20.9481   44.5189 H   0  0  0  0  0  0  0  0  0  0  0  0
   56.7433   20.8358   42.8724 H   0  0  0  0  0  0  0  0  0  0  0  0
   55.4814   22.9028   42.2748 H   0  0  0  0  0  0  0  0  0  0  0  0
   56.0840   25.0861   43.3190 H   0  0  0  0  0  0  0  0  0  0  0  0
   56.7060   26.6640   43.9930 H   0  0  0  0  0  0  0  0  0  0  0  0
   58.5322   30.6274   45.3537 H   0  0  0  0  0  0  0  0  0  0  0  0
   54.6758   30.8234   43.6872 H   0  0  0  0  0  0  0  0  0  0  0  0
  1  2  1  0
  2  3  1  0
  2  4  1  0
  2  5  1  0
  5  6  2  0
  6  7  1  0
  7  8  1  0
  8  9  2  0
  9 10  1  0
 10 11  2  0
 11 12  1  0
 12 13  2  0
  7 14  2  0
 14 15  1  0
 15 16  1  0
 16 17  1  0
 17 18  2  0
 18 19  1  0
 19 20  2  0
 15 21  2  0
 21  5  1  0
 13  8  1  0
 20 16  1  0
  6 22  1  0
  9 23  1  0
 10 24  1  0
 11 25  1  0
 12 26  1  0
 13 27  1  0
 14 28  1  0
 17 29  1  0
 19 30  1  0
M  CHG  1  14   1
M  END
>  <UniqueID>  (13) 
13

>  <SMILES>  (13) 
FC(F)(F)c1cc(-c2ccccc2)[nH+]c(-n2cncn2)n1

>  <Energy>  (13) 
70.37921711008076

>  <Genealogy>  (13) 
FC(F)(F)c1cc(-c2ccccc2)[nH+]c(-n2cncn2)n1 (protonated)
FC(F)(F)c1cc(-c2ccccc2)[nH+]c(-n2cncn2)n1 (3D coordinates assigned)
FC(F)(F)c1cc(-c2ccccc2)[nH+]c(-n2cncn2)n1 (optimized conformer: 70.37921711008076 kcal/mol)

>  <smiles>  (13) 
FC(F)(F)c1cc(-c2ccccc2)nc(-n2cncn2)n1

>  <score_type>  (13) 
oracle

>  <origin>  (13) 
adg

>  <m_score__min__energy>  (13) 
-4.5499999999999998

>  <m_primary>  (13) 
energy

$$$$
13:0
     RDKit          3D

 68 72  0  0  0  0  0  0  0  0999 V2000
   57.7820   34.0970   44.6960 C   0  0  0  0  0  0  0  0  0  0  0  0
   57.8590   34.1780   46.1530 N   0  0  0  0  0  0  0  0  0  0  0  0
   59.0750   33.9320   46.8780 C   0  0  0  0  0  0  0  0  0  0  0  0
   59.2890   34.4790   48.1610 C   0  0  0  0  0  0  0  0  0  0  0  0
   60.3670   34.0530   48.9340 C   0  0  0  0  0  0  0  0  0  0  0  0
   61.2840   33.1290   48.4160 C   0  0  0  0  0  0  0  0  0  0  0  0
   62.5200   32.4700   49.4700 S   0  0  0  0  0  0  0  0  0  0  0  0
   63.1840   33.5830   50.2320 O   0  0  0  0  0  0  0  0  0  0  0  0
   63.5660   31.7500   48.6630 O   0  0  0  0  0  0  0  0  0  0  0  0
   61.7780   31.3610   50.5790 N   0  0  0  0  0  0  0  0  0  0  0  0
   60.9990   30.2680   50.0840 C   0  0  0  0  0  0  0  0  0  0  0  0
   61.4180   28.9490   50.3310 C   0  0  0  0  0  0  0  0  0  0  0  0
   60.8150   27.8830   49.6600 C   0  0  0  0  0  0  0  0  0  0  0  0
   59.7720   28.1210   48.7520 C   0  0  0  0  0  0  0  0  0  0  0  0
   59.4220   27.0960   47.8110 N   0  0  0  0  0  0  0  0  0  0  0  0
   58.3580   27.2080   47.0670 C   0  0  0  0  0  0  0  0  0  0  0  0
   57.4090   26.2380   47.0760 N   0  0  0  0  0  0  0  0  0  0  0  0
   56.2810   26.3680   46.3440 C   0  0  0  0  0  0  0  0  0  0  0  0
   55.3780   25.3040   46.3430 O   0  0  0  0  0  0  0  0  0  0  0  0
   55.7240   23.9600   46.4400 C   0  0  0  0  0  0  0  0  0  0  0  0
   56.0300   23.4310   47.6840 C   0  0  0  0  0  0  0  0  0  0  0  0
   56.6600   22.1880   47.7760 C   0  0  0  0  0  0  0  0  0  0  0  0
   56.9860   21.7610   48.9230 O   0  0  0  0  0  0  0  0  0  0  0  0
   56.9450   21.4510   46.6490 N   0  0  0  0  0  0  0  0  0  0  0  0
   57.5840   20.1300   46.8480 C   0  0  0  0  0  0  0  0  0  0  0  0
   56.6230   21.9490   45.3940 C   0  0  0  0  0  0  0  0  0  0  0  0
   57.0210   21.3130   44.1880 C   0  0  0  0  0  0  0  0  0  0  0  0
   56.6550   21.8440   42.9440 C   0  0  0  0  0  0  0  0  0  0  0  0
   55.9020   23.0180   42.8670 C   0  0  0  0  0  0  0  0  0  0  0  0
   55.5620   23.7020   44.0290 C   0  0  0  0  0  0  0  0  0  0  0  0
   55.9470   23.2010   45.2850 C   0  0  0  0  0  0  0  0  0  0  0  0
   56.0780   27.4920   45.6070 N   0  0  0  0  0  0  0  0  0  0  0  0
   57.0280   28.4680   45.5850 C   0  0  0  0  0  0  0  0  0  0  0  0
   56.8170   29.6500   44.8040 N   0  0  0  0  0  0  0  0  0  0  0  0
   57.7820   30.7500   44.8680 C   0  0  0  0  0  0  0  0  0  0  0  0
   55.7100   29.7360   43.8690 C   0  0  0  0  0  0  0  0  0  0  0  0
   58.1720   28.3230   46.3140 N   0  0  0  0  0  0  0  0  0  0  0  0
   59.2770   29.4270   48.5910 C   0  0  0  0  0  0  0  0  0  0  0  0
   59.8870   30.4960   49.2560 C   0  0  0  0  0  0  0  0  0  0  0  0
   61.1400   32.6650   47.0990 C   0  0  0  0  0  0  0  0  0  0  0  0
   60.0340   33.0580   46.3350 C   0  0  0  0  0  0  0  0  0  0  0  0
   57.0502   33.3272   44.4097 H   0  0  0  0  0  0  0  0  0  0  0  0
   57.4679   35.0702   44.2907 H   0  0  0  0  0  0  0  0  0  0  0  0
   58.7699   33.8326   44.2907 H   0  0  0  0  0  0  0  0  0  0  0  0
   57.0290   34.5910   46.6670 H   0  0  0  0  0  0  0  0  0  0  0  0
   58.6024   35.2443   48.5521 H   0  0  0  0  0  0  0  0  0  0  0  0
   60.4986   34.4433   49.9540 H   0  0  0  0  0  0  0  0  0  0  0  0
   62.2620   31.2220   51.5160 H   0  0  0  0  0  0  0  0  0  0  0  0
   62.2233   28.7560   51.0550 H   0  0  0  0  0  0  0  0  0  0  0  0
   61.1585   26.8543   49.8437 H   0  0  0  0  0  0  0  0  0  0  0  0
   55.7770   23.9893   48.5974 H   0  0  0  0  0  0  0  0  0  0  0  0
   57.6815   19.9284   47.9250 H   0  0  0  0  0  0  0  0  0  0  0  0
   56.9640   19.3491   46.3834 H   0  0  0  0  0  0  0  0  0  0  0  0
   58.5811   20.1313   46.3834 H   0  0  0  0  0  0  0  0  0  0  0  0
   57.6232   20.3935   44.2310 H   0  0  0  0  0  0  0  0  0  0  0  0
   56.9632   21.3321   42.0204 H   0  0  0  0  0  0  0  0  0  0  0  0
   55.5783   23.4011   41.8880 H   0  0  0  0  0  0  0  0  0  0  0  0
   54.9894   24.6390   43.9652 H   0  0  0  0  0  0  0  0  0  0  0  0
   57.9937   30.9913   45.9201 H   0  0  0  0  0  0  0  0  0  0  0  0
   58.7137   30.4501   44.3660 H   0  0  0  0  0  0  0  0  0  0  0  0
   57.3634   31.6347   44.3660 H   0  0  0  0  0  0  0  0  0  0  0  0
   54.7644   29.8095   44.4261 H   0  0  0  0  0  0  0  0  0  0  0  0
   55.8329   30.6273   43.2362 H   0  0  0  0  0  0  0  0  0  0  0  0
   55.6938   28.8364   43.2362 H   0  0  0  0  0  0  0  0  0  0  0  0
   58.4084   29.6086   47.9409 H   0  0  0  0  0  0  0  0  0  0  0  0
   59.4956   31.5163   49.1305 H   0  0  0  0  0  0  0  0  0  0  0  0
   61.8959   31.9927   46.6670 H   0  0  0  0  0  0  0  0  0  0  0  0
   59.9150   32.6823   45.3080 H   0  0  0  0  0  0  0  0  0  0  0  0
  1  2  1  0
  2  3  1  0
  3  4  2  0
  4  5  1  0
  5  6  2  0
  6  7  1  0
  7  8  2  0
  7  9  2  0
  7 10  1  0
 10 11  1  0
 11 12  2  0
 12 13  1  0
 13 14  2  0
 14 15  1  0
 15 16  2  3
 16 17  1  0
 17 18  2  0
 18 19  1  0
 19 20  1  0
 20 21  2  0
 21 22  1  0
 22 23  2  0
 22 24  1  0
 24 25  1  0
 24 26  1  0
 26 27  2  0
 27 28  1  0
 28 29  2  0
 29 30  1  0
 30 31  2  0
 18 32  1  0
 32 33  1  0
 33 34  1  0
 34 35  1  0
 34 36  1  0
 33 37  2  0
 14 38  1  0
 38 39  2  0
  6 40  1  0
 40 41  2  0
 41  3  1  0
 39 11  1  0
 37 16  1  0
 31 20  1  0
 31 26  1  0
  1 42  1  0
  1 43  1  0
  1 44  1  0
  2 45  1  0
  4 46  1  0
  5 47  1  0
 10 48  1  0
 12 49  1  0
 13 50  1  0
 21 51  1  0
 25 52  1  0
 25 53  1  0
 25 54  1  0
 27 55  1  0
 28 56  1  0
 29 57  1  0
 30 58  1  0
 35 59  1  0
 35 60  1  0
 35 61  1  0
 36 62  1  0
 36 63  1  0
 36 64  1  0
 38 65  1  0
 39 66  1  0
 40 67  1  0
 41 68  1  0
M  CHG  1  32  -1
M  END
>  <UniqueID>  (14) 
14

>  <SMILES>  (14) 
CNc1ccc(S(=O)(=O)Nc2ccc(N=c3nc(Oc4cc(=O)n(C)c5ccccc45)[n-]c(N(C)C)n3)cc2)cc1

>  <Energy>  (14) 
127.7851337771967

>  <Genealogy>  (14) 
CNc1ccc(S(=O)(=O)Nc2ccc(N=c3nc(Oc4cc(=O)n(C)c5ccccc45)[n-]c(N(C)C)n3)cc2)cc1 (protonated)
CNc1ccc(S(=O)(=O)Nc2ccc(N=c3nc(Oc4cc(=O)n(C)c5ccccc45)[n-]c(N(C)C)n3)cc2)cc1 (3D coordinates assigned)
CNc1ccc(S(=O)(=O)Nc2ccc(N=c3nc(Oc4cc(=O)n(C)c5ccccc45)[n-]c(N(C)C)n3)cc2)cc1 (optimized conformer: 127.7851337771967 kcal/mol)

>  <smiles>  (14) 
CNc1ccc(S(=O)(=O)Nc2ccc(N=c3nc(Oc4cc(=O)n(C)c5ccccc45)[nH]c(N(C)C)n3)cc2)cc1

>  <score_type>  (14) 
oracle

>  <origin>  (14) 
adg

>  <m_score__min__energy>  (14) 
-11.49

>  <m_primary>  (14) 
energy

$$$$
14:0
     RDKit          3D

 25 26  0  0  0  0  0  0  0  0999 V2000
   56.1020   31.5820   44.4750 O   0  0  0  0  0  0  0  0  0  0  0  0
   57.5080   31.0500   44.4550 S   0  0  0  0  0  0  0  0  0  0  0  0
   58.0270   31.1590   43.0480 O   0  0  0  0  0  0  0  0  0  0  0  0
   58.5200   31.9920   45.5420 C   0  0  0  0  0  0  0  0  0  0  0  0
   58.5920   33.3870   45.4060 C   0  0  0  0  0  0  0  0  0  0  0  0
   59.3820   34.1370   46.2840 C   0  0  0  0  0  0  0  0  0  0  0  0
   60.0980   33.5000   47.3010 C   0  0  0  0  0  0  0  0  0  0  0  0
   60.0220   32.1110   47.4450 C   0  0  0  0  0  0  0  0  0  0  0  0
   59.2330   31.3580   46.5700 C   0  0  0  0  0  0  0  0  0  0  0  0
   57.5220   29.3690   44.9710 C   0  0  0  0  0  0  0  0  0  0  0  0
   58.7350   28.6710   45.0660 C   0  0  0  0  0  0  0  0  0  0  0  0
   58.7440   27.3290   45.4580 C   0  0  0  0  0  0  0  0  0  0  0  0
   57.5430   26.6770   45.7500 C   0  0  0  0  0  0  0  0  0  0  0  0
   56.3300   27.3650   45.6480 C   0  0  0  0  0  0  0  0  0  0  0  0
   55.1360   26.7150   45.9320 O   0  0  0  0  0  0  0  0  0  0  0  0
   56.3180   28.7080   45.2560 C   0  0  0  0  0  0  0  0  0  0  0  0
   58.0268   33.8912   44.6083 H   0  0  0  0  0  0  0  0  0  0  0  0
   59.4396   35.2299   46.1736 H   0  0  0  0  0  0  0  0  0  0  0  0
   60.7213   34.0910   47.9882 H   0  0  0  0  0  0  0  0  0  0  0  0
   60.5835   31.6103   48.2475 H   0  0  0  0  0  0  0  0  0  0  0  0
   59.1714   30.2661   46.6881 H   0  0  0  0  0  0  0  0  0  0  0  0
   59.6812   29.1806   44.8316 H   0  0  0  0  0  0  0  0  0  0  0  0
   59.6973   26.7859   45.5366 H   0  0  0  0  0  0  0  0  0  0  0  0
   57.5519   25.6217   46.0603 H   0  0  0  0  0  0  0  0  0  0  0  0
   55.3626   29.2466   45.1711 H   0  0  0  0  0  0  0  0  0  0  0  0
  1  2  2  0
  2  3  2  0
  2  4  1  0
  4  5  2  0
  5  6  1  0
  6  7  2  0
  7  8  1  0
  8  9  2  0
  2 10  1  0
 10 11  2  0
 11 12  1  0
 12 13  2  0
 13 14  1  0
 14 15  1  0
 14 16  2  0
  9  4  1  0
 16 10  1  0
  5 17  1  0
  6 18  1  0
  7 19  1  0
  8 20  1  0
  9 21  1  0
 11 22  1  0
 12 23  1  0
 13 24  1  0
 16 25  1  0
M  CHG  1  15  -1
M  END
>  <UniqueID>  (15) 
15

>  <SMILES>  (15) 
O=S(=O)(c1ccccc1)c1cccc([O-])c1

>  <Energy>  (15) 
27.82826503263597

>  <Genealogy>  (15) 
O=S(=O)(c1ccccc1)c1cccc([O-])c1 (protonated)
O=S(=O)(c1ccccc1)c1cccc([O-])c1 (3D coordinates assigned)
O=S(=O)(c1ccccc1)c1cccc([O-])c1 (optimized conformer: 27.82826503263597 kcal/mol)

>  <smiles>  (15) 
O=S(=O)(c1ccccc1)c1cccc(O)c1

>  <score_type>  (15) 
oracle

>  <origin>  (15) 
adg

>  <m_score__min__energy>  (15) 
-10.140000000000001

>  <m_primary>  (15) 
energy

$$$$
15:0
     RDKit          3D

 32 33  0  0  1  0  0  0  0  0999 V2000
   63.7740   33.1070   47.0530 C   0  0  0  0  0  0  0  0  0  0  0  0
   62.6110   33.5650   47.8590 C   0  0  0  0  0  0  0  0  0  0  0  0
   61.4550   33.7970   47.2410 N   0  0  0  0  0  0  0  0  0  0  0  0
   60.3810   34.2170   47.9650 C   0  0  0  0  0  0  0  0  0  0  0  0
   59.3010   34.4200   47.2970 N   0  0  0  0  0  0  0  0  0  0  0  0
   58.8520   33.3880   46.4240 C   0  0  0  0  0  0  0  0  0  0  0  0
   59.0990   32.0720   46.7650 C   0  0  0  0  0  0  0  0  0  0  0  0
   58.6740   31.0400   45.9370 C   0  0  0  0  0  0  0  0  0  0  0  0
   58.0060   31.2570   44.7700 C   0  0  0  0  0  0  0  0  0  0  0  0
   57.5590   30.2530   43.8770 N   0  0  0  0  0  0  0  0  0  0  0  0
   56.3370   29.5620   44.0720 C   0  0  0  0  0  0  0  0  0  0  0  0
   56.0390   29.1030   45.2250 N   0  0  0  0  0  0  0  0  0  0  0  0
   55.4480   29.3760   42.9610 N   0  0  0  0  0  0  0  0  0  0  0  0
   57.7610   32.5960   44.4370 C   0  0  0  0  0  0  0  0  0  0  0  0
   58.1760   33.6320   45.2480 C   0  0  0  0  0  0  0  0  0  0  0  0
   60.4870   34.3930   49.2940 N   0  0  0  0  0  0  0  0  0  0  0  0
   61.6570   34.1580   49.9240 C   0  0  0  0  0  0  0  0  0  0  0  0
   62.7770   33.7310   49.2340 C   0  0  0  0  0  0  0  0  0  0  0  0
   64.3100   33.4140   50.0110 Cl  0  0  0  0  0  0  0  0  0  0  0  0
   64.5837   32.7881   47.7259 H   0  0  0  0  0  0  0  0  0  0  0  0
   63.4702   32.2614   46.4185 H   0  0  0  0  0  0  0  0  0  0  0  0
   64.1283   33.9327   46.4185 H   0  0  0  0  0  0  0  0  0  0  0  0
   59.6350   31.8399   47.6971 H   0  0  0  0  0  0  0  0  0  0  0  0
   58.8862   30.0032   46.2370 H   0  0  0  0  0  0  0  0  0  0  0  0
   58.1460   30.0080   43.0250 H   0  0  0  0  0  0  0  0  0  0  0  0
   55.7680   29.7180   46.0100 H   0  0  0  0  0  0  0  0  0  0  0  0
   55.5250   28.4860   42.3990 H   0  0  0  0  0  0  0  0  0  0  0  0
   54.7340   30.0920   42.7000 H   0  0  0  0  0  0  0  0  0  0  0  0
   57.2241   32.8269   43.5051 H   0  0  0  0  0  0  0  0  0  0  0  0
   57.9639   34.6697   44.9512 H   0  0  0  0  0  0  0  0  0  0  0  0
   59.6770   34.7080   49.8340 H   0  0  0  0  0  0  0  0  0  0  0  0
   61.7214   34.3096   51.0116 H   0  0  0  0  0  0  0  0  0  0  0  0
  1  2  1  0
  2  3  2  0
  3  4  1  0
  4  5  2  0
  5  6  1  0
  6  7  2  0
  7  8  1  0
  8  9  2  0
  9 10  1  0
 10 11  1  0
 11 12  2  3
 11 13  1  0
  9 14  1  0
 14 15  2  0
  4 16  1  0
 16 17  1  0
 17 18  2  0
 18 19  1  0
 18  2  1  0
 15  6  1  0
  1 20  1  0
  1 21  1  0
  1 22  1  0
  7 23  1  0
  8 24  1  0
 10 25  1  0
 12 26  1  0
 13 27  1  0
 13 28  1  0
 14 29  1  0
 15 30  1  0
 16 31  1  0
 17 32  1  0
M  END
>  <smiles>  (16) 
Cc1nc(=Nc2ccc(NC(=N)N)cc2)[nH]cc1Cl

>  <score_type>  (16) 
oracle

>  <origin>  (16) 
adg

>  <m_score__min__energy>  (16) 
-7.7199999999999998

>  <m_primary>  (16) 
energy

$$$$
16:0
     RDKit          3D

 38 41  0  0  0  0  0  0  0  0999 V2000
   55.1550   29.2710   44.6290 O   0  0  0  0  0  0  0  0  0  0  0  0
   56.3190   29.6880   44.8810 C   0  0  0  0  0  0  0  0  0  0  0  0
   57.0260   29.1660   46.0090 N   0  0  0  0  0  0  0  0  0  0  0  0
   57.9210   28.0860   45.9190 N   0  0  0  0  0  0  0  0  0  0  0  0
   59.2690   28.0930   46.0100 C   0  0  0  0  0  0  0  0  0  0  0  0
   60.1520   29.3060   46.1240 C   0  0  0  0  0  0  0  0  0  0  0  0
   59.7380   30.2240   47.2410 C   0  0  0  0  0  0  0  0  0  0  0  0
   59.1450   29.8330   48.4380 C   0  0  0  0  0  0  0  0  0  0  0  0
   58.9000   30.9070   49.2200 N   0  0  0  0  0  0  0  0  0  0  0  0
   59.3160   31.9780   48.5220 C   0  0  0  0  0  0  0  0  0  0  0  0
   59.2700   33.3120   48.9210 C   0  0  0  0  0  0  0  0  0  0  0  0
   59.7560   34.2830   48.0270 C   0  0  0  0  0  0  0  0  0  0  0  0
   60.2680   33.9010   46.7670 C   0  0  0  0  0  0  0  0  0  0  0  0
   60.3030   32.5470   46.3910 C   0  0  0  0  0  0  0  0  0  0  0  0
   59.8220   31.6050   47.3020 C   0  0  0  0  0  0  0  0  0  0  0  0
   59.7460   26.8330   46.0860 N   0  0  0  0  0  0  0  0  0  0  0  0
   58.7030   26.0120   46.0760 N   0  0  0  0  0  0  0  0  0  0  0  0
   57.6040   26.7850   45.9970 C   0  0  0  0  0  0  0  0  0  0  0  0
   56.0770   26.1980   46.0190 S   0  0  0  0  0  0  0  0  0  0  0  0
   56.9480   30.7120   44.0170 C   0  0  0  0  0  0  0  0  0  0  0  0
   56.7930   30.6580   42.6180 C   0  0  0  0  0  0  0  0  0  0  0  0
   57.3520   31.6500   41.8070 C   0  0  0  0  0  0  0  0  0  0  0  0
   58.0710   32.7020   42.3780 C   0  0  0  0  0  0  0  0  0  0  0  0
   58.2320   32.7660   43.7640 C   0  0  0  0  0  0  0  0  0  0  0  0
   57.6720   31.7780   44.5810 C   0  0  0  0  0  0  0  0  0  0  0  0
   61.1845   28.9734   46.3065 H   0  0  0  0  0  0  0  0  0  0  0  0
   60.0655   29.8688   45.1829 H   0  0  0  0  0  0  0  0  0  0  0  0
   58.9086   28.7936   48.7096 H   0  0  0  0  0  0  0  0  0  0  0  0
   58.4770   30.9010   50.1750 H   0  0  0  0  0  0  0  0  0  0  0  0
   58.8665   33.5968   49.9039 H   0  0  0  0  0  0  0  0  0  0  0  0
   59.7373   35.3457   48.3105 H   0  0  0  0  0  0  0  0  0  0  0  0
   60.6423   34.6693   46.0745 H   0  0  0  0  0  0  0  0  0  0  0  0
   60.6966   32.2398   45.4109 H   0  0  0  0  0  0  0  0  0  0  0  0
   56.2293   29.8311   42.1614 H   0  0  0  0  0  0  0  0  0  0  0  0
   57.2250   31.6017   40.7154 H   0  0  0  0  0  0  0  0  0  0  0  0
   58.5105   33.4801   41.7365 H   0  0  0  0  0  0  0  0  0  0  0  0
   58.7997   33.5940   44.2136 H   0  0  0  0  0  0  0  0  0  0  0  0
   57.7988   31.8352   45.6722 H   0  0  0  0  0  0  0  0  0  0  0  0
  1  2  2  0
  2  3  1  0
  3  4  1  0
  4  5  1  0
  5  6  1  0
  6  7  1  0
  7  8  2  0
  8  9  1  0
  9 10  1  0
 10 11  2  0
 11 12  1  0
 12 13  2  0
 13 14  1  0
 14 15  2  0
  5 16  2  0
 16 17  1  0
 17 18  1  0
 18 19  2  0
  2 20  1  0
 20 21  2  0
 21 22  1  0
 22 23  2  0
 23 24  1  0
 24 25  2  0
 18  4  1  0
 25 20  1  0
 15  7  1  0
 15 10  1  0
  6 26  1  0
  6 27  1  0
  8 28  1  0
  9 29  1  0
 11 30  1  0
 12 31  1  0
 13 32  1  0
 14 33  1  0
 21 34  1  0
 22 35  1  0
 23 36  1  0
 24 37  1  0
 25 38  1  0
M  CHG  2   3  -1  17  -1
M  END
>  <UniqueID>  (17) 
16

>  <SMILES>  (17) 
O=C([N-]n1c(Cc2c[nH]c3ccccc23)n[n-]c1=S)c1ccccc1

>  <Energy>  (17) 
114.91686215840355

>  <Genealogy>  (17) 
O=C([N-]n1c(Cc2c[nH]c3ccccc23)n[n-]c1=S)c1ccccc1 (protonated)
O=C([N-]n1c(Cc2c[nH]c3ccccc23)n[n-]c1=S)c1ccccc1 (3D coordinates assigned)
O=C([N-]n1c(Cc2c[nH]c3ccccc23)n[n-]c1=S)c1ccccc1 (optimized conformer: 114.91686215840355 kcal/mol)

>  <smiles>  (17) 
O=C(Nn1c(Cc2c[nH]c3ccccc23)n[nH]c1=S)c1ccccc1

>  <score_type>  (17) 
oracle

>  <origin>  (17) 
adg

>  <m_score__min__energy>  (17) 
-11.31

>  <m_primary>  (17) 
energy

$$$$
17:0
     RDKit          3D

 51 54  0  0  0  0  0  0  0  0999 V2000
   58.8570   30.7080   49.4720 C   0  0  0  0  0  0  0  0  0  0  0  0
   58.9850   31.7010   48.3480 C   0  0  0  0  0  0  0  0  0  0  0  0
   59.3550   33.0230   48.6360 C   0  0  0  0  0  0  0  0  0  0  0  0
   59.4390   33.9430   47.6430 N   0  0  0  0  0  0  0  0  0  0  0  0
   59.1740   33.6050   46.3560 C   0  0  0  0  0  0  0  0  0  0  0  0
   59.2800   34.8150   45.0950 Cl  0  0  0  0  0  0  0  0  0  0  0  0
   58.8350   32.3300   46.0430 N   0  0  0  0  0  0  0  0  0  0  0  0
   58.7500   31.3620   46.9960 C   0  0  0  0  0  0  0  0  0  0  0  0
   58.3900   29.9930   46.5690 C   0  0  0  0  0  0  0  0  0  0  0  0
   57.3660   29.7750   45.6330 C   0  0  0  0  0  0  0  0  0  0  0  0
   57.0260   28.4740   45.2500 C   0  0  0  0  0  0  0  0  0  0  0  0
   57.6890   27.3770   45.8130 C   0  0  0  0  0  0  0  0  0  0  0  0
   57.3550   26.0460   45.3870 N   0  0  0  0  0  0  0  0  0  0  0  0
   57.7780   25.6250   44.0450 C   0  0  0  0  0  0  0  0  0  0  0  0
   57.5490   24.1500   43.8720 C   0  0  0  0  0  0  0  0  0  0  0  0
   56.5230   23.6850   43.0320 C   0  0  0  0  0  0  0  0  0  0  0  0
   56.3430   22.3140   42.8330 C   0  0  0  0  0  0  0  0  0  0  0  0
   57.1900   21.3970   43.4610 C   0  0  0  0  0  0  0  0  0  0  0  0
   58.2210   21.8510   44.2890 C   0  0  0  0  0  0  0  0  0  0  0  0
   58.4040   23.2220   44.4910 C   0  0  0  0  0  0  0  0  0  0  0  0
   56.8790   25.0820   46.3510 C   0  0  0  0  0  0  0  0  0  0  0  0
   57.5260   24.8870   47.4170 O   0  0  0  0  0  0  0  0  0  0  0  0
   55.6380   24.3130   46.1270 C   0  0  0  0  0  0  0  0  0  0  0  0
   55.6460   22.9190   46.3020 C   0  0  0  0  0  0  0  0  0  0  0  0
   54.4830   22.1730   46.0950 C   0  0  0  0  0  0  0  0  0  0  0  0
   53.2950   22.8110   45.7250 C   0  0  0  0  0  0  0  0  0  0  0  0
   52.1430   22.0540   45.5200 O   0  0  0  0  0  0  0  0  0  0  0  0
   53.2730   24.2030   45.5680 C   0  0  0  0  0  0  0  0  0  0  0  0
   54.4340   24.9550   45.7770 C   0  0  0  0  0  0  0  0  0  0  0  0
   54.3790   26.3400   45.6490 O   0  0  0  0  0  0  0  0  0  0  0  0
   58.7020   27.5920   46.7580 C   0  0  0  0  0  0  0  0  0  0  0  0
   59.0450   28.8910   47.1410 C   0  0  0  0  0  0  0  0  0  0  0  0
   58.9248   31.2342   50.4356 H   0  0  0  0  0  0  0  0  0  0  0  0
   57.8855   30.1969   49.4009 H   0  0  0  0  0  0  0  0  0  0  0  0
   59.6671   29.9673   49.4009 H   0  0  0  0  0  0  0  0  0  0  0  0
   59.5782   33.3151   49.6727 H   0  0  0  0  0  0  0  0  0  0  0  0
   56.8291   30.6315   45.1993 H   0  0  0  0  0  0  0  0  0  0  0  0
   56.2346   28.3118   44.5035 H   0  0  0  0  0  0  0  0  0  0  0  0
   57.1960   26.1748   43.2906 H   0  0  0  0  0  0  0  0  0  0  0  0
   58.8494   25.8407   43.9203 H   0  0  0  0  0  0  0  0  0  0  0  0
   55.8589   24.4034   42.5291 H   0  0  0  0  0  0  0  0  0  0  0  0
   55.5330   21.9557   42.1807 H   0  0  0  0  0  0  0  0  0  0  0  0
   57.0456   20.3179   43.3039 H   0  0  0  0  0  0  0  0  0  0  0  0
   58.8886   21.1289   44.7818 H   0  0  0  0  0  0  0  0  0  0  0  0
   59.2207   23.5761   45.1372 H   0  0  0  0  0  0  0  0  0  0  0  0
   56.5741   22.4116   46.6040 H   0  0  0  0  0  0  0  0  0  0  0  0
   54.5019   21.0807   46.2235 H   0  0  0  0  0  0  0  0  0  0  0  0
   51.4050   22.0150   46.2130 H   0  0  0  0  0  0  0  0  0  0  0  0
   52.3388   24.7068   45.2791 H   0  0  0  0  0  0  0  0  0  0  0  0
   59.2293   26.7338   47.2000 H   0  0  0  0  0  0  0  0  0  0  0  0
   59.8312   29.0509   47.8935 H   0  0  0  0  0  0  0  0  0  0  0  0
  1  2  1  0
  2  3  2  0
  3  4  1  0
  4  5  2  0
  5  6  1  0
  5  7  1  0
  7  8  2  0
  8  9  1  0
  9 10  2  0
 10 11  1  0
 11 12  2  0
 12 13  1  0
 13 14  1  0
 14 15  1  0
 15 16  2  0
 16 17  1  0
 17 18  2  0
 18 19  1  0
 19 20  2  0
 13 21  1  0
 21 22  2  0
 21 23  1  0
 23 24  2  0
 24 25  1  0
 25 26  2  0
 26 27  1  0
 26 28  1  0
 28 29  2  0
 29 30  1  0
 12 31  1  0
 31 32  2  0
  8  2  1  0
 32  9  1  0
 20 15  1  0
 29 23  1  0
  1 33  1  0
  1 34  1  0
  1 35  1  0
  3 36  1  0
 10 37  1  0
 11 38  1  0
 14 39  1  0
 14 40  1  0
 16 41  1  0
 17 42  1  0
 18 43  1  0
 19 44  1  0
 20 45  1  0
 24 46  1  0
 25 47  1  0
 27 48  1  0
 28 49  1  0
 31 50  1  0
 32 51  1  0
M  CHG  1  30  -1
M  END
>  <UniqueID>  (18) 
17

>  <SMILES>  (18) 
Cc1cnc(Cl)nc1-c1ccc(N(Cc2ccccc2)C(=O)c2ccc(O)cc2[O-])cc1

>  <Energy>  (18) 
73.92557500879613

>  <Genealogy>  (18) 
Cc1cnc(Cl)nc1-c1ccc(N(Cc2ccccc2)C(=O)c2ccc(O)cc2[O-])cc1 (protonated)
Cc1cnc(Cl)nc1-c1ccc(N(Cc2ccccc2)C(=O)c2ccc(O)cc2[O-])cc1 (3D coordinates assigned)
Cc1cnc(Cl)nc1-c1ccc(N(Cc2ccccc2)C(=O)c2ccc(O)cc2[O-])cc1 (optimized conformer: 73.92557500879613 kcal/mol)

>  <smiles>  (18) 
Cc1cnc(Cl)nc1-c1ccc(N(Cc2ccccc2)C(=O)c2ccc(O)cc2O)cc1

>  <score_type>  (18) 
oracle

>  <origin>  (18) 
adg

>  <m_score__min__energy>  (18) 
-12.84

>  <m_primary>  (18) 
energy

$$$$
18:0
     RDKit          3D

 35 36  0  0  0  0  0  0  0  0999 V2000
   57.0190   21.0700   43.0000 C   0  0  0  0  0  0  0  0  0  0  0  0
   55.9290   21.6090   43.7390 O   0  0  0  0  0  0  0  0  0  0  0  0
   55.9330   22.8690   44.3550 C   0  0  0  0  0  0  0  0  0  0  0  0
   54.7470   23.5630   44.6590 C   0  0  0  0  0  0  0  0  0  0  0  0
   54.8030   24.8230   45.2610 C   0  0  0  0  0  0  0  0  0  0  0  0
   56.0410   25.4130   45.5680 C   0  0  0  0  0  0  0  0  0  0  0  0
   56.1160   26.6910   46.2180 N   0  0  0  0  0  0  0  0  0  0  0  0
   56.4310   27.9470   45.6050 C   0  0  0  0  0  0  0  0  0  0  0  0
   55.5330   28.6520   45.0700 O   0  0  0  0  0  0  0  0  0  0  0  0
   57.8630   28.3690   45.5050 C   0  0  0  0  0  0  0  0  0  0  0  0
   57.9470   29.8640   45.3690 C   0  0  0  0  0  0  0  0  0  0  0  0
   57.7240   30.4790   44.1270 C   0  0  0  0  0  0  0  0  0  0  0  0
   57.8450   31.8640   43.9960 C   0  0  0  0  0  0  0  0  0  0  0  0
   58.1950   32.6520   45.0980 C   0  0  0  0  0  0  0  0  0  0  0  0
   58.3560   34.3890   44.8850 Cl  0  0  0  0  0  0  0  0  0  0  0  0
   58.4310   32.0430   46.3430 C   0  0  0  0  0  0  0  0  0  0  0  0
   58.8970   32.9910   47.7510 Cl  0  0  0  0  0  0  0  0  0  0  0  0
   58.3120   30.6540   46.4720 C   0  0  0  0  0  0  0  0  0  0  0  0
   57.2310   24.7090   45.2930 C   0  0  0  0  0  0  0  0  0  0  0  0
   58.5680   25.3190   45.6140 C   0  0  0  0  0  0  0  0  0  0  0  0
   57.1660   23.4480   44.6770 C   0  0  0  0  0  0  0  0  0  0  0  0
   57.7827   20.6924   43.6958 H   0  0  0  0  0  0  0  0  0  0  0  0
   56.6604   20.2454   42.3664 H   0  0  0  0  0  0  0  0  0  0  0  0
   57.4566   21.8556   42.3664 H   0  0  0  0  0  0  0  0  0  0  0  0
   53.7722   23.1120   44.4219 H   0  0  0  0  0  0  0  0  0  0  0  0
   53.8707   25.3572   45.4964 H   0  0  0  0  0  0  0  0  0  0  0  0
   58.4002   28.0544   46.4119 H   0  0  0  0  0  0  0  0  0  0  0  0
   58.3186   27.8985   44.6212 H   0  0  0  0  0  0  0  0  0  0  0  0
   57.4529   29.8676   43.2537 H   0  0  0  0  0  0  0  0  0  0  0  0
   57.6640   32.3385   43.0203 H   0  0  0  0  0  0  0  0  0  0  0  0
   58.5058   30.1776   47.4444 H   0  0  0  0  0  0  0  0  0  0  0  0
   58.6926   25.3758   46.7054 H   0  0  0  0  0  0  0  0  0  0  0  0
   59.3674   24.6965   45.1856 H   0  0  0  0  0  0  0  0  0  0  0  0
   58.6218   26.3307   45.1856 H   0  0  0  0  0  0  0  0  0  0  0  0
   58.0962   22.9087   44.4447 H   0  0  0  0  0  0  0  0  0  0  0  0
  1  2  1  0
  2  3  1  0
  3  4  2  0
  4  5  1  0
  5  6  2  0
  6  7  1  0
  7  8  1  0
  8  9  2  0
  8 10  1  0
 10 11  1  0
 11 12  2  0
 12 13  1  0
 13 14  2  0
 14 15  1  0
 14 16  1  0
 16 17  1  0
 16 18  2  0
  6 19  1  0
 19 20  1  0
 19 21  2  0
 21  3  1  0
 18 11  1  0
  1 22  1  0
  1 23  1  0
  1 24  1  0
  4 25  1  0
  5 26  1  0
 10 27  1  0
 10 28  1  0
 12 29  1  0
 13 30  1  0
 18 31  1  0
 20 32  1  0
 20 33  1  0
 20 34  1  0
 21 35  1  0
M  CHG  1   7  -1
M  END
>  <UniqueID>  (19) 
18

>  <SMILES>  (19) 
COc1ccc([N-]C(=O)Cc2ccc(Cl)c(Cl)c2)c(C)c1

>  <Energy>  (19) 
36.64871555604303

>  <Genealogy>  (19) 
COc1ccc([N-]C(=O)Cc2ccc(Cl)c(Cl)c2)c(C)c1 (protonated)
COc1ccc([N-]C(=O)Cc2ccc(Cl)c(Cl)c2)c(C)c1 (3D coordinates assigned)
COc1ccc([N-]C(=O)Cc2ccc(Cl)c(Cl)c2)c(C)c1 (optimized conformer: 36.64871555604303 kcal/mol)

>  <smiles>  (19) 
COc1ccc(NC(=O)Cc2ccc(Cl)c(Cl)c2)c(C)c1

>  <score_type>  (19) 
oracle

>  <origin>  (19) 
adg

>  <m_score__min__energy>  (19) 
-9.6400000000000006

>  <m_primary>  (19) 
energy

$$$$
19:0
     RDKit          3D

 49 52  0  0  0  0  0  0  0  0999 V2000
   57.7400   33.5730   44.5190 C   0  0  0  0  0  0  0  0  0  0  0  0
   56.9430   32.4610   44.9120 O   0  0  0  0  0  0  0  0  0  0  0  0
   57.1940   31.1300   44.5400 C   0  0  0  0  0  0  0  0  0  0  0  0
   56.4000   30.4580   43.5940 C   0  0  0  0  0  0  0  0  0  0  0  0
   56.6780   29.1330   43.2470 C   0  0  0  0  0  0  0  0  0  0  0  0
   57.7550   28.4500   43.8360 C   0  0  0  0  0  0  0  0  0  0  0  0
   58.0490   27.0450   43.4660 C   0  0  0  0  0  0  0  0  0  0  0  0
   58.1940   26.7310   42.2530 O   0  0  0  0  0  0  0  0  0  0  0  0
   58.1130   26.0340   44.4830 N   0  0  0  0  0  0  0  0  0  0  0  0
   57.3170   24.8400   44.5600 C   0  0  0  0  0  0  0  0  0  0  0  0
   57.7540   23.6520   43.9430 C   0  0  0  0  0  0  0  0  0  0  0  0
   57.0020   22.4820   44.0430 C   0  0  0  0  0  0  0  0  0  0  0  0
   55.8150   22.4730   44.7700 C   0  0  0  0  0  0  0  0  0  0  0  0
   55.0680   21.3050   44.8670 O   0  0  0  0  0  0  0  0  0  0  0  0
   55.3770   23.6350   45.4090 C   0  0  0  0  0  0  0  0  0  0  0  0
   56.1200   24.8310   45.3220 C   0  0  0  0  0  0  0  0  0  0  0  0
   55.6150   26.0450   46.0220 C   0  0  0  0  0  0  0  0  0  0  0  0
   54.3910   26.3410   45.9760 O   0  0  0  0  0  0  0  0  0  0  0  0
   56.4690   26.8790   46.7330 O   0  0  0  0  0  0  0  0  0  0  0  0
   58.5510   29.1220   44.7800 C   0  0  0  0  0  0  0  0  0  0  0  0
   58.2730   30.4500   45.1310 C   0  0  0  0  0  0  0  0  0  0  0  0
   59.1060   31.1120   46.1040 C   0  0  0  0  0  0  0  0  0  0  0  0
   59.8030   31.6650   46.9170 C   0  0  0  0  0  0  0  0  0  0  0  0
   60.6350   32.3250   47.8870 C   0  0  0  0  0  0  0  0  0  0  0  0
   60.0810   33.2770   48.7520 C   0  0  0  0  0  0  0  0  0  0  0  0
   60.8820   33.9230   49.6980 C   0  0  0  0  0  0  0  0  0  0  0  0
   62.2500   33.6200   49.7870 C   0  0  0  0  0  0  0  0  0  0  0  0
   63.0650   34.2620   50.7320 C   0  0  0  0  0  0  0  0  0  0  0  0
   64.4260   33.9520   50.8110 C   0  0  0  0  0  0  0  0  0  0  0  0
   64.9820   33.0020   49.9500 C   0  0  0  0  0  0  0  0  0  0  0  0
   64.1810   32.3560   49.0040 C   0  0  0  0  0  0  0  0  0  0  0  0
   62.8130   32.6580   48.9140 C   0  0  0  0  0  0  0  0  0  0  0  0
   61.9990   32.0160   47.9680 C   0  0  0  0  0  0  0  0  0  0  0  0
   58.1121   34.0922   45.4146 H   0  0  0  0  0  0  0  0  0  0  0  0
   58.5919   33.2199   43.9194 H   0  0  0  0  0  0  0  0  0  0  0  0
   57.1319   34.2663   43.9194 H   0  0  0  0  0  0  0  0  0  0  0  0
   55.5534   30.9792   43.1233 H   0  0  0  0  0  0  0  0  0  0  0  0
   56.0475   28.6202   42.5057 H   0  0  0  0  0  0  0  0  0  0  0  0
   58.6972   23.6469   43.3770 H   0  0  0  0  0  0  0  0  0  0  0  0
   57.3478   21.5636   43.5460 H   0  0  0  0  0  0  0  0  0  0  0  0
   54.4413   23.6174   45.9871 H   0  0  0  0  0  0  0  0  0  0  0  0
   59.3996   28.6008   45.2473 H   0  0  0  0  0  0  0  0  0  0  0  0
   59.0096   33.5177   48.6866 H   0  0  0  0  0  0  0  0  0  0  0  0
   60.4399   34.6699   50.3738 H   0  0  0  0  0  0  0  0  0  0  0  0
   62.6322   35.0106   51.4119 H   0  0  0  0  0  0  0  0  0  0  0  0
   65.0612   34.4575   51.5533 H   0  0  0  0  0  0  0  0  0  0  0  0
   66.0534   32.7618   50.0170 H   0  0  0  0  0  0  0  0  0  0  0  0
   64.6236   31.6092   48.3285 H   0  0  0  0  0  0  0  0  0  0  0  0
   62.4332   31.2681   47.2882 H   0  0  0  0  0  0  0  0  0  0  0  0
  1  2  1  0
  2  3  1  0
  3  4  2  0
  4  5  1  0
  5  6  2  0
  6  7  1  0
  7  8  2  0
  7  9  1  0
  9 10  1  0
 10 11  2  0
 11 12  1  0
 12 13  2  0
 13 14  1  0
 13 15  1  0
 15 16  2  0
 16 17  1  0
 17 18  2  0
 17 19  1  0
  6 20  1  0
 20 21  2  0
 21 22  1  0
 22 23  3  0
 23 24  1  0
 24 25  2  0
 25 26  1  0
 26 27  2  0
 27 28  1  0
 28 29  2  0
 29 30  1  0
 30 31  2  0
 31 32  1  0
 32 33  2  0
 21  3  1  0
 33 24  1  0
 16 10  1  0
 32 27  1  0
  1 34  1  0
  1 35  1  0
  1 36  1  0
  4 37  1  0
  5 38  1  0
 11 39  1  0
 12 40  1  0
 15 41  1  0
 20 42  1  0
 25 43  1  0
 26 44  1  0
 28 45  1  0
 29 46  1  0
 30 47  1  0
 31 48  1  0
 33 49  1  0
M  CHG  3   9  -1  14  -1  19  -1
M  END
>  <UniqueID>  (20) 
19

>  <SMILES>  (20) 
COc1ccc(C(=O)[N-]c2ccc([O-])cc2C(=O)[O-])cc1C#Cc1ccc2ccccc2c1

>  <Energy>  (20) 
60.61946352246015

>  <Genealogy>  (20) 
COc1ccc(C(=O)[N-]c2ccc([O-])cc2C(=O)[O-])cc1C#Cc1ccc2ccccc2c1 (protonated)
COc1ccc(C(=O)[N-]c2ccc([O-])cc2C(=O)[O-])cc1C#Cc1ccc2ccccc2c1 (3D coordinates assigned)
COc1ccc(C(=O)[N-]c2ccc([O-])cc2C(=O)[O-])cc1C#Cc1ccc2ccccc2c1 (optimized conformer: 60.61946352246015 kcal/mol)

>  <smiles>  (20) 
COc1ccc(C(=O)Nc2ccc(O)cc2C(=O)O)cc1C#Cc1ccc2ccccc2c1

>  <score_type>  (20) 
oracle

>  <origin>  (20) 
adg

>  <m_score__min__energy>  (20) 
-14.93

>  <m_primary>  (20) 
energy

$$$$
20:0
     RDKit          3D

 45 48  0  0  0  0  0  0  0  0999 V2000
   57.0080   34.5260   44.8670 S   0  0  0  0  0  0  0  0  0  0  0  0
   57.6650   33.1040   45.3720 C   0  0  0  0  0  0  0  0  0  0  0  0
   57.3750   31.9530   44.6320 C   0  0  0  0  0  0  0  0  0  0  0  0
   57.9060   30.7270   45.0170 C   0  0  0  0  0  0  0  0  0  0  0  0
   58.7290   30.6410   46.1450 C   0  0  0  0  0  0  0  0  0  0  0  0
   59.3070   29.3400   46.5660 C   0  0  0  0  0  0  0  0  0  0  0  0
   59.5440   28.3230   45.6220 C   0  0  0  0  0  0  0  0  0  0  0  0
   60.0890   27.0980   46.0220 C   0  0  0  0  0  0  0  0  0  0  0  0
   60.4020   26.8750   47.3650 C   0  0  0  0  0  0  0  0  0  0  0  0
   60.1720   27.8760   48.3110 C   0  0  0  0  0  0  0  0  0  0  0  0
   59.6280   29.1030   47.9170 C   0  0  0  0  0  0  0  0  0  0  0  0
   58.9990   31.8160   46.8670 C   0  0  0  0  0  0  0  0  0  0  0  0
   58.4740   33.0240   46.4870 N   0  0  0  0  0  0  0  0  0  0  0  0
   58.8350   34.2160   47.2810 C   0  0  0  0  0  0  0  0  0  0  0  0
   60.1530   34.0120   47.9830 C   0  0  0  0  0  0  0  0  0  0  0  0
   61.3340   33.8640   47.2390 C   0  0  0  0  0  0  0  0  0  0  0  0
   62.5600   33.6840   47.8840 C   0  0  0  0  0  0  0  0  0  0  0  0
   62.6290   33.6440   49.2880 C   0  0  0  0  0  0  0  0  0  0  0  0
   63.9320   33.4540   49.9750 C   0  0  0  0  0  0  0  0  0  0  0  0
   64.8950   32.5690   49.4540 C   0  0  0  0  0  0  0  0  0  0  0  0
   66.1200   32.3930   50.1040 C   0  0  0  0  0  0  0  0  0  0  0  0
   66.3980   33.0950   51.2790 C   0  0  0  0  0  0  0  0  0  0  0  0
   65.4510   33.9750   51.8070 C   0  0  0  0  0  0  0  0  0  0  0  0
   64.2240   34.1560   51.1600 C   0  0  0  0  0  0  0  0  0  0  0  0
   61.4420   33.7840   50.0310 C   0  0  0  0  0  0  0  0  0  0  0  0
   60.2170   33.9640   49.3830 C   0  0  0  0  0  0  0  0  0  0  0  0
   56.7269   32.0178   43.7456 H   0  0  0  0  0  0  0  0  0  0  0  0
   57.6785   29.8228   44.4334 H   0  0  0  0  0  0  0  0  0  0  0  0
   59.2992   28.4925   44.5631 H   0  0  0  0  0  0  0  0  0  0  0  0
   60.2713   26.3090   45.2775 H   0  0  0  0  0  0  0  0  0  0  0  0
   60.8297   25.9109   47.6773 H   0  0  0  0  0  0  0  0  0  0  0  0
   60.4191   27.6993   49.3682 H   0  0  0  0  0  0  0  0  0  0  0  0
   59.4497   29.8878   48.6669 H   0  0  0  0  0  0  0  0  0  0  0  0
   59.6452   31.7654   47.7557 H   0  0  0  0  0  0  0  0  0  0  0  0
   58.9137   35.0851   46.6114 H   0  0  0  0  0  0  0  0  0  0  0  0
   58.0548   34.3853   48.0377 H   0  0  0  0  0  0  0  0  0  0  0  0
   61.2938   33.8899   46.1400 H   0  0  0  0  0  0  0  0  0  0  0  0
   63.4785   33.5727   47.2891 H   0  0  0  0  0  0  0  0  0  0  0  0
   64.6821   32.0124   48.5294 H   0  0  0  0  0  0  0  0  0  0  0  0
   66.8667   31.7000   49.6891 H   0  0  0  0  0  0  0  0  0  0  0  0
   67.3628   32.9547   51.7884 H   0  0  0  0  0  0  0  0  0  0  0  0
   65.6702   34.5267   52.7331 H   0  0  0  0  0  0  0  0  0  0  0  0
   63.4823   34.8514   51.5799 H   0  0  0  0  0  0  0  0  0  0  0  0
   61.4787   33.7515   51.1299 H   0  0  0  0  0  0  0  0  0  0  0  0
   59.2962   34.0688   49.9755 H   0  0  0  0  0  0  0  0  0  0  0  0
  1  2  2  0
  2  3  1  0
  3  4  2  0
  4  5  1  0
  5  6  1  0
  6  7  2  0
  7  8  1  0
  8  9  2  0
  9 10  1  0
 10 11  2  0
  5 12  2  0
 12 13  1  0
 13 14  1  0
 14 15  1  0
 15 16  2  0
 16 17  1  0
 17 18  2  0
 18 19  1  0
 19 20  2  0
 20 21  1  0
 21 22  2  0
 22 23  1  0
 23 24  2  0
 18 25  1  0
 25 26  2  0
 13  2  1  0
 26 15  1  0
 11  6  1  0
 24 19  1  0
  3 27  1  0
  4 28  1  0
  7 29  1  0
  8 30  1  0
  9 31  1  0
 10 32  1  0
 11 33  1  0
 12 34  1  0
 14 35  1  0
 14 36  1  0
 16 37  1  0
 17 38  1  0
 20 39  1  0
 21 40  1  0
 22 41  1  0
 23 42  1  0
 24 43  1  0
 25 44  1  0
 26 45  1  0
M  END
>  <UniqueID>  (21) 
20

>  <SMILES>  (21) 
S=c1ccc(-c2ccccc2)cn1Cc1ccc(-c2ccccc2)cc1

>  <Energy>  (21) 
64.31576178982395

>  <Genealogy>  (21) 
S=c1ccc(-c2ccccc2)cn1Cc1ccc(-c2ccccc2)cc1 (3D coordinates assigned)
S=c1ccc(-c2ccccc2)cn1Cc1ccc(-c2ccccc2)cc1 (optimized conformer: 64.31576178982395 kcal/mol)

>  <smiles>  (21) 
S=c1ccc(-c2ccccc2)cn1Cc1ccc(-c2ccccc2)cc1

>  <score_type>  (21) 
oracle

>  <origin>  (21) 
adg

>  <m_score__min__energy>  (21) 
-8.25

>  <m_primary>  (21) 
energy

$$$$
21:0
     RDKit          3D

 49 51  0  0  0  0  0  0  0  0999 V2000
   58.0670   21.9930   44.1430 C   0  0  0  0  0  0  0  0  0  0  0  0
   56.6690   22.4880   43.9350 C   0  0  0  0  0  0  0  0  0  0  0  0
   55.9850   22.0050   42.9960 O   0  0  0  0  0  0  0  0  0  0  0  0
   56.0980   23.5230   44.7470 N   0  0  0  0  0  0  0  0  0  0  0  0
   56.5850   24.8640   44.8950 C   0  0  0  0  0  0  0  0  0  0  0  0
   57.4270   25.3920   43.9080 C   0  0  0  0  0  0  0  0  0  0  0  0
   57.8950   26.7060   44.0050 C   0  0  0  0  0  0  0  0  0  0  0  0
   57.5110   27.5120   45.0840 C   0  0  0  0  0  0  0  0  0  0  0  0
   58.0690   29.1780   45.2120 S   0  0  0  0  0  0  0  0  0  0  0  0
   58.5830   29.4060   46.6060 O   0  0  0  0  0  0  0  0  0  0  0  0
   59.1890   29.4180   44.2360 O   0  0  0  0  0  0  0  0  0  0  0  0
   56.7320   30.2500   44.8750 N   0  0  0  0  0  0  0  0  0  0  0  0
   55.8290   29.6550   43.8820 C   0  0  0  0  0  0  0  0  0  0  0  0
   57.1750   31.6120   44.5050 C   0  0  0  0  0  0  0  0  0  0  0  0
   57.9590   32.3150   45.5850 C   0  0  0  0  0  0  0  0  0  0  0  0
   57.4250   33.2680   46.2140 O   0  0  0  0  0  0  0  0  0  0  0  0
   59.2880   31.8780   45.9120 N   0  0  0  0  0  0  0  0  0  0  0  0
   60.1480   32.5490   46.8480 C   0  0  0  0  0  0  0  0  0  0  0  0
   59.6710   33.6810   47.5320 C   0  0  0  0  0  0  0  0  0  0  0  0
   60.4770   34.3380   48.4690 C   0  0  0  0  0  0  0  0  0  0  0  0
   61.7580   33.8530   48.7430 C   0  0  0  0  0  0  0  0  0  0  0  0
   62.2450   32.7300   48.0640 C   0  0  0  0  0  0  0  0  0  0  0  0
   61.4390   32.0650   47.1350 C   0  0  0  0  0  0  0  0  0  0  0  0
   63.5420   32.2810   48.3340 O   0  0  0  0  0  0  0  0  0  0  0  0
   64.4660   33.0940   49.0630 C   0  0  0  0  0  0  0  0  0  0  0  0
   63.7450   33.8350   50.1970 C   0  0  0  0  0  0  0  0  0  0  0  0
   62.5670   34.4730   49.7010 O   0  0  0  0  0  0  0  0  0  0  0  0
   56.6430   27.0000   46.0560 C   0  0  0  0  0  0  0  0  0  0  0  0
   56.1760   25.6850   45.9600 C   0  0  0  0  0  0  0  0  0  0  0  0
   58.2735   21.9199   45.2210 H   0  0  0  0  0  0  0  0  0  0  0  0
   58.1774   21.0011   43.6804 H   0  0  0  0  0  0  0  0  0  0  0  0
   58.7770   22.6944   43.6804 H   0  0  0  0  0  0  0  0  0  0  0  0
   57.7220   24.7688   43.0509 H   0  0  0  0  0  0  0  0  0  0  0  0
   58.5665   27.1077   43.2319 H   0  0  0  0  0  0  0  0  0  0  0  0
   55.0178   29.1205   44.3979 H   0  0  0  0  0  0  0  0  0  0  0  0
   55.4022   30.4493   43.2521 H   0  0  0  0  0  0  0  0  0  0  0  0
   56.3905   28.9494   43.2521 H   0  0  0  0  0  0  0  0  0  0  0  0
   57.8090   31.5384   43.6091 H   0  0  0  0  0  0  0  0  0  0  0  0
   56.2662   32.2070   44.3320 H   0  0  0  0  0  0  0  0  0  0  0  0
   59.6180   30.9700   45.5120 H   0  0  0  0  0  0  0  0  0  0  0  0
   58.6560   34.0534   47.3291 H   0  0  0  0  0  0  0  0  0  0  0  0
   60.1030   35.2330   48.9877 H   0  0  0  0  0  0  0  0  0  0  0  0
   61.8134   31.1634   46.6281 H   0  0  0  0  0  0  0  0  0  0  0  0
   65.2529   32.4549   49.4900 H   0  0  0  0  0  0  0  0  0  0  0  0
   64.9096   33.8323   48.3788 H   0  0  0  0  0  0  0  0  0  0  0  0
   63.4656   33.1155   50.9807 H   0  0  0  0  0  0  0  0  0  0  0  0
   64.4191   34.5994   50.6108 H   0  0  0  0  0  0  0  0  0  0  0  0
   56.3273   27.6339   46.8978 H   0  0  0  0  0  0  0  0  0  0  0  0
   55.4859   25.2918   46.7210 H   0  0  0  0  0  0  0  0  0  0  0  0
  1  2  1  0
  2  3  2  0
  2  4  1  0
  4  5  1  0
  5  6  2  0
  6  7  1  0
  7  8  2  0
  8  9  1  0
  9 10  2  0
  9 11  2  0
  9 12  1  0
 12 13  1  0
 12 14  1  0
 14 15  1  0
 15 16  2  0
 15 17  1  0
 17 18  1  0
 18 19  2  0
 19 20  1  0
 20 21  2  0
 21 22  1  0
 22 23  2  0
 22 24  1  0
 24 25  1  0
 25 26  1  0
 26 27  1  0
  8 28  1  0
 28 29  2  0
 29  5  1  0
 23 18  1  0
 27 21  1  0
  1 30  1  0
  1 31  1  0
  1 32  1  0
  6 33  1  0
  7 34  1  0
 13 35  1  0
 13 36  1  0
 13 37  1  0
 14 38  1  0
 14 39  1  0
 17 40  1  0
 19 41  1  0
 20 42  1  0
 23 43  1  0
 25 44  1  0
 25 45  1  0
 26 46  1  0
 26 47  1  0
 28 48  1  0
 29 49  1  0
M  CHG  1   4  -1
M  END
>  <UniqueID>  (22) 
21

>  <SMILES>  (22) 
CC(=O)[N-]c1ccc(S(=O)(=O)N(C)CC(=O)Nc2ccc3c(c2)OCCO3)cc1

>  <Energy>  (22) 
58.89945167492977

>  <Genealogy>  (22) 
CC(=O)[N-]c1ccc(S(=O)(=O)N(C)CC(=O)Nc2ccc3c(c2)OCCO3)cc1 (protonated)
CC(=O)[N-]c1ccc(S(=O)(=O)N(C)CC(=O)Nc2ccc3c(c2)OCCO3)cc1 (3D coordinates assigned)
CC(=O)[N-]c1ccc(S(=O)(=O)N(C)CC(=O)Nc2ccc3c(c2)OCCO3)cc1 (nonaromatic ring conformer: 58.89945167492977 kcal/mol)

>  <smiles>  (22) 
CC(=O)Nc1ccc(S(=O)(=O)N(C)CC(=O)Nc2ccc3c(c2)OCCO3)cc1

>  <score_type>  (22) 
oracle

>  <origin>  (22) 
adg

>  <m_score__min__energy>  (22) 
-9.8499999999999996

>  <m_primary>  (22) 
energy

$$$$
22:0
     RDKit          3D

 21 22  0  0  0  0  0  0  0  0999 V2000
   58.9960   34.5380   47.1320 C   0  0  0  0  0  0  0  0  0  0  0  0
   59.3510   34.8970   45.8410 C   0  0  0  0  0  0  0  0  0  0  0  0
   58.8250   34.1400   44.8140 C   0  0  0  0  0  0  0  0  0  0  0  0
   57.9850   33.0790   45.0880 C   0  0  0  0  0  0  0  0  0  0  0  0
   57.4390   32.2860   43.9370 C   0  0  0  0  0  0  0  0  0  0  0  0
   56.9210   30.9770   44.3950 C   0  0  0  0  0  0  0  0  0  0  0  0
   55.7230   30.3850   44.0240 C   0  0  0  0  0  0  0  0  0  0  0  0
   55.5820   29.2040   44.6340 N   0  0  0  0  0  0  0  0  0  0  0  0
   56.6860   29.0120   45.4090 C   0  0  0  0  0  0  0  0  0  0  0  0
   57.4820   30.0910   45.2530 N   0  0  0  0  0  0  0  0  0  0  0  0
   57.6550   32.7500   46.3610 N   0  0  0  0  0  0  0  0  0  0  0  0
   58.1570   33.4770   47.3920 C   0  0  0  0  0  0  0  0  0  0  0  0
   59.3971   35.1189   47.9756 H   0  0  0  0  0  0  0  0  0  0  0  0
   60.0214   35.7466   45.6441 H   0  0  0  0  0  0  0  0  0  0  0  0
   59.0764   34.3833   43.7711 H   0  0  0  0  0  0  0  0  0  0  0  0
   56.6218   32.8516   43.4656 H   0  0  0  0  0  0  0  0  0  0  0  0
   58.2506   32.1096   43.2157 H   0  0  0  0  0  0  0  0  0  0  0  0
   54.9935   30.8243   43.3277 H   0  0  0  0  0  0  0  0  0  0  0  0
   54.7570   28.5760   44.5070 H   0  0  0  0  0  0  0  0  0  0  0  0
   56.8910   28.1382   46.0450 H   0  0  0  0  0  0  0  0  0  0  0  0
   57.8952   33.2201   48.4290 H   0  0  0  0  0  0  0  0  0  0  0  0
  1  2  2  0
  2  3  1  0
  3  4  2  0
  4  5  1  0
  5  6  1  0
  6  7  2  0
  7  8  1  0
  8  9  1  0
  9 10  2  0
  4 11  1  0
 11 12  2  0
 12  1  1  0
 10  6  1  0
  1 13  1  0
  2 14  1  0
  3 15  1  0
  5 16  1  0
  5 17  1  0
  7 18  1  0
  8 19  1  0
  9 20  1  0
 12 21  1  0
M  END
>  <smiles>  (23) 
c1ccc(Cc2c[nH]cn2)nc1

>  <score_type>  (23) 
oracle

>  <origin>  (23) 
adg

>  <m_score__min__energy>  (23) 
-5.5700000000000003

>  <m_primary>  (23) 
energy

$$$$
23:0
     RDKit          3D

 40 41  0  0  0  0  0  0  0  0999 V2000
   59.9107   34.2445   49.1597 H   0  0  0  0  0  0  0  0  0  0  0  0
   59.9430   33.5050   48.3460 C   0  0  0  0  0  0  0  0  0  0  0  0
   60.7240   32.4190   48.5240 C   0  0  0  0  0  0  0  0  0  0  0  0
   60.4280   31.1070   47.9000 C   0  0  0  0  0  0  0  0  0  0  0  0
   60.3110   30.0880   48.6330 O   0  0  0  0  0  0  0  0  0  0  0  0
   60.3250   30.9790   46.4740 N   0  0  0  0  0  0  0  0  0  0  0  0
   60.5580   31.7960   45.8660 H   0  0  0  0  0  0  0  0  0  0  0  0
   59.9400   29.7280   45.8260 C   0  0  0  0  0  0  0  0  0  0  0  0
   60.6992   29.4588   45.0769 H   0  0  0  0  0  0  0  0  0  0  0  0
   59.8659   28.9384   46.5882 H   0  0  0  0  0  0  0  0  0  0  0  0
   58.6060   29.8800   45.1480 C   0  0  0  0  0  0  0  0  0  0  0  0
   58.4330   30.8550   44.1510 C   0  0  0  0  0  0  0  0  0  0  0  0
   59.2694   31.5160   43.8799 H   0  0  0  0  0  0  0  0  0  0  0  0
   57.2010   30.9880   43.5020 C   0  0  0  0  0  0  0  0  0  0  0  0
   57.0694   31.7553   42.7248 H   0  0  0  0  0  0  0  0  0  0  0  0
   56.1370   30.1470   43.8400 C   0  0  0  0  0  0  0  0  0  0  0  0
   55.1685   30.2536   43.3295 H   0  0  0  0  0  0  0  0  0  0  0  0
   56.3030   29.1710   44.8260 C   0  0  0  0  0  0  0  0  0  0  0  0
   55.4656   28.5079   45.0889 H   0  0  0  0  0  0  0  0  0  0  0  0
   57.5320   29.0360   45.4790 C   0  0  0  0  0  0  0  0  0  0  0  0
   57.6588   28.2664   46.2546 H   0  0  0  0  0  0  0  0  0  0  0  0
   61.9910   32.5580   49.3320 C   0  0  0  0  0  0  0  0  0  0  0  0
   62.5087   31.5877   49.3541 H   0  0  0  0  0  0  0  0  0  0  0  0
   61.7180   32.8805   50.3476 H   0  0  0  0  0  0  0  0  0  0  0  0
   63.1130   33.8140   48.6140 S   0  0  0  0  0  0  0  0  0  0  0  0
   63.4380   32.9160   47.0620 C   0  0  0  0  0  0  0  0  0  0  0  0
   63.8040   31.9048   47.2932 H   0  0  0  0  0  0  0  0  0  0  0  0
   62.5086   32.8449   46.4780 H   0  0  0  0  0  0  0  0  0  0  0  0
   64.1976   33.4562   46.4780 H   0  0  0  0  0  0  0  0  0  0  0  0
   59.1260   33.7800   47.1420 C   0  0  0  0  0  0  0  0  0  0  0  0
   57.8260   33.2570   47.0630 C   0  0  0  0  0  0  0  0  0  0  0  0
   57.4206   32.6690   47.8996 H   0  0  0  0  0  0  0  0  0  0  0  0
   57.0440   33.4800   45.9260 C   0  0  0  0  0  0  0  0  0  0  0  0
   56.0201   33.0810   45.8767 H   0  0  0  0  0  0  0  0  0  0  0  0
   57.5610   34.2090   44.8520 C   0  0  0  0  0  0  0  0  0  0  0  0
   56.9415   34.3895   43.9612 H   0  0  0  0  0  0  0  0  0  0  0  0
   58.8650   34.7090   44.9090 C   0  0  0  0  0  0  0  0  0  0  0  0
   59.2736   35.2768   44.0601 H   0  0  0  0  0  0  0  0  0  0  0  0
   59.6500   34.4880   46.0440 C   0  0  0  0  0  0  0  0  0  0  0  0
   60.6814   34.8688   46.0794 H   0  0  0  0  0  0  0  0  0  0  0  0
  1  2  1  0
  2  3  2  0
  3  4  1  0
  4  5  2  0
  4  6  1  0
  6  7  1  0
  6  8  1  0
  8  9  1  0
  8 10  1  0
  8 11  1  0
 11 12  2  0
 12 13  1  0
 12 14  1  0
 14 15  1  0
 14 16  2  0
 16 17  1  0
 16 18  1  0
 18 19  1  0
 18 20  2  0
 20 21  1  0
  3 22  1  0
 22 23  1  0
 22 24  1  0
 22 25  1  0
 25 26  1  0
 26 27  1  0
 26 28  1  0
 26 29  1  0
  2 30  1  0
 30 31  2  0
 31 32  1  0
 31 33  1  0
 33 34  1  0
 33 35  2  0
 35 36  1  0
 35 37  1  0
 37 38  1  0
 37 39  2  0
 39 40  1  0
 20 11  1  0
 39 30  1  0
M  END
>  <UniqueID>  (24) 
22

>  <SMILES>  (24) 
CSC/C(=C/c1ccccc1)C(=O)NCc1ccccc1

>  <Energy>  (24) 
42.40644897795424

>  <Genealogy>  (24) 
CSC/C(=C/c1ccccc1)C(=O)NCc1ccccc1 (cis-trans isomerization)
CSC/C(=C/c1ccccc1)C(=O)NCc1ccccc1 (3D coordinates assigned)
CSC/C(=C/c1ccccc1)C(=O)NCc1ccccc1 (optimized conformer: 42.40644897795424 kcal/mol)

>  <smiles>  (24) 
CSCC(=Cc1ccccc1)C(=O)NCc1ccccc1

>  <score_type>  (24) 
oracle

>  <origin>  (24) 
adg

>  <m_score__min__energy>  (24) 
-7.0999999999999996

>  <m_primary>  (24) 
energy

$$$$
24:0
     RDKit          3D

 25 26  0  0  0  0  0  0  0  0999 V2000
   59.4881   32.4919   47.7347 H   0  0  0  0  0  0  0  0  0  0  0  0
   58.9450   32.3770   46.7850 C   0  0  0  0  0  0  0  0  0  0  0  0
   58.8270   33.3900   45.8430 C   0  0  0  0  0  0  0  0  0  0  0  0
   59.5040   34.9990   45.9860 Cl  0  0  0  0  0  0  0  0  0  0  0  0
   57.9310   32.8320   44.5330 S   0  0  0  0  0  0  0  0  0  0  0  0
   57.6810   31.2940   45.1640 C   0  0  0  0  0  0  0  0  0  0  0  0
   56.7920   30.0130   44.3650 S   0  0  0  0  0  0  0  0  0  0  0  0
   55.3250   30.0890   44.6780 O   0  0  0  0  0  0  0  0  0  0  0  0
   56.9690   30.1870   42.8840 O   0  0  0  0  0  0  0  0  0  0  0  0
   57.4090   28.4520   44.8060 N   0  0  0  0  0  0  0  0  0  0  0  0
   56.8330   27.4670   45.4360 C   0  0  0  0  0  0  0  0  0  0  0  0
   55.5320   27.4410   45.6140 O   0  0  0  0  0  0  0  0  0  0  0  0
   55.1570   26.3700   46.2490 N   0  0  0  0  0  0  0  0  0  0  0  0
   56.2690   25.6540   46.5020 C   0  0  0  0  0  0  0  0  0  0  0  0
   56.2510   24.3320   47.2030 C   0  0  0  0  0  0  0  0  0  0  0  0
   56.2532   24.4939   48.2910 H   0  0  0  0  0  0  0  0  0  0  0  0
   55.3452   23.7774   46.9166 H   0  0  0  0  0  0  0  0  0  0  0  0
   57.1413   23.7530   46.9166 H   0  0  0  0  0  0  0  0  0  0  0  0
   57.3840   26.3180   46.0120 C   0  0  0  0  0  0  0  0  0  0  0  0
   58.7890   25.7920   46.0370 C   0  0  0  0  0  0  0  0  0  0  0  0
   59.1162   25.6695   47.0801 H   0  0  0  0  0  0  0  0  0  0  0  0
   58.8255   24.8193   45.5246 H   0  0  0  0  0  0  0  0  0  0  0  0
   59.4553   26.5016   45.5246 H   0  0  0  0  0  0  0  0  0  0  0  0
   58.3020   31.1950   46.4020 C   0  0  0  0  0  0  0  0  0  0  0  0
   58.2897   30.2830   47.0170 H   0  0  0  0  0  0  0  0  0  0  0  0
  1  2  1  0
  2  3  2  0
  3  4  1  0
  3  5  1  0
  5  6  1  0
  6  7  1  0
  7  8  2  0
  7  9  2  0
  7 10  1  0
 10 11  2  0
 11 12  1  0
 12 13  1  0
 13 14  1  0
 14 15  1  0
 15 16  1  0
 15 17  1  0
 15 18  1  0
 14 19  2  0
 19 20  1  0
 20 21  1  0
 20 22  1  0
 20 23  1  0
  6 24  2  0
 24 25  1  0
 24  2  1  0
 19 11  1  0
M  CHG  1  13  -1
M  END
>  <UniqueID>  (25) 
23

>  <SMILES>  (25) 
Cc1[n-]o/c(=N/S(=O)(=O)c2ccc(Cl)s2)c1C

>  <Energy>  (25) 
91.06652942882283

>  <Genealogy>  (25) 
Cc1[n-]oc(=NS(=O)(=O)c2ccc(Cl)s2)c1C (protonated)
Cc1[n-]o/c(=N/S(=O)(=O)c2ccc(Cl)s2)c1C (cis-trans isomerization)
Cc1[n-]o/c(=N/S(=O)(=O)c2ccc(Cl)s2)c1C (3D coordinates assigned)
Cc1[n-]o/c(=N/S(=O)(=O)c2ccc(Cl)s2)c1C (optimized conformer: 91.06652942882283 kcal/mol)

>  <smiles>  (25) 
Cc1[nH]oc(=NS(=O)(=O)c2ccc(Cl)s2)c1C

>  <score_type>  (25) 
oracle

>  <origin>  (25) 
adg

>  <m_score__min__energy>  (25) 
-10.93

>  <m_primary>  (25) 
energy

$$$$
25:0
     RDKit          3D

 42 43  0  0  0  0  0  0  0  0999 V2000
   57.3342   33.7758   43.8198 H   0  0  0  0  0  0  0  0  0  0  0  0
   57.3740   33.1980   44.7550 C   0  0  0  0  0  0  0  0  0  0  0  0
   56.6490   32.1270   44.8800 N   0  0  0  0  0  0  0  0  0  0  0  0
   57.0410   30.7850   44.5420 C   0  0  0  0  0  0  0  0  0  0  0  0
   56.6230   30.2640   43.3120 C   0  0  0  0  0  0  0  0  0  0  0  0
   56.0073   30.8806   42.6406 H   0  0  0  0  0  0  0  0  0  0  0  0
   56.9800   28.9680   42.9280 C   0  0  0  0  0  0  0  0  0  0  0  0
   56.6469   28.5744   41.9563 H   0  0  0  0  0  0  0  0  0  0  0  0
   57.7610   28.1660   43.7750 C   0  0  0  0  0  0  0  0  0  0  0  0
   58.1530   26.7670   43.3530 C   0  0  0  0  0  0  0  0  0  0  0  0
   59.2399   26.6619   43.4857 H   0  0  0  0  0  0  0  0  0  0  0  0
   57.8297   26.6580   42.3073 H   0  0  0  0  0  0  0  0  0  0  0  0
   57.4860   25.6730   44.1130 N   0  0  0  0  0  0  0  0  0  0  0  0
   56.5540   26.0710   44.3840 H   0  0  0  0  0  0  0  0  0  0  0  0
   58.1550   25.3720   45.4120 C   0  0  0  0  0  0  0  0  0  0  0  0
   59.1286   25.8840   45.4191 H   0  0  0  0  0  0  0  0  0  0  0  0
   58.2318   24.2761   45.4669 H   0  0  0  0  0  0  0  0  0  0  0  0
   57.3800   25.8070   46.6700 C   0  0  0  0  0  0  0  0  0  0  0  0
   57.9341   25.4960   47.5679 H   0  0  0  0  0  0  0  0  0  0  0  0
   57.2658   26.9011   46.6703 H   0  0  0  0  0  0  0  0  0  0  0  0
   56.3866   25.3346   46.6703 H   0  0  0  0  0  0  0  0  0  0  0  0
   57.1910   24.4570   43.3120 C   0  0  0  0  0  0  0  0  0  0  0  0
   56.1508   24.5143   42.9588 H   0  0  0  0  0  0  0  0  0  0  0  0
   57.9083   24.4314   42.4784 H   0  0  0  0  0  0  0  0  0  0  0  0
   57.3660   23.1560   44.1060 C   0  0  0  0  0  0  0  0  0  0  0  0
   57.3363   23.3770   45.1832 H   0  0  0  0  0  0  0  0  0  0  0  0
   56.5535   22.4594   43.8521 H   0  0  0  0  0  0  0  0  0  0  0  0
   58.3337   22.6988   43.8521 H   0  0  0  0  0  0  0  0  0  0  0  0
   58.2160   28.7000   44.9910 C   0  0  0  0  0  0  0  0  0  0  0  0
   58.8587   28.0939   45.6464 H   0  0  0  0  0  0  0  0  0  0  0  0
   57.8590   29.9960   45.3760 C   0  0  0  0  0  0  0  0  0  0  0  0
   58.2179   30.4015   46.3335 H   0  0  0  0  0  0  0  0  0  0  0  0
   58.2510   33.6480   45.8550 C   0  0  0  0  0  0  0  0  0  0  0  0
   59.1860   34.6670   45.6220 C   0  0  0  0  0  0  0  0  0  0  0  0
   59.2649   35.1275   44.6262 H   0  0  0  0  0  0  0  0  0  0  0  0
   60.0160   35.0940   46.6600 C   0  0  0  0  0  0  0  0  0  0  0  0
   60.7505   35.8932   46.4817 H   0  0  0  0  0  0  0  0  0  0  0  0
   59.9190   34.5250   47.8900 N   0  0  0  0  0  0  0  0  0  0  0  0
   59.0240   33.5350   48.1480 C   0  0  0  0  0  0  0  0  0  0  0  0
   58.9694   33.0927   49.1537 H   0  0  0  0  0  0  0  0  0  0  0  0
   58.1730   33.0780   47.1380 C   0  0  0  0  0  0  0  0  0  0  0  0
   57.4472   32.2779   47.3453 H   0  0  0  0  0  0  0  0  0  0  0  0
  1  2  1  0
  2  3  2  0
  3  4  1  0
  4  5  2  0
  5  6  1  0
  5  7  1  0
  7  8  1  0
  7  9  2  0
  9 10  1  0
 10 11  1  0
 10 12  1  0
 10 13  1  0
 13 14  1  0
 13 15  1  0
 15 16  1  0
 15 17  1  0
 15 18  1  0
 18 19  1  0
 18 20  1  0
 18 21  1  0
 13 22  1  0
 22 23  1  0
 22 24  1  0
 22 25  1  0
 25 26  1  0
 25 27  1  0
 25 28  1  0
  9 29  1  0
 29 30  1  0
 29 31  2  0
 31 32  1  0
  2 33  1  0
 33 34  2  0
 34 35  1  0
 34 36  1  0
 36 37  1  0
 36 38  2  0
 38 39  1  0
 39 40  1  0
 39 41  2  0
 41 42  1  0
 31  4  1  0
 41 33  1  0
M  CHG  1  13   1
M  END
>  <UniqueID>  (26) 
24

>  <SMILES>  (26) 
CC[NH+](CC)Cc1ccc(/N=C/c2ccncc2)cc1

>  <Energy>  (26) 
52.3586388023251

>  <Genealogy>  (26) 
CC[NH+](CC)Cc1ccc(N=Cc2ccncc2)cc1 (protonated)
CC[NH+](CC)Cc1ccc(/N=C/c2ccncc2)cc1 (cis-trans isomerization)
CC[NH+](CC)Cc1ccc(/N=C/c2ccncc2)cc1 (3D coordinates assigned)
CC[NH+](CC)Cc1ccc(/N=C/c2ccncc2)cc1 (optimized conformer: 52.3586388023251 kcal/mol)

>  <smiles>  (26) 
CCN(CC)Cc1ccc(N=Cc2ccncc2)cc1

>  <score_type>  (26) 
oracle

>  <origin>  (26) 
adg

>  <m_score__min__energy>  (26) 
-5.0700000000000003

>  <m_primary>  (26) 
energy

$$$$
26:0
     RDKit          3D

 42 44  0  0  0  0  0  0  0  0999 V2000
   55.5550   24.7880   45.6380 C   0  0  0  0  0  0  0  0  0  0  0  0
   55.7530   25.6660   46.7370 O   0  0  0  0  0  0  0  0  0  0  0  0
   56.8910   26.4670   46.8690 C   0  0  0  0  0  0  0  0  0  0  0  0
   57.8140   26.1390   47.6620 O   0  0  0  0  0  0  0  0  0  0  0  0
   57.0180   27.6980   46.0770 C   0  0  0  0  0  0  0  0  0  0  0  0
   56.0420   28.1530   45.2520 N   0  0  0  0  0  0  0  0  0  0  0  0
   56.5520   29.2770   44.7030 C   0  0  0  0  0  0  0  0  0  0  0  0
   55.9360   30.0950   43.7580 C   0  0  0  0  0  0  0  0  0  0  0  0
   56.6540   31.2070   43.2780 C   0  0  0  0  0  0  0  0  0  0  0  0
   57.9600   31.4710   43.7470 C   0  0  0  0  0  0  0  0  0  0  0  0
   58.5580   30.6310   44.7020 C   0  0  0  0  0  0  0  0  0  0  0  0
   57.8170   29.5420   45.1600 C   0  0  0  0  0  0  0  0  0  0  0  0
   58.1230   28.5430   46.0480 C   0  0  0  0  0  0  0  0  0  0  0  0
   59.3860   28.3310   46.6820 N   0  0  0  0  0  0  0  0  0  0  0  0
   60.2130   27.2020   46.2690 C   0  0  0  0  0  0  0  0  0  0  0  0
   59.7600   29.2420   48.1110 S   0  0  0  0  0  0  0  0  0  0  0  0
   61.1120   28.8370   48.6280 O   0  0  0  0  0  0  0  0  0  0  0  0
   58.7460   28.9670   49.1860 O   0  0  0  0  0  0  0  0  0  0  0  0
   59.7570   30.9530   47.7060 C   0  0  0  0  0  0  0  0  0  0  0  0
   58.5850   31.7060   47.8470 C   0  0  0  0  0  0  0  0  0  0  0  0
   58.5620   33.0500   47.4640 C   0  0  0  0  0  0  0  0  0  0  0  0
   59.7060   33.6490   46.9170 C   0  0  0  0  0  0  0  0  0  0  0  0
   59.6920   35.0990   46.5330 C   0  0  0  0  0  0  0  0  0  0  0  0
   60.8840   32.8960   46.7880 C   0  0  0  0  0  0  0  0  0  0  0  0
   60.9060   31.5520   47.1720 C   0  0  0  0  0  0  0  0  0  0  0  0
   55.3274   23.7787   46.0114 H   0  0  0  0  0  0  0  0  0  0  0  0
   54.7160   25.1503   45.0258 H   0  0  0  0  0  0  0  0  0  0  0  0
   56.4683   24.7551   45.0258 H   0  0  0  0  0  0  0  0  0  0  0  0
   54.9194   29.8785   43.3978 H   0  0  0  0  0  0  0  0  0  0  0  0
   56.1952   31.8741   42.5334 H   0  0  0  0  0  0  0  0  0  0  0  0
   58.5130   32.3404   43.3619 H   0  0  0  0  0  0  0  0  0  0  0  0
   59.5744   30.8256   45.0749 H   0  0  0  0  0  0  0  0  0  0  0  0
   60.5943   26.6815   47.1599 H   0  0  0  0  0  0  0  0  0  0  0  0
   59.6095   26.5060   45.6679 H   0  0  0  0  0  0  0  0  0  0  0  0
   61.0586   27.5674   45.6679 H   0  0  0  0  0  0  0  0  0  0  0  0
   57.6794   31.2383   48.2606 H   0  0  0  0  0  0  0  0  0  0  0  0
   57.6427   33.6404   47.5922 H   0  0  0  0  0  0  0  0  0  0  0  0
   59.6860   35.7189   47.4417 H   0  0  0  0  0  0  0  0  0  0  0  0
   60.5880   35.3294   45.9379 H   0  0  0  0  0  0  0  0  0  0  0  0
   58.7918   35.3120   45.9379 H   0  0  0  0  0  0  0  0  0  0  0  0
   61.7928   33.3653   46.3833 H   0  0  0  0  0  0  0  0  0  0  0  0
   61.8276   30.9630   47.0547 H   0  0  0  0  0  0  0  0  0  0  0  0
  1  2  1  0
  2  3  1  0
  3  4  2  0
  3  5  1  0
  5  6  1  0
  6  7  1  0
  7  8  2  0
  8  9  1  0
  9 10  2  0
 10 11  1  0
 11 12  2  0
 12 13  1  0
 13 14  1  0
 14 15  1  0
 14 16  1  0
 16 17  2  0
 16 18  2  0
 16 19  1  0
 19 20  2  0
 20 21  1  0
 21 22  2  0
 22 23  1  0
 22 24  1  0
 24 25  2  0
 13  5  2  0
 25 19  1  0
 12  7  1  0
  1 26  1  0
  1 27  1  0
  1 28  1  0
  8 29  1  0
  9 30  1  0
 10 31  1  0
 11 32  1  0
 15 33  1  0
 15 34  1  0
 15 35  1  0
 20 36  1  0
 21 37  1  0
 23 38  1  0
 23 39  1  0
 23 40  1  0
 24 41  1  0
 25 42  1  0
M  CHG  1   6  -1
M  END
>  <UniqueID>  (27) 
25

>  <SMILES>  (27) 
COC(=O)c1[n-]c2ccccc2c1N(C)S(=O)(=O)c1ccc(C)cc1

>  <Energy>  (27) 
77.34263855973059

>  <Genealogy>  (27) 
COC(=O)c1[n-]c2ccccc2c1N(C)S(=O)(=O)c1ccc(C)cc1 (protonated)
COC(=O)c1[n-]c2ccccc2c1N(C)S(=O)(=O)c1ccc(C)cc1 (3D coordinates assigned)
COC(=O)c1[n-]c2ccccc2c1N(C)S(=O)(=O)c1ccc(C)cc1 (optimized conformer: 77.34263855973059 kcal/mol)

>  <smiles>  (27) 
COC(=O)c1[nH]c2ccccc2c1N(C)S(=O)(=O)c1ccc(C)cc1

>  <score_type>  (27) 
oracle

>  <origin>  (27) 
adg

>  <m_score__min__energy>  (27) 
-10.039999999999999

>  <m_primary>  (27) 
energy

$$$$
27:0
     RDKit          3D

 30 31  0  0  0  0  0  0  0  0999 V2000
   58.5580   22.4720   44.3440 C   0  0  0  0  0  0  0  0  0  0  0  0
   57.5780   23.5170   44.8020 C   0  0  0  0  0  0  0  0  0  0  0  0
   57.9980   24.5790   45.6080 C   0  0  0  0  0  0  0  0  0  0  0  0
   57.1230   25.5530   46.0120 N   0  0  0  0  0  0  0  0  0  0  0  0
   57.6560   26.6350   46.8810 C   0  0  1  0  0  0  0  0  0  0  0  0
   59.0270   26.3410   47.3990 C   0  0  0  0  0  0  0  0  0  0  0  0
   59.9250   27.2100   46.9590 C   0  0  0  0  0  0  0  0  0  0  0  0
   59.3370   28.2210   46.0370 C   0  0  0  0  0  0  0  0  0  0  0  0
   57.8210   28.0060   46.1750 C   0  0  1  0  0  0  0  0  0  0  0  0
   57.0290   28.2200   44.8690 C   0  0  0  0  0  0  0  0  0  0  0  0
   55.7300   28.6790   45.1200 O   0  0  0  0  0  0  0  0  0  0  0  0
   55.8030   25.4690   45.6230 C   0  0  0  0  0  0  0  0  0  0  0  0
   54.9570   26.3180   46.0120 O   0  0  0  0  0  0  0  0  0  0  0  0
   55.3850   24.4510   44.8210 N   0  0  0  0  0  0  0  0  0  0  0  0
   56.2400   23.4840   44.3990 C   0  0  0  0  0  0  0  0  0  0  0  0
   55.8190   22.5610   43.6510 O   0  0  0  0  0  0  0  0  0  0  0  0
   59.0129   21.9869   45.2202 H   0  0  0  0  0  0  0  0  0  0  0  0
   58.0338   21.7180   43.7384 H   0  0  0  0  0  0  0  0  0  0  0  0
   59.3440   22.9468   43.7384 H   0  0  0  0  0  0  0  0  0  0  0  0
   59.0503   24.6338   45.9238 H   0  0  0  0  0  0  0  0  0  0  0  0
   56.8952   26.6814   47.6741 H   0  0  0  0  0  0  0  0  0  0  0  0
   59.2630   25.5004   48.0681 H   0  0  0  0  0  0  0  0  0  0  0  0
   60.9874   27.1873   47.2432 H   0  0  0  0  0  0  0  0  0  0  0  0
   59.6176   29.2398   46.3423 H   0  0  0  0  0  0  0  0  0  0  0  0
   59.6899   28.1081   45.0013 H   0  0  0  0  0  0  0  0  0  0  0  0
   57.3503   28.7842   46.7937 H   0  0  0  0  0  0  0  0  0  0  0  0
   57.5557   28.9614   44.2502 H   0  0  0  0  0  0  0  0  0  0  0  0
   56.9565   27.2530   44.3497 H   0  0  0  0  0  0  0  0  0  0  0  0
   55.1430   27.8810   45.0720 H   0  0  0  0  0  0  0  0  0  0  0  0
   54.3820   24.4090   44.5270 H   0  0  0  0  0  0  0  0  0  0  0  0
  1  2  1  0
  2  3  2  0
  3  4  1  0
  4  5  1  0
  5  6  1  0
  6  7  2  0
  7  8  1  0
  8  9  1  0
  9 10  1  0
 10 11  1  0
  4 12  1  0
 12 13  2  0
 12 14  1  0
 14 15  1  0
 15 16  2  0
 15  2  1  0
  9  5  1  0
  1 17  1  0
  1 18  1  0
  1 19  1  0
  3 20  1  0
  5 21  1  1
  6 22  1  0
  7 23  1  0
  8 24  1  0
  8 25  1  0
  9 26  1  1
 10 27  1  0
 10 28  1  0
 11 29  1  0
 14 30  1  0
M  END
>  <UniqueID>  (28) 
26

>  <SMILES>  (28) 
Cc1cn([C@H]2C=CC[C@H]2CO)c(=O)[nH]c1=O

>  <Energy>  (28) 
42.68592507582341

>  <Genealogy>  (28) 
Cc1cn([C@H]2C=CC[C@H]2CO)c(=O)[nH]c1=O (chirality)
Cc1cn([C@H]2C=CC[C@H]2CO)c(=O)[nH]c1=O (3D coordinates assigned)
Cc1cn([C@H]2C=CC[C@H]2CO)c(=O)[nH]c1=O (nonaromatic ring conformer: 42.68592507582341 kcal/mol)

>  <smiles>  (28) 
Cc1cn(C2C=CCC2CO)c(=O)[nH]c1=O

>  <score_type>  (28) 
oracle

>  <origin>  (28) 
adg

>  <m_score__min__energy>  (28) 
-6.5599999999999996

>  <m_primary>  (28) 
energy

$$$$
28:0
     RDKit          3D

 37 40  0  0  0  0  0  0  0  0999 V2000
   53.3880   23.9830   45.9530 O   0  0  0  0  0  0  0  0  0  0  0  0
   54.5270   24.3970   45.6120 C   0  0  0  0  0  0  0  0  0  0  0  0
   54.8970   25.7420   45.9490 N   0  0  0  0  0  0  0  0  0  0  0  0
   56.2160   26.3040   45.8760 C   0  0  0  0  0  0  0  0  0  0  0  0
   57.3180   25.4550   45.9950 C   0  0  0  0  0  0  0  0  0  0  0  0
   58.6130   25.9680   45.9280 C   0  0  0  0  0  0  0  0  0  0  0  0
   58.8270   27.3380   45.7320 C   0  0  0  0  0  0  0  0  0  0  0  0
   60.4950   27.8930   45.6190 Cl  0  0  0  0  0  0  0  0  0  0  0  0
   57.7220   28.2090   45.5870 C   0  0  0  0  0  0  0  0  0  0  0  0
   57.9000   29.6700   45.3890 C   0  0  0  0  0  0  0  0  0  0  0  0
   58.1990   30.2470   44.1930 N   0  0  0  0  0  0  0  0  0  0  0  0
   58.2450   31.5510   44.4900 C   0  0  0  0  0  0  0  0  0  0  0  0
   58.5140   32.5770   43.6470 N   0  0  0  0  0  0  0  0  0  0  0  0
   58.5170   33.8510   44.1480 C   0  0  0  0  0  0  0  0  0  0  0  0
   58.2460   34.0860   45.5180 C   0  0  0  0  0  0  0  0  0  0  0  0
   57.9720   33.0020   46.3740 C   0  0  0  0  0  0  0  0  0  0  0  0
   57.9830   31.7340   45.8080 C   0  0  0  0  0  0  0  0  0  0  0  0
   57.7680   30.5660   46.3600 O   0  0  0  0  0  0  0  0  0  0  0  0
   56.4210   27.6760   45.6460 C   0  0  0  0  0  0  0  0  0  0  0  0
   55.4210   23.5050   44.8350 C   0  0  0  0  0  0  0  0  0  0  0  0
   55.5740   23.6920   43.4510 C   0  0  0  0  0  0  0  0  0  0  0  0
   56.4100   22.8490   42.7120 C   0  0  0  0  0  0  0  0  0  0  0  0
   57.1070   21.8190   43.3480 C   0  0  0  0  0  0  0  0  0  0  0  0
   57.9160   21.0020   42.6290 F   0  0  0  0  0  0  0  0  0  0  0  0
   56.9740   21.6350   44.7270 C   0  0  0  0  0  0  0  0  0  0  0  0
   56.1410   22.4750   45.4700 C   0  0  0  0  0  0  0  0  0  0  0  0
   57.1639   24.3759   46.1424 H   0  0  0  0  0  0  0  0  0  0  0  0
   59.4738   25.2907   46.0300 H   0  0  0  0  0  0  0  0  0  0  0  0
   58.3750   29.7970   43.2670 H   0  0  0  0  0  0  0  0  0  0  0  0
   58.7316   34.6990   43.4810 H   0  0  0  0  0  0  0  0  0  0  0  0
   58.2495   35.1128   45.9125 H   0  0  0  0  0  0  0  0  0  0  0  0
   57.7589   33.1528   47.4426 H   0  0  0  0  0  0  0  0  0  0  0  0
   55.5546   28.3401   45.5107 H   0  0  0  0  0  0  0  0  0  0  0  0
   55.0333   24.5059   42.9459 H   0  0  0  0  0  0  0  0  0  0  0  0
   56.5189   22.9973   41.6275 H   0  0  0  0  0  0  0  0  0  0  0  0
   57.5266   20.8268   45.2285 H   0  0  0  0  0  0  0  0  0  0  0  0
   56.0471   22.3310   46.5565 H   0  0  0  0  0  0  0  0  0  0  0  0
  1  2  2  0
  2  3  1  0
  3  4  1  0
  4  5  2  0
  5  6  1  0
  6  7  2  0
  7  8  1  0
  7  9  1  0
  9 10  1  0
 10 11  2  0
 11 12  1  0
 12 13  2  0
 13 14  1  0
 14 15  2  0
 15 16  1  0
 16 17  2  0
 17 18  1  0
  9 19  2  0
  2 20  1  0
 20 21  2  0
 21 22  1  0
 22 23  2  0
 23 24  1  0
 23 25  1  0
 25 26  2  0
 19  4  1  0
 26 20  1  0
 18 10  1  0
 17 12  1  0
  5 27  1  0
  6 28  1  0
 11 29  1  0
 14 30  1  0
 15 31  1  0
 16 32  1  0
 19 33  1  0
 21 34  1  0
 22 35  1  0
 25 36  1  0
 26 37  1  0
M  CHG  2   3  -1  11   1
M  END
>  <UniqueID>  (29) 
27

>  <SMILES>  (29) 
O=C([N-]c1ccc(Cl)c(-c2[nH+]c3ncccc3o2)c1)c1ccc(F)cc1

>  <Energy>  (29) 
94.32626013070703

>  <Genealogy>  (29) 
O=C([N-]c1ccc(Cl)c(-c2[nH+]c3ncccc3o2)c1)c1ccc(F)cc1 (protonated)
O=C([N-]c1ccc(Cl)c(-c2[nH+]c3ncccc3o2)c1)c1ccc(F)cc1 (3D coordinates assigned)
O=C([N-]c1ccc(Cl)c(-c2[nH+]c3ncccc3o2)c1)c1ccc(F)cc1 (optimized conformer: 94.32626013070703 kcal/mol)

>  <smiles>  (29) 
O=C(Nc1ccc(Cl)c(-c2nc3ncccc3o2)c1)c1ccc(F)cc1

>  <score_type>  (29) 
oracle

>  <origin>  (29) 
adg

>  <m_score__min__energy>  (29) 
-8.8499999999999996

>  <m_primary>  (29) 
energy

$$$$
29:0
     RDKit          3D

 39 40  0  0  0  0  0  0  0  0999 V2000
   60.7812   28.0019   45.1465 H   0  0  0  0  0  0  0  0  0  0  0  0
   59.9100   28.2410   45.7740 C   0  0  0  0  0  0  0  0  0  0  0  0
   59.8930   27.7960   46.9980 N   0  0  0  0  0  0  0  0  0  0  0  0
   59.1680   28.3710   48.1350 C   0  0  0  0  0  0  0  0  0  0  0  0
   58.8663   27.5641   48.8191 H   0  0  0  0  0  0  0  0  0  0  0  0
   58.2784   28.9002   47.7627 H   0  0  0  0  0  0  0  0  0  0  0  0
   60.0610   29.3620   48.8850 C   0  0  0  0  0  0  0  0  0  0  0  0
   61.0952   28.9872   48.8825 H   0  0  0  0  0  0  0  0  0  0  0  0
   59.6880   29.4587   49.9153 H   0  0  0  0  0  0  0  0  0  0  0  0
   60.0280   30.7200   48.2340 C   0  0  0  0  0  0  0  0  0  0  0  0
   58.8060   31.3130   47.8940 C   0  0  0  0  0  0  0  0  0  0  0  0
   57.8634   30.8053   48.1464 H   0  0  0  0  0  0  0  0  0  0  0  0
   58.7760   32.5440   47.2370 C   0  0  0  0  0  0  0  0  0  0  0  0
   57.8101   33.0061   46.9849 H   0  0  0  0  0  0  0  0  0  0  0  0
   59.9760   33.1980   46.8950 C   0  0  0  0  0  0  0  0  0  0  0  0
   59.9860   34.4340   46.2290 O   0  0  0  0  0  0  0  0  0  0  0  0
   59.0230   34.8360   45.2610 C   0  0  0  0  0  0  0  0  0  0  0  0
   58.1241   35.2113   45.7720 H   0  0  0  0  0  0  0  0  0  0  0  0
   59.4463   35.6325   44.6315 H   0  0  0  0  0  0  0  0  0  0  0  0
   58.7544   33.9749   44.6315 H   0  0  0  0  0  0  0  0  0  0  0  0
   61.2050   32.6050   47.2200 C   0  0  0  0  0  0  0  0  0  0  0  0
   62.3850   33.2700   46.8510 O   0  0  0  0  0  0  0  0  0  0  0  0
   63.6590   33.0440   47.4440 C   0  0  0  0  0  0  0  0  0  0  0  0
   63.5618   33.0612   48.5396 H   0  0  0  0  0  0  0  0  0  0  0  0
   64.0431   32.0637   47.1254 H   0  0  0  0  0  0  0  0  0  0  0  0
   64.3568   33.8324   47.1254 H   0  0  0  0  0  0  0  0  0  0  0  0
   61.2250   31.3670   47.8930 C   0  0  0  0  0  0  0  0  0  0  0  0
   62.1881   30.9038   48.1533 H   0  0  0  0  0  0  0  0  0  0  0  0
   58.8270   29.0470   45.1830 C   0  0  0  0  0  0  0  0  0  0  0  0
   59.1080   30.2700   44.5560 C   0  0  0  0  0  0  0  0  0  0  0  0
   60.1475   30.6227   44.4844 H   0  0  0  0  0  0  0  0  0  0  0  0
   58.0730   31.0420   44.0220 C   0  0  0  0  0  0  0  0  0  0  0  0
   58.2997   31.9921   43.5162 H   0  0  0  0  0  0  0  0  0  0  0  0
   56.7490   30.6060   44.1310 C   0  0  0  0  0  0  0  0  0  0  0  0
   55.9346   31.2101   43.7045 H   0  0  0  0  0  0  0  0  0  0  0  0
   56.4590   29.4020   44.7820 C   0  0  0  0  0  0  0  0  0  0  0  0
   55.1420   28.9760   44.9000 O   0  0  0  0  0  0  0  0  0  0  0  0
   57.4960   28.6280   45.3160 C   0  0  0  0  0  0  0  0  0  0  0  0
   57.2659   27.6892   45.8410 H   0  0  0  0  0  0  0  0  0  0  0  0
  1  2  1  0
  2  3  2  0
  3  4  1  0
  4  5  1  0
  4  6  1  0
  4  7  1  0
  7  8  1  0
  7  9  1  0
  7 10  1  0
 10 11  2  0
 11 12  1  0
 11 13  1  0
 13 14  1  0
 13 15  2  0
 15 16  1  0
 16 17  1  0
 17 18  1  0
 17 19  1  0
 17 20  1  0
 15 21  1  0
 21 22  1  0
 22 23  1  0
 23 24  1  0
 23 25  1  0
 23 26  1  0
 21 27  2  0
 27 28  1  0
  2 29  1  0
 29 30  2  0
 30 31  1  0
 30 32  1  0
 32 33  1  0
 32 34  2  0
 34 35  1  0
 34 36  1  0
 36 37  1  0
 36 38  2  0
 38 39  1  0
 27 10  1  0
 38 29  1  0
M  CHG  1  37  -1
M  END
>  <UniqueID>  (30) 
28

>  <SMILES>  (30) 
COc1ccc(CC/N=C\c2cccc([O-])c2)cc1OC

>  <Energy>  (30) 
42.91914402721863

>  <Genealogy>  (30) 
COc1ccc(CCN=Cc2cccc([O-])c2)cc1OC (protonated)
COc1ccc(CC/N=C\c2cccc([O-])c2)cc1OC (cis-trans isomerization)
COc1ccc(CC/N=C\c2cccc([O-])c2)cc1OC (3D coordinates assigned)
COc1ccc(CC/N=C\c2cccc([O-])c2)cc1OC (optimized conformer: 42.91914402721863 kcal/mol)

>  <smiles>  (30) 
COc1ccc(CCN=Cc2cccc(O)c2)cc1OC

>  <score_type>  (30) 
oracle

>  <origin>  (30) 
adg

>  <m_score__min__energy>  (30) 
-10.02

>  <m_primary>  (30) 
energy

$$$$
30:0
     RDKit          3D

 45 47  0  0  0  0  0  0  0  0999 V2000
   63.2220   34.1350   50.7530 C   0  0  0  0  0  0  0  0  0  0  0  0
   62.6280   34.8040   49.6450 O   0  0  0  0  0  0  0  0  0  0  0  0
   61.6800   34.2300   48.7820 C   0  0  0  0  0  0  0  0  0  0  0  0
   60.3000   34.2960   49.0450 C   0  0  0  0  0  0  0  0  0  0  0  0
   59.3820   33.7130   48.1690 C   0  0  0  0  0  0  0  0  0  0  0  0
   59.8170   33.0520   47.0090 C   0  0  0  0  0  0  0  0  0  0  0  0
   58.8300   32.4350   46.0850 C   0  0  0  0  0  0  0  0  0  0  0  0
   58.3090   32.9990   44.9180 C   0  0  0  0  0  0  0  0  0  0  0  0
   57.3900   32.1760   44.2560 C   0  0  0  0  0  0  0  0  0  0  0  0
   57.1760   30.9600   44.8930 C   0  0  0  0  0  0  0  0  0  0  0  0
   56.2720   29.8940   44.4440 C   0  0  0  0  0  0  0  0  0  0  0  0
   55.6260   30.0360   43.3710 O   0  0  0  0  0  0  0  0  0  0  0  0
   56.1760   28.6810   45.2000 N   0  0  0  0  0  0  0  0  0  0  0  0
   57.2390   27.7540   45.4770 C   0  0  0  0  0  0  0  0  0  0  0  0
   58.5830   28.1380   45.3250 C   0  0  0  0  0  0  0  0  0  0  0  0
   59.6110   27.2370   45.5920 C   0  0  0  0  0  0  0  0  0  0  0  0
   59.3180   25.9440   46.0120 C   0  0  0  0  0  0  0  0  0  0  0  0
   57.9860   25.5250   46.1600 C   0  0  0  0  0  0  0  0  0  0  0  0
   57.7150   24.1130   46.6140 C   0  0  0  0  0  0  0  0  0  0  0  0
   56.9320   26.4230   45.8500 C   0  0  0  0  0  0  0  0  0  0  0  0
   55.4890   25.9920   45.9950 C   0  0  0  0  0  0  0  0  0  0  0  0
   58.1290   30.9100   46.2770 S   0  0  0  0  0  0  0  0  0  0  0  0
   61.1980   32.9810   46.7490 C   0  0  0  0  0  0  0  0  0  0  0  0
   62.1280   33.5670   47.6240 C   0  0  0  0  0  0  0  0  0  0  0  0
   63.6000   33.4750   47.3320 C   0  0  0  0  0  0  0  0  0  0  0  0
   62.8392   34.5661   51.6898 H   0  0  0  0  0  0  0  0  0  0  0  0
   62.9712   33.0647   50.7125 H   0  0  0  0  0  0  0  0  0  0  0  0
   64.3144   34.2574   50.7125 H   0  0  0  0  0  0  0  0  0  0  0  0
   59.9408   34.8111   49.9481 H   0  0  0  0  0  0  0  0  0  0  0  0
   58.3061   33.7722   48.3901 H   0  0  0  0  0  0  0  0  0  0  0  0
   58.5942   33.9968   44.5532 H   0  0  0  0  0  0  0  0  0  0  0  0
   56.8860   32.4643   43.3217 H   0  0  0  0  0  0  0  0  0  0  0  0
   58.8246   29.1583   44.9925 H   0  0  0  0  0  0  0  0  0  0  0  0
   60.6587   27.5493   45.4702 H   0  0  0  0  0  0  0  0  0  0  0  0
   60.1372   25.2431   46.2303 H   0  0  0  0  0  0  0  0  0  0  0  0
   57.7080   24.0763   47.7134 H   0  0  0  0  0  0  0  0  0  0  0  0
   56.7376   23.7856   46.2299 H   0  0  0  0  0  0  0  0  0  0  0  0
   58.5017   23.4470   46.2299 H   0  0  0  0  0  0  0  0  0  0  0  0
   55.2345   25.9160   47.0625 H   0  0  0  0  0  0  0  0  0  0  0  0
   54.8346   26.7339   45.5140 H   0  0  0  0  0  0  0  0  0  0  0  0
   55.3487   25.0127   45.5140 H   0  0  0  0  0  0  0  0  0  0  0  0
   61.5544   32.4596   45.8484 H   0  0  0  0  0  0  0  0  0  0  0  0
   64.1600   33.4400   48.2781 H   0  0  0  0  0  0  0  0  0  0  0  0
   63.8024   32.5624   46.7521 H   0  0  0  0  0  0  0  0  0  0  0  0
   63.9145   34.3552   46.7521 H   0  0  0  0  0  0  0  0  0  0  0  0
  1  2  1  0
  2  3  1  0
  3  4  2  0
  4  5  1  0
  5  6  2  0
  6  7  1  0
  7  8  2  0
  8  9  1  0
  9 10  2  0
 10 11  1  0
 11 12  2  0
 11 13  1  0
 13 14  1  0
 14 15  2  0
 15 16  1  0
 16 17  2  0
 17 18  1  0
 18 19  1  0
 18 20  2  0
 20 21  1  0
 10 22  1  0
  6 23  1  0
 23 24  2  0
 24 25  1  0
 24  3  1  0
 22  7  1  0
 20 14  1  0
  1 26  1  0
  1 27  1  0
  1 28  1  0
  4 29  1  0
  5 30  1  0
  8 31  1  0
  9 32  1  0
 15 33  1  0
 16 34  1  0
 17 35  1  0
 19 36  1  0
 19 37  1  0
 19 38  1  0
 21 39  1  0
 21 40  1  0
 21 41  1  0
 23 42  1  0
 25 43  1  0
 25 44  1  0
 25 45  1  0
M  CHG  1  13  -1
M  END
>  <UniqueID>  (31) 
29

>  <SMILES>  (31) 
COc1ccc(-c2ccc(C(=O)[N-]c3cccc(C)c3C)s2)cc1C

>  <Energy>  (31) 
79.50052468279172

>  <Genealogy>  (31) 
COc1ccc(-c2ccc(C(=O)[N-]c3cccc(C)c3C)s2)cc1C (protonated)
COc1ccc(-c2ccc(C(=O)[N-]c3cccc(C)c3C)s2)cc1C (3D coordinates assigned)
COc1ccc(-c2ccc(C(=O)[N-]c3cccc(C)c3C)s2)cc1C (optimized conformer: 79.50052468279172 kcal/mol)

>  <smiles>  (31) 
COc1ccc(-c2ccc(C(=O)Nc3cccc(C)c3C)s2)cc1C

>  <score_type>  (31) 
oracle

>  <origin>  (31) 
adg

>  <m_score__min__energy>  (31) 
-9.6199999999999992

>  <m_primary>  (31) 
energy

$$$$
31:0
     RDKit          3D

 42 44  0  0  0  0  0  0  0  0999 V2000
   55.8930   22.1620   47.3910 C   0  0  0  0  0  0  0  0  0  0  0  0
   56.5700   23.4060   46.8980 C   0  0  0  0  0  0  0  0  0  0  0  0
   56.9800   24.3950   47.8050 C   0  0  0  0  0  0  0  0  0  0  0  0
   57.5780   25.5710   47.3430 C   0  0  0  0  0  0  0  0  0  0  0  0
   57.7750   25.7760   45.9670 C   0  0  0  0  0  0  0  0  0  0  0  0
   58.3810   27.0290   45.4630 C   0  0  0  0  0  0  0  0  0  0  0  0
   59.7380   27.0850   45.3820 N   0  0  0  0  0  0  0  0  0  0  0  0
   60.3930   28.1690   44.9030 C   0  0  0  0  0  0  0  0  0  0  0  0
   59.6790   29.2790   44.4680 C   0  0  0  0  0  0  0  0  0  0  0  0
   58.2760   29.2870   44.5340 C   0  0  0  0  0  0  0  0  0  0  0  0
   57.5590   30.5530   44.1070 C   0  0  0  0  0  0  0  0  0  0  0  0
   58.1230   31.7570   44.8200 C   0  0  0  0  0  0  0  0  0  0  0  0
   58.3290   31.7300   46.2090 C   0  0  0  0  0  0  0  0  0  0  0  0
   58.8680   32.8400   46.8660 C   0  0  0  0  0  0  0  0  0  0  0  0
   59.2310   33.9890   46.1430 C   0  0  0  0  0  0  0  0  0  0  0  0
   59.7670   35.2040   46.8580 C   0  0  0  0  0  0  0  0  0  0  0  0
   59.9360   36.2560   45.9750 F   0  0  0  0  0  0  0  0  0  0  0  0
   60.9930   34.9280   47.4400 F   0  0  0  0  0  0  0  0  0  0  0  0
   58.8760   35.5820   47.8440 F   0  0  0  0  0  0  0  0  0  0  0  0
   59.0050   34.0210   44.7560 C   0  0  0  0  0  0  0  0  0  0  0  0
   58.4650   32.9120   44.1000 C   0  0  0  0  0  0  0  0  0  0  0  0
   57.6050   28.1450   45.0520 C   0  0  0  0  0  0  0  0  0  0  0  0
   56.1360   28.1380   45.2440 C   0  0  0  0  0  0  0  0  0  0  0  0
   55.5580   27.0910   45.6370 O   0  0  0  0  0  0  0  0  0  0  0  0
   55.3800   29.2660   44.9560 O   0  0  0  0  0  0  0  0  0  0  0  0
   57.3280   24.8030   45.0590 C   0  0  0  0  0  0  0  0  0  0  0  0
   56.7300   23.6260   45.5210 C   0  0  0  0  0  0  0  0  0  0  0  0
   55.8904   22.1573   48.4910 H   0  0  0  0  0  0  0  0  0  0  0  0
   54.8571   22.1374   47.0218 H   0  0  0  0  0  0  0  0  0  0  0  0
   56.4349   21.2788   47.0218 H   0  0  0  0  0  0  0  0  0  0  0  0
   56.8302   24.2443   48.8843 H   0  0  0  0  0  0  0  0  0  0  0  0
   57.8964   26.3409   48.0613 H   0  0  0  0  0  0  0  0  0  0  0  0
   61.4921   28.1710   44.8581 H   0  0  0  0  0  0  0  0  0  0  0  0
   60.2142   30.1541   44.0708 H   0  0  0  0  0  0  0  0  0  0  0  0
   57.6804   30.6873   43.0220 H   0  0  0  0  0  0  0  0  0  0  0  0
   56.4940   30.4582   44.3654 H   0  0  0  0  0  0  0  0  0  0  0  0
   58.0646   30.8299   46.7834 H   0  0  0  0  0  0  0  0  0  0  0  0
   59.0090   32.8138   47.9566 H   0  0  0  0  0  0  0  0  0  0  0  0
   59.2552   34.9259   44.1829 H   0  0  0  0  0  0  0  0  0  0  0  0
   58.3068   32.9444   43.0119 H   0  0  0  0  0  0  0  0  0  0  0  0
   57.4487   24.9672   43.9780 H   0  0  0  0  0  0  0  0  0  0  0  0
   56.3835   22.8692   44.8018 H   0  0  0  0  0  0  0  0  0  0  0  0
  1  2  1  0
  2  3  2  0
  3  4  1  0
  4  5  2  0
  5  6  1  0
  6  7  2  0
  7  8  1  0
  8  9  2  0
  9 10  1  0
 10 11  1  0
 11 12  1  0
 12 13  2  0
 13 14  1  0
 14 15  2  0
 15 16  1  0
 16 17  1  0
 16 18  1  0
 16 19  1  0
 15 20  1  0
 20 21  2  0
 10 22  2  0
 22 23  1  0
 23 24  2  0
 23 25  1  0
  5 26  1  0
 26 27  2  0
 27  2  1  0
 22  6  1  0
 21 12  1  0
  1 28  1  0
  1 29  1  0
  1 30  1  0
  3 31  1  0
  4 32  1  0
  8 33  1  0
  9 34  1  0
 11 35  1  0
 11 36  1  0
 13 37  1  0
 14 38  1  0
 20 39  1  0
 21 40  1  0
 26 41  1  0
 27 42  1  0
M  CHG  1  25  -1
M  END
>  <UniqueID>  (32) 
30

>  <SMILES>  (32) 
Cc1ccc(-c2nccc(Cc3ccc(C(F)(F)F)cc3)c2C(=O)[O-])cc1

>  <Energy>  (32) 
60.05172692851878

>  <Genealogy>  (32) 
Cc1ccc(-c2nccc(Cc3ccc(C(F)(F)F)cc3)c2C(=O)[O-])cc1 (protonated)
Cc1ccc(-c2nccc(Cc3ccc(C(F)(F)F)cc3)c2C(=O)[O-])cc1 (3D coordinates assigned)
Cc1ccc(-c2nccc(Cc3ccc(C(F)(F)F)cc3)c2C(=O)[O-])cc1 (optimized conformer: 60.05172692851878 kcal/mol)

>  <smiles>  (32) 
Cc1ccc(-c2nccc(Cc3ccc(C(F)(F)F)cc3)c2C(=O)O)cc1

>  <score_type>  (32) 
oracle

>  <origin>  (32) 
adg

>  <m_score__min__energy>  (32) 
-10.02

>  <m_primary>  (32) 
energy

$$$$
32:0
     RDKit          3D

 51 54  0  0  0  0  0  0  0  0999 V2000
   55.5880   24.4970   45.1720 C   0  0  0  0  0  0  0  0  0  0  0  0
   55.6680   25.6470   46.0050 O   0  0  0  0  0  0  0  0  0  0  0  0
   56.8680   26.2250   46.4510 C   0  0  0  0  0  0  0  0  0  0  0  0
   57.6530   25.6340   47.4580 C   0  0  0  0  0  0  0  0  0  0  0  0
   58.8490   26.2240   47.8630 C   0  0  0  0  0  0  0  0  0  0  0  0
   59.2980   27.4130   47.2740 C   0  0  0  0  0  0  0  0  0  0  0  0
   60.5760   27.9350   47.6730 N   0  0  0  0  0  0  0  0  0  0  0  0
   60.8050   29.3260   47.9650 C   0  0  0  0  0  0  0  0  0  0  0  0
   60.4790   29.8710   49.2190 C   0  0  0  0  0  0  0  0  0  0  0  0
   60.8180   31.1900   49.5240 C   0  0  0  0  0  0  0  0  0  0  0  0
   61.4900   31.9880   48.5830 C   0  0  0  0  0  0  0  0  0  0  0  0
   61.9840   33.3380   48.9440 C   0  0  0  0  0  0  0  0  0  0  0  0
   63.1280   33.4630   49.4600 O   0  0  0  0  0  0  0  0  0  0  0  0
   61.1350   34.5700   48.7560 C   0  0  0  0  0  0  0  0  0  0  0  0
   60.0830   34.3450   47.6990 C   0  0  0  0  0  0  0  0  0  0  0  0
   58.8970   33.6510   48.0020 C   0  0  0  0  0  0  0  0  0  0  0  0
   57.8990   33.5000   47.0340 C   0  0  0  0  0  0  0  0  0  0  0  0
   58.0820   34.0270   45.7520 C   0  0  0  0  0  0  0  0  0  0  0  0
   59.2620   34.7060   45.4380 C   0  0  0  0  0  0  0  0  0  0  0  0
   60.2600   34.8650   46.4050 C   0  0  0  0  0  0  0  0  0  0  0  0
   61.7430   31.4670   47.3030 C   0  0  0  0  0  0  0  0  0  0  0  0
   61.4010   30.1450   46.9980 C   0  0  0  0  0  0  0  0  0  0  0  0
   58.4920   28.0520   46.2990 C   0  0  0  0  0  0  0  0  0  0  0  0
   58.8270   29.3000   45.7420 C   0  0  0  0  0  0  0  0  0  0  0  0
   58.0260   29.8690   44.7540 C   0  0  0  0  0  0  0  0  0  0  0  0
   56.8700   29.2030   44.3330 C   0  0  0  0  0  0  0  0  0  0  0  0
   55.9910   29.8050   43.2760 C   0  0  0  0  0  0  0  0  0  0  0  0
   56.3150   29.2660   42.0440 F   0  0  0  0  0  0  0  0  0  0  0  0
   54.6650   29.5290   43.5580 F   0  0  0  0  0  0  0  0  0  0  0  0
   56.1620   31.1770   43.2260 F   0  0  0  0  0  0  0  0  0  0  0  0
   56.5290   28.0200   44.9120 N   0  0  0  0  0  0  0  0  0  0  0  0
   57.2890   27.4340   45.8760 C   0  0  0  0  0  0  0  0  0  0  0  0
   55.5252   23.5946   45.7978 H   0  0  0  0  0  0  0  0  0  0  0  0
   54.6925   24.5658   44.5369 H   0  0  0  0  0  0  0  0  0  0  0  0
   56.4844   24.4412   44.5369 H   0  0  0  0  0  0  0  0  0  0  0  0
   57.3198   24.6979   47.9299 H   0  0  0  0  0  0  0  0  0  0  0  0
   59.4477   25.7502   48.6549 H   0  0  0  0  0  0  0  0  0  0  0  0
   61.3950   27.2860   47.6650 H   0  0  0  0  0  0  0  0  0  0  0  0
   59.9540   29.2547   49.9637 H   0  0  0  0  0  0  0  0  0  0  0  0
   60.5573   31.6076   50.5077 H   0  0  0  0  0  0  0  0  0  0  0  0
   60.6417   34.8157   49.7080 H   0  0  0  0  0  0  0  0  0  0  0  0
   61.7843   35.3974   48.4338 H   0  0  0  0  0  0  0  0  0  0  0  0
   58.7540   33.2248   49.0060 H   0  0  0  0  0  0  0  0  0  0  0  0
   56.9695   32.9663   47.2814 H   0  0  0  0  0  0  0  0  0  0  0  0
   57.2971   33.9071   44.9907 H   0  0  0  0  0  0  0  0  0  0  0  0
   59.4065   35.1166   44.4278 H   0  0  0  0  0  0  0  0  0  0  0  0
   61.1876   35.3994   46.1518 H   0  0  0  0  0  0  0  0  0  0  0  0
   62.2123   32.1016   46.5368 H   0  0  0  0  0  0  0  0  0  0  0  0
   61.6015   29.7466   45.9925 H   0  0  0  0  0  0  0  0  0  0  0  0
   59.7266   29.8296   46.0886 H   0  0  0  0  0  0  0  0  0  0  0  0
   58.3010   30.8361   44.3077 H   0  0  0  0  0  0  0  0  0  0  0  0
  1  2  1  0
  2  3  1  0
  3  4  2  0
  4  5  1  0
  5  6  2  0
  6  7  1  0
  7  8  1  0
  8  9  2  0
  9 10  1  0
 10 11  2  0
 11 12  1  0
 12 13  2  0
 12 14  1  0
 14 15  1  0
 15 16  2  0
 16 17  1  0
 17 18  2  0
 18 19  1  0
 19 20  2  0
 11 21  1  0
 21 22  2  0
  6 23  1  0
 23 24  2  0
 24 25  1  0
 25 26  2  0
 26 27  1  0
 27 28  1  0
 27 29  1  0
 27 30  1  0
 26 31  1  0
 31 32  2  0
 32  3  1  0
 22  8  1  0
 32 23  1  0
 20 15  1  0
  1 33  1  0
  1 34  1  0
  1 35  1  0
  4 36  1  0
  5 37  1  0
  7 38  1  0
  9 39  1  0
 10 40  1  0
 14 41  1  0
 14 42  1  0
 16 43  1  0
 17 44  1  0
 18 45  1  0
 19 46  1  0
 20 47  1  0
 21 48  1  0
 22 49  1  0
 24 50  1  0
 25 51  1  0
M  END
>  <UniqueID>  (33) 
31

>  <SMILES>  (33) 
COc1ccc(Nc2ccc(C(=O)Cc3ccccc3)cc2)c2ccc(C(F)(F)F)nc12

>  <Energy>  (33) 
66.06043194355146

>  <Genealogy>  (33) 
COc1ccc(Nc2ccc(C(=O)Cc3ccccc3)cc2)c2ccc(C(F)(F)F)nc12 (3D coordinates assigned)
COc1ccc(Nc2ccc(C(=O)Cc3ccccc3)cc2)c2ccc(C(F)(F)F)nc12 (optimized conformer: 66.06043194355146 kcal/mol)

>  <smiles>  (33) 
COc1ccc(Nc2ccc(C(=O)Cc3ccccc3)cc2)c2ccc(C(F)(F)F)nc12

>  <score_type>  (33) 
oracle

>  <origin>  (33) 
adg

>  <m_score__min__energy>  (33) 
-8.7699999999999996

>  <m_primary>  (33) 
energy

$$$$
33:0
     RDKit          3D

 24 24  0  0  0  0  0  0  0  0999 V2000
   59.5980   34.7350   45.9670 C   0  0  0  0  0  0  0  0  0  0  0  0
   58.3160   34.2100   46.6170 C   0  0  0  0  0  0  0  0  0  0  0  0
   57.3120   33.8760   45.5150 C   0  0  0  0  0  0  0  0  0  0  0  0
   58.0460   33.0410   44.4920 C   0  0  0  0  0  0  0  0  0  0  0  0
   57.8780   31.6020   44.7340 C   0  0  0  0  0  0  0  0  0  0  0  0
   56.6430   31.0680   44.6250 N   0  0  0  0  0  0  0  0  0  0  0  0
   56.4960   29.7390   44.8500 C   0  0  0  0  0  0  0  0  0  0  0  0
   55.3080   29.2440   44.7420 N   0  0  0  0  0  0  0  0  0  0  0  0
   57.6000   28.9570   45.1830 C   0  0  0  0  0  0  0  0  0  0  0  0
   57.3780   27.2280   45.4700 Cl  0  0  0  0  0  0  0  0  0  0  0  0
   58.8280   29.5640   45.2770 C   0  0  0  0  0  0  0  0  0  0  0  0
   60.2030   28.5480   45.7000 Cl  0  0  0  0  0  0  0  0  0  0  0  0
   58.9660   30.8820   45.0530 N   0  0  0  0  0  0  0  0  0  0  0  0
   60.3128   35.0277   46.7501 H   0  0  0  0  0  0  0  0  0  0  0  0
   60.0417   33.9462   45.3418 H   0  0  0  0  0  0  0  0  0  0  0  0
   59.3610   35.6085   45.3418 H   0  0  0  0  0  0  0  0  0  0  0  0
   58.5403   33.3050   47.2007 H   0  0  0  0  0  0  0  0  0  0  0  0
   57.8961   34.9727   47.2893 H   0  0  0  0  0  0  0  0  0  0  0  0
   56.4676   33.3075   45.9320 H   0  0  0  0  0  0  0  0  0  0  0  0
   56.9079   34.7920   45.0593 H   0  0  0  0  0  0  0  0  0  0  0  0
   57.6561   33.2809   43.4918 H   0  0  0  0  0  0  0  0  0  0  0  0
   59.1180   33.2756   44.5677 H   0  0  0  0  0  0  0  0  0  0  0  0
   55.1430   28.2270   44.8670 H   0  0  0  0  0  0  0  0  0  0  0  0
   59.9260   31.2730   45.1420 H   0  0  0  0  0  0  0  0  0  0  0  0
  1  2  1  0
  2  3  1  0
  3  4  1  0
  4  5  1  0
  5  6  2  0
  6  7  1  0
  7  8  2  3
  7  9  1  0
  9 10  1  0
  9 11  2  0
 11 12  1  0
 11 13  1  0
 13  5  1  0
  1 14  1  0
  1 15  1  0
  1 16  1  0
  2 17  1  0
  2 18  1  0
  3 19  1  0
  3 20  1  0
  4 21  1  0
  4 22  1  0
  8 23  1  0
 13 24  1  0
M  END
>  <smiles>  (34) 
CCCCc1nc(=N)c(Cl)c(Cl)[nH]1

>  <score_type>  (34) 
oracle

>  <origin>  (34) 
adg

>  <m_score__min__energy>  (34) 
-6.2000000000000002

>  <m_primary>  (34) 
energy

$$$$
34:0
     RDKit          3D

 25 26  0  0  0  0  0  0  0  0999 V2000
   64.1350   33.1860   48.6200 C   0  0  0  0  0  0  0  0  0  0  0  0
   62.7700   33.5580   48.1240 C   0  0  0  0  0  0  0  0  0  0  0  0
   61.7510   33.8810   49.0330 C   0  0  0  0  0  0  0  0  0  0  0  0
   60.4680   34.1940   48.5730 C   0  0  0  0  0  0  0  0  0  0  0  0
   60.1920   34.1810   47.2000 C   0  0  0  0  0  0  0  0  0  0  0  0
   58.5470   34.5910   46.6110 S   0  0  0  0  0  0  0  0  0  0  0  0
   58.8690   34.1070   44.8790 C   0  0  0  0  0  0  0  0  0  0  0  0
   58.1570   32.8360   44.5350 C   0  0  0  0  0  0  0  0  0  0  0  0
   57.5930   31.9440   45.4390 C   0  0  0  0  0  0  0  0  0  0  0  0
   56.9720   30.8780   44.8680 N   0  0  0  0  0  0  0  0  0  0  0  0
   57.0320   30.9110   43.5180 C   0  0  0  0  0  0  0  0  0  0  0  0
   57.8620   32.2720   42.9800 S   0  0  0  0  0  0  0  0  0  0  0  0
   61.1970   33.8320   46.2920 C   0  0  0  0  0  0  0  0  0  0  0  0
   62.4800   33.5180   46.7500 C   0  0  0  0  0  0  0  0  0  0  0  0
   64.1378   33.1852   49.7200 H   0  0  0  0  0  0  0  0  0  0  0  0
   64.3982   32.1834   48.2520 H   0  0  0  0  0  0  0  0  0  0  0  0
   64.8705   33.9165   48.2520 H   0  0  0  0  0  0  0  0  0  0  0  0
   61.9624   33.8880   50.1125 H   0  0  0  0  0  0  0  0  0  0  0  0
   59.6746   34.4507   49.2904 H   0  0  0  0  0  0  0  0  0  0  0  0
   58.5186   34.9075   44.2109 H   0  0  0  0  0  0  0  0  0  0  0  0
   59.9503   33.9470   44.7555 H   0  0  0  0  0  0  0  0  0  0  0  0
   57.6448   32.0887   46.5282 H   0  0  0  0  0  0  0  0  0  0  0  0
   56.5952   30.1476   42.8574 H   0  0  0  0  0  0  0  0  0  0  0  0
   60.9773   33.8045   45.2145 H   0  0  0  0  0  0  0  0  0  0  0  0
   63.2652   33.2386   46.0320 H   0  0  0  0  0  0  0  0  0  0  0  0
  1  2  1  0
  2  3  2  0
  3  4  1  0
  4  5  2  0
  5  6  1  0
  6  7  1  0
  7  8  1  0
  8  9  2  0
  9 10  1  0
 10 11  2  0
 11 12  1  0
  5 13  1  0
 13 14  2  0
 14  2  1  0
 12  8  1  0
  1 15  1  0
  1 16  1  0
  1 17  1  0
  3 18  1  0
  4 19  1  0
  7 20  1  0
  7 21  1  0
  9 22  1  0
 11 23  1  0
 13 24  1  0
 14 25  1  0
M  END
>  <UniqueID>  (35) 
32

>  <SMILES>  (35) 
Cc1ccc(SCc2cncs2)cc1

>  <Energy>  (35) 
48.500287656200285

>  <Genealogy>  (35) 
Cc1ccc(SCc2cncs2)cc1 (3D coordinates assigned)
Cc1ccc(SCc2cncs2)cc1 (optimized conformer: 48.500287656200285 kcal/mol)

>  <smiles>  (35) 
Cc1ccc(SCc2cncs2)cc1

>  <score_type>  (35) 
oracle

>  <origin>  (35) 
adg

>  <m_score__min__energy>  (35) 
-6.1600000000000001

>  <m_primary>  (35) 
energy

$$$$
35:0
     RDKit          3D

 44 47  0  0  0  0  0  0  0  0999 V2000
   57.0120   34.5700   45.1660 O   0  0  0  0  0  0  0  0  0  0  0  0
   58.0240   33.8200   45.1570 C   0  0  0  0  0  0  0  0  0  0  0  0
   59.3130   34.4050   45.3930 N   0  0  0  0  0  0  0  0  0  0  0  0
   60.1330   34.2040   46.5530 C   0  0  0  0  0  0  0  0  0  0  0  0
   61.4760   33.8420   46.3780 C   0  0  0  0  0  0  0  0  0  0  0  0
   62.3060   33.6510   47.4860 C   0  0  0  0  0  0  0  0  0  0  0  0
   61.8050   33.8370   48.7780 C   0  0  0  0  0  0  0  0  0  0  0  0
   60.4740   34.2210   48.9610 C   0  0  0  0  0  0  0  0  0  0  0  0
   59.6400   34.4120   47.8540 C   0  0  0  0  0  0  0  0  0  0  0  0
   57.8580   32.3790   44.8500 C   0  0  0  0  0  0  0  0  0  0  0  0
   58.1640   31.3990   45.8090 C   0  0  0  0  0  0  0  0  0  0  0  0
   58.0060   30.0430   45.5100 C   0  0  0  0  0  0  0  0  0  0  0  0
   57.5370   29.6410   44.2520 C   0  0  0  0  0  0  0  0  0  0  0  0
   57.4030   28.2380   43.9630 N   0  0  0  0  0  0  0  0  0  0  0  0
   58.2370   27.2190   44.5390 C   0  0  0  0  0  0  0  0  0  0  0  0
   59.3180   27.5340   45.1080 O   0  0  0  0  0  0  0  0  0  0  0  0
   57.8690   25.8330   44.4430 N   0  0  0  0  0  0  0  0  0  0  0  0
   57.8780   24.9180   45.5860 C   0  0  0  0  0  0  0  0  0  0  0  0
   57.3660   23.6540   45.0060 C   0  0  0  0  0  0  0  0  0  0  0  0
   57.1620   22.4330   45.6450 C   0  0  0  0  0  0  0  0  0  0  0  0
   56.6610   21.3680   44.8790 C   0  0  0  0  0  0  0  0  0  0  0  0
   56.3890   21.5440   43.5500 N   0  0  0  0  0  0  0  0  0  0  0  0
   56.5900   22.7400   42.9270 C   0  0  0  0  0  0  0  0  0  0  0  0
   57.0850   23.8080   43.6710 C   0  0  0  0  0  0  0  0  0  0  0  0
   57.3850   25.1890   43.2200 C   0  0  0  0  0  0  0  0  0  0  0  0
   57.2680   30.6190   43.2790 C   0  0  0  0  0  0  0  0  0  0  0  0
   57.4260   31.9760   43.5770 C   0  0  0  0  0  0  0  0  0  0  0  0
   61.8786   33.7076   45.3632 H   0  0  0  0  0  0  0  0  0  0  0  0
   63.3552   33.3538   47.3414 H   0  0  0  0  0  0  0  0  0  0  0  0
   62.4579   33.6812   49.6495 H   0  0  0  0  0  0  0  0  0  0  0  0
   60.0812   34.3734   49.9771 H   0  0  0  0  0  0  0  0  0  0  0  0
   58.5960   34.7256   48.0014 H   0  0  0  0  0  0  0  0  0  0  0  0
   58.5302   31.7009   46.8014 H   0  0  0  0  0  0  0  0  0  0  0  0
   58.2518   29.2850   46.2683 H   0  0  0  0  0  0  0  0  0  0  0  0
   56.7200   27.9600   43.2240 H   0  0  0  0  0  0  0  0  0  0  0  0
   58.8967   24.7879   45.9801 H   0  0  0  0  0  0  0  0  0  0  0  0
   57.2788   25.2792   46.4348 H   0  0  0  0  0  0  0  0  0  0  0  0
   57.3860   22.3073   46.7146 H   0  0  0  0  0  0  0  0  0  0  0  0
   56.4867   20.3890   45.3492 H   0  0  0  0  0  0  0  0  0  0  0  0
   56.3654   22.8590   41.8568 H   0  0  0  0  0  0  0  0  0  0  0  0
   58.1590   25.1910   42.4384 H   0  0  0  0  0  0  0  0  0  0  0  0
   56.5185   25.6987   42.7736 H   0  0  0  0  0  0  0  0  0  0  0  0
   56.9311   30.3150   42.2769 H   0  0  0  0  0  0  0  0  0  0  0  0
   57.2102   32.7328   42.8084 H   0  0  0  0  0  0  0  0  0  0  0  0
  1  2  2  0
  2  3  1  0
  3  4  1  0
  4  5  2  0
  5  6  1  0
  6  7  2  0
  7  8  1  0
  8  9  2  0
  2 10  1  0
 10 11  2  0
 11 12  1  0
 12 13  2  0
 13 14  1  0
 14 15  1  0
 15 16  2  0
 15 17  1  0
 17 18  1  0
 18 19  1  0
 19 20  2  0
 20 21  1  0
 21 22  2  0
 22 23  1  0
 23 24  2  0
 24 25  1  0
 13 26  1  0
 26 27  2  0
  9  4  1  0
 27 10  1  0
 25 17  1  0
 24 19  1  0
  5 28  1  0
  6 29  1  0
  7 30  1  0
  8 31  1  0
  9 32  1  0
 11 33  1  0
 12 34  1  0
 14 35  1  0
 18 36  1  0
 18 37  1  0
 20 38  1  0
 21 39  1  0
 23 40  1  0
 25 41  1  0
 25 42  1  0
 26 43  1  0
 27 44  1  0
M  CHG  1   3  -1
M  END
>  <UniqueID>  (36) 
33

>  <SMILES>  (36) 
O=C([N-]c1ccccc1)c1ccc(NC(=O)N2Cc3ccncc3C2)cc1

>  <Energy>  (36) 
69.48422936670175

>  <Genealogy>  (36) 
O=C([N-]c1ccccc1)c1ccc(NC(=O)N2Cc3ccncc3C2)cc1 (protonated)
O=C([N-]c1ccccc1)c1ccc(NC(=O)N2Cc3ccncc3C2)cc1 (3D coordinates assigned)
O=C([N-]c1ccccc1)c1ccc(NC(=O)N2Cc3ccncc3C2)cc1 (nonaromatic ring conformer: 69.48422936670175 kcal/mol)

>  <smiles>  (36) 
O=C(Nc1ccccc1)c1ccc(NC(=O)N2Cc3ccncc3C2)cc1

>  <score_type>  (36) 
oracle

>  <origin>  (36) 
adg

>  <m_score__min__energy>  (36) 
-9.5399999999999991

>  <m_primary>  (36) 
energy

$$$$
36:0
     RDKit          3D

 39 40  0  0  0  0  0  0  0  0999 V2000
   60.7690   23.0000   45.2900 C   0  0  0  0  0  0  0  0  0  0  0  0
   59.5210   22.3630   45.5400 O   0  0  0  0  0  0  0  0  0  0  0  0
   58.4340   22.3770   44.6510 C   0  0  0  0  0  0  0  0  0  0  0  0
   58.0320   21.2450   43.9930 N   0  0  0  0  0  0  0  0  0  0  0  0
   56.9780   21.2560   43.1320 C   0  0  0  0  0  0  0  0  0  0  0  0
   56.2730   22.4370   42.8980 C   0  0  0  0  0  0  0  0  0  0  0  0
   56.6590   23.6040   43.5550 C   0  0  0  0  0  0  0  0  0  0  0  0
   57.7440   23.5810   44.4360 C   0  0  0  0  0  0  0  0  0  0  0  0
   58.1380   24.7890   45.1150 C   0  0  0  0  0  0  0  0  0  0  0  0
   58.4620   25.7970   45.6890 C   0  0  0  0  0  0  0  0  0  0  0  0
   58.8520   26.9940   46.3890 C   0  0  0  0  0  0  0  0  0  0  0  0
   59.4670   26.8870   47.6440 C   0  0  0  0  0  0  0  0  0  0  0  0
   59.8740   28.0370   48.3280 C   0  0  0  0  0  0  0  0  0  0  0  0
   59.6730   29.2970   47.7610 C   0  0  0  0  0  0  0  0  0  0  0  0
   59.0610   29.4130   46.5100 C   0  0  0  0  0  0  0  0  0  0  0  0
   58.6420   28.2660   45.8180 C   0  0  0  0  0  0  0  0  0  0  0  0
   58.0110   28.4030   44.5370 N   0  0  0  0  0  0  0  0  0  0  0  0
   58.5170   27.6450   43.3970 C   0  0  0  0  0  0  0  0  0  0  0  0
   56.6900   29.5100   44.3320 S   0  0  0  0  0  0  0  0  0  0  0  0
   56.3200   29.6800   42.6010 C   0  0  0  0  0  0  0  0  0  0  0  0
   57.0600   30.8590   44.8840 O   0  0  0  0  0  0  0  0  0  0  0  0
   55.4830   28.9960   45.0650 O   0  0  0  0  0  0  0  0  0  0  0  0
   61.2528   23.2469   46.2466 H   0  0  0  0  0  0  0  0  0  0  0  0
   61.4177   22.3227   44.7151 H   0  0  0  0  0  0  0  0  0  0  0  0
   60.6011   23.9227   44.7151 H   0  0  0  0  0  0  0  0  0  0  0  0
   58.5310   20.3400   44.1370 H   0  0  0  0  0  0  0  0  0  0  0  0
   56.6807   20.3298   42.6184 H   0  0  0  0  0  0  0  0  0  0  0  0
   55.4212   22.4470   42.2021 H   0  0  0  0  0  0  0  0  0  0  0  0
   56.1108   24.5415   43.3805 H   0  0  0  0  0  0  0  0  0  0  0  0
   59.6300   25.8957   48.0922 H   0  0  0  0  0  0  0  0  0  0  0  0
   60.3532   27.9487   49.3142 H   0  0  0  0  0  0  0  0  0  0  0  0
   59.9968   30.1997   48.2998 H   0  0  0  0  0  0  0  0  0  0  0  0
   58.9070   30.4074   46.0657 H   0  0  0  0  0  0  0  0  0  0  0  0
   59.0939   26.7808   43.7582 H   0  0  0  0  0  0  0  0  0  0  0  0
   57.6722   27.2928   42.7868 H   0  0  0  0  0  0  0  0  0  0  0  0
   59.1662   28.2901   42.7868 H   0  0  0  0  0  0  0  0  0  0  0  0
   55.3264   30.1365   42.4816 H   0  0  0  0  0  0  0  0  0  0  0  0
   57.0774   30.3204   42.1253 H   0  0  0  0  0  0  0  0  0  0  0  0
   56.3274   28.6882   42.1253 H   0  0  0  0  0  0  0  0  0  0  0  0
  1  2  1  0
  2  3  1  0
  3  4  2  0
  4  5  1  0
  5  6  2  0
  6  7  1  0
  7  8  2  0
  8  9  1  0
  9 10  3  0
 10 11  1  0
 11 12  2  0
 12 13  1  0
 13 14  2  0
 14 15  1  0
 15 16  2  0
 16 17  1  0
 17 18  1  0
 17 19  1  0
 19 20  1  0
 19 21  2  0
 19 22  2  0
  8  3  1  0
 16 11  1  0
  1 23  1  0
  1 24  1  0
  1 25  1  0
  4 26  1  0
  5 27  1  0
  6 28  1  0
  7 29  1  0
 12 30  1  0
 13 31  1  0
 14 32  1  0
 15 33  1  0
 18 34  1  0
 18 35  1  0
 18 36  1  0
 20 37  1  0
 20 38  1  0
 20 39  1  0
M  CHG  1   4   1
M  END
>  <UniqueID>  (37) 
34

>  <SMILES>  (37) 
COc1[nH+]cccc1C#Cc1ccccc1N(C)S(C)(=O)=O

>  <Energy>  (37) 
35.29813130582295

>  <Genealogy>  (37) 
COc1[nH+]cccc1C#Cc1ccccc1N(C)S(C)(=O)=O (protonated)
COc1[nH+]cccc1C#Cc1ccccc1N(C)S(C)(=O)=O (3D coordinates assigned)
COc1[nH+]cccc1C#Cc1ccccc1N(C)S(C)(=O)=O (optimized conformer: 35.29813130582295 kcal/mol)

>  <smiles>  (37) 
COc1ncccc1C#Cc1ccccc1N(C)S(C)(=O)=O

>  <score_type>  (37) 
oracle

>  <origin>  (37) 
adg

>  <m_score__min__energy>  (37) 
-6.29

>  <m_primary>  (37) 
energy

$$$$
37:0
     RDKit          3D

 34 35  0  0  0  0  0  0  0  0999 V2000
   54.8990   27.0810   46.0000 H   0  0  0  0  0  0  0  0  0  0  0  0
   55.9020   27.3160   45.8220 N   0  0  0  0  0  0  0  0  0  0  0  0
   56.2650   28.4160   45.2440 C   0  0  0  0  0  0  0  0  0  0  0  0
   55.3200   29.3180   44.8680 N   0  0  0  0  0  0  0  0  0  0  0  0
   55.6410   30.4900   44.2560 C   0  0  0  0  0  0  0  0  0  0  0  0
   54.8472   31.1967   43.9724 H   0  0  0  0  0  0  0  0  0  0  0  0
   56.9880   30.8000   43.9850 C   0  0  0  0  0  0  0  0  0  0  0  0
   57.4010   31.9840   43.3500 O   0  0  0  0  0  0  0  0  0  0  0  0
   58.4600   32.8530   43.7650 C   0  0  0  0  0  0  0  0  0  0  0  0
   59.2572   32.2512   44.2257 H   0  0  0  0  0  0  0  0  0  0  0  0
   58.8367   33.3874   42.8804 H   0  0  0  0  0  0  0  0  0  0  0  0
   57.9620   33.8980   44.7900 C   0  0  1  0  0  0  0  0  0  0  0  0
   57.0319   34.3188   44.3803 H   0  0  0  0  0  0  0  0  0  0  0  0
   57.6120   33.2690   46.1540 C   0  0  0  0  0  0  0  0  0  0  0  0
   56.8848   32.4587   45.9975 H   0  0  0  0  0  0  0  0  0  0  0  0
   57.1911   34.0553   46.7979 H   0  0  0  0  0  0  0  0  0  0  0  0
   58.8110   32.7160   46.8220 N   0  0  0  0  0  0  0  0  0  0  0  0
   58.4860   32.3180   48.2000 C   0  0  0  0  0  0  0  0  0  0  0  0
   59.0196   32.9714   48.9059 H   0  0  0  0  0  0  0  0  0  0  0  0
   57.4020   32.4105   48.3624 H   0  0  0  0  0  0  0  0  0  0  0  0
   58.7933   31.2744   48.3624 H   0  0  0  0  0  0  0  0  0  0  0  0
   60.0080   33.5990   46.7750 C   0  0  0  0  0  0  0  0  0  0  0  0
   60.7322   33.1668   46.0688 H   0  0  0  0  0  0  0  0  0  0  0  0
   60.4078   33.6576   47.7981 H   0  0  0  0  0  0  0  0  0  0  0  0
   59.6920   35.0340   46.3300 C   0  0  0  0  0  0  0  0  0  0  0  0
   60.6310   35.6023   46.2573 H   0  0  0  0  0  0  0  0  0  0  0  0
   59.0201   35.4894   47.0724 H   0  0  0  0  0  0  0  0  0  0  0  0
   58.9900   35.0490   44.9640 C   0  0  0  0  0  0  0  0  0  0  0  0
   59.7538   34.9570   44.1777 H   0  0  0  0  0  0  0  0  0  0  0  0
   58.4347   35.9959   44.8930 H   0  0  0  0  0  0  0  0  0  0  0  0
   57.9710   29.8850   44.3730 C   0  0  0  0  0  0  0  0  0  0  0  0
   59.0309   30.1090   44.1821 H   0  0  0  0  0  0  0  0  0  0  0  0
   57.6180   28.6890   45.0010 C   0  0  0  0  0  0  0  0  0  0  0  0
   58.3933   27.9689   45.3017 H   0  0  0  0  0  0  0  0  0  0  0  0
  1  2  1  0
  2  3  2  0
  3  4  1  0
  4  5  1  0
  5  6  1  0
  5  7  2  0
  7  8  1  0
  8  9  1  0
  9 10  1  0
  9 11  1  0
  9 12  1  0
 12 13  1  6
 12 14  1  0
 14 15  1  0
 14 16  1  0
 14 17  1  0
 17 18  1  0
 18 19  1  0
 18 20  1  0
 18 21  1  0
 17 22  1  0
 22 23  1  0
 22 24  1  0
 22 25  1  0
 25 26  1  0
 25 27  1  0
 25 28  1  0
 28 29  1  0
 28 30  1  0
  7 31  1  0
 31 32  1  0
 31 33  2  0
 33 34  1  0
 33  3  1  0
 28 12  1  0
M  CHG  1   4  -1
M  END
>  <UniqueID>  (38) 
35

>  <SMILES>  (38) 
[H]/N=c1\ccc(OC[C@@H]2CCCN(C)C2)c[n-]1

>  <Energy>  (38) 
43.30543265067596

>  <Genealogy>  (38) 
CN1CCCC(COc2ccc(=N)[n-]c2)C1 (protonated)
CN1CCC[C@@H](COc2ccc(=N)[n-]c2)C1 (chirality)
[H]/N=c1\ccc(OC[C@@H]2CCCN(C)C2)c[n-]1 (cis-trans isomerization)
[H]/N=c1\ccc(OC[C@@H]2CCCN(C)C2)c[n-]1 (3D coordinates assigned)
[H]/N=c1\ccc(OC[C@@H]2CCCN(C)C2)c[n-]1 (nonaromatic ring conformer: 43.30543265067596 kcal/mol)

>  <smiles>  (38) 
CN1CCCC(COc2ccc(=N)[nH]c2)C1

>  <score_type>  (38) 
oracle

>  <origin>  (38) 
adg

>  <m_score__min__energy>  (38) 
-8.4000000000000004

>  <m_primary>  (38) 
energy

$$$$
38:0
     RDKit          3D

 28 29  0  0  0  0  0  0  0  0999 V2000
   59.2056   32.7823   47.6852 H   0  0  0  0  0  0  0  0  0  0  0  0
   58.7960   32.7240   46.6660 C   0  0  0  0  0  0  0  0  0  0  0  0
   58.1780   31.5480   46.2280 C   0  0  0  0  0  0  0  0  0  0  0  0
   58.0989   30.6842   46.9044 H   0  0  0  0  0  0  0  0  0  0  0  0
   57.6590   31.4690   44.9270 C   0  0  0  0  0  0  0  0  0  0  0  0
   56.8900   29.9870   44.3650 S   0  0  0  0  0  0  0  0  0  0  0  0
   55.4170   30.0990   44.6410 O   0  0  0  0  0  0  0  0  0  0  0  0
   57.0810   29.8010   42.8880 O   0  0  0  0  0  0  0  0  0  0  0  0
   57.4980   28.6040   45.2220 N   0  0  0  0  0  0  0  0  0  0  0  0
   56.8810   27.5220   45.6020 C   0  0  0  0  0  0  0  0  0  0  0  0
   55.5700   27.4550   45.6230 O   0  0  0  0  0  0  0  0  0  0  0  0
   55.1580   26.2900   46.0270 N   0  0  0  0  0  0  0  0  0  0  0  0
   56.2540   25.5510   46.2840 C   0  0  0  0  0  0  0  0  0  0  0  0
   56.1970   24.1310   46.7470 C   0  0  0  0  0  0  0  0  0  0  0  0
   56.1959   24.1037   47.8467 H   0  0  0  0  0  0  0  0  0  0  0  0
   55.2791   23.6582   46.3675 H   0  0  0  0  0  0  0  0  0  0  0  0
   57.0740   23.5861   46.3675 H   0  0  0  0  0  0  0  0  0  0  0  0
   57.3970   26.2980   46.0350 C   0  0  0  0  0  0  0  0  0  0  0  0
   58.8070   25.7900   46.1170 C   0  0  0  0  0  0  0  0  0  0  0  0
   59.0981   25.6851   47.1726 H   0  0  0  0  0  0  0  0  0  0  0  0
   58.8737   24.8113   45.6193 H   0  0  0  0  0  0  0  0  0  0  0  0
   59.4825   26.5013   45.6193 H   0  0  0  0  0  0  0  0  0  0  0  0
   57.7530   32.5780   44.0740 C   0  0  0  0  0  0  0  0  0  0  0  0
   57.3400   32.5236   43.0559 H   0  0  0  0  0  0  0  0  0  0  0  0
   58.3700   33.7520   44.5140 C   0  0  0  0  0  0  0  0  0  0  0  0
   58.4440   34.6191   43.8412 H   0  0  0  0  0  0  0  0  0  0  0  0
   58.8940   33.8260   45.8100 C   0  0  0  0  0  0  0  0  0  0  0  0
   59.6700   35.2990   46.3600 Cl  0  0  0  0  0  0  0  0  0  0  0  0
  1  2  1  0
  2  3  2  0
  3  4  1  0
  3  5  1  0
  5  6  1  0
  6  7  2  0
  6  8  2  0
  6  9  1  0
  9 10  2  0
 10 11  1  0
 11 12  1  0
 12 13  1  0
 13 14  1  0
 14 15  1  0
 14 16  1  0
 14 17  1  0
 13 18  2  0
 18 19  1  0
 19 20  1  0
 19 21  1  0
 19 22  1  0
  5 23  2  0
 23 24  1  0
 23 25  1  0
 25 26  1  0
 25 27  2  0
 27 28  1  0
 27  2  1  0
 18 10  1  0
M  CHG  1  12  -1
M  END
>  <UniqueID>  (39) 
36

>  <SMILES>  (39) 
Cc1[n-]o/c(=N/S(=O)(=O)c2ccc(Cl)cc2)c1C

>  <Energy>  (39) 
67.55899446254806

>  <Genealogy>  (39) 
Cc1[n-]oc(=NS(=O)(=O)c2ccc(Cl)cc2)c1C (protonated)
Cc1[n-]o/c(=N/S(=O)(=O)c2ccc(Cl)cc2)c1C (cis-trans isomerization)
Cc1[n-]o/c(=N/S(=O)(=O)c2ccc(Cl)cc2)c1C (3D coordinates assigned)
Cc1[n-]o/c(=N/S(=O)(=O)c2ccc(Cl)cc2)c1C (optimized conformer: 67.55899446254806 kcal/mol)

>  <smiles>  (39) 
Cc1[nH]oc(=NS(=O)(=O)c2ccc(Cl)cc2)c1C

>  <score_type>  (39) 
oracle

>  <origin>  (39) 
adg

>  <m_score__min__energy>  (39) 
-11.35

>  <m_primary>  (39) 
energy

$$$$
39:0
     RDKit          3D

 46 49  0  0  0  0  0  0  0  0999 V2000
   56.6560   30.4760   42.6160 C   0  0  0  0  0  0  0  0  0  0  0  0
   56.6380   29.3270   43.4100 C   0  0  0  0  0  0  0  0  0  0  0  0
   57.3890   29.2770   44.5890 C   0  0  0  0  0  0  0  0  0  0  0  0
   58.1670   30.3810   44.9860 C   0  0  0  0  0  0  0  0  0  0  0  0
   58.9640   30.3310   46.2390 C   0  0  0  0  0  0  0  0  0  0  0  0
   58.5220   29.5730   47.3360 C   0  0  0  0  0  0  0  0  0  0  0  0
   59.2740   29.5200   48.5100 C   0  0  0  0  0  0  0  0  0  0  0  0
   60.4840   30.2200   48.6130 C   0  0  0  0  0  0  0  0  0  0  0  0
   60.9250   31.0040   47.5290 C   0  0  0  0  0  0  0  0  0  0  0  0
   60.1740   31.0410   46.3450 C   0  0  0  0  0  0  0  0  0  0  0  0
   62.2510   31.7230   47.5930 C   0  0  0  0  0  0  0  0  0  0  0  0
   62.6470   32.0490   48.9770 N   0  0  0  0  0  0  0  0  0  0  0  0
   61.8640   33.1780   49.5370 C   0  0  0  0  0  0  0  0  0  0  0  0
   61.6910   34.3080   48.5130 C   0  0  0  0  0  0  0  0  0  0  0  0
   60.4140   34.1490   47.7270 C   0  0  0  0  0  0  0  0  0  0  0  0
   60.3270   34.6300   46.4140 C   0  0  0  0  0  0  0  0  0  0  0  0
   59.1250   34.5050   45.7130 C   0  0  0  0  0  0  0  0  0  0  0  0
   58.0460   33.9270   46.3070 N   0  0  0  0  0  0  0  0  0  0  0  0
   58.1010   33.4610   47.5830 C   0  0  0  0  0  0  0  0  0  0  0  0
   59.2830   33.5660   48.3180 C   0  0  0  0  0  0  0  0  0  0  0  0
   62.6350   30.8340   49.8200 C   0  0  0  0  0  0  0  0  0  0  0  0
   61.2450   30.1790   49.9130 C   0  0  0  0  0  0  0  0  0  0  0  0
   58.1770   31.5330   44.1770 C   0  0  0  0  0  0  0  0  0  0  0  0
   57.4250   31.5770   42.9990 C   0  0  0  0  0  0  0  0  0  0  0  0
   56.0646   30.5136   41.6893 H   0  0  0  0  0  0  0  0  0  0  0  0
   56.0322   28.4600   43.1076 H   0  0  0  0  0  0  0  0  0  0  0  0
   57.3716   28.3692   45.2099 H   0  0  0  0  0  0  0  0  0  0  0  0
   57.5754   29.0168   47.2689 H   0  0  0  0  0  0  0  0  0  0  0  0
   58.9144   28.9240   49.3617 H   0  0  0  0  0  0  0  0  0  0  0  0
   60.5350   31.6315   45.4900 H   0  0  0  0  0  0  0  0  0  0  0  0
   63.0237   31.0799   47.1465 H   0  0  0  0  0  0  0  0  0  0  0  0
   62.1469   32.6692   47.0418 H   0  0  0  0  0  0  0  0  0  0  0  0
   60.8708   32.8107   49.8346 H   0  0  0  0  0  0  0  0  0  0  0  0
   62.4101   33.5793   50.4034 H   0  0  0  0  0  0  0  0  0  0  0  0
   61.6667   35.2711   49.0438 H   0  0  0  0  0  0  0  0  0  0  0  0
   62.5364   34.2702   47.8103 H   0  0  0  0  0  0  0  0  0  0  0  0
   61.1990   35.1027   45.9384 H   0  0  0  0  0  0  0  0  0  0  0  0
   59.0509   34.8744   44.6795 H   0  0  0  0  0  0  0  0  0  0  0  0
   57.2116   33.0000   48.0374 H   0  0  0  0  0  0  0  0  0  0  0  0
   59.3274   33.1946   49.3524 H   0  0  0  0  0  0  0  0  0  0  0  0
   63.3383   30.1041   49.3927 H   0  0  0  0  0  0  0  0  0  0  0  0
   62.9243   31.1369   50.8371 H   0  0  0  0  0  0  0  0  0  0  0  0
   61.3726   29.1278   50.2110 H   0  0  0  0  0  0  0  0  0  0  0  0
   60.6627   30.7489   50.6520 H   0  0  0  0  0  0  0  0  0  0  0  0
   58.7801   32.4039   44.4734 H   0  0  0  0  0  0  0  0  0  0  0  0
   57.4392   32.4810   42.3725 H   0  0  0  0  0  0  0  0  0  0  0  0
  1  2  2  0
  2  3  1  0
  3  4  2  0
  4  5  1  0
  5  6  2  0
  6  7  1  0
  7  8  2  0
  8  9  1  0
  9 10  2  0
  9 11  1  0
 11 12  1  0
 12 13  1  0
 13 14  1  0
 14 15  1  0
 15 16  2  0
 16 17  1  0
 17 18  2  0
 18 19  1  0
 19 20  2  0
 12 21  1  0
 21 22  1  0
  4 23  1  0
 23 24  2  0
 24  1  1  0
 10  5  1  0
 20 15  1  0
 22  8  1  0
  1 25  1  0
  2 26  1  0
  3 27  1  0
  6 28  1  0
  7 29  1  0
 10 30  1  0
 11 31  1  0
 11 32  1  0
 13 33  1  0
 13 34  1  0
 14 35  1  0
 14 36  1  0
 16 37  1  0
 17 38  1  0
 19 39  1  0
 20 40  1  0
 21 41  1  0
 21 42  1  0
 22 43  1  0
 22 44  1  0
 23 45  1  0
 24 46  1  0
M  END
>  <UniqueID>  (40) 
37

>  <SMILES>  (40) 
c1ccc(-c2ccc3c(c2)CN(CCc2ccncc2)CC3)cc1

>  <Energy>  (40) 
60.57066709221104

>  <Genealogy>  (40) 
c1ccc(-c2ccc3c(c2)CN(CCc2ccncc2)CC3)cc1 (3D coordinates assigned)
c1ccc(-c2ccc3c(c2)CN(CCc2ccncc2)CC3)cc1 (nonaromatic ring conformer: 60.57066709221104 kcal/mol)

>  <smiles>  (40) 
c1ccc(-c2ccc3c(c2)CN(CCc2ccncc2)CC3)cc1

>  <score_type>  (40) 
oracle

>  <origin>  (40) 
adg

>  <m_score__min__energy>  (40) 
-8.1400000000000006

>  <m_primary>  (40) 
energy

$$$$
40:0
     RDKit          3D

 37 40  0  0  0  0  0  0  0  0999 V2000
   55.8560   31.0000   44.5380 O   0  0  0  0  0  0  0  0  0  0  0  0
   57.1140   31.1010   44.5620 C   0  0  0  0  0  0  0  0  0  0  0  0
   57.9130   30.1030   43.9880 O   0  0  0  0  0  0  0  0  0  0  0  0
   58.2780   28.9080   44.6190 C   0  0  0  0  0  0  0  0  0  0  0  0
   59.6010   28.5920   44.7510 N   0  0  0  0  0  0  0  0  0  0  0  0
   60.0100   27.4680   45.3620 N   0  0  0  0  0  0  0  0  0  0  0  0
   59.1210   26.5820   45.9010 C   0  0  0  0  0  0  0  0  0  0  0  0
   57.7730   26.8890   45.7970 C   0  0  0  0  0  0  0  0  0  0  0  0
   56.6280   26.2870   46.2550 C   0  0  0  0  0  0  0  0  0  0  0  0
   56.5100   24.7640   47.1900 S   0  0  0  0  0  0  0  0  0  0  0  0
   56.8230   23.7450   45.7420 C   0  0  0  0  0  0  0  0  0  0  0  0
   58.1120   23.2350   45.5340 C   0  0  0  0  0  0  0  0  0  0  0  0
   58.3810   22.4330   44.4220 C   0  0  0  0  0  0  0  0  0  0  0  0
   57.3660   22.1420   43.5080 C   0  0  0  0  0  0  0  0  0  0  0  0
   56.0810   22.6530   43.7030 C   0  0  0  0  0  0  0  0  0  0  0  0
   55.8020   23.4570   44.8160 C   0  0  0  0  0  0  0  0  0  0  0  0
   54.1710   24.0840   45.0210 Cl  0  0  0  0  0  0  0  0  0  0  0  0
   55.5690   27.0560   45.9120 N   0  0  0  0  0  0  0  0  0  0  0  0
   56.0130   28.1250   45.2540 N   0  0  0  0  0  0  0  0  0  0  0  0
   57.3530   28.0190   45.1740 C   0  0  0  0  0  0  0  0  0  0  0  0
   57.7480   32.3030   45.1470 C   0  0  0  0  0  0  0  0  0  0  0  0
   58.1430   32.3220   46.4990 C   0  0  0  0  0  0  0  0  0  0  0  0
   58.7440   33.4620   47.0430 C   0  0  0  0  0  0  0  0  0  0  0  0
   58.9580   34.5900   46.2490 C   0  0  0  0  0  0  0  0  0  0  0  0
   58.5720   34.5820   44.9070 C   0  0  0  0  0  0  0  0  0  0  0  0
   57.9700   33.4450   44.3560 C   0  0  0  0  0  0  0  0  0  0  0  0
   61.0330   27.2710   45.4330 H   0  0  0  0  0  0  0  0  0  0  0  0
   59.4611   25.6614   46.3979 H   0  0  0  0  0  0  0  0  0  0  0  0
   58.9150   23.4671   46.2491 H   0  0  0  0  0  0  0  0  0  0  0  0
   59.3928   22.0306   44.2664 H   0  0  0  0  0  0  0  0  0  0  0  0
   57.5789   21.5096   42.6335 H   0  0  0  0  0  0  0  0  0  0  0  0
   55.2846   22.4233   42.9798 H   0  0  0  0  0  0  0  0  0  0  0  0
   57.9781   31.4362   47.1300 H   0  0  0  0  0  0  0  0  0  0  0  0
   59.0490   33.4696   48.0999 H   0  0  0  0  0  0  0  0  0  0  0  0
   59.4305   35.4848   46.6803 H   0  0  0  0  0  0  0  0  0  0  0  0
   58.7414   35.4710   44.2818 H   0  0  0  0  0  0  0  0  0  0  0  0
   57.6686   33.4443   43.2981 H   0  0  0  0  0  0  0  0  0  0  0  0
  1  2  2  0
  2  3  1  0
  3  4  1  0
  4  5  2  0
  5  6  1  0
  6  7  2  0
  7  8  1  0
  8  9  2  0
  9 10  1  0
 10 11  1  0
 11 12  2  0
 12 13  1  0
 13 14  2  0
 14 15  1  0
 15 16  2  0
 16 17  1  0
  9 18  1  0
 18 19  1  0
 19 20  2  0
  2 21  1  0
 21 22  2  0
 22 23  1  0
 23 24  2  0
 24 25  1  0
 25 26  2  0
 20  4  1  0
 26 21  1  0
 20  8  1  0
 16 11  1  0
  6 27  1  0
  7 28  1  0
 12 29  1  0
 13 30  1  0
 14 31  1  0
 15 32  1  0
 22 33  1  0
 23 34  1  0
 24 35  1  0
 25 36  1  0
 26 37  1  0
M  CHG  2   6   1  18  -1
M  END
>  <UniqueID>  (41) 
38

>  <SMILES>  (41) 
O=C(Oc1n[nH+]cc2c(Sc3ccccc3Cl)[n-]nc12)c1ccccc1

>  <Energy>  (41) 
84.74610620042483

>  <Genealogy>  (41) 
O=C(Oc1n[nH+]cc2c(Sc3ccccc3Cl)[n-]nc12)c1ccccc1 (protonated)
O=C(Oc1n[nH+]cc2c(Sc3ccccc3Cl)[n-]nc12)c1ccccc1 (3D coordinates assigned)
O=C(Oc1n[nH+]cc2c(Sc3ccccc3Cl)[n-]nc12)c1ccccc1 (optimized conformer: 84.74610620042483 kcal/mol)

>  <smiles>  (41) 
O=C(Oc1nncc2c(Sc3ccccc3Cl)[nH]nc12)c1ccccc1

>  <score_type>  (41) 
oracle

>  <origin>  (41) 
adg

>  <m_score__min__energy>  (41) 
-9.9100000000000001

>  <m_primary>  (41) 
energy

$$$$
41:0
     RDKit          3D

 43 45  0  0  0  0  0  0  0  0999 V2000
   59.2110   36.4580   47.1570 H   0  0  0  0  0  0  0  0  0  0  0  0
   59.6430   35.8360   46.4900 O   0  0  0  0  0  0  0  0  0  0  0  0
   59.1580   34.5690   46.1490 C   0  0  0  0  0  0  0  0  0  0  0  0
   58.6030   34.4270   44.8780 C   0  0  0  0  0  0  0  0  0  0  0  0
   58.5765   35.2919   44.1989 H   0  0  0  0  0  0  0  0  0  0  0  0
   58.0830   33.2100   44.4560 C   0  0  0  0  0  0  0  0  0  0  0  0
   57.6497   33.1251   43.4485 H   0  0  0  0  0  0  0  0  0  0  0  0
   58.1030   32.0900   45.2960 C   0  0  0  0  0  0  0  0  0  0  0  0
   57.4800   30.8390   44.7990 C   0  0  0  0  0  0  0  0  0  0  0  0
   56.2240   30.7330   44.8210 O   0  0  0  0  0  0  0  0  0  0  0  0
   58.2800   29.6640   44.3780 C   0  0  0  0  0  0  0  0  0  0  0  0
   58.3918   29.4925   43.2972 H   0  0  0  0  0  0  0  0  0  0  0  0
   58.8800   28.7910   45.2040 C   0  0  0  0  0  0  0  0  0  0  0  0
   59.9604   28.9062   45.3756 H   0  0  0  0  0  0  0  0  0  0  0  0
   58.1860   27.6870   45.8970 C   0  0  0  0  0  0  0  0  0  0  0  0
   56.8260   27.4450   45.6430 C   0  0  0  0  0  0  0  0  0  0  0  0
   56.2672   28.1237   44.9819 H   0  0  0  0  0  0  0  0  0  0  0  0
   56.1740   26.3510   46.2210 C   0  0  0  0  0  0  0  0  0  0  0  0
   54.8320   26.1210   45.8820 O   0  0  0  0  0  0  0  0  0  0  0  0
   54.2810   24.8360   45.6130 C   0  0  0  0  0  0  0  0  0  0  0  0
   54.0619   24.3250   46.5621 H   0  0  0  0  0  0  0  0  0  0  0  0
   53.3522   24.9491   45.0345 H   0  0  0  0  0  0  0  0  0  0  0  0
   55.0032   24.2412   45.0345 H   0  0  0  0  0  0  0  0  0  0  0  0
   56.8850   25.5140   47.1000 C   0  0  0  0  0  0  0  0  0  0  0  0
   56.3823   24.6507   47.5605 H   0  0  0  0  0  0  0  0  0  0  0  0
   58.2270   25.7740   47.3910 C   0  0  0  0  0  0  0  0  0  0  0  0
   58.7689   25.1242   48.0939 H   0  0  0  0  0  0  0  0  0  0  0  0
   58.8910   26.8620   46.7910 C   0  0  0  0  0  0  0  0  0  0  0  0
   60.2480   27.1320   47.0380 O   0  0  0  0  0  0  0  0  0  0  0  0
   60.7360   27.8360   48.1760 C   0  0  0  0  0  0  0  0  0  0  0  0
   60.3896   27.3362   49.0926 H   0  0  0  0  0  0  0  0  0  0  0  0
   61.8358   27.8461   48.1571 H   0  0  0  0  0  0  0  0  0  0  0  0
   60.3595   28.8694   48.1571 H   0  0  0  0  0  0  0  0  0  0  0  0
   58.6790   32.1970   46.5890 C   0  0  0  0  0  0  0  0  0  0  0  0
   58.6960   31.0990   47.4770 C   0  0  0  0  0  0  0  0  0  0  0  0
   58.2848   30.1316   47.1528 H   0  0  0  0  0  0  0  0  0  0  0  0
   59.2270   31.2260   48.7580 C   0  0  0  0  0  0  0  0  0  0  0  0
   59.2334   30.3608   49.4372 H   0  0  0  0  0  0  0  0  0  0  0  0
   59.7490   32.4430   49.1810 C   0  0  0  0  0  0  0  0  0  0  0  0
   60.1713   32.5354   50.1925 H   0  0  0  0  0  0  0  0  0  0  0  0
   59.7400   33.5480   48.3290 C   0  0  0  0  0  0  0  0  0  0  0  0
   60.1548   34.5056   48.6768 H   0  0  0  0  0  0  0  0  0  0  0  0
   59.2050   33.4520   47.0260 C   0  0  0  0  0  0  0  0  0  0  0  0
  1  2  1  0
  2  3  1  0
  3  4  2  0
  4  5  1  0
  4  6  1  0
  6  7  1  0
  6  8  2  0
  8  9  1  0
  9 10  2  0
  9 11  1  0
 11 12  1  0
 11 13  2  0
 13 14  1  0
 13 15  1  0
 15 16  2  0
 16 17  1  0
 16 18  1  0
 18 19  1  0
 19 20  1  0
 20 21  1  0
 20 22  1  0
 20 23  1  0
 18 24  2  0
 24 25  1  0
 24 26  1  0
 26 27  1  0
 26 28  2  0
 28 29  1  0
 29 30  1  0
 30 31  1  0
 30 32  1  0
 30 33  1  0
  8 34  1  0
 34 35  2  0
 35 36  1  0
 35 37  1  0
 37 38  1  0
 37 39  2  0
 39 40  1  0
 39 41  1  0
 41 42  1  0
 41 43  2  0
 43  3  1  0
 28 15  1  0
 43 34  1  0
M  END
>  <UniqueID>  (42) 
39

>  <SMILES>  (42) 
COc1ccc(OC)c(/C=C\C(=O)c2ccc(O)c3ccccc23)c1

>  <Energy>  (42) 
62.43377323747327

>  <Genealogy>  (42) 
COc1ccc(OC)c(/C=C\C(=O)c2ccc(O)c3ccccc23)c1 (cis-trans isomerization)
COc1ccc(OC)c(/C=C\C(=O)c2ccc(O)c3ccccc23)c1 (3D coordinates assigned)
COc1ccc(OC)c(/C=C\C(=O)c2ccc(O)c3ccccc23)c1 (optimized conformer: 62.43377323747327 kcal/mol)

>  <smiles>  (42) 
COc1ccc(OC)c(C=CC(=O)c2ccc(O)c3ccccc23)c1

>  <score_type>  (42) 
oracle

>  <origin>  (42) 
adg

>  <m_score__min__energy>  (42) 
-8.3300000000000001

>  <m_primary>  (42) 
energy

$$$$
42:0
     RDKit          3D

 41 43  0  0  0  0  0  0  0  0999 V2000
   64.0610   33.0470   47.6990 N   0  0  0  0  0  0  0  0  0  0  0  0
   63.3950   32.0950   48.6010 C   0  0  2  0  0  0  0  0  0  0  0  0
   61.9360   32.1440   48.3530 C   0  0  0  0  0  0  0  0  0  0  0  0
   61.2260   31.7370   46.9320 S   0  0  0  0  0  0  0  0  0  0  0  0
   61.2990   32.8820   49.3780 N   0  0  0  0  0  0  0  0  0  0  0  0
   59.8940   33.2910   49.4260 C   0  0  0  0  0  0  0  0  0  0  0  0
   59.6750   34.5810   48.6280 C   0  0  0  0  0  0  0  0  0  0  0  0
   59.0940   34.2900   47.2690 C   0  0  0  0  0  0  0  0  0  0  0  0
   59.6290   34.9050   46.1240 C   0  0  0  0  0  0  0  0  0  0  0  0
   59.0520   34.6800   44.8700 C   0  0  0  0  0  0  0  0  0  0  0  0
   57.9340   33.8500   44.7510 C   0  0  0  0  0  0  0  0  0  0  0  0
   57.3890   33.2430   45.8870 C   0  0  0  0  0  0  0  0  0  0  0  0
   57.9640   33.4630   47.1420 C   0  0  0  0  0  0  0  0  0  0  0  0
   62.3250   33.3240   50.3050 C   0  0  0  0  0  0  0  0  0  0  0  0
   63.5150   32.4790   50.0370 N   0  0  2  0  0  0  0  0  0  0  0  0
   64.8130   33.0200   50.4330 C   0  0  0  0  0  0  0  0  0  0  0  0
   64.9490   34.1560   51.2700 C   0  0  0  0  0  0  0  0  0  0  0  0
   66.2130   34.5980   51.6730 C   0  0  0  0  0  0  0  0  0  0  0  0
   67.3580   33.9030   51.2860 C   0  0  0  0  0  0  0  0  0  0  0  0
   67.2420   32.7500   50.5110 C   0  0  0  0  0  0  0  0  0  0  0  0
   65.9830   32.3020   50.1040 C   0  0  0  0  0  0  0  0  0  0  0  0
   64.7830   32.5560   47.1230 H   0  0  0  0  0  0  0  0  0  0  0  0
   63.3560   33.4670   47.0520 H   0  0  0  0  0  0  0  0  0  0  0  0
   63.8655   31.1189   48.4114 H   0  0  0  0  0  0  0  0  0  0  0  0
   59.2710   32.4919   48.9978 H   0  0  0  0  0  0  0  0  0  0  0  0
   59.6156   33.4735   50.4744 H   0  0  0  0  0  0  0  0  0  0  0  0
   58.9829   35.2322   49.1819 H   0  0  0  0  0  0  0  0  0  0  0  0
   60.6482   35.0753   48.4917 H   0  0  0  0  0  0  0  0  0  0  0  0
   60.5041   35.5653   46.2144 H   0  0  0  0  0  0  0  0  0  0  0  0
   59.4790   35.1573   43.9757 H   0  0  0  0  0  0  0  0  0  0  0  0
   57.4825   33.6740   43.7635 H   0  0  0  0  0  0  0  0  0  0  0  0
   56.5073   32.5920   45.7929 H   0  0  0  0  0  0  0  0  0  0  0  0
   57.5306   32.9871   48.0340 H   0  0  0  0  0  0  0  0  0  0  0  0
   62.5633   34.3841   50.1333 H   0  0  0  0  0  0  0  0  0  0  0  0
   61.9913   33.2279   51.3487 H   0  0  0  0  0  0  0  0  0  0  0  0
   63.3860   31.6030   50.5990 H   0  0  0  0  0  0  0  0  0  0  0  0
   64.0511   34.6953   51.6059 H   0  0  0  0  0  0  0  0  0  0  0  0
   66.3043   35.4983   52.2983 H   0  0  0  0  0  0  0  0  0  0  0  0
   68.3512   34.2638   51.5916 H   0  0  0  0  0  0  0  0  0  0  0  0
   68.1438   32.1918   50.2193 H   0  0  0  0  0  0  0  0  0  0  0  0
   65.9020   31.3748   49.5177 H   0  0  0  0  0  0  0  0  0  0  0  0
  1  2  1  0
  2  3  1  0
  3  4  2  0
  3  5  1  0
  5  6  1  0
  6  7  1  0
  7  8  1  0
  8  9  2  0
  9 10  1  0
 10 11  2  0
 11 12  1  0
 12 13  2  0
  5 14  1  0
 14 15  1  0
 15 16  1  0
 16 17  2  0
 17 18  1  0
 18 19  2  0
 19 20  1  0
 20 21  2  0
 15  2  1  0
 21 16  1  0
 13  8  1  0
  1 22  1  0
  1 23  1  0
  2 24  1  1
  6 25  1  0
  6 26  1  0
  7 27  1  0
  7 28  1  0
  9 29  1  0
 10 30  1  0
 11 31  1  0
 12 32  1  0
 13 33  1  0
 14 34  1  0
 14 35  1  0
 15 36  1  1
 17 37  1  0
 18 38  1  0
 19 39  1  0
 20 40  1  0
 21 41  1  0
M  CHG  1  15   1
M  END
>  <UniqueID>  (43) 
40

>  <SMILES>  (43) 
N[C@@H]1C(=S)N(CCc2ccccc2)C[N@@H+]1c1ccccc1

>  <Energy>  (43) 
60.6404675912487

>  <Genealogy>  (43) 
NC1C(=S)N(CCc2ccccc2)C[NH+]1c1ccccc1 (protonated)
N[C@@H]1C(=S)N(CCc2ccccc2)C[N@@H+]1c1ccccc1 (chirality)
N[C@@H]1C(=S)N(CCc2ccccc2)C[N@@H+]1c1ccccc1 (3D coordinates assigned)
N[C@@H]1C(=S)N(CCc2ccccc2)C[N@@H+]1c1ccccc1 (nonaromatic ring conformer: 60.6404675912487 kcal/mol)

>  <smiles>  (43) 
NC1C(=S)N(CCc2ccccc2)CN1c1ccccc1

>  <score_type>  (43) 
oracle

>  <origin>  (43) 
adg

>  <m_score__min__energy>  (43) 
-5.7800000000000002

>  <m_primary>  (43) 
energy

$$$$
43:0
     RDKit          3D

 36 37  0  0  0  0  0  0  0  0999 V2000
   57.0550   21.1310   43.0290 C   0  0  0  0  0  0  0  0  0  0  0  0
   55.9020   21.9360   43.1260 O   0  0  0  0  0  0  0  0  0  0  0  0
   56.2780   23.2980   43.0960 C   0  0  0  0  0  0  0  0  0  0  0  0
   56.1080   23.9040   44.4870 C   0  0  0  0  0  0  0  0  0  0  0  0
   56.8870   25.1400   44.6060 N   0  0  0  0  0  0  0  0  0  0  0  0
   56.3960   26.0630   45.9970 S   0  0  0  0  0  0  0  0  0  0  0  0
   56.8010   25.3370   47.2500 O   0  0  0  0  0  0  0  0  0  0  0  0
   54.9010   26.2170   45.9820 O   0  0  0  0  0  0  0  0  0  0  0  0
   57.1360   27.6610   45.9570 C   0  0  0  0  0  0  0  0  0  0  0  0
   58.1500   27.9940   46.8640 C   0  0  0  0  0  0  0  0  0  0  0  0
   58.7380   29.2610   46.8320 C   0  0  0  0  0  0  0  0  0  0  0  0
   58.3150   30.2120   45.8920 C   0  0  0  0  0  0  0  0  0  0  0  0
   58.9000   31.4870   45.8510 C   0  0  0  0  0  0  0  0  0  0  0  0
   58.4700   32.4370   44.9040 C   0  0  0  0  0  0  0  0  0  0  0  0
   59.0240   33.7240   44.8240 O   0  0  0  0  0  0  0  0  0  0  0  0
   59.2870   34.5590   45.9470 C   0  0  0  0  0  0  0  0  0  0  0  0
   57.4520   32.0980   44.0050 C   0  0  0  0  0  0  0  0  0  0  0  0
   56.8630   30.8310   44.0370 C   0  0  0  0  0  0  0  0  0  0  0  0
   57.2870   29.8810   44.9770 C   0  0  0  0  0  0  0  0  0  0  0  0
   56.7030   28.6060   45.0190 C   0  0  0  0  0  0  0  0  0  0  0  0
   57.4134   20.8807   44.0384 H   0  0  0  0  0  0  0  0  0  0  0  0
   56.8115   20.2056   42.4865 H   0  0  0  0  0  0  0  0  0  0  0  0
   57.8398   21.6784   42.4865 H   0  0  0  0  0  0  0  0  0  0  0  0
   57.3301   23.3811   42.7860 H   0  0  0  0  0  0  0  0  0  0  0  0
   55.6409   23.8384   42.3804 H   0  0  0  0  0  0  0  0  0  0  0  0
   55.0446   24.1283   44.6569 H   0  0  0  0  0  0  0  0  0  0  0  0
   56.4672   23.1830   45.2360 H   0  0  0  0  0  0  0  0  0  0  0  0
   58.4853   27.2540   47.6056 H   0  0  0  0  0  0  0  0  0  0  0  0
   59.5354   29.5135   47.5465 H   0  0  0  0  0  0  0  0  0  0  0  0
   59.6984   31.7458   46.5620 H   0  0  0  0  0  0  0  0  0  0  0  0
   59.1090   33.9939   46.8738 H   0  0  0  0  0  0  0  0  0  0  0  0
   60.3342   34.8943   45.9174 H   0  0  0  0  0  0  0  0  0  0  0  0
   58.6209   35.4339   45.9174 H   0  0  0  0  0  0  0  0  0  0  0  0
   57.1117   32.8373   43.2649 H   0  0  0  0  0  0  0  0  0  0  0  0
   56.0650   30.5785   43.3232 H   0  0  0  0  0  0  0  0  0  0  0  0
   55.9012   28.3476   44.3117 H   0  0  0  0  0  0  0  0  0  0  0  0
  1  2  1  0
  2  3  1  0
  3  4  1  0
  4  5  1  0
  5  6  1  0
  6  7  2  0
  6  8  2  0
  6  9  1  0
  9 10  2  0
 10 11  1  0
 11 12  2  0
 12 13  1  0
 13 14  2  0
 14 15  1  0
 15 16  1  0
 14 17  1  0
 17 18  2  0
 18 19  1  0
 19 20  2  0
 20  9  1  0
 19 12  1  0
  1 21  1  0
  1 22  1  0
  1 23  1  0
  3 24  1  0
  3 25  1  0
  4 26  1  0
  4 27  1  0
 10 28  1  0
 11 29  1  0
 13 30  1  0
 16 31  1  0
 16 32  1  0
 16 33  1  0
 17 34  1  0
 18 35  1  0
 20 36  1  0
M  CHG  1   5  -1
M  END
>  <UniqueID>  (44) 
41

>  <SMILES>  (44) 
COCC[N-]S(=O)(=O)c1ccc2cc(OC)ccc2c1

>  <Energy>  (44) 
36.68662147880042

>  <Genealogy>  (44) 
COCC[N-]S(=O)(=O)c1ccc2cc(OC)ccc2c1 (protonated)
COCC[N-]S(=O)(=O)c1ccc2cc(OC)ccc2c1 (3D coordinates assigned)
COCC[N-]S(=O)(=O)c1ccc2cc(OC)ccc2c1 (optimized conformer: 36.68662147880042 kcal/mol)

>  <smiles>  (44) 
COCCNS(=O)(=O)c1ccc2cc(OC)ccc2c1

>  <score_type>  (44) 
oracle

>  <origin>  (44) 
adg

>  <m_score__min__energy>  (44) 
-9.1400000000000006

>  <m_primary>  (44) 
energy

$$$$
44:0
     RDKit          3D

 44 47  0  0  0  0  0  0  0  0999 V2000
   56.1120   29.7350   42.9780 C   0  0  0  0  0  0  0  0  0  0  0  0
   56.1710   31.0100   43.6080 O   0  0  0  0  0  0  0  0  0  0  0  0
   57.2520   31.4630   44.3810 C   0  0  0  0  0  0  0  0  0  0  0  0
   57.7830   32.7580   44.2450 C   0  0  0  0  0  0  0  0  0  0  0  0
   58.8450   33.1700   45.0490 C   0  0  0  0  0  0  0  0  0  0  0  0
   59.3990   32.2970   45.9890 C   0  0  0  0  0  0  0  0  0  0  0  0
   60.4130   32.7290   46.7830 N   0  0  0  0  0  0  0  0  0  0  0  0
   60.9930   31.9400   47.7250 C   0  0  0  0  0  0  0  0  0  0  0  0
   62.0910   32.4940   48.5580 C   0  0  0  0  0  0  0  0  0  0  0  0
   63.3930   31.9580   48.5090 C   0  0  0  0  0  0  0  0  0  0  0  0
   64.4130   32.5020   49.2960 C   0  0  0  0  0  0  0  0  0  0  0  0
   64.1510   33.5870   50.1340 C   0  0  0  0  0  0  0  0  0  0  0  0
   62.8670   34.1350   50.1830 C   0  0  0  0  0  0  0  0  0  0  0  0
   61.8430   33.5960   49.3980 C   0  0  0  0  0  0  0  0  0  0  0  0
   60.5290   30.6260   47.8940 C   0  0  0  0  0  0  0  0  0  0  0  0
   59.4970   30.1250   47.0860 C   0  0  0  0  0  0  0  0  0  0  0  0
   59.0960   28.7110   47.2670 C   0  0  0  0  0  0  0  0  0  0  0  0
   59.2030   28.1700   48.4010 O   0  0  0  0  0  0  0  0  0  0  0  0
   58.5770   27.9650   46.1540 N   0  0  0  0  0  0  0  0  0  0  0  0
   57.9010   26.7020   46.2750 C   0  0  0  0  0  0  0  0  0  0  0  0
   58.6480   25.5170   46.3050 C   0  0  0  0  0  0  0  0  0  0  0  0
   58.0030   24.2820   46.3980 C   0  0  0  0  0  0  0  0  0  0  0  0
   56.6090   24.2430   46.4440 C   0  0  0  0  0  0  0  0  0  0  0  0
   55.8930   25.3970   46.3890 N   0  0  0  0  0  0  0  0  0  0  0  0
   56.4990   26.6120   46.3020 C   0  0  0  0  0  0  0  0  0  0  0  0
   58.9010   30.9790   46.1220 C   0  0  0  0  0  0  0  0  0  0  0  0
   57.8090   30.5850   45.3200 C   0  0  0  0  0  0  0  0  0  0  0  0
   56.0756   28.9480   43.7457 H   0  0  0  0  0  0  0  0  0  0  0  0
   55.2102   29.6773   42.3507 H   0  0  0  0  0  0  0  0  0  0  0  0
   57.0046   29.5943   42.3507 H   0  0  0  0  0  0  0  0  0  0  0  0
   57.3588   33.4487   43.5013 H   0  0  0  0  0  0  0  0  0  0  0  0
   59.2489   34.1876   44.9428 H   0  0  0  0  0  0  0  0  0  0  0  0
   63.6087   31.1061   47.8474 H   0  0  0  0  0  0  0  0  0  0  0  0
   65.4252   32.0734   49.2545 H   0  0  0  0  0  0  0  0  0  0  0  0
   64.9544   34.0100   50.7549 H   0  0  0  0  0  0  0  0  0  0  0  0
   62.6610   34.9924   50.8406 H   0  0  0  0  0  0  0  0  0  0  0  0
   60.8358   34.0366   49.4372 H   0  0  0  0  0  0  0  0  0  0  0  0
   60.9780   29.9839   48.6661 H   0  0  0  0  0  0  0  0  0  0  0  0
   58.7840   28.3220   45.1930 H   0  0  0  0  0  0  0  0  0  0  0  0
   59.7460   25.5597   46.2551 H   0  0  0  0  0  0  0  0  0  0  0  0
   58.5871   23.3506   46.4346 H   0  0  0  0  0  0  0  0  0  0  0  0
   56.0889   23.2771   46.5249 H   0  0  0  0  0  0  0  0  0  0  0  0
   55.8897   27.5265   46.2526 H   0  0  0  0  0  0  0  0  0  0  0  0
   57.3892   29.5746   45.4336 H   0  0  0  0  0  0  0  0  0  0  0  0
  1  2  1  0
  2  3  1  0
  3  4  2  0
  4  5  1  0
  5  6  2  0
  6  7  1  0
  7  8  2  0
  8  9  1  0
  9 10  2  0
 10 11  1  0
 11 12  2  0
 12 13  1  0
 13 14  2  0
  8 15  1  0
 15 16  2  0
 16 17  1  0
 17 18  2  0
 17 19  1  0
 19 20  1  0
 20 21  2  0
 21 22  1  0
 22 23  2  0
 23 24  1  0
 24 25  2  0
 16 26  1  0
 26 27  2  0
 27  3  1  0
 26  6  1  0
 14  9  1  0
 25 20  1  0
  1 28  1  0
  1 29  1  0
  1 30  1  0
  4 31  1  0
  5 32  1  0
 10 33  1  0
 11 34  1  0
 12 35  1  0
 13 36  1  0
 14 37  1  0
 15 38  1  0
 19 39  1  0
 21 40  1  0
 22 41  1  0
 23 42  1  0
 25 43  1  0
 27 44  1  0
M  END
>  <UniqueID>  (45) 
42

>  <SMILES>  (45) 
COc1ccc2nc(-c3ccccc3)cc(C(=O)Nc3cccnc3)c2c1

>  <Energy>  (45) 
66.68148223663331

>  <Genealogy>  (45) 
COc1ccc2nc(-c3ccccc3)cc(C(=O)Nc3cccnc3)c2c1 (3D coordinates assigned)
COc1ccc2nc(-c3ccccc3)cc(C(=O)Nc3cccnc3)c2c1 (optimized conformer: 66.68148223663331 kcal/mol)

>  <smiles>  (45) 
COc1ccc2nc(-c3ccccc3)cc(C(=O)Nc3cccnc3)c2c1

>  <score_type>  (45) 
oracle

>  <origin>  (45) 
adg

>  <m_score__min__energy>  (45) 
-7.6200000000000001

>  <m_primary>  (45) 
energy

$$$$
45:0
     RDKit          3D

 36 38  0  0  0  0  0  0  0  0999 V2000
   60.3570   34.3120   48.6460 C   0  0  0  0  0  0  0  0  0  0  0  0
   59.6120   34.9530   47.4800 C   0  0  0  0  0  0  0  0  0  0  0  0
   58.8340   33.9200   46.7110 C   0  0  0  0  0  0  0  0  0  0  0  0
   58.1600   34.2730   45.5320 C   0  0  0  0  0  0  0  0  0  0  0  0
   57.4640   33.3050   44.8020 C   0  0  0  0  0  0  0  0  0  0  0  0
   57.4250   31.9760   45.2390 C   0  0  0  0  0  0  0  0  0  0  0  0
   56.7170   31.0110   44.4460 N   0  0  0  0  0  0  0  0  0  0  0  0
   56.3580   29.6790   44.8380 C   0  0  0  0  0  0  0  0  0  0  0  0
   55.1440   29.3440   44.8970 O   0  0  0  0  0  0  0  0  0  0  0  0
   57.4150   28.6780   45.1210 C   0  0  0  0  0  0  0  0  0  0  0  0
   58.7560   28.9470   44.7970 C   0  0  0  0  0  0  0  0  0  0  0  0
   59.7510   28.0060   45.0670 C   0  0  0  0  0  0  0  0  0  0  0  0
   59.4230   26.7880   45.6610 C   0  0  0  0  0  0  0  0  0  0  0  0
   58.0910   26.4910   45.9970 C   0  0  0  0  0  0  0  0  0  0  0  0
   57.7700   25.2250   46.6110 N   0  0  0  0  0  0  0  0  0  0  0  0
   57.7620   23.9940   46.0650 C   0  0  0  0  0  0  0  0  0  0  0  0
   57.4030   23.0870   46.9930 N   0  0  0  0  0  0  0  0  0  0  0  0
   57.1940   23.7840   48.1010 N   0  0  0  0  0  0  0  0  0  0  0  0
   57.4150   25.0690   47.8750 N   0  0  0  0  0  0  0  0  0  0  0  0
   57.0920   27.4450   45.7220 C   0  0  0  0  0  0  0  0  0  0  0  0
   58.1320   31.6140   46.3990 C   0  0  0  0  0  0  0  0  0  0  0  0
   58.8290   32.5810   47.1310 C   0  0  0  0  0  0  0  0  0  0  0  0
   59.9350   34.6751   49.5947 H   0  0  0  0  0  0  0  0  0  0  0  0
   60.2509   33.2185   48.5922 H   0  0  0  0  0  0  0  0  0  0  0  0
   61.4225   34.5801   48.5922 H   0  0  0  0  0  0  0  0  0  0  0  0
   58.9173   35.7118   47.8693 H   0  0  0  0  0  0  0  0  0  0  0  0
   60.3460   35.4168   46.8046 H   0  0  0  0  0  0  0  0  0  0  0  0
   58.1793   35.3153   45.1808 H   0  0  0  0  0  0  0  0  0  0  0  0
   56.9426   33.5903   43.8764 H   0  0  0  0  0  0  0  0  0  0  0  0
   59.0231   29.9053   44.3276 H   0  0  0  0  0  0  0  0  0  0  0  0
   60.7977   28.2262   44.8102 H   0  0  0  0  0  0  0  0  0  0  0  0
   60.2142   26.0526   45.8686 H   0  0  0  0  0  0  0  0  0  0  0  0
   58.0112   23.7642   45.0185 H   0  0  0  0  0  0  0  0  0  0  0  0
   56.0456   27.2246   45.9798 H   0  0  0  0  0  0  0  0  0  0  0  0
   58.1371   30.5658   46.7324 H   0  0  0  0  0  0  0  0  0  0  0  0
   59.3758   32.2905   48.0402 H   0  0  0  0  0  0  0  0  0  0  0  0
  1  2  1  0
  2  3  1  0
  3  4  2  0
  4  5  1  0
  5  6  2  0
  6  7  1  0
  7  8  1  0
  8  9  2  0
  8 10  1  0
 10 11  2  0
 11 12  1  0
 12 13  2  0
 13 14  1  0
 14 15  1  0
 15 16  1  0
 16 17  2  0
 17 18  1  0
 18 19  2  0
 14 20  2  0
  6 21  1  0
 21 22  2  0
 22  3  1  0
 20 10  1  0
 19 15  1  0
  1 23  1  0
  1 24  1  0
  1 25  1  0
  2 26  1  0
  2 27  1  0
  4 28  1  0
  5 29  1  0
 11 30  1  0
 12 31  1  0
 13 32  1  0
 16 33  1  0
 20 34  1  0
 21 35  1  0
 22 36  1  0
M  CHG  1   7  -1
M  END
>  <UniqueID>  (46) 
43

>  <SMILES>  (46) 
CCc1ccc([N-]C(=O)c2cccc(-n3cnnn3)c2)cc1

>  <Energy>  (46) 
81.42807609873574

>  <Genealogy>  (46) 
CCc1ccc([N-]C(=O)c2cccc(-n3cnnn3)c2)cc1 (protonated)
CCc1ccc([N-]C(=O)c2cccc(-n3cnnn3)c2)cc1 (3D coordinates assigned)
CCc1ccc([N-]C(=O)c2cccc(-n3cnnn3)c2)cc1 (optimized conformer: 81.42807609873574 kcal/mol)

>  <smiles>  (46) 
CCc1ccc(NC(=O)c2cccc(-n3cnnn3)c2)cc1

>  <score_type>  (46) 
oracle

>  <origin>  (46) 
adg

>  <m_score__min__energy>  (46) 
-9.7100000000000009

>  <m_primary>  (46) 
energy

$$$$
46:0
     RDKit          3D

 43 46  0  0  1  0  0  0  0  0999 V2000
   59.6720   35.3080   46.9160 C   0  0  0  0  0  0  0  0  0  0  0  0
   58.9700   34.3100   46.0830 C   0  0  0  0  0  0  0  0  0  0  0  0
   59.1370   34.2040   44.7290 C   0  0  0  0  0  0  0  0  0  0  0  0
   58.4570   33.2580   44.0150 C   0  0  0  0  0  0  0  0  0  0  0  0
   57.5760   32.3660   44.5990 C   0  0  0  0  0  0  0  0  0  0  0  0
   56.8660   31.3570   43.7690 C   0  0  0  0  0  0  0  0  0  0  0  0
   56.2360   30.3240   44.5130 N   0  0  0  0  0  0  0  0  0  0  0  0
   56.7910   29.3410   45.1300 C   0  0  0  0  0  0  0  0  0  0  0  0
   58.0390   29.5460   45.5880 N   0  0  0  0  0  0  0  0  0  0  0  0
   58.6030   28.4910   46.2350 C   0  0  0  0  0  0  0  0  0  0  0  0
   59.7940   28.5670   46.7190 N   0  0  0  0  0  0  0  0  0  0  0  0
   60.3320   29.7180   47.3660 C   0  0  0  0  0  0  0  0  0  0  0  0
   59.9330   30.0620   48.6630 C   0  0  0  0  0  0  0  0  0  0  0  0
   60.4530   31.1830   49.2980 C   0  0  0  0  0  0  0  0  0  0  0  0
   61.3680   31.9700   48.6570 C   0  0  0  0  0  0  0  0  0  0  0  0
   61.7910   31.6590   47.3640 C   0  0  0  0  0  0  0  0  0  0  0  0
   61.2690   30.5440   46.7420 C   0  0  0  0  0  0  0  0  0  0  0  0
   57.8950   27.2970   46.3880 C   0  0  0  0  0  0  0  0  0  0  0  0
   58.4030   25.8070   47.1790 S   0  0  0  0  0  0  0  0  0  0  0  0
   56.7700   24.9720   46.7950 C   0  0  0  0  0  0  0  0  0  0  0  0
   56.0450   25.9230   46.1190 C   0  0  0  0  0  0  0  0  0  0  0  0
   56.6250   27.1130   45.9130 C   0  0  0  0  0  0  0  0  0  0  0  0
   56.0970   28.2110   45.2650 N   0  0  0  0  0  0  0  0  0  0  0  0
   57.4110   32.4750   45.9650 C   0  0  0  0  0  0  0  0  0  0  0  0
   58.0990   33.4360   46.7030 C   0  0  0  0  0  0  0  0  0  0  0  0
   59.5098   35.0774   47.9793 H   0  0  0  0  0  0  0  0  0  0  0  0
   60.7490   35.2781   46.6945 H   0  0  0  0  0  0  0  0  0  0  0  0
   59.2798   36.3116   46.6945 H   0  0  0  0  0  0  0  0  0  0  0  0
   59.8255   34.8872   44.2102 H   0  0  0  0  0  0  0  0  0  0  0  0
   58.6173   33.2035   42.9281 H   0  0  0  0  0  0  0  0  0  0  0  0
   56.0953   31.8763   43.1805 H   0  0  0  0  0  0  0  0  0  0  0  0
   57.6294   30.8722   43.1427 H   0  0  0  0  0  0  0  0  0  0  0  0
   58.5750   30.4120   45.4870 H   0  0  0  0  0  0  0  0  0  0  0  0
   59.1966   29.4353   49.1873 H   0  0  0  0  0  0  0  0  0  0  0  0
   60.1279   31.4373   50.3176 H   0  0  0  0  0  0  0  0  0  0  0  0
   61.7749   32.8568   49.1649 H   0  0  0  0  0  0  0  0  0  0  0  0
   62.5285   32.2925   46.8494 H   0  0  0  0  0  0  0  0  0  0  0  0
   61.6012   30.2979   45.7227 H   0  0  0  0  0  0  0  0  0  0  0  0
   56.4609   23.9484   47.0533 H   0  0  0  0  0  0  0  0  0  0  0  0
   55.0261   25.7152   45.7602 H   0  0  0  0  0  0  0  0  0  0  0  0
   55.1370   28.1680   44.8670 H   0  0  0  0  0  0  0  0  0  0  0  0
   56.7227   31.7896   46.4813 H   0  0  0  0  0  0  0  0  0  0  0  0
   57.9468   33.4991   47.7906 H   0  0  0  0  0  0  0  0  0  0  0  0
  1  2  1  0
  2  3  2  0
  3  4  1  0
  4  5  2  0
  5  6  1  0
  6  7  1  0
  7  8  2  0
  8  9  1  0
  9 10  1  0
 10 11  2  0
 11 12  1  0
 12 13  2  0
 13 14  1  0
 14 15  2  0
 15 16  1  0
 16 17  2  0
 10 18  1  0
 18 19  1  0
 19 20  1  0
 20 21  2  0
 21 22  1  0
 22 23  1  0
  5 24  1  0
 24 25  2  0
 25  2  1  0
 23  8  1  0
 17 12  1  0
 22 18  2  0
  1 26  1  0
  1 27  1  0
  1 28  1  0
  3 29  1  0
  4 30  1  0
  6 31  1  0
  6 32  1  0
  9 33  1  0
 13 34  1  0
 14 35  1  0
 15 36  1  0
 16 37  1  0
 17 38  1  0
 20 39  1  0
 21 40  1  0
 23 41  1  0
 24 42  1  0
 25 43  1  0
M  END
>  <smiles>  (47) 
Cc1ccc(CN=c2[nH]c(=Nc3ccccc3)c3sccc3[nH]2)cc1

>  <score_type>  (47) 
oracle

>  <origin>  (47) 
adg

>  <m_score__min__energy>  (47) 
-9.0700000000000003

>  <m_primary>  (47) 
energy

$$$$
47:0
     RDKit          3D

 42 44  0  0  0  0  0  0  0  0999 V2000
   60.4330   29.9110   48.1300 C   0  0  0  0  0  0  0  0  0  0  0  0
   59.1990   30.1180   49.0000 C   0  0  0  0  0  0  0  0  0  0  0  0
   58.8880   31.5800   49.1470 C   0  0  0  0  0  0  0  0  0  0  0  0
   58.0800   31.9540   50.0390 O   0  0  0  0  0  0  0  0  0  0  0  0
   59.4410   32.5460   48.2370 N   0  0  0  0  0  0  0  0  0  0  0  0
   60.4710   33.4470   48.7770 C   0  0  0  0  0  0  0  0  0  0  0  0
   61.1980   34.2110   47.6680 C   0  0  0  0  0  0  0  0  0  0  0  0
   60.1910   34.9170   46.7640 C   0  0  0  0  0  0  0  0  0  0  0  0
   59.2150   33.9270   46.1920 C   0  0  0  0  0  0  0  0  0  0  0  0
   58.6380   34.1620   44.9350 C   0  0  0  0  0  0  0  0  0  0  0  0
   57.7340   33.2500   44.3910 C   0  0  0  0  0  0  0  0  0  0  0  0
   57.3830   32.0970   45.0980 C   0  0  0  0  0  0  0  0  0  0  0  0
   56.4700   31.1660   44.4980 N   0  0  0  0  0  0  0  0  0  0  0  0
   56.3610   29.7720   44.8210 C   0  0  0  0  0  0  0  0  0  0  0  0
   55.2150   29.2510   44.8610 O   0  0  0  0  0  0  0  0  0  0  0  0
   57.5460   28.9500   45.1580 C   0  0  0  0  0  0  0  0  0  0  0  0
   58.7820   29.2030   44.5360 C   0  0  0  0  0  0  0  0  0  0  0  0
   59.9030   28.4270   44.8460 C   0  0  0  0  0  0  0  0  0  0  0  0
   59.7990   27.3860   45.7730 C   0  0  0  0  0  0  0  0  0  0  0  0
   60.8890   26.6380   46.0760 F   0  0  0  0  0  0  0  0  0  0  0  0
   58.5730   27.1150   46.3840 C   0  0  0  0  0  0  0  0  0  0  0  0
   57.4510   27.8900   46.0790 C   0  0  0  0  0  0  0  0  0  0  0  0
   57.9660   31.8490   46.3510 C   0  0  0  0  0  0  0  0  0  0  0  0
   58.8520   32.7810   46.9310 C   0  0  0  0  0  0  0  0  0  0  0  0
   61.3138   29.7632   48.7722 H   0  0  0  0  0  0  0  0  0  0  0  0
   60.2894   29.0244   47.4949 H   0  0  0  0  0  0  0  0  0  0  0  0
   60.5865   30.7959   47.4949 H   0  0  0  0  0  0  0  0  0  0  0  0
   58.3406   29.6119   48.5342 H   0  0  0  0  0  0  0  0  0  0  0  0
   59.3967   29.6980   49.9973 H   0  0  0  0  0  0  0  0  0  0  0  0
   59.9918   34.1709   49.4525 H   0  0  0  0  0  0  0  0  0  0  0  0
   61.2122   32.8358   49.3128 H   0  0  0  0  0  0  0  0  0  0  0  0
   61.8663   34.9586   48.1202 H   0  0  0  0  0  0  0  0  0  0  0  0
   61.7818   33.4990   47.0661 H   0  0  0  0  0  0  0  0  0  0  0  0
   59.6426   35.6690   47.3504 H   0  0  0  0  0  0  0  0  0  0  0  0
   60.7321   35.4021   45.9382 H   0  0  0  0  0  0  0  0  0  0  0  0
   58.9004   35.0716   44.3748 H   0  0  0  0  0  0  0  0  0  0  0  0
   57.2950   33.4393   43.4003 H   0  0  0  0  0  0  0  0  0  0  0  0
   58.8672   30.0168   43.8008 H   0  0  0  0  0  0  0  0  0  0  0  0
   60.8675   28.6359   44.3600 H   0  0  0  0  0  0  0  0  0  0  0  0
   58.4903   26.2899   47.1068 H   0  0  0  0  0  0  0  0  0  0  0  0
   56.4874   27.6702   46.5618 H   0  0  0  0  0  0  0  0  0  0  0  0
   57.7292   30.9177   46.8863 H   0  0  0  0  0  0  0  0  0  0  0  0
  1  2  1  0
  2  3  1  0
  3  4  2  0
  3  5  1  0
  5  6  1  0
  6  7  1  0
  7  8  1  0
  8  9  1  0
  9 10  2  0
 10 11  1  0
 11 12  2  0
 12 13  1  0
 13 14  1  0
 14 15  2  0
 14 16  1  0
 16 17  2  0
 17 18  1  0
 18 19  2  0
 19 20  1  0
 19 21  1  0
 21 22  2  0
 12 23  1  0
 23 24  2  0
 24  5  1  0
 24  9  1  0
 22 16  1  0
  1 25  1  0
  1 26  1  0
  1 27  1  0
  2 28  1  0
  2 29  1  0
  6 30  1  0
  6 31  1  0
  7 32  1  0
  7 33  1  0
  8 34  1  0
  8 35  1  0
 10 36  1  0
 11 37  1  0
 17 38  1  0
 18 39  1  0
 21 40  1  0
 22 41  1  0
 23 42  1  0
M  CHG  1  13  -1
M  END
>  <UniqueID>  (48) 
44

>  <SMILES>  (48) 
CCC(=O)N1CCCc2ccc([N-]C(=O)c3ccc(F)cc3)cc21

>  <Energy>  (48) 
50.87624345853102

>  <Genealogy>  (48) 
CCC(=O)N1CCCc2ccc([N-]C(=O)c3ccc(F)cc3)cc21 (protonated)
CCC(=O)N1CCCc2ccc([N-]C(=O)c3ccc(F)cc3)cc21 (3D coordinates assigned)
CCC(=O)N1CCCc2ccc([N-]C(=O)c3ccc(F)cc3)cc21 (nonaromatic ring conformer: 50.87624345853102 kcal/mol)

>  <smiles>  (48) 
CCC(=O)N1CCCc2ccc(NC(=O)c3ccc(F)cc3)cc21

>  <score_type>  (48) 
oracle

>  <origin>  (48) 
adg

>  <m_score__min__energy>  (48) 
-9.4600000000000009

>  <m_primary>  (48) 
energy

$$$$
48:0
     RDKit          3D

 38 40  0  0  1  0  0  0  0  0999 V2000
   58.1530   32.7470   42.6550 F   0  0  0  0  0  0  0  0  0  0  0  0
   58.2040   32.9560   44.0030 C   0  0  0  0  0  0  0  0  0  0  0  0
   58.6700   34.1390   44.5380 C   0  0  0  0  0  0  0  0  0  0  0  0
   58.7030   34.3060   45.8950 C   0  0  0  0  0  0  0  0  0  0  0  0
   58.2640   33.2720   46.7220 C   0  0  0  0  0  0  0  0  0  0  0  0
   57.7920   32.0730   46.1820 C   0  0  0  0  0  0  0  0  0  0  0  0
   57.7580   31.9040   44.8120 C   0  0  0  0  0  0  0  0  0  0  0  0
   57.2560   30.6280   44.1880 C   0  0  0  0  0  0  0  0  0  0  0  0
   56.6220   29.8350   45.1740 N   0  0  0  0  0  0  0  0  0  0  0  0
   56.9890   28.6870   45.6200 C   0  0  0  0  0  0  0  0  0  0  0  0
   58.2440   28.5260   46.1470 C   0  0  0  0  0  0  0  0  0  0  0  0
   58.5720   27.2560   46.6120 C   0  0  0  0  0  0  0  0  0  0  0  0
   59.9090   27.0320   47.1880 C   0  0  0  0  0  0  0  0  0  0  0  0
   60.5810   28.2070   47.4760 F   0  0  0  0  0  0  0  0  0  0  0  0
   59.7580   26.3570   48.3780 F   0  0  0  0  0  0  0  0  0  0  0  0
   60.7240   26.2750   46.3590 F   0  0  0  0  0  0  0  0  0  0  0  0
   57.6620   26.2700   46.5240 N   0  0  0  0  0  0  0  0  0  0  0  0
   56.4240   26.4720   45.9930 C   0  0  0  0  0  0  0  0  0  0  0  0
   55.6500   25.4500   45.9680 N   0  0  0  0  0  0  0  0  0  0  0  0
   56.0570   24.3150   45.2140 C   0  0  0  0  0  0  0  0  0  0  0  0
   55.2430   23.7180   44.2610 C   0  0  0  0  0  0  0  0  0  0  0  0
   55.7140   22.6420   43.5910 N   0  0  0  0  0  0  0  0  0  0  0  0
   56.9430   22.1510   43.8310 C   0  0  0  0  0  0  0  0  0  0  0  0
   57.7740   22.7390   44.7850 C   0  0  0  0  0  0  0  0  0  0  0  0
   57.2910   23.8210   45.4540 N   0  0  0  0  0  0  0  0  0  0  0  0
   56.0890   27.6890   45.5390 N   0  0  0  0  0  0  0  0  0  0  0  0
   59.0143   34.9462   43.8747 H   0  0  0  0  0  0  0  0  0  0  0  0
   59.0721   35.2465   46.3300 H   0  0  0  0  0  0  0  0  0  0  0  0
   58.2898   33.4024   47.8139 H   0  0  0  0  0  0  0  0  0  0  0  0
   57.4486   31.2662   46.8461 H   0  0  0  0  0  0  0  0  0  0  0  0
   56.5354   30.8683   43.3924 H   0  0  0  0  0  0  0  0  0  0  0  0
   58.1036   30.0718   43.7612 H   0  0  0  0  0  0  0  0  0  0  0  0
   58.9581   29.3610   46.1999 H   0  0  0  0  0  0  0  0  0  0  0  0
   57.9330   25.3250   46.8820 H   0  0  0  0  0  0  0  0  0  0  0  0
   54.2367   24.1117   44.0554 H   0  0  0  0  0  0  0  0  0  0  0  0
   57.2973   21.2749   43.2681 H   0  0  0  0  0  0  0  0  0  0  0  0
   58.7801   22.3435   44.9884 H   0  0  0  0  0  0  0  0  0  0  0  0
   55.1440   27.8450   45.1330 H   0  0  0  0  0  0  0  0  0  0  0  0
  1  2  1  0
  2  3  2  0
  3  4  1  0
  4  5  2  0
  5  6  1  0
  6  7  2  0
  7  8  1  0
  8  9  1  0
  9 10  2  0
 10 11  1  0
 11 12  2  0
 12 13  1  0
 13 14  1  0
 13 15  1  0
 13 16  1  0
 12 17  1  0
 17 18  1  0
 18 19  2  0
 19 20  1  0
 20 21  2  0
 21 22  1  0
 22 23  2  0
 23 24  1  0
 24 25  2  0
 18 26  1  0
  7  2  1  0
 26 10  1  0
 25 20  1  0
  3 27  1  0
  4 28  1  0
  5 29  1  0
  6 30  1  0
  8 31  1  0
  8 32  1  0
 11 33  1  0
 17 34  1  0
 21 35  1  0
 23 36  1  0
 24 37  1  0
 26 38  1  0
M  END
>  <smiles>  (49) 
Fc1ccccc1CN=c1cc(C(F)(F)F)[nH]c(=Nc2cnccn2)[nH]1

>  <score_type>  (49) 
oracle

>  <origin>  (49) 
adg

>  <m_score__min__energy>  (49) 
-7.6399999999999997

>  <m_primary>  (49) 
energy

$$$$
49:0
     RDKit          3D

 27 28  0  0  0  0  0  0  0  0999 V2000
   57.2870   34.2110   45.2170 C   0  0  0  0  0  0  0  0  0  0  0  0
   58.0050   32.9780   45.6660 C   0  0  0  0  0  0  0  0  0  0  0  0
   57.4600   31.8130   45.6220 N   0  0  0  0  0  0  0  0  0  0  0  0
   58.3810   30.8160   46.1580 C   0  0  0  0  0  0  0  0  0  0  0  0
   59.6390   31.6020   46.5600 C   0  0  0  0  0  0  0  0  0  0  0  0
   59.3050   32.9750   46.2340 N   0  0  0  0  0  0  0  0  0  0  0  0
   60.1970   34.1220   46.4060 C   0  0  0  0  0  0  0  0  0  0  0  0
   61.3610   33.7570   47.2840 C   0  0  0  0  0  0  0  0  0  0  0  0
   61.2470   33.8330   48.6800 C   0  0  0  0  0  0  0  0  0  0  0  0
   62.3360   33.5030   49.4870 C   0  0  0  0  0  0  0  0  0  0  0  0
   63.5320   33.0970   48.8920 C   0  0  0  0  0  0  0  0  0  0  0  0
   63.6310   33.0230   47.5370 N   0  0  0  0  0  0  0  0  0  0  0  0
   62.5820   33.3410   46.7290 C   0  0  0  0  0  0  0  0  0  0  0  0
   56.9543   34.7823   46.0962 H   0  0  0  0  0  0  0  0  0  0  0  0
   57.9655   34.8307   44.6123 H   0  0  0  0  0  0  0  0  0  0  0  0
   56.4132   33.9268   44.6123 H   0  0  0  0  0  0  0  0  0  0  0  0
   57.9417   30.3172   47.0345 H   0  0  0  0  0  0  0  0  0  0  0  0
   58.6062   30.0285   45.4237 H   0  0  0  0  0  0  0  0  0  0  0  0
   59.8430   31.4926   47.6354 H   0  0  0  0  0  0  0  0  0  0  0  0
   60.5447   31.2496   46.0447 H   0  0  0  0  0  0  0  0  0  0  0  0
   60.5717   34.4399   45.4218 H   0  0  0  0  0  0  0  0  0  0  0  0
   59.6362   34.9405   46.8809 H   0  0  0  0  0  0  0  0  0  0  0  0
   60.2994   34.1526   49.1382 H   0  0  0  0  0  0  0  0  0  0  0  0
   62.2531   33.5621   50.5823 H   0  0  0  0  0  0  0  0  0  0  0  0
   64.3965   32.8363   49.5203 H   0  0  0  0  0  0  0  0  0  0  0  0
   64.5320   32.7180   47.1070 H   0  0  0  0  0  0  0  0  0  0  0  0
   62.6916   33.2717   45.6367 H   0  0  0  0  0  0  0  0  0  0  0  0
  1  2  1  0
  2  3  2  0
  3  4  1  0
  4  5  1  0
  5  6  1  0
  6  7  1  0
  7  8  1  0
  8  9  2  0
  9 10  1  0
 10 11  2  0
 11 12  1  0
 12 13  2  0
  6  2  1  0
 13  8  1  0
  1 14  1  0
  1 15  1  0
  1 16  1  0
  4 17  1  0
  4 18  1  0
  5 19  1  0
  5 20  1  0
  7 21  1  0
  7 22  1  0
  9 23  1  0
 10 24  1  0
 11 25  1  0
 12 26  1  0
 13 27  1  0
M  CHG  1  12   1
M  END
>  <UniqueID>  (50) 
45

>  <SMILES>  (50) 
CC1=NCCN1Cc1ccc[nH+]c1

>  <Energy>  (50) 
34.39834492248395

>  <Genealogy>  (50) 
CC1=NCCN1Cc1ccc[nH+]c1 (protonated)
CC1=NCCN1Cc1ccc[nH+]c1 (3D coordinates assigned)
CC1=NCCN1Cc1ccc[nH+]c1 (nonaromatic ring conformer: 34.39834492248395 kcal/mol)

>  <smiles>  (50) 
CC1=NCCN1Cc1cccnc1

>  <score_type>  (50) 
oracle

>  <origin>  (50) 
adg

>  <m_score__min__energy>  (50) 
-3.7799999999999998

>  <m_primary>  (50) 
energy

$$$$
50:0
     RDKit          3D

 52 56  0  0  0  0  0  0  0  0999 V2000
   57.5820   33.5250   45.0250 F   0  0  0  0  0  0  0  0  0  0  0  0
   58.3980   33.6660   46.0980 C   0  0  0  0  0  0  0  0  0  0  0  0
   59.5720   34.4150   45.9910 C   0  0  0  0  0  0  0  0  0  0  0  0
   60.4180   34.5570   47.0940 C   0  0  0  0  0  0  0  0  0  0  0  0
   60.1010   33.9470   48.3240 C   0  0  0  0  0  0  0  0  0  0  0  0
   61.0000   34.0390   49.4530 N   0  0  0  0  0  0  0  0  0  0  0  0
   62.2820   34.7440   49.3780 C   0  0  0  0  0  0  0  0  0  0  0  0
   63.4300   33.7720   49.6880 C   0  0  0  0  0  0  0  0  0  0  0  0
   63.0680   32.7370   50.6880 N   0  0  0  0  0  0  0  0  0  0  0  0
   63.1590   31.3330   50.2240 C   0  0  0  0  0  0  0  0  0  0  0  0
   62.5170   31.0920   48.8820 C   0  0  0  0  0  0  0  0  0  0  0  0
   63.1060   31.3290   47.6910 N   0  0  0  0  0  0  0  0  0  0  0  0
   62.2810   30.9780   46.7460 O   0  0  0  0  0  0  0  0  0  0  0  0
   61.1740   30.5040   47.2690 C   0  0  0  0  0  0  0  0  0  0  0  0
   61.2710   30.5490   48.6310 C   0  0  0  0  0  0  0  0  0  0  0  0
   60.2520   29.9560   49.5410 C   0  0  0  0  0  0  0  0  0  0  0  0
   58.8980   29.8940   48.8050 C   0  0  0  0  0  0  0  0  0  0  0  0
   58.9940   29.3450   47.4280 N   0  0  0  0  0  0  0  0  0  0  0  0
   59.2430   27.8970   47.3730 C   0  0  0  0  0  0  0  0  0  0  0  0
   60.2500   27.6410   46.2560 C   0  0  0  0  0  0  0  0  0  0  0  0
   60.3570   28.9520   45.5030 C   0  0  0  0  0  0  0  0  0  0  0  0
   59.9650   30.0060   46.5270 C   0  0  2  0  0  0  0  0  0  0  0  0
   61.9070   33.0560   51.5470 C   0  0  0  0  0  0  0  0  0  0  0  0
   60.6500   33.4180   50.7360 C   0  0  0  0  0  0  0  0  0  0  0  0
   58.9120   33.1970   48.4180 C   0  0  0  0  0  0  0  0  0  0  0  0
   58.0690   33.0580   47.3120 C   0  0  0  0  0  0  0  0  0  0  0  0
   59.8314   34.8945   45.0356 H   0  0  0  0  0  0  0  0  0  0  0  0
   61.3397   35.1503   47.0013 H   0  0  0  0  0  0  0  0  0  0  0  0
   62.4143   35.1543   48.3660 H   0  0  0  0  0  0  0  0  0  0  0  0
   62.2901   35.5616   50.1138 H   0  0  0  0  0  0  0  0  0  0  0  0
   63.7231   33.2687   48.7549 H   0  0  0  0  0  0  0  0  0  0  0  0
   64.2526   34.3644   50.1150 H   0  0  0  0  0  0  0  0  0  0  0  0
   64.2221   31.0594   50.1538 H   0  0  0  0  0  0  0  0  0  0  0  0
   62.6129   30.7185   50.9549 H   0  0  0  0  0  0  0  0  0  0  0  0
   64.0670   31.7000   47.5230 H   0  0  0  0  0  0  0  0  0  0  0  0
   60.5616   28.9408   49.8300 H   0  0  0  0  0  0  0  0  0  0  0  0
   60.1558   30.5749   50.4453 H   0  0  0  0  0  0  0  0  0  0  0  0
   58.2150   29.2572   49.3864 H   0  0  0  0  0  0  0  0  0  0  0  0
   58.5320   30.9275   48.7154 H   0  0  0  0  0  0  0  0  0  0  0  0
   59.6528   27.5507   48.3333 H   0  0  0  0  0  0  0  0  0  0  0  0
   58.3070   27.3525   47.1798 H   0  0  0  0  0  0  0  0  0  0  0  0
   61.2264   27.3573   46.6756 H   0  0  0  0  0  0  0  0  0  0  0  0
   59.9329   26.8169   45.6000 H   0  0  0  0  0  0  0  0  0  0  0  0
   61.3857   29.1156   45.1495 H   0  0  0  0  0  0  0  0  0  0  0  0
   59.7174   28.9765   44.6084 H   0  0  0  0  0  0  0  0  0  0  0  0
   59.5189   30.8942   46.0557 H   0  0  0  0  0  0  0  0  0  0  0  0
   61.6816   32.1804   52.1735 H   0  0  0  0  0  0  0  0  0  0  0  0
   62.1743   33.9330   52.1548 H   0  0  0  0  0  0  0  0  0  0  0  0
   60.0719   32.5020   50.5442 H   0  0  0  0  0  0  0  0  0  0  0  0
   60.0579   34.1388   51.3190 H   0  0  0  0  0  0  0  0  0  0  0  0
   58.6447   32.7164   49.3707 H   0  0  0  0  0  0  0  0  0  0  0  0
   57.1443   32.4685   47.3976 H   0  0  0  0  0  0  0  0  0  0  0  0
  1  2  1  0
  2  3  2  0
  3  4  1  0
  4  5  2  0
  5  6  1  0
  6  7  1  0
  7  8  1  0
  8  9  1  0
  9 10  1  0
 10 11  1  0
 11 12  2  0
 12 13  1  0
 13 14  1  0
 14 15  2  0
 15 16  1  0
 16 17  1  0
 17 18  1  0
 18 19  1  0
 19 20  1  0
 20 21  1  0
 21 22  1  0
  9 23  1  0
 23 24  1  0
  5 25  1  0
 25 26  2  0
 26  2  1  0
 24  6  1  0
 15 11  1  0
 22 18  1  0
 22 14  1  0
  3 27  1  0
  4 28  1  0
  7 29  1  0
  7 30  1  0
  8 31  1  0
  8 32  1  0
 10 33  1  0
 10 34  1  0
 12 35  1  0
 16 36  1  0
 16 37  1  0
 17 38  1  0
 17 39  1  0
 19 40  1  0
 19 41  1  0
 20 42  1  0
 20 43  1  0
 21 44  1  0
 21 45  1  0
 22 46  1  6
 23 47  1  0
 23 48  1  0
 24 49  1  0
 24 50  1  0
 25 51  1  0
 26 52  1  0
M  CHG  1  12   1
M  END
>  <UniqueID>  (51) 
46

>  <SMILES>  (51) 
Fc1ccc(N2CCN(Cc3[nH+]oc4c3CCN3CCC[C@H]43)CC2)cc1

>  <Energy>  (51) 
108.77523673191214

>  <Genealogy>  (51) 
Fc1ccc(N2CCN(Cc3[nH+]oc4c3CCN3CCCC43)CC2)cc1 (protonated)
Fc1ccc(N2CCN(Cc3[nH+]oc4c3CCN3CCC[C@H]43)CC2)cc1 (chirality)
Fc1ccc(N2CCN(Cc3[nH+]oc4c3CCN3CCC[C@H]43)CC2)cc1 (3D coordinates assigned)
Fc1ccc(N2CCN(Cc3[nH+]oc4c3CCN3CCC[C@H]43)CC2)cc1 (nonaromatic ring conformer: 108.77523673191214 kcal/mol)

>  <smiles>  (51) 
Fc1ccc(N2CCN(Cc3noc4c3CCN3CCCC43)CC2)cc1

>  <score_type>  (51) 
oracle

>  <origin>  (51) 
adg

>  <m_score__min__energy>  (51) 
-7.0199999999999996

>  <m_primary>  (51) 
energy

$$$$
51:0
     RDKit          3D

 32 34  0  0  0  0  0  0  0  0999 V2000
   59.6090   28.4950   44.5890 C   0  0  0  0  0  0  0  0  0  0  0  0
   58.4150   28.7970   45.9310 S   0  0  0  0  0  0  0  0  0  0  0  0
   59.3110   30.2130   46.5800 C   0  0  0  0  0  0  0  0  0  0  0  0
   60.4820   30.1060   47.2300 N   0  0  0  0  0  0  0  0  0  0  0  0
   60.8670   31.3890   47.4070 C   0  0  0  0  0  0  0  0  0  0  0  0
   62.1230   31.8200   48.0670 C   0  0  0  0  0  0  0  0  0  0  0  0
   62.4950   31.2570   49.3030 C   0  0  0  0  0  0  0  0  0  0  0  0
   63.6770   31.6520   49.9360 C   0  0  0  0  0  0  0  0  0  0  0  0
   64.5040   32.6090   49.3450 C   0  0  0  0  0  0  0  0  0  0  0  0
   65.9870   33.1020   50.1420 Cl  0  0  0  0  0  0  0  0  0  0  0  0
   64.1490   33.1730   48.1170 C   0  0  0  0  0  0  0  0  0  0  0  0
   62.9680   32.7820   47.4780 C   0  0  0  0  0  0  0  0  0  0  0  0
   59.9750   32.2490   46.8680 N   0  0  0  0  0  0  0  0  0  0  0  0
   58.9970   31.5100   46.3690 N   0  0  0  0  0  0  0  0  0  0  0  0
   57.9290   32.0580   45.5840 C   0  0  0  0  0  0  0  0  0  0  0  0
   57.5360   33.2320   45.8170 O   0  0  0  0  0  0  0  0  0  0  0  0
   57.2430   31.2650   44.5520 C   0  0  0  0  0  0  0  0  0  0  0  0
   57.5390   31.2660   43.2020 C   0  0  0  0  0  0  0  0  0  0  0  0
   56.6380   30.3990   42.6220 C   0  0  0  0  0  0  0  0  0  0  0  0
   55.8460   29.9290   43.6500 C   0  0  0  0  0  0  0  0  0  0  0  0
   56.2290   30.4660   44.7850 O   0  0  0  0  0  0  0  0  0  0  0  0
   60.5901   28.2468   45.0201 H   0  0  0  0  0  0  0  0  0  0  0  0
   59.2587   27.6572   43.9682 H   0  0  0  0  0  0  0  0  0  0  0  0
   59.6992   29.3986   43.9682 H   0  0  0  0  0  0  0  0  0  0  0  0
   60.9790   29.2260   47.4880 H   0  0  0  0  0  0  0  0  0  0  0  0
   61.8503   30.5004   49.7741 H   0  0  0  0  0  0  0  0  0  0  0  0
   63.9564   31.2075   50.9026 H   0  0  0  0  0  0  0  0  0  0  0  0
   64.8005   33.9270   47.6513 H   0  0  0  0  0  0  0  0  0  0  0  0
   62.6969   33.2281   46.5097 H   0  0  0  0  0  0  0  0  0  0  0  0
   58.3294   31.8395   42.6956 H   0  0  0  0  0  0  0  0  0  0  0  0
   56.5650   30.1353   41.5566 H   0  0  0  0  0  0  0  0  0  0  0  0
   55.0190   29.2128   43.5356 H   0  0  0  0  0  0  0  0  0  0  0  0
  1  2  1  0
  2  3  1  0
  3  4  2  0
  4  5  1  0
  5  6  1  0
  6  7  2  0
  7  8  1  0
  8  9  2  0
  9 10  1  0
  9 11  1  0
 11 12  2  0
  5 13  2  0
 13 14  1  0
 14 15  1  0
 15 16  2  0
 15 17  1  0
 17 18  2  0
 18 19  1  0
 19 20  2  0
 20 21  1  0
 14  3  1  0
 21 17  1  0
 12  6  1  0
  1 22  1  0
  1 23  1  0
  1 24  1  0
  4 25  1  0
  7 26  1  0
  8 27  1  0
 11 28  1  0
 12 29  1  0
 18 30  1  0
 19 31  1  0
 20 32  1  0
M  CHG  1   4   1
M  END
>  <UniqueID>  (52) 
47

>  <SMILES>  (52) 
CSc1[nH+]c(-c2ccc(Cl)cc2)nn1C(=O)c1ccco1

>  <Energy>  (52) 
97.57342781317575

>  <Genealogy>  (52) 
CSc1[nH+]c(-c2ccc(Cl)cc2)nn1C(=O)c1ccco1 (protonated)
CSc1[nH+]c(-c2ccc(Cl)cc2)nn1C(=O)c1ccco1 (3D coordinates assigned)
CSc1[nH+]c(-c2ccc(Cl)cc2)nn1C(=O)c1ccco1 (optimized conformer: 97.57342781317575 kcal/mol)

>  <smiles>  (52) 
CSc1nc(-c2ccc(Cl)cc2)nn1C(=O)c1ccco1

>  <score_type>  (52) 
oracle

>  <origin>  (52) 
adg

>  <m_score__min__energy>  (52) 
-6.0199999999999996

>  <m_primary>  (52) 
energy

$$$$
52:0
     RDKit          3D

 57 60  0  0  0  0  0  0  0  0999 V2000
   56.3580   30.1400   43.3220 C   0  0  0  0  0  0  0  0  0  0  0  0
   56.3180   30.7670   44.5980 O   0  0  0  0  0  0  0  0  0  0  0  0
   57.3970   31.4490   45.1800 C   0  0  0  0  0  0  0  0  0  0  0  0
   58.4400   30.7820   45.8490 C   0  0  0  0  0  0  0  0  0  0  0  0
   59.4950   31.5060   46.4120 C   0  0  0  0  0  0  0  0  0  0  0  0
   59.5300   32.9090   46.3160 C   0  0  0  0  0  0  0  0  0  0  0  0
   60.6060   33.6880   46.8770 N   0  0  0  0  0  0  0  0  0  0  0  0
   60.4730   34.5650   48.0410 C   0  0  0  0  0  0  0  0  0  0  0  0
   60.1690   33.7610   49.2660 C   0  0  0  0  0  0  0  0  0  0  0  0
   60.9640   33.6450   50.3840 C   0  0  0  0  0  0  0  0  0  0  0  0
   60.3450   32.8560   51.2240 O   0  0  0  0  0  0  0  0  0  0  0  0
   59.2140   32.4900   50.6570 C   0  0  0  0  0  0  0  0  0  0  0  0
   58.2320   31.5920   51.2960 C   0  0  0  0  0  0  0  0  0  0  0  0
   57.0340   32.1110   51.8170 C   0  0  0  0  0  0  0  0  0  0  0  0
   56.0990   31.2650   52.4200 C   0  0  0  0  0  0  0  0  0  0  0  0
   56.3500   29.8880   52.5180 C   0  0  0  0  0  0  0  0  0  0  0  0
   55.3180   28.9650   53.1220 C   0  0  0  0  0  0  0  0  0  0  0  0
   54.2120   28.6960   52.1880 N   0  0  0  0  0  0  0  0  0  0  0  0
   53.2670   29.7890   52.1630 C   0  0  0  0  0  0  0  0  0  0  0  0
   53.0870   30.5500   50.9950 C   0  0  0  0  0  0  0  0  0  0  0  0
   52.1980   31.6270   50.9830 C   0  0  0  0  0  0  0  0  0  0  0  0
   51.4750   31.9680   52.1310 C   0  0  0  0  0  0  0  0  0  0  0  0
   50.5920   33.0560   52.0660 O   0  0  0  0  0  0  0  0  0  0  0  0
   50.2600   33.8890   53.1720 C   0  0  0  0  0  0  0  0  0  0  0  0
   51.6580   31.2130   53.3060 C   0  0  0  0  0  0  0  0  0  0  0  0
   52.5480   30.1340   53.3200 C   0  0  0  0  0  0  0  0  0  0  0  0
   57.5420   29.3660   51.9950 C   0  0  0  0  0  0  0  0  0  0  0  0
   58.4770   30.2120   51.3890 C   0  0  0  0  0  0  0  0  0  0  0  0
   59.0540   33.0250   49.4270 N   0  0  0  0  0  0  0  0  0  0  0  0
   58.4830   33.5690   45.6520 C   0  0  0  0  0  0  0  0  0  0  0  0
   57.4290   32.8440   45.0900 C   0  0  0  0  0  0  0  0  0  0  0  0
   56.4276   29.0498   43.4512 H   0  0  0  0  0  0  0  0  0  0  0  0
   55.4424   30.3854   42.7640 H   0  0  0  0  0  0  0  0  0  0  0  0
   57.2350   30.4998   42.7640 H   0  0  0  0  0  0  0  0  0  0  0  0
   58.4250   29.6850   45.9294 H   0  0  0  0  0  0  0  0  0  0  0  0
   60.3042   30.9744   46.9342 H   0  0  0  0  0  0  0  0  0  0  0  0
   61.5570   33.6040   46.4500 H   0  0  0  0  0  0  0  0  0  0  0  0
   61.4146   35.1134   48.1915 H   0  0  0  0  0  0  0  0  0  0  0  0
   59.6490   35.2718   47.8637 H   0  0  0  0  0  0  0  0  0  0  0  0
   61.9401   34.1271   50.5419 H   0  0  0  0  0  0  0  0  0  0  0  0
   56.8311   33.1900   51.7497 H   0  0  0  0  0  0  0  0  0  0  0  0
   55.1622   31.6806   52.8195 H   0  0  0  0  0  0  0  0  0  0  0  0
   55.8021   28.0127   53.3845 H   0  0  0  0  0  0  0  0  0  0  0  0
   54.9009   29.4553   54.0140 H   0  0  0  0  0  0  0  0  0  0  0  0
   53.7190   27.8250   52.4930 H   0  0  0  0  0  0  0  0  0  0  0  0
   54.5880   28.5160   51.2290 H   0  0  0  0  0  0  0  0  0  0  0  0
   53.6498   30.2957   50.0848 H   0  0  0  0  0  0  0  0  0  0  0  0
   52.0650   32.2130   50.0616 H   0  0  0  0  0  0  0  0  0  0  0  0
   50.4728   33.3552   54.1100 H   0  0  0  0  0  0  0  0  0  0  0  0
   50.8597   34.8102   53.1302 H   0  0  0  0  0  0  0  0  0  0  0  0
   49.1911   34.1452   53.1302 H   0  0  0  0  0  0  0  0  0  0  0  0
   51.0985   31.4731   54.2167 H   0  0  0  0  0  0  0  0  0  0  0  0
   52.6860   29.5516   54.2429 H   0  0  0  0  0  0  0  0  0  0  0  0
   57.7427   28.2865   52.0616 H   0  0  0  0  0  0  0  0  0  0  0  0
   59.4098   29.7939   50.9828 H   0  0  0  0  0  0  0  0  0  0  0  0
   58.4929   34.6662   45.5737 H   0  0  0  0  0  0  0  0  0  0  0  0
   56.6171   33.3755   44.5721 H   0  0  0  0  0  0  0  0  0  0  0  0
  1  2  1  0
  2  3  1  0
  3  4  2  0
  4  5  1  0
  5  6  2  0
  6  7  1  0
  7  8  1  0
  8  9  1  0
  9 10  2  0
 10 11  1  0
 11 12  1  0
 12 13  1  0
 13 14  2  0
 14 15  1  0
 15 16  2  0
 16 17  1  0
 17 18  1  0
 18 19  1  0
 19 20  2  0
 20 21  1  0
 21 22  2  0
 22 23  1  0
 23 24  1  0
 22 25  1  0
 25 26  2  0
 16 27  1  0
 27 28  2  0
 12 29  2  0
  6 30  1  0
 30 31  2  0
 31  3  1  0
 29  9  1  0
 28 13  1  0
 26 19  1  0
  1 32  1  0
  1 33  1  0
  1 34  1  0
  4 35  1  0
  5 36  1  0
  7 37  1  0
  8 38  1  0
  8 39  1  0
 10 40  1  0
 14 41  1  0
 15 42  1  0
 17 43  1  0
 17 44  1  0
 18 45  1  0
 18 46  1  0
 20 47  1  0
 21 48  1  0
 24 49  1  0
 24 50  1  0
 24 51  1  0
 25 52  1  0
 26 53  1  0
 27 54  1  0
 28 55  1  0
 30 56  1  0
 31 57  1  0
M  CHG  1  18   1
M  END
>  <UniqueID>  (53) 
48

>  <SMILES>  (53) 
COc1ccc(NCc2coc(-c3ccc(C[NH2+]c4ccc(OC)cc4)cc3)n2)cc1

>  <Energy>  (53) 
87.87169804797298

>  <Genealogy>  (53) 
COc1ccc(NCc2coc(-c3ccc(C[NH2+]c4ccc(OC)cc4)cc3)n2)cc1 (protonated)
COc1ccc(NCc2coc(-c3ccc(C[NH2+]c4ccc(OC)cc4)cc3)n2)cc1 (3D coordinates assigned)
COc1ccc(NCc2coc(-c3ccc(C[NH2+]c4ccc(OC)cc4)cc3)n2)cc1 (optimized conformer: 87.87169804797298 kcal/mol)

>  <smiles>  (53) 
COc1ccc(NCc2ccc(-c3nc(CNc4ccc(OC)cc4)co3)cc2)cc1

>  <score_type>  (53) 
oracle

>  <origin>  (53) 
adg

>  <m_score__min__energy>  (53) 
-8

>  <m_primary>  (53) 
energy

$$$$
53:0
     RDKit          3D

 27 27  0  0  0  0  0  0  0  0999 V2000
   57.3890   31.6300   43.7940 C   0  0  0  0  0  0  0  0  0  0  0  0
   56.7360   30.9740   44.8740 O   0  0  0  0  0  0  0  0  0  0  0  0
   56.6560   29.5810   44.9760 C   0  0  0  0  0  0  0  0  0  0  0  0
   55.5380   29.0020   44.8900 O   0  0  0  0  0  0  0  0  0  0  0  0
   57.8810   28.7830   45.1820 C   0  0  0  0  0  0  0  0  0  0  0  0
   59.1080   29.0870   44.5660 C   0  0  0  0  0  0  0  0  0  0  0  0
   60.1370   28.2150   44.9000 C   0  0  0  0  0  0  0  0  0  0  0  0
   59.5330   27.0590   45.9610 S   0  0  0  0  0  0  0  0  0  0  0  0
   57.9610   27.6610   46.0060 C   0  0  0  0  0  0  0  0  0  0  0  0
   56.8640   27.1130   46.7480 N   0  0  0  0  0  0  0  0  0  0  0  0
   55.9780   26.0710   46.3230 C   0  0  0  0  0  0  0  0  0  0  0  0
   54.7900   26.3290   45.9880 O   0  0  0  0  0  0  0  0  0  0  0  0
   56.4870   24.6640   46.2560 C   0  0  0  0  0  0  0  0  0  0  0  0
   56.0380   23.9360   47.3470 F   0  0  0  0  0  0  0  0  0  0  0  0
   57.8700   24.6790   46.2800 F   0  0  0  0  0  0  0  0  0  0  0  0
   56.0160   24.0180   44.9890 C   0  0  0  0  0  0  0  0  0  0  0  0
   54.8560   23.5270   44.9250 O   0  0  0  0  0  0  0  0  0  0  0  0
   56.8490   24.0230   43.8660 O   0  0  0  0  0  0  0  0  0  0  0  0
   57.4080   25.2170   43.3310 C   0  0  0  0  0  0  0  0  0  0  0  0
   58.1129   32.3572   44.1905 H   0  0  0  0  0  0  0  0  0  0  0  0
   57.9161   30.8864   43.1781 H   0  0  0  0  0  0  0  0  0  0  0  0
   56.6430   32.1537   43.1781 H   0  0  0  0  0  0  0  0  0  0  0  0
   59.2412   29.9379   43.8818 H   0  0  0  0  0  0  0  0  0  0  0  0
   61.1722   28.2715   44.5323 H   0  0  0  0  0  0  0  0  0  0  0  0
   57.7174   25.8779   44.1541 H   0  0  0  0  0  0  0  0  0  0  0  0
   58.2828   24.9673   42.7126 H   0  0  0  0  0  0  0  0  0  0  0  0
   56.6560   25.7289   42.7126 H   0  0  0  0  0  0  0  0  0  0  0  0
  1  2  1  0
  2  3  1  0
  3  4  2  0
  3  5  1  0
  5  6  1  0
  6  7  2  0
  7  8  1  0
  8  9  1  0
  9 10  1  0
 10 11  1  0
 11 12  2  0
 11 13  1  0
 13 14  1  0
 13 15  1  0
 13 16  1  0
 16 17  2  0
 16 18  1  0
 18 19  1  0
  9  5  2  0
  1 20  1  0
  1 21  1  0
  1 22  1  0
  6 23  1  0
  7 24  1  0
 19 25  1  0
 19 26  1  0
 19 27  1  0
M  CHG  1  10  -1
M  END
>  <UniqueID>  (54) 
49

>  <SMILES>  (54) 
COC(=O)c1ccsc1[N-]C(=O)C(F)(F)C(=O)OC

>  <Energy>  (54) 
45.79470792852343

>  <Genealogy>  (54) 
COC(=O)c1ccsc1[N-]C(=O)C(F)(F)C(=O)OC (protonated)
COC(=O)c1ccsc1[N-]C(=O)C(F)(F)C(=O)OC (3D coordinates assigned)
COC(=O)c1ccsc1[N-]C(=O)C(F)(F)C(=O)OC (optimized conformer: 45.79470792852343 kcal/mol)

>  <smiles>  (54) 
COC(=O)c1ccsc1NC(=O)C(F)(F)C(=O)OC

>  <score_type>  (54) 
oracle

>  <origin>  (54) 
adg

>  <m_score__min__energy>  (54) 
-7.8600000000000003

>  <m_primary>  (54) 
energy

$$$$
54:0
     RDKit          3D

 47 49  0  0  0  0  0  0  0  0999 V2000
   61.9180   30.9290   47.1430 C   0  0  0  0  0  0  0  0  0  0  0  0
   63.1280   31.7370   47.1420 N   0  0  0  0  0  0  0  0  0  0  0  0
   63.2120   33.0130   47.7850 C   0  0  0  0  0  0  0  0  0  0  0  0
   63.7920   33.9690   47.2020 O   0  0  0  0  0  0  0  0  0  0  0  0
   62.5810   33.2310   49.1110 C   0  0  0  0  0  0  0  0  0  0  0  0
   63.3830   33.1170   50.2620 C   0  0  0  0  0  0  0  0  0  0  0  0
   62.8580   33.3830   51.5290 C   0  0  0  0  0  0  0  0  0  0  0  0
   63.6480   33.2790   52.6250 F   0  0  0  0  0  0  0  0  0  0  0  0
   61.5250   33.7650   51.6660 C   0  0  0  0  0  0  0  0  0  0  0  0
   60.7070   33.8670   50.5410 C   0  0  0  0  0  0  0  0  0  0  0  0
   61.2130   33.5900   49.2590 C   0  0  0  0  0  0  0  0  0  0  0  0
   60.2700   33.6160   48.1190 C   0  0  0  0  0  0  0  0  0  0  0  0
   59.1050   32.8310   48.1420 C   0  0  0  0  0  0  0  0  0  0  0  0
   58.1840   32.9060   47.0940 C   0  0  0  0  0  0  0  0  0  0  0  0
   58.4090   33.7760   46.0180 C   0  0  0  0  0  0  0  0  0  0  0  0
   57.3940   33.9500   44.9670 C   0  0  0  0  0  0  0  0  0  0  0  0
   56.4300   34.7330   45.1690 O   0  0  0  0  0  0  0  0  0  0  0  0
   57.4320   33.1930   43.7480 N   0  0  0  0  0  0  0  0  0  0  0  0
   58.3240   32.0680   43.4640 C   0  0  0  0  0  0  0  0  0  0  0  0
   57.8790   30.8150   44.1780 C   0  0  0  0  0  0  0  0  0  0  0  0
   56.5690   30.3390   44.0230 C   0  0  0  0  0  0  0  0  0  0  0  0
   56.1770   29.1380   44.6190 C   0  0  0  0  0  0  0  0  0  0  0  0
   57.0840   28.3980   45.3970 C   0  0  0  0  0  0  0  0  0  0  0  0
   56.6740   27.1140   46.0100 C   0  0  0  0  0  0  0  0  0  0  0  0
   55.3050   26.7120   46.0050 N   0  0  0  0  0  0  0  0  0  0  0  0
   57.5320   26.3610   46.5450 O   0  0  0  0  0  0  0  0  0  0  0  0
   58.3870   28.8970   45.5790 C   0  0  0  0  0  0  0  0  0  0  0  0
   58.7780   30.0970   44.9800 C   0  0  0  0  0  0  0  0  0  0  0  0
   59.5850   34.5390   45.9800 C   0  0  0  0  0  0  0  0  0  0  0  0
   60.5040   34.4690   47.0290 C   0  0  0  0  0  0  0  0  0  0  0  0
   61.6137   30.7258   48.1803 H   0  0  0  0  0  0  0  0  0  0  0  0
   61.1140   31.4721   46.6247 H   0  0  0  0  0  0  0  0  0  0  0  0
   62.1115   29.9783   46.6247 H   0  0  0  0  0  0  0  0  0  0  0  0
   64.4360   32.8148   50.1627 H   0  0  0  0  0  0  0  0  0  0  0  0
   61.1171   33.9865   52.6633 H   0  0  0  0  0  0  0  0  0  0  0  0
   59.6553   34.1672   50.6580 H   0  0  0  0  0  0  0  0  0  0  0  0
   58.9172   32.1544   48.9887 H   0  0  0  0  0  0  0  0  0  0  0  0
   57.2794   32.2804   47.1133 H   0  0  0  0  0  0  0  0  0  0  0  0
   58.3277   31.8796   42.3803 H   0  0  0  0  0  0  0  0  0  0  0  0
   59.3318   32.3284   43.8198 H   0  0  0  0  0  0  0  0  0  0  0  0
   55.8452   30.9153   43.4280 H   0  0  0  0  0  0  0  0  0  0  0  0
   55.1505   28.7685   44.4784 H   0  0  0  0  0  0  0  0  0  0  0  0
   54.7630   26.6650   45.1150 H   0  0  0  0  0  0  0  0  0  0  0  0
   59.1037   28.3375   46.1981 H   0  0  0  0  0  0  0  0  0  0  0  0
   59.7966   30.4808   45.1383 H   0  0  0  0  0  0  0  0  0  0  0  0
   59.7844   35.1955   45.1202 H   0  0  0  0  0  0  0  0  0  0  0  0
   61.4150   35.0848   47.0011 H   0  0  0  0  0  0  0  0  0  0  0  0
  1  2  1  0
  2  3  1  0
  3  4  2  0
  3  5  1  0
  5  6  2  0
  6  7  1  0
  7  8  1  0
  7  9  2  0
  9 10  1  0
 10 11  2  0
 11 12  1  0
 12 13  2  0
 13 14  1  0
 14 15  2  0
 15 16  1  0
 16 17  2  0
 16 18  1  0
 18 19  1  0
 19 20  1  0
 20 21  2  0
 21 22  1  0
 22 23  2  0
 23 24  1  0
 24 25  1  0
 24 26  2  0
 23 27  1  0
 27 28  2  0
 15 29  1  0
 29 30  2  0
 11  5  1  0
 30 12  1  0
 28 20  1  0
  1 31  1  0
  1 32  1  0
  1 33  1  0
  6 34  1  0
  9 35  1  0
 10 36  1  0
 13 37  1  0
 14 38  1  0
 19 39  1  0
 19 40  1  0
 21 41  1  0
 22 42  1  0
 25 43  1  0
 27 44  1  0
 28 45  1  0
 29 46  1  0
 30 47  1  0
M  CHG  3   2  -1  18  -1  25  -1
M  END
>  <UniqueID>  (55) 
50

>  <SMILES>  (55) 
C[N-]C(=O)c1cc(F)ccc1-c1ccc(C(=O)[N-]Cc2ccc(C([NH-])=O)cc2)cc1

>  <Energy>  (55) 
59.17729471581559

>  <Genealogy>  (55) 
C[N-]C(=O)c1cc(F)ccc1-c1ccc(C(=O)[N-]Cc2ccc(C([NH-])=O)cc2)cc1 (protonated)
C[N-]C(=O)c1cc(F)ccc1-c1ccc(C(=O)[N-]Cc2ccc(C([NH-])=O)cc2)cc1 (3D coordinates assigned)
C[N-]C(=O)c1cc(F)ccc1-c1ccc(C(=O)[N-]Cc2ccc(C([NH-])=O)cc2)cc1 (optimized conformer: 59.17729471581559 kcal/mol)

>  <smiles>  (55) 
CNC(=O)c1cc(F)ccc1-c1ccc(C(=O)NCc2ccc(C(N)=O)cc2)cc1

>  <score_type>  (55) 
oracle

>  <origin>  (55) 
adg

>  <m_score__min__energy>  (55) 
-13.67

>  <m_primary>  (55) 
energy

$$$$
55:0
     RDKit          3D

 43 45  0  0  0  0  0  0  0  0999 V2000
   58.7940   34.4410   44.5540 O   0  0  0  0  0  0  0  0  0  0  0  0
   58.2800   33.4640   45.1650 C   0  0  0  0  0  0  0  0  0  0  0  0
   58.2670   33.4490   46.6020 N   0  0  0  0  0  0  0  0  0  0  0  0
   58.9150   34.4850   47.4050 C   0  0  0  0  0  0  0  0  0  0  0  0
   59.9670   33.8730   48.3580 C   0  0  0  0  0  0  0  0  0  0  0  0
   61.1690   33.2740   47.6320 C   0  0  0  0  0  0  0  0  0  0  0  0
   60.7940   32.0810   46.7460 C   0  0  0  0  0  0  0  0  0  0  0  0
   59.7440   31.1880   47.2930 N   0  0  0  0  0  0  0  0  0  0  0  0
   59.4000   29.9770   46.5450 C   0  0  0  0  0  0  0  0  0  0  0  0
   58.4730   29.0320   47.0550 C   0  0  0  0  0  0  0  0  0  0  0  0
   58.1490   27.8780   46.3360 C   0  0  0  0  0  0  0  0  0  0  0  0
   58.7310   27.6370   45.0930 C   0  0  0  0  0  0  0  0  0  0  0  0
   59.6360   28.5520   44.5630 C   0  0  0  0  0  0  0  0  0  0  0  0
   59.9680   29.7090   45.2730 C   0  0  0  0  0  0  0  0  0  0  0  0
   58.9170   31.5500   48.4710 C   0  0  0  0  0  0  0  0  0  0  0  0
   59.3780   32.7880   49.2520 C   0  0  0  0  0  0  0  0  0  0  0  0
   57.6920   32.3440   44.3980 C   0  0  0  0  0  0  0  0  0  0  0  0
   57.8170   32.2800   42.9990 C   0  0  0  0  0  0  0  0  0  0  0  0
   57.2520   31.2060   42.3060 C   0  0  0  0  0  0  0  0  0  0  0  0
   56.5720   30.2090   43.0070 C   0  0  0  0  0  0  0  0  0  0  0  0
   56.4660   30.3010   44.3950 C   0  0  0  0  0  0  0  0  0  0  0  0
   57.0230   31.3540   45.0520 N   0  0  0  0  0  0  0  0  0  0  0  0
   57.7450   32.6970   47.1060 H   0  0  0  0  0  0  0  0  0  0  0  0
   59.4115   35.2016   46.7342 H   0  0  0  0  0  0  0  0  0  0  0  0
   58.1473   34.9899   48.0097 H   0  0  0  0  0  0  0  0  0  0  0  0
   60.3035   34.7254   48.9664 H   0  0  0  0  0  0  0  0  0  0  0  0
   61.6216   34.0524   47.0002 H   0  0  0  0  0  0  0  0  0  0  0  0
   61.8705   32.9104   48.3973 H   0  0  0  0  0  0  0  0  0  0  0  0
   60.4378   32.4729   45.7819 H   0  0  0  0  0  0  0  0  0  0  0  0
   61.7026   31.4663   46.6646 H   0  0  0  0  0  0  0  0  0  0  0  0
   58.0013   29.2104   48.0326 H   0  0  0  0  0  0  0  0  0  0  0  0
   57.4311   27.1566   46.7534 H   0  0  0  0  0  0  0  0  0  0  0  0
   58.4758   26.7258   44.5321 H   0  0  0  0  0  0  0  0  0  0  0  0
   60.0924   28.3634   43.5800 H   0  0  0  0  0  0  0  0  0  0  0  0
   60.6819   30.4240   44.8381 H   0  0  0  0  0  0  0  0  0  0  0  0
   57.8910   31.7345   48.1199 H   0  0  0  0  0  0  0  0  0  0  0  0
   59.0039   30.7049   49.1697 H   0  0  0  0  0  0  0  0  0  0  0  0
   58.5130   33.2066   49.7872 H   0  0  0  0  0  0  0  0  0  0  0  0
   60.1714   32.4644   49.9417 H   0  0  0  0  0  0  0  0  0  0  0  0
   58.3555   33.0694   42.4541 H   0  0  0  0  0  0  0  0  0  0  0  0
   57.3429   31.1466   41.2114 H   0  0  0  0  0  0  0  0  0  0  0  0
   56.1242   29.3594   42.4706 H   0  0  0  0  0  0  0  0  0  0  0  0
   55.9318   29.5218   44.9584 H   0  0  0  0  0  0  0  0  0  0  0  0
  1  2  2  0
  2  3  1  0
  3  4  1  0
  4  5  1  0
  5  6  1  0
  6  7  1  0
  7  8  1  0
  8  9  1  0
  9 10  2  0
 10 11  1  0
 11 12  2  0
 12 13  1  0
 13 14  2  0
  8 15  1  0
 15 16  1  0
  2 17  1  0
 17 18  2  0
 18 19  1  0
 19 20  2  0
 20 21  1  0
 21 22  2  0
 16  5  1  0
 22 17  1  0
 14  9  1  0
  3 23  1  0
  4 24  1  0
  4 25  1  0
  5 26  1  0
  6 27  1  0
  6 28  1  0
  7 29  1  0
  7 30  1  0
 10 31  1  0
 11 32  1  0
 12 33  1  0
 13 34  1  0
 14 35  1  0
 15 36  1  0
 15 37  1  0
 16 38  1  0
 16 39  1  0
 18 40  1  0
 19 41  1  0
 20 42  1  0
 21 43  1  0
M  END
>  <UniqueID>  (56) 
51

>  <SMILES>  (56) 
O=C(NCC1CCN(c2ccccc2)CC1)c1ccccn1

>  <Energy>  (56) 
49.39705958730655

>  <Genealogy>  (56) 
O=C(NCC1CCN(c2ccccc2)CC1)c1ccccn1 (3D coordinates assigned)
O=C(NCC1CCN(c2ccccc2)CC1)c1ccccn1 (nonaromatic ring conformer: 49.39705958730655 kcal/mol)

>  <smiles>  (56) 
O=C(NCC1CCN(c2ccccc2)CC1)c1ccccn1

>  <score_type>  (56) 
oracle

>  <origin>  (56) 
adg

>  <m_score__min__energy>  (56) 
-8.0600000000000005

>  <m_primary>  (56) 
energy

$$$$
56:0
     RDKit          3D

 38 40  0  0  0  0  0  0  0  0999 V2000
   56.2710   23.6560   47.4990 C   0  0  0  0  0  0  0  0  0  0  0  0
   55.8920   24.8390   46.8020 O   0  0  0  0  0  0  0  0  0  0  0  0
   56.7990   25.7490   46.2380 C   0  0  0  0  0  0  0  0  0  0  0  0
   57.1070   25.6250   44.8780 C   0  0  0  0  0  0  0  0  0  0  0  0
   58.0030   26.5070   44.2690 C   0  0  0  0  0  0  0  0  0  0  0  0
   58.6030   27.5370   45.0130 C   0  0  0  0  0  0  0  0  0  0  0  0
   59.5530   28.4260   44.3940 N   0  0  0  0  0  0  0  0  0  0  0  0
   59.4890   29.7100   45.0350 C   0  0  0  0  0  0  0  0  0  0  0  0
   60.3250   30.1100   45.9600 O   0  0  0  0  0  0  0  0  0  0  0  0
   59.9480   31.3210   46.3080 C   0  0  0  0  0  0  0  0  0  0  0  0
   60.6360   32.1230   47.3250 C   0  0  0  0  0  0  0  0  0  0  0  0
   60.0330   33.0230   48.1930 C   0  0  0  0  0  0  0  0  0  0  0  0
   60.9410   33.6470   49.0550 C   0  0  0  0  0  0  0  0  0  0  0  0
   62.2570   33.2400   48.8700 C   0  0  0  0  0  0  0  0  0  0  0  0
   62.2890   32.1040   47.6300 S   0  0  0  0  0  0  0  0  0  0  0  0
   58.8580   31.7510   45.6320 N   0  0  0  0  0  0  0  0  0  0  0  0
   58.5710   30.7170   44.8180 C   0  0  0  0  0  0  0  0  0  0  0  0
   57.1980   30.6960   43.7230 S   0  0  0  0  0  0  0  0  0  0  0  0
   57.4010   31.9510   42.4780 C   0  0  0  0  0  0  0  0  0  0  0  0
   57.1230   29.3530   43.0530 O   0  0  0  0  0  0  0  0  0  0  0  0
   55.9270   30.9280   44.4890 O   0  0  0  0  0  0  0  0  0  0  0  0
   58.3040   27.6560   46.3810 C   0  0  0  0  0  0  0  0  0  0  0  0
   57.4070   26.7740   46.9890 C   0  0  0  0  0  0  0  0  0  0  0  0
   56.2137   23.8348   48.5829 H   0  0  0  0  0  0  0  0  0  0  0  0
   55.5907   22.8358   47.2262 H   0  0  0  0  0  0  0  0  0  0  0  0
   57.3013   23.3839   47.2262 H   0  0  0  0  0  0  0  0  0  0  0  0
   56.6394   24.8261   44.2837 H   0  0  0  0  0  0  0  0  0  0  0  0
   58.2402   26.3945   43.2008 H   0  0  0  0  0  0  0  0  0  0  0  0
   60.5140   28.0200   44.4610 H   0  0  0  0  0  0  0  0  0  0  0  0
   59.3290   28.5490   43.3790 H   0  0  0  0  0  0  0  0  0  0  0  0
   58.9517   33.2249   48.2021 H   0  0  0  0  0  0  0  0  0  0  0  0
   60.6415   34.3902   49.8087 H   0  0  0  0  0  0  0  0  0  0  0  0
   63.1283   33.5992   49.4373 H   0  0  0  0  0  0  0  0  0  0  0  0
   57.5587   32.9259   42.9624 H   0  0  0  0  0  0  0  0  0  0  0  0
   58.2715   31.7080   41.8510 H   0  0  0  0  0  0  0  0  0  0  0  0
   56.4983   31.9949   41.8510 H   0  0  0  0  0  0  0  0  0  0  0  0
   58.7794   28.4489   46.9771 H   0  0  0  0  0  0  0  0  0  0  0  0
   57.1746   26.8805   48.0589 H   0  0  0  0  0  0  0  0  0  0  0  0
  1  2  1  0
  2  3  1  0
  3  4  2  0
  4  5  1  0
  5  6  2  0
  6  7  1  0
  7  8  1  0
  8  9  1  0
  9 10  1  0
 10 11  1  0
 11 12  2  0
 12 13  1  0
 13 14  2  0
 14 15  1  0
 10 16  2  0
 16 17  1  0
 17 18  1  0
 18 19  1  0
 18 20  2  0
 18 21  2  0
  6 22  1  0
 22 23  2  0
 23  3  1  0
 17  8  2  0
 15 11  1  0
  1 24  1  0
  1 25  1  0
  1 26  1  0
  4 27  1  0
  5 28  1  0
  7 29  1  0
  7 30  1  0
 12 31  1  0
 13 32  1  0
 14 33  1  0
 19 34  1  0
 19 35  1  0
 19 36  1  0
 22 37  1  0
 23 38  1  0
M  CHG  1   7   1
M  END
>  <UniqueID>  (57) 
52

>  <SMILES>  (57) 
COc1ccc([NH2+]c2oc(-c3cccs3)nc2S(C)(=O)=O)cc1

>  <Energy>  (57) 
93.5019262053181

>  <Genealogy>  (57) 
COc1ccc([NH2+]c2oc(-c3cccs3)nc2S(C)(=O)=O)cc1 (protonated)
COc1ccc([NH2+]c2oc(-c3cccs3)nc2S(C)(=O)=O)cc1 (3D coordinates assigned)
COc1ccc([NH2+]c2oc(-c3cccs3)nc2S(C)(=O)=O)cc1 (optimized conformer: 93.5019262053181 kcal/mol)

>  <smiles>  (57) 
COc1ccc(Nc2oc(-c3cccs3)nc2S(C)(=O)=O)cc1

>  <score_type>  (57) 
oracle

>  <origin>  (57) 
adg

>  <m_score__min__energy>  (57) 
-5.5199999999999996

>  <m_primary>  (57) 
energy

$$$$
57:0
     RDKit          3D

 62 66  0  0  1  0  0  0  0  0999 V2000
   64.5750   33.3100   49.7560 C   0  0  0  0  0  0  0  0  0  0  0  0
   63.2460   32.8310   49.2390 C   0  0  1  0  0  0  0  0  0  0  0  0
   62.3060   33.9890   49.0100 C   0  0  0  0  0  0  0  0  0  0  0  0
   61.8870   33.9320   47.5840 N   0  0  0  0  0  0  0  0  0  0  0  0
   60.5210   34.0220   47.3470 C   0  0  0  0  0  0  0  0  0  0  0  0
   60.0430   35.2270   47.5000 O   0  0  0  0  0  0  0  0  0  0  0  0
   59.5650   33.0670   46.9720 N   0  0  0  0  0  0  0  0  0  0  0  0
   59.4710   31.7620   47.5940 C   0  0  0  0  0  0  0  0  0  0  0  0
   59.6730   31.7200   48.9560 C   0  0  0  0  0  0  0  0  0  0  0  0
   59.6150   30.5250   49.6280 C   0  0  0  0  0  0  0  0  0  0  0  0
   59.3500   29.3940   48.9030 C   0  0  0  0  0  0  0  0  0  0  0  0
   59.1480   29.4640   47.5410 C   0  0  0  0  0  0  0  0  0  0  0  0
   59.2030   30.6510   46.8210 C   0  0  0  0  0  0  0  0  0  0  0  0
   58.6930   30.8390   45.5060 C   0  0  0  0  0  0  0  0  0  0  0  0
   58.4240   32.0950   45.0470 C   0  0  0  0  0  0  0  0  0  0  0  0
   57.9720   31.9710   43.7870 N   0  0  0  0  0  0  0  0  0  0  0  0
   57.9540   30.6720   43.4330 N   0  0  0  0  0  0  0  0  0  0  0  0
   58.4190   29.9770   44.5120 C   0  0  0  0  0  0  0  0  0  0  0  0
   58.9190   28.8270   44.3410 N   0  0  0  0  0  0  0  0  0  0  0  0
   58.4450   27.4750   43.4920 S   0  0  0  0  0  0  0  0  0  0  0  0
   59.0720   27.0900   42.2030 O   0  0  0  0  0  0  0  0  0  0  0  0
   57.1490   28.1680   42.7770 O   0  0  0  0  0  0  0  0  0  0  0  0
   57.5930   26.2330   44.3470 C   0  0  0  0  0  0  0  0  0  0  0  0
   57.3730   24.9720   43.7860 C   0  0  0  0  0  0  0  0  0  0  0  0
   56.6720   23.9780   44.4340 C   0  0  0  0  0  0  0  0  0  0  0  0
   56.1430   24.1740   45.6900 C   0  0  0  0  0  0  0  0  0  0  0  0
   56.3450   25.4070   46.2670 C   0  0  0  0  0  0  0  0  0  0  0  0
   57.0450   26.3970   45.6160 C   0  0  0  0  0  0  0  0  0  0  0  0
   58.6340   33.3020   45.8780 C   0  0  0  0  0  0  0  0  0  0  0  0
   57.3150   33.8410   46.3690 C   0  0  0  0  0  0  0  0  0  0  0  0
   59.2490   34.3290   44.9510 C   0  0  0  0  0  0  0  0  0  0  0  0
   62.9890   33.8630   46.6600 C   0  0  0  0  0  0  0  0  0  0  0  0
   63.7710   32.6120   46.9070 C   0  0  0  0  0  0  0  0  0  0  0  0
   63.3670   31.9350   48.1230 N   0  0  0  0  0  0  0  0  0  0  0  0
   64.5636   33.3059   50.8559 H   0  0  0  0  0  0  0  0  0  0  0  0
   65.3711   32.6422   49.3951 H   0  0  0  0  0  0  0  0  0  0  0  0
   64.7621   34.3321   49.3951 H   0  0  0  0  0  0  0  0  0  0  0  0
   62.7843   32.2123   50.0226 H   0  0  0  0  0  0  0  0  0  0  0  0
   61.4277   33.8983   49.6660 H   0  0  0  0  0  0  0  0  0  0  0  0
   62.7987   34.9460   49.2370 H   0  0  0  0  0  0  0  0  0  0  0  0
   59.8817   32.6486   49.5074 H   0  0  0  0  0  0  0  0  0  0  0  0
   59.7763   30.4771   50.7150 H   0  0  0  0  0  0  0  0  0  0  0  0
   59.2978   28.4203   49.4121 H   0  0  0  0  0  0  0  0  0  0  0  0
   58.9323   28.5328   46.9967 H   0  0  0  0  0  0  0  0  0  0  0  0
   57.6580   32.7350   43.1160 H   0  0  0  0  0  0  0  0  0  0  0  0
   57.6370   30.3180   42.5080 H   0  0  0  0  0  0  0  0  0  0  0  0
   57.7767   24.7639   42.7841 H   0  0  0  0  0  0  0  0  0  0  0  0
   56.5320   23.0068   43.9369 H   0  0  0  0  0  0  0  0  0  0  0  0
   55.5843   23.3811   46.2087 H   0  0  0  0  0  0  0  0  0  0  0  0
   55.9384   25.6054   47.2696 H   0  0  0  0  0  0  0  0  0  0  0  0
   57.1778   27.3642   46.1228 H   0  0  0  0  0  0  0  0  0  0  0  0
   57.3069   33.8443   47.4690 H   0  0  0  0  0  0  0  0  0  0  0  0
   57.1775   34.8674   45.9982 H   0  0  0  0  0  0  0  0  0  0  0  0
   56.4980   33.2046   45.9982 H   0  0  0  0  0  0  0  0  0  0  0  0
   59.7242   35.1225   45.5465 H   0  0  0  0  0  0  0  0  0  0  0  0
   60.0054   33.8439   44.3165 H   0  0  0  0  0  0  0  0  0  0  0  0
   58.4643   34.7668   44.3165 H   0  0  0  0  0  0  0  0  0  0  0  0
   62.6035   33.8568   45.6298 H   0  0  0  0  0  0  0  0  0  0  0  0
   63.6417   34.7369   46.8027 H   0  0  0  0  0  0  0  0  0  0  0  0
   63.6220   31.9295   46.0573 H   0  0  0  0  0  0  0  0  0  0  0  0
   64.8280   32.8955   47.0181 H   0  0  0  0  0  0  0  0  0  0  0  0
   62.6220   31.2420   48.0130 H   0  0  0  0  0  0  0  0  0  0  0  0
  1  2  1  0
  2  3  1  0
  3  4  1  0
  4  5  1  0
  5  6  2  0
  5  7  1  0
  7  8  1  0
  8  9  2  0
  9 10  1  0
 10 11  2  0
 11 12  1  0
 12 13  2  0
 13 14  1  0
 14 15  2  0
 15 16  1  0
 16 17  1  0
 17 18  1  0
 18 19  2  0
 19 20  1  0
 20 21  2  0
 20 22  2  0
 20 23  1  0
 23 24  2  0
 24 25  1  0
 25 26  2  0
 26 27  1  0
 27 28  2  0
 15 29  1  0
 29 30  1  0
 29 31  1  0
  4 32  1  0
 32 33  1  0
 33 34  1  0
 34  2  1  0
 29  7  1  0
 13  8  1  0
 18 14  1  0
 28 23  1  0
  1 35  1  0
  1 36  1  0
  1 37  1  0
  2 38  1  1
  3 39  1  0
  3 40  1  0
  9 41  1  0
 10 42  1  0
 11 43  1  0
 12 44  1  0
 16 45  1  0
 17 46  1  0
 24 47  1  0
 25 48  1  0
 26 49  1  0
 27 50  1  0
 28 51  1  0
 30 52  1  0
 30 53  1  0
 30 54  1  0
 31 55  1  0
 31 56  1  0
 31 57  1  0
 32 58  1  0
 32 59  1  0
 33 60  1  0
 33 61  1  0
 34 62  1  0
M  END
>  <smiles>  (58) 
CC1CN(C(=O)N2c3ccccc3-c3c([nH][nH]c3=NS(=O)(=O)c3ccccc3)C2(C)C)CCN1

>  <score_type>  (58) 
oracle

>  <origin>  (58) 
adg

>  <m_score__min__energy>  (58) 
-10.59

>  <m_primary>  (58) 
energy

$$$$
58:0
     RDKit          3D

 51 54  0  0  0  0  0  0  0  0999 V2000
   59.3860   31.7980   47.4150 O   0  0  0  0  0  0  0  0  0  0  0  0
   59.2650   32.7620   46.6120 C   0  0  0  0  0  0  0  0  0  0  0  0
   58.6480   32.5410   45.3620 C   0  0  0  0  0  0  0  0  0  0  0  0
   58.1870   31.1910   44.9490 C   0  0  0  0  0  0  0  0  0  0  0  0
   59.0230   30.0710   45.1080 C   0  0  0  0  0  0  0  0  0  0  0  0
   58.5880   28.8030   44.7110 C   0  0  0  0  0  0  0  0  0  0  0  0
   57.3200   28.6420   44.1490 C   0  0  0  0  0  0  0  0  0  0  0  0
   56.4850   29.7490   43.9790 C   0  0  0  0  0  0  0  0  0  0  0  0
   56.9150   31.0190   44.3750 C   0  0  0  0  0  0  0  0  0  0  0  0
   58.4590   33.6280   44.5020 C   0  0  0  0  0  0  0  0  0  0  0  0
   58.8890   34.8940   44.8750 C   0  0  0  0  0  0  0  0  0  0  0  0
   59.5120   35.0740   46.1070 C   0  0  0  0  0  0  0  0  0  0  0  0
   59.7150   34.0210   46.9610 N   0  0  0  0  0  0  0  0  0  0  0  0
   60.3620   34.3100   48.2700 C   0  0  1  0  0  0  0  0  0  0  0  0
   59.4040   33.9660   49.4610 C   0  0  0  0  0  0  0  0  0  0  0  0
   59.5600   32.6090   50.0550 N   0  0  0  0  0  0  0  0  0  0  0  0
   60.1370   32.6250   51.4080 C   0  0  0  0  0  0  0  0  0  0  0  0
   58.9890   32.7580   52.3980 C   0  0  0  0  0  0  0  0  0  0  0  0
   57.7510   32.3270   51.6330 C   0  0  0  0  0  0  0  0  0  0  0  0
   58.2460   31.9680   50.2380 C   0  0  0  0  0  0  0  0  0  0  0  0
   61.8260   33.8510   48.3450 C   0  0  0  0  0  0  0  0  0  0  0  0
   62.5110   33.9580   49.5760 C   0  0  0  0  0  0  0  0  0  0  0  0
   63.8180   33.4830   49.7160 C   0  0  0  0  0  0  0  0  0  0  0  0
   64.4510   32.8510   48.6480 C   0  0  0  0  0  0  0  0  0  0  0  0
   63.7690   32.6740   47.4430 C   0  0  0  0  0  0  0  0  0  0  0  0
   62.4610   33.1470   47.2970 C   0  0  0  0  0  0  0  0  0  0  0  0
   60.0242   30.1934   45.5470 H   0  0  0  0  0  0  0  0  0  0  0  0
   59.2456   27.9309   44.8416 H   0  0  0  0  0  0  0  0  0  0  0  0
   56.9784   27.6431   43.8400 H   0  0  0  0  0  0  0  0  0  0  0  0
   55.4877   29.6212   43.5329 H   0  0  0  0  0  0  0  0  0  0  0  0
   56.2549   31.8880   44.2368 H   0  0  0  0  0  0  0  0  0  0  0  0
   57.9688   33.4793   43.5286 H   0  0  0  0  0  0  0  0  0  0  0  0
   58.7384   35.7502   44.2010 H   0  0  0  0  0  0  0  0  0  0  0  0
   59.8475   36.0796   46.4005 H   0  0  0  0  0  0  0  0  0  0  0  0
   60.5038   35.3955   48.3772 H   0  0  0  0  0  0  0  0  0  0  0  0
   59.5794   34.7040   50.2576 H   0  0  0  0  0  0  0  0  0  0  0  0
   58.3880   33.9898   49.0400 H   0  0  0  0  0  0  0  0  0  0  0  0
   60.1290   32.0000   49.4230 H   0  0  0  0  0  0  0  0  0  0  0  0
   60.6849   31.6892   51.5929 H   0  0  0  0  0  0  0  0  0  0  0  0
   60.8399   33.4640   51.5176 H   0  0  0  0  0  0  0  0  0  0  0  0
   59.1520   32.1043   53.2676 H   0  0  0  0  0  0  0  0  0  0  0  0
   58.8967   33.7836   52.7847 H   0  0  0  0  0  0  0  0  0  0  0  0
   57.2857   31.4537   52.1134 H   0  0  0  0  0  0  0  0  0  0  0  0
   56.9884   33.1193   51.6065 H   0  0  0  0  0  0  0  0  0  0  0  0
   58.3444   30.8765   50.1439 H   0  0  0  0  0  0  0  0  0  0  0  0
   57.5356   32.3161   49.4737 H   0  0  0  0  0  0  0  0  0  0  0  0
   62.0081   34.4221   50.4372 H   0  0  0  0  0  0  0  0  0  0  0  0
   64.3480   33.6085   50.6717 H   0  0  0  0  0  0  0  0  0  0  0  0
   65.4855   32.4924   48.7540 H   0  0  0  0  0  0  0  0  0  0  0  0
   64.2624   32.1603   46.6047 H   0  0  0  0  0  0  0  0  0  0  0  0
   61.9203   32.9690   46.3557 H   0  0  0  0  0  0  0  0  0  0  0  0
  1  2  2  0
  2  3  1  0
  3  4  1  0
  4  5  2  0
  5  6  1  0
  6  7  2  0
  7  8  1  0
  8  9  2  0
  3 10  2  0
 10 11  1  0
 11 12  2  0
 12 13  1  0
 13 14  1  0
 14 15  1  0
 15 16  1  0
 16 17  1  0
 17 18  1  0
 18 19  1  0
 19 20  1  0
 14 21  1  0
 21 22  2  0
 22 23  1  0
 23 24  2  0
 24 25  1  0
 25 26  2  0
 13  2  1  0
 20 16  1  0
 26 21  1  0
  9  4  1  0
  5 27  1  0
  6 28  1  0
  7 29  1  0
  8 30  1  0
  9 31  1  0
 10 32  1  0
 11 33  1  0
 12 34  1  0
 14 35  1  6
 15 36  1  0
 15 37  1  0
 16 38  1  0
 17 39  1  0
 17 40  1  0
 18 41  1  0
 18 42  1  0
 19 43  1  0
 19 44  1  0
 20 45  1  0
 20 46  1  0
 22 47  1  0
 23 48  1  0
 24 49  1  0
 25 50  1  0
 26 51  1  0
M  CHG  1  16   1
M  END
>  <UniqueID>  (59) 
53

>  <SMILES>  (59) 
O=c1c(-c2ccccc2)cccn1[C@@H](C[NH+]1CCCC1)c1ccccc1

>  <Energy>  (59) 
81.27084316793524

>  <Genealogy>  (59) 
O=c1c(-c2ccccc2)cccn1C(C[NH+]1CCCC1)c1ccccc1 (protonated)
O=c1c(-c2ccccc2)cccn1[C@@H](C[NH+]1CCCC1)c1ccccc1 (chirality)
O=c1c(-c2ccccc2)cccn1[C@@H](C[NH+]1CCCC1)c1ccccc1 (3D coordinates assigned)
O=c1c(-c2ccccc2)cccn1[C@@H](C[NH+]1CCCC1)c1ccccc1 (nonaromatic ring conformer: 81.27084316793524 kcal/mol)

>  <smiles>  (59) 
O=c1c(-c2ccccc2)cccn1C(CN1CCCC1)c1ccccc1

>  <score_type>  (59) 
oracle

>  <origin>  (59) 
adg

>  <m_score__min__energy>  (59) 
-7.1500000000000004

>  <m_primary>  (59) 
energy

$$$$
59:0
     RDKit          3D

 39 41  0  0  0  0  0  0  0  0999 V2000
   65.2860   32.3580   49.7420 C   0  0  0  0  0  0  0  0  0  0  0  0
   63.9700   32.4280   49.0250 C   0  0  0  0  0  0  0  0  0  0  0  0
   62.8890   31.6420   49.4520 C   0  0  0  0  0  0  0  0  0  0  0  0
   61.6530   31.7330   48.8070 C   0  0  0  0  0  0  0  0  0  0  0  0
   61.4720   32.6210   47.7310 C   0  0  0  0  0  0  0  0  0  0  0  0
   60.1580   32.7110   47.0470 C   0  0  0  0  0  0  0  0  0  0  0  0
   59.2430   33.7100   47.3930 C   0  0  0  0  0  0  0  0  0  0  0  0
   58.0150   33.7600   46.7500 C   0  0  0  0  0  0  0  0  0  0  0  0
   57.7180   32.8240   45.7640 C   0  0  0  0  0  0  0  0  0  0  0  0
   56.5930   32.8730   45.1930 O   0  0  0  0  0  0  0  0  0  0  0  0
   58.6450   31.8700   45.4260 N   0  0  0  0  0  0  0  0  0  0  0  0
   58.3610   30.8610   44.3890 C   0  0  0  0  0  0  0  0  0  0  0  0
   57.7410   29.6150   44.9960 C   0  0  0  0  0  0  0  0  0  0  0  0
   56.4160   29.2170   44.6930 C   0  0  0  0  0  0  0  0  0  0  0  0
   55.5400   29.9910   43.7540 C   0  0  0  0  0  0  0  0  0  0  0  0
   55.9160   28.0780   45.2450 N   0  0  0  0  0  0  0  0  0  0  0  0
   56.6520   27.3130   46.0870 C   0  0  0  0  0  0  0  0  0  0  0  0
   56.1570   26.2690   46.5830 O   0  0  0  0  0  0  0  0  0  0  0  0
   57.9220   27.6730   46.3940 N   0  0  0  0  0  0  0  0  0  0  0  0
   58.4820   28.7940   45.8720 C   0  0  0  0  0  0  0  0  0  0  0  0
   59.6680   29.0850   46.1820 O   0  0  0  0  0  0  0  0  0  0  0  0
   59.8200   31.8140   46.0730 N   0  0  0  0  0  0  0  0  0  0  0  0
   62.5540   33.4190   47.3180 C   0  0  0  0  0  0  0  0  0  0  0  0
   63.7910   33.3260   47.9640 C   0  0  0  0  0  0  0  0  0  0  0  0
   65.1127   32.3672   50.8282 H   0  0  0  0  0  0  0  0  0  0  0  0
   65.8074   31.4309   49.4617 H   0  0  0  0  0  0  0  0  0  0  0  0
   65.9028   33.2246   49.4617 H   0  0  0  0  0  0  0  0  0  0  0  0
   63.0152   30.9510   50.2985 H   0  0  0  0  0  0  0  0  0  0  0  0
   60.8146   31.1052   49.1432 H   0  0  0  0  0  0  0  0  0  0  0  0
   59.4946   34.4492   48.1677 H   0  0  0  0  0  0  0  0  0  0  0  0
   57.2809   34.5343   47.0177 H   0  0  0  0  0  0  0  0  0  0  0  0
   57.6634   31.2879   43.6535 H   0  0  0  0  0  0  0  0  0  0  0  0
   59.3081   30.5804   43.9050 H   0  0  0  0  0  0  0  0  0  0  0  0
   54.8391   30.6103   44.3329 H   0  0  0  0  0  0  0  0  0  0  0  0
   56.1638   30.6383   43.1201 H   0  0  0  0  0  0  0  0  0  0  0  0
   54.9744   29.2922   43.1201 H   0  0  0  0  0  0  0  0  0  0  0  0
   60.5110   31.0750   45.8130 H   0  0  0  0  0  0  0  0  0  0  0  0
   62.4265   34.1212   46.4810 H   0  0  0  0  0  0  0  0  0  0  0  0
   64.6278   33.9610   47.6376 H   0  0  0  0  0  0  0  0  0  0  0  0
  1  2  1  0
  2  3  2  0
  3  4  1  0
  4  5  2  0
  5  6  1  0
  6  7  1  0
  7  8  2  0
  8  9  1  0
  9 10  2  0
  9 11  1  0
 11 12  1  0
 12 13  1  0
 13 14  2  0
 14 15  1  0
 14 16  1  0
 16 17  1  0
 17 18  2  0
 17 19  1  0
 19 20  1  0
 20 21  2  0
 11 22  1  0
  5 23  1  0
 23 24  2  0
 24  2  1  0
 22  6  2  0
 20 13  1  0
  1 25  1  0
  1 26  1  0
  1 27  1  0
  3 28  1  0
  4 29  1  0
  7 30  1  0
  8 31  1  0
 12 32  1  0
 12 33  1  0
 15 34  1  0
 15 35  1  0
 15 36  1  0
 22 37  1  0
 23 38  1  0
 24 39  1  0
M  CHG  3  16  -1  19  -1  22   1
M  END
>  <UniqueID>  (60) 
54

>  <SMILES>  (60) 
Cc1ccc(-c2ccc(=O)n(Cc3c(C)[n-]c(=O)[n-]c3=O)[nH+]2)cc1

>  <Energy>  (60) 
50.39461819470312

>  <Genealogy>  (60) 
Cc1ccc(-c2ccc(=O)n(Cc3c(C)[n-]c(=O)[n-]c3=O)[nH+]2)cc1 (protonated)
Cc1ccc(-c2ccc(=O)n(Cc3c(C)[n-]c(=O)[n-]c3=O)[nH+]2)cc1 (3D coordinates assigned)
Cc1ccc(-c2ccc(=O)n(Cc3c(C)[n-]c(=O)[n-]c3=O)[nH+]2)cc1 (optimized conformer: 50.39461819470312 kcal/mol)

>  <smiles>  (60) 
Cc1ccc(-c2ccc(=O)n(Cc3c(C)[nH]c(=O)[nH]c3=O)n2)cc1

>  <score_type>  (60) 
oracle

>  <origin>  (60) 
adg

>  <m_score__min__energy>  (60) 
-10.85

>  <m_primary>  (60) 
energy

$$$$
60:0
     RDKit          3D

 71 75  0  0  0  0  0  0  0  0999 V2000
   56.9540   21.2800   43.2450 C   0  0  0  0  0  0  0  0  0  0  0  0
   57.2910   22.6110   43.8440 C   0  0  0  0  0  0  0  0  0  0  0  0
   56.8220   23.7960   43.2590 C   0  0  0  0  0  0  0  0  0  0  0  0
   57.1700   25.0360   43.8010 C   0  0  0  0  0  0  0  0  0  0  0  0
   58.0100   25.1160   44.9310 C   0  0  0  0  0  0  0  0  0  0  0  0
   58.3980   26.4040   45.4720 N   0  0  0  0  0  0  0  0  0  0  0  0
   58.0450   26.7450   46.8630 C   0  0  0  0  0  0  0  0  0  0  0  0
   58.2000   28.2420   47.1330 C   0  0  0  0  0  0  0  0  0  0  0  0
   59.5210   28.6890   46.6710 N   0  0  0  0  0  0  0  0  0  0  0  0
   60.3860   29.4400   47.5470 C   0  0  0  0  0  0  0  0  0  0  0  0
   60.2980   29.2940   48.7970 O   0  0  0  0  0  0  0  0  0  0  0  0
   61.4290   30.3870   47.0060 C   0  0  0  0  0  0  0  0  0  0  0  0
   60.8780   31.7400   46.7910 N   0  0  0  0  0  0  0  0  0  0  0  0
   59.5840   31.8460   46.3610 C   0  0  0  0  0  0  0  0  0  0  0  0
   58.9930   33.0940   46.1480 C   0  0  0  0  0  0  0  0  0  0  0  0
   57.5980   33.1780   45.5850 C   0  0  0  0  0  0  0  0  0  0  0  0
   57.4690   32.2610   44.4090 C   0  0  0  0  0  0  0  0  0  0  0  0
   57.7880   32.5420   43.0940 C   0  0  0  0  0  0  0  0  0  0  0  0
   57.4120   31.5060   42.3180 N   0  0  0  0  0  0  0  0  0  0  0  0
   56.8760   30.5890   43.1080 N   0  0  0  0  0  0  0  0  0  0  0  0
   56.2800   29.3510   42.6200 C   0  0  0  0  0  0  0  0  0  0  0  0
   56.8720   31.0190   44.3820 C   0  0  0  0  0  0  0  0  0  0  0  0
   59.7700   34.2360   46.3710 C   0  0  0  0  0  0  0  0  0  0  0  0
   59.2910   35.3860   46.1850 O   0  0  0  0  0  0  0  0  0  0  0  0
   61.0590   34.1060   46.7730 N   0  0  0  0  0  0  0  0  0  0  0  0
   61.6320   32.8830   46.9480 C   0  0  0  0  0  0  0  0  0  0  0  0
   63.4040   32.8240   47.2980 S   0  0  0  0  0  0  0  0  0  0  0  0
   63.2510   33.4500   49.0110 C   0  0  0  0  0  0  0  0  0  0  0  0
   61.9080   33.1240   49.6110 C   0  0  0  0  0  0  0  0  0  0  0  0
   60.9170   34.1160   49.7190 C   0  0  0  0  0  0  0  0  0  0  0  0
   59.6910   33.8270   50.3230 C   0  0  0  0  0  0  0  0  0  0  0  0
   59.4380   32.5430   50.8120 C   0  0  0  0  0  0  0  0  0  0  0  0
   58.2460   32.2620   51.3940 F   0  0  0  0  0  0  0  0  0  0  0  0
   60.4170   31.5480   50.7040 C   0  0  0  0  0  0  0  0  0  0  0  0
   61.6490   31.8370   50.1080 C   0  0  0  0  0  0  0  0  0  0  0  0
   59.9730   28.3180   45.3210 C   0  0  0  0  0  0  0  0  0  0  0  0
   58.9510   27.4420   44.5840 C   0  0  0  0  0  0  0  0  0  0  0  0
   58.4970   23.9200   45.4940 C   0  0  0  0  0  0  0  0  0  0  0  0
   58.1350   22.6810   44.9600 C   0  0  0  0  0  0  0  0  0  0  0  0
   56.7697   20.5522   44.0489 H   0  0  0  0  0  0  0  0  0  0  0  0
   56.0517   21.3757   42.6231 H   0  0  0  0  0  0  0  0  0  0  0  0
   57.7931   20.9348   42.6231 H   0  0  0  0  0  0  0  0  0  0  0  0
   56.1770   23.7492   42.3691 H   0  0  0  0  0  0  0  0  0  0  0  0
   56.7851   25.9586   43.3419 H   0  0  0  0  0  0  0  0  0  0  0  0
   56.9999   26.4555   47.0471 H   0  0  0  0  0  0  0  0  0  0  0  0
   58.7273   26.2023   47.5337 H   0  0  0  0  0  0  0  0  0  0  0  0
   57.4166   28.7948   46.5938 H   0  0  0  0  0  0  0  0  0  0  0  0
   58.1058   28.4315   48.2125 H   0  0  0  0  0  0  0  0  0  0  0  0
   62.2600   30.4503   47.7240 H   0  0  0  0  0  0  0  0  0  0  0  0
   61.7749   29.9992   46.0365 H   0  0  0  0  0  0  0  0  0  0  0  0
   58.9983   30.9327   46.1797 H   0  0  0  0  0  0  0  0  0  0  0  0
   56.8737   32.8835   46.3587 H   0  0  0  0  0  0  0  0  0  0  0  0
   57.3980   34.2108   45.2635 H   0  0  0  0  0  0  0  0  0  0  0  0
   58.2714   33.4636   42.7377 H   0  0  0  0  0  0  0  0  0  0  0  0
   55.9796   28.7269   43.4746 H   0  0  0  0  0  0  0  0  0  0  0  0
   55.3962   29.5856   42.0086 H   0  0  0  0  0  0  0  0  0  0  0  0
   57.0147   28.8065   42.0086 H   0  0  0  0  0  0  0  0  0  0  0  0
   56.4650   30.4765   45.2480 H   0  0  0  0  0  0  0  0  0  0  0  0
   61.6380   34.9660   46.9090 H   0  0  0  0  0  0  0  0  0  0  0  0
   64.0371   32.9913   49.6287 H   0  0  0  0  0  0  0  0  0  0  0  0
   63.3555   34.5447   48.9843 H   0  0  0  0  0  0  0  0  0  0  0  0
   61.1084   35.1253   49.3256 H   0  0  0  0  0  0  0  0  0  0  0  0
   58.9245   34.6107   50.4136 H   0  0  0  0  0  0  0  0  0  0  0  0
   60.2170   30.5370   51.0886 H   0  0  0  0  0  0  0  0  0  0  0  0
   62.4170   31.0535   50.0285 H   0  0  0  0  0  0  0  0  0  0  0  0
   60.1370   29.2364   44.7382 H   0  0  0  0  0  0  0  0  0  0  0  0
   60.9010   27.7367   45.4251 H   0  0  0  0  0  0  0  0  0  0  0  0
   58.1300   28.0775   44.2206 H   0  0  0  0  0  0  0  0  0  0  0  0
   59.4596   26.9461   43.7441 H   0  0  0  0  0  0  0  0  0  0  0  0
   59.1695   23.9622   46.3634 H   0  0  0  0  0  0  0  0  0  0  0  0
   58.5145   21.7557   45.4180 H   0  0  0  0  0  0  0  0  0  0  0  0
  1  2  1  0
  2  3  2  0
  3  4  1  0
  4  5  2  0
  5  6  1  0
  6  7  1  0
  7  8  1  0
  8  9  1  0
  9 10  1  0
 10 11  2  0
 10 12  1  0
 12 13  1  0
 13 14  1  0
 14 15  2  0
 15 16  1  0
 16 17  1  0
 17 18  1  0
 18 19  2  0
 19 20  1  0
 20 21  1  0
 20 22  1  0
 15 23  1  0
 23 24  2  0
 23 25  1  0
 25 26  2  0
 26 27  1  0
 27 28  1  0
 28 29  1  0
 29 30  2  0
 30 31  1  0
 31 32  2  0
 32 33  1  0
 32 34  1  0
 34 35  2  0
  9 36  1  0
 36 37  1  0
  5 38  1  0
 38 39  2  0
 39  2  1  0
 37  6  1  0
 26 13  1  0
 35 29  1  0
 22 17  2  0
  1 40  1  0
  1 41  1  0
  1 42  1  0
  3 43  1  0
  4 44  1  0
  7 45  1  0
  7 46  1  0
  8 47  1  0
  8 48  1  0
 12 49  1  0
 12 50  1  0
 14 51  1  0
 16 52  1  0
 16 53  1  0
 18 54  1  0
 21 55  1  0
 21 56  1  0
 21 57  1  0
 22 58  1  0
 25 59  1  0
 28 60  1  0
 28 61  1  0
 30 62  1  0
 31 63  1  0
 34 64  1  0
 35 65  1  0
 36 66  1  0
 36 67  1  0
 37 68  1  0
 37 69  1  0
 38 70  1  0
 39 71  1  0
M  CHG  1  25   1
M  END
>  <UniqueID>  (61) 
55

>  <SMILES>  (61) 
Cc1ccc(N2CCN(C(=O)Cn3cc(Cc4cnn(C)c4)c(=O)[nH+]c3SCc3ccc(F)cc3)CC2)cc1

>  <Energy>  (61) 
103.65904854519805

>  <Genealogy>  (61) 
Cc1ccc(N2CCN(C(=O)Cn3cc(Cc4cnn(C)c4)c(=O)[nH+]c3SCc3ccc(F)cc3)CC2)cc1 (protonated)
Cc1ccc(N2CCN(C(=O)Cn3cc(Cc4cnn(C)c4)c(=O)[nH+]c3SCc3ccc(F)cc3)CC2)cc1 (3D coordinates assigned)
Cc1ccc(N2CCN(C(=O)Cn3cc(Cc4cnn(C)c4)c(=O)[nH+]c3SCc3ccc(F)cc3)CC2)cc1 (nonaromatic ring conformer: 103.65904854519805 kcal/mol)

>  <smiles>  (61) 
Cc1ccc(N2CCN(C(=O)Cn3cc(Cc4cnn(C)c4)c(=O)nc3SCc3ccc(F)cc3)CC2)cc1

>  <score_type>  (61) 
oracle

>  <origin>  (61) 
adg

>  <m_score__min__energy>  (61) 
-8.2100000000000009

>  <m_primary>  (61) 
energy

$$$$
61:0
     RDKit          3D

 60 64  0  0  0  0  0  0  0  0999 V2000
   59.9740   29.9880   44.8990 F   0  0  0  0  0  0  0  0  0  0  0  0
   60.1800   29.8500   46.2340 C   0  0  0  0  0  0  0  0  0  0  0  0
   60.9840   30.7850   46.8920 C   0  0  0  0  0  0  0  0  0  0  0  0
   61.2510   30.6550   48.2630 C   0  0  0  0  0  0  0  0  0  0  0  0
   62.1010   31.6700   48.9800 C   0  0  0  0  0  0  0  0  0  0  0  0
   61.3050   32.3950   49.9700 N   0  0  0  0  0  0  0  0  0  0  0  0
   61.0030   31.9700   51.2140 C   0  0  0  0  0  0  0  0  0  0  0  0
   60.2040   32.8400   51.8620 N   0  0  0  0  0  0  0  0  0  0  0  0
   59.9840   33.8490   51.0000 C   0  0  0  0  0  0  0  0  0  0  0  0
   60.6580   33.5750   49.8280 C   0  0  0  0  0  0  0  0  0  0  0  0
   60.6820   34.4500   48.6060 C   0  0  0  0  0  0  0  0  0  0  0  0
   59.9300   33.8240   47.5010 N   0  0  0  0  0  0  0  0  0  0  0  0
   59.6670   34.7840   46.4150 C   0  0  0  0  0  0  0  0  0  0  0  0
   59.2160   34.0010   45.1840 C   0  0  0  0  0  0  0  0  0  0  0  0
   58.2490   32.9550   45.5490 N   0  0  0  0  0  0  0  0  0  0  0  0
   57.7190   32.0990   44.5170 C   0  0  0  0  0  0  0  0  0  0  0  0
   57.8610   32.4430   43.1600 C   0  0  0  0  0  0  0  0  0  0  0  0
   57.3460   31.6100   42.1620 C   0  0  0  0  0  0  0  0  0  0  0  0
   56.6860   30.4280   42.5070 C   0  0  0  0  0  0  0  0  0  0  0  0
   56.5380   30.0790   43.8510 C   0  0  0  0  0  0  0  0  0  0  0  0
   57.0520   30.9070   44.8520 C   0  0  0  0  0  0  0  0  0  0  0  0
   57.6350   32.9560   46.8850 C   0  0  0  0  0  0  0  0  0  0  0  0
   58.6680   33.2340   48.0020 C   0  0  0  0  0  0  0  0  0  0  0  0
   60.7110   29.5700   48.9680 C   0  0  0  0  0  0  0  0  0  0  0  0
   59.9080   28.6320   48.3130 C   0  0  0  0  0  0  0  0  0  0  0  0
   59.6290   28.7640   46.9410 C   0  0  0  0  0  0  0  0  0  0  0  0
   58.7710   27.7630   46.2610 C   0  0  0  0  0  0  0  0  0  0  0  0
   57.8130   27.0340   46.9890 C   0  0  0  0  0  0  0  0  0  0  0  0
   57.0010   26.0940   46.3470 C   0  0  0  0  0  0  0  0  0  0  0  0
   57.1340   25.8750   44.9740 C   0  0  0  0  0  0  0  0  0  0  0  0
   58.0770   26.5970   44.2400 C   0  0  0  0  0  0  0  0  0  0  0  0
   58.8910   27.5390   44.8770 C   0  0  0  0  0  0  0  0  0  0  0  0
   61.4106   31.6292   46.3305 H   0  0  0  0  0  0  0  0  0  0  0  0
   62.9294   31.1547   49.4882 H   0  0  0  0  0  0  0  0  0  0  0  0
   62.4954   32.3874   48.2453 H   0  0  0  0  0  0  0  0  0  0  0  0
   61.3656   31.0263   51.6475 H   0  0  0  0  0  0  0  0  0  0  0  0
   59.8280   32.7450   52.8310 H   0  0  0  0  0  0  0  0  0  0  0  0
   59.3709   34.7409   51.1963 H   0  0  0  0  0  0  0  0  0  0  0  0
   60.2260   35.4212   48.8484 H   0  0  0  0  0  0  0  0  0  0  0  0
   61.7266   34.5870   48.2897 H   0  0  0  0  0  0  0  0  0  0  0  0
   58.8761   35.4846   46.7209 H   0  0  0  0  0  0  0  0  0  0  0  0
   60.5771   35.3584   46.1873 H   0  0  0  0  0  0  0  0  0  0  0  0
   58.7449   34.6930   44.4704 H   0  0  0  0  0  0  0  0  0  0  0  0
   60.0967   33.5213   44.7321 H   0  0  0  0  0  0  0  0  0  0  0  0
   58.3800   33.3724   42.8828 H   0  0  0  0  0  0  0  0  0  0  0  0
   57.4607   31.8859   41.1033 H   0  0  0  0  0  0  0  0  0  0  0  0
   56.2832   29.7728   41.7206 H   0  0  0  0  0  0  0  0  0  0  0  0
   56.0154   29.1498   44.1222 H   0  0  0  0  0  0  0  0  0  0  0  0
   56.9343   30.6249   45.9087 H   0  0  0  0  0  0  0  0  0  0  0  0
   56.8593   33.7352   46.9179 H   0  0  0  0  0  0  0  0  0  0  0  0
   57.2073   31.9580   47.0611 H   0  0  0  0  0  0  0  0  0  0  0  0
   58.2202   33.9310   48.7257 H   0  0  0  0  0  0  0  0  0  0  0  0
   58.9207   32.2660   48.4593 H   0  0  0  0  0  0  0  0  0  0  0  0
   60.9203   29.4564   50.0419 H   0  0  0  0  0  0  0  0  0  0  0  0
   59.4909   27.7836   48.8753 H   0  0  0  0  0  0  0  0  0  0  0  0
   57.7020   27.2046   48.0700 H   0  0  0  0  0  0  0  0  0  0  0  0
   56.2564   25.5262   46.9241 H   0  0  0  0  0  0  0  0  0  0  0  0
   56.4958   25.1337   44.4709 H   0  0  0  0  0  0  0  0  0  0  0  0
   58.1799   26.4245   43.1585 H   0  0  0  0  0  0  0  0  0  0  0  0
   59.6292   28.1080   44.2929 H   0  0  0  0  0  0  0  0  0  0  0  0
  1  2  1  0
  2  3  2  0
  3  4  1  0
  4  5  1  0
  5  6  1  0
  6  7  1  0
  7  8  2  0
  8  9  1  0
  9 10  2  0
 10 11  1  0
 11 12  1  0
 12 13  1  0
 13 14  1  0
 14 15  1  0
 15 16  1  0
 16 17  2  0
 17 18  1  0
 18 19  2  0
 19 20  1  0
 20 21  2  0
 15 22  1  0
 22 23  1  0
  4 24  2  0
 24 25  1  0
 25 26  2  0
 26 27  1  0
 27 28  2  0
 28 29  1  0
 29 30  2  0
 30 31  1  0
 31 32  2  0
 26  2  1  0
 32 27  1  0
 10  6  1  0
 23 12  1  0
 21 16  1  0
  3 33  1  0
  5 34  1  0
  5 35  1  0
  7 36  1  0
  8 37  1  0
  9 38  1  0
 11 39  1  0
 11 40  1  0
 13 41  1  0
 13 42  1  0
 14 43  1  0
 14 44  1  0
 17 45  1  0
 18 46  1  0
 19 47  1  0
 20 48  1  0
 21 49  1  0
 22 50  1  0
 22 51  1  0
 23 52  1  0
 23 53  1  0
 24 54  1  0
 25 55  1  0
 28 56  1  0
 29 57  1  0
 30 58  1  0
 31 59  1  0
 32 60  1  0
M  CHG  1   8   1
M  END
>  <UniqueID>  (62) 
56

>  <SMILES>  (62) 
Fc1cc(Cn2c[nH+]cc2CN2CCN(c3ccccc3)CC2)ccc1-c1ccccc1

>  <Energy>  (62) 
108.47488043712109

>  <Genealogy>  (62) 
Fc1cc(Cn2c[nH+]cc2CN2CCN(c3ccccc3)CC2)ccc1-c1ccccc1 (protonated)
Fc1cc(Cn2c[nH+]cc2CN2CCN(c3ccccc3)CC2)ccc1-c1ccccc1 (3D coordinates assigned)
Fc1cc(Cn2c[nH+]cc2CN2CCN(c3ccccc3)CC2)ccc1-c1ccccc1 (nonaromatic ring conformer: 108.47488043712109 kcal/mol)

>  <smiles>  (62) 
Fc1cc(Cn2cncc2CN2CCN(c3ccccc3)CC2)ccc1-c1ccccc1

>  <score_type>  (62) 
oracle

>  <origin>  (62) 
adg

>  <m_score__min__energy>  (62) 
-8.1099999999999994

>  <m_primary>  (62) 
energy

$$$$
62:0
     RDKit          3D

 24 24  0  0  0  0  0  0  0  0999 V2000
   58.2070   33.6920   46.2910 C   0  0  0  0  0  0  0  0  0  0  0  0
   58.1680   34.2030   44.8550 C   0  0  0  0  0  0  0  0  0  0  0  0
   58.6510   33.2090   43.9530 O   0  0  0  0  0  0  0  0  0  0  0  0
   57.8410   32.2120   43.3970 C   0  0  0  0  0  0  0  0  0  0  0  0
   57.5070   32.2580   42.1810 O   0  0  0  0  0  0  0  0  0  0  0  0
   57.3820   31.1010   44.2360 C   0  0  0  0  0  0  0  0  0  0  0  0
   56.2290   31.1420   44.7420 O   0  0  0  0  0  0  0  0  0  0  0  0
   58.2660   30.0070   44.5120 N   0  0  0  0  0  0  0  0  0  0  0  0
   57.9160   28.7580   45.1270 C   0  0  0  0  0  0  0  0  0  0  0  0
   58.9440   27.9030   45.5430 C   0  0  0  0  0  0  0  0  0  0  0  0
   58.6460   26.6690   46.1290 C   0  0  0  0  0  0  0  0  0  0  0  0
   57.3160   26.2740   46.2890 C   0  0  0  0  0  0  0  0  0  0  0  0
   56.2830   27.1070   45.8540 C   0  0  0  0  0  0  0  0  0  0  0  0
   54.9600   26.7040   45.9950 O   0  0  0  0  0  0  0  0  0  0  0  0
   56.5780   28.3430   45.2690 C   0  0  0  0  0  0  0  0  0  0  0  0
   58.1420   34.5430   46.9849 H   0  0  0  0  0  0  0  0  0  0  0  0
   57.3580   33.0138   46.4620 H   0  0  0  0  0  0  0  0  0  0  0  0
   59.1491   33.1505   46.4620 H   0  0  0  0  0  0  0  0  0  0  0  0
   57.1311   34.4576   44.5903 H   0  0  0  0  0  0  0  0  0  0  0  0
   58.8107   35.0924   44.7785 H   0  0  0  0  0  0  0  0  0  0  0  0
   59.9933   28.2043   45.4078 H   0  0  0  0  0  0  0  0  0  0  0  0
   59.4596   26.0089   46.4642 H   0  0  0  0  0  0  0  0  0  0  0  0
   57.0821   25.3067   46.7577 H   0  0  0  0  0  0  0  0  0  0  0  0
   55.7623   28.9926   44.9189 H   0  0  0  0  0  0  0  0  0  0  0  0
  1  2  1  0
  2  3  1  0
  3  4  1  0
  4  5  2  0
  4  6  1  0
  6  7  2  0
  6  8  1  0
  8  9  1  0
  9 10  2  0
 10 11  1  0
 11 12  2  0
 12 13  1  0
 13 14  1  0
 13 15  2  0
 15  9  1  0
  1 16  1  0
  1 17  1  0
  1 18  1  0
  2 19  1  0
  2 20  1  0
 10 21  1  0
 11 22  1  0
 12 23  1  0
 15 24  1  0
M  CHG  2   8  -1  14  -1
M  END
>  <UniqueID>  (63) 
57

>  <SMILES>  (63) 
CCOC(=O)C(=O)[N-]c1cccc([O-])c1

>  <Energy>  (63) 
20.387968287186418

>  <Genealogy>  (63) 
CCOC(=O)C(=O)[N-]c1cccc([O-])c1 (protonated)
CCOC(=O)C(=O)[N-]c1cccc([O-])c1 (3D coordinates assigned)
CCOC(=O)C(=O)[N-]c1cccc([O-])c1 (optimized conformer: 20.387968287186418 kcal/mol)

>  <smiles>  (63) 
CCOC(=O)C(=O)Nc1cccc(O)c1

>  <score_type>  (63) 
oracle

>  <origin>  (63) 
adg

>  <m_score__min__energy>  (63) 
-9.8699999999999992

>  <m_primary>  (63) 
energy

$$$$
63:0
     RDKit          3D

 20 20  0  0  0  0  0  0  0  0999 V2000
   56.7390   28.9710   44.4660 C   0  0  0  0  0  0  0  0  0  0  0  0
   56.0050   30.2320   44.4980 N   0  0  0  0  0  0  0  0  0  0  0  0
   56.7400   31.1350   45.2410 O   0  0  0  0  0  0  0  0  0  0  0  0
   57.4300   32.1890   44.6360 C   0  0  0  0  0  0  0  0  0  0  0  0
   57.4010   32.3170   43.3810 O   0  0  0  0  0  0  0  0  0  0  0  0
   58.1930   33.1470   45.4650 C   0  0  0  0  0  0  0  0  0  0  0  0
   58.9200   34.1950   44.8690 C   0  0  0  0  0  0  0  0  0  0  0  0
   59.6390   35.0960   45.6610 C   0  0  0  0  0  0  0  0  0  0  0  0
   59.6400   34.9620   47.0510 C   0  0  0  0  0  0  0  0  0  0  0  0
   58.9220   33.9270   47.6530 C   0  0  0  0  0  0  0  0  0  0  0  0
   58.2010   33.0220   46.8670 C   0  0  0  0  0  0  0  0  0  0  0  0
   56.9348   28.6345   45.4948 H   0  0  0  0  0  0  0  0  0  0  0  0
   56.1415   28.2122   43.9395 H   0  0  0  0  0  0  0  0  0  0  0  0
   57.6939   29.1158   43.9395 H   0  0  0  0  0  0  0  0  0  0  0  0
   55.9840   30.6010   43.5190 H   0  0  0  0  0  0  0  0  0  0  0  0
   58.9225   34.3058   43.7746 H   0  0  0  0  0  0  0  0  0  0  0  0
   60.2050   35.9120   45.1879 H   0  0  0  0  0  0  0  0  0  0  0  0
   60.2065   35.6719   47.6716 H   0  0  0  0  0  0  0  0  0  0  0  0
   58.9233   33.8229   48.7481 H   0  0  0  0  0  0  0  0  0  0  0  0
   57.6374   32.2084   47.3470 H   0  0  0  0  0  0  0  0  0  0  0  0
  1  2  1  0
  2  3  1  0
  3  4  1  0
  4  5  2  0
  4  6  1  0
  6  7  2  0
  7  8  1  0
  8  9  2  0
  9 10  1  0
 10 11  2  0
 11  6  1  0
  1 12  1  0
  1 13  1  0
  1 14  1  0
  2 15  1  0
  7 16  1  0
  8 17  1  0
  9 18  1  0
 10 19  1  0
 11 20  1  0
M  END
>  <UniqueID>  (64) 
58

>  <SMILES>  (64) 
CNOC(=O)c1ccccc1

>  <Energy>  (64) 
15.880788005802108

>  <Genealogy>  (64) 
CNOC(=O)c1ccccc1 (3D coordinates assigned)
CNOC(=O)c1ccccc1 (optimized conformer: 15.880788005802108 kcal/mol)

>  <smiles>  (64) 
CNOC(=O)c1ccccc1

>  <score_type>  (64) 
oracle

>  <origin>  (64) 
adg

>  <m_score__min__energy>  (64) 
-5.5800000000000001

>  <m_primary>  (64) 
energy

$$$$
64:0
     RDKit          3D

 47 50  0  0  0  0  0  0  0  0999 V2000
   56.9700   28.0460   45.3080 C   0  0  0  0  0  0  0  0  0  0  0  0
   57.1620   29.2860   44.4770 C   0  0  0  0  0  0  0  0  0  0  0  0
   56.5110   29.3750   43.2330 C   0  0  0  0  0  0  0  0  0  0  0  0
   56.6450   30.5160   42.4430 C   0  0  0  0  0  0  0  0  0  0  0  0
   57.4050   31.5910   42.8940 C   0  0  0  0  0  0  0  0  0  0  0  0
   58.0510   31.5250   44.1300 C   0  0  0  0  0  0  0  0  0  0  0  0
   57.9610   30.3680   44.9310 C   0  0  0  0  0  0  0  0  0  0  0  0
   58.6430   30.2840   46.2020 N   0  0  0  0  0  0  0  0  0  0  0  0
   59.7550   29.4140   46.4730 C   0  0  0  0  0  0  0  0  0  0  0  0
   60.6540   29.2340   45.6110 O   0  0  0  0  0  0  0  0  0  0  0  0
   59.9050   28.8080   47.8440 C   0  0  0  0  0  0  0  0  0  0  0  0
   58.8670   29.3270   48.8570 C   0  0  0  0  0  0  0  0  0  0  0  0
   59.2750   30.6340   49.5630 C   0  0  0  0  0  0  0  0  0  0  0  0
   60.0730   31.5250   48.6940 N   0  0  0  0  0  0  0  0  0  0  0  0
   61.4470   31.4240   48.6980 C   0  0  0  0  0  0  0  0  0  0  0  0
   62.0350   30.5670   49.4140 O   0  0  0  0  0  0  0  0  0  0  0  0
   62.1930   32.2880   47.8980 C   0  0  0  0  0  0  0  0  0  0  0  0
   63.5660   32.3780   47.7760 C   0  0  0  0  0  0  0  0  0  0  0  0
   63.7950   33.3910   46.8590 C   0  0  0  0  0  0  0  0  0  0  0  0
   62.5570   33.8700   46.4610 C   0  0  0  0  0  0  0  0  0  0  0  0
   61.5880   33.1870   47.1070 N   0  0  0  0  0  0  0  0  0  0  0  0
   60.2340   33.3000   47.0440 C   0  0  0  0  0  0  0  0  0  0  0  0
   59.5870   34.2180   46.1990 C   0  0  0  0  0  0  0  0  0  0  0  0
   58.1950   34.2760   46.1780 C   0  0  0  0  0  0  0  0  0  0  0  0
   57.4580   33.4270   47.0050 C   0  0  0  0  0  0  0  0  0  0  0  0
   58.0950   32.5470   47.8210 N   0  0  0  0  0  0  0  0  0  0  0  0
   59.4540   32.4480   47.8680 C   0  0  0  0  0  0  0  0  0  0  0  0
   57.0108   28.3098   46.3751 H   0  0  0  0  0  0  0  0  0  0  0  0
   55.9918   27.5984   45.0781 H   0  0  0  0  0  0  0  0  0  0  0  0
   57.7670   27.3235   45.0781 H   0  0  0  0  0  0  0  0  0  0  0  0
   55.8911   28.5374   42.8807 H   0  0  0  0  0  0  0  0  0  0  0  0
   56.1495   30.5665   41.4622 H   0  0  0  0  0  0  0  0  0  0  0  0
   57.4971   32.4955   42.2748 H   0  0  0  0  0  0  0  0  0  0  0  0
   58.6373   32.3861   44.4832 H   0  0  0  0  0  0  0  0  0  0  0  0
   58.1920   30.7180   47.0370 H   0  0  0  0  0  0  0  0  0  0  0  0
   59.7932   27.7171   47.7576 H   0  0  0  0  0  0  0  0  0  0  0  0
   60.8983   29.0947   48.2198 H   0  0  0  0  0  0  0  0  0  0  0  0
   57.9217   29.5036   48.3230 H   0  0  0  0  0  0  0  0  0  0  0  0
   58.7764   28.5591   49.6394 H   0  0  0  0  0  0  0  0  0  0  0  0
   58.3636   31.1669   49.8717 H   0  0  0  0  0  0  0  0  0  0  0  0
   59.9000   30.3645   50.4271 H   0  0  0  0  0  0  0  0  0  0  0  0
   64.3206   31.7715   48.2983 H   0  0  0  0  0  0  0  0  0  0  0  0
   64.7758   33.7482   46.5119 H   0  0  0  0  0  0  0  0  0  0  0  0
   62.3903   34.6785   45.7340 H   0  0  0  0  0  0  0  0  0  0  0  0
   60.1773   34.8881   45.5567 H   0  0  0  0  0  0  0  0  0  0  0  0
   57.6804   34.9862   45.5141 H   0  0  0  0  0  0  0  0  0  0  0  0
   56.3589   33.4704   46.9961 H   0  0  0  0  0  0  0  0  0  0  0  0
  1  2  1  0
  2  3  2  0
  3  4  1  0
  4  5  2  0
  5  6  1  0
  6  7  2  0
  7  8  1  0
  8  9  1  0
  9 10  2  0
  9 11  1  0
 11 12  1  0
 12 13  1  0
 13 14  1  0
 14 15  1  0
 15 16  2  0
 15 17  1  0
 17 18  2  0
 18 19  1  0
 19 20  2  0
 20 21  1  0
 21 22  1  0
 22 23  2  0
 23 24  1  0
 24 25  2  0
 25 26  1  0
 26 27  2  0
  7  2  1  0
 27 14  1  0
 21 17  1  0
 27 22  1  0
  1 28  1  0
  1 29  1  0
  1 30  1  0
  3 31  1  0
  4 32  1  0
  5 33  1  0
  6 34  1  0
  8 35  1  0
 11 36  1  0
 11 37  1  0
 12 38  1  0
 12 39  1  0
 13 40  1  0
 13 41  1  0
 18 42  1  0
 19 43  1  0
 20 44  1  0
 23 45  1  0
 24 46  1  0
 25 47  1  0
M  END
>  <UniqueID>  (65) 
59

>  <SMILES>  (65) 
Cc1ccccc1NC(=O)CCCn1c(=O)c2cccn2c2cccnc21

>  <Energy>  (65) 
88.7459110675512

>  <Genealogy>  (65) 
Cc1ccccc1NC(=O)CCCn1c(=O)c2cccn2c2cccnc21 (3D coordinates assigned)
Cc1ccccc1NC(=O)CCCn1c(=O)c2cccn2c2cccnc21 (optimized conformer: 88.7459110675512 kcal/mol)

>  <smiles>  (65) 
Cc1ccccc1NC(=O)CCCn1c(=O)c2cccn2c2cccnc21

>  <score_type>  (65) 
oracle

>  <origin>  (65) 
adg

>  <m_score__min__energy>  (65) 
-7.96

>  <m_primary>  (65) 
energy

$$$$
65:0
     RDKit          3D

 33 35  0  0  0  0  0  0  0  0999 V2000
   65.7660   32.3720   50.1030 C   0  0  0  0  0  0  0  0  0  0  0  0
   64.8560   33.4640   50.0280 O   0  0  0  0  0  0  0  0  0  0  0  0
   63.7540   33.5200   49.1610 C   0  0  0  0  0  0  0  0  0  0  0  0
   63.8170   33.0690   47.8300 C   0  0  0  0  0  0  0  0  0  0  0  0
   62.6910   33.1440   47.0050 C   0  0  0  0  0  0  0  0  0  0  0  0
   61.4820   33.6700   47.4920 C   0  0  0  0  0  0  0  0  0  0  0  0
   60.2880   33.7490   46.6140 C   0  0  0  0  0  0  0  0  0  0  0  0
   59.5900   34.9350   46.3760 C   0  0  0  0  0  0  0  0  0  0  0  0
   58.3170   34.5860   45.3370 S   0  0  0  0  0  0  0  0  0  0  0  0
   58.6860   32.9470   45.2190 C   0  0  0  0  0  0  0  0  0  0  0  0
   57.9250   31.9560   44.4190 C   0  0  0  0  0  0  0  0  0  0  0  0
   57.7300   32.1550   43.0390 C   0  0  0  0  0  0  0  0  0  0  0  0
   57.0150   31.2230   42.2810 C   0  0  0  0  0  0  0  0  0  0  0  0
   56.4910   30.0800   42.8880 C   0  0  0  0  0  0  0  0  0  0  0  0
   56.6830   29.8660   44.2540 C   0  0  0  0  0  0  0  0  0  0  0  0
   57.3970   30.7960   45.0180 C   0  0  0  0  0  0  0  0  0  0  0  0
   59.7770   32.6590   45.9700 N   0  0  0  0  0  0  0  0  0  0  0  0
   61.4260   34.1220   48.8230 C   0  0  0  0  0  0  0  0  0  0  0  0
   62.5520   34.0440   49.6470 C   0  0  0  0  0  0  0  0  0  0  0  0
   65.9654   32.1327   51.1580 H   0  0  0  0  0  0  0  0  0  0  0  0
   65.3279   31.4947   49.6045 H   0  0  0  0  0  0  0  0  0  0  0  0
   66.7079   32.6447   49.6045 H   0  0  0  0  0  0  0  0  0  0  0  0
   64.7571   32.6552   47.4364 H   0  0  0  0  0  0  0  0  0  0  0  0
   62.7517   32.7883   45.9659 H   0  0  0  0  0  0  0  0  0  0  0  0
   59.8312   35.9231   46.7949 H   0  0  0  0  0  0  0  0  0  0  0  0
   58.1436   33.0511   42.5532 H   0  0  0  0  0  0  0  0  0  0  0  0
   56.8649   31.3905   41.2042 H   0  0  0  0  0  0  0  0  0  0  0  0
   55.9273   29.3487   42.2902 H   0  0  0  0  0  0  0  0  0  0  0  0
   56.2720   28.9641   44.7311 H   0  0  0  0  0  0  0  0  0  0  0  0
   57.5468   30.6198   46.0934 H   0  0  0  0  0  0  0  0  0  0  0  0
   60.1590   31.6960   46.0880 H   0  0  0  0  0  0  0  0  0  0  0  0
   60.4885   34.5401   49.2183 H   0  0  0  0  0  0  0  0  0  0  0  0
   62.4923   34.3978   50.6868 H   0  0  0  0  0  0  0  0  0  0  0  0
  1  2  1  0
  2  3  1  0
  3  4  2  0
  4  5  1  0
  5  6  2  0
  6  7  1  0
  7  8  2  0
  8  9  1  0
  9 10  1  0
 10 11  1  0
 11 12  2  0
 12 13  1  0
 13 14  2  0
 14 15  1  0
 15 16  2  0
 10 17  2  0
  6 18  1  0
 18 19  2  0
 19  3  1  0
 17  7  1  0
 16 11  1  0
  1 20  1  0
  1 21  1  0
  1 22  1  0
  4 23  1  0
  5 24  1  0
  8 25  1  0
 12 26  1  0
 13 27  1  0
 14 28  1  0
 15 29  1  0
 16 30  1  0
 17 31  1  0
 18 32  1  0
 19 33  1  0
M  CHG  1  17   1
M  END
>  <UniqueID>  (66) 
60

>  <SMILES>  (66) 
COc1ccc(-c2csc(-c3ccccc3)[nH+]2)cc1

>  <Energy>  (66) 
69.9817492172056

>  <Genealogy>  (66) 
COc1ccc(-c2csc(-c3ccccc3)[nH+]2)cc1 (protonated)
COc1ccc(-c2csc(-c3ccccc3)[nH+]2)cc1 (3D coordinates assigned)
COc1ccc(-c2csc(-c3ccccc3)[nH+]2)cc1 (optimized conformer: 69.9817492172056 kcal/mol)

>  <smiles>  (66) 
COc1ccc(-c2csc(-c3ccccc3)n2)cc1

>  <score_type>  (66) 
oracle

>  <origin>  (66) 
adg

>  <m_score__min__energy>  (66) 
-5.7599999999999998

>  <m_primary>  (66) 
energy

$$$$
66:0
     RDKit          3D

 43 45  0  0  0  0  0  0  0  0999 V2000
   56.6200   24.6580   45.3630 C   0  0  0  0  0  0  0  0  0  0  0  0
   56.3690   26.0430   45.8640 C   0  0  0  0  0  0  0  0  0  0  0  0
   55.1820   26.4490   46.0030 O   0  0  0  0  0  0  0  0  0  0  0  0
   57.4690   26.8840   46.2630 N   0  0  0  0  0  0  0  0  0  0  0  0
   58.3420   26.3850   47.3460 C   0  0  0  0  0  0  0  0  0  0  0  0
   59.6060   27.2360   47.5090 C   0  0  0  0  0  0  0  0  0  0  0  0
   59.2320   28.7100   47.6380 C   0  0  0  0  0  0  0  0  0  0  0  0
   58.4430   29.1570   46.4350 C   0  0  0  0  0  0  0  0  0  0  0  0
   58.5310   30.4860   45.9910 C   0  0  0  0  0  0  0  0  0  0  0  0
   57.7440   30.9400   44.9250 C   0  0  0  0  0  0  0  0  0  0  0  0
   57.8320   32.3160   44.5360 N   0  0  0  0  0  0  0  0  0  0  0  0
   57.8160   33.6440   45.6520 S   0  0  0  0  0  0  0  0  0  0  0  0
   57.6410   34.9190   44.8740 O   0  0  0  0  0  0  0  0  0  0  0  0
   56.6510   33.4860   46.5840 O   0  0  0  0  0  0  0  0  0  0  0  0
   59.3080   33.7100   46.5890 C   0  0  0  0  0  0  0  0  0  0  0  0
   60.5470   33.8570   45.9420 C   0  0  0  0  0  0  0  0  0  0  0  0
   61.7360   33.8660   46.6860 C   0  0  0  0  0  0  0  0  0  0  0  0
   61.6950   33.7230   48.0850 C   0  0  0  0  0  0  0  0  0  0  0  0
   62.9640   33.7540   48.8910 C   0  0  0  0  0  0  0  0  0  0  0  0
   60.4530   33.5970   48.7290 C   0  0  0  0  0  0  0  0  0  0  0  0
   59.2680   33.5790   47.9850 C   0  0  0  0  0  0  0  0  0  0  0  0
   56.8790   30.0440   44.2840 C   0  0  0  0  0  0  0  0  0  0  0  0
   56.7960   28.7150   44.7070 C   0  0  0  0  0  0  0  0  0  0  0  0
   57.5540   28.2600   45.8060 C   0  0  0  0  0  0  0  0  0  0  0  0
   56.7436   23.9759   46.2171 H   0  0  0  0  0  0  0  0  0  0  0  0
   55.7668   24.3290   44.7515 H   0  0  0  0  0  0  0  0  0  0  0  0
   57.5343   24.6494   44.7515 H   0  0  0  0  0  0  0  0  0  0  0  0
   57.7792   26.4020   48.2910 H   0  0  0  0  0  0  0  0  0  0  0  0
   58.6542   25.3632   47.0844 H   0  0  0  0  0  0  0  0  0  0  0  0
   60.1455   26.9169   48.4130 H   0  0  0  0  0  0  0  0  0  0  0  0
   60.2465   27.1028   46.6247 H   0  0  0  0  0  0  0  0  0  0  0  0
   58.6242   28.8521   48.5437 H   0  0  0  0  0  0  0  0  0  0  0  0
   60.1528   29.3081   47.7041 H   0  0  0  0  0  0  0  0  0  0  0  0
   59.2266   31.1793   46.4864 H   0  0  0  0  0  0  0  0  0  0  0  0
   60.5844   33.9654   44.8480 H   0  0  0  0  0  0  0  0  0  0  0  0
   62.7026   33.9851   46.1746 H   0  0  0  0  0  0  0  0  0  0  0  0
   62.7177   33.7480   49.9631 H   0  0  0  0  0  0  0  0  0  0  0  0
   63.5733   32.8705   48.6498 H   0  0  0  0  0  0  0  0  0  0  0  0
   63.5294   34.6662   48.6498 H   0  0  0  0  0  0  0  0  0  0  0  0
   60.4117   33.5120   49.8249 H   0  0  0  0  0  0  0  0  0  0  0  0
   58.3014   33.4617   48.4968 H   0  0  0  0  0  0  0  0  0  0  0  0
   56.2609   30.3890   43.4420 H   0  0  0  0  0  0  0  0  0  0  0  0
   56.1323   28.0159   44.1772 H   0  0  0  0  0  0  0  0  0  0  0  0
  1  2  1  0
  2  3  2  0
  2  4  1  0
  4  5  1  0
  5  6  1  0
  6  7  1  0
  7  8  1  0
  8  9  2  0
  9 10  1  0
 10 11  1  0
 11 12  1  0
 12 13  2  0
 12 14  2  0
 12 15  1  0
 15 16  2  0
 16 17  1  0
 17 18  2  0
 18 19  1  0
 18 20  1  0
 20 21  2  0
 10 22  2  0
 22 23  1  0
 23 24  2  0
 24  4  1  0
 24  8  1  0
 21 15  1  0
  1 25  1  0
  1 26  1  0
  1 27  1  0
  5 28  1  0
  5 29  1  0
  6 30  1  0
  6 31  1  0
  7 32  1  0
  7 33  1  0
  9 34  1  0
 16 35  1  0
 17 36  1  0
 19 37  1  0
 19 38  1  0
 19 39  1  0
 20 40  1  0
 21 41  1  0
 22 42  1  0
 23 43  1  0
M  CHG  1  11  -1
M  END
>  <UniqueID>  (67) 
61

>  <SMILES>  (67) 
CC(=O)N1CCCc2cc([N-]S(=O)(=O)c3ccc(C)cc3)ccc21

>  <Energy>  (67) 
53.46262581438274

>  <Genealogy>  (67) 
CC(=O)N1CCCc2cc([N-]S(=O)(=O)c3ccc(C)cc3)ccc21 (protonated)
CC(=O)N1CCCc2cc([N-]S(=O)(=O)c3ccc(C)cc3)ccc21 (3D coordinates assigned)
CC(=O)N1CCCc2cc([N-]S(=O)(=O)c3ccc(C)cc3)ccc21 (nonaromatic ring conformer: 53.46262581438274 kcal/mol)

>  <smiles>  (67) 
CC(=O)N1CCCc2cc(NS(=O)(=O)c3ccc(C)cc3)ccc21

>  <score_type>  (67) 
oracle

>  <origin>  (67) 
adg

>  <m_score__min__energy>  (67) 
-9.7699999999999996

>  <m_primary>  (67) 
energy

$$$$
67:0
     RDKit          3D

 38 40  0  0  0  0  0  0  0  0999 V2000
   57.3430   27.2670   46.4030 O   0  0  0  0  0  0  0  0  0  0  0  0
   57.9440   28.3700   46.3010 C   0  0  0  0  0  0  0  0  0  0  0  0
   59.4070   28.4490   46.6060 C   0  0  0  0  0  0  0  0  0  0  0  0
   59.6190   28.8640   48.0400 C   0  0  0  0  0  0  0  0  0  0  0  0
   60.0190   27.9400   49.0040 C   0  0  0  0  0  0  0  0  0  0  0  0
   60.0890   28.7200   50.4890 S   0  0  0  0  0  0  0  0  0  0  0  0
   59.6030   30.1980   49.8640 C   0  0  0  0  0  0  0  0  0  0  0  0
   59.4190   31.5420   50.7840 S   0  0  0  0  0  0  0  0  0  0  0  0
   59.3770   30.1280   48.5240 N   0  0  0  0  0  0  0  0  0  0  0  0
   58.9630   31.2830   47.7080 C   0  0  0  0  0  0  0  0  0  0  0  0
   60.1470   32.1490   47.3560 C   0  0  0  0  0  0  0  0  0  0  0  0
   59.9530   33.4140   46.7740 C   0  0  0  0  0  0  0  0  0  0  0  0
   61.0510   34.2140   46.4400 C   0  0  0  0  0  0  0  0  0  0  0  0
   62.3500   33.7550   46.6760 C   0  0  0  0  0  0  0  0  0  0  0  0
   63.4130   34.5330   46.3510 F   0  0  0  0  0  0  0  0  0  0  0  0
   62.5540   32.4940   47.2420 C   0  0  0  0  0  0  0  0  0  0  0  0
   61.4590   31.6920   47.5770 C   0  0  0  0  0  0  0  0  0  0  0  0
   57.2300   29.5640   45.9570 N   0  0  0  0  0  0  0  0  0  0  0  0
   57.3080   30.2720   44.7110 C   0  0  0  0  0  0  0  0  0  0  0  0
   56.6000   29.7730   43.6090 C   0  0  0  0  0  0  0  0  0  0  0  0
   56.6320   30.4470   42.3840 C   0  0  0  0  0  0  0  0  0  0  0  0
   57.3590   31.6340   42.2550 C   0  0  0  0  0  0  0  0  0  0  0  0
   57.3950   32.4810   40.7200 Cl  0  0  0  0  0  0  0  0  0  0  0  0
   58.0470   32.1530   43.3580 C   0  0  0  0  0  0  0  0  0  0  0  0
   58.0180   31.4800   44.5840 C   0  0  0  0  0  0  0  0  0  0  0  0
   59.8661   27.4630   46.4416 H   0  0  0  0  0  0  0  0  0  0  0  0
   59.8715   29.1950   45.9444 H   0  0  0  0  0  0  0  0  0  0  0  0
   60.2496   26.8799   48.8226 H   0  0  0  0  0  0  0  0  0  0  0  0
   58.4952   30.9194   46.7812 H   0  0  0  0  0  0  0  0  0  0  0  0
   58.2494   31.8850   48.2897 H   0  0  0  0  0  0  0  0  0  0  0  0
   58.9327   33.7766   46.5803 H   0  0  0  0  0  0  0  0  0  0  0  0
   60.8919   35.2055   45.9911 H   0  0  0  0  0  0  0  0  0  0  0  0
   63.5767   32.1321   47.4241 H   0  0  0  0  0  0  0  0  0  0  0  0
   61.6244   30.6972   48.0162 H   0  0  0  0  0  0  0  0  0  0  0  0
   56.0160   28.8461   43.7082 H   0  0  0  0  0  0  0  0  0  0  0  0
   56.0840   30.0423   41.5203 H   0  0  0  0  0  0  0  0  0  0  0  0
   58.6116   33.0920   43.2605 H   0  0  0  0  0  0  0  0  0  0  0  0
   58.5517   31.8963   45.4511 H   0  0  0  0  0  0  0  0  0  0  0  0
  1  2  2  0
  2  3  1  0
  3  4  1  0
  4  5  2  0
  5  6  1  0
  6  7  1  0
  7  8  2  0
  7  9  1  0
  9 10  1  0
 10 11  1  0
 11 12  2  0
 12 13  1  0
 13 14  2  0
 14 15  1  0
 14 16  1  0
 16 17  2  0
  2 18  1  0
 18 19  1  0
 19 20  2  0
 20 21  1  0
 21 22  2  0
 22 23  1  0
 22 24  1  0
 24 25  2  0
  9  4  1  0
 17 11  1  0
 25 19  1  0
  3 26  1  0
  3 27  1  0
  5 28  1  0
 10 29  1  0
 10 30  1  0
 12 31  1  0
 13 32  1  0
 16 33  1  0
 17 34  1  0
 20 35  1  0
 21 36  1  0
 24 37  1  0
 25 38  1  0
M  CHG  1  18  -1
M  END
>  <UniqueID>  (68) 
62

>  <SMILES>  (68) 
O=C(Cc1csc(=S)n1Cc1ccc(F)cc1)[N-]c1ccc(Cl)cc1

>  <Energy>  (68) 
73.34426041733425

>  <Genealogy>  (68) 
O=C(Cc1csc(=S)n1Cc1ccc(F)cc1)[N-]c1ccc(Cl)cc1 (protonated)
O=C(Cc1csc(=S)n1Cc1ccc(F)cc1)[N-]c1ccc(Cl)cc1 (3D coordinates assigned)
O=C(Cc1csc(=S)n1Cc1ccc(F)cc1)[N-]c1ccc(Cl)cc1 (optimized conformer: 73.34426041733425 kcal/mol)

>  <smiles>  (68) 
O=C(Cc1csc(=S)n1Cc1ccc(F)cc1)Nc1ccc(Cl)cc1

>  <score_type>  (68) 
oracle

>  <origin>  (68) 
adg

>  <m_score__min__energy>  (68) 
-9.8000000000000007

>  <m_primary>  (68) 
energy

$$$$
68:0
     RDKit          3D

 41 44  0  0  0  0  0  0  0  0999 V2000
   58.9290   34.0830   53.1650 C   0  0  0  0  0  0  0  0  0  0  0  0
   58.1130   33.6010   52.1030 O   0  0  0  0  0  0  0  0  0  0  0  0
   58.5350   32.6750   51.1380 C   0  0  0  0  0  0  0  0  0  0  0  0
   58.1340   31.3410   51.2740 C   0  0  0  0  0  0  0  0  0  0  0  0
   58.5280   30.3810   50.3400 C   0  0  0  0  0  0  0  0  0  0  0  0
   59.3440   30.7390   49.2520 C   0  0  0  0  0  0  0  0  0  0  0  0
   59.7370   29.7160   48.2100 C   0  0  1  0  0  0  0  0  0  0  0  0
   58.7770   28.6070   48.1890 N   0  0  0  0  0  0  0  0  0  0  0  0
   58.5500   27.7920   47.0300 C   0  0  0  0  0  0  0  0  0  0  0  0
   58.6860   26.4000   47.1480 C   0  0  0  0  0  0  0  0  0  0  0  0
   58.3930   25.5630   46.0700 C   0  0  0  0  0  0  0  0  0  0  0  0
   57.9380   26.1060   44.8700 C   0  0  0  0  0  0  0  0  0  0  0  0
   57.7760   27.4870   44.7430 C   0  0  0  0  0  0  0  0  0  0  0  0
   58.0810   28.3460   45.8160 C   0  0  0  0  0  0  0  0  0  0  0  0
   57.8670   29.8020   45.6510 C   0  0  0  0  0  0  0  0  0  0  0  0
   56.8280   30.2530   44.8970 N   0  0  0  0  0  0  0  0  0  0  0  0
   56.6430   31.5550   44.6760 N   0  0  0  0  0  0  0  0  0  0  0  0
   57.5020   32.4730   45.1860 C   0  0  0  0  0  0  0  0  0  0  0  0
   57.2430   34.2160   44.8770 S   0  0  0  0  0  0  0  0  0  0  0  0
   58.9670   34.6560   45.2530 C   0  0  0  0  0  0  0  0  0  0  0  0
   58.5570   32.0620   45.9320 N   0  0  0  0  0  0  0  0  0  0  0  0
   58.7540   30.7440   46.1830 C   0  0  0  0  0  0  0  0  0  0  0  0
   59.8570   30.3490   46.9370 O   0  0  0  0  0  0  0  0  0  0  0  0
   59.7350   32.0800   49.1050 C   0  0  0  0  0  0  0  0  0  0  0  0
   59.3400   33.0390   50.0420 C   0  0  0  0  0  0  0  0  0  0  0  0
   58.4730   33.8136   54.1291 H   0  0  0  0  0  0  0  0  0  0  0  0
   59.9291   33.6306   53.0933 H   0  0  0  0  0  0  0  0  0  0  0  0
   59.0155   35.1772   53.0933 H   0  0  0  0  0  0  0  0  0  0  0  0
   57.5024   31.0461   52.1249 H   0  0  0  0  0  0  0  0  0  0  0  0
   58.1981   29.3381   50.4558 H   0  0  0  0  0  0  0  0  0  0  0  0
   60.7166   29.2863   48.4666 H   0  0  0  0  0  0  0  0  0  0  0  0
   58.5490   28.1820   49.1160 H   0  0  0  0  0  0  0  0  0  0  0  0
   59.0267   25.9646   48.0990 H   0  0  0  0  0  0  0  0  0  0  0  0
   58.5213   24.4749   46.1677 H   0  0  0  0  0  0  0  0  0  0  0  0
   57.7061   25.4456   44.0214 H   0  0  0  0  0  0  0  0  0  0  0  0
   57.4067   27.9077   43.7961 H   0  0  0  0  0  0  0  0  0  0  0  0
   59.1068   34.6917   46.3435 H   0  0  0  0  0  0  0  0  0  0  0  0
   59.6406   33.9010   44.8215 H   0  0  0  0  0  0  0  0  0  0  0  0
   59.1964   35.6415   44.8215 H   0  0  0  0  0  0  0  0  0  0  0  0
   60.3560   32.3774   48.2471 H   0  0  0  0  0  0  0  0  0  0  0  0
   59.6601   34.0846   49.9223 H   0  0  0  0  0  0  0  0  0  0  0  0
  1  2  1  0
  2  3  1  0
  3  4  2  0
  4  5  1  0
  5  6  2  0
  6  7  1  0
  7  8  1  0
  8  9  1  0
  9 10  2  0
 10 11  1  0
 11 12  2  0
 12 13  1  0
 13 14  2  0
 14 15  1  0
 15 16  2  0
 16 17  1  0
 17 18  2  0
 18 19  1  0
 19 20  1  0
 18 21  1  0
 21 22  2  0
 22 23  1  0
  6 24  1  0
 24 25  2  0
 25  3  1  0
 23  7  1  0
 14  9  1  0
 22 15  1  0
  1 26  1  0
  1 27  1  0
  1 28  1  0
  4 29  1  0
  5 30  1  0
  7 31  1  1
  8 32  1  0
 10 33  1  0
 11 34  1  0
 12 35  1  0
 13 36  1  0
 20 37  1  0
 20 38  1  0
 20 39  1  0
 24 40  1  0
 25 41  1  0
M  END
>  <UniqueID>  (69) 
63

>  <SMILES>  (69) 
COc1ccc([C@H]2Nc3ccccc3-c3nnc(SC)nc3O2)cc1

>  <Energy>  (69) 
60.70085309536026

>  <Genealogy>  (69) 
COc1ccc([C@H]2Nc3ccccc3-c3nnc(SC)nc3O2)cc1 (chirality)
COc1ccc([C@H]2Nc3ccccc3-c3nnc(SC)nc3O2)cc1 (3D coordinates assigned)
COc1ccc([C@H]2Nc3ccccc3-c3nnc(SC)nc3O2)cc1 (nonaromatic ring conformer: 60.70085309536026 kcal/mol)

>  <smiles>  (69) 
COc1ccc(C2Nc3ccccc3-c3nnc(SC)nc3O2)cc1

>  <score_type>  (69) 
oracle

>  <origin>  (69) 
adg

>  <m_score__min__energy>  (69) 
-7.5300000000000002

>  <m_primary>  (69) 
energy

$$$$
69:0
     RDKit          3D

 35 37  0  0  0  0  0  0  0  0999 V2000
   58.5782   26.7057   46.4374 H   0  0  0  0  0  0  0  0  0  0  0  0
   57.6230   27.2510   46.4220 C   0  0  0  0  0  0  0  0  0  0  0  0
   56.5220   26.6080   46.6660 N   0  0  0  0  0  0  0  0  0  0  0  0
   56.0210   25.5280   45.8670 C   0  0  0  0  0  0  0  0  0  0  0  0
   56.8710   24.8630   45.0410 N   0  0  0  0  0  0  0  0  0  0  0  0
   56.4370   23.8340   44.2690 C   0  0  0  0  0  0  0  0  0  0  0  0
   57.1406   23.3070   43.6078 H   0  0  0  0  0  0  0  0  0  0  0  0
   55.0990   23.4460   44.3150 C   0  0  0  0  0  0  0  0  0  0  0  0
   54.7330   22.6149   43.6942 H   0  0  0  0  0  0  0  0  0  0  0  0
   54.2330   24.1360   45.1670 C   0  0  0  0  0  0  0  0  0  0  0  0
   52.7890   23.7570   45.2510 C   0  0  0  0  0  0  0  0  0  0  0  0
   52.4913   23.6789   46.3071 H   0  0  0  0  0  0  0  0  0  0  0  0
   52.1787   24.5254   44.7539 H   0  0  0  0  0  0  0  0  0  0  0  0
   52.6347   22.7879   44.7539 H   0  0  0  0  0  0  0  0  0  0  0  0
   54.7100   25.1600   45.9240 N   0  0  0  0  0  0  0  0  0  0  0  0
   57.6230   28.7080   46.1220 C   0  0  0  0  0  0  0  0  0  0  0  0
   56.5990   29.3260   45.3810 C   0  0  0  0  0  0  0  0  0  0  0  0
   55.5220   28.5990   44.8840 O   0  0  0  0  0  0  0  0  0  0  0  0
   56.6490   30.6580   45.1380 N   0  0  0  0  0  0  0  0  0  0  0  0
   57.6680   31.4270   45.5900 C   0  0  0  0  0  0  0  0  0  0  0  0
   57.6690   32.6590   45.3210 O   0  0  0  0  0  0  0  0  0  0  0  0
   58.6850   30.8690   46.3170 N   0  0  0  0  0  0  0  0  0  0  0  0
   59.7670   31.6950   46.7970 C   0  0  0  0  0  0  0  0  0  0  0  0
   59.5070   32.9750   47.3110 C   0  0  0  0  0  0  0  0  0  0  0  0
   58.4740   33.3510   47.3490 H   0  0  0  0  0  0  0  0  0  0  0  0
   60.5570   33.7740   47.7750 C   0  0  0  0  0  0  0  0  0  0  0  0
   60.3485   34.7763   48.1773 H   0  0  0  0  0  0  0  0  0  0  0  0
   61.8710   33.3000   47.7280 C   0  0  0  0  0  0  0  0  0  0  0  0
   62.6958   33.9299   48.0926 H   0  0  0  0  0  0  0  0  0  0  0  0
   62.1380   32.0260   47.2180 C   0  0  0  0  0  0  0  0  0  0  0  0
   63.1725   31.6537   47.1826 H   0  0  0  0  0  0  0  0  0  0  0  0
   61.0910   31.2250   46.7530 C   0  0  0  0  0  0  0  0  0  0  0  0
   61.3040   30.2234   46.3512 H   0  0  0  0  0  0  0  0  0  0  0  0
   58.6740   29.5240   46.5890 C   0  0  0  0  0  0  0  0  0  0  0  0
   59.6060   29.0120   47.2730 O   0  0  0  0  0  0  0  0  0  0  0  0
  1  2  1  0
  2  3  2  0
  3  4  1  0
  4  5  2  0
  5  6  1  0
  6  7  1  0
  6  8  2  0
  8  9  1  0
  8 10  1  0
 10 11  1  0
 11 12  1  0
 11 13  1  0
 11 14  1  0
 10 15  2  0
  2 16  1  0
 16 17  2  0
 17 18  1  0
 17 19  1  0
 19 20  1  0
 20 21  2  0
 20 22  1  0
 22 23  1  0
 23 24  2  0
 24 25  1  0
 24 26  1  0
 26 27  1  0
 26 28  2  0
 28 29  1  0
 28 30  1  0
 30 31  1  0
 30 32  2  0
 32 33  1  0
 22 34  1  0
 34 35  2  0
 15  4  1  0
 34 16  1  0
 32 23  1  0
M  CHG  2  18  -1  19  -1
M  END
>  <UniqueID>  (70) 
64

>  <SMILES>  (70) 
Cc1ccnc(/N=C/c2c([O-])[n-]c(=O)n(-c3ccccc3)c2=O)n1

>  <Energy>  (70) 
51.68450587035369

>  <Genealogy>  (70) 
Cc1ccnc(N=Cc2c([O-])[n-]c(=O)n(-c3ccccc3)c2=O)n1 (protonated)
Cc1ccnc(/N=C/c2c([O-])[n-]c(=O)n(-c3ccccc3)c2=O)n1 (cis-trans isomerization)
Cc1ccnc(/N=C/c2c([O-])[n-]c(=O)n(-c3ccccc3)c2=O)n1 (3D coordinates assigned)
Cc1ccnc(/N=C/c2c([O-])[n-]c(=O)n(-c3ccccc3)c2=O)n1 (optimized conformer: 51.68450587035369 kcal/mol)

>  <smiles>  (70) 
Cc1ccnc(N=Cc2c(O)[nH]c(=O)n(-c3ccccc3)c2=O)n1

>  <score_type>  (70) 
oracle

>  <origin>  (70) 
adg

>  <m_score__min__energy>  (70) 
-11.69

>  <m_primary>  (70) 
energy

$$$$
70:0
     RDKit          3D

 53 56  0  0  0  0  0  0  0  0999 V2000
   59.3440   34.8510   46.0040 C   0  0  0  0  0  0  0  0  0  0  0  0
   58.7910   33.5460   45.5150 C   0  0  0  0  0  0  0  0  0  0  0  0
   58.4660   33.3810   44.1590 C   0  0  0  0  0  0  0  0  0  0  0  0
   57.9090   32.1800   43.7100 C   0  0  0  0  0  0  0  0  0  0  0  0
   57.6640   31.1360   44.6100 C   0  0  0  0  0  0  0  0  0  0  0  0
   56.9160   29.6480   44.0330 S   0  0  0  0  0  0  0  0  0  0  0  0
   55.7130   29.3420   44.8830 O   0  0  0  0  0  0  0  0  0  0  0  0
   56.4690   29.8120   42.6050 O   0  0  0  0  0  0  0  0  0  0  0  0
   58.0750   28.3450   44.1560 N   0  0  0  0  0  0  0  0  0  0  0  0
   57.9740   27.4240   43.0130 C   0  0  0  0  0  0  0  0  0  0  0  0
   57.7640   26.0160   43.5570 C   0  0  0  0  0  0  0  0  0  0  0  0
   58.1760   26.1070   45.0050 C   0  0  0  0  0  0  0  0  0  0  0  0
   57.8570   27.5470   45.3730 C   0  0  1  0  0  0  0  0  0  0  0  0
   58.7320   28.0190   46.5000 C   0  0  0  0  0  0  0  0  0  0  0  0
   58.2390   28.2570   47.6370 O   0  0  0  0  0  0  0  0  0  0  0  0
   60.1220   28.2490   46.2520 N   0  0  0  0  0  0  0  0  0  0  0  0
   60.7160   29.5790   46.2480 C   0  0  0  0  0  0  0  0  0  0  0  0
   60.7950   30.1050   47.6800 C   0  0  0  0  0  0  0  0  0  0  0  0
   61.8340   31.1790   47.7970 C   0  0  0  0  0  0  0  0  0  0  0  0
   63.0440   31.2430   47.1110 C   0  0  0  0  0  0  0  0  0  0  0  0
   63.7510   32.3300   47.5010 N   0  0  0  0  0  0  0  0  0  0  0  0
   63.0030   32.9440   48.4350 C   0  0  0  0  0  0  0  0  0  0  0  0
   63.3210   34.1000   49.1460 C   0  0  0  0  0  0  0  0  0  0  0  0
   62.3940   34.5620   50.0990 C   0  0  0  0  0  0  0  0  0  0  0  0
   61.1850   33.8640   50.3180 C   0  0  0  0  0  0  0  0  0  0  0  0
   60.8910   32.6990   49.5870 C   0  0  0  0  0  0  0  0  0  0  0  0
   61.8280   32.2680   48.6470 C   0  0  0  0  0  0  0  0  0  0  0  0
   57.9690   31.3040   45.9670 C   0  0  0  0  0  0  0  0  0  0  0  0
   58.5260   32.5040   46.4180 C   0  0  0  0  0  0  0  0  0  0  0  0
   59.3473   34.8587   47.1040 H   0  0  0  0  0  0  0  0  0  0  0  0
   60.3722   34.9754   45.6334 H   0  0  0  0  0  0  0  0  0  0  0  0
   58.7183   35.6763   45.6334 H   0  0  0  0  0  0  0  0  0  0  0  0
   58.6503   34.1995   43.4476 H   0  0  0  0  0  0  0  0  0  0  0  0
   57.6622   32.0548   42.6454 H   0  0  0  0  0  0  0  0  0  0  0  0
   57.1222   27.7094   42.3783 H   0  0  0  0  0  0  0  0  0  0  0  0
   58.8914   27.4658   42.4075 H   0  0  0  0  0  0  0  0  0  0  0  0
   56.7084   25.7190   43.4708 H   0  0  0  0  0  0  0  0  0  0  0  0
   58.3430   25.2623   43.0033 H   0  0  0  0  0  0  0  0  0  0  0  0
   57.5972   25.4053   45.6236 H   0  0  0  0  0  0  0  0  0  0  0  0
   59.2322   25.8463   45.1679 H   0  0  0  0  0  0  0  0  0  0  0  0
   56.8197   27.6473   45.7251 H   0  0  0  0  0  0  0  0  0  0  0  0
   61.7279   29.5275   45.8198 H   0  0  0  0  0  0  0  0  0  0  0  0
   60.0959   30.2560   45.6421 H   0  0  0  0  0  0  0  0  0  0  0  0
   59.8164   30.5173   47.9670 H   0  0  0  0  0  0  0  0  0  0  0  0
   61.0710   29.2740   48.3457 H   0  0  0  0  0  0  0  0  0  0  0  0
   63.3783   30.5136   46.3586 H   0  0  0  0  0  0  0  0  0  0  0  0
   64.6890   32.6250   47.1510 H   0  0  0  0  0  0  0  0  0  0  0  0
   64.2661   34.6340   48.9680 H   0  0  0  0  0  0  0  0  0  0  0  0
   62.6120   35.4722   50.6770 H   0  0  0  0  0  0  0  0  0  0  0  0
   60.4685   34.2346   51.0658 H   0  0  0  0  0  0  0  0  0  0  0  0
   59.9541   32.1463   49.7507 H   0  0  0  0  0  0  0  0  0  0  0  0
   57.7697   30.4897   46.6792 H   0  0  0  0  0  0  0  0  0  0  0  0
   58.7579   32.6327   47.4856 H   0  0  0  0  0  0  0  0  0  0  0  0
  1  2  1  0
  2  3  2  0
  3  4  1  0
  4  5  2  0
  5  6  1  0
  6  7  2  0
  6  8  2  0
  6  9  1  0
  9 10  1  0
 10 11  1  0
 11 12  1  0
 12 13  1  0
 13 14  1  0
 14 15  2  0
 14 16  1  0
 16 17  1  0
 17 18  1  0
 18 19  1  0
 19 20  2  0
 20 21  1  0
 21 22  1  0
 22 23  2  0
 23 24  1  0
 24 25  2  0
 25 26  1  0
 26 27  2  0
  5 28  1  0
 28 29  2  0
 29  2  1  0
 13  9  1  0
 27 19  1  0
 27 22  1  0
  1 30  1  0
  1 31  1  0
  1 32  1  0
  3 33  1  0
  4 34  1  0
 10 35  1  0
 10 36  1  0
 11 37  1  0
 11 38  1  0
 12 39  1  0
 12 40  1  0
 13 41  1  1
 17 42  1  0
 17 43  1  0
 18 44  1  0
 18 45  1  0
 20 46  1  0
 21 47  1  0
 23 48  1  0
 24 49  1  0
 25 50  1  0
 26 51  1  0
 28 52  1  0
 29 53  1  0
M  CHG  1  16  -1
M  END
>  <UniqueID>  (71) 
65

>  <SMILES>  (71) 
Cc1ccc(S(=O)(=O)N2CCC[C@H]2C(=O)[N-]CCc2c[nH]c3ccccc23)cc1

>  <Energy>  (71) 
83.19245694043715

>  <Genealogy>  (71) 
Cc1ccc(S(=O)(=O)N2CCCC2C(=O)[N-]CCc2c[nH]c3ccccc23)cc1 (protonated)
Cc1ccc(S(=O)(=O)N2CCC[C@H]2C(=O)[N-]CCc2c[nH]c3ccccc23)cc1 (chirality)
Cc1ccc(S(=O)(=O)N2CCC[C@H]2C(=O)[N-]CCc2c[nH]c3ccccc23)cc1 (3D coordinates assigned)
Cc1ccc(S(=O)(=O)N2CCC[C@H]2C(=O)[N-]CCc2c[nH]c3ccccc23)cc1 (nonaromatic ring conformer: 83.19245694043715 kcal/mol)

>  <smiles>  (71) 
Cc1ccc(S(=O)(=O)N2CCCC2C(=O)NCCc2c[nH]c3ccccc23)cc1

>  <score_type>  (71) 
oracle

>  <origin>  (71) 
adg

>  <m_score__min__energy>  (71) 
-11.59

>  <m_primary>  (71) 
energy

$$$$
71:0
     RDKit          3D

 54 57  0  0  0  0  0  0  0  0999 V2000
   65.7000   31.4470   51.2680 C   0  0  0  0  0  0  0  0  0  0  0  0
   64.7320   31.9060   50.2180 C   0  0  0  0  0  0  0  0  0  0  0  0
   65.0290   33.0190   49.4240 C   0  0  0  0  0  0  0  0  0  0  0  0
   64.1170   33.4670   48.4680 C   0  0  0  0  0  0  0  0  0  0  0  0
   62.8830   32.8140   48.2810 C   0  0  0  0  0  0  0  0  0  0  0  0
   61.9330   33.3250   47.2130 C   0  0  0  0  0  0  0  0  0  0  0  0
   62.6240   34.1260   46.3250 F   0  0  0  0  0  0  0  0  0  0  0  0
   61.3680   32.2750   46.5100 F   0  0  0  0  0  0  0  0  0  0  0  0
   60.9000   34.0520   47.7760 F   0  0  0  0  0  0  0  0  0  0  0  0
   62.5550   31.7240   49.1320 C   0  0  0  0  0  0  0  0  0  0  0  0
   61.2430   31.0420   49.0730 C   0  0  0  0  0  0  0  0  0  0  0  0
   60.2600   31.3350   50.0250 C   0  0  0  0  0  0  0  0  0  0  0  0
   59.0230   30.6930   49.9320 C   0  0  0  0  0  0  0  0  0  0  0  0
   57.9540   30.9710   50.9060 C   0  0  0  0  0  0  0  0  0  0  0  0
   57.7650   32.1640   51.5810 C   0  0  0  0  0  0  0  0  0  0  0  0
   56.6560   31.9730   52.3780 C   0  0  0  0  0  0  0  0  0  0  0  0
   56.2450   30.6760   52.1410 C   0  0  0  0  0  0  0  0  0  0  0  0
   55.0610   30.0120   52.7600 C   0  0  0  0  0  0  0  0  0  0  0  0
   57.0310   30.1050   51.2590 O   0  0  0  0  0  0  0  0  0  0  0  0
   58.8090   29.8010   48.9310 N   0  0  0  0  0  0  0  0  0  0  0  0
   59.7700   29.5150   48.0120 C   0  0  0  0  0  0  0  0  0  0  0  0
   59.4880   28.5790   46.9560 N   0  0  0  0  0  0  0  0  0  0  0  0
   60.4040   28.4000   45.8250 C   0  0  0  0  0  0  0  0  0  0  0  0
   59.6260   28.4280   44.4970 C   0  0  0  0  0  0  0  0  0  0  0  0
   58.2460   27.8810   44.5920 N   0  0  0  0  0  0  0  0  0  0  0  0
   57.2320   28.9490   44.5600 C   0  0  0  0  0  0  0  0  0  0  0  0
   58.0520   26.9730   45.7420 C   0  0  0  0  0  0  0  0  0  0  0  0
   58.3410   27.6750   47.0800 C   0  0  0  0  0  0  0  0  0  0  0  0
   60.9740   30.1530   48.0770 N   0  0  0  0  0  0  0  0  0  0  0  0
   63.4890   31.2770   50.0810 C   0  0  0  0  0  0  0  0  0  0  0  0
   65.2807   31.6458   52.2653 H   0  0  0  0  0  0  0  0  0  0  0  0
   65.8798   30.3678   51.1543 H   0  0  0  0  0  0  0  0  0  0  0  0
   66.6494   31.9908   51.1543 H   0  0  0  0  0  0  0  0  0  0  0  0
   65.9869   33.5438   49.5542 H   0  0  0  0  0  0  0  0  0  0  0  0
   64.3653   34.3432   47.8511 H   0  0  0  0  0  0  0  0  0  0  0  0
   60.4577   32.0570   50.8310 H   0  0  0  0  0  0  0  0  0  0  0  0
   58.3738   33.0765   51.4988 H   0  0  0  0  0  0  0  0  0  0  0  0
   56.1947   32.7020   53.0605 H   0  0  0  0  0  0  0  0  0  0  0  0
   55.1453   30.0593   53.8557 H   0  0  0  0  0  0  0  0  0  0  0  0
   54.1430   30.5269   52.4403 H   0  0  0  0  0  0  0  0  0  0  0  0
   55.0217   28.9602   52.4403 H   0  0  0  0  0  0  0  0  0  0  0  0
   61.1465   29.2116   45.8276 H   0  0  0  0  0  0  0  0  0  0  0  0
   60.9081   27.4273   45.9236 H   0  0  0  0  0  0  0  0  0  0  0  0
   59.5615   29.4718   44.1560 H   0  0  0  0  0  0  0  0  0  0  0  0
   60.1751   27.7853   43.7932 H   0  0  0  0  0  0  0  0  0  0  0  0
   56.9641   29.2312   45.5889 H   0  0  0  0  0  0  0  0  0  0  0  0
   57.6387   29.8251   44.0336 H   0  0  0  0  0  0  0  0  0  0  0  0
   56.3360   28.5883   44.0336 H   0  0  0  0  0  0  0  0  0  0  0  0
   57.0108   26.6183   45.7438 H   0  0  0  0  0  0  0  0  0  0  0  0
   58.7556   26.1340   45.6374 H   0  0  0  0  0  0  0  0  0  0  0  0
   57.4560   28.2544   47.3818 H   0  0  0  0  0  0  0  0  0  0  0  0
   58.5743   26.9108   47.8361 H   0  0  0  0  0  0  0  0  0  0  0  0
   61.6840   29.9980   47.3280 H   0  0  0  0  0  0  0  0  0  0  0  0
   63.2403   30.4209   50.7254 H   0  0  0  0  0  0  0  0  0  0  0  0
  1  2  1  0
  2  3  2  0
  3  4  1  0
  4  5  2  0
  5  6  1  0
  6  7  1  0
  6  8  1  0
  6  9  1  0
  5 10  1  0
 10 11  1  0
 11 12  2  0
 12 13  1  0
 13 14  1  0
 14 15  2  0
 15 16  1  0
 16 17  2  0
 17 18  1  0
 17 19  1  0
 13 20  2  0
 20 21  1  0
 21 22  1  0
 22 23  1  0
 23 24  1  0
 24 25  1  0
 25 26  1  0
 25 27  1  0
 27 28  1  0
 21 29  2  0
 10 30  2  0
 30  2  1  0
 29 11  1  0
 19 14  1  0
 28 22  1  0
  1 31  1  0
  1 32  1  0
  1 33  1  0
  3 34  1  0
  4 35  1  0
 12 36  1  0
 15 37  1  0
 16 38  1  0
 18 39  1  0
 18 40  1  0
 18 41  1  0
 23 42  1  0
 23 43  1  0
 24 44  1  0
 24 45  1  0
 26 46  1  0
 26 47  1  0
 26 48  1  0
 27 49  1  0
 27 50  1  0
 28 51  1  0
 28 52  1  0
 29 53  1  0
 30 54  1  0
M  CHG  1  29   1
M  END
>  <UniqueID>  (72) 
66

>  <SMILES>  (72) 
Cc1ccc(C(F)(F)F)c(-c2cc(-c3ccc(C)o3)nc(N3CCN(C)CC3)[nH+]2)c1

>  <Energy>  (72) 
99.43808919183172

>  <Genealogy>  (72) 
Cc1ccc(C(F)(F)F)c(-c2cc(-c3ccc(C)o3)nc(N3CCN(C)CC3)[nH+]2)c1 (protonated)
Cc1ccc(C(F)(F)F)c(-c2cc(-c3ccc(C)o3)nc(N3CCN(C)CC3)[nH+]2)c1 (3D coordinates assigned)
Cc1ccc(C(F)(F)F)c(-c2cc(-c3ccc(C)o3)nc(N3CCN(C)CC3)[nH+]2)c1 (nonaromatic ring conformer: 99.43808919183172 kcal/mol)

>  <smiles>  (72) 
Cc1ccc(C(F)(F)F)c(-c2cc(-c3ccc(C)o3)nc(N3CCN(C)CC3)n2)c1

>  <score_type>  (72) 
oracle

>  <origin>  (72) 
adg

>  <m_score__min__energy>  (72) 
-6.6299999999999999

>  <m_primary>  (72) 
energy

$$$$
72:0
     RDKit          3D

 46 49  0  0  1  0  0  0  0  0999 V2000
   59.5800   25.8300   46.0050 C   0  0  0  0  0  0  0  0  0  0  0  0
   58.8820   26.5390   44.8800 C   0  0  0  0  0  0  0  0  0  0  0  0
   57.6590   25.7270   44.4710 C   0  0  0  0  0  0  0  0  0  0  0  0
   58.5590   27.8870   45.2440 N   0  0  0  0  0  0  0  0  0  0  0  0
   58.9440   28.4780   46.3420 N   0  0  0  0  0  0  0  0  0  0  0  0
   58.4670   29.7660   46.3900 C   0  0  0  0  0  0  0  0  0  0  0  0
   58.7440   30.4840   47.3860 N   0  0  0  0  0  0  0  0  0  0  0  0
   59.9710   30.8230   47.9610 C   0  0  0  0  0  0  0  0  0  0  0  0
   60.1960   30.4070   49.2780 C   0  0  0  0  0  0  0  0  0  0  0  0
   61.3740   30.6890   49.9390 C   0  0  0  0  0  0  0  0  0  0  0  0
   62.3290   31.4000   49.2530 C   0  0  0  0  0  0  0  0  0  0  0  0
   62.1530   31.8330   47.9480 C   0  0  0  0  0  0  0  0  0  0  0  0
   63.4090   32.7350   47.1310 Cl  0  0  0  0  0  0  0  0  0  0  0  0
   60.9580   31.5350   47.3070 C   0  0  0  0  0  0  0  0  0  0  0  0
   57.7700   29.9010   45.2340 C   0  0  0  0  0  0  0  0  0  0  0  0
   57.0690   30.9310   44.6990 C   0  0  0  0  0  0  0  0  0  0  0  0
   56.9540   32.0170   45.2520 N   0  0  0  0  0  0  0  0  0  0  0  0
   57.7960   33.0280   45.5410 C   0  0  0  0  0  0  0  0  0  0  0  0
   58.3360   33.8130   44.5030 C   0  0  0  0  0  0  0  0  0  0  0  0
   59.2830   34.7800   44.7970 C   0  0  0  0  0  0  0  0  0  0  0  0
   59.7000   34.9790   46.1030 C   0  0  0  0  0  0  0  0  0  0  0  0
   59.1730   34.2100   47.1290 C   0  0  0  0  0  0  0  0  0  0  0  0
   59.7960   34.5430   48.8930 Br  0  0  0  0  0  0  0  0  0  0  0  0
   58.2220   33.2310   46.8680 C   0  0  0  0  0  0  0  0  0  0  0  0
   56.4610   30.7490   43.4870 N   0  0  0  0  0  0  0  0  0  0  0  0
   56.5210   29.6070   42.7960 C   0  0  0  0  0  0  0  0  0  0  0  0
   57.2220   28.5710   43.3260 N   0  0  0  0  0  0  0  0  0  0  0  0
   57.8340   28.7260   44.5280 C   0  0  0  0  0  0  0  0  0  0  0  0
   59.2054   26.2105   46.9667 H   0  0  0  0  0  0  0  0  0  0  0  0
   59.3829   24.7500   45.9361 H   0  0  0  0  0  0  0  0  0  0  0  0
   60.6630   26.0102   45.9361 H   0  0  0  0  0  0  0  0  0  0  0  0
   59.5496   26.6153   44.0091 H   0  0  0  0  0  0  0  0  0  0  0  0
   57.1329   25.3777   45.3716 H   0  0  0  0  0  0  0  0  0  0  0  0
   56.9839   26.3568   43.8731 H   0  0  0  0  0  0  0  0  0  0  0  0
   57.9775   24.8604   43.8731 H   0  0  0  0  0  0  0  0  0  0  0  0
   59.5260   28.0770   47.1040 H   0  0  0  0  0  0  0  0  0  0  0  0
   59.4121   29.8395   49.8008 H   0  0  0  0  0  0  0  0  0  0  0  0
   61.5419   30.3577   50.9744 H   0  0  0  0  0  0  0  0  0  0  0  0
   63.2751   31.6360   49.7620 H   0  0  0  0  0  0  0  0  0  0  0  0
   60.7959   31.8681   46.2712 H   0  0  0  0  0  0  0  0  0  0  0  0
   58.0072   33.6587   43.4647 H   0  0  0  0  0  0  0  0  0  0  0  0
   59.7066   35.3938   43.9884 H   0  0  0  0  0  0  0  0  0  0  0  0
   60.4520   35.7500   46.3267 H   0  0  0  0  0  0  0  0  0  0  0  0
   57.8079   32.6233   47.6860 H   0  0  0  0  0  0  0  0  0  0  0  0
   55.9150   31.5290   43.0540 H   0  0  0  0  0  0  0  0  0  0  0  0
   56.0161   29.5083   41.8237 H   0  0  0  0  0  0  0  0  0  0  0  0
  1  2  1  0
  2  3  1  0
  2  4  1  0
  4  5  1  0
  5  6  1  0
  6  7  2  0
  7  8  1  0
  8  9  2  0
  9 10  1  0
 10 11  2  0
 11 12  1  0
 12 13  1  0
 12 14  2  0
  6 15  1  0
 15 16  1  0
 16 17  2  0
 17 18  1  0
 18 19  2  0
 19 20  1  0
 20 21  2  0
 21 22  1  0
 22 23  1  0
 22 24  2  0
 16 25  1  0
 25 26  1  0
 26 27  2  0
 27 28  1  0
 28  4  1  0
 14  8  1  0
 28 15  2  0
 24 18  1  0
  1 29  1  0
  1 30  1  0
  1 31  1  0
  2 32  1  0
  3 33  1  0
  3 34  1  0
  3 35  1  0
  5 36  1  0
  9 37  1  0
 10 38  1  0
 11 39  1  0
 14 40  1  0
 19 41  1  0
 20 42  1  0
 21 43  1  0
 24 44  1  0
 25 45  1  0
 26 46  1  0
M  END
>  <smiles>  (73) 
CC(C)n1[nH]c(=Nc2cccc(Cl)c2)c2c(=Nc3cccc(Br)c3)[nH]cnc21

>  <score_type>  (73) 
oracle

>  <origin>  (73) 
adg

>  <m_score__min__energy>  (73) 
-9.7100000000000009

>  <m_primary>  (73) 
energy

$$$$
73:0
     RDKit          3D

 50 52  0  0  0  0  0  0  0  0999 V2000
   56.6420   26.5810   46.0010 C   0  0  0  0  0  0  0  0  0  0  0  0
   55.8990   27.7230   45.5860 O   0  0  0  0  0  0  0  0  0  0  0  0
   56.4720   28.9030   45.0900 C   0  0  0  0  0  0  0  0  0  0  0  0
   57.7460   29.3500   45.4900 C   0  0  0  0  0  0  0  0  0  0  0  0
   58.2740   30.5340   44.9650 C   0  0  0  0  0  0  0  0  0  0  0  0
   57.5450   31.2830   44.0290 C   0  0  0  0  0  0  0  0  0  0  0  0
   58.1000   32.5760   43.4920 C   0  0  0  0  0  0  0  0  0  0  0  0
   57.9930   33.6850   44.5410 C   0  0  0  0  0  0  0  0  0  0  0  0
   58.9070   33.4390   45.6570 N   0  0  0  0  0  0  0  0  0  0  0  0
   59.7780   34.4700   46.1480 C   0  0  0  0  0  0  0  0  0  0  0  0
   59.6480   35.6490   45.7160 O   0  0  0  0  0  0  0  0  0  0  0  0
   60.8160   34.1800   47.1650 C   0  0  0  0  0  0  0  0  0  0  0  0
   60.5340   34.2730   48.5400 C   0  0  0  0  0  0  0  0  0  0  0  0
   61.5220   33.9910   49.4870 C   0  0  0  0  0  0  0  0  0  0  0  0
   62.8120   33.6100   49.0830 C   0  0  0  0  0  0  0  0  0  0  0  0
   63.8250   33.3070   50.0610 N   0  0  0  0  0  0  0  0  0  0  0  0
   63.7760   33.9270   51.3920 C   0  0  0  0  0  0  0  0  0  0  0  0
   65.1310   33.7910   52.1030 C   0  0  0  0  0  0  0  0  0  0  0  0
   66.2310   34.0020   51.1540 N   0  0  0  0  0  0  0  0  0  0  0  0
   66.2760   32.9700   50.0980 C   0  0  0  0  0  0  0  0  0  0  0  0
   64.9010   32.3540   49.7690 C   0  0  0  0  0  0  0  0  0  0  0  0
   63.0880   33.4960   47.7100 C   0  0  0  0  0  0  0  0  0  0  0  0
   62.1010   33.7770   46.7620 C   0  0  0  0  0  0  0  0  0  0  0  0
   56.2700   30.8430   43.6410 C   0  0  0  0  0  0  0  0  0  0  0  0
   55.7420   29.6610   44.1650 C   0  0  0  0  0  0  0  0  0  0  0  0
   56.6685   26.5403   47.0999 H   0  0  0  0  0  0  0  0  0  0  0  0
   56.1629   25.6705   45.6118 H   0  0  0  0  0  0  0  0  0  0  0  0
   57.6685   26.6501   45.6118 H   0  0  0  0  0  0  0  0  0  0  0  0
   58.3281   28.7659   46.2180 H   0  0  0  0  0  0  0  0  0  0  0  0
   59.2669   30.8801   45.2879 H   0  0  0  0  0  0  0  0  0  0  0  0
   59.1572   32.4322   43.2245 H   0  0  0  0  0  0  0  0  0  0  0  0
   57.5196   32.8698   42.6049 H   0  0  0  0  0  0  0  0  0  0  0  0
   58.2463   34.6481   44.0738 H   0  0  0  0  0  0  0  0  0  0  0  0
   56.9635   33.7042   44.9280 H   0  0  0  0  0  0  0  0  0  0  0  0
   58.8930   32.5090   46.1330 H   0  0  0  0  0  0  0  0  0  0  0  0
   59.5283   34.5699   48.8722 H   0  0  0  0  0  0  0  0  0  0  0  0
   61.2872   34.0681   50.5589 H   0  0  0  0  0  0  0  0  0  0  0  0
   63.5296   34.9937   51.2849 H   0  0  0  0  0  0  0  0  0  0  0  0
   63.0082   33.4170   51.9923 H   0  0  0  0  0  0  0  0  0  0  0  0
   65.1960   34.5406   52.9055 H   0  0  0  0  0  0  0  0  0  0  0  0
   65.2127   32.7780   52.5240 H   0  0  0  0  0  0  0  0  0  0  0  0
   66.1060   34.9400   50.7030 H   0  0  0  0  0  0  0  0  0  0  0  0
   66.6785   33.4282   49.1825 H   0  0  0  0  0  0  0  0  0  0  0  0
   66.9101   32.1540   50.4750 H   0  0  0  0  0  0  0  0  0  0  0  0
   64.8696   32.0892   48.7018 H   0  0  0  0  0  0  0  0  0  0  0  0
   64.7573   31.4563   50.3883 H   0  0  0  0  0  0  0  0  0  0  0  0
   64.0892   33.1830   47.3789 H   0  0  0  0  0  0  0  0  0  0  0  0
   62.3315   33.6820   45.6906 H   0  0  0  0  0  0  0  0  0  0  0  0
   55.6836   31.4321   42.9205 H   0  0  0  0  0  0  0  0  0  0  0  0
   54.7444   29.3222   43.8488 H   0  0  0  0  0  0  0  0  0  0  0  0
  1  2  1  0
  2  3  1  0
  3  4  2  0
  4  5  1  0
  5  6  2  0
  6  7  1  0
  7  8  1  0
  8  9  1  0
  9 10  1  0
 10 11  2  0
 10 12  1  0
 12 13  2  0
 13 14  1  0
 14 15  2  0
 15 16  1  0
 16 17  1  0
 17 18  1  0
 18 19  1  0
 19 20  1  0
 20 21  1  0
 15 22  1  0
 22 23  2  0
  6 24  1  0
 24 25  2  0
 25  3  1  0
 23 12  1  0
 21 16  1  0
  1 26  1  0
  1 27  1  0
  1 28  1  0
  4 29  1  0
  5 30  1  0
  7 31  1  0
  7 32  1  0
  8 33  1  0
  8 34  1  0
  9 35  1  0
 13 36  1  0
 14 37  1  0
 17 38  1  0
 17 39  1  0
 18 40  1  0
 18 41  1  0
 19 42  1  0
 20 43  1  0
 20 44  1  0
 21 45  1  0
 21 46  1  0
 22 47  1  0
 23 48  1  0
 24 49  1  0
 25 50  1  0
M  END
>  <UniqueID>  (74) 
67

>  <SMILES>  (74) 
COc1ccc(CCNC(=O)c2ccc(N3CCNCC3)cc2)cc1

>  <Energy>  (74) 
56.62038599136761

>  <Genealogy>  (74) 
COc1ccc(CCNC(=O)c2ccc(N3CCNCC3)cc2)cc1 (3D coordinates assigned)
COc1ccc(CCNC(=O)c2ccc(N3CCNCC3)cc2)cc1 (nonaromatic ring conformer: 56.62038599136761 kcal/mol)

>  <smiles>  (74) 
COc1ccc(CCNC(=O)c2ccc(N3CCNCC3)cc2)cc1

>  <score_type>  (74) 
oracle

>  <origin>  (74) 
adg

>  <m_score__min__energy>  (74) 
-7.8399999999999999

>  <m_primary>  (74) 
energy

$$$$
75:0
     RDKit          3D

 61 66  0  0  0  0  0  0  0  0999 V2000
   58.1860   29.7160   50.2380 O   0  0  0  0  0  0  0  0  0  0  0  0
   59.2160   29.6270   49.5140 C   0  0  0  0  0  0  0  0  0  0  0  0
   59.3890   28.4470   48.6350 C   0  0  0  0  0  0  0  0  0  0  0  0
   60.3530   27.4700   48.9330 C   0  0  0  0  0  0  0  0  0  0  0  0
   60.4970   26.3460   48.1190 C   0  0  0  0  0  0  0  0  0  0  0  0
   59.6780   26.1790   47.0020 C   0  0  0  0  0  0  0  0  0  0  0  0
   58.7090   27.1450   46.6830 C   0  0  0  0  0  0  0  0  0  0  0  0
   57.8120   26.9510   45.4840 C   0  0  0  0  0  0  0  0  0  0  0  0
   58.1500   27.8230   44.3370 N   0  0  0  0  0  0  0  0  0  0  0  0
   59.4450   28.5410   44.4230 C   0  0  0  0  0  0  0  0  0  0  0  0
   59.3690   29.9100   45.1440 C   0  0  0  0  0  0  0  0  0  0  0  0
   58.0840   30.6180   44.8370 C   0  0  0  0  0  0  0  0  0  0  0  0
   57.6000   31.8610   45.2270 C   0  0  0  0  0  0  0  0  0  0  0  0
   58.2930   32.9300   45.9840 C   0  0  0  0  0  0  0  0  0  0  0  0
   58.9870   33.9300   45.2850 C   0  0  0  0  0  0  0  0  0  0  0  0
   59.6280   34.9520   45.9880 C   0  0  0  0  0  0  0  0  0  0  0  0
   59.6070   34.9660   47.3460 N   0  0  0  0  0  0  0  0  0  0  0  0
   58.9800   33.9880   48.0530 C   0  0  0  0  0  0  0  0  0  0  0  0
   58.3210   32.9500   47.3880 C   0  0  0  0  0  0  0  0  0  0  0  0
   56.2940   31.9390   44.8850 N   0  0  0  0  0  0  0  0  0  0  0  0
   55.9300   30.8030   44.3080 N   0  0  0  0  0  0  0  0  0  0  0  0
   56.9990   29.9900   44.2940 C   0  0  0  0  0  0  0  0  0  0  0  0
   57.0280   28.5970   43.7610 C   0  0  0  0  0  0  0  0  0  0  0  0
   58.5590   28.2680   47.5140 C   0  0  0  0  0  0  0  0  0  0  0  0
   60.2100   30.6670   49.5710 N   0  0  0  0  0  0  0  0  0  0  0  0
   60.4220   31.3930   50.8250 C   0  0  0  0  0  0  0  0  0  0  0  0
   60.7060   32.8630   50.5320 C   0  0  0  0  0  0  0  0  0  0  0  0
   61.7610   33.0230   49.4710 C   0  0  0  0  0  0  0  0  0  0  0  0
   62.4640   34.2360   49.3820 C   0  0  0  0  0  0  0  0  0  0  0  0
   63.4100   34.4330   48.3740 C   0  0  0  0  0  0  0  0  0  0  0  0
   63.6550   33.4270   47.4380 C   0  0  0  0  0  0  0  0  0  0  0  0
   62.9520   32.2220   47.5050 C   0  0  0  0  0  0  0  0  0  0  0  0
   61.9930   32.0130   48.5090 C   0  0  0  0  0  0  0  0  0  0  0  0
   61.2760   30.6830   48.5640 C   0  0  0  0  0  0  0  0  0  0  0  0
   60.9993   27.5919   49.8147 H   0  0  0  0  0  0  0  0  0  0  0  0
   61.2585   25.5893   48.3587 H   0  0  0  0  0  0  0  0  0  0  0  0
   59.7914   25.2871   46.3683 H   0  0  0  0  0  0  0  0  0  0  0  0
   57.8907   25.9034   45.1580 H   0  0  0  0  0  0  0  0  0  0  0  0
   56.7929   27.2185   45.8001 H   0  0  0  0  0  0  0  0  0  0  0  0
   60.1566   27.9036   44.9683 H   0  0  0  0  0  0  0  0  0  0  0  0
   59.7600   28.7468   43.3894 H   0  0  0  0  0  0  0  0  0  0  0  0
   59.4376   29.7472   46.2297 H   0  0  0  0  0  0  0  0  0  0  0  0
   60.2022   30.5349   44.7901 H   0  0  0  0  0  0  0  0  0  0  0  0
   59.0258   33.9086   44.1859 H   0  0  0  0  0  0  0  0  0  0  0  0
   60.1520   35.7489   45.4399 H   0  0  0  0  0  0  0  0  0  0  0  0
   60.0950   35.7350   47.8590 H   0  0  0  0  0  0  0  0  0  0  0  0
   58.9915   34.0139   49.1526 H   0  0  0  0  0  0  0  0  0  0  0  0
   57.8265   32.1524   47.9618 H   0  0  0  0  0  0  0  0  0  0  0  0
   56.0812   28.0972   44.0136 H   0  0  0  0  0  0  0  0  0  0  0  0
   57.1642   28.6458   42.6706 H   0  0  0  0  0  0  0  0  0  0  0  0
   57.7844   29.0148   47.2854 H   0  0  0  0  0  0  0  0  0  0  0  0
   59.5201   31.3132   51.4497 H   0  0  0  0  0  0  0  0  0  0  0  0
   61.2813   30.9567   51.3553 H   0  0  0  0  0  0  0  0  0  0  0  0
   59.7784   33.3441   50.1884 H   0  0  0  0  0  0  0  0  0  0  0  0
   61.0736   33.3330   51.4561 H   0  0  0  0  0  0  0  0  0  0  0  0
   62.2679   35.0359   50.1112 H   0  0  0  0  0  0  0  0  0  0  0  0
   63.9629   35.3823   48.3175 H   0  0  0  0  0  0  0  0  0  0  0  0
   64.4027   33.5834   46.6465 H   0  0  0  0  0  0  0  0  0  0  0  0
   63.1510   31.4315   46.7664 H   0  0  0  0  0  0  0  0  0  0  0  0
   60.8341   30.4782   47.5777 H   0  0  0  0  0  0  0  0  0  0  0  0
   62.0127   29.9146   48.8413 H   0  0  0  0  0  0  0  0  0  0  0  0
  1  2  2  0
  2  3  1  0
  3  4  2  0
  4  5  1  0
  5  6  2  0
  6  7  1  0
  7  8  1  0
  8  9  1  0
  9 10  1  0
 10 11  1  0
 11 12  1  0
 12 13  1  0
 13 14  1  0
 14 15  2  0
 15 16  1  0
 16 17  2  0
 17 18  1  0
 18 19  2  0
 13 20  2  0
 20 21  1  0
 21 22  1  0
 22 23  1  0
  7 24  2  0
  2 25  1  0
 25 26  1  0
 26 27  1  0
 27 28  1  0
 28 29  2  0
 29 30  1  0
 30 31  2  0
 31 32  1  0
 32 33  2  0
 33 34  1  0
 24  3  1  0
 34 25  1  0
 23  9  1  0
 33 28  1  0
 22 12  2  0
 19 14  1  0
  4 35  1  0
  5 36  1  0
  6 37  1  0
  8 38  1  0
  8 39  1  0
 10 40  1  0
 10 41  1  0
 11 42  1  0
 11 43  1  0
 15 44  1  0
 16 45  1  0
 17 46  1  0
 18 47  1  0
 19 48  1  0
 23 49  1  0
 23 50  1  0
 24 51  1  0
 26 52  1  0
 26 53  1  0
 27 54  1  0
 27 55  1  0
 29 56  1  0
 30 57  1  0
 31 58  1  0
 32 59  1  0
 34 60  1  0
 34 61  1  0
M  CHG  2  17   1  21  -1
M  END
>  <UniqueID>  (75) 
68

>  <SMILES>  (75) 
O=C(c1cccc(CN2CCc3c(-c4cc[nH+]cc4)n[n-]c3C2)c1)N1CCc2ccccc2C1

>  <Energy>  (75) 
116.95690617848933

>  <Genealogy>  (75) 
O=C(c1cccc(CN2CCc3c(-c4cc[nH+]cc4)n[n-]c3C2)c1)N1CCc2ccccc2C1 (protonated)
O=C(c1cccc(CN2CCc3c(-c4cc[nH+]cc4)n[n-]c3C2)c1)N1CCc2ccccc2C1 (3D coordinates assigned)
O=C(c1cccc(CN2CCc3c(-c4cc[nH+]cc4)n[n-]c3C2)c1)N1CCc2ccccc2C1 (nonaromatic ring conformer: 116.95690617848933 kcal/mol)

>  <smiles>  (75) 
O=C(c1cccc(CN2CCc3c(-c4ccncc4)n[nH]c3C2)c1)N1CCc2ccccc2C1

>  <score_type>  (75) 
oracle

>  <origin>  (75) 
adg

>  <m_score__min__energy>  (75) 
-12.779999999999999

>  <m_primary>  (75) 
energy

$$$$
76:0
     RDKit          3D

 31 33  0  0  0  0  0  0  0  0999 V2000
   56.1400   29.1220   44.8410 O   0  0  0  0  0  0  0  0  0  0  0  0
   57.0130   29.9830   45.1270 C   0  0  0  0  0  0  0  0  0  0  0  0
   58.2320   29.5820   45.6720 C   0  0  0  0  0  0  0  0  0  0  0  0
   59.2020   30.5430   45.9940 C   0  0  0  0  0  0  0  0  0  0  0  0
   60.5220   30.0460   46.5440 C   0  0  0  0  0  0  0  0  0  0  0  0
   60.6470   30.3510   48.3440 S   0  0  0  0  0  0  0  0  0  0  0  0
   61.8070   31.7130   48.2080 C   0  0  0  0  0  0  0  0  0  0  0  0
   62.8030   31.6850   47.2250 C   0  0  0  0  0  0  0  0  0  0  0  0
   63.6830   32.7620   47.1120 C   0  0  0  0  0  0  0  0  0  0  0  0
   63.5680   33.8450   47.9850 C   0  0  0  0  0  0  0  0  0  0  0  0
   62.5720   33.8310   48.9650 C   0  0  0  0  0  0  0  0  0  0  0  0
   61.7200   32.7730   49.0600 N   0  0  0  0  0  0  0  0  0  0  0  0
   58.9080   31.9090   45.7420 C   0  0  0  0  0  0  0  0  0  0  0  0
   59.8080   32.9660   46.0090 C   0  0  0  0  0  0  0  0  0  0  0  0
   59.4600   34.2860   45.7150 C   0  0  0  0  0  0  0  0  0  0  0  0
   58.2140   34.5800   45.1620 C   0  0  0  0  0  0  0  0  0  0  0  0
   57.3080   33.5540   44.8970 C   0  0  0  0  0  0  0  0  0  0  0  0
   57.6440   32.2250   45.1780 C   0  0  0  0  0  0  0  0  0  0  0  0
   56.7660   31.2660   44.9030 O   0  0  0  0  0  0  0  0  0  0  0  0
   58.4326   28.5150   45.8490 H   0  0  0  0  0  0  0  0  0  0  0  0
   60.6044   28.9652   46.3568 H   0  0  0  0  0  0  0  0  0  0  0  0
   61.3353   30.5902   46.0416 H   0  0  0  0  0  0  0  0  0  0  0  0
   62.8912   30.8224   46.5481 H   0  0  0  0  0  0  0  0  0  0  0  0
   64.4644   32.7575   46.3378 H   0  0  0  0  0  0  0  0  0  0  0  0
   64.2543   34.7007   47.9024 H   0  0  0  0  0  0  0  0  0  0  0  0
   62.4759   34.6769   49.6616 H   0  0  0  0  0  0  0  0  0  0  0  0
   60.9770   32.7850   49.7950 H   0  0  0  0  0  0  0  0  0  0  0  0
   60.7907   32.7468   46.4521 H   0  0  0  0  0  0  0  0  0  0  0  0
   60.1726   35.0983   45.9207 H   0  0  0  0  0  0  0  0  0  0  0  0
   57.9458   35.6223   44.9347 H   0  0  0  0  0  0  0  0  0  0  0  0
   56.3244   33.7903   44.4650 H   0  0  0  0  0  0  0  0  0  0  0  0
  1  2  2  0
  2  3  1  0
  3  4  2  0
  4  5  1  0
  5  6  1  0
  6  7  1  0
  7  8  2  0
  8  9  1  0
  9 10  2  0
 10 11  1  0
 11 12  2  0
  4 13  1  0
 13 14  2  0
 14 15  1  0
 15 16  2  0
 16 17  1  0
 17 18  2  0
 18 19  1  0
 19  2  1  0
 12  7  1  0
 18 13  1  0
  3 20  1  0
  5 21  1  0
  5 22  1  0
  8 23  1  0
  9 24  1  0
 10 25  1  0
 11 26  1  0
 12 27  1  0
 14 28  1  0
 15 29  1  0
 16 30  1  0
 17 31  1  0
M  CHG  1  12   1
M  END
>  <UniqueID>  (76) 
69

>  <SMILES>  (76) 
O=c1cc(CSc2cccc[nH+]2)c2ccccc2o1

>  <Energy>  (76) 
35.054982628576965

>  <Genealogy>  (76) 
O=c1cc(CSc2cccc[nH+]2)c2ccccc2o1 (protonated)
O=c1cc(CSc2cccc[nH+]2)c2ccccc2o1 (3D coordinates assigned)
O=c1cc(CSc2cccc[nH+]2)c2ccccc2o1 (optimized conformer: 35.054982628576965 kcal/mol)

>  <smiles>  (76) 
O=c1cc(CSc2ccccn2)c2ccccc2o1

>  <score_type>  (76) 
oracle

>  <origin>  (76) 
adg

>  <m_score__min__energy>  (76) 
-5.7999999999999998

>  <m_primary>  (76) 
energy

$$$$
77:0
     RDKit          3D

 34 35  0  0  0  0  0  0  0  0999 V2000
   56.4348   34.1547   44.8285 H   0  0  0  0  0  0  0  0  0  0  0  0
   57.3720   33.5790   44.8150 C   0  0  0  0  0  0  0  0  0  0  0  0
   58.5070   34.2340   45.0990 C   0  0  0  0  0  0  0  0  0  0  0  0
   58.8487   34.9917   44.3785 H   0  0  0  0  0  0  0  0  0  0  0  0
   59.3350   34.0180   46.3040 C   0  0  0  0  0  0  0  0  0  0  0  0
   58.7120   33.6690   47.5090 C   0  0  0  0  0  0  0  0  0  0  0  0
   57.6158   33.5896   47.5544 H   0  0  0  0  0  0  0  0  0  0  0  0
   59.4800   33.4190   48.6630 C   0  0  0  0  0  0  0  0  0  0  0  0
   58.8990   33.0850   49.8960 O   0  0  0  0  0  0  0  0  0  0  0  0
   59.4200   33.4770   51.1630 C   0  0  0  0  0  0  0  0  0  0  0  0
   58.8172   33.0234   51.9636 H   0  0  0  0  0  0  0  0  0  0  0  0
   60.4625   33.1374   51.2518 H   0  0  0  0  0  0  0  0  0  0  0  0
   59.3825   34.5728   51.2518 H   0  0  0  0  0  0  0  0  0  0  0  0
   60.8760   33.5020   48.5890 C   0  0  0  0  0  0  0  0  0  0  0  0
   61.4811   33.3175   49.4889 H   0  0  0  0  0  0  0  0  0  0  0  0
   61.5120   33.8190   47.3750 C   0  0  0  0  0  0  0  0  0  0  0  0
   62.9080   33.8990   47.2560 O   0  0  0  0  0  0  0  0  0  0  0  0
   63.7710   32.7710   47.1330 C   0  0  0  0  0  0  0  0  0  0  0  0
   64.0473   32.4098   48.1346 H   0  0  0  0  0  0  0  0  0  0  0  0
   63.2525   31.9707   46.5848 H   0  0  0  0  0  0  0  0  0  0  0  0
   64.6791   33.0621   46.5848 H   0  0  0  0  0  0  0  0  0  0  0  0
   60.7360   34.0630   46.2380 C   0  0  0  0  0  0  0  0  0  0  0  0
   61.2288   34.2926   45.2817 H   0  0  0  0  0  0  0  0  0  0  0  0
   57.2870   32.1400   44.4850 C   0  0  0  0  0  0  0  0  0  0  0  0
   57.0600   31.1800   45.3530 O   0  0  0  0  0  0  0  0  0  0  0  0
   57.0840   30.0240   44.7280 C   0  0  0  0  0  0  0  0  0  0  0  0
   56.9212   29.0451   45.2027 H   0  0  0  0  0  0  0  0  0  0  0  0
   57.3440   30.2220   43.3870 C   0  0  0  0  0  0  0  0  0  0  0  0
   57.4316   29.4524   42.6059 H   0  0  0  0  0  0  0  0  0  0  0  0
   57.4710   31.5870   43.2310 C   0  0  0  0  0  0  0  0  0  0  0  0
   57.7960   32.3070   41.9600 C   0  0  0  0  0  0  0  0  0  0  0  0
   58.2380   33.2862   42.1960 H   0  0  0  0  0  0  0  0  0  0  0  0
   58.5131   31.7125   41.3749 H   0  0  0  0  0  0  0  0  0  0  0  0
   56.8758   32.4515   41.3749 H   0  0  0  0  0  0  0  0  0  0  0  0
  1  2  1  0
  2  3  2  0
  3  4  1  0
  3  5  1  0
  5  6  2  0
  6  7  1  0
  6  8  1  0
  8  9  1  0
  9 10  1  0
 10 11  1  0
 10 12  1  0
 10 13  1  0
  8 14  2  0
 14 15  1  0
 14 16  1  0
 16 17  1  0
 17 18  1  0
 18 19  1  0
 18 20  1  0
 18 21  1  0
 16 22  2  0
 22 23  1  0
  2 24  1  0
 24 25  1  0
 25 26  1  0
 26 27  1  0
 26 28  2  0
 28 29  1  0
 28 30  1  0
 30 31  1  0
 31 32  1  0
 31 33  1  0
 31 34  1  0
 22  5  1  0
 30 24  2  0
M  END
>  <UniqueID>  (77) 
70

>  <SMILES>  (77) 
COc1cc(/C=C\c2occc2C)cc(OC)c1

>  <Energy>  (77) 
64.50587675426272

>  <Genealogy>  (77) 
COc1cc(/C=C\c2occc2C)cc(OC)c1 (cis-trans isomerization)
COc1cc(/C=C\c2occc2C)cc(OC)c1 (3D coordinates assigned)
COc1cc(/C=C\c2occc2C)cc(OC)c1 (optimized conformer: 64.50587675426272 kcal/mol)

>  <smiles>  (77) 
COc1cc(C=Cc2occc2C)cc(OC)c1

>  <score_type>  (77) 
oracle

>  <origin>  (77) 
adg

>  <m_score__min__energy>  (77) 
-6.2999999999999998

>  <m_primary>  (77) 
energy

$$$$
78:0
     RDKit          3D

 27 28  0  0  0  0  0  0  0  0999 V2000
   63.9890   33.1610   48.0880 C   0  0  0  0  0  0  0  0  0  0  0  0
   63.1040   33.8530   47.2120 O   0  0  0  0  0  0  0  0  0  0  0  0
   61.7030   33.8130   47.3040 C   0  0  0  0  0  0  0  0  0  0  0  0
   60.8910   33.4180   46.2220 C   0  0  0  0  0  0  0  0  0  0  0  0
   59.4900   33.3790   46.3550 C   0  0  0  0  0  0  0  0  0  0  0  0
   58.6260   32.9770   45.2180 C   0  0  0  0  0  0  0  0  0  0  0  0
   58.5850   33.7140   44.1950 O   0  0  0  0  0  0  0  0  0  0  0  0
   57.8090   31.7390   45.2410 C   0  0  0  0  0  0  0  0  0  0  0  0
   58.2360   30.6220   45.9760 C   0  0  0  0  0  0  0  0  0  0  0  0
   57.4750   29.4520   45.9820 C   0  0  0  0  0  0  0  0  0  0  0  0
   56.2930   29.4010   45.2410 C   0  0  0  0  0  0  0  0  0  0  0  0
   55.5230   28.2460   45.2360 O   0  0  0  0  0  0  0  0  0  0  0  0
   55.8980   30.4820   44.5180 N   0  0  0  0  0  0  0  0  0  0  0  0
   56.6200   31.6340   44.4970 C   0  0  0  0  0  0  0  0  0  0  0  0
   58.9080   33.7700   47.5720 C   0  0  0  0  0  0  0  0  0  0  0  0
   59.7110   34.1630   48.6450 C   0  0  0  0  0  0  0  0  0  0  0  0
   61.1020   34.1830   48.5140 C   0  0  0  0  0  0  0  0  0  0  0  0
   61.8880   34.5730   49.5910 O   0  0  0  0  0  0  0  0  0  0  0  0
   63.7144   33.3757   49.1313 H   0  0  0  0  0  0  0  0  0  0  0  0
   63.9147   32.0790   47.9045 H   0  0  0  0  0  0  0  0  0  0  0  0
   65.0212   33.4940   47.9045 H   0  0  0  0  0  0  0  0  0  0  0  0
   61.3559   33.1377   45.2653 H   0  0  0  0  0  0  0  0  0  0  0  0
   59.1736   30.6689   46.5493 H   0  0  0  0  0  0  0  0  0  0  0  0
   57.8034   28.5788   46.5648 H   0  0  0  0  0  0  0  0  0  0  0  0
   56.2728   32.4872   43.8958 H   0  0  0  0  0  0  0  0  0  0  0  0
   57.8134   33.7667   47.6807 H   0  0  0  0  0  0  0  0  0  0  0  0
   59.2464   34.4581   49.5974 H   0  0  0  0  0  0  0  0  0  0  0  0
  1  2  1  0
  2  3  1  0
  3  4  2  0
  4  5  1  0
  5  6  1  0
  6  7  2  0
  6  8  1  0
  8  9  2  0
  9 10  1  0
 10 11  2  0
 11 12  1  0
 11 13  1  0
 13 14  2  0
  5 15  2  0
 15 16  1  0
 16 17  2  0
 17 18  1  0
 17  3  1  0
 14  8  1  0
  1 19  1  0
  1 20  1  0
  1 21  1  0
  4 22  1  0
  9 23  1  0
 10 24  1  0
 14 25  1  0
 15 26  1  0
 16 27  1  0
M  CHG  2  12  -1  18  -1
M  END
>  <UniqueID>  (78) 
71

>  <SMILES>  (78) 
COc1cc(C(=O)c2ccc([O-])nc2)ccc1[O-]

>  <Energy>  (78) 
34.43511617720126

>  <Genealogy>  (78) 
COc1cc(C(=O)c2ccc([O-])nc2)ccc1[O-] (protonated)
COc1cc(C(=O)c2ccc([O-])nc2)ccc1[O-] (3D coordinates assigned)
COc1cc(C(=O)c2ccc([O-])nc2)ccc1[O-] (optimized conformer: 34.43511617720126 kcal/mol)

>  <smiles>  (78) 
COc1cc(C(=O)c2ccc([O-])nc2)ccc1O

>  <score_type>  (78) 
oracle

>  <origin>  (78) 
adg

>  <m_score__min__energy>  (78) 
-10.9

>  <m_primary>  (78) 
energy

$$$$
79:0
     RDKit          3D

 35 36  0  0  0  0  0  0  0  0999 V2000
   53.7777   24.8520   45.8529 H   0  0  0  0  0  0  0  0  0  0  0  0
   54.8170   25.1420   45.6390 C   0  0  0  0  0  0  0  0  0  0  0  0
   55.2940   26.3380   46.0790 N   0  0  0  0  0  0  0  0  0  0  0  0
   56.5750   26.7380   45.8360 C   0  0  0  0  0  0  0  0  0  0  0  0
   57.0210   27.8850   46.2620 N   0  0  0  0  0  0  0  0  0  0  0  0
   58.1670   28.6050   45.7780 C   0  0  0  0  0  0  0  0  0  0  0  0
   59.2600   28.0100   45.5780 O   0  0  0  0  0  0  0  0  0  0  0  0
   58.0760   30.0630   45.5310 C   0  0  0  0  0  0  0  0  0  0  0  0
   57.0710   30.7150   44.8330 C   0  0  0  0  0  0  0  0  0  0  0  0
   55.6300   29.9810   44.0530 S   0  0  0  0  0  0  0  0  0  0  0  0
   56.5700   29.3990   42.6070 C   0  0  0  0  0  0  0  0  0  0  0  0
   57.4598   28.8481   42.9456 H   0  0  0  0  0  0  0  0  0  0  0  0
   55.9363   28.7350   42.0008 H   0  0  0  0  0  0  0  0  0  0  0  0
   56.8819   30.2622   42.0008 H   0  0  0  0  0  0  0  0  0  0  0  0
   57.3470   32.0290   44.7840 N   0  0  0  0  0  0  0  0  0  0  0  0
   56.7680   32.7610   44.3190 H   0  0  0  0  0  0  0  0  0  0  0  0
   58.5160   32.1790   45.4440 C   0  0  0  0  0  0  0  0  0  0  0  0
   59.2110   33.5050   45.6560 C   0  0  0  0  0  0  0  0  0  0  0  0
   59.0866   34.1116   44.7468 H   0  0  0  0  0  0  0  0  0  0  0  0
   60.2667   33.2839   45.8717 H   0  0  0  0  0  0  0  0  0  0  0  0
   58.6700   34.2980   46.8420 C   0  0  0  0  0  0  0  0  0  0  0  0
   58.9943   33.8227   47.7795 H   0  0  0  0  0  0  0  0  0  0  0  0
   59.0548   35.3277   46.8008 H   0  0  0  0  0  0  0  0  0  0  0  0
   57.5709   34.3154   46.8008 H   0  0  0  0  0  0  0  0  0  0  0  0
   58.9760   30.9980   45.9290 N   0  0  0  0  0  0  0  0  0  0  0  0
   60.1920   30.7830   46.7170 C   0  0  0  0  0  0  0  0  0  0  0  0
   59.9470   30.8263   47.7885 H   0  0  0  0  0  0  0  0  0  0  0  0
   60.6147   29.7962   46.4771 H   0  0  0  0  0  0  0  0  0  0  0  0
   60.9274   31.5650   46.4771 H   0  0  0  0  0  0  0  0  0  0  0  0
   57.4340   25.8990   45.1150 C   0  0  0  0  0  0  0  0  0  0  0  0
   58.4703   26.2075   44.9128 H   0  0  0  0  0  0  0  0  0  0  0  0
   56.9630   24.6670   44.6550 C   0  0  0  0  0  0  0  0  0  0  0  0
   57.6288   24.0001   44.0876 H   0  0  0  0  0  0  0  0  0  0  0  0
   55.6470   24.2830   44.9160 C   0  0  0  0  0  0  0  0  0  0  0  0
   55.2680   23.3150   44.5564 H   0  0  0  0  0  0  0  0  0  0  0  0
  1  2  1  0
  2  3  1  0
  3  4  1  0
  4  5  2  0
  5  6  1  0
  6  7  2  0
  6  8  1  0
  8  9  2  0
  9 10  1  0
 10 11  1  0
 11 12  1  0
 11 13  1  0
 11 14  1  0
  9 15  1  0
 15 16  1  0
 15 17  2  0
 17 18  1  0
 18 19  1  0
 18 20  1  0
 18 21  1  0
 21 22  1  0
 21 23  1  0
 21 24  1  0
 17 25  1  0
 25 26  1  0
 26 27  1  0
 26 28  1  0
 26 29  1  0
  4 30  1  0
 30 31  1  0
 30 32  2  0
 32 33  1  0
 32 34  1  0
 34 35  1  0
 34  2  2  0
 25  8  1  0
M  CHG  2   3  -1  15   1
M  END
>  <UniqueID>  (79) 
72

>  <SMILES>  (79) 
CCc1[nH+]c(SC)c(C(=O)/N=c2/cccc[n-]2)n1C

>  <Energy>  (79) 
65.41493021841845

>  <Genealogy>  (79) 
CCc1[nH+]c(SC)c(C(=O)N=c2cccc[n-]2)n1C (protonated)
CCc1[nH+]c(SC)c(C(=O)/N=c2/cccc[n-]2)n1C (cis-trans isomerization)
CCc1[nH+]c(SC)c(C(=O)/N=c2/cccc[n-]2)n1C (3D coordinates assigned)
CCc1[nH+]c(SC)c(C(=O)/N=c2/cccc[n-]2)n1C (optimized conformer: 65.41493021841845 kcal/mol)

>  <smiles>  (79) 
CCc1nc(SC)c(C(=O)N=c2cccc[nH]2)n1C

>  <score_type>  (79) 
oracle

>  <origin>  (79) 
adg

>  <m_score__min__energy>  (79) 
-6.4800000000000004

>  <m_primary>  (79) 
energy

$$$$
80:0
     RDKit          3D

 48 50  0  0  0  0  0  0  0  0999 V2000
   63.4170   34.3940   51.1850 C   0  0  0  0  0  0  0  0  0  0  0  0
   64.0080   33.0050   51.2000 C   0  0  0  0  0  0  0  0  0  0  0  0
   64.3910   32.5450   49.8340 C   0  0  0  0  0  0  0  0  0  0  0  0
   63.2780   32.2250   48.9660 N   0  0  0  0  0  0  0  0  0  0  0  0
   62.5260   31.1190   49.0910 C   0  0  0  0  0  0  0  0  0  0  0  0
   62.7620   30.2920   49.9790 O   0  0  0  0  0  0  0  0  0  0  0  0
   61.4720   30.8730   48.2360 C   0  0  0  0  0  0  0  0  0  0  0  0
   60.5650   29.8720   48.1230 N   0  0  0  0  0  0  0  0  0  0  0  0
   59.7290   30.1150   47.0980 C   0  0  0  0  0  0  0  0  0  0  0  0
   58.6400   29.2320   46.7110 C   0  0  0  0  0  0  0  0  0  0  0  0
   58.6800   27.9170   47.1250 C   0  0  0  0  0  0  0  0  0  0  0  0
   57.6600   27.0680   46.7690 C   0  0  0  0  0  0  0  0  0  0  0  0
   56.5980   27.5280   46.0000 C   0  0  0  0  0  0  0  0  0  0  0  0
   55.5640   26.6430   45.6470 O   0  0  0  0  0  0  0  0  0  0  0  0
   56.5500   28.8350   45.5840 C   0  0  0  0  0  0  0  0  0  0  0  0
   55.4660   29.2270   44.8210 O   0  0  0  0  0  0  0  0  0  0  0  0
   55.5610   29.7240   43.5010 C   0  0  0  0  0  0  0  0  0  0  0  0
   57.5790   29.6750   45.9480 C   0  0  0  0  0  0  0  0  0  0  0  0
   60.1070   31.2830   46.5520 N   0  0  0  0  0  0  0  0  0  0  0  0
   61.1830   31.7710   47.2390 C   0  0  0  0  0  0  0  0  0  0  0  0
   61.9420   32.8770   47.1210 N   0  0  0  0  0  0  0  0  0  0  0  0
   61.6380   33.8320   46.0630 C   0  0  0  0  0  0  0  0  0  0  0  0
   60.3580   34.6030   46.3300 C   0  0  0  0  0  0  0  0  0  0  0  0
   59.3510   34.2290   45.2580 C   0  0  0  0  0  0  0  0  0  0  0  0
   62.9750   33.1060   47.9690 C   0  0  0  0  0  0  0  0  0  0  0  0
   63.6660   34.1320   47.8450 O   0  0  0  0  0  0  0  0  0  0  0  0
   63.2694   34.7409   52.2184 H   0  0  0  0  0  0  0  0  0  0  0  0
   64.1019   35.0783   50.6628 H   0  0  0  0  0  0  0  0  0  0  0  0
   62.4490   34.3750   50.6628 H   0  0  0  0  0  0  0  0  0  0  0  0
   64.9041   33.0074   51.8380 H   0  0  0  0  0  0  0  0  0  0  0  0
   63.2442   32.3154   51.5886 H   0  0  0  0  0  0  0  0  0  0  0  0
   64.9786   33.3430   49.3566 H   0  0  0  0  0  0  0  0  0  0  0  0
   64.9560   31.6110   49.9694 H   0  0  0  0  0  0  0  0  0  0  0  0
   60.5820   29.0590   48.7830 H   0  0  0  0  0  0  0  0  0  0  0  0
   59.5200   27.5516   47.7340 H   0  0  0  0  0  0  0  0  0  0  0  0
   57.6843   26.0176   47.0948 H   0  0  0  0  0  0  0  0  0  0  0  0
   54.8140   27.0850   45.1130 H   0  0  0  0  0  0  0  0  0  0  0  0
   55.7675   30.8041   43.5298 H   0  0  0  0  0  0  0  0  0  0  0  0
   56.3769   29.2087   42.9730 H   0  0  0  0  0  0  0  0  0  0  0  0
   54.6126   29.5460   42.9730 H   0  0  0  0  0  0  0  0  0  0  0  0
   57.5544   30.7254   45.6223 H   0  0  0  0  0  0  0  0  0  0  0  0
   62.4705   34.5465   45.9821 H   0  0  0  0  0  0  0  0  0  0  0  0
   61.5004   33.2662   45.1297 H   0  0  0  0  0  0  0  0  0  0  0  0
   59.9628   34.3379   47.3217 H   0  0  0  0  0  0  0  0  0  0  0  0
   60.5532   35.6853   46.3090 H   0  0  0  0  0  0  0  0  0  0  0  0
   58.4210   33.8836   45.7331 H   0  0  0  0  0  0  0  0  0  0  0  0
   59.1384   35.1081   44.6319 H   0  0  0  0  0  0  0  0  0  0  0  0
   59.7638   33.4242   44.6319 H   0  0  0  0  0  0  0  0  0  0  0  0
  1  2  1  0
  2  3  1  0
  3  4  1  0
  4  5  1  0
  5  6  2  0
  5  7  1  0
  7  8  1  0
  8  9  1  0
  9 10  1  0
 10 11  2  0
 11 12  1  0
 12 13  2  0
 13 14  1  0
 13 15  1  0
 15 16  1  0
 16 17  1  0
 15 18  2  0
  9 19  2  0
 19 20  1  0
 20 21  1  0
 21 22  1  0
 22 23  1  0
 23 24  1  0
 21 25  1  0
 25 26  2  0
 25  4  1  0
 20  7  2  0
 18 10  1  0
  1 27  1  0
  1 28  1  0
  1 29  1  0
  2 30  1  0
  2 31  1  0
  3 32  1  0
  3 33  1  0
  8 34  1  0
 11 35  1  0
 12 36  1  0
 14 37  1  0
 17 38  1  0
 17 39  1  0
 17 40  1  0
 18 41  1  0
 22 42  1  0
 22 43  1  0
 23 44  1  0
 23 45  1  0
 24 46  1  0
 24 47  1  0
 24 48  1  0
M  END
>  <smiles>  (80) 
CCCn1c(=O)c2[nH]c(-c3ccc(O)c(OC)c3)nc2n(CCC)c1=O

>  <score_type>  (80) 
oracle

>  <origin>  (80) 
adg

>  <m_score__min__energy>  (80) 
-6.8700000000000001

>  <m_primary>  (80) 
energy

$$$$
81:0
     RDKit          3D

 34 36  0  0  0  0  0  0  0  0999 V2000
   56.5820   29.4600   42.6370 N   0  0  0  0  0  0  0  0  0  0  0  0
   56.9730   29.7500   43.9800 C   0  0  0  0  0  0  0  0  0  0  0  0
   56.1030   30.0980   44.8220 O   0  0  0  0  0  0  0  0  0  0  0  0
   58.4150   29.6880   44.3810 C   0  0  0  0  0  0  0  0  0  0  0  0
   58.6330   30.4680   45.6470 C   0  0  0  0  0  0  0  0  0  0  0  0
   58.5110   29.8410   46.8920 C   0  0  0  0  0  0  0  0  0  0  0  0
   58.6930   30.5670   48.0700 C   0  0  0  0  0  0  0  0  0  0  0  0
   59.0010   31.9400   48.0390 C   0  0  0  0  0  0  0  0  0  0  0  0
   59.0710   32.5840   46.7730 C   0  0  0  0  0  0  0  0  0  0  0  0
   58.9050   31.8410   45.5970 C   0  0  0  0  0  0  0  0  0  0  0  0
   59.4650   34.3250   46.5930 S   0  0  0  0  0  0  0  0  0  0  0  0
   61.1260   34.0050   47.1780 C   0  0  0  0  0  0  0  0  0  0  0  0
   62.1920   33.9100   46.2760 C   0  0  0  0  0  0  0  0  0  0  0  0
   63.4680   33.5730   46.7370 C   0  0  0  0  0  0  0  0  0  0  0  0
   63.6770   33.3140   48.0960 C   0  0  0  0  0  0  0  0  0  0  0  0
   62.6110   33.3950   48.9970 C   0  0  0  0  0  0  0  0  0  0  0  0
   61.3290   33.7460   48.5440 C   0  0  0  0  0  0  0  0  0  0  0  0
   60.1610   33.8260   49.4960 C   0  0  0  0  0  0  0  0  0  0  0  0
   59.1640   32.6470   49.3850 C   0  0  0  0  0  0  0  0  0  0  0  0
   55.5790   29.5190   42.3560 H   0  0  0  0  0  0  0  0  0  0  0  0
   57.2930   29.1890   41.9230 H   0  0  0  0  0  0  0  0  0  0  0  0
   58.7020   28.6390   44.5460 H   0  0  0  0  0  0  0  0  0  0  0  0
   59.0305   30.1228   43.5797 H   0  0  0  0  0  0  0  0  0  0  0  0
   58.2701   28.7689   46.9426 H   0  0  0  0  0  0  0  0  0  0  0  0
   58.5940   30.0572   49.0397 H   0  0  0  0  0  0  0  0  0  0  0  0
   58.9894   32.3425   44.6216 H   0  0  0  0  0  0  0  0  0  0  0  0
   62.0259   34.1003   45.2054 H   0  0  0  0  0  0  0  0  0  0  0  0
   64.3088   33.5114   46.0304 H   0  0  0  0  0  0  0  0  0  0  0  0
   64.6813   33.0463   48.4560 H   0  0  0  0  0  0  0  0  0  0  0  0
   62.7770   33.1832   50.0636 H   0  0  0  0  0  0  0  0  0  0  0  0
   60.5549   33.8480   50.5228 H   0  0  0  0  0  0  0  0  0  0  0  0
   59.6021   34.7358   49.2317 H   0  0  0  0  0  0  0  0  0  0  0  0
   59.4821   31.8859   50.1127 H   0  0  0  0  0  0  0  0  0  0  0  0
   58.1830   33.1130   49.5594 H   0  0  0  0  0  0  0  0  0  0  0  0
  1  2  1  0
  2  3  2  0
  2  4  1  0
  4  5  1  0
  5  6  2  0
  6  7  1  0
  7  8  2  0
  8  9  1  0
  9 10  2  0
  9 11  1  0
 11 12  1  0
 12 13  2  0
 13 14  1  0
 14 15  2  0
 15 16  1  0
 16 17  2  0
 17 18  1  0
 18 19  1  0
 10  5  1  0
 17 12  1  0
 19  8  1  0
  1 20  1  0
  1 21  1  0
  4 22  1  0
  4 23  1  0
  6 24  1  0
  7 25  1  0
 10 26  1  0
 13 27  1  0
 14 28  1  0
 15 29  1  0
 16 30  1  0
 18 31  1  0
 18 32  1  0
 19 33  1  0
 19 34  1  0
M  END
>  <UniqueID>  (81) 
73

>  <SMILES>  (81) 
NC(=O)Cc1ccc2c(c1)Sc1ccccc1CC2

>  <Energy>  (81) 
42.244654753095894

>  <Genealogy>  (81) 
NC(=O)Cc1ccc2c(c1)Sc1ccccc1CC2 (3D coordinates assigned)
NC(=O)Cc1ccc2c(c1)Sc1ccccc1CC2 (nonaromatic ring conformer: 42.244654753095894 kcal/mol)

>  <smiles>  (81) 
NC(=O)Cc1ccc2c(c1)Sc1ccccc1CC2

>  <score_type>  (81) 
oracle

>  <origin>  (81) 
adg

>  <m_score__min__energy>  (81) 
-7

>  <m_primary>  (81) 
energy

$$$$
82:0
     RDKit          3D

 53 55  0  0  0  0  0  0  0  0999 V2000
   55.5770   23.2970   43.6950 C   0  0  0  0  0  0  0  0  0  0  0  0
   54.6840   23.7080   44.6000 C   0  0  0  0  0  0  0  0  0  0  0  0
   54.3760   22.9020   45.8430 C   0  0  0  0  0  0  0  0  0  0  0  0
   54.9760   23.4570   47.0800 N   0  0  0  0  0  0  0  0  0  0  0  0
   54.4200   22.8320   48.3040 C   0  0  0  0  0  0  0  0  0  0  0  0
   53.2680   21.9080   47.9870 C   0  0  0  0  0  0  0  0  0  0  0  0
   52.0370   22.1660   48.4360 C   0  0  0  0  0  0  0  0  0  0  0  0
   56.4270   23.3650   47.0480 C   0  0  0  0  0  0  0  0  0  0  0  0
   56.9980   22.3220   47.4770 O   0  0  0  0  0  0  0  0  0  0  0  0
   57.2640   24.4860   46.5400 C   0  0  0  0  0  0  0  0  0  0  0  0
   58.6500   24.3240   46.3780 C   0  0  0  0  0  0  0  0  0  0  0  0
   59.4150   25.3440   45.9110 N   0  0  0  0  0  0  0  0  0  0  0  0
   58.8870   26.5500   45.5850 C   0  0  0  0  0  0  0  0  0  0  0  0
   59.7190   27.5690   45.1100 C   0  0  0  0  0  0  0  0  0  0  0  0
   59.1850   28.8180   44.7880 C   0  0  0  0  0  0  0  0  0  0  0  0
   57.8130   29.0610   44.9370 C   0  0  0  0  0  0  0  0  0  0  0  0
   57.1680   30.6710   44.6240 S   0  0  0  0  0  0  0  0  0  0  0  0
   55.6950   30.5660   44.3420 O   0  0  0  0  0  0  0  0  0  0  0  0
   57.8480   31.2540   43.4150 O   0  0  0  0  0  0  0  0  0  0  0  0
   57.4090   31.7300   45.9800 N   0  0  0  0  0  0  0  0  0  0  0  0
   58.5570   32.5760   46.1200 C   0  0  0  0  0  0  0  0  0  0  0  0
   59.7240   32.1040   46.7430 C   0  0  0  0  0  0  0  0  0  0  0  0
   60.8610   32.9220   46.8550 C   0  0  0  0  0  0  0  0  0  0  0  0
   62.1420   32.3700   47.4320 C   0  0  0  0  0  0  0  0  0  0  0  0
   62.1900   31.0050   47.2070 F   0  0  0  0  0  0  0  0  0  0  0  0
   62.2060   32.6040   48.7950 F   0  0  0  0  0  0  0  0  0  0  0  0
   63.2440   32.9630   46.8380 F   0  0  0  0  0  0  0  0  0  0  0  0
   60.8150   34.2260   46.3330 C   0  0  0  0  0  0  0  0  0  0  0  0
   59.6390   34.7160   45.7570 C   0  0  0  0  0  0  0  0  0  0  0  0
   58.5070   33.8990   45.6560 C   0  0  0  0  0  0  0  0  0  0  0  0
   57.0520   34.5360   44.9020 Cl  0  0  0  0  0  0  0  0  0  0  0  0
   56.9730   28.0400   45.4050 C   0  0  0  0  0  0  0  0  0  0  0  0
   57.5020   26.7780   45.7340 C   0  0  0  0  0  0  0  0  0  0  0  0
   56.6880   25.7330   46.2150 C   0  0  0  0  0  0  0  0  0  0  0  0
   55.4440   25.9080   46.3390 O   0  0  0  0  0  0  0  0  0  0  0  0
   55.7766   23.9081   42.8024 H   0  0  0  0  0  0  0  0  0  0  0  0
   56.1126   22.3476   43.8426 H   0  0  0  0  0  0  0  0  0  0  0  0
   54.1575   24.6599   44.4367 H   0  0  0  0  0  0  0  0  0  0  0  0
   53.2842   22.8676   45.9723 H   0  0  0  0  0  0  0  0  0  0  0  0
   54.8140   21.9040   45.6944 H   0  0  0  0  0  0  0  0  0  0  0  0
   54.6990   24.4670   47.1120 H   0  0  0  0  0  0  0  0  0  0  0  0
   55.2134   22.2546   48.8011 H   0  0  0  0  0  0  0  0  0  0  0  0
   54.0461   23.6335   48.9581 H   0  0  0  0  0  0  0  0  0  0  0  0
   53.4455   21.0096   47.3775 H   0  0  0  0  0  0  0  0  0  0  0  0
   51.2094   21.4824   48.1957 H   0  0  0  0  0  0  0  0  0  0  0  0
   51.8507   23.0621   49.0461 H   0  0  0  0  0  0  0  0  0  0  0  0
   59.1197   23.3622   46.6317 H   0  0  0  0  0  0  0  0  0  0  0  0
   60.7970   27.3858   44.9898 H   0  0  0  0  0  0  0  0  0  0  0  0
   59.8446   29.6155   44.4154 H   0  0  0  0  0  0  0  0  0  0  0  0
   59.7482   31.0816   47.1481 H   0  0  0  0  0  0  0  0  0  0  0  0
   61.7094   34.8648   46.3778 H   0  0  0  0  0  0  0  0  0  0  0  0
   59.6032   35.7492   45.3812 H   0  0  0  0  0  0  0  0  0  0  0  0
   55.8946   28.2267   45.5155 H   0  0  0  0  0  0  0  0  0  0  0  0
  1  2  2  0
  2  3  1  0
  3  4  1  0
  4  5  1  0
  5  6  1  0
  6  7  2  0
  4  8  1  0
  8  9  2  0
  8 10  1  0
 10 11  2  0
 11 12  1  0
 12 13  1  0
 13 14  2  0
 14 15  1  0
 15 16  2  0
 16 17  1  0
 17 18  2  0
 17 19  2  0
 17 20  1  0
 20 21  1  0
 21 22  2  0
 22 23  1  0
 23 24  1  0
 24 25  1  0
 24 26  1  0
 24 27  1  0
 23 28  2  0
 28 29  1  0
 29 30  2  0
 30 31  1  0
 16 32  1  0
 32 33  2  0
 33 34  1  0
 34 35  2  0
 34 10  1  0
 33 13  1  0
 30 21  1  0
  1 36  1  0
  1 37  1  0
  2 38  1  0
  3 39  1  0
  3 40  1  0
  4 41  1  0
  5 42  1  0
  5 43  1  0
  6 44  1  0
  7 45  1  0
  7 46  1  0
 11 47  1  0
 14 48  1  0
 15 49  1  0
 22 50  1  0
 28 51  1  0
 29 52  1  0
 32 53  1  0
M  CHG  3   4   1  12  -1  20  -1
M  END
>  <UniqueID>  (82) 
74

>  <SMILES>  (82) 
C=CC[NH+](CC=C)C(=O)c1c[n-]c2ccc(S(=O)(=O)[N-]c3cc(C(F)(F)F)ccc3Cl)cc2c1=O

>  <Energy>  (82) 
73.80324985398377

>  <Genealogy>  (82) 
C=CC[NH+](CC=C)C(=O)c1c[n-]c2ccc(S(=O)(=O)[N-]c3cc(C(F)(F)F)ccc3Cl)cc2c1=O (protonated)
C=CC[NH+](CC=C)C(=O)c1c[n-]c2ccc(S(=O)(=O)[N-]c3cc(C(F)(F)F)ccc3Cl)cc2c1=O (3D coordinates assigned)
C=CC[NH+](CC=C)C(=O)c1c[n-]c2ccc(S(=O)(=O)[N-]c3cc(C(F)(F)F)ccc3Cl)cc2c1=O (optimized conformer: 73.80324985398377 kcal/mol)

>  <smiles>  (82) 
C=CCN(CC=C)C(=O)c1c[nH]c2ccc(S(=O)(=O)Nc3cc(C(F)(F)F)ccc3Cl)cc2c1=O

>  <score_type>  (82) 
oracle

>  <origin>  (82) 
adg

>  <m_score__min__energy>  (82) 
-9.75

>  <m_primary>  (82) 
energy

$$$$
83:0
     RDKit          3D

 48 50  0  0  0  0  0  0  0  0999 V2000
   57.3780   27.2460   46.2520 C   0  0  0  0  0  0  0  0  0  0  0  0
   58.4330   28.0240   45.5250 C   0  0  0  0  0  0  0  0  0  0  0  0
   59.7620   28.0980   45.8990 C   0  0  0  0  0  0  0  0  0  0  0  0
   60.3370   28.9680   44.9900 C   0  0  0  0  0  0  0  0  0  0  0  0
   59.3890   29.3910   44.1310 N   0  0  0  0  0  0  0  0  0  0  0  0
   58.2340   28.8350   44.4610 N   0  0  0  0  0  0  0  0  0  0  0  0
   56.9620   29.1590   43.8020 C   0  0  0  0  0  0  0  0  0  0  0  0
   56.4800   30.5650   44.1800 C   0  0  0  0  0  0  0  0  0  0  0  0
   57.5350   31.6030   43.8920 C   0  0  0  0  0  0  0  0  0  0  0  0
   58.1040   31.5910   42.7690 O   0  0  0  0  0  0  0  0  0  0  0  0
   57.9440   32.5630   44.8850 N   0  0  0  0  0  0  0  0  0  0  0  0
   57.5990   33.9870   44.7500 C   0  0  0  0  0  0  0  0  0  0  0  0
   58.8090   34.8710   45.0850 C   0  0  0  0  0  0  0  0  0  0  0  0
   59.5250   34.4890   46.4030 C   0  0  0  0  0  0  0  0  0  0  0  0
   58.9380   33.2260   47.0640 C   0  0  2  0  0  0  0  0  0  0  0  0
   59.7060   32.7840   48.2390 N   0  0  0  0  0  0  0  0  0  0  0  0
   61.1300   32.8810   48.4750 C   0  0  0  0  0  0  0  0  0  0  0  0
   61.9970   32.1780   47.6180 C   0  0  0  0  0  0  0  0  0  0  0  0
   63.3820   32.2450   47.7860 C   0  0  0  0  0  0  0  0  0  0  0  0
   63.9260   33.0270   48.8070 C   0  0  0  0  0  0  0  0  0  0  0  0
   65.2700   33.0900   48.9660 F   0  0  0  0  0  0  0  0  0  0  0  0
   63.0820   33.7400   49.6640 C   0  0  0  0  0  0  0  0  0  0  0  0
   63.6100   34.5170   50.6430 F   0  0  0  0  0  0  0  0  0  0  0  0
   61.6940   33.6670   49.5060 C   0  0  0  0  0  0  0  0  0  0  0  0
   58.6960   32.0860   46.0560 C   0  0  0  0  0  0  0  0  0  0  0  0
   57.5248   27.3542   47.3368 H   0  0  0  0  0  0  0  0  0  0  0  0
   56.3845   27.6293   45.9764 H   0  0  0  0  0  0  0  0  0  0  0  0
   57.4506   26.1836   45.9764 H   0  0  0  0  0  0  0  0  0  0  0  0
   60.2538   27.5794   46.7351 H   0  0  0  0  0  0  0  0  0  0  0  0
   61.3957   29.2659   44.9715 H   0  0  0  0  0  0  0  0  0  0  0  0
   59.5250   30.0810   43.3570 H   0  0  0  0  0  0  0  0  0  0  0  0
   57.1004   29.1088   42.7119 H   0  0  0  0  0  0  0  0  0  0  0  0
   56.2052   28.4323   44.1325 H   0  0  0  0  0  0  0  0  0  0  0  0
   55.5764   30.8020   43.5991 H   0  0  0  0  0  0  0  0  0  0  0  0
   56.2649   30.5794   45.2587 H   0  0  0  0  0  0  0  0  0  0  0  0
   57.2817   34.1855   43.7156 H   0  0  0  0  0  0  0  0  0  0  0  0
   56.7838   34.2220   45.4501 H   0  0  0  0  0  0  0  0  0  0  0  0
   59.5343   34.7903   44.2619 H   0  0  0  0  0  0  0  0  0  0  0  0
   58.4276   35.8944   45.2163 H   0  0  0  0  0  0  0  0  0  0  0  0
   60.5879   34.3085   46.1848 H   0  0  0  0  0  0  0  0  0  0  0  0
   59.3858   35.3231   47.1065 H   0  0  0  0  0  0  0  0  0  0  0  0
   57.9476   33.5195   47.4420 H   0  0  0  0  0  0  0  0  0  0  0  0
   59.1310   32.4020   49.0210 H   0  0  0  0  0  0  0  0  0  0  0  0
   61.5782   31.5673   46.8046 H   0  0  0  0  0  0  0  0  0  0  0  0
   64.0449   31.6811   47.1133 H   0  0  0  0  0  0  0  0  0  0  0  0
   61.0366   34.2252   50.1889 H   0  0  0  0  0  0  0  0  0  0  0  0
   59.6664   31.6898   45.7224 H   0  0  0  0  0  0  0  0  0  0  0  0
   58.1069   31.3008   46.5525 H   0  0  0  0  0  0  0  0  0  0  0  0
  1  2  1  0
  2  3  2  0
  3  4  1  0
  4  5  2  0
  5  6  1  0
  6  7  1  0
  7  8  1  0
  8  9  1  0
  9 10  2  0
  9 11  1  0
 11 12  1  0
 12 13  1  0
 13 14  1  0
 14 15  1  0
 15 16  1  0
 16 17  1  0
 17 18  2  0
 18 19  1  0
 19 20  2  0
 20 21  1  0
 20 22  1  0
 22 23  1  0
 22 24  2  0
 15 25  1  0
  6  2  1  0
 25 11  1  0
 24 17  1  0
  1 26  1  0
  1 27  1  0
  1 28  1  0
  3 29  1  0
  4 30  1  0
  5 31  1  0
  7 32  1  0
  7 33  1  0
  8 34  1  0
  8 35  1  0
 12 36  1  0
 12 37  1  0
 13 38  1  0
 13 39  1  0
 14 40  1  0
 14 41  1  0
 15 42  1  1
 16 43  1  0
 18 44  1  0
 19 45  1  0
 24 46  1  0
 25 47  1  0
 25 48  1  0
M  CHG  1   5   1
M  END
>  <UniqueID>  (83) 
75

>  <SMILES>  (83) 
Cc1cc[nH+]n1CCC(=O)N1CCC[C@H](Nc2ccc(F)c(F)c2)C1

>  <Energy>  (83) 
82.21934852469415

>  <Genealogy>  (83) 
Cc1cc[nH+]n1CCC(=O)N1CCCC(Nc2ccc(F)c(F)c2)C1 (protonated)
Cc1cc[nH+]n1CCC(=O)N1CCC[C@H](Nc2ccc(F)c(F)c2)C1 (chirality)
Cc1cc[nH+]n1CCC(=O)N1CCC[C@H](Nc2ccc(F)c(F)c2)C1 (3D coordinates assigned)
Cc1cc[nH+]n1CCC(=O)N1CCC[C@H](Nc2ccc(F)c(F)c2)C1 (nonaromatic ring conformer: 82.21934852469415 kcal/mol)

>  <smiles>  (83) 
Cc1ccnn1CCC(=O)N1CCCC(Nc2ccc(F)c(F)c2)C1

>  <score_type>  (83) 
oracle

>  <origin>  (83) 
adg

>  <m_score__min__energy>  (83) 
-6.4500000000000002

>  <m_primary>  (83) 
energy

$$$$
84:0
     RDKit          3D

 31 32  0  0  1  0  0  0  0  0999 V2000
   59.8590   35.3360   46.7900 C   0  0  0  0  0  0  0  0  0  0  0  0
   59.6280   34.9650   45.4310 O   0  0  0  0  0  0  0  0  0  0  0  0
   58.8950   33.8250   45.1670 C   0  0  0  0  0  0  0  0  0  0  0  0
   58.5350   33.4750   43.8660 C   0  0  0  0  0  0  0  0  0  0  0  0
   57.7990   32.3310   43.6010 C   0  0  0  0  0  0  0  0  0  0  0  0
   57.4050   31.5070   44.6360 C   0  0  0  0  0  0  0  0  0  0  0  0
   56.6470   30.3160   44.4370 N   0  0  0  0  0  0  0  0  0  0  0  0
   57.0900   29.2220   44.9280 C   0  0  0  0  0  0  0  0  0  0  0  0
   58.4260   28.9130   45.0660 C   0  0  0  0  0  0  0  0  0  0  0  0
   58.7850   27.6860   45.6180 C   0  0  0  0  0  0  0  0  0  0  0  0
   60.2130   27.3270   45.7780 C   0  0  0  0  0  0  0  0  0  0  0  0
   57.7980   26.8450   45.9950 N   0  0  0  0  0  0  0  0  0  0  0  0
   56.4960   27.1300   45.8680 C   0  0  0  0  0  0  0  0  0  0  0  0
   55.5750   26.3200   46.2320 N   0  0  0  0  0  0  0  0  0  0  0  0
   56.1540   28.3180   45.3350 N   0  0  0  0  0  0  0  0  0  0  0  0
   57.7480   31.8280   45.9410 C   0  0  0  0  0  0  0  0  0  0  0  0
   58.4890   32.9850   46.1810 C   0  0  0  0  0  0  0  0  0  0  0  0
   59.3965   34.5932   47.4566 H   0  0  0  0  0  0  0  0  0  0  0  0
   60.9417   35.3756   46.9803 H   0  0  0  0  0  0  0  0  0  0  0  0
   59.4168   36.3251   46.9803 H   0  0  0  0  0  0  0  0  0  0  0  0
   58.8423   34.1218   43.0310 H   0  0  0  0  0  0  0  0  0  0  0  0
   57.5285   32.0794   42.5649 H   0  0  0  0  0  0  0  0  0  0  0  0
   59.1989   29.6265   44.7442 H   0  0  0  0  0  0  0  0  0  0  0  0
   60.4579   27.2654   46.8486 H   0  0  0  0  0  0  0  0  0  0  0  0
   60.4019   26.3534   45.3021 H   0  0  0  0  0  0  0  0  0  0  0  0
   60.8398   28.0955   45.3021 H   0  0  0  0  0  0  0  0  0  0  0  0
   58.0220   25.9020   46.4190 H   0  0  0  0  0  0  0  0  0  0  0  0
   55.1770   26.3380   47.1910 H   0  0  0  0  0  0  0  0  0  0  0  0
   55.1400   28.5370   45.2370 H   0  0  0  0  0  0  0  0  0  0  0  0
   57.4401   31.1796   46.7745 H   0  0  0  0  0  0  0  0  0  0  0  0
   58.7591   33.2360   47.2174 H   0  0  0  0  0  0  0  0  0  0  0  0
  1  2  1  0
  2  3  1  0
  3  4  2  0
  4  5  1  0
  5  6  2  0
  6  7  1  0
  7  8  2  0
  8  9  1  0
  9 10  2  0
 10 11  1  0
 10 12  1  0
 12 13  1  0
 13 14  2  3
 13 15  1  0
  6 16  1  0
 16 17  2  0
 17  3  1  0
 15  8  1  0
  1 18  1  0
  1 19  1  0
  1 20  1  0
  4 21  1  0
  5 22  1  0
  9 23  1  0
 11 24  1  0
 11 25  1  0
 11 26  1  0
 12 27  1  0
 14 28  1  0
 15 29  1  0
 16 30  1  0
 17 31  1  0
M  END
>  <smiles>  (84) 
COc1ccc(N=c2cc(C)[nH]c(=N)[nH]2)cc1

>  <score_type>  (84) 
oracle

>  <origin>  (84) 
adg

>  <m_score__min__energy>  (84) 
-6.54

>  <m_primary>  (84) 
energy

$$$$
85:0
     RDKit          3D

 64 67  0  0  0  0  0  0  0  0999 V2000
   60.3370   28.2660   49.4270 C   0  0  0  0  0  0  0  0  0  0  0  0
   60.0850   28.7910   48.0790 N   0  0  0  0  0  0  0  0  0  0  0  0
   60.9180   29.8920   47.5800 C   0  0  0  0  0  0  0  0  0  0  0  0
   59.0200   28.2410   47.2580 C   0  0  0  0  0  0  0  0  0  0  0  0
   58.5470   26.9290   47.4700 C   0  0  0  0  0  0  0  0  0  0  0  0
   57.5360   26.3950   46.6690 C   0  0  0  0  0  0  0  0  0  0  0  0
   56.9730   27.1570   45.6460 C   0  0  0  0  0  0  0  0  0  0  0  0
   57.4140   28.4680   45.4210 C   0  0  0  0  0  0  0  0  0  0  0  0
   56.8230   29.2890   44.2990 C   0  0  0  0  0  0  0  0  0  0  0  0
   57.8240   30.1670   43.6680 N   0  0  0  0  0  0  0  0  0  0  0  0
   57.2820   31.5050   43.3820 C   0  0  0  0  0  0  0  0  0  0  0  0
   57.5910   32.4470   44.5060 C   0  0  0  0  0  0  0  0  0  0  0  0
   57.4020   33.8140   44.4900 C   0  0  0  0  0  0  0  0  0  0  0  0
   57.8430   34.2660   45.7150 C   0  0  0  0  0  0  0  0  0  0  0  0
   58.2760   33.1420   46.4040 C   0  0  0  0  0  0  0  0  0  0  0  0
   58.8400   33.0940   47.7730 C   0  0  0  0  0  0  0  0  0  0  0  0
   59.5230   34.2130   48.2780 C   0  0  0  0  0  0  0  0  0  0  0  0
   60.0690   34.1910   49.5640 C   0  0  0  0  0  0  0  0  0  0  0  0
   59.9280   33.0550   50.3740 C   0  0  0  0  0  0  0  0  0  0  0  0
   60.5610   33.0160   51.7370 C   0  0  0  0  0  0  0  0  0  0  0  0
   61.8290   32.2800   51.6640 N   0  0  0  0  0  0  0  0  0  0  0  0
   62.9320   33.1540   51.2410 C   0  0  0  0  0  0  0  0  0  0  0  0
   63.1410   33.0520   49.7530 C   0  0  0  0  0  0  0  0  0  0  0  0
   63.1990   34.2080   48.9570 C   0  0  0  0  0  0  0  0  0  0  0  0
   63.3720   34.1000   47.5730 C   0  0  0  0  0  0  0  0  0  0  0  0
   63.4820   32.8420   46.9750 C   0  0  0  0  0  0  0  0  0  0  0  0
   63.4190   31.6870   47.7600 C   0  0  0  0  0  0  0  0  0  0  0  0
   63.2470   31.7900   49.1450 C   0  0  0  0  0  0  0  0  0  0  0  0
   59.2550   31.9320   49.8720 C   0  0  0  0  0  0  0  0  0  0  0  0
   58.7120   31.9510   48.5850 C   0  0  0  0  0  0  0  0  0  0  0  0
   58.1120   32.0760   45.6510 O   0  0  0  0  0  0  0  0  0  0  0  0
   58.4350   29.0030   46.2240 C   0  0  0  0  0  0  0  0  0  0  0  0
   59.9879   28.9932   50.1749 H   0  0  0  0  0  0  0  0  0  0  0  0
   59.7962   27.3171   49.5580 H   0  0  0  0  0  0  0  0  0  0  0  0
   61.4156   28.0944   49.5580 H   0  0  0  0  0  0  0  0  0  0  0  0
   61.3387   30.4481   48.4307 H   0  0  0  0  0  0  0  0  0  0  0  0
   61.7360   29.4845   46.9677 H   0  0  0  0  0  0  0  0  0  0  0  0
   60.3035   30.5683   46.9677 H   0  0  0  0  0  0  0  0  0  0  0  0
   58.9802   26.3191   48.2765 H   0  0  0  0  0  0  0  0  0  0  0  0
   57.1820   25.3686   46.8457 H   0  0  0  0  0  0  0  0  0  0  0  0
   56.1811   26.7282   45.0143 H   0  0  0  0  0  0  0  0  0  0  0  0
   56.4177   28.6077   43.5364 H   0  0  0  0  0  0  0  0  0  0  0  0
   56.0339   29.9262   44.7248 H   0  0  0  0  0  0  0  0  0  0  0  0
   58.1740   29.7290   42.7830 H   0  0  0  0  0  0  0  0  0  0  0  0
   58.6320   30.2590   44.3290 H   0  0  0  0  0  0  0  0  0  0  0  0
   57.7329   31.8877   42.4545 H   0  0  0  0  0  0  0  0  0  0  0  0
   56.1903   31.4304   43.2699 H   0  0  0  0  0  0  0  0  0  0  0  0
   56.9858   34.4175   43.6699 H   0  0  0  0  0  0  0  0  0  0  0  0
   57.8503   35.3059   46.0735 H   0  0  0  0  0  0  0  0  0  0  0  0
   59.6288   35.1140   47.6559 H   0  0  0  0  0  0  0  0  0  0  0  0
   60.6122   35.0693   49.9429 H   0  0  0  0  0  0  0  0  0  0  0  0
   60.7518   34.0427   52.0827 H   0  0  0  0  0  0  0  0  0  0  0  0
   59.8838   32.5127   52.4427 H   0  0  0  0  0  0  0  0  0  0  0  0
   62.0520   31.9340   52.6270 H   0  0  0  0  0  0  0  0  0  0  0  0
   62.6906   34.1948   51.5027 H   0  0  0  0  0  0  0  0  0  0  0  0
   63.8532   32.8396   51.7533 H   0  0  0  0  0  0  0  0  0  0  0  0
   63.1082   35.2003   49.4229 H   0  0  0  0  0  0  0  0  0  0  0  0
   63.4216   35.0079   46.9539 H   0  0  0  0  0  0  0  0  0  0  0  0
   63.6182   32.7605   45.8865 H   0  0  0  0  0  0  0  0  0  0  0  0
   63.5047   30.6967   47.2888 H   0  0  0  0  0  0  0  0  0  0  0  0
   63.1946   30.8794   49.7599 H   0  0  0  0  0  0  0  0  0  0  0  0
   59.1540   31.0311   50.4950 H   0  0  0  0  0  0  0  0  0  0  0  0
   58.1807   31.0667   48.2033 H   0  0  0  0  0  0  0  0  0  0  0  0
   58.7836   30.0307   46.0443 H   0  0  0  0  0  0  0  0  0  0  0  0
  1  2  1  0
  2  3  1  0
  2  4  1  0
  4  5  2  0
  5  6  1  0
  6  7  2  0
  7  8  1  0
  8  9  1  0
  9 10  1  0
 10 11  1  0
 11 12  1  0
 12 13  2  0
 13 14  1  0
 14 15  2  0
 15 16  1  0
 16 17  2  0
 17 18  1  0
 18 19  2  0
 19 20  1  0
 20 21  1  0
 21 22  1  0
 22 23  1  0
 23 24  2  0
 24 25  1  0
 25 26  2  0
 26 27  1  0
 27 28  2  0
 19 29  1  0
 29 30  2  0
 15 31  1  0
  8 32  2  0
 32  4  1  0
 31 12  1  0
 30 16  1  0
 28 23  1  0
  1 33  1  0
  1 34  1  0
  1 35  1  0
  3 36  1  0
  3 37  1  0
  3 38  1  0
  5 39  1  0
  6 40  1  0
  7 41  1  0
  9 42  1  0
  9 43  1  0
 10 44  1  0
 10 45  1  0
 11 46  1  0
 11 47  1  0
 13 48  1  0
 14 49  1  0
 17 50  1  0
 18 51  1  0
 20 52  1  0
 20 53  1  0
 21 54  1  0
 22 55  1  0
 22 56  1  0
 24 57  1  0
 25 58  1  0
 26 59  1  0
 27 60  1  0
 28 61  1  0
 29 62  1  0
 30 63  1  0
 32 64  1  0
M  CHG  1  10   1
M  END
>  <UniqueID>  (85) 
76

>  <SMILES>  (85) 
CN(C)c1cccc(C[NH2+]Cc2ccc(-c3ccc(CNCc4ccccc4)cc3)o2)c1

>  <Energy>  (85) 
92.82360564179952

>  <Genealogy>  (85) 
CN(C)c1cccc(C[NH2+]Cc2ccc(-c3ccc(CNCc4ccccc4)cc3)o2)c1 (protonated)
CN(C)c1cccc(C[NH2+]Cc2ccc(-c3ccc(CNCc4ccccc4)cc3)o2)c1 (3D coordinates assigned)
CN(C)c1cccc(C[NH2+]Cc2ccc(-c3ccc(CNCc4ccccc4)cc3)o2)c1 (optimized conformer: 92.82360564179952 kcal/mol)

>  <smiles>  (85) 
CN(C)c1cccc(CNCc2ccc(-c3ccc(CNCc4ccccc4)cc3)o2)c1

>  <score_type>  (85) 
oracle

>  <origin>  (85) 
adg

>  <m_score__min__energy>  (85) 
-7.4800000000000004

>  <m_primary>  (85) 
energy

$$$$
86:0
     RDKit          3D

 24 25  0  0  0  0  0  0  0  0999 V2000
   55.7880   22.3700   43.9130 O   0  0  0  0  0  0  0  0  0  0  0  0
   56.0700   23.4140   44.5570 C   0  0  0  0  0  0  0  0  0  0  0  0
   55.0700   24.3070   44.9180 C   0  0  0  0  0  0  0  0  0  0  0  0
   55.4180   25.4530   45.6310 C   0  0  0  0  0  0  0  0  0  0  0  0
   54.4070   26.3400   45.9900 O   0  0  0  0  0  0  0  0  0  0  0  0
   56.7290   25.6950   45.9710 N   0  0  0  0  0  0  0  0  0  0  0  0
   57.0690   26.9080   46.7480 C   0  0  0  0  0  0  0  0  0  0  0  0
   57.4190   28.0560   45.8330 C   0  0  0  0  0  0  0  0  0  0  0  0
   56.4050   28.8100   45.2160 C   0  0  0  0  0  0  0  0  0  0  0  0
   56.7330   29.8750   44.3720 C   0  0  0  0  0  0  0  0  0  0  0  0
   58.0730   30.2000   44.1410 C   0  0  0  0  0  0  0  0  0  0  0  0
   58.3890   31.2320   43.3210 F   0  0  0  0  0  0  0  0  0  0  0  0
   59.0860   29.4610   44.7570 C   0  0  0  0  0  0  0  0  0  0  0  0
   58.7630   28.3950   45.6020 C   0  0  0  0  0  0  0  0  0  0  0  0
   57.6970   24.7850   45.5980 C   0  0  0  0  0  0  0  0  0  0  0  0
   59.2870   24.9940   45.9580 S   0  0  0  0  0  0  0  0  0  0  0  0
   57.3540   23.6690   44.9010 N   0  0  0  0  0  0  0  0  0  0  0  0
   54.0218   24.1135   44.6462 H   0  0  0  0  0  0  0  0  0  0  0  0
   56.2056   27.1921   47.3675 H   0  0  0  0  0  0  0  0  0  0  0  0
   57.9409   26.6859   47.3808 H   0  0  0  0  0  0  0  0  0  0  0  0
   55.3492   28.5607   45.3983 H   0  0  0  0  0  0  0  0  0  0  0  0
   55.9354   30.4584   43.8888 H   0  0  0  0  0  0  0  0  0  0  0  0
   60.1402   29.7184   44.5768 H   0  0  0  0  0  0  0  0  0  0  0  0
   59.5644   27.8192   46.0881 H   0  0  0  0  0  0  0  0  0  0  0  0
  1  2  2  0
  2  3  1  0
  3  4  2  0
  4  5  1  0
  4  6  1  0
  6  7  1  0
  7  8  1  0
  8  9  2  0
  9 10  1  0
 10 11  2  0
 11 12  1  0
 11 13  1  0
 13 14  2  0
  6 15  1  0
 15 16  2  0
 15 17  1  0
 17  2  1  0
 14  8  1  0
  3 18  1  0
  7 19  1  0
  7 20  1  0
  9 21  1  0
 10 22  1  0
 13 23  1  0
 14 24  1  0
M  CHG  2   5  -1  17  -1
M  END
>  <UniqueID>  (86) 
77

>  <SMILES>  (86) 
O=c1cc([O-])n(Cc2ccc(F)cc2)c(=S)[n-]1

>  <Energy>  (86) 
30.669144603676774

>  <Genealogy>  (86) 
O=c1cc([O-])n(Cc2ccc(F)cc2)c(=S)[n-]1 (protonated)
O=c1cc([O-])n(Cc2ccc(F)cc2)c(=S)[n-]1 (3D coordinates assigned)
O=c1cc([O-])n(Cc2ccc(F)cc2)c(=S)[n-]1 (optimized conformer: 30.669144603676774 kcal/mol)

>  <smiles>  (86) 
O=c1cc(O)n(Cc2ccc(F)cc2)c(=S)[nH]1

>  <score_type>  (86) 
oracle

>  <origin>  (86) 
adg

>  <m_score__min__energy>  (86) 
-10.68

>  <m_primary>  (86) 
energy

$$$$
87:0
     RDKit          3D

 48 50  0  0  0  0  0  0  0  0999 V2000
   57.7980   31.8570   51.4990 C   0  0  0  0  0  0  0  0  0  0  0  0
   57.8520   32.0090   50.0840 O   0  0  0  0  0  0  0  0  0  0  0  0
   58.9610   31.6770   49.2930 C   0  0  0  0  0  0  0  0  0  0  0  0
   58.8980   30.5170   48.5120 C   0  0  0  0  0  0  0  0  0  0  0  0
   59.9690   30.1540   47.6930 C   0  0  0  0  0  0  0  0  0  0  0  0
   61.1200   30.9440   47.6530 C   0  0  0  0  0  0  0  0  0  0  0  0
   61.2110   32.0990   48.4430 C   0  0  0  0  0  0  0  0  0  0  0  0
   62.4480   32.9530   48.3880 C   0  0  0  0  0  0  0  0  0  0  0  0
   62.6600   33.6840   46.7290 S   0  0  0  0  0  0  0  0  0  0  0  0
   60.9220   34.0580   46.5140 C   0  0  0  0  0  0  0  0  0  0  0  0
   60.2490   34.9650   47.2450 N   0  0  0  0  0  0  0  0  0  0  0  0
   59.0040   34.9490   46.7940 N   0  0  0  0  0  0  0  0  0  0  0  0
   58.9700   34.0350   45.8050 C   0  0  0  0  0  0  0  0  0  0  0  0
   57.7340   33.7060   45.0220 C   0  0  0  0  0  0  0  0  0  0  0  0
   57.7200   32.2600   44.5230 C   0  0  0  0  0  0  0  0  0  0  0  0
   56.6470   31.5140   45.1770 N   0  0  0  0  0  0  0  0  0  0  0  0
   56.5070   29.9340   44.4680 S   0  0  0  0  0  0  0  0  0  0  0  0
   55.1690   29.3450   44.8200 O   0  0  0  0  0  0  0  0  0  0  0  0
   56.5960   30.0530   42.9730 O   0  0  0  0  0  0  0  0  0  0  0  0
   57.8010   28.8800   45.0330 C   0  0  0  0  0  0  0  0  0  0  0  0
   59.1030   29.0530   44.5460 C   0  0  0  0  0  0  0  0  0  0  0  0
   60.1400   28.2310   45.0000 C   0  0  0  0  0  0  0  0  0  0  0  0
   59.8870   27.2390   45.9590 C   0  0  0  0  0  0  0  0  0  0  0  0
   60.9900   26.3300   46.4160 C   0  0  0  0  0  0  0  0  0  0  0  0
   58.5790   27.0600   46.4380 C   0  0  0  0  0  0  0  0  0  0  0  0
   57.5440   27.8830   45.9840 C   0  0  0  0  0  0  0  0  0  0  0  0
   60.1480   33.4830   45.6290 O   0  0  0  0  0  0  0  0  0  0  0  0
   60.1270   32.4690   49.2560 C   0  0  0  0  0  0  0  0  0  0  0  0
   58.1291   32.7888   51.9808 H   0  0  0  0  0  0  0  0  0  0  0  0
   56.7653   31.6331   51.8046 H   0  0  0  0  0  0  0  0  0  0  0  0
   58.4579   31.0317   51.8046 H   0  0  0  0  0  0  0  0  0  0  0  0
   57.9974   29.8863   48.5438 H   0  0  0  0  0  0  0  0  0  0  0  0
   59.9061   29.2441   47.0781 H   0  0  0  0  0  0  0  0  0  0  0  0
   61.9579   30.6593   46.9997 H   0  0  0  0  0  0  0  0  0  0  0  0
   62.3613   33.7610   49.1294 H   0  0  0  0  0  0  0  0  0  0  0  0
   63.3215   32.3218   48.6087 H   0  0  0  0  0  0  0  0  0  0  0  0
   56.8565   33.8647   45.6661 H   0  0  0  0  0  0  0  0  0  0  0  0
   57.7145   34.3626   44.1397 H   0  0  0  0  0  0  0  0  0  0  0  0
   57.5581   32.2520   43.4350 H   0  0  0  0  0  0  0  0  0  0  0  0
   58.6843   31.7874   44.7611 H   0  0  0  0  0  0  0  0  0  0  0  0
   59.3108   29.8380   43.8040 H   0  0  0  0  0  0  0  0  0  0  0  0
   61.1575   28.3631   44.6035 H   0  0  0  0  0  0  0  0  0  0  0  0
   61.0158   26.3088   47.5155 H   0  0  0  0  0  0  0  0  0  0  0  0
   60.8102   25.3143   46.0338 H   0  0  0  0  0  0  0  0  0  0  0  0
   61.9526   26.7006   46.0338 H   0  0  0  0  0  0  0  0  0  0  0  0
   58.3680   26.2693   47.1731 H   0  0  0  0  0  0  0  0  0  0  0  0
   56.5246   27.7476   46.3745 H   0  0  0  0  0  0  0  0  0  0  0  0
   60.1880   33.3816   49.8671 H   0  0  0  0  0  0  0  0  0  0  0  0
  1  2  1  0
  2  3  1  0
  3  4  2  0
  4  5  1  0
  5  6  2  0
  6  7  1  0
  7  8  1  0
  8  9  1  0
  9 10  1  0
 10 11  2  0
 11 12  1  0
 12 13  2  0
 13 14  1  0
 14 15  1  0
 15 16  1  0
 16 17  1  0
 17 18  2  0
 17 19  2  0
 17 20  1  0
 20 21  2  0
 21 22  1  0
 22 23  2  0
 23 24  1  0
 23 25  1  0
 25 26  2  0
 13 27  1  0
  7 28  2  0
 28  3  1  0
 27 10  1  0
 26 20  1  0
  1 29  1  0
  1 30  1  0
  1 31  1  0
  4 32  1  0
  5 33  1  0
  6 34  1  0
  8 35  1  0
  8 36  1  0
 14 37  1  0
 14 38  1  0
 15 39  1  0
 15 40  1  0
 21 41  1  0
 22 42  1  0
 24 43  1  0
 24 44  1  0
 24 45  1  0
 25 46  1  0
 26 47  1  0
 28 48  1  0
M  CHG  1  16  -1
M  END
>  <UniqueID>  (87) 
78

>  <SMILES>  (87) 
COc1cccc(CSc2nnc(CC[N-]S(=O)(=O)c3ccc(C)cc3)o2)c1

>  <Energy>  (87) 
70.79374825065699

>  <Genealogy>  (87) 
COc1cccc(CSc2nnc(CC[N-]S(=O)(=O)c3ccc(C)cc3)o2)c1 (protonated)
COc1cccc(CSc2nnc(CC[N-]S(=O)(=O)c3ccc(C)cc3)o2)c1 (3D coordinates assigned)
COc1cccc(CSc2nnc(CC[N-]S(=O)(=O)c3ccc(C)cc3)o2)c1 (optimized conformer: 70.79374825065699 kcal/mol)

>  <smiles>  (87) 
COc1cccc(CSc2nnc(CCNS(=O)(=O)c3ccc(C)cc3)o2)c1

>  <score_type>  (87) 
oracle

>  <origin>  (87) 
adg

>  <m_score__min__energy>  (87) 
-10.949999999999999

>  <m_primary>  (87) 
energy

$$$$
88:0
     RDKit          3D

 54 58  0  0  0  0  0  0  0  0999 V2000
   61.3401   27.2061   47.7834 H   0  0  0  0  0  0  0  0  0  0  0  0
   60.3770   27.6790   47.5410 C   0  0  0  0  0  0  0  0  0  0  0  0
   59.4100   26.9110   47.0280 C   0  0  0  0  0  0  0  0  0  0  0  0
   59.6360   25.6140   46.5610 O   0  0  0  0  0  0  0  0  0  0  0  0
   58.4180   25.1210   46.0990 C   0  0  0  0  0  0  0  0  0  0  0  0
   58.1790   23.8620   45.5530 C   0  0  0  0  0  0  0  0  0  0  0  0
   58.9918   23.1281   45.4492 H   0  0  0  0  0  0  0  0  0  0  0  0
   56.8710   23.5540   45.1380 C   0  0  0  0  0  0  0  0  0  0  0  0
   56.6547   22.5670   44.7032 H   0  0  0  0  0  0  0  0  0  0  0  0
   55.8340   24.5010   45.2750 C   0  0  0  0  0  0  0  0  0  0  0  0
   54.8147   24.2488   44.9473 H   0  0  0  0  0  0  0  0  0  0  0  0
   56.0990   25.7660   45.8290 C   0  0  0  0  0  0  0  0  0  0  0  0
   55.0870   26.7090   45.9660 O   0  0  0  0  0  0  0  0  0  0  0  0
   57.4040   26.0450   46.2340 C   0  0  0  0  0  0  0  0  0  0  0  0
   57.9910   27.2350   46.8220 C   0  0  0  0  0  0  0  0  0  0  0  0
   57.4130   28.3360   47.0200 O   0  0  0  0  0  0  0  0  0  0  0  0
   60.2280   29.1190   47.8000 C   0  0  0  0  0  0  0  0  0  0  0  0
   60.8300   30.1400   47.0780 C   0  0  0  0  0  0  0  0  0  0  0  0
   61.4662   29.9942   46.1926 H   0  0  0  0  0  0  0  0  0  0  0  0
   60.5210   31.3420   47.6210 N   0  0  0  0  0  0  0  0  0  0  0  0
   60.9050   32.6480   47.0820 C   0  0  0  0  0  0  0  0  0  0  0  0
   61.1979   33.3115   47.9090 H   0  0  0  0  0  0  0  0  0  0  0  0
   61.7502   32.5185   46.3901 H   0  0  0  0  0  0  0  0  0  0  0  0
   59.7480   33.2590   46.3390 C   0  0  0  0  0  0  0  0  0  0  0  0
   58.4940   32.6250   46.3170 C   0  0  0  0  0  0  0  0  0  0  0  0
   58.3456   31.6839   46.8669 H   0  0  0  0  0  0  0  0  0  0  0  0
   57.4340   33.1870   45.5980 C   0  0  0  0  0  0  0  0  0  0  0  0
   56.4535   32.6885   45.5861 H   0  0  0  0  0  0  0  0  0  0  0  0
   57.6180   34.3800   44.8950 C   0  0  0  0  0  0  0  0  0  0  0  0
   56.7831   34.8197   44.3296 H   0  0  0  0  0  0  0  0  0  0  0  0
   58.8630   35.0150   44.9100 C   0  0  0  0  0  0  0  0  0  0  0  0
   59.0068   35.9550   44.3570 H   0  0  0  0  0  0  0  0  0  0  0  0
   59.9260   34.4570   45.6270 C   0  0  0  0  0  0  0  0  0  0  0  0
   60.9053   34.9580   45.6336 H   0  0  0  0  0  0  0  0  0  0  0  0
   59.7370   31.0860   48.6910 C   0  0  0  0  0  0  0  0  0  0  0  0
   59.1750   31.9970   49.5860 C   0  0  0  0  0  0  0  0  0  0  0  0
   59.3239   33.0794   49.4589 H   0  0  0  0  0  0  0  0  0  0  0  0
   58.4130   31.4930   50.6550 C   0  0  0  0  0  0  0  0  0  0  0  0
   57.9548   32.1897   51.3724 H   0  0  0  0  0  0  0  0  0  0  0  0
   58.2280   30.0910   50.8190 C   0  0  0  0  0  0  0  0  0  0  0  0
   57.4810   29.5350   51.8700 O   0  0  0  0  0  0  0  0  0  0  0  0
   56.5950   30.2350   52.7480 C   0  0  0  0  0  0  0  0  0  0  0  0
   57.1643   31.0005   53.2956 H   0  0  0  0  0  0  0  0  0  0  0  0
   56.1503   29.5082   53.4437 H   0  0  0  0  0  0  0  0  0  0  0  0
   55.4620   30.9160   51.9710 C   0  0  0  0  0  0  0  0  0  0  0  0
   55.7656   31.0081   50.9177 H   0  0  0  0  0  0  0  0  0  0  0  0
   55.2883   31.8975   52.4363 H   0  0  0  0  0  0  0  0  0  0  0  0
   54.1480   30.1440   52.0320 C   0  0  0  0  0  0  0  0  0  0  0  0
   53.8679   29.9794   53.0829 H   0  0  0  0  0  0  0  0  0  0  0  0
   53.3593   30.7223   51.5285 H   0  0  0  0  0  0  0  0  0  0  0  0
   54.2692   29.1735   51.5285 H   0  0  0  0  0  0  0  0  0  0  0  0
   58.8230   29.2040   49.9020 C   0  0  0  0  0  0  0  0  0  0  0  0
   58.7165   28.1158   50.0225 H   0  0  0  0  0  0  0  0  0  0  0  0
   59.5500   29.7350   48.8380 C   0  0  0  0  0  0  0  0  0  0  0  0
  1  2  1  0
  2  3  2  0
  3  4  1  0
  4  5  1  0
  5  6  2  0
  6  7  1  0
  6  8  1  0
  8  9  1  0
  8 10  2  0
 10 11  1  0
 10 12  1  0
 12 13  1  0
 12 14  2  0
 14 15  1  0
 15 16  2  0
  2 17  1  0
 17 18  2  0
 18 19  1  0
 18 20  1  0
 20 21  1  0
 21 22  1  0
 21 23  1  0
 21 24  1  0
 24 25  2  0
 25 26  1  0
 25 27  1  0
 27 28  1  0
 27 29  2  0
 29 30  1  0
 29 31  1  0
 31 32  1  0
 31 33  2  0
 33 34  1  0
 20 35  1  0
 35 36  2  0
 36 37  1  0
 36 38  1  0
 38 39  1  0
 38 40  2  0
 40 41  1  0
 41 42  1  0
 42 43  1  0
 42 44  1  0
 42 45  1  0
 45 46  1  0
 45 47  1  0
 45 48  1  0
 48 49  1  0
 48 50  1  0
 48 51  1  0
 40 52  1  0
 52 53  1  0
 52 54  2  0
 15  3  1  0
 54 17  1  0
 14  5  1  0
 33 24  1  0
 54 35  1  0
M  CHG  1  13  -1
M  END
>  <UniqueID>  (88) 
79

>  <SMILES>  (88) 
CCCOc1ccc2c(c1)c(/C=C1/Oc3cccc([O-])c3C1=O)cn2Cc1ccccc1

>  <Energy>  (88) 
127.90196774542085

>  <Genealogy>  (88) 
CCCOc1ccc2c(c1)c(C=C1Oc3cccc([O-])c3C1=O)cn2Cc1ccccc1 (protonated)
CCCOc1ccc2c(c1)c(/C=C1/Oc3cccc([O-])c3C1=O)cn2Cc1ccccc1 (cis-trans isomerization)
CCCOc1ccc2c(c1)c(/C=C1/Oc3cccc([O-])c3C1=O)cn2Cc1ccccc1 (3D coordinates assigned)
CCCOc1ccc2c(c1)c(/C=C1/Oc3cccc([O-])c3C1=O)cn2Cc1ccccc1 (nonaromatic ring conformer: 127.90196774542085 kcal/mol)

>  <smiles>  (88) 
CCCOc1ccc2c(c1)c(C=C1Oc3cccc(O)c3C1=O)cn2Cc1ccccc1

>  <score_type>  (88) 
oracle

>  <origin>  (88) 
adg

>  <m_score__min__energy>  (88) 
-12.880000000000001

>  <m_primary>  (88) 
energy

$$$$
89:0
     RDKit          3D

 54 56  0  0  0  0  0  0  0  0999 V2000
   55.9930   23.6680   47.0290 C   0  0  0  0  0  0  0  0  0  0  0  0
   55.9120   25.0870   47.1200 O   0  0  0  0  0  0  0  0  0  0  0  0
   56.9170   25.9700   46.6930 C   0  0  0  0  0  0  0  0  0  0  0  0
   56.7530   26.8200   45.5880 C   0  0  0  0  0  0  0  0  0  0  0  0
   57.7880   27.6820   45.1880 C   0  0  0  0  0  0  0  0  0  0  0  0
   57.6200   28.5680   44.0690 N   0  0  0  0  0  0  0  0  0  0  0  0
   56.7410   29.6980   44.0010 C   0  0  0  0  0  0  0  0  0  0  0  0
   55.8330   29.8630   44.8590 O   0  0  0  0  0  0  0  0  0  0  0  0
   56.8380   30.6320   42.8370 C   0  0  0  0  0  0  0  0  0  0  0  0
   57.4040   31.9840   43.2820 C   0  0  0  0  0  0  0  0  0  0  0  0
   57.4290   32.0700   44.7400 N   0  0  0  0  0  0  0  0  0  0  0  0
   57.2710   33.3110   45.4420 C   0  0  0  0  0  0  0  0  0  0  0  0
   57.0220   34.3740   44.8120 O   0  0  0  0  0  0  0  0  0  0  0  0
   57.4410   33.3560   46.9300 C   0  0  0  0  0  0  0  0  0  0  0  0
   58.8700   33.4490   47.2700 N   0  0  0  0  0  0  0  0  0  0  0  0
   59.3420   34.5930   47.8500 C   0  0  0  0  0  0  0  0  0  0  0  0
   60.6480   34.7050   48.2030 N   0  0  0  0  0  0  0  0  0  0  0  0
   61.5200   33.6880   47.9990 C   0  0  0  0  0  0  0  0  0  0  0  0
   62.8610   33.8310   48.3720 C   0  0  0  0  0  0  0  0  0  0  0  0
   63.7610   32.7820   48.1640 C   0  0  0  0  0  0  0  0  0  0  0  0
   63.3240   31.5870   47.5850 C   0  0  0  0  0  0  0  0  0  0  0  0
   61.9850   31.4350   47.2110 C   0  0  0  0  0  0  0  0  0  0  0  0
   61.0710   32.4870   47.4160 C   0  0  0  0  0  0  0  0  0  0  0  0
   59.7150   32.3880   47.0580 C   0  0  0  0  0  0  0  0  0  0  0  0
   59.2770   31.3200   46.5450 O   0  0  0  0  0  0  0  0  0  0  0  0
   58.9880   27.7250   45.9290 C   0  0  0  0  0  0  0  0  0  0  0  0
   60.0820   28.6760   45.5080 C   0  0  0  0  0  0  0  0  0  0  0  0
   59.1600   26.8700   47.0390 C   0  0  0  0  0  0  0  0  0  0  0  0
   60.3680   26.9090   47.7550 O   0  0  0  0  0  0  0  0  0  0  0  0
   60.6150   27.7350   48.8880 C   0  0  0  0  0  0  0  0  0  0  0  0
   58.1180   25.9970   47.4060 C   0  0  0  0  0  0  0  0  0  0  0  0
   56.0176   23.2365   48.0405 H   0  0  0  0  0  0  0  0  0  0  0  0
   55.1153   23.2846   46.4881 H   0  0  0  0  0  0  0  0  0  0  0  0
   56.9087   23.3869   46.4881 H   0  0  0  0  0  0  0  0  0  0  0  0
   55.8051   26.8112   45.0299 H   0  0  0  0  0  0  0  0  0  0  0  0
   57.5007   30.1946   42.0758 H   0  0  0  0  0  0  0  0  0  0  0  0
   55.8322   30.7867   42.4192 H   0  0  0  0  0  0  0  0  0  0  0  0
   58.4277   32.0936   42.8948 H   0  0  0  0  0  0  0  0  0  0  0  0
   56.7631   32.7865   42.8879 H   0  0  0  0  0  0  0  0  0  0  0  0
   57.5380   31.1870   45.2890 H   0  0  0  0  0  0  0  0  0  0  0  0
   56.9132   34.2340   47.3307 H   0  0  0  0  0  0  0  0  0  0  0  0
   57.0240   32.4378   47.3694 H   0  0  0  0  0  0  0  0  0  0  0  0
   58.6556   35.4328   48.0329 H   0  0  0  0  0  0  0  0  0  0  0  0
   63.2072   34.7697   48.8293 H   0  0  0  0  0  0  0  0  0  0  0  0
   64.8152   32.8970   48.4565 H   0  0  0  0  0  0  0  0  0  0  0  0
   64.0354   30.7638   47.4231 H   0  0  0  0  0  0  0  0  0  0  0  0
   61.6452   30.4928   46.7562 H   0  0  0  0  0  0  0  0  0  0  0  0
   60.5660   29.0968   46.4017 H   0  0  0  0  0  0  0  0  0  0  0  0
   60.8278   28.1343   44.9078 H   0  0  0  0  0  0  0  0  0  0  0  0
   59.6494   29.4900   44.9078 H   0  0  0  0  0  0  0  0  0  0  0  0
   60.4422   27.1570   49.8078 H   0  0  0  0  0  0  0  0  0  0  0  0
   61.6573   28.0858   48.8658 H   0  0  0  0  0  0  0  0  0  0  0  0
   59.9363   28.6004   48.8658 H   0  0  0  0  0  0  0  0  0  0  0  0
   58.2517   25.3260   48.2673 H   0  0  0  0  0  0  0  0  0  0  0  0
  1  2  1  0
  2  3  1  0
  3  4  2  0
  4  5  1  0
  5  6  1  0
  6  7  1  0
  7  8  2  0
  7  9  1  0
  9 10  1  0
 10 11  1  0
 11 12  1  0
 12 13  2  0
 12 14  1  0
 14 15  1  0
 15 16  1  0
 16 17  2  0
 17 18  1  0
 18 19  2  0
 19 20  1  0
 20 21  2  0
 21 22  1  0
 22 23  2  0
 23 24  1  0
 24 25  2  0
  5 26  2  0
 26 27  1  0
 26 28  1  0
 28 29  1  0
 29 30  1  0
 28 31  2  0
 31  3  1  0
 24 15  1  0
 23 18  1  0
  1 32  1  0
  1 33  1  0
  1 34  1  0
  4 35  1  0
  9 36  1  0
  9 37  1  0
 10 38  1  0
 10 39  1  0
 11 40  1  0
 14 41  1  0
 14 42  1  0
 16 43  1  0
 19 44  1  0
 20 45  1  0
 21 46  1  0
 22 47  1  0
 27 48  1  0
 27 49  1  0
 27 50  1  0
 30 51  1  0
 30 52  1  0
 30 53  1  0
 31 54  1  0
M  CHG  1   6  -1
M  END
>  <UniqueID>  (89) 
80

>  <SMILES>  (89) 
COc1cc([N-]C(=O)CCNC(=O)Cn2cnc3ccccc3c2=O)c(C)c(OC)c1

>  <Energy>  (89) 
58.3975759828371

>  <Genealogy>  (89) 
COc1cc([N-]C(=O)CCNC(=O)Cn2cnc3ccccc3c2=O)c(C)c(OC)c1 (protonated)
COc1cc([N-]C(=O)CCNC(=O)Cn2cnc3ccccc3c2=O)c(C)c(OC)c1 (3D coordinates assigned)
COc1cc([N-]C(=O)CCNC(=O)Cn2cnc3ccccc3c2=O)c(C)c(OC)c1 (optimized conformer: 58.3975759828371 kcal/mol)

>  <smiles>  (89) 
COc1cc(NC(=O)CCNC(=O)Cn2cnc3ccccc3c2=O)c(C)c(OC)c1

>  <score_type>  (89) 
oracle

>  <origin>  (89) 
adg

>  <m_score__min__energy>  (89) 
-9.6699999999999999

>  <m_primary>  (89) 
energy

$$$$
90:0
     RDKit          3D

 34 36  0  0  0  0  0  0  0  0999 V2000
   54.6190   24.5990   45.6240 C   0  0  0  0  0  0  0  0  0  0  0  0
   55.0230   25.9130   45.9950 O   0  0  0  0  0  0  0  0  0  0  0  0
   56.3440   26.3850   45.9350 C   0  0  0  0  0  0  0  0  0  0  0  0
   57.3810   25.4700   46.1410 C   0  0  0  0  0  0  0  0  0  0  0  0
   58.7140   25.8800   46.0810 C   0  0  0  0  0  0  0  0  0  0  0  0
   59.0300   27.2210   45.8250 C   0  0  0  0  0  0  0  0  0  0  0  0
   60.3710   27.6250   45.7370 C   0  0  0  0  0  0  0  0  0  0  0  0
   60.6860   28.9550   45.4580 C   0  0  0  0  0  0  0  0  0  0  0  0
   59.6710   29.8960   45.2820 C   0  0  0  0  0  0  0  0  0  0  0  0
   58.3260   29.5230   45.3950 C   0  0  0  0  0  0  0  0  0  0  0  0
   57.3490   30.5140   45.2450 O   0  0  0  0  0  0  0  0  0  0  0  0
   57.5890   31.7320   44.5970 C   0  0  0  0  0  0  0  0  0  0  0  0
   57.2830   31.8780   43.3810 O   0  0  0  0  0  0  0  0  0  0  0  0
   58.1920   32.8540   45.3350 C   0  0  0  0  0  0  0  0  0  0  0  0
   58.2320   32.8590   46.7380 C   0  0  0  0  0  0  0  0  0  0  0  0
   58.8160   33.9380   47.4050 C   0  0  0  0  0  0  0  0  0  0  0  0
   59.3520   34.9980   46.6730 C   0  0  0  0  0  0  0  0  0  0  0  0
   59.2960   34.9630   45.2790 C   0  0  0  0  0  0  0  0  0  0  0  0
   58.7240   33.9030   44.6470 N   0  0  0  0  0  0  0  0  0  0  0  0
   57.9920   28.1690   45.6400 C   0  0  0  0  0  0  0  0  0  0  0  0
   56.6540   27.7340   45.6770 C   0  0  0  0  0  0  0  0  0  0  0  0
   54.4356   24.0023   46.5297 H   0  0  0  0  0  0  0  0  0  0  0  0
   53.6962   24.6537   45.0278 H   0  0  0  0  0  0  0  0  0  0  0  0
   55.4132   24.1258   45.0278 H   0  0  0  0  0  0  0  0  0  0  0  0
   57.1441   24.4168   46.3524 H   0  0  0  0  0  0  0  0  0  0  0  0
   59.5198   25.1473   46.2353 H   0  0  0  0  0  0  0  0  0  0  0  0
   61.1760   26.8909   45.8884 H   0  0  0  0  0  0  0  0  0  0  0  0
   61.7388   29.2631   45.3764 H   0  0  0  0  0  0  0  0  0  0  0  0
   59.9296   30.9402   45.0524 H   0  0  0  0  0  0  0  0  0  0  0  0
   57.8067   32.0196   47.3077 H   0  0  0  0  0  0  0  0  0  0  0  0
   58.8533   33.9522   48.5043 H   0  0  0  0  0  0  0  0  0  0  0  0
   59.8139   35.8524   47.1893 H   0  0  0  0  0  0  0  0  0  0  0  0
   59.7147   35.7931   44.6910 H   0  0  0  0  0  0  0  0  0  0  0  0
   55.8421   28.4554   45.5026 H   0  0  0  0  0  0  0  0  0  0  0  0
  1  2  1  0
  2  3  1  0
  3  4  2  0
  4  5  1  0
  5  6  2  0
  6  7  1  0
  7  8  2  0
  8  9  1  0
  9 10  2  0
 10 11  1  0
 11 12  1  0
 12 13  2  0
 12 14  1  0
 14 15  2  0
 15 16  1  0
 16 17  2  0
 17 18  1  0
 18 19  2  0
 10 20  1  0
 20 21  2  0
 21  3  1  0
 20  6  1  0
 19 14  1  0
  1 22  1  0
  1 23  1  0
  1 24  1  0
  4 25  1  0
  5 26  1  0
  7 27  1  0
  8 28  1  0
  9 29  1  0
 15 30  1  0
 16 31  1  0
 17 32  1  0
 18 33  1  0
 21 34  1  0
M  END
>  <UniqueID>  (90) 
81

>  <SMILES>  (90) 
COc1ccc2cccc(OC(=O)c3ccccn3)c2c1

>  <Energy>  (90) 
47.474945441849385

>  <Genealogy>  (90) 
COc1ccc2cccc(OC(=O)c3ccccn3)c2c1 (3D coordinates assigned)
COc1ccc2cccc(OC(=O)c3ccccn3)c2c1 (optimized conformer: 47.474945441849385 kcal/mol)

>  <smiles>  (90) 
COc1ccc2cccc(OC(=O)c3ccccn3)c2c1

>  <score_type>  (90) 
oracle

>  <origin>  (90) 
adg

>  <m_score__min__energy>  (90) 
-7.8399999999999999

>  <m_primary>  (90) 
energy

$$$$
91:0
     RDKit          3D

 44 47  0  0  0  0  0  0  0  0999 V2000
   58.1260   32.7310   43.6550 C   0  0  0  0  0  0  0  0  0  0  0  0
   58.1040   31.2440   43.2980 C   0  0  0  0  0  0  0  0  0  0  0  0
   56.6960   30.7390   42.9380 C   0  0  0  0  0  0  0  0  0  0  0  0
   56.0560   29.8490   44.0160 C   0  0  0  0  0  0  0  0  0  0  0  0
   57.0910   29.0640   44.7840 C   0  0  0  0  0  0  0  0  0  0  0  0
   57.2480   27.7240   44.5620 N   0  0  0  0  0  0  0  0  0  0  0  0
   58.1630   26.9760   45.2770 C   0  0  0  0  0  0  0  0  0  0  0  0
   58.9530   27.6150   46.2680 C   0  0  0  0  0  0  0  0  0  0  0  0
   59.8760   26.8550   46.9940 C   0  0  0  0  0  0  0  0  0  0  0  0
   60.5990   27.3760   47.8840 O   0  0  0  0  0  0  0  0  0  0  0  0
   59.9950   25.5330   46.7350 N   0  0  0  0  0  0  0  0  0  0  0  0
   59.2450   24.9160   45.7890 C   0  0  0  0  0  0  0  0  0  0  0  0
   59.4120   23.6790   45.6050 O   0  0  0  0  0  0  0  0  0  0  0  0
   58.3240   25.6230   45.0500 N   0  0  0  0  0  0  0  0  0  0  0  0
   57.5170   24.9340   44.0250 C   0  0  0  0  0  0  0  0  0  0  0  0
   58.7500   28.9850   46.4620 C   0  0  0  0  0  0  0  0  0  0  0  0
   59.3690   29.7860   47.3520 N   0  0  0  0  0  0  0  0  0  0  0  0
   58.7730   30.9830   47.1030 C   0  0  0  0  0  0  0  0  0  0  0  0
   59.0950   32.2250   47.8350 C   0  0  0  0  0  0  0  0  0  0  0  0
   59.3360   32.1960   49.2200 C   0  0  0  0  0  0  0  0  0  0  0  0
   59.6380   33.3730   49.9120 C   0  0  0  0  0  0  0  0  0  0  0  0
   59.7010   34.5900   49.2270 C   0  0  0  0  0  0  0  0  0  0  0  0
   59.4620   34.6320   47.8510 C   0  0  0  0  0  0  0  0  0  0  0  0
   59.1610   33.4570   47.1560 C   0  0  0  0  0  0  0  0  0  0  0  0
   57.8460   30.9140   46.1190 N   0  0  0  0  0  0  0  0  0  0  0  0
   57.8540   29.6520   45.7380 N   0  0  0  0  0  0  0  0  0  0  0  0
   58.1277   32.8454   44.7490 H   0  0  0  0  0  0  0  0  0  0  0  0
   59.0311   33.1952   43.2364 H   0  0  0  0  0  0  0  0  0  0  0  0
   57.2350   33.2218   43.2364 H   0  0  0  0  0  0  0  0  0  0  0  0
   58.7676   31.0794   42.4363 H   0  0  0  0  0  0  0  0  0  0  0  0
   58.4402   30.6853   44.1839 H   0  0  0  0  0  0  0  0  0  0  0  0
   56.0456   31.6118   42.7792 H   0  0  0  0  0  0  0  0  0  0  0  0
   56.8014   30.1193   42.0353 H   0  0  0  0  0  0  0  0  0  0  0  0
   55.4991   30.4862   44.7188 H   0  0  0  0  0  0  0  0  0  0  0  0
   55.3876   29.1334   43.5149 H   0  0  0  0  0  0  0  0  0  0  0  0
   56.6450   27.2870   43.8320 H   0  0  0  0  0  0  0  0  0  0  0  0
   56.7685   24.2949   44.5162 H   0  0  0  0  0  0  0  0  0  0  0  0
   57.0072   25.6797   43.3973 H   0  0  0  0  0  0  0  0  0  0  0  0
   58.1736   24.3136   43.3973 H   0  0  0  0  0  0  0  0  0  0  0  0
   59.2866   31.2406   49.7630 H   0  0  0  0  0  0  0  0  0  0  0  0
   59.8260   33.3413   50.9954 H   0  0  0  0  0  0  0  0  0  0  0  0
   59.9390   35.5155   49.7718 H   0  0  0  0  0  0  0  0  0  0  0  0
   59.5108   35.5908   47.3140 H   0  0  0  0  0  0  0  0  0  0  0  0
   58.9746   33.4950   46.0726 H   0  0  0  0  0  0  0  0  0  0  0  0
  1  2  1  0
  2  3  1  0
  3  4  1  0
  4  5  1  0
  5  6  2  0
  6  7  1  0
  7  8  2  0
  8  9  1  0
  9 10  2  0
  9 11  1  0
 11 12  1  0
 12 13  2  0
 12 14  1  0
 14 15  1  0
  8 16  1  0
 16 17  2  0
 17 18  1  0
 18 19  1  0
 19 20  2  0
 20 21  1  0
 21 22  2  0
 22 23  1  0
 23 24  2  0
 18 25  2  0
 25 26  1  0
 26  5  1  0
 14  7  1  0
 26 16  1  0
 24 19  1  0
  1 27  1  0
  1 28  1  0
  1 29  1  0
  2 30  1  0
  2 31  1  0
  3 32  1  0
  3 33  1  0
  4 34  1  0
  4 35  1  0
  6 36  1  0
 15 37  1  0
 15 38  1  0
 15 39  1  0
 20 40  1  0
 21 41  1  0
 22 42  1  0
 23 43  1  0
 24 44  1  0
M  CHG  2   6   1  11  -1
M  END
>  <UniqueID>  (91) 
82

>  <SMILES>  (91) 
CCCCc1[nH+]c2c(c(=O)[n-]c(=O)n2C)c2nc(-c3ccccc3)nn12

>  <Energy>  (91) 
91.21767328914078

>  <Genealogy>  (91) 
CCCCc1[nH+]c2c(c(=O)[n-]c(=O)n2C)c2nc(-c3ccccc3)nn12 (protonated)
CCCCc1[nH+]c2c(c(=O)[n-]c(=O)n2C)c2nc(-c3ccccc3)nn12 (3D coordinates assigned)
CCCCc1[nH+]c2c(c(=O)[n-]c(=O)n2C)c2nc(-c3ccccc3)nn12 (optimized conformer: 91.21767328914078 kcal/mol)

>  <smiles>  (91) 
CCCCc1nc2c(c(=O)[nH]c(=O)n2C)c2nc(-c3ccccc3)nn12

>  <score_type>  (91) 
oracle

>  <origin>  (91) 
adg

>  <m_score__min__energy>  (91) 
-8.1999999999999993

>  <m_primary>  (91) 
energy

$$$$
92:0
     RDKit          3D

 51 53  0  0  0  0  0  0  0  0999 V2000
   55.1400   28.1980   44.8740 H   0  0  0  0  0  0  0  0  0  0  0  0
   55.1420   29.1770   44.5090 N   0  0  0  0  0  0  0  0  0  0  0  0
   56.2260   29.8830   44.4770 C   0  0  0  0  0  0  0  0  0  0  0  0
   56.5040   30.6650   43.4020 N   0  0  0  0  0  0  0  0  0  0  0  0
   57.6380   31.4140   43.3550 C   0  0  0  0  0  0  0  0  0  0  0  0
   57.9180   32.2210   42.2480 O   0  0  0  0  0  0  0  0  0  0  0  0
   57.0910   32.2550   41.0910 C   0  0  0  0  0  0  0  0  0  0  0  0
   56.0351   32.2984   41.3962 H   0  0  0  0  0  0  0  0  0  0  0  0
   57.3361   33.1438   40.4911 H   0  0  0  0  0  0  0  0  0  0  0  0
   57.2623   31.3491   40.4911 H   0  0  0  0  0  0  0  0  0  0  0  0
   58.5340   31.3790   44.4240 C   0  0  0  0  0  0  0  0  0  0  0  0
   59.4550   31.9800   44.4011 H   0  0  0  0  0  0  0  0  0  0  0  0
   58.2410   30.5640   45.5300 C   0  0  0  0  0  0  0  0  0  0  0  0
   59.1320   30.4890   46.6660 N   0  0  0  0  0  0  0  0  0  0  0  0
   58.8790   29.5180   47.7370 C   0  0  0  0  0  0  0  0  0  0  0  0
   57.8029   29.2945   47.7822 H   0  0  0  0  0  0  0  0  0  0  0  0
   59.4381   28.5931   47.5321 H   0  0  0  0  0  0  0  0  0  0  0  0
   59.3360   30.1040   49.0790 C   0  0  0  0  0  0  0  0  0  0  0  0
   58.7011   30.9708   49.3146 H   0  0  0  0  0  0  0  0  0  0  0  0
   59.2455   29.3041   49.8287 H   0  0  0  0  0  0  0  0  0  0  0  0
   60.7580   30.5470   49.0810 N   0  0  0  0  0  0  0  0  0  0  0  0
   60.9640   31.7530   49.9130 C   0  0  0  0  0  0  0  0  0  0  0  0
   61.4127   31.4500   50.8705 H   0  0  0  0  0  0  0  0  0  0  0  0
   61.6245   32.4360   49.3587 H   0  0  0  0  0  0  0  0  0  0  0  0
   59.6460   32.4980   50.1970 C   0  0  0  0  0  0  0  0  0  0  0  0
   58.8318   31.9762   49.6729 H   0  0  0  0  0  0  0  0  0  0  0  0
   59.5066   32.5020   51.2881 H   0  0  0  0  0  0  0  0  0  0  0  0
   59.6570   33.9680   49.7380 C   0  0  0  0  0  0  0  0  0  0  0  0
   58.6172   34.2995   49.6007 H   0  0  0  0  0  0  0  0  0  0  0  0
   60.1762   34.5496   50.5140 H   0  0  0  0  0  0  0  0  0  0  0  0
   60.4160   34.1830   48.4210 C   0  0  0  0  0  0  0  0  0  0  0  0
   60.9832   35.1236   48.4794 H   0  0  0  0  0  0  0  0  0  0  0  0
   61.1007   33.3368   48.2625 H   0  0  0  0  0  0  0  0  0  0  0  0
   59.4550   34.2550   47.2650 C   0  0  0  0  0  0  0  0  0  0  0  0
   59.8510   34.8350   46.0480 C   0  0  0  0  0  0  0  0  0  0  0  0
   60.8608   35.2593   45.9463 H   0  0  0  0  0  0  0  0  0  0  0  0
   58.9670   34.8750   44.9660 C   0  0  0  0  0  0  0  0  0  0  0  0
   59.2795   35.3374   44.0181 H   0  0  0  0  0  0  0  0  0  0  0  0
   57.6860   34.3280   45.0870 C   0  0  0  0  0  0  0  0  0  0  0  0
   56.9904   34.3624   44.2356 H   0  0  0  0  0  0  0  0  0  0  0  0
   57.2900   33.7380   46.2890 C   0  0  0  0  0  0  0  0  0  0  0  0
   56.2831   33.3051   46.3819 H   0  0  0  0  0  0  0  0  0  0  0  0
   58.1700   33.6960   47.3750 C   0  0  0  0  0  0  0  0  0  0  0  0
   57.8558   33.2243   48.3178 H   0  0  0  0  0  0  0  0  0  0  0  0
   61.3520   30.7040   47.7320 C   0  0  0  0  0  0  0  0  0  0  0  0
   62.2214   31.3739   47.8056 H   0  0  0  0  0  0  0  0  0  0  0  0
   61.6397   29.7038   47.3760 H   0  0  0  0  0  0  0  0  0  0  0  0
   60.3630   31.2920   46.7170 C   0  0  0  0  0  0  0  0  0  0  0  0
   60.1109   32.3211   47.0128 H   0  0  0  0  0  0  0  0  0  0  0  0
   60.8314   31.2851   45.7217 H   0  0  0  0  0  0  0  0  0  0  0  0
   57.0890   29.8390   45.5250 N   0  0  0  0  0  0  0  0  0  0  0  0
  1  2  1  0
  2  3  2  0
  3  4  1  0
  4  5  2  0
  5  6  1  0
  6  7  1  0
  7  8  1  0
  7  9  1  0
  7 10  1  0
  5 11  1  0
 11 12  1  0
 11 13  2  0
 13 14  1  0
 14 15  1  0
 15 16  1  0
 15 17  1  0
 15 18  1  0
 18 19  1  0
 18 20  1  0
 18 21  1  0
 21 22  1  0
 22 23  1  0
 22 24  1  0
 22 25  1  0
 25 26  1  0
 25 27  1  0
 25 28  1  0
 28 29  1  0
 28 30  1  0
 28 31  1  0
 31 32  1  0
 31 33  1  0
 31 34  1  0
 34 35  2  0
 35 36  1  0
 35 37  1  0
 37 38  1  0
 37 39  2  0
 39 40  1  0
 39 41  1  0
 41 42  1  0
 41 43  2  0
 43 44  1  0
 21 45  1  0
 45 46  1  0
 45 47  1  0
 45 48  1  0
 48 49  1  0
 48 50  1  0
 13 51  1  0
 51  3  1  0
 48 14  1  0
 43 34  1  0
M  CHG  1  51  -1
M  END
>  <UniqueID>  (92) 
83

>  <SMILES>  (92) 
[H]/N=c1\nc(OC)cc(N2CCN(CCCCc3ccccc3)CC2)[n-]1

>  <Energy>  (92) 
55.45760913932219

>  <Genealogy>  (92) 
COc1cc(N2CCN(CCCCc3ccccc3)CC2)[n-]c(=N)n1 (protonated)
[H]/N=c1\nc(OC)cc(N2CCN(CCCCc3ccccc3)CC2)[n-]1 (cis-trans isomerization)
[H]/N=c1\nc(OC)cc(N2CCN(CCCCc3ccccc3)CC2)[n-]1 (3D coordinates assigned)
[H]/N=c1\nc(OC)cc(N2CCN(CCCCc3ccccc3)CC2)[n-]1 (nonaromatic ring conformer: 55.45760913932219 kcal/mol)

>  <smiles>  (92) 
COc1cc(N2CCN(CCCCc3ccccc3)CC2)[nH]c(=N)n1

>  <score_type>  (92) 
oracle

>  <origin>  (92) 
adg

>  <m_score__min__energy>  (92) 
-9.9399999999999995

>  <m_primary>  (92) 
energy

$$$$
93:0
     RDKit          3D

 29 31  0  0  0  0  0  0  0  0999 V2000
   57.7780   32.3460   42.6370 C   0  0  0  0  0  0  0  0  0  0  0  0
   57.0230   31.2680   42.1700 C   0  0  0  0  0  0  0  0  0  0  0  0
   56.5500   30.3030   43.0660 C   0  0  0  0  0  0  0  0  0  0  0  0
   56.8170   30.4170   44.4400 C   0  0  0  0  0  0  0  0  0  0  0  0
   56.3410   29.3990   45.3370 N   0  0  0  0  0  0  0  0  0  0  0  0
   56.6740   28.0050   45.2310 C   0  0  0  0  0  0  0  0  0  0  0  0
   57.6520   27.6170   44.4640 N   0  0  0  0  0  0  0  0  0  0  0  0
   58.1210   26.2340   44.3190 C   0  0  0  0  0  0  0  0  0  0  0  0
   57.2190   25.2270   44.9880 C   0  0  0  0  0  0  0  0  0  0  0  0
   57.4410   23.8540   44.8270 C   0  0  0  0  0  0  0  0  0  0  0  0
   56.6260   22.9350   45.4920 C   0  0  0  0  0  0  0  0  0  0  0  0
   55.6030   23.4010   46.3200 C   0  0  0  0  0  0  0  0  0  0  0  0
   55.4050   24.7370   46.4710 N   0  0  0  0  0  0  0  0  0  0  0  0
   56.1850   25.6520   45.8320 C   0  0  0  0  0  0  0  0  0  0  0  0
   55.9400   27.0470   46.0020 N   0  0  0  0  0  0  0  0  0  0  0  0
   57.5990   31.4930   44.8980 C   0  0  0  0  0  0  0  0  0  0  0  0
   58.0700   32.4560   43.9990 C   0  0  0  0  0  0  0  0  0  0  0  0
   58.1427   33.1083   41.9328 H   0  0  0  0  0  0  0  0  0  0  0  0
   56.7999   31.1774   41.0967 H   0  0  0  0  0  0  0  0  0  0  0  0
   55.9653   29.4497   42.6918 H   0  0  0  0  0  0  0  0  0  0  0  0
   55.7820   29.6990   46.1670 H   0  0  0  0  0  0  0  0  0  0  0  0
   58.1775   25.9947   43.2468 H   0  0  0  0  0  0  0  0  0  0  0  0
   59.1035   26.1691   44.8094 H   0  0  0  0  0  0  0  0  0  0  0  0
   58.2556   23.4998   44.1781 H   0  0  0  0  0  0  0  0  0  0  0  0
   56.7886   21.8546   45.3646 H   0  0  0  0  0  0  0  0  0  0  0  0
   54.9568   22.6862   46.8505 H   0  0  0  0  0  0  0  0  0  0  0  0
   55.1760   27.3640   46.6400 H   0  0  0  0  0  0  0  0  0  0  0  0
   57.8412   31.5776   45.9677 H   0  0  0  0  0  0  0  0  0  0  0  0
   58.6713   33.3013   44.3651 H   0  0  0  0  0  0  0  0  0  0  0  0
  1  2  2  0
  2  3  1  0
  3  4  2  0
  4  5  1  0
  5  6  1  0
  6  7  2  0
  7  8  1  0
  8  9  1  0
  9 10  2  0
 10 11  1  0
 11 12  2  0
 12 13  1  0
 13 14  2  0
 14 15  1  0
  4 16  1  0
 16 17  2  0
 17  1  1  0
 15  6  1  0
 14  9  1  0
  1 18  1  0
  2 19  1  0
  3 20  1  0
  5 21  1  0
  8 22  1  0
  8 23  1  0
 10 24  1  0
 11 25  1  0
 12 26  1  0
 15 27  1  0
 16 28  1  0
 17 29  1  0
M  END
>  <UniqueID>  (93) 
84

>  <SMILES>  (93) 
c1ccc(NC2=NCc3cccnc3N2)cc1

>  <Energy>  (93) 
38.41969798698424

>  <Genealogy>  (93) 
c1ccc(NC2=NCc3cccnc3N2)cc1 (3D coordinates assigned)
c1ccc(NC2=NCc3cccnc3N2)cc1 (nonaromatic ring conformer: 38.41969798698424 kcal/mol)

>  <smiles>  (93) 
c1ccc(NC2=NCc3cccnc3N2)cc1

>  <score_type>  (93) 
oracle

>  <origin>  (93) 
adg

>  <m_score__min__energy>  (93) 
-7.1299999999999999

>  <m_primary>  (93) 
energy

$$$$
94:0
     RDKit          3D

 43 46  0  0  0  0  0  0  0  0999 V2000
   58.1255   32.2783   41.2276 H   0  0  0  0  0  0  0  0  0  0  0  0
   57.8640   32.0670   42.2750 C   0  0  0  0  0  0  0  0  0  0  0  0
   56.9820   31.0780   42.5670 N   0  0  0  0  0  0  0  0  0  0  0  0
   56.6370   30.7960   43.8520 C   0  0  0  0  0  0  0  0  0  0  0  0
   55.6690   29.7160   44.1210 C   0  0  0  0  0  0  0  0  0  0  0  0
   54.6420   29.6150   43.3940 O   0  0  0  0  0  0  0  0  0  0  0  0
   55.8980   28.7940   45.2000 N   0  0  0  0  0  0  0  0  0  0  0  0
   56.8410   27.9010   45.2560 C   0  0  0  0  0  0  0  0  0  0  0  0
   56.6780   26.6330   45.6830 N   0  0  0  0  0  0  0  0  0  0  0  0
   57.8610   26.0470   45.5900 N   0  0  0  0  0  0  0  0  0  0  0  0
   58.1250   24.6800   46.0230 C   0  0  0  0  0  0  0  0  0  0  0  0
   59.1977   24.5658   46.2381 H   0  0  0  0  0  0  0  0  0  0  0  0
   57.5404   24.4670   46.9301 H   0  0  0  0  0  0  0  0  0  0  0  0
   57.7280   23.7170   44.9390 C   0  0  0  0  0  0  0  0  0  0  0  0
   58.3030   22.4370   44.8840 C   0  0  0  0  0  0  0  0  0  0  0  0
   59.0709   22.1487   45.6169 H   0  0  0  0  0  0  0  0  0  0  0  0
   57.9020   21.5280   43.9000 C   0  0  0  0  0  0  0  0  0  0  0  0
   58.3616   20.5297   43.8546 H   0  0  0  0  0  0  0  0  0  0  0  0
   56.9180   21.8860   42.9740 C   0  0  0  0  0  0  0  0  0  0  0  0
   56.6066   21.1711   42.1981 H   0  0  0  0  0  0  0  0  0  0  0  0
   56.3300   23.1520   43.0340 C   0  0  0  0  0  0  0  0  0  0  0  0
   55.5528   23.4316   42.3075 H   0  0  0  0  0  0  0  0  0  0  0  0
   56.7280   24.0640   44.0160 C   0  0  0  0  0  0  0  0  0  0  0  0
   56.2564   25.0565   44.0659 H   0  0  0  0  0  0  0  0  0  0  0  0
   58.7780   26.9220   45.1280 C   0  0  0  0  0  0  0  0  0  0  0  0
   59.8447   26.7085   44.9651 H   0  0  0  0  0  0  0  0  0  0  0  0
   58.1530   28.1300   44.8940 C   0  0  0  0  0  0  0  0  0  0  0  0
   58.5973   29.0595   44.5085 H   0  0  0  0  0  0  0  0  0  0  0  0
   57.2080   31.5420   44.8950 C   0  0  0  0  0  0  0  0  0  0  0  0
   56.9431   31.3334   45.9421 H   0  0  0  0  0  0  0  0  0  0  0  0
   58.1230   32.5590   44.5790 C   0  0  0  0  0  0  0  0  0  0  0  0
   58.7640   33.3790   45.6390 C   0  0  0  0  0  0  0  0  0  0  0  0
   59.2470   34.6710   45.3530 C   0  0  0  0  0  0  0  0  0  0  0  0
   59.1573   35.0728   44.3329 H   0  0  0  0  0  0  0  0  0  0  0  0
   59.8390   35.4470   46.3530 C   0  0  0  0  0  0  0  0  0  0  0  0
   60.2147   36.4537   46.1175 H   0  0  0  0  0  0  0  0  0  0  0  0
   59.9540   34.9450   47.6520 C   0  0  0  0  0  0  0  0  0  0  0  0
   60.4221   35.5556   48.4381 H   0  0  0  0  0  0  0  0  0  0  0  0
   59.4750   33.6690   47.9520 C   0  0  0  0  0  0  0  0  0  0  0  0
   59.5656   33.2765   48.9756 H   0  0  0  0  0  0  0  0  0  0  0  0
   58.8800   32.8870   46.9560 C   0  0  0  0  0  0  0  0  0  0  0  0
   58.4440   31.6420   47.2760 F   0  0  0  0  0  0  0  0  0  0  0  0
   58.4240   32.7960   43.2740 N   0  0  0  0  0  0  0  0  0  0  0  0
  1  2  1  0
  2  3  2  0
  3  4  1  0
  4  5  1  0
  5  6  2  0
  5  7  1  0
  7  8  2  0
  8  9  1  0
  9 10  1  0
 10 11  1  0
 11 12  1  0
 11 13  1  0
 11 14  1  0
 14 15  2  0
 15 16  1  0
 15 17  1  0
 17 18  1  0
 17 19  2  0
 19 20  1  0
 19 21  1  0
 21 22  1  0
 21 23  2  0
 23 24  1  0
 10 25  1  0
 25 26  1  0
 25 27  2  0
 27 28  1  0
  4 29  2  0
 29 30  1  0
 29 31  1  0
 31 32  1  0
 32 33  2  0
 33 34  1  0
 33 35  1  0
 35 36  1  0
 35 37  2  0
 37 38  1  0
 37 39  1  0
 39 40  1  0
 39 41  2  0
 41 42  1  0
 31 43  2  0
 43  2  1  0
 27  8  1  0
 41 32  1  0
 23 14  1  0
M  CHG  1   9  -1
M  END
>  <UniqueID>  (94) 
85

>  <SMILES>  (94) 
O=C(/N=c1/ccn(Cc2ccccc2)[n-]1)c1cc(-c2ccccc2F)ncn1

>  <Energy>  (94) 
84.16717298693203

>  <Genealogy>  (94) 
O=C(N=c1ccn(Cc2ccccc2)[n-]1)c1cc(-c2ccccc2F)ncn1 (protonated)
O=C(/N=c1/ccn(Cc2ccccc2)[n-]1)c1cc(-c2ccccc2F)ncn1 (cis-trans isomerization)
O=C(/N=c1/ccn(Cc2ccccc2)[n-]1)c1cc(-c2ccccc2F)ncn1 (3D coordinates assigned)
O=C(/N=c1/ccn(Cc2ccccc2)[n-]1)c1cc(-c2ccccc2F)ncn1 (optimized conformer: 84.16717298693203 kcal/mol)

>  <smiles>  (94) 
O=C(N=c1ccn(Cc2ccccc2)[nH]1)c1cc(-c2ccccc2F)ncn1

>  <score_type>  (94) 
oracle

>  <origin>  (94) 
adg

>  <m_score__min__energy>  (94) 
-10.4

>  <m_primary>  (94) 
energy

$$$$
