0:0
     RDKit          3D

 45 47  0  0  0  0  0  0  0  0999 V2000
   60.0300   30.9750   46.1550 O   0  0  0  0  0  0  0  0  0  0  0  0
   60.0180   29.9770   46.9220 C   0  0  0  0  0  0  0  0  0  0  0  0
   60.0920   28.6020   46.3310 C   0  0  0  0  0  0  0  0  0  0  0  0
   59.8440   28.7000   44.5300 S   0  0  0  0  0  0  0  0  0  0  0  0
   58.0750   28.9600   44.6730 C   0  0  0  0  0  0  0  0  0  0  0  0
   57.2490   28.1080   45.3120 N   0  0  0  0  0  0  0  0  0  0  0  0
   56.0280   28.6190   45.2350 N   0  0  0  0  0  0  0  0  0  0  0  0
   56.1410   29.7720   44.5530 C   0  0  0  0  0  0  0  0  0  0  0  0
   55.1670   30.5310   44.3030 O   0  0  0  0  0  0  0  0  0  0  0  0
   57.4080   30.0190   44.1740 N   0  0  0  0  0  0  0  0  0  0  0  0
   57.9370   31.1940   43.4800 C   0  0  0  0  0  0  0  0  0  0  0  0
   58.0410   32.3550   44.4320 C   0  0  0  0  0  0  0  0  0  0  0  0
   57.3200   32.3550   45.6390 C   0  0  0  0  0  0  0  0  0  0  0  0
   57.3990   33.4500   46.5050 C   0  0  0  0  0  0  0  0  0  0  0  0
   58.1910   34.5520   46.1720 C   0  0  0  0  0  0  0  0  0  0  0  0
   58.9060   34.5610   44.9710 C   0  0  0  0  0  0  0  0  0  0  0  0
   58.8310   33.4690   44.1020 C   0  0  0  0  0  0  0  0  0  0  0  0
   59.8850   30.1880   48.3330 N   0  0  0  0  0  0  0  0  0  0  0  0
   60.9710   30.0390   49.2920 C   0  0  0  0  0  0  0  0  0  0  0  0
   61.3580   31.4100   49.8460 C   0  0  0  0  0  0  0  0  0  0  0  0
   62.0270   32.2500   48.7850 C   0  0  0  0  0  0  0  0  0  0  0  0
   63.4320   32.3130   48.7550 C   0  0  0  0  0  0  0  0  0  0  0  0
   64.0890   33.0910   47.7990 C   0  0  0  0  0  0  0  0  0  0  0  0
   63.3540   33.8230   46.8680 C   0  0  0  0  0  0  0  0  0  0  0  0
   61.9590   33.7850   46.8940 C   0  0  0  0  0  0  0  0  0  0  0  0
   61.2840   33.0130   47.8470 C   0  0  0  0  0  0  0  0  0  0  0  0
   59.8870   33.0330   47.8360 O   0  0  0  0  0  0  0  0  0  0  0  0
   61.0793   28.1652   46.5418 H   0  0  0  0  0  0  0  0  0  0  0  0
   59.3086   27.9700   46.7747 H   0  0  0  0  0  0  0  0  0  0  0  0
   58.9349   30.9613   43.0799 H   0  0  0  0  0  0  0  0  0  0  0  0
   57.2569   31.4627   42.6582 H   0  0  0  0  0  0  0  0  0  0  0  0
   56.6920   31.4912   45.9028 H   0  0  0  0  0  0  0  0  0  0  0  0
   56.8365   33.4439   47.4503 H   0  0  0  0  0  0  0  0  0  0  0  0
   58.2518   35.4122   46.8549 H   0  0  0  0  0  0  0  0  0  0  0  0
   59.5288   35.4291   44.7093 H   0  0  0  0  0  0  0  0  0  0  0  0
   59.3925   33.4817   43.1562 H   0  0  0  0  0  0  0  0  0  0  0  0
   60.6439   29.3897   50.1175 H   0  0  0  0  0  0  0  0  0  0  0  0
   61.8409   29.5886   48.7915 H   0  0  0  0  0  0  0  0  0  0  0  0
   60.4517   31.9261   50.1957 H   0  0  0  0  0  0  0  0  0  0  0  0
   62.0635   31.2668   50.6777 H   0  0  0  0  0  0  0  0  0  0  0  0
   64.0187   31.7442   49.4914 H   0  0  0  0  0  0  0  0  0  0  0  0
   65.1883   33.1261   47.7808 H   0  0  0  0  0  0  0  0  0  0  0  0
   63.8735   34.4308   46.1126 H   0  0  0  0  0  0  0  0  0  0  0  0
   61.3844   34.3673   46.1586 H   0  0  0  0  0  0  0  0  0  0  0  0
   59.3170   32.2000   47.7830 H   0  0  0  0  0  0  0  0  0  0  0  0
  1  2  2  0
  2  3  1  0
  3  4  1  0
  4  5  1  0
  5  6  2  0
  6  7  1  0
  7  8  1  0
  8  9  2  0
  8 10  1  0
 10 11  1  0
 11 12  1  0
 12 13  2  0
 13 14  1  0
 14 15  2  0
 15 16  1  0
 16 17  2  0
  2 18  1  0
 18 19  1  0
 19 20  1  0
 20 21  1  0
 21 22  2  0
 22 23  1  0
 23 24  2  0
 24 25  1  0
 25 26  2  0
 26 27  1  0
 10  5  1  0
 17 12  1  0
 26 21  1  0
  3 28  1  0
  3 29  1  0
 11 30  1  0
 11 31  1  0
 13 32  1  0
 14 33  1  0
 15 34  1  0
 16 35  1  0
 17 36  1  0
 19 37  1  0
 19 38  1  0
 20 39  1  0
 20 40  1  0
 22 41  1  0
 23 42  1  0
 24 43  1  0
 25 44  1  0
 27 45  1  0
M  CHG  2   7  -1  18  -1
M  END
>  <UniqueID>  (1) 
1

>  <SMILES>  (1) 
O=C(CSc1n[n-]c(=O)n1Cc1ccccc1)[N-]CCc1ccccc1O

>  <Energy>  (1) 
73.44714708828923

>  <Genealogy>  (1) 
O=C(CSc1n[n-]c(=O)n1Cc1ccccc1)[N-]CCc1ccccc1O (protonated)
O=C(CSc1n[n-]c(=O)n1Cc1ccccc1)[N-]CCc1ccccc1O (3D coordinates assigned)
O=C(CSc1n[n-]c(=O)n1Cc1ccccc1)[N-]CCc1ccccc1O (optimized conformer: 73.44714708828923 kcal/mol)

>  <smiles>  (1) 
O=C(CSc1n[nH]c(=O)n1Cc1ccccc1)NCCc1ccccc1O

>  <score_type>  (1) 
oracle

>  <origin>  (1) 
adg

>  <m_score__min__energy>  (1) 
-12.35

>  <m_primary>  (1) 
energy

$$$$
1:0
     RDKit          3D

 55 58  0  0  0  0  0  0  0  0999 V2000
   50.6460   23.4310   44.0950 C   0  0  0  0  0  0  0  0  0  0  0  0
   51.1690   22.2640   44.7220 O   0  0  0  0  0  0  0  0  0  0  0  0
   51.8190   22.2540   45.9650 C   0  0  0  0  0  0  0  0  0  0  0  0
   51.1800   21.8030   47.1380 C   0  0  0  0  0  0  0  0  0  0  0  0
   51.8600   21.8090   48.3590 C   0  0  0  0  0  0  0  0  0  0  0  0
   53.1790   22.2530   48.4230 C   0  0  0  0  0  0  0  0  0  0  0  0
   53.8230   22.7030   47.2690 C   0  0  0  0  0  0  0  0  0  0  0  0
   53.1430   22.7200   46.0370 C   0  0  0  0  0  0  0  0  0  0  0  0
   53.7880   23.1650   44.8350 N   0  0  0  0  0  0  0  0  0  0  0  0
   55.1750   23.0020   44.5240 C   0  0  0  0  0  0  0  0  0  0  0  0
   55.5270   22.3870   43.4800 O   0  0  0  0  0  0  0  0  0  0  0  0
   56.2030   23.4500   45.5180 C   0  0  0  0  0  0  0  0  0  0  0  0
   56.3820   24.9350   45.4910 C   0  0  0  0  0  0  0  0  0  0  0  0
   55.5190   25.7990   46.0740 N   0  0  0  0  0  0  0  0  0  0  0  0
   55.9070   27.0680   45.9880 N   0  0  0  0  0  0  0  0  0  0  0  0
   57.0820   27.2170   45.3350 C   0  0  0  0  0  0  0  0  0  0  0  0
   57.6820   28.3560   45.1560 N   0  0  0  0  0  0  0  0  0  0  0  0
   57.0620   29.6490   45.2330 C   0  0  0  0  0  0  0  0  0  0  0  0
   55.8650   29.7660   44.8680 O   0  0  0  0  0  0  0  0  0  0  0  0
   57.7660   30.8340   45.7710 C   0  0  0  0  0  0  0  0  0  0  0  0
   58.5340   30.7400   46.9450 C   0  0  0  0  0  0  0  0  0  0  0  0
   59.1970   31.8620   47.4460 C   0  0  0  0  0  0  0  0  0  0  0  0
   59.0920   33.0960   46.7890 C   0  0  0  0  0  0  0  0  0  0  0  0
   59.9610   34.5050   47.4050 S   0  0  0  0  0  0  0  0  0  0  0  0
   59.7930   35.6410   46.4370 O   0  0  0  0  0  0  0  0  0  0  0  0
   59.3540   34.9200   48.7170 O   0  0  0  0  0  0  0  0  0  0  0  0
   61.6660   34.2080   47.6380 N   0  0  0  0  0  0  0  0  0  0  0  0
   61.9160   33.1310   48.5920 C   0  0  0  0  0  0  0  0  0  0  0  0
   63.2890   32.5710   48.2530 C   0  0  0  0  0  0  0  0  0  0  0  0
   63.5700   33.0330   46.8280 C   0  0  0  0  0  0  0  0  0  0  0  0
   62.3250   33.7940   46.4040 C   0  0  0  0  0  0  0  0  0  0  0  0
   58.3170   33.1950   45.6260 C   0  0  0  0  0  0  0  0  0  0  0  0
   57.6490   32.0750   45.1260 C   0  0  0  0  0  0  0  0  0  0  0  0
   57.7160   25.7380   44.8440 S   0  0  0  0  0  0  0  0  0  0  0  0
   50.3246   24.1481   44.8648 H   0  0  0  0  0  0  0  0  0  0  0  0
   51.4243   23.8904   43.4680 H   0  0  0  0  0  0  0  0  0  0  0  0
   49.7851   23.1558   43.4680 H   0  0  0  0  0  0  0  0  0  0  0  0
   50.1410   21.4446   47.0920 H   0  0  0  0  0  0  0  0  0  0  0  0
   51.3527   21.4624   49.2714 H   0  0  0  0  0  0  0  0  0  0  0  0
   53.7138   22.2490   49.3842 H   0  0  0  0  0  0  0  0  0  0  0  0
   54.8668   23.0459   47.3229 H   0  0  0  0  0  0  0  0  0  0  0  0
   55.8817   23.1471   46.5255 H   0  0  0  0  0  0  0  0  0  0  0  0
   57.1633   22.9821   45.2557 H   0  0  0  0  0  0  0  0  0  0  0  0
   58.6129   29.7774   47.4715 H   0  0  0  0  0  0  0  0  0  0  0  0
   59.8039   31.7774   48.3595 H   0  0  0  0  0  0  0  0  0  0  0  0
   61.9076   33.5229   49.6198 H   0  0  0  0  0  0  0  0  0  0  0  0
   61.1404   32.3535   48.5296 H   0  0  0  0  0  0  0  0  0  0  0  0
   64.0481   32.9672   48.9435 H   0  0  0  0  0  0  0  0  0  0  0  0
   63.3189   31.4751   48.3427 H   0  0  0  0  0  0  0  0  0  0  0  0
   64.4516   33.6904   46.8022 H   0  0  0  0  0  0  0  0  0  0  0  0
   63.7848   32.1886   46.1565 H   0  0  0  0  0  0  0  0  0  0  0  0
   62.6008   34.6740   45.8044 H   0  0  0  0  0  0  0  0  0  0  0  0
   61.6638   33.1707   45.7841 H   0  0  0  0  0  0  0  0  0  0  0  0
   58.2342   34.1597   45.1041 H   0  0  0  0  0  0  0  0  0  0  0  0
   57.0283   32.1660   44.2224 H   0  0  0  0  0  0  0  0  0  0  0  0
  1  2  1  0
  2  3  1  0
  3  4  2  0
  4  5  1  0
  5  6  2  0
  6  7  1  0
  7  8  2  0
  8  9  1  0
  9 10  1  0
 10 11  2  0
 10 12  1  0
 12 13  1  0
 13 14  2  0
 14 15  1  0
 15 16  1  0
 16 17  2  3
 17 18  1  0
 18 19  2  0
 18 20  1  0
 20 21  2  0
 21 22  1  0
 22 23  2  0
 23 24  1  0
 24 25  2  0
 24 26  2  0
 24 27  1  0
 27 28  1  0
 28 29  1  0
 29 30  1  0
 30 31  1  0
 23 32  1  0
 32 33  2  0
 16 34  1  0
  8  3  1  0
 34 13  1  0
 33 20  1  0
 31 27  1  0
  1 35  1  0
  1 36  1  0
  1 37  1  0
  4 38  1  0
  5 39  1  0
  6 40  1  0
  7 41  1  0
 12 42  1  0
 12 43  1  0
 21 44  1  0
 22 45  1  0
 28 46  1  0
 28 47  1  0
 29 48  1  0
 29 49  1  0
 30 50  1  0
 30 51  1  0
 31 52  1  0
 31 53  1  0
 32 54  1  0
 33 55  1  0
M  CHG  2   9  -1  15  -1
M  END
>  <UniqueID>  (2) 
2

>  <SMILES>  (2) 
COc1ccccc1[N-]C(=O)Cc1n[n-]c(=NC(=O)c2ccc(S(=O)(=O)N3CCCC3)cc2)s1

>  <Energy>  (2) 
102.5768191031831

>  <Genealogy>  (2) 
COc1ccccc1[N-]C(=O)Cc1n[n-]c(=NC(=O)c2ccc(S(=O)(=O)N3CCCC3)cc2)s1 (protonated)
COc1ccccc1[N-]C(=O)Cc1n[n-]c(=NC(=O)c2ccc(S(=O)(=O)N3CCCC3)cc2)s1 (3D coordinates assigned)
COc1ccccc1[N-]C(=O)Cc1n[n-]c(=NC(=O)c2ccc(S(=O)(=O)N3CCCC3)cc2)s1 (nonaromatic ring conformer: 102.5768191031831 kcal/mol)

>  <smiles>  (2) 
COc1ccccc1NC(=O)Cc1n[nH]c(=NC(=O)c2ccc(S(=O)(=O)N3CCCC3)cc2)s1

>  <score_type>  (2) 
oracle

>  <origin>  (2) 
adg

>  <m_score__min__energy>  (2) 
-14.43

>  <m_primary>  (2) 
energy

$$$$
2:0
     RDKit          3D

 68 72  0  0  0  0  0  0  0  0999 V2000
   57.5541   31.5042   49.6721 H   0  0  0  0  0  0  0  0  0  0  0  0
   58.5170   31.1250   50.0450 C   0  0  0  0  0  0  0  0  0  0  0  0
   59.0350   29.9240   49.5450 C   0  0  0  0  0  0  0  0  0  0  0  0
   58.4754   29.3606   48.7839 H   0  0  0  0  0  0  0  0  0  0  0  0
   60.2670   29.4360   50.0120 C   0  0  0  0  0  0  0  0  0  0  0  0
   60.7850   28.1050   49.5300 C   0  0  0  0  0  0  0  0  0  0  0  0
   60.3537   27.3020   50.1458 H   0  0  0  0  0  0  0  0  0  0  0  0
   61.8817   28.0933   49.6145 H   0  0  0  0  0  0  0  0  0  0  0  0
   60.4070   27.8950   48.1200 N   0  0  0  0  0  0  0  0  0  0  0  0
   60.7610   28.8380   47.1940 C   0  0  0  0  0  0  0  0  0  0  0  0
   61.3698   29.7008   47.5022 H   0  0  0  0  0  0  0  0  0  0  0  0
   60.3590   28.7180   45.8640 C   0  0  0  0  0  0  0  0  0  0  0  0
   60.6578   29.4760   45.1249 H   0  0  0  0  0  0  0  0  0  0  0  0
   59.5780   27.6340   45.4780 C   0  0  0  0  0  0  0  0  0  0  0  0
   59.2467   27.5411   44.4332 H   0  0  0  0  0  0  0  0  0  0  0  0
   59.2120   26.6600   46.4160 C   0  0  0  0  0  0  0  0  0  0  0  0
   58.3430   25.5340   46.0000 C   0  0  0  0  0  0  0  0  0  0  0  0
   58.8180   24.6130   45.2770 O   0  0  0  0  0  0  0  0  0  0  0  0
   56.9730   25.4800   46.4210 N   0  0  0  0  0  0  0  0  0  0  0  0
   55.9130   26.3260   45.8820 C   0  0  0  0  0  0  0  0  0  0  0  0
   55.0877   26.3731   46.6077 H   0  0  0  0  0  0  0  0  0  0  0  0
   55.5697   25.8911   44.9317 H   0  0  0  0  0  0  0  0  0  0  0  0
   56.3990   27.6840   45.6220 C   0  0  0  0  0  0  0  0  0  0  0  0
   56.8100   28.8050   45.4530 C   0  0  0  0  0  0  0  0  0  0  0  0
   57.3040   30.1490   45.3030 C   0  0  0  0  0  0  0  0  0  0  0  0
   57.0900   30.8390   44.1030 C   0  0  0  0  0  0  0  0  0  0  0  0
   56.4845   30.3804   43.3074 H   0  0  0  0  0  0  0  0  0  0  0  0
   57.6440   32.1100   43.9130 C   0  0  0  0  0  0  0  0  0  0  0  0
   57.4717   32.6500   42.9703 H   0  0  0  0  0  0  0  0  0  0  0  0
   58.4190   32.6950   44.9250 C   0  0  0  0  0  0  0  0  0  0  0  0
   59.0160   33.9500   44.7490 C   0  0  0  0  0  0  0  0  0  0  0  0
   58.8692   34.5027   43.8094 H   0  0  0  0  0  0  0  0  0  0  0  0
   59.7970   34.4980   45.7670 C   0  0  0  0  0  0  0  0  0  0  0  0
   60.2767   35.4782   45.6288 H   0  0  0  0  0  0  0  0  0  0  0  0
   59.9670   33.7950   46.9640 C   0  0  0  0  0  0  0  0  0  0  0  0
   60.6860   34.3200   47.9110 N   0  0  0  0  0  0  0  0  0  0  0  0
   61.3860   33.5730   48.9590 C   0  0  1  0  0  0  0  0  0  0  0  0
   60.7673   33.5574   49.8684 H   0  0  0  0  0  0  0  0  0  0  0  0
   61.6160   32.1350   48.4860 C   0  0  0  0  0  0  0  0  0  0  0  0
   62.0443   31.5509   49.3139 H   0  0  0  0  0  0  0  0  0  0  0  0
   60.6485   31.7174   48.1704 H   0  0  0  0  0  0  0  0  0  0  0  0
   62.5810   32.0810   47.2830 C   0  0  0  0  0  0  0  0  0  0  0  0
   62.9571   31.0515   47.1892 H   0  0  0  0  0  0  0  0  0  0  0  0
   62.0065   32.4086   46.4040 H   0  0  0  0  0  0  0  0  0  0  0  0
   63.7540   32.9990   47.3930 N   0  0  1  0  0  0  0  0  0  0  0  0
   64.6100   32.4410   47.1600 H   0  0  0  0  0  0  0  0  0  0  0  0
   63.7020   34.0870   46.3960 C   0  0  0  0  0  0  0  0  0  0  0  0
   63.6557   35.0566   46.9134 H   0  0  0  0  0  0  0  0  0  0  0  0
   64.6029   34.0503   45.7659 H   0  0  0  0  0  0  0  0  0  0  0  0
   62.8087   33.9646   45.7659 H   0  0  0  0  0  0  0  0  0  0  0  0
   63.9650   33.5270   48.7610 C   0  0  0  0  0  0  0  0  0  0  0  0
   64.2077   32.6867   49.4281 H   0  0  0  0  0  0  0  0  0  0  0  0
   64.7848   34.2586   48.7100 H   0  0  0  0  0  0  0  0  0  0  0  0
   62.7250   34.2580   49.3200 C   0  0  0  0  0  0  0  0  0  0  0  0
   62.8102   34.2987   50.4159 H   0  0  0  0  0  0  0  0  0  0  0  0
   62.7081   35.2588   48.8637 H   0  0  0  0  0  0  0  0  0  0  0  0
   59.3740   32.5750   47.1220 N   0  0  0  0  0  0  0  0  0  0  0  0
   58.6180   32.0090   46.1430 C   0  0  0  0  0  0  0  0  0  0  0  0
   58.0580   30.7390   46.3270 C   0  0  0  0  0  0  0  0  0  0  0  0
   58.2098   30.2037   47.2759 H   0  0  0  0  0  0  0  0  0  0  0  0
   59.6430   26.8110   47.7530 C   0  0  0  0  0  0  0  0  0  0  0  0
   59.3040   25.9570   48.6200 O   0  0  0  0  0  0  0  0  0  0  0  0
   60.9710   30.1680   50.9830 C   0  0  0  0  0  0  0  0  0  0  0  0
   61.9377   29.7967   51.3539 H   0  0  0  0  0  0  0  0  0  0  0  0
   60.4480   31.3680   51.4810 C   0  0  0  0  0  0  0  0  0  0  0  0
   61.0059   31.9368   52.2394 H   0  0  0  0  0  0  0  0  0  0  0  0
   59.2200   31.8440   51.0170 C   0  0  0  0  0  0  0  0  0  0  0  0
   58.5640   33.3460   51.6460 Cl  0  0  0  0  0  0  0  0  0  0  0  0
  1  2  1  0
  2  3  2  0
  3  4  1  0
  3  5  1  0
  5  6  1  0
  6  7  1  0
  6  8  1  0
  6  9  1  0
  9 10  1  0
 10 11  1  0
 10 12  2  0
 12 13  1  0
 12 14  1  0
 14 15  1  0
 14 16  2  0
 16 17  1  0
 17 18  2  0
 17 19  1  0
 19 20  1  0
 20 21  1  0
 20 22  1  0
 20 23  1  0
 23 24  3  0
 24 25  1  0
 25 26  2  0
 26 27  1  0
 26 28  1  0
 28 29  1  0
 28 30  2  0
 30 31  1  0
 31 32  1  0
 31 33  2  0
 33 34  1  0
 33 35  1  0
 35 36  2  0
 36 37  1  0
 37 38  1  1
 37 39  1  0
 39 40  1  0
 39 41  1  0
 39 42  1  0
 42 43  1  0
 42 44  1  0
 42 45  1  0
 45 46  1  6
 45 47  1  0
 47 48  1  0
 47 49  1  0
 47 50  1  0
 45 51  1  0
 51 52  1  0
 51 53  1  0
 51 54  1  0
 54 55  1  0
 54 56  1  0
 35 57  1  0
 57 58  1  0
 58 59  2  0
 59 60  1  0
 16 61  1  0
 61 62  2  0
  5 63  2  0
 63 64  1  0
 63 65  1  0
 65 66  1  0
 65 67  2  0
 67 68  1  0
 67  2  1  0
 61  9  1  0
 59 25  1  0
 58 30  1  0
 54 37  1  0
M  CHG  3  19  -1  45   1  57  -1
M  END
>  <UniqueID>  (3) 
3

>  <SMILES>  (3) 
C[NH+]1CCC(/N=c2/ccc3ccc(C#CC[N-]C(=O)c4cccn(Cc5ccc(Cl)cc5)c4=O)cc3[n-]2)CC1

>  <Energy>  (3) 
85.59257507880119

>  <Genealogy>  (3) 
C[NH+]1CCC(N=c2ccc3ccc(C#CC[N-]C(=O)c4cccn(Cc5ccc(Cl)cc5)c4=O)cc3[n-]2)CC1 (protonated)
C[NH+]1CCC(/N=c2/ccc3ccc(C#CC[N-]C(=O)c4cccn(Cc5ccc(Cl)cc5)c4=O)cc3[n-]2)CC1 (cis-trans isomerization)
C[NH+]1CCC(/N=c2/ccc3ccc(C#CC[N-]C(=O)c4cccn(Cc5ccc(Cl)cc5)c4=O)cc3[n-]2)CC1 (3D coordinates assigned)
C[NH+]1CCC(/N=c2/ccc3ccc(C#CC[N-]C(=O)c4cccn(Cc5ccc(Cl)cc5)c4=O)cc3[n-]2)CC1 (nonaromatic ring conformer: 85.59257507880119 kcal/mol)

>  <smiles>  (3) 
CN1CCC(N=c2ccc3ccc(C#CCNC(=O)c4cccn(Cc5ccc(Cl)cc5)c4=O)cc3[nH]2)CC1

>  <score_type>  (3) 
oracle

>  <origin>  (3) 
adg

>  <m_score__min__energy>  (3) 
-11.220000000000001

>  <m_primary>  (3) 
energy

$$$$
3:0
     RDKit          3D

 47 50  0  0  0  0  0  0  0  0999 V2000
   55.3380   26.2570   46.2030 N   0  0  0  0  0  0  0  0  0  0  0  0
   56.7340   26.1980   46.4900 C   0  0  0  0  0  0  0  0  0  0  0  0
   57.2300   25.1140   46.8950 O   0  0  0  0  0  0  0  0  0  0  0  0
   57.5680   27.4030   46.2980 C   0  0  0  0  0  0  0  0  0  0  0  0
   58.8320   27.4140   46.8210 N   0  0  0  0  0  0  0  0  0  0  0  0
   59.6770   28.4840   46.7020 C   0  0  0  0  0  0  0  0  0  0  0  0
   59.2610   29.6490   46.0240 C   0  0  0  0  0  0  0  0  0  0  0  0
   60.0880   30.7680   45.8510 O   0  0  0  0  0  0  0  0  0  0  0  0
   60.5490   31.6040   46.8790 C   0  0  0  0  0  0  0  0  0  0  0  0
   61.6500   31.2600   47.6810 C   0  0  0  0  0  0  0  0  0  0  0  0
   62.0700   32.1130   48.7050 C   0  0  0  0  0  0  0  0  0  0  0  0
   61.3930   33.3230   48.9450 C   0  0  0  0  0  0  0  0  0  0  0  0
   61.7720   34.2060   49.9670 O   0  0  0  0  0  0  0  0  0  0  0  0
   63.0590   34.3180   50.5080 C   0  0  0  0  0  0  0  0  0  0  0  0
   63.4870   35.4320   50.9190 O   0  0  0  0  0  0  0  0  0  0  0  0
   63.8550   33.1340   50.6520 N   0  0  0  0  0  0  0  0  0  0  0  0
   65.2150   33.1330   51.1210 C   0  0  0  0  0  0  0  0  0  0  0  0
   65.8410   34.2210   51.2390 O   0  0  0  0  0  0  0  0  0  0  0  0
   65.8970   31.8580   51.4530 C   0  0  0  0  0  0  0  0  0  0  0  0
   67.2670   31.8590   51.7830 C   0  0  0  0  0  0  0  0  0  0  0  0
   67.9260   30.6650   52.0870 C   0  0  0  0  0  0  0  0  0  0  0  0
   67.2330   29.4550   52.0600 C   0  0  0  0  0  0  0  0  0  0  0  0
   65.8770   29.4350   51.7290 C   0  0  0  0  0  0  0  0  0  0  0  0
   65.2020   30.6270   51.4260 C   0  0  0  0  0  0  0  0  0  0  0  0
   63.8430   30.5890   51.1140 O   0  0  0  0  0  0  0  0  0  0  0  0
   60.2740   33.6420   48.1670 C   0  0  0  0  0  0  0  0  0  0  0  0
   59.8540   32.7900   47.1420 C   0  0  0  0  0  0  0  0  0  0  0  0
   57.9830   29.6310   45.4730 C   0  0  0  0  0  0  0  0  0  0  0  0
   57.3160   30.5940   44.7470 C   0  0  0  0  0  0  0  0  0  0  0  0
   56.0770   30.0380   44.4590 C   0  0  0  0  0  0  0  0  0  0  0  0
   55.9760   28.7940   44.9790 N   0  0  0  0  0  0  0  0  0  0  0  0
   57.1480   28.5510   45.6010 C   0  0  0  0  0  0  0  0  0  0  0  0
   54.7900   27.1290   46.3750 H   0  0  0  0  0  0  0  0  0  0  0  0
   60.6860   28.4353   47.1374 H   0  0  0  0  0  0  0  0  0  0  0  0
   62.1838   30.3150   47.5021 H   0  0  0  0  0  0  0  0  0  0  0  0
   62.9344   31.8371   49.3268 H   0  0  0  0  0  0  0  0  0  0  0  0
   63.4210   32.2310   50.3560 H   0  0  0  0  0  0  0  0  0  0  0  0
   67.8226   32.8082   51.8014 H   0  0  0  0  0  0  0  0  0  0  0  0
   68.9944   30.6794   52.3484 H   0  0  0  0  0  0  0  0  0  0  0  0
   67.7548   28.5167   52.2995 H   0  0  0  0  0  0  0  0  0  0  0  0
   65.3342   28.4785   51.7056 H   0  0  0  0  0  0  0  0  0  0  0  0
   63.1540   30.2480   51.7750 H   0  0  0  0  0  0  0  0  0  0  0  0
   59.7202   34.5717   48.3642 H   0  0  0  0  0  0  0  0  0  0  0  0
   58.9725   33.0529   46.5387 H   0  0  0  0  0  0  0  0  0  0  0  0
   57.6857   31.5889   44.4580 H   0  0  0  0  0  0  0  0  0  0  0  0
   55.2847   30.5413   43.8854 H   0  0  0  0  0  0  0  0  0  0  0  0
   55.1430   28.1730   44.8910 H   0  0  0  0  0  0  0  0  0  0  0  0
  1  2  1  0
  2  3  2  0
  2  4  1  0
  4  5  2  0
  5  6  1  0
  6  7  2  0
  7  8  1  0
  8  9  1  0
  9 10  2  0
 10 11  1  0
 11 12  2  0
 12 13  1  0
 13 14  1  0
 14 15  2  0
 14 16  1  0
 16 17  1  0
 17 18  2  0
 17 19  1  0
 19 20  2  0
 20 21  1  0
 21 22  2  0
 22 23  1  0
 23 24  2  0
 24 25  1  0
 12 26  1  0
 26 27  2  0
  7 28  1  0
 28 29  1  0
 29 30  2  0
 30 31  1  0
 31 32  1  0
 32  4  1  0
 27  9  1  0
 32 28  2  0
 24 19  1  0
  1 33  1  0
  6 34  1  0
 10 35  1  0
 11 36  1  0
 16 37  1  0
 20 38  1  0
 21 39  1  0
 22 40  1  0
 23 41  1  0
 25 42  1  0
 26 43  1  0
 27 44  1  0
 29 45  1  0
 30 46  1  0
 31 47  1  0
M  CHG  1   1  -1
M  END
>  <UniqueID>  (4) 
4

>  <SMILES>  (4) 
[NH-]C(=O)c1ncc(Oc2ccc(OC(=O)NC(=O)c3ccccc3O)cc2)c2cc[nH]c12

>  <Energy>  (4) 
101.32587728030715

>  <Genealogy>  (4) 
[NH-]C(=O)c1ncc(Oc2ccc(OC(=O)NC(=O)c3ccccc3O)cc2)c2cc[nH]c12 (protonated)
[NH-]C(=O)c1ncc(Oc2ccc(OC(=O)NC(=O)c3ccccc3O)cc2)c2cc[nH]c12 (3D coordinates assigned)
[NH-]C(=O)c1ncc(Oc2ccc(OC(=O)NC(=O)c3ccccc3O)cc2)c2cc[nH]c12 (optimized conformer: 101.32587728030715 kcal/mol)

>  <smiles>  (4) 
NC(=O)c1ncc(Oc2ccc(OC(=O)NC(=O)c3ccccc3O)cc2)c2cc[nH]c12

>  <score_type>  (4) 
oracle

>  <origin>  (4) 
adg

>  <m_score__min__energy>  (4) 
-10.75

>  <m_primary>  (4) 
energy

$$$$
4:0
     RDKit          3D

 47 49  0  0  0  0  0  0  0  0999 V2000
   62.3930   30.5810   52.1200 C   0  0  0  0  0  0  0  0  0  0  0  0
   61.3860   29.5740   52.0790 O   0  0  0  0  0  0  0  0  0  0  0  0
   61.0760   28.8100   50.9440 C   0  0  0  0  0  0  0  0  0  0  0  0
   60.7330   29.4810   49.7650 C   0  0  0  0  0  0  0  0  0  0  0  0
   60.4160   28.7650   48.6060 C   0  0  0  0  0  0  0  0  0  0  0  0
   60.4490   27.3630   48.6090 C   0  0  0  0  0  0  0  0  0  0  0  0
   60.0760   26.5930   47.3730 C   0  0  0  0  0  0  0  0  0  0  0  0
   59.4370   27.5080   46.3740 C   0  0  0  0  0  0  0  0  0  0  0  0
   60.0630   27.8030   45.3210 O   0  0  0  0  0  0  0  0  0  0  0  0
   58.1580   28.0980   46.6540 N   0  0  0  0  0  0  0  0  0  0  0  0
   57.4900   28.9950   45.7530 C   0  0  0  0  0  0  0  0  0  0  0  0
   58.1040   30.2130   45.4250 C   0  0  0  0  0  0  0  0  0  0  0  0
   57.4710   31.1250   44.5650 C   0  0  0  0  0  0  0  0  0  0  0  0
   58.1450   32.3890   44.2060 C   0  0  0  0  0  0  0  0  0  0  0  0
   58.3820   32.6280   42.9910 O   0  0  0  0  0  0  0  0  0  0  0  0
   58.5450   33.3420   45.2080 N   0  0  0  0  0  0  0  0  0  0  0  0
   58.8860   32.9840   46.5770 C   0  0  0  0  0  0  0  0  0  0  0  0
   59.3270   34.2780   47.2450 C   0  0  0  0  0  0  0  0  0  0  0  0
   59.6230   35.2570   46.1120 C   0  0  0  0  0  0  0  0  0  0  0  0
   58.8990   34.7140   44.8860 C   0  0  0  0  0  0  0  0  0  0  0  0
   56.2240   30.7980   44.0140 C   0  0  0  0  0  0  0  0  0  0  0  0
   55.5940   29.6010   44.3600 C   0  0  0  0  0  0  0  0  0  0  0  0
   56.2100   28.7070   45.2410 C   0  0  0  0  0  0  0  0  0  0  0  0
   55.5340   27.5520   45.6200 O   0  0  0  0  0  0  0  0  0  0  0  0
   60.7790   26.6860   49.7930 C   0  0  0  0  0  0  0  0  0  0  0  0
   61.0960   27.4020   50.9530 C   0  0  0  0  0  0  0  0  0  0  0  0
   62.6311   30.8191   53.1672 H   0  0  0  0  0  0  0  0  0  0  0  0
   63.2978   30.2156   51.6122 H   0  0  0  0  0  0  0  0  0  0  0  0
   62.0276   31.4858   51.6122 H   0  0  0  0  0  0  0  0  0  0  0  0
   60.7125   30.5807   49.7495 H   0  0  0  0  0  0  0  0  0  0  0  0
   60.1395   29.3041   47.6879 H   0  0  0  0  0  0  0  0  0  0  0  0
   60.9811   26.1486   46.9334 H   0  0  0  0  0  0  0  0  0  0  0  0
   59.3643   25.7988   47.6428 H   0  0  0  0  0  0  0  0  0  0  0  0
   57.7710   27.9980   47.6200 H   0  0  0  0  0  0  0  0  0  0  0  0
   59.0909   30.4560   45.8456 H   0  0  0  0  0  0  0  0  0  0  0  0
   58.0095   32.5655   47.0934 H   0  0  0  0  0  0  0  0  0  0  0  0
   59.6768   32.2202   46.6112 H   0  0  0  0  0  0  0  0  0  0  0  0
   58.5246   34.6689   47.8880 H   0  0  0  0  0  0  0  0  0  0  0  0
   60.2093   34.1216   47.8830 H   0  0  0  0  0  0  0  0  0  0  0  0
   59.2468   36.2592   46.3651 H   0  0  0  0  0  0  0  0  0  0  0  0
   60.7043   35.3497   45.9325 H   0  0  0  0  0  0  0  0  0  0  0  0
   57.9938   35.3052   44.6831 H   0  0  0  0  0  0  0  0  0  0  0  0
   59.5306   34.7679   43.9870 H   0  0  0  0  0  0  0  0  0  0  0  0
   55.7400   31.4872   43.3063 H   0  0  0  0  0  0  0  0  0  0  0  0
   54.6076   29.3600   43.9371 H   0  0  0  0  0  0  0  0  0  0  0  0
   60.7886   25.5862   49.8095 H   0  0  0  0  0  0  0  0  0  0  0  0
   61.3616   26.8633   51.8745 H   0  0  0  0  0  0  0  0  0  0  0  0
  1  2  1  0
  2  3  1  0
  3  4  2  0
  4  5  1  0
  5  6  2  0
  6  7  1  0
  7  8  1  0
  8  9  2  0
  8 10  1  0
 10 11  1  0
 11 12  2  0
 12 13  1  0
 13 14  1  0
 14 15  2  0
 14 16  1  0
 16 17  1  0
 17 18  1  0
 18 19  1  0
 19 20  1  0
 13 21  2  0
 21 22  1  0
 22 23  2  0
 23 24  1  0
  6 25  1  0
 25 26  2  0
 26  3  1  0
 23 11  1  0
 20 16  1  0
  1 27  1  0
  1 28  1  0
  1 29  1  0
  4 30  1  0
  5 31  1  0
  7 32  1  0
  7 33  1  0
 10 34  1  0
 12 35  1  0
 17 36  1  0
 17 37  1  0
 18 38  1  0
 18 39  1  0
 19 40  1  0
 19 41  1  0
 20 42  1  0
 20 43  1  0
 21 44  1  0
 22 45  1  0
 25 46  1  0
 26 47  1  0
M  CHG  1  24  -1
M  END
>  <UniqueID>  (5) 
5

>  <SMILES>  (5) 
COc1ccc(CC(=O)Nc2cc(C(=O)N3CCCC3)ccc2[O-])cc1

>  <Energy>  (5) 
54.915979502087154

>  <Genealogy>  (5) 
COc1ccc(CC(=O)Nc2cc(C(=O)N3CCCC3)ccc2[O-])cc1 (protonated)
COc1ccc(CC(=O)Nc2cc(C(=O)N3CCCC3)ccc2[O-])cc1 (3D coordinates assigned)
COc1ccc(CC(=O)Nc2cc(C(=O)N3CCCC3)ccc2[O-])cc1 (nonaromatic ring conformer: 54.915979502087154 kcal/mol)

>  <smiles>  (5) 
COc1ccc(CC(=O)Nc2cc(C(=O)N3CCCC3)ccc2O)cc1

>  <score_type>  (5) 
oracle

>  <origin>  (5) 
adg

>  <m_score__min__energy>  (5) 
-10.6

>  <m_primary>  (5) 
energy

$$$$
5:0
     RDKit          3D

 52 55  0  0  0  0  0  0  0  0999 V2000
   59.3440   33.9930   51.1380 C   0  0  0  0  0  0  0  0  0  0  0  0
   58.8780   33.0160   50.1460 N   0  0  0  0  0  0  0  0  0  0  0  0
   58.3470   31.7210   50.6170 C   0  0  0  0  0  0  0  0  0  0  0  0
   59.4100   30.6100   50.5950 C   0  0  0  0  0  0  0  0  0  0  0  0
   60.0080   30.4320   49.2480 N   0  0  0  0  0  0  0  0  0  0  0  0
   59.3700   29.5780   48.3750 C   0  0  0  0  0  0  0  0  0  0  0  0
   58.3040   29.0010   48.7360 O   0  0  0  0  0  0  0  0  0  0  0  0
   59.8700   29.3390   47.1190 N   0  0  0  0  0  0  0  0  0  0  0  0
   59.1810   28.3900   46.2160 C   0  0  0  0  0  0  0  0  0  0  0  0
   58.2070   29.1180   45.3250 C   0  0  0  0  0  0  0  0  0  0  0  0
   56.8610   28.7190   45.2660 C   0  0  0  0  0  0  0  0  0  0  0  0
   55.9560   29.4040   44.4480 C   0  0  0  0  0  0  0  0  0  0  0  0
   56.3860   30.4960   43.6890 C   0  0  0  0  0  0  0  0  0  0  0  0
   57.7220   30.9050   43.7480 C   0  0  0  0  0  0  0  0  0  0  0  0
   58.6290   30.2210   44.5630 C   0  0  0  0  0  0  0  0  0  0  0  0
   61.0260   29.9450   46.7130 C   0  0  0  0  0  0  0  0  0  0  0  0
   61.4880   29.7170   45.5600 O   0  0  0  0  0  0  0  0  0  0  0  0
   61.7040   30.8190   47.5690 C   0  0  0  0  0  0  0  0  0  0  0  0
   62.9020   31.4410   47.1630 C   0  0  0  0  0  0  0  0  0  0  0  0
   63.5860   32.2920   48.0250 C   0  0  0  0  0  0  0  0  0  0  0  0
   63.0910   32.5300   49.3010 C   0  0  0  0  0  0  0  0  0  0  0  0
   61.9060   31.9250   49.7220 C   0  0  0  0  0  0  0  0  0  0  0  0
   61.1770   31.0610   48.8620 C   0  0  0  0  0  0  0  0  0  0  0  0
   58.9710   33.3410   48.7330 C   0  0  0  0  0  0  0  0  0  0  0  0
   58.1390   32.7190   47.7780 C   0  0  0  0  0  0  0  0  0  0  0  0
   58.2060   33.0840   46.4300 C   0  0  0  0  0  0  0  0  0  0  0  0
   59.1010   34.0660   46.0120 C   0  0  0  0  0  0  0  0  0  0  0  0
   59.9480   34.6760   46.9370 C   0  0  0  0  0  0  0  0  0  0  0  0
   59.8940   34.3100   48.2830 C   0  0  0  0  0  0  0  0  0  0  0  0
   59.1587   33.6045   52.1503 H   0  0  0  0  0  0  0  0  0  0  0  0
   60.4219   34.1665   51.0034 H   0  0  0  0  0  0  0  0  0  0  0  0
   58.8006   34.9399   51.0034 H   0  0  0  0  0  0  0  0  0  0  0  0
   57.9834   31.8420   51.6481 H   0  0  0  0  0  0  0  0  0  0  0  0
   57.5357   31.4231   49.9365 H   0  0  0  0  0  0  0  0  0  0  0  0
   60.2086   30.8698   51.3055 H   0  0  0  0  0  0  0  0  0  0  0  0
   58.9178   29.6664   50.8731 H   0  0  0  0  0  0  0  0  0  0  0  0
   59.9280   27.8773   45.5922 H   0  0  0  0  0  0  0  0  0  0  0  0
   58.6276   27.6595   46.8244 H   0  0  0  0  0  0  0  0  0  0  0  0
   56.5171   27.8636   45.8661 H   0  0  0  0  0  0  0  0  0  0  0  0
   54.9049   29.0828   44.4022 H   0  0  0  0  0  0  0  0  0  0  0  0
   55.6739   31.0335   43.0455 H   0  0  0  0  0  0  0  0  0  0  0  0
   58.0597   31.7660   43.1524 H   0  0  0  0  0  0  0  0  0  0  0  0
   59.6784   30.5478   44.6081 H   0  0  0  0  0  0  0  0  0  0  0  0
   63.2998   31.2517   46.1551 H   0  0  0  0  0  0  0  0  0  0  0  0
   64.5177   32.7759   47.6967 H   0  0  0  0  0  0  0  0  0  0  0  0
   63.6360   33.1990   49.9832 H   0  0  0  0  0  0  0  0  0  0  0  0
   61.5301   32.1206   50.7371 H   0  0  0  0  0  0  0  0  0  0  0  0
   57.4312   31.9398   48.0970 H   0  0  0  0  0  0  0  0  0  0  0  0
   57.5491   32.5936   45.6965 H   0  0  0  0  0  0  0  0  0  0  0  0
   59.1398   34.3603   44.9528 H   0  0  0  0  0  0  0  0  0  0  0  0
   60.6596   35.4466   46.6054 H   0  0  0  0  0  0  0  0  0  0  0  0
   60.5792   34.7825   49.0022 H   0  0  0  0  0  0  0  0  0  0  0  0
  1  2  1  0
  2  3  1  0
  3  4  1  0
  4  5  1  0
  5  6  1  0
  6  7  2  0
  6  8  1  0
  8  9  1  0
  9 10  1  0
 10 11  2  0
 11 12  1  0
 12 13  2  0
 13 14  1  0
 14 15  2  0
  8 16  1  0
 16 17  2  0
 16 18  1  0
 18 19  2  0
 19 20  1  0
 20 21  2  0
 21 22  1  0
 22 23  2  0
  2 24  1  0
 24 25  2  0
 25 26  1  0
 26 27  2  0
 27 28  1  0
 28 29  2  0
 23  5  1  0
 29 24  1  0
 15 10  1  0
 23 18  1  0
  1 30  1  0
  1 31  1  0
  1 32  1  0
  3 33  1  0
  3 34  1  0
  4 35  1  0
  4 36  1  0
  9 37  1  0
  9 38  1  0
 11 39  1  0
 12 40  1  0
 13 41  1  0
 14 42  1  0
 15 43  1  0
 19 44  1  0
 20 45  1  0
 21 46  1  0
 22 47  1  0
 25 48  1  0
 26 49  1  0
 27 50  1  0
 28 51  1  0
 29 52  1  0
M  END
>  <UniqueID>  (6) 
6

>  <SMILES>  (6) 
CN(CCn1c(=O)n(Cc2ccccc2)c(=O)c2ccccc21)c1ccccc1

>  <Energy>  (6) 
67.93006200518903

>  <Genealogy>  (6) 
CN(CCn1c(=O)n(Cc2ccccc2)c(=O)c2ccccc21)c1ccccc1 (3D coordinates assigned)
CN(CCn1c(=O)n(Cc2ccccc2)c(=O)c2ccccc21)c1ccccc1 (optimized conformer: 67.93006200518903 kcal/mol)

>  <smiles>  (6) 
CN(CCn1c(=O)n(Cc2ccccc2)c(=O)c2ccccc21)c1ccccc1

>  <score_type>  (6) 
oracle

>  <origin>  (6) 
adg

>  <m_score__min__energy>  (6) 
-8.2699999999999996

>  <m_primary>  (6) 
energy

$$$$
6:0
     RDKit          3D

 40 42  0  0  0  0  0  0  0  0999 V2000
   55.1300   29.6050   44.8850 O   0  0  0  0  0  0  0  0  0  0  0  0
   56.3390   29.9570   44.8160 C   0  0  0  0  0  0  0  0  0  0  0  0
   56.7000   31.1780   44.1550 N   0  0  0  0  0  0  0  0  0  0  0  0
   57.3780   32.2980   44.7420 C   0  0  0  0  0  0  0  0  0  0  0  0
   57.1180   32.7180   46.0600 C   0  0  0  0  0  0  0  0  0  0  0  0
   57.7820   33.8290   46.5880 C   0  0  0  0  0  0  0  0  0  0  0  0
   58.6950   34.5390   45.8040 C   0  0  0  0  0  0  0  0  0  0  0  0
   58.9390   34.1430   44.4870 C   0  0  0  0  0  0  0  0  0  0  0  0
   58.2780   33.0310   43.9530 C   0  0  0  0  0  0  0  0  0  0  0  0
   58.5210   32.6610   42.6710 F   0  0  0  0  0  0  0  0  0  0  0  0
   57.3690   29.1700   45.5240 C   0  0  0  0  0  0  0  0  0  0  0  0
   58.6170   29.7650   45.7820 C   0  0  0  0  0  0  0  0  0  0  0  0
   59.6520   29.0410   46.3840 C   0  0  0  0  0  0  0  0  0  0  0  0
   60.9070   29.6980   46.6100 N   0  0  0  0  0  0  0  0  0  0  0  0
   61.1040   31.2570   47.3400 S   0  0  0  0  0  0  0  0  0  0  0  0
   60.7670   32.3390   46.3520 O   0  0  0  0  0  0  0  0  0  0  0  0
   62.5310   31.4160   47.7860 O   0  0  0  0  0  0  0  0  0  0  0  0
   60.0170   31.3820   48.7260 C   0  0  0  0  0  0  0  0  0  0  0  0
   59.3990   30.2270   49.2310 C   0  0  0  0  0  0  0  0  0  0  0  0
   58.5340   30.3070   50.3260 C   0  0  0  0  0  0  0  0  0  0  0  0
   58.2760   31.5420   50.9250 C   0  0  0  0  0  0  0  0  0  0  0  0
   58.8840   32.6980   50.4320 C   0  0  0  0  0  0  0  0  0  0  0  0
   59.7530   32.6290   49.3360 C   0  0  0  0  0  0  0  0  0  0  0  0
   60.4900   34.1210   48.7600 Cl  0  0  0  0  0  0  0  0  0  0  0  0
   59.4370   27.7010   46.7390 C   0  0  0  0  0  0  0  0  0  0  0  0
   58.1960   27.1040   46.5080 C   0  0  0  0  0  0  0  0  0  0  0  0
   57.1520   27.8280   45.9240 C   0  0  0  0  0  0  0  0  0  0  0  0
   55.9130   27.1990   45.7940 O   0  0  0  0  0  0  0  0  0  0  0  0
   56.3900   32.1703   46.6765 H   0  0  0  0  0  0  0  0  0  0  0  0
   57.5853   34.1450   47.6231 H   0  0  0  0  0  0  0  0  0  0  0  0
   59.2212   35.4091   46.2236 H   0  0  0  0  0  0  0  0  0  0  0  0
   59.6525   34.7066   43.8679 H   0  0  0  0  0  0  0  0  0  0  0  0
   58.7821   30.8169   45.5060 H   0  0  0  0  0  0  0  0  0  0  0  0
   59.5969   29.2521   48.7616 H   0  0  0  0  0  0  0  0  0  0  0  0
   58.0560   29.3964   50.7163 H   0  0  0  0  0  0  0  0  0  0  0  0
   57.5935   31.6039   51.7855 H   0  0  0  0  0  0  0  0  0  0  0  0
   58.6793   33.6687   50.9072 H   0  0  0  0  0  0  0  0  0  0  0  0
   60.2482   27.1189   47.2006 H   0  0  0  0  0  0  0  0  0  0  0  0
   58.0379   26.0522   46.7886 H   0  0  0  0  0  0  0  0  0  0  0  0
   55.1430   27.5900   45.2690 H   0  0  0  0  0  0  0  0  0  0  0  0
  1  2  2  0
  2  3  1  0
  3  4  1  0
  4  5  2  0
  5  6  1  0
  6  7  2  0
  7  8  1  0
  8  9  2  0
  9 10  1  0
  2 11  1  0
 11 12  2  0
 12 13  1  0
 13 14  1  0
 14 15  1  0
 15 16  2  0
 15 17  2  0
 15 18  1  0
 18 19  2  0
 19 20  1  0
 20 21  2  0
 21 22  1  0
 22 23  2  0
 23 24  1  0
 13 25  2  0
 25 26  1  0
 26 27  2  0
 27 28  1  0
  9  4  1  0
 27 11  1  0
 23 18  1  0
  5 29  1  0
  6 30  1  0
  7 31  1  0
  8 32  1  0
 12 33  1  0
 19 34  1  0
 20 35  1  0
 21 36  1  0
 22 37  1  0
 25 38  1  0
 26 39  1  0
 28 40  1  0
M  CHG  2   3  -1  14  -1
M  END
>  <UniqueID>  (7) 
7

>  <SMILES>  (7) 
O=C([N-]c1ccccc1F)c1cc([N-]S(=O)(=O)c2ccccc2Cl)ccc1O

>  <Energy>  (7) 
57.967098661386984

>  <Genealogy>  (7) 
O=C([N-]c1ccccc1F)c1cc([N-]S(=O)(=O)c2ccccc2Cl)ccc1O (protonated)
O=C([N-]c1ccccc1F)c1cc([N-]S(=O)(=O)c2ccccc2Cl)ccc1O (3D coordinates assigned)
O=C([N-]c1ccccc1F)c1cc([N-]S(=O)(=O)c2ccccc2Cl)ccc1O (optimized conformer: 57.967098661386984 kcal/mol)

>  <smiles>  (7) 
O=C(Nc1ccccc1F)c1cc(NS(=O)(=O)c2ccccc2Cl)ccc1O

>  <score_type>  (7) 
oracle

>  <origin>  (7) 
adg

>  <m_score__min__energy>  (7) 
-11.869999999999999

>  <m_primary>  (7) 
energy

$$$$
7:0
     RDKit          3D

 48 51  0  0  0  0  0  0  0  0999 V2000
   59.3151   28.5454   47.6668 H   0  0  0  0  0  0  0  0  0  0  0  0
   58.8790   27.8050   46.9800 C   0  0  0  0  0  0  0  0  0  0  0  0
   58.8017   26.7508   47.2846 H   0  0  0  0  0  0  0  0  0  0  0  0
   58.4410   28.1880   45.7700 C   0  0  0  0  0  0  0  0  0  0  0  0
   57.8620   27.3790   44.7780 C   0  0  0  0  0  0  0  0  0  0  0  0
   57.7420   26.0400   44.6840 C   0  0  0  0  0  0  0  0  0  0  0  0
   58.0586   25.5714   43.7405 H   0  0  0  0  0  0  0  0  0  0  0  0
   57.2220   25.1490   45.7390 C   0  0  0  0  0  0  0  0  0  0  0  0
   58.0120   24.0990   46.2310 C   0  0  0  0  0  0  0  0  0  0  0  0
   59.2710   23.8530   45.6970 O   0  0  0  0  0  0  0  0  0  0  0  0
   57.5430   23.3090   47.2300 N   0  0  0  0  0  0  0  0  0  0  0  0
   56.3200   23.5250   47.7800 C   0  0  0  0  0  0  0  0  0  0  0  0
   55.7830   22.5550   48.9780 S   0  0  0  0  0  0  0  0  0  0  0  0
   55.5490   24.5520   47.3410 N   0  0  0  0  0  0  0  0  0  0  0  0
   55.9720   25.3710   46.3450 C   0  0  0  0  0  0  0  0  0  0  0  0
   55.2390   26.3290   45.9780 O   0  0  0  0  0  0  0  0  0  0  0  0
   57.3920   28.2420   43.8000 C   0  0  0  0  0  0  0  0  0  0  0  0
   56.8428   27.9624   42.8888 H   0  0  0  0  0  0  0  0  0  0  0  0
   57.7440   29.5170   44.1870 C   0  0  0  0  0  0  0  0  0  0  0  0
   57.4410   30.7580   43.4030 C   0  0  0  0  0  0  0  0  0  0  0  0
   57.2382   31.5886   44.0951 H   0  0  0  0  0  0  0  0  0  0  0  0
   58.3037   31.0111   42.7693 H   0  0  0  0  0  0  0  0  0  0  0  0
   56.5587   30.5851   42.7693 H   0  0  0  0  0  0  0  0  0  0  0  0
   58.3790   29.4880   45.3810 N   0  0  0  0  0  0  0  0  0  0  0  0
   58.8700   30.6360   46.0970 C   0  0  0  0  0  0  0  0  0  0  0  0
   58.0720   31.7790   46.2380 C   0  0  0  0  0  0  0  0  0  0  0  0
   57.0599   31.7965   45.8076 H   0  0  0  0  0  0  0  0  0  0  0  0
   58.5560   32.8970   46.9230 C   0  0  0  0  0  0  0  0  0  0  0  0
   57.9258   33.7929   47.0239 H   0  0  0  0  0  0  0  0  0  0  0  0
   59.8440   32.8810   47.4830 C   0  0  0  0  0  0  0  0  0  0  0  0
   60.3820   34.1000   48.1810 C   0  0  0  0  0  0  0  0  0  0  0  0
   60.4065   34.9423   47.4739 H   0  0  0  0  0  0  0  0  0  0  0  0
   59.7294   34.3429   49.0325 H   0  0  0  0  0  0  0  0  0  0  0  0
   61.7740   33.8370   48.6890 C   0  0  0  0  0  0  0  0  0  0  0  0
   62.8370   33.6710   47.7860 C   0  0  0  0  0  0  0  0  0  0  0  0
   62.6468   33.7031   46.7031 H   0  0  0  0  0  0  0  0  0  0  0  0
   64.1370   33.4650   48.2600 C   0  0  0  0  0  0  0  0  0  0  0  0
   64.9653   33.3280   47.5493 H   0  0  0  0  0  0  0  0  0  0  0  0
   64.3850   33.4330   49.6350 C   0  0  0  0  0  0  0  0  0  0  0  0
   65.6780   33.2270   50.1010 O   0  0  0  0  0  0  0  0  0  0  0  0
   63.3330   33.6090   50.5400 C   0  0  0  0  0  0  0  0  0  0  0  0
   63.5700   33.5850   51.8760 F   0  0  0  0  0  0  0  0  0  0  0  0
   62.0320   33.8150   50.0700 C   0  0  0  0  0  0  0  0  0  0  0  0
   61.2079   33.9603   50.7839 H   0  0  0  0  0  0  0  0  0  0  0  0
   60.6470   31.7400   47.3300 C   0  0  0  0  0  0  0  0  0  0  0  0
   61.6630   31.7251   47.7514 H   0  0  0  0  0  0  0  0  0  0  0  0
   60.1620   30.6230   46.6450 C   0  0  0  0  0  0  0  0  0  0  0  0
   60.7951   29.7302   46.5348 H   0  0  0  0  0  0  0  0  0  0  0  0
  1  2  1  0
  2  3  1  0
  2  4  2  0
  4  5  1  0
  5  6  2  0
  6  7  1  0
  6  8  1  0
  8  9  2  0
  9 10  1  0
  9 11  1  0
 11 12  1  0
 12 13  2  0
 12 14  1  0
 14 15  1  0
 15 16  2  0
  5 17  1  0
 17 18  1  0
 17 19  2  0
 19 20  1  0
 20 21  1  0
 20 22  1  0
 20 23  1  0
 19 24  1  0
 24 25  1  0
 25 26  2  0
 26 27  1  0
 26 28  1  0
 28 29  1  0
 28 30  2  0
 30 31  1  0
 31 32  1  0
 31 33  1  0
 31 34  1  0
 34 35  2  0
 35 36  1  0
 35 37  1  0
 37 38  1  0
 37 39  2  0
 39 40  1  0
 39 41  1  0
 41 42  1  0
 41 43  2  0
 43 44  1  0
 30 45  1  0
 45 46  1  0
 45 47  2  0
 47 48  1  0
 24  4  1  0
 47 25  1  0
 15  8  1  0
 43 34  1  0
M  CHG  4  10  -1  11  -1  14  -1  40  -1
M  END
>  <UniqueID>  (8) 
8

>  <SMILES>  (8) 
C=c1/c(=C\c2c([O-])[n-]c(=S)[n-]c2=O)cc(C)n1-c1ccc(Cc2ccc([O-])c(F)c2)cc1

>  <Energy>  (8) 
100.06480627198822

>  <Genealogy>  (8) 
C=c1c(=Cc2c([O-])[n-]c(=S)[n-]c2=O)cc(C)n1-c1ccc(Cc2ccc([O-])c(F)c2)cc1 (protonated)
C=c1/c(=C\c2c([O-])[n-]c(=S)[n-]c2=O)cc(C)n1-c1ccc(Cc2ccc([O-])c(F)c2)cc1 (cis-trans isomerization)
C=c1/c(=C\c2c([O-])[n-]c(=S)[n-]c2=O)cc(C)n1-c1ccc(Cc2ccc([O-])c(F)c2)cc1 (3D coordinates assigned)
C=c1/c(=C\c2c([O-])[n-]c(=S)[n-]c2=O)cc(C)n1-c1ccc(Cc2ccc([O-])c(F)c2)cc1 (optimized conformer: 100.06480627198822 kcal/mol)

>  <smiles>  (8) 
C=c1c(=Cc2c(O)[nH]c(=S)[nH]c2=O)cc(C)n1-c1ccc(Cc2ccc(O)c(F)c2)cc1

>  <score_type>  (8) 
oracle

>  <origin>  (8) 
adg

>  <m_score__min__energy>  (8) 
-16.75

>  <m_primary>  (8) 
energy

$$$$
8:0
     RDKit          3D

 62 65  0  0  0  0  0  0  0  0999 V2000
   55.9780   21.8220   42.5920 O   0  0  0  0  0  0  0  0  0  0  0  0
   57.0400   21.3060   42.8990 C   0  0  0  0  0  0  0  0  0  0  0  0
   57.3890   21.0920   44.3400 C   0  0  0  0  0  0  0  0  0  0  0  0
   56.3900   21.7760   45.2300 C   0  0  0  0  0  0  0  0  0  0  0  0
   55.2410   21.0960   45.6650 C   0  0  0  0  0  0  0  0  0  0  0  0
   54.3130   21.7410   46.4870 C   0  0  0  0  0  0  0  0  0  0  0  0
   54.5130   23.0710   46.8640 C   0  0  0  0  0  0  0  0  0  0  0  0
   55.6390   23.7760   46.4000 C   0  0  0  0  0  0  0  0  0  0  0  0
   55.8710   25.1450   46.7600 N   0  0  0  0  0  0  0  0  0  0  0  0
   57.1490   25.7580   46.9840 C   0  0  0  0  0  0  0  0  0  0  0  0
   57.9190   25.2520   47.8450 O   0  0  0  0  0  0  0  0  0  0  0  0
   57.6030   26.9390   46.2090 C   0  0  0  0  0  0  0  0  0  0  0  0
   57.4030   27.0130   44.8200 C   0  0  0  0  0  0  0  0  0  0  0  0
   57.7950   28.1500   44.1070 C   0  0  0  0  0  0  0  0  0  0  0  0
   58.4240   29.2100   44.7610 C   0  0  0  0  0  0  0  0  0  0  0  0
   58.7880   30.3430   44.0300 O   0  0  0  0  0  0  0  0  0  0  0  0
   57.8630   31.7810   44.0410 S   0  0  0  0  0  0  0  0  0  0  0  0
   56.4750   31.4680   44.5300 O   0  0  0  0  0  0  0  0  0  0  0  0
   57.7680   32.3100   42.6370 O   0  0  0  0  0  0  0  0  0  0  0  0
   58.5760   32.9960   45.0980 C   0  0  0  0  0  0  0  0  0  0  0  0
   58.7550   34.3040   44.6300 C   0  0  0  0  0  0  0  0  0  0  0  0
   59.2930   35.2820   45.4700 C   0  0  0  0  0  0  0  0  0  0  0  0
   59.6640   34.9570   46.7770 C   0  0  0  0  0  0  0  0  0  0  0  0
   59.4920   33.6490   47.2580 C   0  0  0  0  0  0  0  0  0  0  0  0
   59.9110   33.2860   48.6650 C   0  0  0  0  0  0  0  0  0  0  0  0
   61.3330   32.8700   48.7310 N   0  0  0  0  0  0  0  0  0  0  0  0
   62.1490   33.9610   49.3200 C   0  0  0  0  0  0  0  0  0  0  0  0
   63.6600   33.8040   49.0320 C   0  0  0  0  0  0  0  0  0  0  0  0
   64.0060   32.4190   48.6940 N   0  0  0  0  0  0  0  0  0  0  0  0
   63.2960   31.9650   47.4850 C   0  0  0  0  0  0  0  0  0  0  0  0
   61.8500   32.5030   47.3930 C   0  0  0  0  0  0  0  0  0  0  0  0
   58.9430   32.6710   46.4120 C   0  0  0  0  0  0  0  0  0  0  0  0
   58.6510   29.1320   46.1430 C   0  0  0  0  0  0  0  0  0  0  0  0
   58.2490   28.0010   46.8600 C   0  0  0  0  0  0  0  0  0  0  0  0
   56.5800   23.1170   45.6020 C   0  0  0  0  0  0  0  0  0  0  0  0
   57.7450   20.9962   42.1135 H   0  0  0  0  0  0  0  0  0  0  0  0
   57.3881   20.0135   44.5565 H   0  0  0  0  0  0  0  0  0  0  0  0
   58.3857   21.5161   44.5317 H   0  0  0  0  0  0  0  0  0  0  0  0
   55.0710   20.0534   45.3581 H   0  0  0  0  0  0  0  0  0  0  0  0
   53.4222   21.1996   46.8382 H   0  0  0  0  0  0  0  0  0  0  0  0
   53.7884   23.5686   47.5253 H   0  0  0  0  0  0  0  0  0  0  0  0
   56.9348   26.1705   44.2900 H   0  0  0  0  0  0  0  0  0  0  0  0
   57.6066   28.2092   43.0249 H   0  0  0  0  0  0  0  0  0  0  0  0
   58.4714   34.5616   43.5989 H   0  0  0  0  0  0  0  0  0  0  0  0
   59.4248   36.3100   45.1015 H   0  0  0  0  0  0  0  0  0  0  0  0
   60.0929   35.7293   47.4324 H   0  0  0  0  0  0  0  0  0  0  0  0
   59.7664   34.1611   49.3156 H   0  0  0  0  0  0  0  0  0  0  0  0
   59.2931   32.4381   48.9956 H   0  0  0  0  0  0  0  0  0  0  0  0
   61.4030   32.0340   49.3620 H   0  0  0  0  0  0  0  0  0  0  0  0
   61.8093   34.9193   48.9003 H   0  0  0  0  0  0  0  0  0  0  0  0
   62.0148   33.9218   50.4111 H   0  0  0  0  0  0  0  0  0  0  0  0
   63.9319   34.4556   48.1885 H   0  0  0  0  0  0  0  0  0  0  0  0
   64.2135   34.0843   49.9403 H   0  0  0  0  0  0  0  0  0  0  0  0
   63.7480   31.8010   49.5020 H   0  0  0  0  0  0  0  0  0  0  0  0
   63.8542   32.3084   46.6015 H   0  0  0  0  0  0  0  0  0  0  0  0
   63.2352   30.8677   47.5329 H   0  0  0  0  0  0  0  0  0  0  0  0
   61.8380   33.3929   46.7465 H   0  0  0  0  0  0  0  0  0  0  0  0
   61.2087   31.7132   46.9746 H   0  0  0  0  0  0  0  0  0  0  0  0
   58.8002   31.6450   46.7821 H   0  0  0  0  0  0  0  0  0  0  0  0
   59.1471   29.9637   46.6646 H   0  0  0  0  0  0  0  0  0  0  0  0
   58.4404   27.9433   47.9417 H   0  0  0  0  0  0  0  0  0  0  0  0
   57.4777   23.6543   45.2624 H   0  0  0  0  0  0  0  0  0  0  0  0
  1  2  2  0
  2  3  1  0
  3  4  1  0
  4  5  2  0
  5  6  1  0
  6  7  2  0
  7  8  1  0
  8  9  1  0
  9 10  1  0
 10 11  2  0
 10 12  1  0
 12 13  2  0
 13 14  1  0
 14 15  2  0
 15 16  1  0
 16 17  1  0
 17 18  2  0
 17 19  2  0
 17 20  1  0
 20 21  2  0
 21 22  1  0
 22 23  2  0
 23 24  1  0
 24 25  1  0
 25 26  1  0
 26 27  1  0
 27 28  1  0
 28 29  1  0
 29 30  1  0
 30 31  1  0
 24 32  2  0
 15 33  1  0
 33 34  2  0
  8 35  2  0
 35  4  1  0
 34 12  1  0
 32 20  1  0
 31 26  1  0
  2 36  1  0
  3 37  1  0
  3 38  1  0
  5 39  1  0
  6 40  1  0
  7 41  1  0
 13 42  1  0
 14 43  1  0
 21 44  1  0
 22 45  1  0
 23 46  1  0
 25 47  1  0
 25 48  1  0
 26 49  1  0
 27 50  1  0
 27 51  1  0
 28 52  1  0
 28 53  1  0
 29 54  1  0
 30 55  1  0
 30 56  1  0
 31 57  1  0
 31 58  1  0
 32 59  1  0
 33 60  1  0
 34 61  1  0
 35 62  1  0
M  CHG  2   9  -1  26   1
M  END
>  <UniqueID>  (9) 
9

>  <SMILES>  (9) 
O=CCc1cccc([N-]C(=O)c2ccc(OS(=O)(=O)c3cccc(C[NH+]4CCNCC4)c3)cc2)c1

>  <Energy>  (9) 
83.43299636441839

>  <Genealogy>  (9) 
O=CCc1cccc([N-]C(=O)c2ccc(OS(=O)(=O)c3cccc(C[NH+]4CCNCC4)c3)cc2)c1 (protonated)
O=CCc1cccc([N-]C(=O)c2ccc(OS(=O)(=O)c3cccc(C[NH+]4CCNCC4)c3)cc2)c1 (3D coordinates assigned)
O=CCc1cccc([N-]C(=O)c2ccc(OS(=O)(=O)c3cccc(C[NH+]4CCNCC4)c3)cc2)c1 (nonaromatic ring conformer: 83.43299636441839 kcal/mol)

>  <smiles>  (9) 
O=CCc1cccc(NC(=O)c2ccc(OS(=O)(=O)c3cccc(CN4CCNCC4)c3)cc2)c1

>  <score_type>  (9) 
oracle

>  <origin>  (9) 
adg

>  <m_score__min__energy>  (9) 
-10.380000000000001

>  <m_primary>  (9) 
energy

$$$$
9:0
     RDKit          3D

 55 57  0  0  0  0  0  0  0  0999 V2000
   54.3590   31.0080   52.1600 C   0  0  0  0  0  0  0  0  0  0  0  0
   55.7670   31.1050   52.7620 C   0  0  0  0  0  0  0  0  0  0  0  0
   55.8150   30.4640   54.1540 C   0  0  0  0  0  0  0  0  0  0  0  0
   56.7860   30.4830   51.8370 C   0  0  0  0  0  0  0  0  0  0  0  0
   57.0910   29.2670   51.9860 O   0  0  0  0  0  0  0  0  0  0  0  0
   57.3830   31.2530   50.7780 N   0  0  0  0  0  0  0  0  0  0  0  0
   58.6180   30.9110   50.1220 C   0  0  0  0  0  0  0  0  0  0  0  0
   59.5120   31.9320   49.7680 C   0  0  0  0  0  0  0  0  0  0  0  0
   60.7430   31.6240   49.1920 C   0  0  0  0  0  0  0  0  0  0  0  0
   61.1000   30.2940   48.9650 C   0  0  0  0  0  0  0  0  0  0  0  0
   60.2250   29.2540   49.3240 C   0  0  0  0  0  0  0  0  0  0  0  0
   60.6080   27.8380   49.1140 C   0  0  0  0  0  0  0  0  0  0  0  0
   61.2000   27.2150   50.0320 O   0  0  0  0  0  0  0  0  0  0  0  0
   60.2850   27.1380   47.9050 N   0  0  0  0  0  0  0  0  0  0  0  0
   58.9840   27.0540   47.3030 C   0  0  0  0  0  0  0  0  0  0  0  0
   58.1780   25.9440   47.5790 C   0  0  0  0  0  0  0  0  0  0  0  0
   56.9020   25.8400   47.0140 C   0  0  0  0  0  0  0  0  0  0  0  0
   56.4250   26.8440   46.1640 C   0  0  0  0  0  0  0  0  0  0  0  0
   55.1440   26.7340   45.6300 O   0  0  0  0  0  0  0  0  0  0  0  0
   57.2360   27.9500   45.8580 C   0  0  0  0  0  0  0  0  0  0  0  0
   56.6410   29.2360   44.8080 S   0  0  0  0  0  0  0  0  0  0  0  0
   55.1420   29.1530   44.7120 O   0  0  0  0  0  0  0  0  0  0  0  0
   57.2250   29.0780   43.4300 O   0  0  0  0  0  0  0  0  0  0  0  0
   57.1070   30.7690   45.4890 N   0  0  0  0  0  0  0  0  0  0  0  0
   58.4130   31.1940   44.9840 C   0  0  0  0  0  0  0  0  0  0  0  0
   58.7190   32.5920   45.4480 C   0  0  0  0  0  0  0  0  0  0  0  0
   58.9290   32.8660   46.8100 C   0  0  0  0  0  0  0  0  0  0  0  0
   59.2120   34.1690   47.2300 C   0  0  0  0  0  0  0  0  0  0  0  0
   59.2980   35.2030   46.2960 C   0  0  0  0  0  0  0  0  0  0  0  0
   59.0930   34.9380   44.9380 C   0  0  0  0  0  0  0  0  0  0  0  0
   58.8010   33.6380   44.5150 C   0  0  0  0  0  0  0  0  0  0  0  0
   58.5180   28.0420   46.4170 C   0  0  0  0  0  0  0  0  0  0  0  0
   58.9850   29.5700   49.9040 C   0  0  0  0  0  0  0  0  0  0  0  0
   53.6166   30.9569   52.9701 H   0  0  0  0  0  0  0  0  0  0  0  0
   54.1638   31.8948   51.5392 H   0  0  0  0  0  0  0  0  0  0  0  0
   54.2872   30.1028   51.5392 H   0  0  0  0  0  0  0  0  0  0  0  0
   56.0192   32.1694   52.8775 H   0  0  0  0  0  0  0  0  0  0  0  0
   55.7562   31.2496   54.9217 H   0  0  0  0  0  0  0  0  0  0  0  0
   54.9660   29.7742   54.2695 H   0  0  0  0  0  0  0  0  0  0  0  0
   56.7573   29.9083   54.2695 H   0  0  0  0  0  0  0  0  0  0  0  0
   56.8840   32.1100   50.4530 H   0  0  0  0  0  0  0  0  0  0  0  0
   59.2397   32.9828   49.9462 H   0  0  0  0  0  0  0  0  0  0  0  0
   61.4360   32.4322   48.9152 H   0  0  0  0  0  0  0  0  0  0  0  0
   62.0702   30.0586   48.5032 H   0  0  0  0  0  0  0  0  0  0  0  0
   58.5491   25.1495   48.2431 H   0  0  0  0  0  0  0  0  0  0  0  0
   56.2722   24.9666   47.2387 H   0  0  0  0  0  0  0  0  0  0  0  0
   59.1879   30.5090   45.3584 H   0  0  0  0  0  0  0  0  0  0  0  0
   58.3960   31.1762   43.8843 H   0  0  0  0  0  0  0  0  0  0  0  0
   58.8705   32.0526   47.5482 H   0  0  0  0  0  0  0  0  0  0  0  0
   59.3672   34.3799   48.2984 H   0  0  0  0  0  0  0  0  0  0  0  0
   59.5270   36.2264   46.6281 H   0  0  0  0  0  0  0  0  0  0  0  0
   59.1616   35.7530   44.2024 H   0  0  0  0  0  0  0  0  0  0  0  0
   58.6348   33.4337   43.4470 H   0  0  0  0  0  0  0  0  0  0  0  0
   59.1650   28.8939   46.1607 H   0  0  0  0  0  0  0  0  0  0  0  0
   58.2952   28.7624   50.1901 H   0  0  0  0  0  0  0  0  0  0  0  0
  1  2  1  0
  2  3  1  0
  2  4  1  0
  4  5  2  0
  4  6  1  0
  6  7  1  0
  7  8  2  0
  8  9  1  0
  9 10  2  0
 10 11  1  0
 11 12  1  0
 12 13  2  0
 12 14  1  0
 14 15  1  0
 15 16  2  0
 16 17  1  0
 17 18  2  0
 18 19  1  0
 18 20  1  0
 20 21  1  0
 21 22  2  0
 21 23  2  0
 21 24  1  0
 24 25  1  0
 25 26  1  0
 26 27  2  0
 27 28  1  0
 28 29  2  0
 29 30  1  0
 30 31  2  0
 20 32  2  0
 11 33  2  0
 33  7  1  0
 32 15  1  0
 31 26  1  0
  1 34  1  0
  1 35  1  0
  1 36  1  0
  2 37  1  0
  3 38  1  0
  3 39  1  0
  3 40  1  0
  6 41  1  0
  8 42  1  0
  9 43  1  0
 10 44  1  0
 16 45  1  0
 17 46  1  0
 25 47  1  0
 25 48  1  0
 27 49  1  0
 28 50  1  0
 29 51  1  0
 30 52  1  0
 31 53  1  0
 32 54  1  0
 33 55  1  0
M  CHG  3  14  -1  19  -1  24  -1
M  END
>  <UniqueID>  (10) 
10

>  <SMILES>  (10) 
CC(C)C(=O)Nc1cccc(C(=O)[N-]c2ccc([O-])c(S(=O)(=O)[N-]Cc3ccccc3)c2)c1

>  <Energy>  (10) 
58.68785548711917

>  <Genealogy>  (10) 
CC(C)C(=O)Nc1cccc(C(=O)[N-]c2ccc([O-])c(S(=O)(=O)[N-]Cc3ccccc3)c2)c1 (protonated)
CC(C)C(=O)Nc1cccc(C(=O)[N-]c2ccc([O-])c(S(=O)(=O)[N-]Cc3ccccc3)c2)c1 (3D coordinates assigned)
CC(C)C(=O)Nc1cccc(C(=O)[N-]c2ccc([O-])c(S(=O)(=O)[N-]Cc3ccccc3)c2)c1 (optimized conformer: 58.68785548711917 kcal/mol)

>  <smiles>  (10) 
CC(C)C(=O)Nc1cccc(C(=O)Nc2ccc(O)c(S(=O)(=O)NCc3ccccc3)c2)c1

>  <score_type>  (10) 
oracle

>  <origin>  (10) 
adg

>  <m_score__min__energy>  (10) 
-16.239999999999998

>  <m_primary>  (10) 
energy

$$$$
10:0
     RDKit          3D

 64 68  0  0  0  0  0  0  0  0999 V2000
   57.6220   32.3770   45.4300 O   0  0  0  0  0  0  0  0  0  0  0  0
   58.3450   31.5410   46.0330 C   0  0  0  0  0  0  0  0  0  0  0  0
   59.1990   32.0020   47.0930 N   0  0  0  0  0  0  0  0  0  0  0  0
   59.4270   31.3300   48.3420 C   0  0  0  0  0  0  0  0  0  0  0  0
   60.5850   30.5630   48.5010 C   0  0  0  0  0  0  0  0  0  0  0  0
   60.7920   29.8340   49.6760 C   0  0  0  0  0  0  0  0  0  0  0  0
   59.8430   29.8670   50.7010 C   0  0  0  0  0  0  0  0  0  0  0  0
   58.6930   30.6670   50.5770 C   0  0  0  0  0  0  0  0  0  0  0  0
   57.6740   30.6570   51.5980 N   0  0  0  0  0  0  0  0  0  0  0  0
   56.6660   31.7280   51.6380 C   0  0  0  0  0  0  0  0  0  0  0  0
   55.4030   31.2630   52.3690 C   0  0  0  0  0  0  0  0  0  0  0  0
   55.1900   29.8340   52.0860 N   0  0  0  0  0  0  0  0  0  0  0  0
   53.8080   29.3750   52.3530 C   0  0  0  0  0  0  0  0  0  0  0  0
   52.7820   30.4900   52.3570 C   0  0  0  0  0  0  0  0  0  0  0  0
   52.2180   30.9300   53.5680 C   0  0  0  0  0  0  0  0  0  0  0  0
   51.2770   31.9650   53.5730 C   0  0  0  0  0  0  0  0  0  0  0  0
   50.8810   32.5590   52.3720 C   0  0  0  0  0  0  0  0  0  0  0  0
   51.4240   32.1180   51.1620 C   0  0  0  0  0  0  0  0  0  0  0  0
   51.0210   32.7030   49.9670 O   0  0  0  0  0  0  0  0  0  0  0  0
   52.3670   31.0840   51.1520 C   0  0  0  0  0  0  0  0  0  0  0  0
   56.2250   28.9810   52.7100 C   0  0  0  0  0  0  0  0  0  0  0  0
   57.6310   29.6110   52.6290 C   0  0  0  0  0  0  0  0  0  0  0  0
   58.5110   31.4210   49.4060 C   0  0  0  0  0  0  0  0  0  0  0  0
   58.3040   30.1180   45.6270 C   0  0  0  0  0  0  0  0  0  0  0  0
   59.4880   29.3750   45.5130 C   0  0  0  0  0  0  0  0  0  0  0  0
   59.4400   28.0000   45.2780 C   0  0  0  0  0  0  0  0  0  0  0  0
   58.2040   27.3380   45.1480 C   0  0  0  0  0  0  0  0  0  0  0  0
   58.1510   25.8990   45.0120 N   0  0  0  0  0  0  0  0  0  0  0  0
   57.3760   25.2060   43.9930 C   0  0  0  0  0  0  0  0  0  0  0  0
   57.6840   23.7260   44.1720 C   0  0  0  0  0  0  0  0  0  0  0  0
   58.2540   23.5950   45.5800 C   0  0  0  0  0  0  0  0  0  0  0  0
   58.7860   24.9740   45.9390 C   0  0  0  0  0  0  0  0  0  0  0  0
   57.0220   28.1030   45.1920 C   0  0  0  0  0  0  0  0  0  0  0  0
   57.0730   29.4800   45.4250 C   0  0  0  0  0  0  0  0  0  0  0  0
   61.3365   30.5329   47.6983 H   0  0  0  0  0  0  0  0  0  0  0  0
   61.7053   29.2323   49.7939 H   0  0  0  0  0  0  0  0  0  0  0  0
   59.9960   29.2648   51.6087 H   0  0  0  0  0  0  0  0  0  0  0  0
   57.0861   32.5985   52.1631 H   0  0  0  0  0  0  0  0  0  0  0  0
   56.3962   31.9953   50.6057 H   0  0  0  0  0  0  0  0  0  0  0  0
   55.5270   31.4109   53.4519 H   0  0  0  0  0  0  0  0  0  0  0  0
   54.5359   31.8455   52.0244 H   0  0  0  0  0  0  0  0  0  0  0  0
   53.5277   28.6489   51.5757 H   0  0  0  0  0  0  0  0  0  0  0  0
   53.8063   28.9352   53.3612 H   0  0  0  0  0  0  0  0  0  0  0  0
   52.5182   30.4582   54.5153 H   0  0  0  0  0  0  0  0  0  0  0  0
   50.8479   32.3120   54.5246 H   0  0  0  0  0  0  0  0  0  0  0  0
   50.1419   33.3737   52.3788 H   0  0  0  0  0  0  0  0  0  0  0  0
   52.7856   30.7342   50.1968 H   0  0  0  0  0  0  0  0  0  0  0  0
   55.9664   28.8282   53.7682 H   0  0  0  0  0  0  0  0  0  0  0  0
   56.2514   28.0283   52.1608 H   0  0  0  0  0  0  0  0  0  0  0  0
   57.8846   30.0540   53.6034 H   0  0  0  0  0  0  0  0  0  0  0  0
   58.3552   28.8259   52.3660 H   0  0  0  0  0  0  0  0  0  0  0  0
   57.6423   32.0903   49.3198 H   0  0  0  0  0  0  0  0  0  0  0  0
   60.4609   29.8792   45.6094 H   0  0  0  0  0  0  0  0  0  0  0  0
   60.3760   27.4284   45.1936 H   0  0  0  0  0  0  0  0  0  0  0  0
   56.3015   25.3935   44.1356 H   0  0  0  0  0  0  0  0  0  0  0  0
   57.6344   25.5537   42.9819 H   0  0  0  0  0  0  0  0  0  0  0  0
   56.7664   23.1277   44.0717 H   0  0  0  0  0  0  0  0  0  0  0  0
   58.3896   23.3614   43.4109 H   0  0  0  0  0  0  0  0  0  0  0  0
   57.4666   23.2921   46.2858 H   0  0  0  0  0  0  0  0  0  0  0  0
   59.0431   22.8302   45.6289 H   0  0  0  0  0  0  0  0  0  0  0  0
   58.5209   25.2286   46.9758 H   0  0  0  0  0  0  0  0  0  0  0  0
   59.8827   25.0162   45.8647 H   0  0  0  0  0  0  0  0  0  0  0  0
   56.0494   27.6117   45.0415 H   0  0  0  0  0  0  0  0  0  0  0  0
   56.1423   30.0658   45.4499 H   0  0  0  0  0  0  0  0  0  0  0  0
  1  2  2  0
  2  3  1  0
  3  4  1  0
  4  5  2  0
  5  6  1  0
  6  7  2  0
  7  8  1  0
  8  9  1  0
  9 10  1  0
 10 11  1  0
 11 12  1  0
 12 13  1  0
 13 14  1  0
 14 15  2  0
 15 16  1  0
 16 17  2  0
 17 18  1  0
 18 19  1  0
 18 20  2  0
 12 21  1  0
 21 22  1  0
  8 23  2  0
  2 24  1  0
 24 25  2  0
 25 26  1  0
 26 27  2  0
 27 28  1  0
 28 29  1  0
 29 30  1  0
 30 31  1  0
 31 32  1  0
 27 33  1  0
 33 34  2  0
 23  4  1  0
 34 24  1  0
 22  9  1  0
 32 28  1  0
 20 14  1  0
  5 35  1  0
  6 36  1  0
  7 37  1  0
 10 38  1  0
 10 39  1  0
 11 40  1  0
 11 41  1  0
 13 42  1  0
 13 43  1  0
 15 44  1  0
 16 45  1  0
 17 46  1  0
 20 47  1  0
 21 48  1  0
 21 49  1  0
 22 50  1  0
 22 51  1  0
 23 52  1  0
 25 53  1  0
 26 54  1  0
 29 55  1  0
 29 56  1  0
 30 57  1  0
 30 58  1  0
 31 59  1  0
 31 60  1  0
 32 61  1  0
 32 62  1  0
 33 63  1  0
 34 64  1  0
M  CHG  2   3  -1  19  -1
M  END
>  <UniqueID>  (11) 
11

>  <SMILES>  (11) 
O=C([N-]c1cccc(N2CCN(Cc3cccc([O-])c3)CC2)c1)c1ccc(N2CCCC2)cc1

>  <Energy>  (11) 
86.28254989188005

>  <Genealogy>  (11) 
O=C([N-]c1cccc(N2CCN(Cc3cccc([O-])c3)CC2)c1)c1ccc(N2CCCC2)cc1 (protonated)
O=C([N-]c1cccc(N2CCN(Cc3cccc([O-])c3)CC2)c1)c1ccc(N2CCCC2)cc1 (3D coordinates assigned)
O=C([N-]c1cccc(N2CCN(Cc3cccc([O-])c3)CC2)c1)c1ccc(N2CCCC2)cc1 (nonaromatic ring conformer: 86.28254989188005 kcal/mol)

>  <smiles>  (11) 
O=C(Nc1cccc(N2CCN(Cc3cccc(O)c3)CC2)c1)c1ccc(N2CCCC2)cc1

>  <score_type>  (11) 
oracle

>  <origin>  (11) 
adg

>  <m_score__min__energy>  (11) 
-15.359999999999999

>  <m_primary>  (11) 
energy

$$$$
11:0
     RDKit          3D

 44 47  0  0  0  0  0  0  0  0999 V2000
   55.1870   26.6410   45.9940 N   0  0  0  0  0  0  0  0  0  0  0  0
   55.7320   25.0150   45.7770 S   0  0  0  0  0  0  0  0  0  0  0  0
   55.1870   24.4620   44.4910 O   0  0  0  0  0  0  0  0  0  0  0  0
   55.2360   24.1820   46.9240 O   0  0  0  0  0  0  0  0  0  0  0  0
   57.4920   24.9730   45.7440 C   0  0  0  0  0  0  0  0  0  0  0  0
   58.4010   23.5780   45.9730 S   0  0  0  0  0  0  0  0  0  0  0  0
   59.9050   24.3250   45.9450 C   0  0  0  0  0  0  0  0  0  0  0  0
   59.7140   25.6890   45.7650 C   0  0  0  0  0  0  0  0  0  0  0  0
   58.3640   26.0590   45.6430 C   0  0  0  0  0  0  0  0  0  0  0  0
   57.9410   27.4610   45.4550 C   0  0  0  0  0  0  0  0  0  0  0  0
   58.0490   28.3860   46.5040 C   0  0  0  0  0  0  0  0  0  0  0  0
   57.6770   29.7180   46.3090 C   0  0  0  0  0  0  0  0  0  0  0  0
   57.2090   30.1490   45.0630 C   0  0  0  0  0  0  0  0  0  0  0  0
   56.8900   31.5370   44.8860 N   0  0  0  0  0  0  0  0  0  0  0  0
   57.8250   32.5700   44.5530 C   0  0  0  0  0  0  0  0  0  0  0  0
   57.9160   32.9450   43.3540 O   0  0  0  0  0  0  0  0  0  0  0  0
   58.6800   33.2090   45.5720 C   0  0  0  0  0  0  0  0  0  0  0  0
   58.5420   34.5060   46.0320 C   0  0  0  0  0  0  0  0  0  0  0  0
   59.5830   34.7250   46.9140 C   0  0  0  0  0  0  0  0  0  0  0  0
   60.3440   33.6130   47.0280 N   0  0  0  0  0  0  0  0  0  0  0  0
   61.5320   33.4490   47.8300 C   0  0  0  0  0  0  0  0  0  0  0  0
   61.7380   34.2090   48.9960 C   0  0  0  0  0  0  0  0  0  0  0  0
   62.9060   34.0260   49.7400 C   0  0  0  0  0  0  0  0  0  0  0  0
   63.8570   33.0950   49.3240 C   0  0  0  0  0  0  0  0  0  0  0  0
   63.6240   32.3540   48.1650 C   0  0  0  0  0  0  0  0  0  0  0  0
   62.4810   32.5450   47.4540 N   0  0  0  0  0  0  0  0  0  0  0  0
   59.7860   32.6840   46.2230 C   0  0  0  0  0  0  0  0  0  0  0  0
   60.2430   31.3700   46.1280 O   0  0  0  0  0  0  0  0  0  0  0  0
   57.0400   29.2090   44.0280 C   0  0  0  0  0  0  0  0  0  0  0  0
   56.4910   29.5700   42.8410 F   0  0  0  0  0  0  0  0  0  0  0  0
   57.4070   27.8750   44.2250 C   0  0  0  0  0  0  0  0  0  0  0  0
   55.1620   27.0840   45.0480 H   0  0  0  0  0  0  0  0  0  0  0  0
   60.8764   23.8198   46.0512 H   0  0  0  0  0  0  0  0  0  0  0  0
   60.5421   26.4118   45.7220 H   0  0  0  0  0  0  0  0  0  0  0  0
   58.4282   28.0610   47.4841 H   0  0  0  0  0  0  0  0  0  0  0  0
   57.7525   30.4334   47.1411 H   0  0  0  0  0  0  0  0  0  0  0  0
   57.7569   35.2232   45.7507 H   0  0  0  0  0  0  0  0  0  0  0  0
   59.7665   35.6694   47.4474 H   0  0  0  0  0  0  0  0  0  0  0  0
   60.9845   34.9422   49.3195 H   0  0  0  0  0  0  0  0  0  0  0  0
   63.0753   34.6157   50.6530 H   0  0  0  0  0  0  0  0  0  0  0  0
   64.7804   32.9464   49.9030 H   0  0  0  0  0  0  0  0  0  0  0  0
   64.3652   31.6151   47.8264 H   0  0  0  0  0  0  0  0  0  0  0  0
   61.1440   31.0900   46.4930 H   0  0  0  0  0  0  0  0  0  0  0  0
   57.2766   27.1458   43.4118 H   0  0  0  0  0  0  0  0  0  0  0  0
  1  2  1  0
  2  3  2  0
  2  4  2  0
  2  5  1  0
  5  6  1  0
  6  7  1  0
  7  8  2  0
  8  9  1  0
  9 10  1  0
 10 11  2  0
 11 12  1  0
 12 13  2  0
 13 14  1  0
 14 15  1  0
 15 16  2  0
 15 17  1  0
 17 18  1  0
 18 19  2  0
 19 20  1  0
 20 21  1  0
 21 22  2  0
 22 23  1  0
 23 24  2  0
 24 25  1  0
 25 26  2  0
 20 27  1  0
 27 28  1  0
 13 29  1  0
 29 30  1  0
 29 31  2  0
  9  5  2  0
 31 10  1  0
 27 17  2  0
 26 21  1  0
  1 32  1  0
  7 33  1  0
  8 34  1  0
 11 35  1  0
 12 36  1  0
 18 37  1  0
 19 38  1  0
 22 39  1  0
 23 40  1  0
 24 41  1  0
 25 42  1  0
 28 43  1  0
 31 44  1  0
M  CHG  2   1  -1  14  -1
M  END
>  <UniqueID>  (12) 
12

>  <SMILES>  (12) 
[NH-]S(=O)(=O)c1sccc1-c1ccc([N-]C(=O)c2ccn(-c3ccccn3)c2O)c(F)c1

>  <Energy>  (12) 
117.56900830614988

>  <Genealogy>  (12) 
[NH-]S(=O)(=O)c1sccc1-c1ccc([N-]C(=O)c2ccn(-c3ccccn3)c2O)c(F)c1 (protonated)
[NH-]S(=O)(=O)c1sccc1-c1ccc([N-]C(=O)c2ccn(-c3ccccn3)c2O)c(F)c1 (3D coordinates assigned)
[NH-]S(=O)(=O)c1sccc1-c1ccc([N-]C(=O)c2ccn(-c3ccccn3)c2O)c(F)c1 (optimized conformer: 117.56900830614988 kcal/mol)

>  <smiles>  (12) 
NS(=O)(=O)c1sccc1-c1ccc(NC(=O)c2ccn(-c3ccccn3)c2O)c(F)c1

>  <score_type>  (12) 
oracle

>  <origin>  (12) 
adg

>  <m_score__min__energy>  (12) 
-12.300000000000001

>  <m_primary>  (12) 
energy

$$$$
12:0
     RDKit          3D

 44 46  0  0  0  0  0  0  0  0999 V2000
   56.0613   23.3030   47.1588 H   0  0  0  0  0  0  0  0  0  0  0  0
   56.3360   24.3360   46.8990 C   0  0  0  0  0  0  0  0  0  0  0  0
   55.5640   25.0530   45.9810 C   0  0  0  0  0  0  0  0  0  0  0  0
   54.6854   24.5826   45.5155 H   0  0  0  0  0  0  0  0  0  0  0  0
   55.9080   26.3680   45.6540 C   0  0  0  0  0  0  0  0  0  0  0  0
   55.3063   26.9258   44.9213 H   0  0  0  0  0  0  0  0  0  0  0  0
   57.0180   26.9790   46.2570 C   0  0  0  0  0  0  0  0  0  0  0  0
   57.3840   28.3230   45.9020 N   0  0  0  0  0  0  0  0  0  0  0  0
   56.5820   29.1810   45.2480 C   0  0  0  0  0  0  0  0  0  0  0  0
   55.2280   28.9700   45.0040 O   0  0  0  0  0  0  0  0  0  0  0  0
   57.3170   30.2600   44.8230 C   0  0  0  0  0  0  0  0  0  0  0  0
   56.8010   31.4570   44.0950 C   0  0  0  0  0  0  0  0  0  0  0  0
   57.4820   31.7067   43.2680 H   0  0  0  0  0  0  0  0  0  0  0  0
   55.8016   31.2410   43.6894 H   0  0  0  0  0  0  0  0  0  0  0  0
   56.7030   32.8630   45.2500 S   0  0  0  0  0  0  0  0  0  0  0  0
   58.4930   33.0860   45.4140 C   0  0  0  0  0  0  0  0  0  0  0  0
   59.1410   33.9690   44.4750 S   0  0  0  0  0  0  0  0  0  0  0  0
   59.2760   32.4140   46.4490 N   0  0  0  0  0  0  0  0  0  0  0  0
   59.6310   31.4990   46.0770 H   0  0  0  0  0  0  0  0  0  0  0  0
   58.4670   32.1550   47.6580 C   0  0  0  0  0  0  0  0  0  0  0  0
   57.4204   32.4382   47.4722 H   0  0  0  0  0  0  0  0  0  0  0  0
   58.5044   31.0862   47.9155 H   0  0  0  0  0  0  0  0  0  0  0  0
   59.0310   32.9900   48.8040 C   0  0  0  0  0  0  0  0  0  0  0  0
   58.2357   33.5925   49.2670 H   0  0  0  0  0  0  0  0  0  0  0  0
   59.4586   32.3568   49.5954 H   0  0  0  0  0  0  0  0  0  0  0  0
   60.0770   33.8870   48.1810 C   0  0  0  0  0  0  0  0  0  0  0  0
   59.6636   34.8868   47.9823 H   0  0  0  0  0  0  0  0  0  0  0  0
   60.9456   34.0369   48.8391 H   0  0  0  0  0  0  0  0  0  0  0  0
   60.4480   33.1930   46.8850 C   0  0  0  0  0  0  0  0  0  0  0  0
   60.7084   33.9396   46.1203 H   0  0  0  0  0  0  0  0  0  0  0  0
   61.3174   32.5354   47.0326 H   0  0  0  0  0  0  0  0  0  0  0  0
   58.5990   30.1050   45.2100 N   0  0  0  0  0  0  0  0  0  0  0  0
   58.6070   28.9230   45.8670 C   0  0  0  0  0  0  0  0  0  0  0  0
   59.6990   28.4690   46.4180 N   0  0  0  0  0  0  0  0  0  0  0  0
   60.4980   29.0890   47.4330 C   0  0  0  0  0  0  0  0  0  0  0  0
   60.9710   30.2370   47.2260 O   0  0  0  0  0  0  0  0  0  0  0  0
   60.6430   28.4740   48.7900 C   0  0  0  0  0  0  0  0  0  0  0  0
   60.4628   29.2384   49.5602 H   0  0  0  0  0  0  0  0  0  0  0  0
   59.9122   27.6597   48.9035 H   0  0  0  0  0  0  0  0  0  0  0  0
   61.6606   28.0719   48.9035 H   0  0  0  0  0  0  0  0  0  0  0  0
   57.8030   26.2450   47.1630 C   0  0  0  0  0  0  0  0  0  0  0  0
   58.6919   26.7066   47.6177 H   0  0  0  0  0  0  0  0  0  0  0  0
   57.4570   24.9290   47.4880 C   0  0  0  0  0  0  0  0  0  0  0  0
   58.0664   24.3611   48.2064 H   0  0  0  0  0  0  0  0  0  0  0  0
  1  2  1  0
  2  3  2  0
  3  4  1  0
  3  5  1  0
  5  6  1  0
  5  7  2  0
  7  8  1  0
  8  9  1  0
  9 10  1  0
  9 11  2  0
 11 12  1  0
 12 13  1  0
 12 14  1  0
 12 15  1  0
 15 16  1  0
 16 17  2  0
 16 18  1  0
 18 19  1  0
 18 20  1  0
 20 21  1  0
 20 22  1  0
 20 23  1  0
 23 24  1  0
 23 25  1  0
 23 26  1  0
 26 27  1  0
 26 28  1  0
 26 29  1  0
 29 30  1  0
 29 31  1  0
 11 32  1  0
 32 33  1  0
 33 34  2  0
 34 35  1  0
 35 36  2  0
 35 37  1  0
 37 38  1  0
 37 39  1  0
 37 40  1  0
  7 41  1  0
 41 42  1  0
 41 43  2  0
 43 44  1  0
 43  2  1  0
 33  8  1  0
 29 18  1  0
M  CHG  3  10  -1  18   1  32  -1
M  END
>  <UniqueID>  (13) 
13

>  <SMILES>  (13) 
CC(=O)/N=c1/[n-]c(CSC(=S)[NH+]2CCCC2)c([O-])n1-c1ccccc1

>  <Energy>  (13) 
94.88200401490631

>  <Genealogy>  (13) 
CC(=O)N=c1[n-]c(CSC(=S)[NH+]2CCCC2)c([O-])n1-c1ccccc1 (protonated)
CC(=O)/N=c1/[n-]c(CSC(=S)[NH+]2CCCC2)c([O-])n1-c1ccccc1 (cis-trans isomerization)
CC(=O)/N=c1/[n-]c(CSC(=S)[NH+]2CCCC2)c([O-])n1-c1ccccc1 (3D coordinates assigned)
CC(=O)/N=c1/[n-]c(CSC(=S)[NH+]2CCCC2)c([O-])n1-c1ccccc1 (nonaromatic ring conformer: 94.88200401490631 kcal/mol)

>  <smiles>  (13) 
CC(=O)N=c1[nH]c(CSC(=S)N2CCCC2)c(O)n1-c1ccccc1

>  <score_type>  (13) 
oracle

>  <origin>  (13) 
adg

>  <m_score__min__energy>  (13) 
-10.470000000000001

>  <m_primary>  (13) 
energy

$$$$
13:0
     RDKit          3D

 32 33  0  0  0  0  0  0  0  0999 V2000
   61.5090   33.9540   47.5310 C   0  0  0  0  0  0  0  0  0  0  0  0
   60.1980   34.3220   46.9100 C   0  0  0  0  0  0  0  0  0  0  0  0
   59.9430   35.5420   46.7280 O   0  0  0  0  0  0  0  0  0  0  0  0
   59.2000   33.3160   46.4790 C   0  0  0  0  0  0  0  0  0  0  0  0
   58.3600   33.4310   45.0210 S   0  0  0  0  0  0  0  0  0  0  0  0
   57.4960   32.0110   45.2780 C   0  0  0  0  0  0  0  0  0  0  0  0
   56.6140   31.4970   44.4750 N   0  0  0  0  0  0  0  0  0  0  0  0
   56.4210   29.7950   44.1950 S   0  0  0  0  0  0  0  0  0  0  0  0
   55.1270   29.3410   44.8110 O   0  0  0  0  0  0  0  0  0  0  0  0
   56.3740   29.5420   42.7150 O   0  0  0  0  0  0  0  0  0  0  0  0
   57.7790   28.9120   44.8840 C   0  0  0  0  0  0  0  0  0  0  0  0
   59.0930   29.2170   44.5030 C   0  0  0  0  0  0  0  0  0  0  0  0
   60.1670   28.5050   45.0470 C   0  0  0  0  0  0  0  0  0  0  0  0
   59.9360   27.4830   45.9790 C   0  0  0  0  0  0  0  0  0  0  0  0
   61.0340   26.7540   46.5340 N   0  0  0  0  0  0  0  0  0  0  0  0
   58.6220   27.1820   46.3640 C   0  0  0  0  0  0  0  0  0  0  0  0
   57.5490   27.8950   45.8210 C   0  0  0  0  0  0  0  0  0  0  0  0
   57.8150   31.4390   46.4560 N   0  0  0  0  0  0  0  0  0  0  0  0
   58.7550   32.1520   47.1370 C   0  0  0  0  0  0  0  0  0  0  0  0
   59.1990   31.7010   48.4940 C   0  0  0  0  0  0  0  0  0  0  0  0
   61.4159   33.9801   48.6267 H   0  0  0  0  0  0  0  0  0  0  0  0
   61.7946   32.9410   47.2113 H   0  0  0  0  0  0  0  0  0  0  0  0
   62.2801   34.6704   47.2113 H   0  0  0  0  0  0  0  0  0  0  0  0
   59.2802   30.0190   43.7737 H   0  0  0  0  0  0  0  0  0  0  0  0
   61.1959   28.7475   44.7428 H   0  0  0  0  0  0  0  0  0  0  0  0
   61.7390   26.2950   45.9140 H   0  0  0  0  0  0  0  0  0  0  0  0
   61.1500   26.6670   47.5680 H   0  0  0  0  0  0  0  0  0  0  0  0
   58.4346   26.3823   47.0957 H   0  0  0  0  0  0  0  0  0  0  0  0
   56.5205   27.6571   46.1301 H   0  0  0  0  0  0  0  0  0  0  0  0
   58.6483   32.2603   49.2647 H   0  0  0  0  0  0  0  0  0  0  0  0
   58.9974   30.6256   48.6071 H   0  0  0  0  0  0  0  0  0  0  0  0
   60.2775   31.8858   48.6071 H   0  0  0  0  0  0  0  0  0  0  0  0
  1  2  1  0
  2  3  2  0
  2  4  1  0
  4  5  1  0
  5  6  1  0
  6  7  2  3
  7  8  1  0
  8  9  2  0
  8 10  2  0
  8 11  1  0
 11 12  2  0
 12 13  1  0
 13 14  2  0
 14 15  1  0
 14 16  1  0
 16 17  2  0
  6 18  1  0
 18 19  1  0
 19 20  1  0
 19  4  2  0
 17 11  1  0
  1 21  1  0
  1 22  1  0
  1 23  1  0
 12 24  1  0
 13 25  1  0
 15 26  1  0
 15 27  1  0
 16 28  1  0
 17 29  1  0
 20 30  1  0
 20 31  1  0
 20 32  1  0
M  CHG  1  18  -1
M  END
>  <UniqueID>  (14) 
14

>  <SMILES>  (14) 
CC(=O)c1sc(=NS(=O)(=O)c2ccc(N)cc2)[n-]c1C

>  <Energy>  (14) 
65.07676803498407

>  <Genealogy>  (14) 
CC(=O)c1sc(=NS(=O)(=O)c2ccc(N)cc2)[n-]c1C (protonated)
CC(=O)c1sc(=NS(=O)(=O)c2ccc(N)cc2)[n-]c1C (3D coordinates assigned)
CC(=O)c1sc(=NS(=O)(=O)c2ccc(N)cc2)[n-]c1C (optimized conformer: 65.07676803498407 kcal/mol)

>  <smiles>  (14) 
CC(=O)c1sc(=NS(=O)(=O)c2ccc(N)cc2)[nH]c1C

>  <score_type>  (14) 
oracle

>  <origin>  (14) 
adg

>  <m_score__min__energy>  (14) 
-8.8399999999999999

>  <m_primary>  (14) 
energy

$$$$
14:0
     RDKit          3D

 30 31  0  0  0  0  0  0  0  0999 V2000
   64.7390   32.3250   47.0490 H   0  0  0  0  0  0  0  0  0  0  0  0
   64.1410   33.1120   46.9830 O   0  0  0  0  0  0  0  0  0  0  0  0
   62.8790   32.7870   48.0450 S   0  0  0  0  0  0  0  0  0  0  0  0
   61.3230   32.9980   47.2630 C   0  0  0  0  0  0  0  0  0  0  0  0
   60.8300   34.2830   47.0100 C   0  0  0  0  0  0  0  0  0  0  0  0
   61.4199   35.1644   47.3018 H   0  0  0  0  0  0  0  0  0  0  0  0
   59.5890   34.4490   46.3870 C   0  0  0  0  0  0  0  0  0  0  0  0
   59.2040   35.4617   46.1965 H   0  0  0  0  0  0  0  0  0  0  0  0
   58.8290   33.3270   46.0020 C   0  0  0  0  0  0  0  0  0  0  0  0
   57.5100   33.4920   45.3430 C   0  0  0  0  0  0  0  0  0  0  0  0
   57.2010   34.6090   44.8500 O   0  0  0  0  0  0  0  0  0  0  0  0
   56.5960   32.3970   45.1830 N   0  0  0  0  0  0  0  0  0  0  0  0
   56.8240   31.3020   44.5200 C   0  0  0  0  0  0  0  0  0  0  0  0
   57.3070   31.3460   42.8120 S   0  0  0  0  0  0  0  0  0  0  0  0
   56.5750   29.6800   42.6350 C   0  0  0  0  0  0  0  0  0  0  0  0
   57.1471   29.0995   41.8963 H   0  0  0  0  0  0  0  0  0  0  0  0
   55.5328   29.7597   42.2923 H   0  0  0  0  0  0  0  0  0  0  0  0
   56.6290   28.9810   43.9960 C   0  0  0  0  0  0  0  0  0  0  0  0
   57.5864   28.4514   44.1094 H   0  0  0  0  0  0  0  0  0  0  0  0
   55.8183   28.2432   44.0872 H   0  0  0  0  0  0  0  0  0  0  0  0
   56.5060   30.0070   45.0130 N   0  0  0  0  0  0  0  0  0  0  0  0
   55.9710   29.8390   45.8940 H   0  0  0  0  0  0  0  0  0  0  0  0
   59.3280   32.0410   46.2740 C   0  0  0  0  0  0  0  0  0  0  0  0
   58.7380   31.1559   45.9939 H   0  0  0  0  0  0  0  0  0  0  0  0
   60.5690   31.8790   46.8980 C   0  0  0  0  0  0  0  0  0  0  0  0
   60.9527   30.8685   47.1021 H   0  0  0  0  0  0  0  0  0  0  0  0
   63.0090   33.7470   49.5370 C   0  0  0  0  0  0  0  0  0  0  0  0
   62.9191   33.0829   50.4093 H   0  0  0  0  0  0  0  0  0  0  0  0
   63.9842   34.2553   49.5621 H   0  0  0  0  0  0  0  0  0  0  0  0
   62.2041   34.4964   49.5621 H   0  0  0  0  0  0  0  0  0  0  0  0
  1  2  1  0
  3  2  1  6
  3  4  1  0
  4  5  2  0
  5  6  1  0
  5  7  1  0
  7  8  1  0
  7  9  2  0
  9 10  1  0
 10 11  2  0
 10 12  1  0
 12 13  2  0
 13 14  1  0
 14 15  1  0
 15 16  1  0
 15 17  1  0
 15 18  1  0
 18 19  1  0
 18 20  1  0
 18 21  1  0
 21 22  1  0
  9 23  1  0
 23 24  1  0
 23 25  2  0
 25 26  1  0
  3 27  1  0
 27 28  1  0
 27 29  1  0
 27 30  1  0
 25  4  1  0
 21 13  1  0
M  CHG  1   3   1
M  END
>  <UniqueID>  (15) 
15

>  <SMILES>  (15) 
C[S@+](O)c1ccc(C(=O)/N=C2\NCCS2)cc1

>  <Energy>  (15) 
38.58297002225424

>  <Genealogy>  (15) 
C[S+](O)c1ccc(C(=O)N=C2NCCS2)cc1 (protonated)
C[S@+](O)c1ccc(C(=O)N=C2NCCS2)cc1 (chirality)
C[S@+](O)c1ccc(C(=O)/N=C2\NCCS2)cc1 (cis-trans isomerization)
C[S@+](O)c1ccc(C(=O)/N=C2\NCCS2)cc1 (3D coordinates assigned)
C[S@+](O)c1ccc(C(=O)/N=C2\NCCS2)cc1 (nonaromatic ring conformer: 38.58297002225424 kcal/mol)

>  <smiles>  (15) 
C[S+]([O-])c1ccc(C(=O)N=C2NCCS2)cc1

>  <score_type>  (15) 
oracle

>  <origin>  (15) 
adg

>  <m_score__min__energy>  (15) 
-5.7000000000000002

>  <m_primary>  (15) 
energy

$$$$
15:0
     RDKit          3D

 49 52  0  0  0  0  0  0  0  0999 V2000
   58.5900   35.0040   47.2800 O   0  0  0  0  0  0  0  0  0  0  0  0
   59.3050   34.3860   46.4480 C   0  0  0  0  0  0  0  0  0  0  0  0
   60.7070   34.6820   46.3960 N   0  0  0  0  0  0  0  0  0  0  0  0
   61.7680   33.8480   46.8830 C   0  0  0  0  0  0  0  0  0  0  0  0
   63.0830   33.9650   46.3950 C   0  0  0  0  0  0  0  0  0  0  0  0
   64.0910   33.1290   46.8840 C   0  0  0  0  0  0  0  0  0  0  0  0
   63.7930   32.1610   47.8460 C   0  0  0  0  0  0  0  0  0  0  0  0
   62.4810   32.0160   48.3120 C   0  0  0  0  0  0  0  0  0  0  0  0
   62.0990   30.7600   49.5350 S   0  0  0  0  0  0  0  0  0  0  0  0
   60.7040   30.1220   48.5950 C   0  0  0  0  0  0  0  0  0  0  0  0
   60.8260   29.9900   47.2070 C   0  0  0  0  0  0  0  0  0  0  0  0
   59.7600   29.5020   46.4480 C   0  0  0  0  0  0  0  0  0  0  0  0
   58.5660   29.1210   47.0690 C   0  0  0  0  0  0  0  0  0  0  0  0
   57.4870   28.6330   46.2570 N   0  0  0  0  0  0  0  0  0  0  0  0
   57.5490   27.5390   45.3310 C   0  0  0  0  0  0  0  0  0  0  0  0
   57.9410   27.7670   44.1560 O   0  0  0  0  0  0  0  0  0  0  0  0
   57.2340   26.1480   45.7390 C   0  0  0  0  0  0  0  0  0  0  0  0
   58.2590   25.1880   45.8150 C   0  0  0  0  0  0  0  0  0  0  0  0
   57.9740   23.8730   46.1960 C   0  0  0  0  0  0  0  0  0  0  0  0
   56.6620   23.5010   46.4950 C   0  0  0  0  0  0  0  0  0  0  0  0
   55.6330   24.4410   46.4140 C   0  0  0  0  0  0  0  0  0  0  0  0
   55.9110   25.7600   46.0380 C   0  0  0  0  0  0  0  0  0  0  0  0
   54.8680   26.6800   45.9800 O   0  0  0  0  0  0  0  0  0  0  0  0
   58.4350   29.2660   48.4600 C   0  0  0  0  0  0  0  0  0  0  0  0
   59.5020   29.7520   49.2260 C   0  0  0  0  0  0  0  0  0  0  0  0
   59.3020   29.8720   50.9690 Cl  0  0  0  0  0  0  0  0  0  0  0  0
   61.4730   32.8600   47.8310 C   0  0  0  0  0  0  0  0  0  0  0  0
   58.6700   33.4190   45.5210 C   0  0  0  0  0  0  0  0  0  0  0  0
   57.9850   32.3010   46.0280 C   0  0  0  0  0  0  0  0  0  0  0  0
   57.3800   31.3880   45.1590 C   0  0  0  0  0  0  0  0  0  0  0  0
   57.4470   31.5840   43.7760 C   0  0  0  0  0  0  0  0  0  0  0  0
   56.6890   30.4370   42.6880 Cl  0  0  0  0  0  0  0  0  0  0  0  0
   58.1110   32.7010   43.2630 C   0  0  0  0  0  0  0  0  0  0  0  0
   58.7170   33.6180   44.1290 C   0  0  0  0  0  0  0  0  0  0  0  0
   63.3181   34.7163   45.6267 H   0  0  0  0  0  0  0  0  0  0  0  0
   65.1204   33.2336   46.5107 H   0  0  0  0  0  0  0  0  0  0  0  0
   64.5901   31.5120   48.2377 H   0  0  0  0  0  0  0  0  0  0  0  0
   61.7665   30.2721   46.7112 H   0  0  0  0  0  0  0  0  0  0  0  0
   59.8599   29.4168   45.3559 H   0  0  0  0  0  0  0  0  0  0  0  0
   59.2932   25.4738   45.5728 H   0  0  0  0  0  0  0  0  0  0  0  0
   58.7839   23.1314   46.2601 H   0  0  0  0  0  0  0  0  0  0  0  0
   56.4389   22.4664   46.7947 H   0  0  0  0  0  0  0  0  0  0  0  0
   54.5998   24.1438   46.6466 H   0  0  0  0  0  0  0  0  0  0  0  0
   57.4883   28.9961   48.9508 H   0  0  0  0  0  0  0  0  0  0  0  0
   60.4429   32.7466   48.1998 H   0  0  0  0  0  0  0  0  0  0  0  0
   57.9246   32.1435   47.1150 H   0  0  0  0  0  0  0  0  0  0  0  0
   56.8500   30.5134   45.5642 H   0  0  0  0  0  0  0  0  0  0  0  0
   58.1576   32.8600   42.1756 H   0  0  0  0  0  0  0  0  0  0  0  0
   59.2328   34.4990   43.7193 H   0  0  0  0  0  0  0  0  0  0  0  0
  1  2  2  0
  2  3  1  0
  3  4  1  0
  4  5  2  0
  5  6  1  0
  6  7  2  0
  7  8  1  0
  8  9  1  0
  9 10  1  0
 10 11  2  0
 11 12  1  0
 12 13  2  0
 13 14  1  0
 14 15  1  0
 15 16  2  0
 15 17  1  0
 17 18  2  0
 18 19  1  0
 19 20  2  0
 20 21  1  0
 21 22  2  0
 22 23  1  0
 13 24  1  0
 24 25  2  0
 25 26  1  0
  8 27  2  0
  2 28  1  0
 28 29  2  0
 29 30  1  0
 30 31  2  0
 31 32  1  0
 31 33  1  0
 33 34  2  0
 27  4  1  0
 34 28  1  0
 25 10  1  0
 22 17  1  0
  5 35  1  0
  6 36  1  0
  7 37  1  0
 11 38  1  0
 12 39  1  0
 18 40  1  0
 19 41  1  0
 20 42  1  0
 21 43  1  0
 24 44  1  0
 27 45  1  0
 29 46  1  0
 30 47  1  0
 33 48  1  0
 34 49  1  0
M  CHG  3   3  -1  14  -1  23  -1
M  END
>  <UniqueID>  (16) 
16

>  <SMILES>  (16) 
O=C([N-]c1cccc(Sc2ccc([N-]C(=O)c3ccccc3[O-])cc2Cl)c1)c1ccc(Cl)cc1

>  <Energy>  (16) 
65.15900379932262

>  <Genealogy>  (16) 
O=C([N-]c1cccc(Sc2ccc([N-]C(=O)c3ccccc3[O-])cc2Cl)c1)c1ccc(Cl)cc1 (protonated)
O=C([N-]c1cccc(Sc2ccc([N-]C(=O)c3ccccc3[O-])cc2Cl)c1)c1ccc(Cl)cc1 (3D coordinates assigned)
O=C([N-]c1cccc(Sc2ccc([N-]C(=O)c3ccccc3[O-])cc2Cl)c1)c1ccc(Cl)cc1 (optimized conformer: 65.15900379932262 kcal/mol)

>  <smiles>  (16) 
O=C(Nc1cccc(Sc2ccc(NC(=O)c3ccccc3O)cc2Cl)c1)c1ccc(Cl)cc1

>  <score_type>  (16) 
oracle

>  <origin>  (16) 
adg

>  <m_score__min__energy>  (16) 
-15.93

>  <m_primary>  (16) 
energy

$$$$
16:0
     RDKit          3D

 42 45  0  0  1  0  0  0  0  0999 V2000
   56.2640   21.5980   42.9010 N   0  0  0  0  0  0  0  0  0  0  0  0
   56.3950   22.6100   43.4710 C   0  0  0  0  0  0  0  0  0  0  0  0
   56.5700   23.8460   44.1690 C   0  0  0  0  0  0  0  0  0  0  0  0
   57.5480   24.7470   43.8120 C   0  0  0  0  0  0  0  0  0  0  0  0
   57.6600   25.9180   44.5290 C   0  0  0  0  0  0  0  0  0  0  0  0
   56.8130   26.1890   45.5860 C   0  0  0  0  0  0  0  0  0  0  0  0
   56.9340   27.3590   46.2930 O   0  0  0  0  0  0  0  0  0  0  0  0
   57.3230   28.5690   45.6940 C   0  0  0  0  0  0  0  0  0  0  0  0
   56.8240   28.8940   44.4790 N   0  0  0  0  0  0  0  0  0  0  0  0
   57.1570   30.0370   43.8520 C   0  0  0  0  0  0  0  0  0  0  0  0
   56.6380   30.3570   42.6090 C   0  0  0  0  0  0  0  0  0  0  0  0
   57.0620   31.5670   42.0720 C   0  0  0  0  0  0  0  0  0  0  0  0
   57.9430   32.3960   42.7310 C   0  0  0  0  0  0  0  0  0  0  0  0
   58.4070   32.0340   43.9220 N   0  0  0  0  0  0  0  0  0  0  0  0
   58.0390   30.8680   44.5140 C   0  0  0  0  0  0  0  0  0  0  0  0
   58.5440   30.5120   45.7700 C   0  0  0  0  0  0  0  0  0  0  0  0
   59.3580   31.3580   46.2980 N   0  0  0  0  0  0  0  0  0  0  0  0
   60.1870   30.9440   47.7360 S   0  0  0  0  0  0  0  0  0  0  0  0
   60.6650   29.5250   47.7690 O   0  0  0  0  0  0  0  0  0  0  0  0
   59.3360   31.3080   48.9130 O   0  0  0  0  0  0  0  0  0  0  0  0
   61.6490   31.9400   47.7600 C   0  0  0  0  0  0  0  0  0  0  0  0
   62.6620   31.6550   48.6480 C   0  0  0  0  0  0  0  0  0  0  0  0
   63.8280   32.3860   48.7230 C   0  0  0  0  0  0  0  0  0  0  0  0
   63.9660   33.4550   47.8530 C   0  0  0  0  0  0  0  0  0  0  0  0
   62.9690   33.7620   46.9550 C   0  0  0  0  0  0  0  0  0  0  0  0
   61.8050   33.0110   46.8990 C   0  0  0  0  0  0  0  0  0  0  0  0
   58.1830   29.3560   46.3630 N   0  0  0  0  0  0  0  0  0  0  0  0
   55.8200   25.2950   45.9640 C   0  0  0  0  0  0  0  0  0  0  0  0
   55.7320   24.1280   45.2260 C   0  0  0  0  0  0  0  0  0  0  0  0
   58.2259   24.5362   42.9717 H   0  0  0  0  0  0  0  0  0  0  0  0
   58.4358   26.6484   44.2556 H   0  0  0  0  0  0  0  0  0  0  0  0
   55.9353   29.6962   42.0803 H   0  0  0  0  0  0  0  0  0  0  0  0
   56.6808   31.8732   41.0866 H   0  0  0  0  0  0  0  0  0  0  0  0
   58.2586   33.3466   42.2763 H   0  0  0  0  0  0  0  0  0  0  0  0
   62.5344   30.8022   49.3309 H   0  0  0  0  0  0  0  0  0  0  0  0
   64.6176   32.1307   49.4450 H   0  0  0  0  0  0  0  0  0  0  0  0
   64.8813   34.0645   47.8800 H   0  0  0  0  0  0  0  0  0  0  0  0
   63.0976   34.6150   46.2724 H   0  0  0  0  0  0  0  0  0  0  0  0
   61.0141   33.2642   46.1776 H   0  0  0  0  0  0  0  0  0  0  0  0
   58.5800   29.1250   47.2990 H   0  0  0  0  0  0  0  0  0  0  0  0
   55.1408   25.5031   46.8039 H   0  0  0  0  0  0  0  0  0  0  0  0
   54.9591   23.3929   45.4948 H   0  0  0  0  0  0  0  0  0  0  0  0
  1  2  3  0
  2  3  1  0
  3  4  2  0
  4  5  1  0
  5  6  2  0
  6  7  1  0
  7  8  1  0
  8  9  2  0
  9 10  1  0
 10 11  2  0
 11 12  1  0
 12 13  2  0
 13 14  1  0
 14 15  2  0
 15 16  1  0
 16 17  2  0
 17 18  1  0
 18 19  2  0
 18 20  2  0
 18 21  1  0
 21 22  2  0
 22 23  1  0
 23 24  2  0
 24 25  1  0
 25 26  2  0
 16 27  1  0
  6 28  1  0
 28 29  2  0
 29  3  1  0
 27  8  1  0
 15 10  1  0
 26 21  1  0
  4 30  1  0
  5 31  1  0
 11 32  1  0
 12 33  1  0
 13 34  1  0
 22 35  1  0
 23 36  1  0
 24 37  1  0
 25 38  1  0
 26 39  1  0
 27 40  1  0
 28 41  1  0
 29 42  1  0
M  END
>  <smiles>  (17) 
N#Cc1ccc(Oc2nc3cccnc3c(=NS(=O)(=O)c3ccccc3)[nH]2)cc1

>  <score_type>  (17) 
oracle

>  <origin>  (17) 
adg

>  <m_score__min__energy>  (17) 
-9.8000000000000007

>  <m_primary>  (17) 
energy

$$$$
17:0
     RDKit          3D

 21 21  0  0  0  0  0  0  0  0999 V2000
   57.7400   32.2430   41.8580 C   0  0  0  0  0  0  0  0  0  0  0  0
   57.7600   32.0530   43.3130 N   0  0  0  0  0  0  0  0  0  0  0  0
   58.0540   33.1900   44.1920 C   0  0  0  0  0  0  0  0  0  0  0  0
   57.4940   30.7580   43.9010 C   0  0  0  0  0  0  0  0  0  0  0  0
   56.2910   30.5260   44.4950 N   0  0  0  0  0  0  0  0  0  0  0  0
   55.9950   29.3290   45.0600 C   0  0  0  0  0  0  0  0  0  0  0  0
   56.9370   28.2950   45.0430 C   0  0  0  0  0  0  0  0  0  0  0  0
   56.6570   26.9800   45.6460 C   0  0  0  0  0  0  0  0  0  0  0  0
   55.4890   26.6590   45.9920 O   0  0  0  0  0  0  0  0  0  0  0  0
   58.1680   28.5450   44.4320 C   0  0  0  0  0  0  0  0  0  0  0  0
   58.4270   29.7580   43.8760 N   0  0  0  0  0  0  0  0  0  0  0  0
   57.6274   33.3131   41.6295 H   0  0  0  0  0  0  0  0  0  0  0  0
   58.6820   31.8732   41.4269 H   0  0  0  0  0  0  0  0  0  0  0  0
   56.8956   31.6852   41.4269 H   0  0  0  0  0  0  0  0  0  0  0  0
   57.9719   32.8725   45.2420 H   0  0  0  0  0  0  0  0  0  0  0  0
   59.0748   33.5502   43.9966 H   0  0  0  0  0  0  0  0  0  0  0  0
   57.3357   33.9999   43.9966 H   0  0  0  0  0  0  0  0  0  0  0  0
   55.0139   29.1713   45.5317 H   0  0  0  0  0  0  0  0  0  0  0  0
   57.4811   26.2671   45.7965 H   0  0  0  0  0  0  0  0  0  0  0  0
   58.9328   27.7550   44.4006 H   0  0  0  0  0  0  0  0  0  0  0  0
   59.3610   29.8980   43.4310 H   0  0  0  0  0  0  0  0  0  0  0  0
  1  2  1  0
  2  3  1  0
  2  4  1  0
  4  5  2  0
  5  6  1  0
  6  7  2  0
  7  8  1  0
  8  9  2  0
  7 10  1  0
 10 11  2  0
 11  4  1  0
  1 12  1  0
  1 13  1  0
  1 14  1  0
  3 15  1  0
  3 16  1  0
  3 17  1  0
  6 18  1  0
  8 19  1  0
 10 20  1  0
 11 21  1  0
M  CHG  1  11   1
M  END
>  <UniqueID>  (18) 
17

>  <SMILES>  (18) 
CN(C)c1ncc(C=O)c[nH+]1

>  <Energy>  (18) 
18.042315513480872

>  <Genealogy>  (18) 
CN(C)c1ncc(C=O)c[nH+]1 (protonated)
CN(C)c1ncc(C=O)c[nH+]1 (3D coordinates assigned)
CN(C)c1ncc(C=O)c[nH+]1 (optimized conformer: 18.042315513480872 kcal/mol)

>  <smiles>  (18) 
CN(C)c1ncc(C=O)cn1

>  <score_type>  (18) 
oracle

>  <origin>  (18) 
adg

>  <m_score__min__energy>  (18) 
-2.8599999999999999

>  <m_primary>  (18) 
energy

$$$$
18:0
     RDKit          3D

 61 65  0  0  1  0  0  0  0  0999 V2000
   60.8530   28.3490   50.4160 O   0  0  0  0  0  0  0  0  0  0  0  0
   60.3830   28.3170   49.2210 C   0  0  0  0  0  0  0  0  0  0  0  0
   60.3030   26.9880   48.6170 C   0  0  0  0  0  0  0  0  0  0  0  0
   59.7810   26.8790   46.9360 S   0  0  0  0  0  0  0  0  0  0  0  0
   58.2440   26.0520   46.7050 C   0  0  0  0  0  0  0  0  0  0  0  0
   57.9550   24.7640   47.0900 C   0  0  0  0  0  0  0  0  0  0  0  0
   56.7720   24.1150   46.8850 C   0  0  0  0  0  0  0  0  0  0  0  0
   55.7440   24.7520   46.2420 C   0  0  0  0  0  0  0  0  0  0  0  0
   55.9750   26.0690   45.8240 C   0  0  0  0  0  0  0  0  0  0  0  0
   57.1750   26.7080   46.0410 C   0  0  0  0  0  0  0  0  0  0  0  0
   57.3680   28.1070   45.6180 C   0  0  0  0  0  0  0  0  0  0  0  0
   57.8580   29.0090   46.4860 N   0  0  0  0  0  0  0  0  0  0  0  0
   58.0240   30.2860   46.1210 C   0  0  0  0  0  0  0  0  0  0  0  0
   58.4840   31.1750   46.9090 O   0  0  0  0  0  0  0  0  0  0  0  0
   57.7030   30.7380   44.8520 C   0  0  0  0  0  0  0  0  0  0  0  0
   57.8660   32.0350   44.4600 C   0  0  0  0  0  0  0  0  0  0  0  0
   57.5180   32.4000   43.1560 C   0  0  0  0  0  0  0  0  0  0  0  0
   57.0120   31.4810   42.2520 C   0  0  0  0  0  0  0  0  0  0  0  0
   56.8500   30.1520   42.6680 C   0  0  0  0  0  0  0  0  0  0  0  0
   57.2060   29.8140   43.9760 C   0  0  0  0  0  0  0  0  0  0  0  0
   57.0600   28.5530   44.3910 N   0  0  0  0  0  0  0  0  0  0  0  0
   60.0020   29.5400   48.6280 N   0  0  0  0  0  0  0  0  0  0  0  0
   60.0790   30.8480   49.1540 C   0  0  0  0  0  0  0  0  0  0  0  0
   61.1690   31.7680   48.7200 C   0  0  2  0  0  0  0  0  0  0  0  0
   60.5410   32.8970   47.9320 C   0  0  0  0  0  0  0  0  0  0  0  0
   59.8420   33.9140   48.4870 C   0  0  0  0  0  0  0  0  0  0  0  0
   59.2900   34.9510   47.7170 C   0  0  0  0  0  0  0  0  0  0  0  0
   59.4580   34.9480   46.3510 C   0  0  0  0  0  0  0  0  0  0  0  0
   60.1730   33.9090   45.7870 C   0  0  0  0  0  0  0  0  0  0  0  0
   60.7080   32.8990   46.5510 C   0  0  0  0  0  0  0  0  0  0  0  0
   62.2780   31.2080   47.9080 C   0  0  0  0  0  0  0  0  0  0  0  0
   63.3290   32.2800   47.6300 C   0  0  0  0  0  0  0  0  0  0  0  0
   63.7100   33.0430   48.8100 C   0  0  0  0  0  0  0  0  0  0  0  0
   64.8980   33.4570   48.9400 O   0  0  0  0  0  0  0  0  0  0  0  0
   62.7260   33.2920   49.7680 O   0  0  0  0  0  0  0  0  0  0  0  0
   61.7620   32.3200   50.0190 C   0  0  0  0  0  0  0  0  0  0  0  0
   61.3050   26.5385   48.6792 H   0  0  0  0  0  0  0  0  0  0  0  0
   59.5153   26.4722   49.1857 H   0  0  0  0  0  0  0  0  0  0  0  0
   58.7483   24.2068   47.6098 H   0  0  0  0  0  0  0  0  0  0  0  0
   56.6441   23.0804   47.2361 H   0  0  0  0  0  0  0  0  0  0  0  0
   54.7808   24.2522   46.0620 H   0  0  0  0  0  0  0  0  0  0  0  0
   55.1706   26.6108   45.3050 H   0  0  0  0  0  0  0  0  0  0  0  0
   58.2657   32.7831   45.1604 H   0  0  0  0  0  0  0  0  0  0  0  0
   57.6497   33.4453   42.8396 H   0  0  0  0  0  0  0  0  0  0  0  0
   56.7431   31.7870   41.2302 H   0  0  0  0  0  0  0  0  0  0  0  0
   56.4514   29.3921   41.9797 H   0  0  0  0  0  0  0  0  0  0  0  0
   56.6750   27.8800   43.6740 H   0  0  0  0  0  0  0  0  0  0  0  0
   59.6290   29.4370   47.6310 H   0  0  0  0  0  0  0  0  0  0  0  0
   59.1288   31.3446   48.9079 H   0  0  0  0  0  0  0  0  0  0  0  0
   60.3033   30.6777   50.2173 H   0  0  0  0  0  0  0  0  0  0  0  0
   59.7013   33.9292   49.5779 H   0  0  0  0  0  0  0  0  0  0  0  0
   58.7265   35.7611   48.2031 H   0  0  0  0  0  0  0  0  0  0  0  0
   59.0355   35.7491   45.7267 H   0  0  0  0  0  0  0  0  0  0  0  0
   60.3182   33.8894   44.6968 H   0  0  0  0  0  0  0  0  0  0  0  0
   61.2715   32.0875   46.0673 H   0  0  0  0  0  0  0  0  0  0  0  0
   62.7448   30.3766   48.4566 H   0  0  0  0  0  0  0  0  0  0  0  0
   61.8728   30.8492   46.9504 H   0  0  0  0  0  0  0  0  0  0  0  0
   64.2278   31.7897   47.2278 H   0  0  0  0  0  0  0  0  0  0  0  0
   62.8848   32.9898   46.9166 H   0  0  0  0  0  0  0  0  0  0  0  0
   62.2246   31.4944   50.5797 H   0  0  0  0  0  0  0  0  0  0  0  0
   60.9499   32.7817   50.5998 H   0  0  0  0  0  0  0  0  0  0  0  0
  1  2  2  0
  2  3  1  0
  3  4  1  0
  4  5  1  0
  5  6  2  0
  6  7  1  0
  7  8  2  0
  8  9  1  0
  9 10  2  0
 10 11  1  0
 11 12  2  0
 12 13  1  0
 13 14  2  0
 13 15  1  0
 15 16  2  0
 16 17  1  0
 17 18  2  0
 18 19  1  0
 19 20  2  0
 20 21  1  0
  2 22  1  0
 22 23  1  0
 24 23  1  1
 24 25  1  0
 25 26  2  0
 26 27  1  0
 27 28  2  0
 28 29  1  0
 29 30  2  0
 24 31  1  0
 31 32  1  0
 32 33  1  0
 33 34  2  0
 33 35  1  0
 35 36  1  0
 10  5  1  0
 21 11  1  0
 36 24  1  0
 20 15  1  0
 30 25  1  0
  3 37  1  0
  3 38  1  0
  6 39  1  0
  7 40  1  0
  8 41  1  0
  9 42  1  0
 16 43  1  0
 17 44  1  0
 18 45  1  0
 19 46  1  0
 21 47  1  0
 22 48  1  0
 23 49  1  0
 23 50  1  0
 26 51  1  0
 27 52  1  0
 28 53  1  0
 29 54  1  0
 30 55  1  0
 31 56  1  0
 31 57  1  0
 32 58  1  0
 32 59  1  0
 36 60  1  0
 36 61  1  0
M  END
>  <smiles>  (19) 
O=C(CSc1ccccc1-c1nc(=O)c2ccccc2[nH]1)NCC1(c2ccccc2)CCC(=O)OC1

>  <score_type>  (19) 
oracle

>  <origin>  (19) 
adg

>  <m_score__min__energy>  (19) 
-10.51

>  <m_primary>  (19) 
energy

$$$$
19:0
     RDKit          3D

 63 66  0  0  0  0  0  0  0  0999 V2000
   64.0840   32.8890   48.8650 C   0  0  0  0  0  0  0  0  0  0  0  0
   62.8370   33.2580   48.0330 C   0  0  0  0  0  0  0  0  0  0  0  0
   62.0350   31.9620   47.7750 C   0  0  0  0  0  0  0  0  0  0  0  0
   63.2680   33.8460   46.6760 C   0  0  0  0  0  0  0  0  0  0  0  0
   61.9720   34.2740   48.7830 C   0  0  0  0  0  0  0  0  0  0  0  0
   62.4860   34.9600   49.7080 O   0  0  0  0  0  0  0  0  0  0  0  0
   60.5230   34.4390   48.5070 C   0  0  0  0  0  0  0  0  0  0  0  0
   59.7780   34.9330   49.3950 O   0  0  0  0  0  0  0  0  0  0  0  0
   59.9480   34.0580   47.2430 N   0  0  0  0  0  0  0  0  0  0  0  0
   60.1390   34.8460   46.0340 C   0  0  0  0  0  0  0  0  0  0  0  0
   59.3410   34.1450   44.9410 C   0  0  0  0  0  0  0  0  0  0  0  0
   58.3890   33.1940   45.6740 C   0  0  1  0  0  0  0  0  0  0  0  0
   58.1860   31.9310   44.9400 N   0  0  0  0  0  0  0  0  0  0  0  0
   57.5290   31.8830   43.6210 C   0  0  0  0  0  0  0  0  0  0  0  0
   56.5120   30.7310   43.5620 C   0  0  0  0  0  0  0  0  0  0  0  0
   57.1920   29.3850   43.8680 C   0  0  0  0  0  0  0  0  0  0  0  0
   58.0530   29.5050   45.0480 N   0  0  0  0  0  0  0  0  0  0  0  0
   58.5160   30.6670   45.5410 C   0  0  0  0  0  0  0  0  0  0  0  0
   59.2520   30.5180   46.6620 N   0  0  0  0  0  0  0  0  0  0  0  0
   59.2670   29.1810   46.8650 C   0  0  0  0  0  0  0  0  0  0  0  0
   60.0070   28.5620   47.9800 C   0  0  0  0  0  0  0  0  0  0  0  0
   60.6700   29.3550   48.9670 N   0  0  0  0  0  0  0  0  0  0  0  0
   60.0140   27.3080   48.0910 O   0  0  0  0  0  0  0  0  0  0  0  0
   58.5240   28.5480   45.8700 C   0  0  0  0  0  0  0  0  0  0  0  0
   58.1670   27.1160   45.7820 C   0  0  0  0  0  0  0  0  0  0  0  0
   59.1590   26.1420   45.6530 C   0  0  0  0  0  0  0  0  0  0  0  0
   58.8200   24.8320   45.5590 N   0  0  0  0  0  0  0  0  0  0  0  0
   57.5300   24.4040   45.5960 C   0  0  0  0  0  0  0  0  0  0  0  0
   57.3010   23.1370   45.4300 N   0  0  0  0  0  0  0  0  0  0  0  0
   56.4850   25.3520   45.7610 C   0  0  0  0  0  0  0  0  0  0  0  0
   55.0570   24.9810   45.9020 C   0  0  0  0  0  0  0  0  0  0  0  0
   54.0410   25.9560   45.6760 N   0  0  0  0  0  0  0  0  0  0  0  0
   54.7280   23.8240   46.2730 O   0  0  0  0  0  0  0  0  0  0  0  0
   56.8270   26.7120   45.8290 C   0  0  0  0  0  0  0  0  0  0  0  0
   58.9850   32.9820   47.0680 C   0  0  0  0  0  0  0  0  0  0  0  0
   63.8442   32.9600   49.9362 H   0  0  0  0  0  0  0  0  0  0  0  0
   64.3933   31.8608   48.6258 H   0  0  0  0  0  0  0  0  0  0  0  0
   64.9030   33.5833   48.6258 H   0  0  0  0  0  0  0  0  0  0  0  0
   61.7537   31.5074   48.7363 H   0  0  0  0  0  0  0  0  0  0  0  0
   61.1266   32.2008   47.2025 H   0  0  0  0  0  0  0  0  0  0  0  0
   62.6540   31.2556   47.2025 H   0  0  0  0  0  0  0  0  0  0  0  0
   63.9107   34.7228   46.8438 H   0  0  0  0  0  0  0  0  0  0  0  0
   63.8249   33.0866   46.1076 H   0  0  0  0  0  0  0  0  0  0  0  0
   62.3762   34.1485   46.1076 H   0  0  0  0  0  0  0  0  0  0  0  0
   59.7649   35.8697   46.1827 H   0  0  0  0  0  0  0  0  0  0  0  0
   61.2037   34.9216   45.7680 H   0  0  0  0  0  0  0  0  0  0  0  0
   58.7723   34.8781   44.3502 H   0  0  0  0  0  0  0  0  0  0  0  0
   59.9956   33.6064   44.2399 H   0  0  0  0  0  0  0  0  0  0  0  0
   57.3804   33.6264   45.7496 H   0  0  0  0  0  0  0  0  0  0  0  0
   57.0072   32.8348   43.4426 H   0  0  0  0  0  0  0  0  0  0  0  0
   58.2957   31.7178   42.8498 H   0  0  0  0  0  0  0  0  0  0  0  0
   55.7195   30.9113   44.3033 H   0  0  0  0  0  0  0  0  0  0  0  0
   56.0862   30.6884   42.5486 H   0  0  0  0  0  0  0  0  0  0  0  0
   56.4207   28.6240   44.0578 H   0  0  0  0  0  0  0  0  0  0  0  0
   57.8077   29.0916   43.0050 H   0  0  0  0  0  0  0  0  0  0  0  0
   61.2210   28.8930   49.7230 H   0  0  0  0  0  0  0  0  0  0  0  0
   60.5370   30.3880   49.0120 H   0  0  0  0  0  0  0  0  0  0  0  0
   60.2182   26.4378   45.6275 H   0  0  0  0  0  0  0  0  0  0  0  0
   56.3830   22.6690   45.5810 H   0  0  0  0  0  0  0  0  0  0  0  0
   53.8650   26.7190   46.3670 H   0  0  0  0  0  0  0  0  0  0  0  0
   56.0337   27.4685   45.9202 H   0  0  0  0  0  0  0  0  0  0  0  0
   58.1992   33.0399   47.8356 H   0  0  0  0  0  0  0  0  0  0  0  0
   59.4546   31.9922   47.1664 H   0  0  0  0  0  0  0  0  0  0  0  0
  1  2  1  0
  2  3  1  0
  2  4  1  0
  2  5  1  0
  5  6  2  0
  5  7  1  0
  7  8  2  0
  7  9  1  0
  9 10  1  0
 10 11  1  0
 11 12  1  0
 12 13  1  0
 13 14  1  0
 14 15  1  0
 15 16  1  0
 16 17  1  0
 17 18  1  0
 18 19  2  0
 19 20  1  0
 20 21  1  0
 21 22  1  0
 21 23  2  0
 20 24  2  0
 24 25  1  0
 25 26  2  0
 26 27  1  0
 27 28  1  0
 28 29  2  3
 28 30  1  0
 30 31  1  0
 31 32  1  0
 31 33  2  0
 30 34  2  0
 12 35  1  0
 35  9  1  0
 18 13  1  0
 34 25  1  0
 24 17  1  0
  1 36  1  0
  1 37  1  0
  1 38  1  0
  3 39  1  0
  3 40  1  0
  3 41  1  0
  4 42  1  0
  4 43  1  0
  4 44  1  0
 10 45  1  0
 10 46  1  0
 11 47  1  0
 11 48  1  0
 12 49  1  1
 14 50  1  0
 14 51  1  0
 15 52  1  0
 15 53  1  0
 16 54  1  0
 16 55  1  0
 22 56  1  0
 22 57  1  0
 26 58  1  0
 29 59  1  0
 32 60  1  0
 34 61  1  0
 35 62  1  0
 35 63  1  0
M  CHG  2  27  -1  32  -1
M  END
>  <UniqueID>  (20) 
18

>  <SMILES>  (20) 
CC(C)(C)C(=O)C(=O)N1CC[C@@H](N2CCCn3c2nc(C(N)=O)c3-c2c[n-]c(=N)c(C([NH-])=O)c2)C1

>  <Energy>  (20) 
109.99994180599548

>  <Genealogy>  (20) 
CC(C)(C)C(=O)C(=O)N1CCC(N2CCCn3c2nc(C(N)=O)c3-c2c[n-]c(=N)c(C([NH-])=O)c2)C1 (protonated)
CC(C)(C)C(=O)C(=O)N1CC[C@@H](N2CCCn3c2nc(C(N)=O)c3-c2c[n-]c(=N)c(C([NH-])=O)c2)C1 (chirality)
CC(C)(C)C(=O)C(=O)N1CC[C@@H](N2CCCn3c2nc(C(N)=O)c3-c2c[n-]c(=N)c(C([NH-])=O)c2)C1 (3D coordinates assigned)
CC(C)(C)C(=O)C(=O)N1CC[C@@H](N2CCCn3c2nc(C(N)=O)c3-c2c[n-]c(=N)c(C([NH-])=O)c2)C1 (nonaromatic ring conformer: 109.99994180599548 kcal/mol)

>  <smiles>  (20) 
CC(C)(C)C(=O)C(=O)N1CCC(N2CCCn3c2nc(C(N)=O)c3-c2c[nH]c(=N)c(C(N)=O)c2)C1

>  <score_type>  (20) 
oracle

>  <origin>  (20) 
adg

>  <m_score__min__energy>  (20) 
-13.949999999999999

>  <m_primary>  (20) 
energy

$$$$
20:0
     RDKit          3D

 39 41  0  0  0  0  0  0  0  0999 V2000
   55.1310   26.7130   46.0430 O   0  0  0  0  0  0  0  0  0  0  0  0
   55.9490   25.7640   46.1660 C   0  0  0  0  0  0  0  0  0  0  0  0
   57.4000   26.0700   46.4010 C   0  0  0  0  0  0  0  0  0  0  0  0
   57.9340   26.8420   45.2860 N   0  0  0  0  0  0  0  0  0  0  0  0
   58.8530   27.9290   45.4440 C   0  0  0  0  0  0  0  0  0  0  0  0
   60.0790   27.6830   45.5870 O   0  0  0  0  0  0  0  0  0  0  0  0
   58.3910   29.3310   45.4500 C   0  0  0  0  0  0  0  0  0  0  0  0
   57.0510   29.6510   45.1410 C   0  0  0  0  0  0  0  0  0  0  0  0
   56.1180   28.6680   44.8130 O   0  0  0  0  0  0  0  0  0  0  0  0
   56.6490   30.9490   45.1470 N   0  0  0  0  0  0  0  0  0  0  0  0
   57.4930   31.9710   45.4390 C   0  0  0  0  0  0  0  0  0  0  0  0
   57.0230   33.2890   45.4230 C   0  0  0  0  0  0  0  0  0  0  0  0
   57.8870   34.3460   45.7200 C   0  0  0  0  0  0  0  0  0  0  0  0
   59.2240   34.0910   46.0370 C   0  0  0  0  0  0  0  0  0  0  0  0
   59.7040   32.7780   46.0580 C   0  0  0  0  0  0  0  0  0  0  0  0
   58.8430   31.7060   45.7580 C   0  0  0  0  0  0  0  0  0  0  0  0
   59.2860   30.3690   45.7700 C   0  0  0  0  0  0  0  0  0  0  0  0
   60.4810   30.0980   46.0740 O   0  0  0  0  0  0  0  0  0  0  0  0
   55.4610   24.4160   46.1050 N   0  0  0  0  0  0  0  0  0  0  0  0
   55.9290   23.3780   45.2300 C   0  0  0  0  0  0  0  0  0  0  0  0
   55.9330   23.5810   43.8380 C   0  0  0  0  0  0  0  0  0  0  0  0
   56.3540   22.5730   42.9730 C   0  0  0  0  0  0  0  0  0  0  0  0
   56.7570   21.3410   43.4820 C   0  0  0  0  0  0  0  0  0  0  0  0
   56.7320   21.1100   44.8580 C   0  0  0  0  0  0  0  0  0  0  0  0
   56.3140   22.1160   45.7520 C   0  0  0  0  0  0  0  0  0  0  0  0
   56.3060   21.8280   47.2120 C   0  0  0  0  0  0  0  0  0  0  0  0
   57.3860   21.8130   47.8620 O   0  0  0  0  0  0  0  0  0  0  0  0
   55.1210   21.5790   47.8940 O   0  0  0  0  0  0  0  0  0  0  0  0
   57.5040   26.6511   47.3292 H   0  0  0  0  0  0  0  0  0  0  0  0
   57.9586   25.1263   46.4869 H   0  0  0  0  0  0  0  0  0  0  0  0
   56.3750   27.7100   44.6120 H   0  0  0  0  0  0  0  0  0  0  0  0
   55.9707   33.4933   45.1760 H   0  0  0  0  0  0  0  0  0  0  0  0
   57.5142   35.3808   45.7043 H   0  0  0  0  0  0  0  0  0  0  0  0
   59.9009   34.9260   46.2707 H   0  0  0  0  0  0  0  0  0  0  0  0
   60.7569   32.5825   46.3095 H   0  0  0  0  0  0  0  0  0  0  0  0
   55.6002   24.5459   43.4280 H   0  0  0  0  0  0  0  0  0  0  0  0
   56.3680   22.7505   41.8875 H   0  0  0  0  0  0  0  0  0  0  0  0
   57.0956   20.5486   42.7983 H   0  0  0  0  0  0  0  0  0  0  0  0
   57.0425   20.1302   45.2498 H   0  0  0  0  0  0  0  0  0  0  0  0
  1  2  2  0
  2  3  1  0
  3  4  1  0
  4  5  1  0
  5  6  2  0
  5  7  1  0
  7  8  2  0
  8  9  1  0
  8 10  1  0
 10 11  1  0
 11 12  2  0
 12 13  1  0
 13 14  2  0
 14 15  1  0
 15 16  2  0
 16 17  1  0
 17 18  2  0
  2 19  1  0
 19 20  1  0
 20 21  2  0
 21 22  1  0
 22 23  2  0
 23 24  1  0
 24 25  2  0
 25 26  1  0
 26 27  2  0
 26 28  1  0
 17  7  1  0
 25 20  1  0
 16 11  1  0
  3 29  1  0
  3 30  1  0
  9 31  1  0
 12 32  1  0
 13 33  1  0
 14 34  1  0
 15 35  1  0
 21 36  1  0
 22 37  1  0
 23 38  1  0
 24 39  1  0
M  CHG  4   4  -1  10  -1  19  -1  28  -1
M  END
>  <UniqueID>  (21) 
19

>  <SMILES>  (21) 
O=C(C[N-]C(=O)c1c(O)[n-]c2ccccc2c1=O)[N-]c1ccccc1C(=O)[O-]

>  <Energy>  (21) 
59.76763251581574

>  <Genealogy>  (21) 
O=C(C[N-]C(=O)c1c(O)[n-]c2ccccc2c1=O)[N-]c1ccccc1C(=O)[O-] (protonated)
O=C(C[N-]C(=O)c1c(O)[n-]c2ccccc2c1=O)[N-]c1ccccc1C(=O)[O-] (3D coordinates assigned)
O=C(C[N-]C(=O)c1c(O)[n-]c2ccccc2c1=O)[N-]c1ccccc1C(=O)[O-] (optimized conformer: 59.76763251581574 kcal/mol)

>  <smiles>  (21) 
O=C(CNC(=O)c1c(O)[nH]c2ccccc2c1=O)Nc1ccccc1C(=O)O

>  <score_type>  (21) 
oracle

>  <origin>  (21) 
adg

>  <m_score__min__energy>  (21) 
-14.93

>  <m_primary>  (21) 
energy

$$$$
21:0
     RDKit          3D

 47 49  0  0  0  0  0  0  0  0999 V2000
   65.0600   32.7050   49.7690 C   0  0  0  0  0  0  0  0  0  0  0  0
   64.1860   33.5940   50.4560 O   0  0  0  0  0  0  0  0  0  0  0  0
   62.8070   33.3790   50.5440 C   0  0  0  0  0  0  0  0  0  0  0  0
   62.2180   33.2050   51.7940 C   0  0  0  0  0  0  0  0  0  0  0  0
   60.8340   33.0100   51.8650 C   0  0  0  0  0  0  0  0  0  0  0  0
   60.1700   32.8000   53.1930 C   0  0  0  0  0  0  0  0  0  0  0  0
   60.1010   32.9590   50.7170 N   0  0  0  0  0  0  0  0  0  0  0  0
   60.6950   33.1140   49.4970 C   0  0  0  0  0  0  0  0  0  0  0  0
   59.9170   33.0720   48.2860 N   0  0  0  0  0  0  0  0  0  0  0  0
   58.4500   33.0630   48.3810 C   0  0  0  0  0  0  0  0  0  0  0  0
   57.7860   33.0640   46.9960 C   0  0  0  0  0  0  0  0  0  0  0  0
   58.4590   32.1210   46.0860 N   0  0  0  0  0  0  0  0  0  0  0  0
   57.6800   31.4280   45.0850 C   0  0  0  0  0  0  0  0  0  0  0  0
   56.5190   31.8360   44.8020 O   0  0  0  0  0  0  0  0  0  0  0  0
   58.2090   30.2230   44.3500 C   0  0  0  0  0  0  0  0  0  0  0  0
   57.9420   28.9690   45.1430 C   0  0  0  0  0  0  0  0  0  0  0  0
   59.0020   28.2960   45.7770 C   0  0  0  0  0  0  0  0  0  0  0  0
   58.7640   27.1110   46.4810 C   0  0  0  0  0  0  0  0  0  0  0  0
   57.4700   26.5870   46.5540 C   0  0  0  0  0  0  0  0  0  0  0  0
   56.4100   27.2430   45.9200 C   0  0  0  0  0  0  0  0  0  0  0  0
   55.1270   26.7120   45.9900 O   0  0  0  0  0  0  0  0  0  0  0  0
   56.6430   28.4310   45.2130 C   0  0  0  0  0  0  0  0  0  0  0  0
   55.6070   29.0520   44.5920 F   0  0  0  0  0  0  0  0  0  0  0  0
   59.9300   32.0480   46.0660 C   0  0  0  0  0  0  0  0  0  0  0  0
   60.5570   33.1130   46.9670 C   0  0  0  0  0  0  0  0  0  0  0  0
   62.0350   33.3350   49.4260 N   0  0  0  0  0  0  0  0  0  0  0  0
   65.6360   32.1191   50.5003 H   0  0  0  0  0  0  0  0  0  0  0  0
   64.4692   32.0248   49.1379 H   0  0  0  0  0  0  0  0  0  0  0  0
   65.7501   33.2841   49.1379 H   0  0  0  0  0  0  0  0  0  0  0  0
   62.8292   33.2206   52.7084 H   0  0  0  0  0  0  0  0  0  0  0  0
   60.8833   33.0256   53.9994 H   0  0  0  0  0  0  0  0  0  0  0  0
   59.2990   33.4665   53.2769 H   0  0  0  0  0  0  0  0  0  0  0  0
   59.8406   31.7538   53.2769 H   0  0  0  0  0  0  0  0  0  0  0  0
   59.0660   32.8350   50.7810 H   0  0  0  0  0  0  0  0  0  0  0  0
   58.1345   32.1610   48.9259 H   0  0  0  0  0  0  0  0  0  0  0  0
   58.1372   33.9756   48.9095 H   0  0  0  0  0  0  0  0  0  0  0  0
   56.7314   32.7700   47.1027 H   0  0  0  0  0  0  0  0  0  0  0  0
   57.8635   34.0758   46.5714 H   0  0  0  0  0  0  0  0  0  0  0  0
   57.7114   30.1469   43.3719 H   0  0  0  0  0  0  0  0  0  0  0  0
   59.2945   30.3354   44.2122 H   0  0  0  0  0  0  0  0  0  0  0  0
   60.0222   28.7032   45.7189 H   0  0  0  0  0  0  0  0  0  0  0  0
   59.5961   26.5907   46.9779 H   0  0  0  0  0  0  0  0  0  0  0  0
   57.2852   25.6568   47.1113 H   0  0  0  0  0  0  0  0  0  0  0  0
   60.2432   31.0536   46.4169 H   0  0  0  0  0  0  0  0  0  0  0  0
   60.2701   32.2248   45.0349 H   0  0  0  0  0  0  0  0  0  0  0  0
   61.6337   32.9151   47.0750 H   0  0  0  0  0  0  0  0  0  0  0  0
   60.4114   34.1067   46.5182 H   0  0  0  0  0  0  0  0  0  0  0  0
  1  2  1  0
  2  3  1  0
  3  4  2  0
  4  5  1  0
  5  6  1  0
  5  7  2  0
  7  8  1  0
  8  9  1  0
  9 10  1  0
 10 11  1  0
 11 12  1  0
 12 13  1  0
 13 14  2  0
 13 15  1  0
 15 16  1  0
 16 17  2  0
 17 18  1  0
 18 19  2  0
 19 20  1  0
 20 21  1  0
 20 22  2  0
 22 23  1  0
 12 24  1  0
 24 25  1  0
  8 26  2  0
 26  3  1  0
 25  9  1  0
 22 16  1  0
  1 27  1  0
  1 28  1  0
  1 29  1  0
  4 30  1  0
  6 31  1  0
  6 32  1  0
  6 33  1  0
  7 34  1  0
 10 35  1  0
 10 36  1  0
 11 37  1  0
 11 38  1  0
 15 39  1  0
 15 40  1  0
 17 41  1  0
 18 42  1  0
 19 43  1  0
 24 44  1  0
 24 45  1  0
 25 46  1  0
 25 47  1  0
M  CHG  2   7   1  21  -1
M  END
>  <UniqueID>  (22) 
20

>  <SMILES>  (22) 
COc1cc(C)[nH+]c(N2CCN(C(=O)Cc3cccc([O-])c3F)CC2)n1

>  <Energy>  (22) 
49.3396504586745

>  <Genealogy>  (22) 
COc1cc(C)[nH+]c(N2CCN(C(=O)Cc3cccc([O-])c3F)CC2)n1 (protonated)
COc1cc(C)[nH+]c(N2CCN(C(=O)Cc3cccc([O-])c3F)CC2)n1 (3D coordinates assigned)
COc1cc(C)[nH+]c(N2CCN(C(=O)Cc3cccc([O-])c3F)CC2)n1 (nonaromatic ring conformer: 49.3396504586745 kcal/mol)

>  <smiles>  (22) 
COc1cc(C)nc(N2CCN(C(=O)Cc3cccc(O)c3F)CC2)n1

>  <score_type>  (22) 
oracle

>  <origin>  (22) 
adg

>  <m_score__min__energy>  (22) 
-9.7599999999999998

>  <m_primary>  (22) 
energy

$$$$
22:0
     RDKit          3D

 33 34  0  0  0  0  0  0  0  0999 V2000
   57.3776   23.6871   47.6126 H   0  0  0  0  0  0  0  0  0  0  0  0
   57.1000   24.6600   47.1810 C   0  0  0  0  0  0  0  0  0  0  0  0
   55.8980   24.8120   46.5720 N   0  0  0  0  0  0  0  0  0  0  0  0
   55.5310   25.9880   46.0020 C   0  0  0  0  0  0  0  0  0  0  0  0
   54.5480   26.0747   45.5160 H   0  0  0  0  0  0  0  0  0  0  0  0
   56.3940   27.0940   46.0270 C   0  0  0  0  0  0  0  0  0  0  0  0
   56.0660   28.2230   45.2110 N   0  0  0  0  0  0  0  0  0  0  0  0
   55.9610   29.1750   45.6240 H   0  0  0  0  0  0  0  0  0  0  0  0
   56.1400   28.1620   44.1710 H   0  0  0  0  0  0  0  0  0  0  0  0
   57.6240   26.9840   46.7380 C   0  0  0  0  0  0  0  0  0  0  0  0
   58.4350   27.9830   46.9760 N   0  0  0  0  0  0  0  0  0  0  0  0
   59.1840   28.7880   46.0540 C   0  0  0  0  0  0  0  0  0  0  0  0
   59.6720   28.2380   45.0320 O   0  0  0  0  0  0  0  0  0  0  0  0
   59.4580   30.2270   46.3060 C   0  0  0  0  0  0  0  0  0  0  0  0
   60.6970   30.5960   46.8640 C   0  0  0  0  0  0  0  0  0  0  0  0
   61.4189   29.8173   47.1514 H   0  0  0  0  0  0  0  0  0  0  0  0
   61.0180   31.9430   47.0560 C   0  0  0  0  0  0  0  0  0  0  0  0
   61.9919   32.2201   47.4857 H   0  0  0  0  0  0  0  0  0  0  0  0
   60.1040   32.9360   46.7030 C   0  0  0  0  0  0  0  0  0  0  0  0
   60.3630   33.9958   46.8435 H   0  0  0  0  0  0  0  0  0  0  0  0
   58.8620   32.5870   46.1720 C   0  0  0  0  0  0  0  0  0  0  0  0
   58.1446   33.3742   45.8970 H   0  0  0  0  0  0  0  0  0  0  0  0
   58.5230   31.2420   45.9870 C   0  0  0  0  0  0  0  0  0  0  0  0
   57.2110   30.9270   45.5200 N   0  0  0  0  0  0  0  0  0  0  0  0
   56.9250   30.4800   43.8730 S   0  0  0  0  0  0  0  0  0  0  0  0
   55.4660   30.1740   43.6860 O   0  0  0  0  0  0  0  0  0  0  0  0
   57.7390   29.2670   43.5210 O   0  0  0  0  0  0  0  0  0  0  0  0
   57.3970   31.8200   42.8040 C   0  0  0  0  0  0  0  0  0  0  0  0
   57.7015   32.6845   43.4122 H   0  0  0  0  0  0  0  0  0  0  0  0
   58.2379   31.5039   42.1692 H   0  0  0  0  0  0  0  0  0  0  0  0
   56.5436   32.1007   42.1692 H   0  0  0  0  0  0  0  0  0  0  0  0
   57.9840   25.7340   47.2610 C   0  0  0  0  0  0  0  0  0  0  0  0
   58.9672   25.6008   47.7359 H   0  0  0  0  0  0  0  0  0  0  0  0
  1  2  1  0
  2  3  1  0
  3  4  1  0
  4  5  1  0
  4  6  2  0
  6  7  1  0
  7  8  1  0
  7  9  1  0
  6 10  1  0
 10 11  2  0
 11 12  1  0
 12 13  2  0
 12 14  1  0
 14 15  2  0
 15 16  1  0
 15 17  1  0
 17 18  1  0
 17 19  2  0
 19 20  1  0
 19 21  1  0
 21 22  1  0
 21 23  2  0
 23 24  1  0
 24 25  1  0
 25 26  2  0
 25 27  2  0
 25 28  1  0
 28 29  1  0
 28 30  1  0
 28 31  1  0
 10 32  1  0
 32 33  1  0
 32  2  2  0
 23 14  1  0
M  CHG  2   3  -1  24  -1
M  END
>  <UniqueID>  (23) 
21

>  <SMILES>  (23) 
CS(=O)(=O)[N-]c1ccccc1C(=O)/N=c1/cc[n-]cc1N

>  <Energy>  (23) 
58.22235187775398

>  <Genealogy>  (23) 
CS(=O)(=O)[N-]c1ccccc1C(=O)N=c1cc[n-]cc1N (protonated)
CS(=O)(=O)[N-]c1ccccc1C(=O)/N=c1/cc[n-]cc1N (cis-trans isomerization)
CS(=O)(=O)[N-]c1ccccc1C(=O)/N=c1/cc[n-]cc1N (3D coordinates assigned)
CS(=O)(=O)[N-]c1ccccc1C(=O)/N=c1/cc[n-]cc1N (optimized conformer: 58.22235187775398 kcal/mol)

>  <smiles>  (23) 
CS(=O)(=O)Nc1ccccc1C(=O)N=c1cc[nH]cc1N

>  <score_type>  (23) 
oracle

>  <origin>  (23) 
adg

>  <m_score__min__energy>  (23) 
-10.109999999999999

>  <m_primary>  (23) 
energy

$$$$
23:0
     RDKit          3D

 58 61  0  0  0  0  0  0  0  0999 V2000
   60.4784   29.2339   43.7755 H   0  0  0  0  0  0  0  0  0  0  0  0
   59.7530   28.8720   44.5190 C   0  0  0  0  0  0  0  0  0  0  0  0
   59.6910   29.4710   45.7780 C   0  0  0  0  0  0  0  0  0  0  0  0
   60.3676   30.3028   46.0237 H   0  0  0  0  0  0  0  0  0  0  0  0
   58.7660   29.0140   46.7330 C   0  0  0  0  0  0  0  0  0  0  0  0
   58.6790   29.5730   48.0160 O   0  0  0  0  0  0  0  0  0  0  0  0
   59.7290   30.2480   48.6520 C   0  0  0  0  0  0  0  0  0  0  0  0
   60.5950   29.5730   49.5370 C   0  0  0  0  0  0  0  0  0  0  0  0
   60.4200   28.1080   49.8290 C   0  0  0  0  0  0  0  0  0  0  0  0
   60.4012   27.9508   50.9175 H   0  0  0  0  0  0  0  0  0  0  0  0
   59.4736   27.7574   49.3915 H   0  0  0  0  0  0  0  0  0  0  0  0
   61.2572   27.5444   49.3915 H   0  0  0  0  0  0  0  0  0  0  0  0
   61.6160   30.2880   50.1800 C   0  0  0  0  0  0  0  0  0  0  0  0
   62.2756   29.7722   50.8934 H   0  0  0  0  0  0  0  0  0  0  0  0
   61.8040   31.6480   49.9240 C   0  0  0  0  0  0  0  0  0  0  0  0
   62.6122   32.1944   50.4321 H   0  0  0  0  0  0  0  0  0  0  0  0
   60.9640   32.3220   49.0190 C   0  0  0  0  0  0  0  0  0  0  0  0
   61.1050   33.6950   48.7180 C   0  0  0  0  0  0  0  0  0  0  0  0
   62.1760   34.5470   49.3370 C   0  0  0  0  0  0  0  0  0  0  0  0
   62.1030   34.4889   50.4330 H   0  0  0  0  0  0  0  0  0  0  0  0
   63.1638   34.1852   49.0156 H   0  0  0  0  0  0  0  0  0  0  0  0
   62.0455   35.5909   49.0156 H   0  0  0  0  0  0  0  0  0  0  0  0
   60.2440   34.2760   47.8420 N   0  0  0  0  0  0  0  0  0  0  0  0
   59.2480   33.5740   47.2440 C   0  0  0  0  0  0  0  0  0  0  0  0
   58.4480   34.1780   46.4180 N   0  0  0  0  0  0  0  0  0  0  0  0
   58.6350   34.1980   44.9700 C   0  0  0  0  0  0  0  0  0  0  0  0
   59.7096   34.2431   44.7394 H   0  0  0  0  0  0  0  0  0  0  0  0
   58.1326   35.0804   44.5469 H   0  0  0  0  0  0  0  0  0  0  0  0
   58.0470   32.9530   44.3740 C   0  0  0  0  0  0  0  0  0  0  0  0
   57.3400   32.0470   45.1800 C   0  0  0  0  0  0  0  0  0  0  0  0
   57.2379   32.2382   46.2584 H   0  0  0  0  0  0  0  0  0  0  0  0
   56.7650   30.9030   44.6190 C   0  0  0  0  0  0  0  0  0  0  0  0
   56.2306   30.1879   45.2617 H   0  0  0  0  0  0  0  0  0  0  0  0
   56.8660   30.6620   43.2400 C   0  0  0  0  0  0  0  0  0  0  0  0
   56.2830   29.4150   42.6450 C   0  0  0  0  0  0  0  0  0  0  0  0
   55.9662   28.7374   43.4515 H   0  0  0  0  0  0  0  0  0  0  0  0
   55.4140   29.6769   42.0235 H   0  0  0  0  0  0  0  0  0  0  0  0
   57.0412   28.9161   42.0235 H   0  0  0  0  0  0  0  0  0  0  0  0
   57.5740   31.5670   42.4340 C   0  0  0  0  0  0  0  0  0  0  0  0
   57.6756   31.3756   41.3556 H   0  0  0  0  0  0  0  0  0  0  0  0
   58.1510   32.7110   42.9950 C   0  0  0  0  0  0  0  0  0  0  0  0
   58.6886   33.4242   42.3529 H   0  0  0  0  0  0  0  0  0  0  0  0
   59.0980   32.2510   47.5180 N   0  0  0  0  0  0  0  0  0  0  0  0
   59.9250   31.6090   48.3830 C   0  0  0  0  0  0  0  0  0  0  0  0
   57.9160   27.9500   46.4100 C   0  0  0  0  0  0  0  0  0  0  0  0
   57.2020   27.5792   47.1602 H   0  0  0  0  0  0  0  0  0  0  0  0
   57.9620   27.3480   45.1390 C   0  0  0  0  0  0  0  0  0  0  0  0
   57.0980   26.2510   44.7940 N   0  0  0  0  0  0  0  0  0  0  0  0
   56.9840   25.9890   43.7890 H   0  0  0  0  0  0  0  0  0  0  0  0
   56.0510   25.4550   45.9260 S   0  0  0  0  0  0  0  0  0  0  0  0
   56.6910   25.4870   47.2860 O   0  0  0  0  0  0  0  0  0  0  0  0
   54.7300   26.1680   45.9960 O   0  0  0  0  0  0  0  0  0  0  0  0
   55.8140   23.7540   45.4530 C   0  0  0  0  0  0  0  0  0  0  0  0
   55.7272   23.1311   46.3555 H   0  0  0  0  0  0  0  0  0  0  0  0
   54.8947   23.6642   44.8557 H   0  0  0  0  0  0  0  0  0  0  0  0
   56.6738   23.4163   44.8557 H   0  0  0  0  0  0  0  0  0  0  0  0
   58.8980   27.8150   44.1990 C   0  0  0  0  0  0  0  0  0  0  0  0
   58.9750   27.2550   42.9660 F   0  0  0  0  0  0  0  0  0  0  0  0
  1  2  1  0
  2  3  2  0
  3  4  1  0
  3  5  1  0
  5  6  1  0
  6  7  1  0
  7  8  2  0
  8  9  1  0
  9 10  1  0
  9 11  1  0
  9 12  1  0
  8 13  1  0
 13 14  1  0
 13 15  2  0
 15 16  1  0
 15 17  1  0
 17 18  2  0
 18 19  1  0
 19 20  1  0
 19 21  1  0
 19 22  1  0
 18 23  1  0
 23 24  1  0
 24 25  2  0
 25 26  1  0
 26 27  1  0
 26 28  1  0
 26 29  1  0
 29 30  2  0
 30 31  1  0
 30 32  1  0
 32 33  1  0
 32 34  2  0
 34 35  1  0
 35 36  1  0
 35 37  1  0
 35 38  1  0
 34 39  1  0
 39 40  1  0
 39 41  2  0
 41 42  1  0
 24 43  1  0
 43 44  2  0
  5 45  2  0
 45 46  1  0
 45 47  1  0
 47 48  1  0
 48 49  1  0
 48 50  1  0
 50 51  2  0
 50 52  2  0
 50 53  1  0
 53 54  1  0
 53 55  1  0
 53 56  1  0
 47 57  2  0
 57 58  1  0
 57  2  1  0
 44  7  1  0
 44 17  1  0
 41 29  1  0
M  CHG  1  23  -1
M  END
>  <UniqueID>  (24) 
22

>  <SMILES>  (24) 
Cc1ccc(C/N=c2\nc3c(Oc4ccc(F)c(NS(C)(=O)=O)c4)c(C)ccc3c(C)[n-]2)cc1

>  <Energy>  (24) 
70.88757740435585

>  <Genealogy>  (24) 
Cc1ccc(CN=c2nc3c(Oc4ccc(F)c(NS(C)(=O)=O)c4)c(C)ccc3c(C)[n-]2)cc1 (protonated)
Cc1ccc(C/N=c2\nc3c(Oc4ccc(F)c(NS(C)(=O)=O)c4)c(C)ccc3c(C)[n-]2)cc1 (cis-trans isomerization)
Cc1ccc(C/N=c2\nc3c(Oc4ccc(F)c(NS(C)(=O)=O)c4)c(C)ccc3c(C)[n-]2)cc1 (3D coordinates assigned)
Cc1ccc(C/N=c2\nc3c(Oc4ccc(F)c(NS(C)(=O)=O)c4)c(C)ccc3c(C)[n-]2)cc1 (optimized conformer: 70.88757740435585 kcal/mol)

>  <smiles>  (24) 
Cc1ccc(CN=c2nc3c(Oc4ccc(F)c(NS(C)(=O)=O)c4)c(C)ccc3c(C)[nH]2)cc1

>  <score_type>  (24) 
oracle

>  <origin>  (24) 
adg

>  <m_score__min__energy>  (24) 
-11.300000000000001

>  <m_primary>  (24) 
energy

$$$$
24:0
     RDKit          3D

 49 51  0  0  0  0  0  0  0  0999 V2000
   56.4100   24.2520   44.7580 C   0  0  0  0  0  0  0  0  0  0  0  0
   55.9530   25.1040   46.2540 S   0  0  0  0  0  0  0  0  0  0  0  0
   55.5790   24.1200   47.3250 O   0  0  0  0  0  0  0  0  0  0  0  0
   54.7620   25.9710   45.9640 O   0  0  0  0  0  0  0  0  0  0  0  0
   57.2590   26.1110   46.7980 N   0  0  0  0  0  0  0  0  0  0  0  0
   57.7900   27.2310   46.0670 C   0  0  0  0  0  0  0  0  0  0  0  0
   59.1200   27.6220   46.2930 C   0  0  0  0  0  0  0  0  0  0  0  0
   59.6640   28.7180   45.6190 C   0  0  0  0  0  0  0  0  0  0  0  0
   58.8890   29.4370   44.7090 C   0  0  0  0  0  0  0  0  0  0  0  0
   57.5630   29.0560   44.4570 C   0  0  0  0  0  0  0  0  0  0  0  0
   56.7070   29.8610   43.5170 C   0  0  0  0  0  0  0  0  0  0  0  0
   57.0630   31.3180   43.6190 C   0  0  0  0  0  0  0  0  0  0  0  0
   57.5480   31.9070   42.6180 O   0  0  0  0  0  0  0  0  0  0  0  0
   56.9880   32.0120   44.8710 N   0  0  0  0  0  0  0  0  0  0  0  0
   57.8430   32.8770   45.3390 C   0  0  0  0  0  0  0  0  0  0  0  0
   58.4870   32.7110   46.5820 C   0  0  0  0  0  0  0  0  0  0  0  0
   59.3790   33.6920   47.0390 C   0  0  0  0  0  0  0  0  0  0  0  0
   60.0410   33.5490   48.3820 C   0  0  0  0  0  0  0  0  0  0  0  0
   61.4270   33.1160   48.2180 N   0  0  0  0  0  0  0  0  0  0  0  0
   61.8440   32.0210   47.3590 C   0  0  0  0  0  0  0  0  0  0  0  0
   63.3840   32.0010   47.4100 C   0  0  0  0  0  0  0  0  0  0  0  0
   63.8320   33.2660   48.1590 C   0  0  0  0  0  0  0  0  0  0  0  0
   62.5630   33.8430   48.6430 C   0  0  0  0  0  0  0  0  0  0  0  0
   62.4930   34.8820   49.3520 O   0  0  0  0  0  0  0  0  0  0  0  0
   59.5970   34.8370   46.2610 C   0  0  0  0  0  0  0  0  0  0  0  0
   58.9380   34.9710   45.0400 C   0  0  0  0  0  0  0  0  0  0  0  0
   58.0840   34.0040   44.6150 N   0  0  0  0  0  0  0  0  0  0  0  0
   57.0160   27.9570   45.1410 C   0  0  0  0  0  0  0  0  0  0  0  0
   56.9158   23.3090   45.0130 H   0  0  0  0  0  0  0  0  0  0  0  0
   55.5067   24.0359   44.1686 H   0  0  0  0  0  0  0  0  0  0  0  0
   57.0897   24.8849   44.1686 H   0  0  0  0  0  0  0  0  0  0  0  0
   57.6870   25.8630   47.7180 H   0  0  0  0  0  0  0  0  0  0  0  0
   59.7391   27.0598   47.0076 H   0  0  0  0  0  0  0  0  0  0  0  0
   60.7065   29.0149   45.8064 H   0  0  0  0  0  0  0  0  0  0  0  0
   59.3189   30.3050   44.1877 H   0  0  0  0  0  0  0  0  0  0  0  0
   56.8744   29.5163   42.4859 H   0  0  0  0  0  0  0  0  0  0  0  0
   55.6491   29.7276   43.7874 H   0  0  0  0  0  0  0  0  0  0  0  0
   58.2908   31.8160   47.1907 H   0  0  0  0  0  0  0  0  0  0  0  0
   60.0223   34.5185   48.9014 H   0  0  0  0  0  0  0  0  0  0  0  0
   59.4973   32.7963   48.9718 H   0  0  0  0  0  0  0  0  0  0  0  0
   61.4373   31.0686   47.7298 H   0  0  0  0  0  0  0  0  0  0  0  0
   61.4775   32.1548   46.3305 H   0  0  0  0  0  0  0  0  0  0  0  0
   63.7315   31.1043   47.9440 H   0  0  0  0  0  0  0  0  0  0  0  0
   63.8074   31.9785   46.3950 H   0  0  0  0  0  0  0  0  0  0  0  0
   64.4950   33.0121   48.9992 H   0  0  0  0  0  0  0  0  0  0  0  0
   64.4060   33.9594   47.5267 H   0  0  0  0  0  0  0  0  0  0  0  0
   60.2822   35.6232   46.6108 H   0  0  0  0  0  0  0  0  0  0  0  0
   59.1100   35.8624   44.4189 H   0  0  0  0  0  0  0  0  0  0  0  0
   55.9737   27.6610   44.9514 H   0  0  0  0  0  0  0  0  0  0  0  0
  1  2  1  0
  2  3  2  0
  2  4  2  0
  2  5  1  0
  5  6  1  0
  6  7  2  0
  7  8  1  0
  8  9  2  0
  9 10  1  0
 10 11  1  0
 11 12  1  0
 12 13  2  0
 12 14  1  0
 14 15  2  3
 15 16  1  0
 16 17  2  0
 17 18  1  0
 18 19  1  0
 19 20  1  0
 20 21  1  0
 21 22  1  0
 22 23  1  0
 23 24  2  0
 17 25  1  0
 25 26  2  0
 26 27  1  0
 10 28  2  0
 28  6  1  0
 27 15  1  0
 23 19  1  0
  1 29  1  0
  1 30  1  0
  1 31  1  0
  5 32  1  0
  7 33  1  0
  8 34  1  0
  9 35  1  0
 11 36  1  0
 11 37  1  0
 16 38  1  0
 18 39  1  0
 18 40  1  0
 20 41  1  0
 20 42  1  0
 21 43  1  0
 21 44  1  0
 22 45  1  0
 22 46  1  0
 25 47  1  0
 26 48  1  0
 28 49  1  0
M  CHG  1  27  -1
M  END
>  <UniqueID>  (25) 
23

>  <SMILES>  (25) 
CS(=O)(=O)Nc1cccc(CC(=O)N=c2cc(CN3CCCC3=O)cc[n-]2)c1

>  <Energy>  (25) 
60.76835806135565

>  <Genealogy>  (25) 
CS(=O)(=O)Nc1cccc(CC(=O)N=c2cc(CN3CCCC3=O)cc[n-]2)c1 (protonated)
CS(=O)(=O)Nc1cccc(CC(=O)N=c2cc(CN3CCCC3=O)cc[n-]2)c1 (3D coordinates assigned)
CS(=O)(=O)Nc1cccc(CC(=O)N=c2cc(CN3CCCC3=O)cc[n-]2)c1 (nonaromatic ring conformer: 60.76835806135565 kcal/mol)

>  <smiles>  (25) 
CS(=O)(=O)Nc1cccc(CC(=O)N=c2cc(CN3CCCC3=O)cc[nH]2)c1

>  <score_type>  (25) 
oracle

>  <origin>  (25) 
adg

>  <m_score__min__energy>  (25) 
-11.119999999999999

>  <m_primary>  (25) 
energy

$$$$
25:0
     RDKit          3D

 53 55  0  0  0  0  0  0  0  0999 V2000
   58.2630   27.5780   43.4280 O   0  0  0  0  0  0  0  0  0  0  0  0
   57.3670   28.3590   43.8480 C   0  0  0  0  0  0  0  0  0  0  0  0
   57.0580   29.6070   43.0790 C   0  0  0  0  0  0  0  0  0  0  0  0
   56.1430   30.5290   43.8950 C   0  0  0  0  0  0  0  0  0  0  0  0
   56.6870   30.7490   45.2340 N   0  0  0  0  0  0  0  0  0  0  0  0
   57.7360   31.6760   45.5520 C   0  0  0  0  0  0  0  0  0  0  0  0
   57.5720   32.8970   45.2860 O   0  0  0  0  0  0  0  0  0  0  0  0
   58.9820   31.2470   46.2150 C   0  0  0  0  0  0  0  0  0  0  0  0
   59.1450   29.9220   46.6460 C   0  0  0  0  0  0  0  0  0  0  0  0
   60.3130   29.5250   47.3180 C   0  0  0  0  0  0  0  0  0  0  0  0
   60.4600   28.1700   47.7830 N   0  0  0  0  0  0  0  0  0  0  0  0
   60.1980   27.8700   48.9660 O   0  0  0  0  0  0  0  0  0  0  0  0
   60.8660   27.1760   46.9220 O   0  0  0  0  0  0  0  0  0  0  0  0
   61.3310   30.4710   47.5340 C   0  0  0  0  0  0  0  0  0  0  0  0
   61.1860   31.7890   47.0820 C   0  0  0  0  0  0  0  0  0  0  0  0
   62.4600   32.9780   47.3370 S   0  0  0  0  0  0  0  0  0  0  0  0
   62.2310   34.1750   46.4550 O   0  0  0  0  0  0  0  0  0  0  0  0
   63.7760   32.3490   46.9720 O   0  0  0  0  0  0  0  0  0  0  0  0
   62.4620   33.4550   49.0220 N   0  0  0  0  0  0  0  0  0  0  0  0
   62.1830   32.3120   49.9200 C   0  0  0  0  0  0  0  0  0  0  0  0
   60.7200   32.2730   50.3970 C   0  0  0  0  0  0  0  0  0  0  0  0
   59.8660   32.7860   49.4000 O   0  0  0  0  0  0  0  0  0  0  0  0
   60.0690   34.1800   49.2520 C   0  0  0  0  0  0  0  0  0  0  0  0
   61.5600   34.5960   49.2660 C   0  0  0  0  0  0  0  0  0  0  0  0
   60.0160   32.1710   46.4150 C   0  0  0  0  0  0  0  0  0  0  0  0
   56.7040   28.1170   45.0990 N   0  0  0  0  0  0  0  0  0  0  0  0
   56.8730   26.9330   45.8970 C   0  0  0  0  0  0  0  0  0  0  0  0
   58.0090   26.8130   46.7130 C   0  0  0  0  0  0  0  0  0  0  0  0
   58.1880   25.6850   47.5170 C   0  0  0  0  0  0  0  0  0  0  0  0
   57.2250   24.6720   47.5270 C   0  0  0  0  0  0  0  0  0  0  0  0
   57.4000   23.5800   48.3110 F   0  0  0  0  0  0  0  0  0  0  0  0
   56.0760   24.7920   46.7370 C   0  0  0  0  0  0  0  0  0  0  0  0
   55.1300   23.8210   46.7630 F   0  0  0  0  0  0  0  0  0  0  0  0
   55.8960   25.9210   45.9310 C   0  0  0  0  0  0  0  0  0  0  0  0
   57.9963   30.1352   42.8541 H   0  0  0  0  0  0  0  0  0  0  0  0
   56.5445   29.3317   42.1460 H   0  0  0  0  0  0  0  0  0  0  0  0
   56.0532   31.4963   43.3790 H   0  0  0  0  0  0  0  0  0  0  0  0
   55.1563   30.0520   43.9897 H   0  0  0  0  0  0  0  0  0  0  0  0
   58.3498   29.1861   46.4557 H   0  0  0  0  0  0  0  0  0  0  0  0
   62.2488   30.1735   48.0623 H   0  0  0  0  0  0  0  0  0  0  0  0
   62.4018   31.3790   49.3800 H   0  0  0  0  0  0  0  0  0  0  0  0
   62.8191   32.4265   50.8101 H   0  0  0  0  0  0  0  0  0  0  0  0
   60.4376   31.2328   50.6165 H   0  0  0  0  0  0  0  0  0  0  0  0
   60.6227   32.8893   51.3029 H   0  0  0  0  0  0  0  0  0  0  0  0
   59.6293   34.4953   48.2943 H   0  0  0  0  0  0  0  0  0  0  0  0
   59.5907   34.6681   50.1140 H   0  0  0  0  0  0  0  0  0  0  0  0
   61.7241   35.3504   48.4825 H   0  0  0  0  0  0  0  0  0  0  0  0
   61.7879   34.9975   50.2645 H   0  0  0  0  0  0  0  0  0  0  0  0
   59.9079   33.2017   46.0461 H   0  0  0  0  0  0  0  0  0  0  0  0
   56.1340   28.8940   45.5020 H   0  0  0  0  0  0  0  0  0  0  0  0
   58.7637   27.6132   46.7192 H   0  0  0  0  0  0  0  0  0  0  0  0
   59.0879   25.5938   48.1430 H   0  0  0  0  0  0  0  0  0  0  0  0
   54.9860   26.0182   45.3207 H   0  0  0  0  0  0  0  0  0  0  0  0
  1  2  2  0
  2  3  1  0
  3  4  1  0
  4  5  1  0
  5  6  1  0
  6  7  2  0
  6  8  1  0
  8  9  2  0
  9 10  1  0
 10 11  1  0
 11 12  2  0
 11 13  1  0
 10 14  2  0
 14 15  1  0
 15 16  1  0
 16 17  2  0
 16 18  2  0
 16 19  1  0
 19 20  1  0
 20 21  1  0
 21 22  1  0
 22 23  1  0
 23 24  1  0
 15 25  2  0
  2 26  1  0
 26 27  1  0
 27 28  2  0
 28 29  1  0
 29 30  2  0
 30 31  1  0
 30 32  1  0
 32 33  1  0
 32 34  2  0
 25  8  1  0
 34 27  1  0
 24 19  1  0
  3 35  1  0
  3 36  1  0
  4 37  1  0
  4 38  1  0
  9 39  1  0
 14 40  1  0
 20 41  1  0
 20 42  1  0
 21 43  1  0
 21 44  1  0
 23 45  1  0
 23 46  1  0
 24 47  1  0
 24 48  1  0
 25 49  1  0
 26 50  1  0
 28 51  1  0
 29 52  1  0
 34 53  1  0
M  CHG  3   5  -1  11   1  13  -1
M  END
>  <UniqueID>  (26) 
24

>  <SMILES>  (26) 
O=C(CC[N-]C(=O)c1cc([N+](=O)[O-])cc(S(=O)(=O)N2CCOCC2)c1)Nc1ccc(F)c(F)c1

>  <Energy>  (26) 
68.91265260323047

>  <Genealogy>  (26) 
O=C(CC[N-]C(=O)c1cc([N+](=O)[O-])cc(S(=O)(=O)N2CCOCC2)c1)Nc1ccc(F)c(F)c1 (protonated)
O=C(CC[N-]C(=O)c1cc([N+](=O)[O-])cc(S(=O)(=O)N2CCOCC2)c1)Nc1ccc(F)c(F)c1 (3D coordinates assigned)
O=C(CC[N-]C(=O)c1cc([N+](=O)[O-])cc(S(=O)(=O)N2CCOCC2)c1)Nc1ccc(F)c(F)c1 (nonaromatic ring conformer: 68.91265260323047 kcal/mol)

>  <smiles>  (26) 
O=C(CCNC(=O)c1cc([N+](=O)[O-])cc(S(=O)(=O)N2CCOCC2)c1)Nc1ccc(F)c(F)c1

>  <score_type>  (26) 
oracle

>  <origin>  (26) 
adg

>  <m_score__min__energy>  (26) 
-9.6699999999999999

>  <m_primary>  (26) 
energy

$$$$
26:0
     RDKit          3D

 54 57  0  0  0  0  0  0  0  0999 V2000
   57.7840   32.6390   52.4100 C   0  0  0  0  0  0  0  0  0  0  0  0
   58.1310   32.6970   51.0320 O   0  0  0  0  0  0  0  0  0  0  0  0
   58.2240   31.5560   50.2290 C   0  0  0  0  0  0  0  0  0  0  0  0
   57.7680   30.4550   50.6450 O   0  0  0  0  0  0  0  0  0  0  0  0
   58.9090   31.6450   48.9160 C   0  0  0  0  0  0  0  0  0  0  0  0
   60.0350   30.9300   48.6030 C   0  0  0  0  0  0  0  0  0  0  0  0
   60.5210   29.8160   49.4480 C   0  0  0  0  0  0  0  0  0  0  0  0
   61.3110   30.0630   50.5770 C   0  0  0  0  0  0  0  0  0  0  0  0
   61.7730   28.9910   51.3420 C   0  0  0  0  0  0  0  0  0  0  0  0
   61.4690   27.6730   50.9660 C   0  0  0  0  0  0  0  0  0  0  0  0
   61.9190   26.5090   51.8110 C   0  0  0  0  0  0  0  0  0  0  0  0
   62.6770   25.6260   51.0630 F   0  0  0  0  0  0  0  0  0  0  0  0
   60.8280   25.8220   52.3160 F   0  0  0  0  0  0  0  0  0  0  0  0
   62.6820   26.9790   52.8640 F   0  0  0  0  0  0  0  0  0  0  0  0
   60.6590   27.4710   49.8380 C   0  0  0  0  0  0  0  0  0  0  0  0
   60.2200   28.5310   49.1100 N   0  0  0  0  0  0  0  0  0  0  0  0
   60.7480   31.1430   47.2620 C   0  0  0  0  0  0  0  0  0  0  0  0
   60.1280   32.2990   46.4390 C   0  0  2  0  0  0  0  0  0  0  0  0
   60.4650   33.6570   47.0750 C   0  0  0  0  0  0  0  0  0  0  0  0
   59.3010   33.9360   48.0340 C   0  0  0  0  0  0  0  0  0  0  0  0
   58.4160   32.6930   47.9260 C   0  0  1  0  0  0  0  0  0  0  0  0
   58.6880   32.2000   46.5880 N   0  0  0  0  0  0  0  0  0  0  0  0
   57.8300   31.2720   45.8960 C   0  0  0  0  0  0  0  0  0  0  0  0
   57.1500   31.6760   44.9130 O   0  0  0  0  0  0  0  0  0  0  0  0
   57.7400   29.8970   46.3050 N   0  0  0  0  0  0  0  0  0  0  0  0
   56.9320   28.9200   45.5790 C   0  0  0  0  0  0  0  0  0  0  0  0
   57.4060   27.5210   45.8820 C   0  0  0  0  0  0  0  0  0  0  0  0
   58.7810   27.2520   45.9950 C   0  0  0  0  0  0  0  0  0  0  0  0
   59.2250   25.9610   46.2970 C   0  0  0  0  0  0  0  0  0  0  0  0
   58.3020   24.9300   46.4900 C   0  0  0  0  0  0  0  0  0  0  0  0
   56.9330   25.1880   46.3850 C   0  0  0  0  0  0  0  0  0  0  0  0
   56.4810   26.4780   46.0840 C   0  0  0  0  0  0  0  0  0  0  0  0
   55.1140   26.7170   45.9890 O   0  0  0  0  0  0  0  0  0  0  0  0
   58.6856   32.7897   53.0218 H   0  0  0  0  0  0  0  0  0  0  0  0
   57.0509   33.4271   52.6370 H   0  0  0  0  0  0  0  0  0  0  0  0
   57.3470   31.6554   52.6370 H   0  0  0  0  0  0  0  0  0  0  0  0
   61.5659   31.0951   50.8593 H   0  0  0  0  0  0  0  0  0  0  0  0
   62.3769   29.1793   52.2419 H   0  0  0  0  0  0  0  0  0  0  0  0
   60.3781   26.4496   49.5417 H   0  0  0  0  0  0  0  0  0  0  0  0
   61.8051   31.3763   47.4574 H   0  0  0  0  0  0  0  0  0  0  0  0
   60.6401   30.2189   46.6751 H   0  0  0  0  0  0  0  0  0  0  0  0
   60.4959   32.2310   45.4046 H   0  0  0  0  0  0  0  0  0  0  0  0
   61.4163   33.6028   47.6247 H   0  0  0  0  0  0  0  0  0  0  0  0
   60.5849   34.4509   46.3231 H   0  0  0  0  0  0  0  0  0  0  0  0
   59.6667   34.0657   49.0633 H   0  0  0  0  0  0  0  0  0  0  0  0
   58.7604   34.8600   47.7811 H   0  0  0  0  0  0  0  0  0  0  0  0
   57.3541   32.9024   48.1222 H   0  0  0  0  0  0  0  0  0  0  0  0
   58.2420   29.5700   47.1580 H   0  0  0  0  0  0  0  0  0  0  0  0
   55.8799   29.0208   45.8839 H   0  0  0  0  0  0  0  0  0  0  0  0
   57.0306   29.1054   44.4992 H   0  0  0  0  0  0  0  0  0  0  0  0
   59.5112   28.0609   45.8451 H   0  0  0  0  0  0  0  0  0  0  0  0
   60.3025   25.7568   46.3828 H   0  0  0  0  0  0  0  0  0  0  0  0
   58.6535   23.9145   46.7248 H   0  0  0  0  0  0  0  0  0  0  0  0
   56.2083   24.3750   46.5393 H   0  0  0  0  0  0  0  0  0  0  0  0
  1  2  1  0
  2  3  1  0
  3  4  2  0
  3  5  1  0
  5  6  2  0
  6  7  1  0
  7  8  2  0
  8  9  1  0
  9 10  2  0
 10 11  1  0
 11 12  1  0
 11 13  1  0
 11 14  1  0
 10 15  1  0
 15 16  2  0
  6 17  1  0
 17 18  1  0
 18 19  1  0
 19 20  1  0
 20 21  1  0
 21 22  1  0
 22 23  1  0
 23 24  2  0
 23 25  1  0
 25 26  1  0
 26 27  1  0
 27 28  2  0
 28 29  1  0
 29 30  2  0
 30 31  1  0
 31 32  2  0
 32 33  1  0
 21  5  1  0
 32 27  1  0
 16  7  1  0
 22 18  1  0
  1 34  1  0
  1 35  1  0
  1 36  1  0
  8 37  1  0
  9 38  1  0
 15 39  1  0
 17 40  1  0
 17 41  1  0
 18 42  1  6
 19 43  1  0
 19 44  1  0
 20 45  1  0
 20 46  1  0
 21 47  1  6
 25 48  1  0
 26 49  1  0
 26 50  1  0
 28 51  1  0
 29 52  1  0
 30 53  1  0
 31 54  1  0
M  CHG  1  33  -1
M  END
>  <UniqueID>  (27) 
25

>  <SMILES>  (27) 
COC(=O)C1=C(c2ccc(C(F)(F)F)cn2)C[C@@H]2CC[C@H]1N2C(=O)NCc1ccccc1[O-]

>  <Energy>  (27) 
81.11876986753722

>  <Genealogy>  (27) 
COC(=O)C1=C(c2ccc(C(F)(F)F)cn2)CC2CCC1N2C(=O)NCc1ccccc1[O-] (protonated)
COC(=O)C1=C(c2ccc(C(F)(F)F)cn2)C[C@@H]2CC[C@H]1N2C(=O)NCc1ccccc1[O-] (chirality)
COC(=O)C1=C(c2ccc(C(F)(F)F)cn2)C[C@@H]2CC[C@H]1N2C(=O)NCc1ccccc1[O-] (3D coordinates assigned)
COC(=O)C1=C(c2ccc(C(F)(F)F)cn2)C[C@@H]2CC[C@H]1N2C(=O)NCc1ccccc1[O-] (nonaromatic ring conformer: 81.11876986753722 kcal/mol)

>  <smiles>  (27) 
COC(=O)C1=C(c2ccc(C(F)(F)F)cn2)CC2CCC1N2C(=O)NCc1ccccc1O

>  <score_type>  (27) 
oracle

>  <origin>  (27) 
adg

>  <m_score__min__energy>  (27) 
-12.33

>  <m_primary>  (27) 
energy

$$$$
27:0
     RDKit          3D

 36 38  0  0  0  0  0  0  0  0999 V2000
   55.3130   31.6450   52.3350 C   0  0  0  0  0  0  0  0  0  0  0  0
   54.9750   30.3930   52.6790 C   0  0  0  0  0  0  0  0  0  0  0  0
   55.8470   29.3060   52.7980 C   0  0  0  0  0  0  0  0  0  0  0  0
   57.1700   29.2840   52.5400 C   0  0  0  0  0  0  0  0  0  0  0  0
   57.9700   30.5010   52.2770 C   0  0  0  0  0  0  0  0  0  0  0  0
   58.2620   31.4260   53.2950 C   0  0  0  0  0  0  0  0  0  0  0  0
   57.8070   31.2180   54.5940 O   0  0  0  0  0  0  0  0  0  0  0  0
   58.9810   32.5430   53.0080 N   0  0  0  0  0  0  0  0  0  0  0  0
   59.4090   32.7970   51.7450 C   0  0  0  0  0  0  0  0  0  0  0  0
   60.0760   33.8360   51.5050 O   0  0  0  0  0  0  0  0  0  0  0  0
   59.1130   31.9340   50.7400 N   0  0  0  0  0  0  0  0  0  0  0  0
   58.4000   30.8020   50.9750 C   0  0  0  0  0  0  0  0  0  0  0  0
   58.1410   30.0260   50.0160 O   0  0  0  0  0  0  0  0  0  0  0  0
   55.0750   28.2270   53.2050 C   0  0  0  0  0  0  0  0  0  0  0  0
   53.7810   28.6920   53.3270 C   0  0  0  0  0  0  0  0  0  0  0  0
   52.6150   27.8500   53.7510 C   0  0  0  0  0  0  0  0  0  0  0  0
   53.7120   30.0020   52.9930 N   0  0  0  0  0  0  0  0  0  0  0  0
   52.5070   30.8420   53.0440 C   0  0  0  0  0  0  0  0  0  0  0  0
   51.9560   31.0310   51.6660 C   0  0  0  0  0  0  0  0  0  0  0  0
   52.0310   30.1250   50.7110 O   0  0  0  0  0  0  0  0  0  0  0  0
   51.4510   30.6130   49.6350 C   0  0  0  0  0  0  0  0  0  0  0  0
   51.3420   29.9290   48.4310 O   0  0  0  0  0  0  0  0  0  0  0  0
   50.9800   31.8810   49.8820 C   0  0  0  0  0  0  0  0  0  0  0  0
   50.3120   32.7140   48.9940 O   0  0  0  0  0  0  0  0  0  0  0  0
   51.3040   32.1530   51.1860 C   0  0  0  0  0  0  0  0  0  0  0  0
   51.0300   33.3230   51.8810 O   0  0  0  0  0  0  0  0  0  0  0  0
   54.5406   32.4256   52.2721 H   0  0  0  0  0  0  0  0  0  0  0  0
   56.3625   31.8908   52.1159 H   0  0  0  0  0  0  0  0  0  0  0  0
   57.6817   28.3104   52.5241 H   0  0  0  0  0  0  0  0  0  0  0  0
   57.7950   30.2890   54.9990 H   0  0  0  0  0  0  0  0  0  0  0  0
   55.4257   27.2016   53.3935 H   0  0  0  0  0  0  0  0  0  0  0  0
   52.5676   27.8158   54.8494 H   0  0  0  0  0  0  0  0  0  0  0  0
   51.6852   28.2864   53.3573 H   0  0  0  0  0  0  0  0  0  0  0  0
   52.7368   26.8301   53.3573 H   0  0  0  0  0  0  0  0  0  0  0  0
   51.7496   30.3545   53.6754 H   0  0  0  0  0  0  0  0  0  0  0  0
   52.7688   31.8236   53.4658 H   0  0  0  0  0  0  0  0  0  0  0  0
  1  2  2  0
  2  3  1  0
  3  4  2  3
  4  5  1  0
  5  6  2  0
  6  7  1  0
  6  8  1  0
  8  9  1  0
  9 10  2  0
  9 11  1  0
 11 12  1  0
 12 13  2  0
  3 14  1  0
 14 15  2  0
 15 16  1  0
 15 17  1  0
 17 18  1  0
 18 19  1  0
 19 20  1  0
 20 21  1  0
 21 22  1  0
 21 23  2  0
 23 24  1  0
 23 25  1  0
 25 26  1  0
 17  2  1  0
 25 19  2  0
 12  5  1  0
  1 27  1  0
  1 28  1  0
  4 29  1  0
  7 30  1  0
 14 31  1  0
 16 32  1  0
 16 33  1  0
 16 34  1  0
 18 35  1  0
 18 36  1  0
M  CHG  5   8  -1  11  -1  22  -1  24  -1  26  -1
M  END
>  <UniqueID>  (28) 
26

>  <SMILES>  (28) 
C=c1c(=Cc2c(O)[n-]c(=O)[n-]c2=O)cc(C)n1Cc1oc([O-])c([O-])c1[O-]

>  <Energy>  (28) 
106.29297468419787

>  <Genealogy>  (28) 
C=c1c(=Cc2c(O)[n-]c(=O)[n-]c2=O)cc(C)n1Cc1oc([O-])c([O-])c1[O-] (protonated)
C=c1c(=Cc2c(O)[n-]c(=O)[n-]c2=O)cc(C)n1Cc1oc([O-])c([O-])c1[O-] (3D coordinates assigned)
C=c1c(=Cc2c(O)[n-]c(=O)[n-]c2=O)cc(C)n1Cc1oc([O-])c([O-])c1[O-] (optimized conformer: 106.29297468419787 kcal/mol)

>  <smiles>  (28) 
C=c1c(=Cc2c(O)[nH]c(=O)[nH]c2=O)cc(C)n1Cc1oc(O)c(O)c1O

>  <score_type>  (28) 
oracle

>  <origin>  (28) 
adg

>  <m_score__min__energy>  (28) 
-17.690000000000001

>  <m_primary>  (28) 
energy

$$$$
28:0
     RDKit          3D

 59 63  0  0  0  0  0  0  0  0999 V2000
   51.2490   30.0050   48.3010 O   0  0  0  0  0  0  0  0  0  0  0  0
   51.3910   30.5780   49.4130 C   0  0  0  0  0  0  0  0  0  0  0  0
   50.9080   31.8140   49.6630 N   0  0  0  0  0  0  0  0  0  0  0  0
   51.2850   32.0250   50.9350 C   0  0  0  0  0  0  0  0  0  0  0  0
   51.0190   33.1940   51.6370 O   0  0  0  0  0  0  0  0  0  0  0  0
   51.9650   30.9320   51.4190 C   0  0  0  0  0  0  0  0  0  0  0  0
   52.6130   30.7980   52.7620 C   0  0  0  0  0  0  0  0  0  0  0  0
   54.0880   30.5450   52.6010 C   0  0  0  0  0  0  0  0  0  0  0  0
   54.6280   29.2790   52.8760 C   0  0  0  0  0  0  0  0  0  0  0  0
   55.9910   29.0380   52.6850 C   0  0  0  0  0  0  0  0  0  0  0  0
   56.8260   30.0540   52.2000 C   0  0  0  0  0  0  0  0  0  0  0  0
   58.2120   29.7830   51.9410 N   0  0  0  0  0  0  0  0  0  0  0  0
   59.2160   30.3270   52.8630 C   0  0  0  0  0  0  0  0  0  0  0  0
   59.1030   31.8270   52.9450 C   0  0  0  0  0  0  0  0  0  0  0  0
   59.0670   32.5990   51.7730 C   0  0  0  0  0  0  0  0  0  0  0  0
   58.9210   33.9900   51.8460 C   0  0  0  0  0  0  0  0  0  0  0  0
   58.8140   34.6180   53.0890 C   0  0  0  0  0  0  0  0  0  0  0  0
   58.8480   33.8560   54.2600 C   0  0  0  0  0  0  0  0  0  0  0  0
   58.9880   32.4660   54.1920 C   0  0  0  0  0  0  0  0  0  0  0  0
   58.6030   29.3310   50.5980 C   0  0  0  0  0  0  0  0  0  0  0  0
   59.7470   30.1880   50.0030 C   0  0  1  0  0  0  0  0  0  0  0  0
   60.8770   29.3500   49.3760 C   0  0  0  0  0  0  0  0  0  0  0  0
   60.3920   28.5350   48.1710 C   0  0  0  0  0  0  0  0  0  0  0  0
   59.5260   29.3320   47.2270 C   0  0  0  0  0  0  0  0  0  0  0  0
   59.2510   28.8000   45.9560 C   0  0  0  0  0  0  0  0  0  0  0  0
   58.3890   29.4650   45.0800 C   0  0  0  0  0  0  0  0  0  0  0  0
   57.7950   30.6690   45.4620 C   0  0  0  0  0  0  0  0  0  0  0  0
   56.9410   31.3290   44.5850 O   0  0  0  0  0  0  0  0  0  0  0  0
   58.0570   31.2090   46.7240 C   0  0  0  0  0  0  0  0  0  0  0  0
   58.9030   30.5400   47.6250 C   0  0  0  0  0  0  0  0  0  0  0  0
   59.2090   31.1850   48.9590 C   0  0  0  0  0  0  0  0  0  0  0  0
   56.2880   31.3130   51.9120 C   0  0  0  0  0  0  0  0  0  0  0  0
   54.9280   31.5630   52.1200 C   0  0  0  0  0  0  0  0  0  0  0  0
   52.0460   30.0050   50.4470 N   0  0  0  0  0  0  0  0  0  0  0  0
   52.4631   31.7264   53.3326 H   0  0  0  0  0  0  0  0  0  0  0  0
   52.1588   29.9519   53.2984 H   0  0  0  0  0  0  0  0  0  0  0  0
   53.9755   28.4732   53.2434 H   0  0  0  0  0  0  0  0  0  0  0  0
   56.4102   28.0476   52.9160 H   0  0  0  0  0  0  0  0  0  0  0  0
   59.0586   29.8974   53.8633 H   0  0  0  0  0  0  0  0  0  0  0  0
   60.2177   30.0667   52.4904 H   0  0  0  0  0  0  0  0  0  0  0  0
   59.1539   32.1088   50.7921 H   0  0  0  0  0  0  0  0  0  0  0  0
   58.8906   34.5885   50.9236 H   0  0  0  0  0  0  0  0  0  0  0  0
   58.7031   35.7109   53.1461 H   0  0  0  0  0  0  0  0  0  0  0  0
   58.7644   34.3512   55.2387 H   0  0  0  0  0  0  0  0  0  0  0  0
   59.0082   31.8710   55.1170 H   0  0  0  0  0  0  0  0  0  0  0  0
   58.9389   28.2854   50.6599 H   0  0  0  0  0  0  0  0  0  0  0  0
   57.7277   29.4317   49.9394 H   0  0  0  0  0  0  0  0  0  0  0  0
   60.1778   30.7354   50.8543 H   0  0  0  0  0  0  0  0  0  0  0  0
   61.6792   30.0267   49.0465 H   0  0  0  0  0  0  0  0  0  0  0  0
   61.2376   28.6441   50.1387 H   0  0  0  0  0  0  0  0  0  0  0  0
   61.2705   28.1716   47.6177 H   0  0  0  0  0  0  0  0  0  0  0  0
   59.7790   27.7084   48.5595 H   0  0  0  0  0  0  0  0  0  0  0  0
   59.7178   27.8527   45.6481 H   0  0  0  0  0  0  0  0  0  0  0  0
   58.1782   29.0391   44.0880 H   0  0  0  0  0  0  0  0  0  0  0  0
   57.5974   32.1653   47.0145 H   0  0  0  0  0  0  0  0  0  0  0  0
   59.9635   31.9702   48.8034 H   0  0  0  0  0  0  0  0  0  0  0  0
   58.2653   31.5925   49.3505 H   0  0  0  0  0  0  0  0  0  0  0  0
   56.9376   32.1096   51.5203 H   0  0  0  0  0  0  0  0  0  0  0  0
   54.5147   32.5598   51.9063 H   0  0  0  0  0  0  0  0  0  0  0  0
  1  2  2  0
  2  3  1  0
  3  4  1  0
  4  5  1  0
  4  6  2  0
  6  7  1  0
  7  8  1  0
  8  9  2  0
  9 10  1  0
 10 11  2  0
 11 12  1  0
 12 13  1  0
 13 14  1  0
 14 15  2  0
 15 16  1  0
 16 17  2  0
 17 18  1  0
 18 19  2  0
 12 20  1  0
 20 21  1  0
 21 22  1  0
 22 23  1  0
 23 24  1  0
 24 25  2  0
 25 26  1  0
 26 27  2  0
 27 28  1  0
 27 29  1  0
 29 30  2  0
 30 31  1  0
 11 32  1  0
 32 33  2  0
  6 34  1  0
 34  2  1  0
 33  8  1  0
 19 14  1  0
 31 21  1  0
 30 24  1  0
  7 35  1  0
  7 36  1  0
  9 37  1  0
 10 38  1  0
 13 39  1  0
 13 40  1  0
 15 41  1  0
 16 42  1  0
 17 43  1  0
 18 44  1  0
 19 45  1  0
 20 46  1  0
 20 47  1  0
 21 48  1  1
 22 49  1  0
 22 50  1  0
 23 51  1  0
 23 52  1  0
 25 53  1  0
 26 54  1  0
 29 55  1  0
 31 56  1  0
 31 57  1  0
 32 58  1  0
 33 59  1  0
M  CHG  4   3  -1   5  -1  28  -1  34  -1
M  END
>  <UniqueID>  (29) 
27

>  <SMILES>  (29) 
O=c1[n-]c([O-])c(Cc2ccc(N(Cc3ccccc3)C[C@H]3CCc4ccc([O-])cc4C3)cc2)[n-]1

>  <Energy>  (29) 
94.35518949570408

>  <Genealogy>  (29) 
O=c1[n-]c([O-])c(Cc2ccc(N(Cc3ccccc3)CC3CCc4ccc([O-])cc4C3)cc2)[n-]1 (protonated)
O=c1[n-]c([O-])c(Cc2ccc(N(Cc3ccccc3)C[C@H]3CCc4ccc([O-])cc4C3)cc2)[n-]1 (chirality)
O=c1[n-]c([O-])c(Cc2ccc(N(Cc3ccccc3)C[C@H]3CCc4ccc([O-])cc4C3)cc2)[n-]1 (3D coordinates assigned)
O=c1[n-]c([O-])c(Cc2ccc(N(Cc3ccccc3)C[C@H]3CCc4ccc([O-])cc4C3)cc2)[n-]1 (nonaromatic ring conformer: 94.35518949570408 kcal/mol)

>  <smiles>  (29) 
O=c1[nH]c(O)c(Cc2ccc(N(Cc3ccccc3)CC3CCc4ccc(O)cc4C3)cc2)[nH]1

>  <score_type>  (29) 
oracle

>  <origin>  (29) 
adg

>  <m_score__min__energy>  (29) 
-18.460000000000001

>  <m_primary>  (29) 
energy

$$$$
29:0
     RDKit          3D

 56 59  0  0  0  0  0  0  0  0999 V2000
   58.5090   30.3480   50.2760 C   0  0  0  0  0  0  0  0  0  0  0  0
   59.6000   30.9160   49.4830 N   0  0  0  0  0  0  0  0  0  0  0  0
   59.9090   30.3400   48.3210 N   0  0  0  0  0  0  0  0  0  0  0  0
   60.9050   30.7900   47.5130 C   0  0  0  0  0  0  0  0  0  0  0  0
   61.1130   30.0870   46.1930 C   0  0  0  0  0  0  0  0  0  0  0  0
   60.3620   28.7870   46.1570 C   0  0  0  0  0  0  0  0  0  0  0  0
   60.9540   27.7390   45.7820 O   0  0  0  0  0  0  0  0  0  0  0  0
   58.9810   28.7440   46.5420 N   0  0  0  0  0  0  0  0  0  0  0  0
   58.1610   27.5780   46.3810 C   0  0  0  0  0  0  0  0  0  0  0  0
   58.6080   26.3400   46.8720 C   0  0  0  0  0  0  0  0  0  0  0  0
   57.7740   25.2220   46.8340 C   0  0  0  0  0  0  0  0  0  0  0  0
   56.4810   25.3320   46.3190 C   0  0  0  0  0  0  0  0  0  0  0  0
   56.0240   26.5560   45.8250 C   0  0  0  0  0  0  0  0  0  0  0  0
   56.8600   27.6860   45.8370 C   0  0  0  0  0  0  0  0  0  0  0  0
   56.3790   28.9460   45.2300 C   0  0  0  0  0  0  0  0  0  0  0  0
   55.2820   28.9680   44.6080 O   0  0  0  0  0  0  0  0  0  0  0  0
   57.1470   30.1470   45.3680 N   0  0  0  0  0  0  0  0  0  0  0  0
   57.9750   30.7120   44.3040 C   0  0  0  0  0  0  0  0  0  0  0  0
   57.6720   32.1990   44.0730 C   0  0  0  0  0  0  0  0  0  0  0  0
   58.2490   33.0660   45.1610 C   0  0  0  0  0  0  0  0  0  0  0  0
   57.9800   32.7830   46.5100 C   0  0  0  0  0  0  0  0  0  0  0  0
   58.5350   33.5750   47.5200 C   0  0  0  0  0  0  0  0  0  0  0  0
   59.3660   34.6500   47.1920 C   0  0  0  0  0  0  0  0  0  0  0  0
   59.6420   34.9340   45.8510 C   0  0  0  0  0  0  0  0  0  0  0  0
   59.0910   34.1450   44.8390 C   0  0  0  0  0  0  0  0  0  0  0  0
   61.6440   31.9260   47.9090 C   0  0  0  0  0  0  0  0  0  0  0  0
   62.6770   32.4710   47.1170 C   0  0  0  0  0  0  0  0  0  0  0  0
   63.3730   33.6040   47.5410 C   0  0  0  0  0  0  0  0  0  0  0  0
   63.0570   34.2090   48.7560 C   0  0  0  0  0  0  0  0  0  0  0  0
   62.0400   33.6850   49.5560 C   0  0  0  0  0  0  0  0  0  0  0  0
   61.3250   32.5440   49.1430 C   0  0  0  0  0  0  0  0  0  0  0  0
   60.2890   32.0100   49.9270 C   0  0  0  0  0  0  0  0  0  0  0  0
   59.9890   32.5400   51.0340 O   0  0  0  0  0  0  0  0  0  0  0  0
   58.7341   30.4652   51.3463 H   0  0  0  0  0  0  0  0  0  0  0  0
   57.5717   30.8726   50.0389 H   0  0  0  0  0  0  0  0  0  0  0  0
   58.4012   29.2793   50.0389 H   0  0  0  0  0  0  0  0  0  0  0  0
   60.7533   30.7339   45.3793 H   0  0  0  0  0  0  0  0  0  0  0  0
   62.1859   29.8779   46.0701 H   0  0  0  0  0  0  0  0  0  0  0  0
   58.5130   29.6340   46.8220 H   0  0  0  0  0  0  0  0  0  0  0  0
   59.6220   26.2514   47.2891 H   0  0  0  0  0  0  0  0  0  0  0  0
   58.1354   24.2535   47.2100 H   0  0  0  0  0  0  0  0  0  0  0  0
   55.8205   24.4525   46.3022 H   0  0  0  0  0  0  0  0  0  0  0  0
   55.0029   26.6362   45.4238 H   0  0  0  0  0  0  0  0  0  0  0  0
   59.0339   30.6035   44.5815 H   0  0  0  0  0  0  0  0  0  0  0  0
   57.7520   30.1696   43.3734 H   0  0  0  0  0  0  0  0  0  0  0  0
   58.1041   32.5042   43.1085 H   0  0  0  0  0  0  0  0  0  0  0  0
   56.5797   32.3287   44.0774 H   0  0  0  0  0  0  0  0  0  0  0  0
   57.3303   31.9352   46.7731 H   0  0  0  0  0  0  0  0  0  0  0  0
   58.3172   33.3516   48.5748 H   0  0  0  0  0  0  0  0  0  0  0  0
   59.8022   35.2717   47.9877 H   0  0  0  0  0  0  0  0  0  0  0  0
   60.2947   35.7809   45.5926 H   0  0  0  0  0  0  0  0  0  0  0  0
   59.3166   34.3686   43.7859 H   0  0  0  0  0  0  0  0  0  0  0  0
   62.9358   31.9990   46.1577 H   0  0  0  0  0  0  0  0  0  0  0  0
   64.1744   34.0212   46.9135 H   0  0  0  0  0  0  0  0  0  0  0  0
   63.6099   35.1011   49.0853 H   0  0  0  0  0  0  0  0  0  0  0  0
   61.7956   34.1661   50.5146 H   0  0  0  0  0  0  0  0  0  0  0  0
  1  2  1  0
  2  3  1  0
  3  4  2  0
  4  5  1  0
  5  6  1  0
  6  7  2  0
  6  8  1  0
  8  9  1  0
  9 10  2  0
 10 11  1  0
 11 12  2  0
 12 13  1  0
 13 14  2  0
 14 15  1  0
 15 16  2  0
 15 17  1  0
 17 18  1  0
 18 19  1  0
 19 20  1  0
 20 21  2  0
 21 22  1  0
 22 23  2  0
 23 24  1  0
 24 25  2  0
  4 26  1  0
 26 27  2  0
 27 28  1  0
 28 29  2  0
 29 30  1  0
 30 31  2  0
 31 32  1  0
 32 33  2  0
 32  2  1  0
 14  9  1  0
 25 20  1  0
 31 26  1  0
  1 34  1  0
  1 35  1  0
  1 36  1  0
  5 37  1  0
  5 38  1  0
  8 39  1  0
 10 40  1  0
 11 41  1  0
 12 42  1  0
 13 43  1  0
 18 44  1  0
 18 45  1  0
 19 46  1  0
 19 47  1  0
 21 48  1  0
 22 49  1  0
 23 50  1  0
 24 51  1  0
 25 52  1  0
 27 53  1  0
 28 54  1  0
 29 55  1  0
 30 56  1  0
M  CHG  1  17  -1
M  END
>  <UniqueID>  (30) 
28

>  <SMILES>  (30) 
Cn1nc(CC(=O)Nc2ccccc2C(=O)[N-]CCc2ccccc2)c2ccccc2c1=O

>  <Energy>  (30) 
64.83510507667965

>  <Genealogy>  (30) 
Cn1nc(CC(=O)Nc2ccccc2C(=O)[N-]CCc2ccccc2)c2ccccc2c1=O (protonated)
Cn1nc(CC(=O)Nc2ccccc2C(=O)[N-]CCc2ccccc2)c2ccccc2c1=O (3D coordinates assigned)
Cn1nc(CC(=O)Nc2ccccc2C(=O)[N-]CCc2ccccc2)c2ccccc2c1=O (optimized conformer: 64.83510507667965 kcal/mol)

>  <smiles>  (30) 
Cn1nc(CC(=O)Nc2ccccc2C(=O)NCCc2ccccc2)c2ccccc2c1=O

>  <score_type>  (30) 
oracle

>  <origin>  (30) 
adg

>  <m_score__min__energy>  (30) 
-11.44

>  <m_primary>  (30) 
energy

$$$$
30:0
     RDKit          3D

 50 53  0  0  0  0  0  0  0  0999 V2000
   57.7580   32.1670   42.2870 C   0  0  0  0  0  0  0  0  0  0  0  0
   57.9150   32.1830   43.7380 N   0  0  0  0  0  0  0  0  0  0  0  0
   57.8280   33.2680   44.5420 C   0  0  0  0  0  0  0  0  0  0  0  0
   58.0280   32.9000   45.8690 C   0  0  0  0  0  0  0  0  0  0  0  0
   58.0640   33.8280   47.0470 C   0  0  0  0  0  0  0  0  0  0  0  0
   59.4800   34.1980   47.3750 C   0  0  0  0  0  0  0  0  0  0  0  0
   60.1700   34.7970   46.5060 O   0  0  0  0  0  0  0  0  0  0  0  0
   60.0930   33.8180   48.6650 C   0  0  0  0  0  0  0  0  0  0  0  0
   60.8060   34.6510   49.2860 O   0  0  0  0  0  0  0  0  0  0  0  0
   59.8530   32.4890   49.2700 C   0  0  0  0  0  0  0  0  0  0  0  0
   58.6480   32.2690   49.9560 C   0  0  0  0  0  0  0  0  0  0  0  0
   58.3620   31.0170   50.5040 C   0  0  0  0  0  0  0  0  0  0  0  0
   59.2810   29.9740   50.3820 C   0  0  0  0  0  0  0  0  0  0  0  0
   60.4930   30.1830   49.7230 C   0  0  0  0  0  0  0  0  0  0  0  0
   60.7980   31.4380   49.1700 C   0  0  0  0  0  0  0  0  0  0  0  0
   62.0920   31.6480   48.5730 N   0  0  0  0  0  0  0  0  0  0  0  0
   62.2400   31.7450   47.1180 C   0  0  0  0  0  0  0  0  0  0  0  0
   62.8610   33.1010   46.7620 C   0  0  0  0  0  0  0  0  0  0  0  0
   64.1000   33.3370   47.5200 N   0  0  0  0  0  0  0  0  0  0  0  0
   63.8530   33.2970   48.9700 C   0  0  0  0  0  0  0  0  0  0  0  0
   63.2660   31.9470   49.3940 C   0  0  0  0  0  0  0  0  0  0  0  0
   58.2510   31.5340   45.8520 C   0  0  0  0  0  0  0  0  0  0  0  0
   58.5160   30.6300   46.8830 C   0  0  0  0  0  0  0  0  0  0  0  0
   58.7020   29.2790   46.5410 C   0  0  0  0  0  0  0  0  0  0  0  0
   58.6210   28.8640   45.1940 C   0  0  0  0  0  0  0  0  0  0  0  0
   58.3500   29.7950   44.1760 C   0  0  0  0  0  0  0  0  0  0  0  0
   58.1710   31.1310   44.5420 C   0  0  0  0  0  0  0  0  0  0  0  0
   56.6929   32.0585   42.0346 H   0  0  0  0  0  0  0  0  0  0  0  0
   58.1404   33.1088   41.8664 H   0  0  0  0  0  0  0  0  0  0  0  0
   58.3225   31.3217   41.8664 H   0  0  0  0  0  0  0  0  0  0  0  0
   57.6280   34.2930   44.1964 H   0  0  0  0  0  0  0  0  0  0  0  0
   57.4967   34.7397   46.8082 H   0  0  0  0  0  0  0  0  0  0  0  0
   57.6161   33.3220   47.9150 H   0  0  0  0  0  0  0  0  0  0  0  0
   57.9233   33.0896   50.0626 H   0  0  0  0  0  0  0  0  0  0  0  0
   57.4113   30.8527   51.0324 H   0  0  0  0  0  0  0  0  0  0  0  0
   59.0496   28.9857   50.8059 H   0  0  0  0  0  0  0  0  0  0  0  0
   61.2157   29.3583   49.6357 H   0  0  0  0  0  0  0  0  0  0  0  0
   62.8938   30.9360   46.7603 H   0  0  0  0  0  0  0  0  0  0  0  0
   61.2535   31.6542   46.6400 H   0  0  0  0  0  0  0  0  0  0  0  0
   63.0901   33.1189   45.6863 H   0  0  0  0  0  0  0  0  0  0  0  0
   62.1405   33.8913   47.0196 H   0  0  0  0  0  0  0  0  0  0  0  0
   64.7950   32.5940   47.2730 H   0  0  0  0  0  0  0  0  0  0  0  0
   64.8031   33.4579   49.5006 H   0  0  0  0  0  0  0  0  0  0  0  0
   63.1298   34.0865   49.2225 H   0  0  0  0  0  0  0  0  0  0  0  0
   64.0209   31.1589   49.2558 H   0  0  0  0  0  0  0  0  0  0  0  0
   62.9723   31.9904   50.4532 H   0  0  0  0  0  0  0  0  0  0  0  0
   58.5772   30.9643   47.9292 H   0  0  0  0  0  0  0  0  0  0  0  0
   58.9121   28.5402   47.3284 H   0  0  0  0  0  0  0  0  0  0  0  0
   58.7710   27.8045   44.9391 H   0  0  0  0  0  0  0  0  0  0  0  0
   58.2811   29.4810   43.1240 H   0  0  0  0  0  0  0  0  0  0  0  0
  1  2  1  0
  2  3  1  0
  3  4  2  0
  4  5  1  0
  5  6  1  0
  6  7  2  0
  6  8  1  0
  8  9  2  0
  8 10  1  0
 10 11  2  0
 11 12  1  0
 12 13  2  0
 13 14  1  0
 14 15  2  0
 15 16  1  0
 16 17  1  0
 17 18  1  0
 18 19  1  0
 19 20  1  0
 20 21  1  0
  4 22  1  0
 22 23  2  0
 23 24  1  0
 24 25  2  0
 25 26  1  0
 26 27  2  0
 27  2  1  0
 15 10  1  0
 21 16  1  0
 27 22  1  0
  1 28  1  0
  1 29  1  0
  1 30  1  0
  3 31  1  0
  5 32  1  0
  5 33  1  0
 11 34  1  0
 12 35  1  0
 13 36  1  0
 14 37  1  0
 17 38  1  0
 17 39  1  0
 18 40  1  0
 18 41  1  0
 19 42  1  0
 20 43  1  0
 20 44  1  0
 21 45  1  0
 21 46  1  0
 23 47  1  0
 24 48  1  0
 25 49  1  0
 26 50  1  0
M  END
>  <UniqueID>  (31) 
29

>  <SMILES>  (31) 
Cn1cc(CC(=O)C(=O)c2ccccc2N2CCNCC2)c2ccccc21

>  <Energy>  (31) 
92.84591968735738

>  <Genealogy>  (31) 
Cn1cc(CC(=O)C(=O)c2ccccc2N2CCNCC2)c2ccccc21 (3D coordinates assigned)
Cn1cc(CC(=O)C(=O)c2ccccc2N2CCNCC2)c2ccccc21 (nonaromatic ring conformer: 92.84591968735738 kcal/mol)

>  <smiles>  (31) 
Cn1cc(CC(=O)C(=O)c2ccccc2N2CCNCC2)c2ccccc21

>  <score_type>  (31) 
oracle

>  <origin>  (31) 
adg

>  <m_score__min__energy>  (31) 
-8.2100000000000009

>  <m_primary>  (31) 
energy

$$$$
31:0
     RDKit          3D

 51 53  0  0  0  0  0  0  0  0999 V2000
   57.6086   25.3882   45.2198 H   0  0  0  0  0  0  0  0  0  0  0  0
   57.4840   26.2740   45.8600 C   0  0  0  0  0  0  0  0  0  0  0  0
   56.2710   27.0970   45.7140 C   0  0  0  0  0  0  0  0  0  0  0  0
   55.1600   26.5880   46.0130 O   0  0  0  0  0  0  0  0  0  0  0  0
   56.3010   28.4390   45.2080 N   0  0  0  0  0  0  0  0  0  0  0  0
   57.0110   28.8680   44.0080 C   0  0  0  0  0  0  0  0  0  0  0  0
   58.0683   28.5732   44.0802 H   0  0  0  0  0  0  0  0  0  0  0  0
   56.5629   28.3938   43.1224 H   0  0  0  0  0  0  0  0  0  0  0  0
   56.9130   30.3510   43.8880 C   0  0  0  0  0  0  0  0  0  0  0  0
   57.0260   30.9000   42.7570 O   0  0  0  0  0  0  0  0  0  0  0  0
   56.7380   31.1390   45.0720 N   0  0  0  0  0  0  0  0  0  0  0  0
   57.6620   32.0980   45.6070 C   0  0  0  0  0  0  0  0  0  0  0  0
   58.2040   33.0580   44.7450 C   0  0  0  0  0  0  0  0  0  0  0  0
   57.8880   33.0865   43.6918 H   0  0  0  0  0  0  0  0  0  0  0  0
   59.1430   33.9800   45.2120 C   0  0  0  0  0  0  0  0  0  0  0  0
   59.5523   34.7400   44.5302 H   0  0  0  0  0  0  0  0  0  0  0  0
   59.5630   33.9390   46.5420 C   0  0  0  0  0  0  0  0  0  0  0  0
   60.3005   34.6687   46.9075 H   0  0  0  0  0  0  0  0  0  0  0  0
   59.0470   32.9700   47.4130 C   0  0  0  0  0  0  0  0  0  0  0  0
   59.6180   32.8870   49.0830 S   0  0  0  0  0  0  0  0  0  0  0  0
   61.0600   32.4670   49.0860 O   0  0  0  0  0  0  0  0  0  0  0  0
   59.5300   34.2540   49.7040 O   0  0  0  0  0  0  0  0  0  0  0  0
   58.6870   31.7540   50.0320 N   0  0  0  0  0  0  0  0  0  0  0  0
   59.5520   30.6860   50.5580 C   0  0  0  0  0  0  0  0  0  0  0  0
   59.9290   30.0804   49.7207 H   0  0  0  0  0  0  0  0  0  0  0  0
   60.3906   31.1439   51.1031 H   0  0  0  0  0  0  0  0  0  0  0  0
   58.7640   29.7790   51.5260 C   0  0  0  0  0  0  0  0  0  0  0  0
   58.8831   28.7314   51.2123 H   0  0  0  0  0  0  0  0  0  0  0  0
   59.1596   29.9290   52.5414 H   0  0  0  0  0  0  0  0  0  0  0  0
   57.3860   30.1050   51.5310 O   0  0  0  0  0  0  0  0  0  0  0  0
   57.2080   31.4350   51.9860 C   0  0  0  0  0  0  0  0  0  0  0  0
   56.1398   31.6909   51.9268 H   0  0  0  0  0  0  0  0  0  0  0  0
   57.5734   31.4920   53.0220 H   0  0  0  0  0  0  0  0  0  0  0  0
   58.0110   32.4470   51.1400 C   0  0  0  0  0  0  0  0  0  0  0  0
   57.3260   33.2047   50.7316 H   0  0  0  0  0  0  0  0  0  0  0  0
   58.7662   32.9306   51.7771 H   0  0  0  0  0  0  0  0  0  0  0  0
   58.0970   32.0520   46.9450 C   0  0  0  0  0  0  0  0  0  0  0  0
   57.6891   31.2914   47.6270 H   0  0  0  0  0  0  0  0  0  0  0  0
   58.4400   26.5730   46.7500 C   0  0  0  0  0  0  0  0  0  0  0  0
   58.5925   25.8870   47.5962 H   0  0  0  0  0  0  0  0  0  0  0  0
   59.3040   27.7740   46.6610 C   0  0  0  0  0  0  0  0  0  0  0  0
   59.5490   28.6180   47.7630 C   0  0  0  0  0  0  0  0  0  0  0  0
   59.1008   28.3854   48.7403 H   0  0  0  0  0  0  0  0  0  0  0  0
   60.3590   29.7500   47.6210 C   0  0  0  0  0  0  0  0  0  0  0  0
   60.5500   30.4002   48.4874 H   0  0  0  0  0  0  0  0  0  0  0  0
   60.9250   30.0560   46.3830 C   0  0  0  0  0  0  0  0  0  0  0  0
   61.5672   30.9426   46.2759 H   0  0  0  0  0  0  0  0  0  0  0  0
   60.6760   29.2360   45.2790 C   0  0  0  0  0  0  0  0  0  0  0  0
   61.1169   29.4814   44.3015 H   0  0  0  0  0  0  0  0  0  0  0  0
   59.8670   28.1040   45.4160 C   0  0  0  0  0  0  0  0  0  0  0  0
   59.6694   27.4661   44.5419 H   0  0  0  0  0  0  0  0  0  0  0  0
  1  2  1  0
  2  3  1  0
  3  4  2  0
  3  5  1  0
  5  6  1  0
  6  7  1  0
  6  8  1  0
  6  9  1  0
  9 10  2  0
  9 11  1  0
 11 12  1  0
 12 13  2  0
 13 14  1  0
 13 15  1  0
 15 16  1  0
 15 17  2  0
 17 18  1  0
 17 19  1  0
 19 20  1  0
 20 21  2  0
 20 22  2  0
 20 23  1  0
 23 24  1  0
 24 25  1  0
 24 26  1  0
 24 27  1  0
 27 28  1  0
 27 29  1  0
 27 30  1  0
 30 31  1  0
 31 32  1  0
 31 33  1  0
 31 34  1  0
 34 35  1  0
 34 36  1  0
 19 37  2  0
 37 38  1  0
  2 39  2  0
 39 40  1  0
 39 41  1  0
 41 42  2  0
 42 43  1  0
 42 44  1  0
 44 45  1  0
 44 46  2  0
 46 47  1  0
 46 48  1  0
 48 49  1  0
 48 50  2  0
 50 51  1  0
 37 12  1  0
 50 41  1  0
 34 23  1  0
M  CHG  2   5  -1  11  -1
M  END
>  <UniqueID>  (32) 
30

>  <SMILES>  (32) 
O=C(/C=C/c1ccccc1)[N-]CC(=O)[N-]c1cccc(S(=O)(=O)N2CCOCC2)c1

>  <Energy>  (32) 
66.76384175096366

>  <Genealogy>  (32) 
O=C(C=Cc1ccccc1)[N-]CC(=O)[N-]c1cccc(S(=O)(=O)N2CCOCC2)c1 (protonated)
O=C(/C=C/c1ccccc1)[N-]CC(=O)[N-]c1cccc(S(=O)(=O)N2CCOCC2)c1 (cis-trans isomerization)
O=C(/C=C/c1ccccc1)[N-]CC(=O)[N-]c1cccc(S(=O)(=O)N2CCOCC2)c1 (3D coordinates assigned)
O=C(/C=C/c1ccccc1)[N-]CC(=O)[N-]c1cccc(S(=O)(=O)N2CCOCC2)c1 (nonaromatic ring conformer: 66.76384175096366 kcal/mol)

>  <smiles>  (32) 
O=C(C=Cc1ccccc1)NCC(=O)Nc1cccc(S(=O)(=O)N2CCOCC2)c1

>  <score_type>  (32) 
oracle

>  <origin>  (32) 
adg

>  <m_score__min__energy>  (32) 
-13.15

>  <m_primary>  (32) 
energy

$$$$
32:0
     RDKit          3D

 26 27  0  0  0  0  0  0  0  0999 V2000
   60.4340   26.3440   46.4850 O   0  0  0  0  0  0  0  0  0  0  0  0
   59.0520   26.4270   46.3640 C   0  0  0  0  0  0  0  0  0  0  0  0
   58.4580   27.6200   45.9480 C   0  0  0  0  0  0  0  0  0  0  0  0
   57.0700   27.7060   45.8280 C   0  0  0  0  0  0  0  0  0  0  0  0
   56.2670   26.5980   46.1230 C   0  0  0  0  0  0  0  0  0  0  0  0
   54.8860   26.7100   45.9960 O   0  0  0  0  0  0  0  0  0  0  0  0
   56.8570   25.3880   46.5400 C   0  0  0  0  0  0  0  0  0  0  0  0
   56.0130   24.1890   46.8980 C   0  0  0  0  0  0  0  0  0  0  0  0
   56.3490   23.0150   46.0100 C   0  0  0  0  0  0  0  0  0  0  0  0
   56.0020   23.0580   44.6470 C   0  0  0  0  0  0  0  0  0  0  0  0
   56.3280   21.9930   43.7970 C   0  0  0  0  0  0  0  0  0  0  0  0
   55.9850   22.0320   42.4460 O   0  0  0  0  0  0  0  0  0  0  0  0
   57.0040   20.8810   44.3030 C   0  0  0  0  0  0  0  0  0  0  0  0
   57.3540   20.8280   45.6540 C   0  0  0  0  0  0  0  0  0  0  0  0
   57.0310   21.8870   46.5090 C   0  0  0  0  0  0  0  0  0  0  0  0
   57.3870   21.8030   47.8510 O   0  0  0  0  0  0  0  0  0  0  0  0
   58.2560   25.3160   46.6600 C   0  0  0  0  0  0  0  0  0  0  0  0
   59.0847   28.4934   45.7145 H   0  0  0  0  0  0  0  0  0  0  0  0
   56.6055   28.6478   45.5005 H   0  0  0  0  0  0  0  0  0  0  0  0
   56.2020   23.9145   47.9463 H   0  0  0  0  0  0  0  0  0  0  0  0
   54.9533   24.4476   46.7561 H   0  0  0  0  0  0  0  0  0  0  0  0
   55.4710   23.9340   44.2460 H   0  0  0  0  0  0  0  0  0  0  0  0
   56.4610   22.6470   41.7960 H   0  0  0  0  0  0  0  0  0  0  0  0
   57.2614   20.0449   43.6361 H   0  0  0  0  0  0  0  0  0  0  0  0
   57.8861   19.9494   46.0476 H   0  0  0  0  0  0  0  0  0  0  0  0
   58.7280   24.3786   46.9892 H   0  0  0  0  0  0  0  0  0  0  0  0
  1  2  1  0
  2  3  2  0
  3  4  1  0
  4  5  2  0
  5  6  1  0
  5  7  1  0
  7  8  1  0
  8  9  1  0
  9 10  2  0
 10 11  1  0
 11 12  1  0
 11 13  2  0
 13 14  1  0
 14 15  2  0
 15 16  1  0
  7 17  2  0
 17  2  1  0
 15  9  1  0
  3 18  1  0
  4 19  1  0
  8 20  1  0
  8 21  1  0
 10 22  1  0
 12 23  1  0
 13 24  1  0
 14 25  1  0
 17 26  1  0
M  CHG  3   1  -1   6  -1  16  -1
M  END
>  <UniqueID>  (33) 
31

>  <SMILES>  (33) 
[O-]c1ccc([O-])c(Cc2cc(O)ccc2[O-])c1

>  <Energy>  (33) 
27.158500740031997

>  <Genealogy>  (33) 
[O-]c1ccc([O-])c(Cc2cc(O)ccc2[O-])c1 (protonated)
[O-]c1ccc([O-])c(Cc2cc(O)ccc2[O-])c1 (3D coordinates assigned)
[O-]c1ccc([O-])c(Cc2cc(O)ccc2[O-])c1 (optimized conformer: 27.158500740031997 kcal/mol)

>  <smiles>  (33) 
Oc1ccc(O)c(Cc2cc(O)ccc2O)c1

>  <score_type>  (33) 
oracle

>  <origin>  (33) 
adg

>  <m_score__min__energy>  (33) 
-13.67

>  <m_primary>  (33) 
energy

$$$$
33:0
     RDKit          3D

 51 53  0  0  0  0  0  0  0  0999 V2000
   59.2400   34.9480   44.9030 C   0  0  0  0  0  0  0  0  0  0  0  0
   58.5770   33.6180   44.6530 C   0  0  0  0  0  0  0  0  0  0  0  0
   58.5000   33.1230   43.3410 C   0  0  0  0  0  0  0  0  0  0  0  0
   57.8880   31.8980   43.0790 C   0  0  0  0  0  0  0  0  0  0  0  0
   57.3400   31.1440   44.1230 C   0  0  0  0  0  0  0  0  0  0  0  0
   56.5130   29.6220   43.7800 S   0  0  0  0  0  0  0  0  0  0  0  0
   56.3510   29.4710   42.2930 O   0  0  0  0  0  0  0  0  0  0  0  0
   55.1400   29.6560   44.3950 O   0  0  0  0  0  0  0  0  0  0  0  0
   57.3950   28.2480   44.4150 N   0  0  0  0  0  0  0  0  0  0  0  0
   57.1020   28.0370   45.8560 C   0  0  0  0  0  0  0  0  0  0  0  0
   58.2050   28.6010   46.7660 C   0  0  0  0  0  0  0  0  0  0  0  0
   59.5230   27.9730   46.4920 N   0  0  0  0  0  0  0  0  0  0  0  0
   60.6350   28.8500   46.9180 C   0  0  0  0  0  0  0  0  0  0  0  0
   60.2340   29.7050   48.0890 C   0  0  0  0  0  0  0  0  0  0  0  0
   59.5810   29.1830   49.0340 O   0  0  0  0  0  0  0  0  0  0  0  0
   60.5990   31.0920   48.1570 N   0  0  0  0  0  0  0  0  0  0  0  0
   60.2630   31.9650   49.2740 C   0  0  0  0  0  0  0  0  0  0  0  0
   60.8460   33.2750   48.8750 C   0  0  0  0  0  0  0  0  0  0  0  0
   61.4430   33.1930   47.6910 C   0  0  0  0  0  0  0  0  0  0  0  0
   61.3440   31.8160   47.1350 C   0  0  0  0  0  0  0  0  0  0  0  0
   59.6880   27.5420   45.0810 C   0  0  0  0  0  0  0  0  0  0  0  0
   58.8400   28.3860   44.1200 C   0  0  0  0  0  0  0  0  0  0  0  0
   57.4310   31.6180   45.4380 C   0  0  0  0  0  0  0  0  0  0  0  0
   58.0480   32.8490   45.7170 C   0  0  0  0  0  0  0  0  0  0  0  0
   58.1060   33.3390   47.1400 C   0  0  0  0  0  0  0  0  0  0  0  0
   59.3246   35.1176   45.9865 H   0  0  0  0  0  0  0  0  0  0  0  0
   60.2435   34.9479   44.4525 H   0  0  0  0  0  0  0  0  0  0  0  0
   58.6359   35.7493   44.4525 H   0  0  0  0  0  0  0  0  0  0  0  0
   58.9265   33.7073   42.5123 H   0  0  0  0  0  0  0  0  0  0  0  0
   57.8356   31.5222   42.0465 H   0  0  0  0  0  0  0  0  0  0  0  0
   57.0420   27.4110   43.8950 H   0  0  0  0  0  0  0  0  0  0  0  0
   56.1527   28.5360   46.1004 H   0  0  0  0  0  0  0  0  0  0  0  0
   57.0437   26.9527   46.0315 H   0  0  0  0  0  0  0  0  0  0  0  0
   58.2855   29.6850   46.5975 H   0  0  0  0  0  0  0  0  0  0  0  0
   57.9325   28.3814   47.8088 H   0  0  0  0  0  0  0  0  0  0  0  0
   61.4940   28.2263   47.2063 H   0  0  0  0  0  0  0  0  0  0  0  0
   60.9000   29.5099   46.0788 H   0  0  0  0  0  0  0  0  0  0  0  0
   59.1729   32.0412   49.4000 H   0  0  0  0  0  0  0  0  0  0  0  0
   60.6487   31.5985   50.2368 H   0  0  0  0  0  0  0  0  0  0  0  0
   60.7899   34.1912   49.4811 H   0  0  0  0  0  0  0  0  0  0  0  0
   61.9446   34.0326   47.1877 H   0  0  0  0  0  0  0  0  0  0  0  0
   60.8014   31.8159   46.1781 H   0  0  0  0  0  0  0  0  0  0  0  0
   62.3254   31.3678   46.9205 H   0  0  0  0  0  0  0  0  0  0  0  0
   60.7471   27.6411   44.8008 H   0  0  0  0  0  0  0  0  0  0  0  0
   59.3522   26.4974   45.0030 H   0  0  0  0  0  0  0  0  0  0  0  0
   59.1273   29.4429   44.2223 H   0  0  0  0  0  0  0  0  0  0  0  0
   59.0206   28.0313   43.0945 H   0  0  0  0  0  0  0  0  0  0  0  0
   57.0146   31.0195   46.2617 H   0  0  0  0  0  0  0  0  0  0  0  0
   58.0049   32.4852   47.8262 H   0  0  0  0  0  0  0  0  0  0  0  0
   59.0696   33.8393   47.3166 H   0  0  0  0  0  0  0  0  0  0  0  0
   57.2858   34.0504   47.3166 H   0  0  0  0  0  0  0  0  0  0  0  0
  1  2  1  0
  2  3  2  0
  3  4  1  0
  4  5  2  0
  5  6  1  0
  6  7  2  0
  6  8  2  0
  6  9  1  0
  9 10  1  0
 10 11  1  0
 11 12  1  0
 12 13  1  0
 13 14  1  0
 14 15  2  0
 14 16  1  0
 16 17  1  0
 17 18  1  0
 18 19  2  0
 19 20  1  0
 12 21  1  0
 21 22  1  0
  5 23  1  0
 23 24  2  0
 24 25  1  0
 24  2  1  0
 22  9  1  0
 20 16  1  0
  1 26  1  0
  1 27  1  0
  1 28  1  0
  3 29  1  0
  4 30  1  0
  9 31  1  0
 10 32  1  0
 10 33  1  0
 11 34  1  0
 11 35  1  0
 13 36  1  0
 13 37  1  0
 17 38  1  0
 17 39  1  0
 18 40  1  0
 19 41  1  0
 20 42  1  0
 20 43  1  0
 21 44  1  0
 21 45  1  0
 22 46  1  0
 22 47  1  0
 23 48  1  0
 25 49  1  0
 25 50  1  0
 25 51  1  0
M  CHG  1   9   1
M  END
>  <UniqueID>  (34) 
32

>  <SMILES>  (34) 
Cc1ccc(S(=O)(=O)[NH+]2CCN(CC(=O)N3CC=CC3)CC2)cc1C

>  <Energy>  (34) 
65.1342658909859

>  <Genealogy>  (34) 
Cc1ccc(S(=O)(=O)[NH+]2CCN(CC(=O)N3CC=CC3)CC2)cc1C (protonated)
Cc1ccc(S(=O)(=O)[NH+]2CCN(CC(=O)N3CC=CC3)CC2)cc1C (3D coordinates assigned)
Cc1ccc(S(=O)(=O)[NH+]2CCN(CC(=O)N3CC=CC3)CC2)cc1C (nonaromatic ring conformer: 65.1342658909859 kcal/mol)

>  <smiles>  (34) 
Cc1ccc(S(=O)(=O)N2CCN(CC(=O)N3CC=CC3)CC2)cc1C

>  <score_type>  (34) 
oracle

>  <origin>  (34) 
adg

>  <m_score__min__energy>  (34) 
-7.8200000000000003

>  <m_primary>  (34) 
energy

$$$$
34:0
     RDKit          3D

 44 45  0  0  0  0  0  0  0  0999 V2000
   57.2330   34.0430   45.2100 C   0  0  0  0  0  0  0  0  0  0  0  0
   58.2280   33.1960   44.4230 C   0  0  0  0  0  0  0  0  0  0  0  0
   57.8860   31.7290   44.5380 C   0  0  0  0  0  0  0  0  0  0  0  0
   56.9940   31.1670   43.6120 C   0  0  0  0  0  0  0  0  0  0  0  0
   56.7130   29.8020   43.6340 C   0  0  0  0  0  0  0  0  0  0  0  0
   57.3260   28.9760   44.5760 C   0  0  0  0  0  0  0  0  0  0  0  0
   58.2210   29.5080   45.5160 C   0  0  0  0  0  0  0  0  0  0  0  0
   58.8890   28.5790   46.5000 C   0  0  0  0  0  0  0  0  0  0  0  0
   60.2840   28.1920   46.0210 C   0  0  0  0  0  0  0  0  0  0  0  0
   58.5090   30.8930   45.4960 C   0  0  0  0  0  0  0  0  0  0  0  0
   59.4410   31.4410   46.4380 N   0  0  0  0  0  0  0  0  0  0  0  0
   59.0000   32.1860   47.5800 C   0  0  0  0  0  0  0  0  0  0  0  0
   57.7680   32.3680   47.7800 O   0  0  0  0  0  0  0  0  0  0  0  0
   59.9960   32.7620   48.5450 C   0  0  0  0  0  0  0  0  0  0  0  0
   61.2980   32.9420   47.8850 N   0  0  0  0  0  0  0  0  0  0  0  0
   61.5280   33.8320   46.8660 C   0  0  0  0  0  0  0  0  0  0  0  0
   60.4540   34.6740   46.2410 C   0  0  0  0  0  0  0  0  0  0  0  0
   62.8410   33.8620   46.4020 C   0  0  0  0  0  0  0  0  0  0  0  0
   63.7350   32.7600   47.2980 S   0  0  0  0  0  0  0  0  0  0  0  0
   62.4330   32.2830   48.2460 C   0  0  0  0  0  0  0  0  0  0  0  0
   62.5210   31.2180   49.2960 C   0  0  0  0  0  0  0  0  0  0  0  0
   57.4013   33.8998   46.2876 H   0  0  0  0  0  0  0  0  0  0  0  0
   57.3723   35.1039   44.9550 H   0  0  0  0  0  0  0  0  0  0  0  0
   56.2079   33.7361   44.9550 H   0  0  0  0  0  0  0  0  0  0  0  0
   58.1969   33.4924   43.3642 H   0  0  0  0  0  0  0  0  0  0  0  0
   59.2351   33.3585   44.8345 H   0  0  0  0  0  0  0  0  0  0  0  0
   56.5117   31.8102   42.8612 H   0  0  0  0  0  0  0  0  0  0  0  0
   56.0064   29.3753   42.9070 H   0  0  0  0  0  0  0  0  0  0  0  0
   57.1057   27.8983   44.5818 H   0  0  0  0  0  0  0  0  0  0  0  0
   58.9696   29.0835   47.4741 H   0  0  0  0  0  0  0  0  0  0  0  0
   58.2820   27.6660   46.5896 H   0  0  0  0  0  0  0  0  0  0  0  0
   60.9334   28.0119   46.8904 H   0  0  0  0  0  0  0  0  0  0  0  0
   60.2224   27.2770   45.4135 H   0  0  0  0  0  0  0  0  0  0  0  0
   60.7026   29.0079   45.4135 H   0  0  0  0  0  0  0  0  0  0  0  0
   60.4490   31.1840   46.3470 H   0  0  0  0  0  0  0  0  0  0  0  0
   59.6327   33.7364   48.9036 H   0  0  0  0  0  0  0  0  0  0  0  0
   60.1158   32.0706   49.3921 H   0  0  0  0  0  0  0  0  0  0  0  0
   59.8518   35.1461   47.0312 H   0  0  0  0  0  0  0  0  0  0  0  0
   60.9157   35.4533   45.6169 H   0  0  0  0  0  0  0  0  0  0  0  0
   59.8074   34.0396   45.6169 H   0  0  0  0  0  0  0  0  0  0  0  0
   63.2249   34.4971   45.5901 H   0  0  0  0  0  0  0  0  0  0  0  0
   62.4827   31.6817   50.2927 H   0  0  0  0  0  0  0  0  0  0  0  0
   61.6774   30.5212   49.1831 H   0  0  0  0  0  0  0  0  0  0  0  0
   63.4676   30.6691   49.1831 H   0  0  0  0  0  0  0  0  0  0  0  0
  1  2  1  0
  2  3  1  0
  3  4  2  0
  4  5  1  0
  5  6  2  0
  6  7  1  0
  7  8  1  0
  8  9  1  0
  7 10  2  0
 10 11  1  0
 11 12  1  0
 12 13  2  0
 12 14  1  0
 14 15  1  0
 15 16  1  0
 16 17  1  0
 16 18  2  0
 18 19  1  0
 19 20  1  0
 20 21  1  0
 10  3  1  0
 20 15  2  0
  1 22  1  0
  1 23  1  0
  1 24  1  0
  2 25  1  0
  2 26  1  0
  4 27  1  0
  5 28  1  0
  6 29  1  0
  8 30  1  0
  8 31  1  0
  9 32  1  0
  9 33  1  0
  9 34  1  0
 11 35  1  0
 14 36  1  0
 14 37  1  0
 17 38  1  0
 17 39  1  0
 17 40  1  0
 18 41  1  0
 21 42  1  0
 21 43  1  0
 21 44  1  0
M  CHG  1  15   1
M  END
>  <UniqueID>  (35) 
33

>  <SMILES>  (35) 
CCc1cccc(CC)c1NC(=O)C[n+]1c(C)csc1C

>  <Energy>  (35) 
69.99452483345769

>  <Genealogy>  (35) 
CCc1cccc(CC)c1NC(=O)C[n+]1c(C)csc1C (3D coordinates assigned)
CCc1cccc(CC)c1NC(=O)C[n+]1c(C)csc1C (optimized conformer: 69.99452483345769 kcal/mol)

>  <smiles>  (35) 
CCc1cccc(CC)c1NC(=O)C[n+]1c(C)csc1C

>  <score_type>  (35) 
oracle

>  <origin>  (35) 
adg

>  <m_score__min__energy>  (35) 
-5.6699999999999999

>  <m_primary>  (35) 
energy

$$$$
35:0
     RDKit          3D

 26 27  0  0  0  0  0  0  0  0999 V2000
   57.5210   31.9820   43.0290 C   0  0  0  0  0  0  0  0  0  0  0  0
   57.8330   31.7450   44.4840 C   0  0  0  0  0  0  0  0  0  0  0  0
   57.9410   32.8570   45.3400 C   0  0  0  0  0  0  0  0  0  0  0  0
   58.2630   32.6910   46.6870 C   0  0  0  0  0  0  0  0  0  0  0  0
   58.4900   31.4160   47.1990 C   0  0  0  0  0  0  0  0  0  0  0  0
   58.3840   30.3000   46.3680 C   0  0  0  0  0  0  0  0  0  0  0  0
   58.0360   30.4400   45.0110 C   0  0  0  0  0  0  0  0  0  0  0  0
   57.9400   29.1890   44.1570 C   0  0  0  0  0  0  0  0  0  0  0  0
   57.3810   28.0230   44.9470 C   0  0  0  0  0  0  0  0  0  0  0  0
   56.0150   27.9690   45.2770 C   0  0  0  0  0  0  0  0  0  0  0  0
   55.1460   28.9760   44.8710 O   0  0  0  0  0  0  0  0  0  0  0  0
   55.5300   26.9260   45.9980 N   0  0  0  0  0  0  0  0  0  0  0  0
   56.3430   25.9250   46.4170 C   0  0  0  0  0  0  0  0  0  0  0  0
   55.8690   24.9680   47.0840 O   0  0  0  0  0  0  0  0  0  0  0  0
   57.6660   25.9530   46.1170 N   0  0  0  0  0  0  0  0  0  0  0  0
   58.2020   26.9720   45.3990 C   0  0  0  0  0  0  0  0  0  0  0  0
   59.4370   26.9620   45.1470 O   0  0  0  0  0  0  0  0  0  0  0  0
   56.6476   32.6454   42.9446 H   0  0  0  0  0  0  0  0  0  0  0  0
   58.3871   32.4520   42.5401 H   0  0  0  0  0  0  0  0  0  0  0  0
   57.3005   31.0216   42.5401 H   0  0  0  0  0  0  0  0  0  0  0  0
   57.7696   33.8682   44.9424 H   0  0  0  0  0  0  0  0  0  0  0  0
   58.3377   33.5686   47.3459 H   0  0  0  0  0  0  0  0  0  0  0  0
   58.7531   31.2885   48.2594 H   0  0  0  0  0  0  0  0  0  0  0  0
   58.5749   29.2975   46.7786 H   0  0  0  0  0  0  0  0  0  0  0  0
   57.2802   29.3901   43.3002 H   0  0  0  0  0  0  0  0  0  0  0  0
   58.9516   28.9235   43.8162 H   0  0  0  0  0  0  0  0  0  0  0  0
  1  2  1  0
  2  3  2  0
  3  4  1  0
  4  5  2  0
  5  6  1  0
  6  7  2  0
  7  8  1  0
  8  9  1  0
  9 10  2  0
 10 11  1  0
 10 12  1  0
 12 13  1  0
 13 14  2  0
 13 15  1  0
 15 16  1  0
 16 17  2  0
  7  2  1  0
 16  9  1  0
  1 18  1  0
  1 19  1  0
  1 20  1  0
  3 21  1  0
  4 22  1  0
  5 23  1  0
  6 24  1  0
  8 25  1  0
  8 26  1  0
M  CHG  3  11  -1  12  -1  15  -1
M  END
>  <UniqueID>  (36) 
34

>  <SMILES>  (36) 
Cc1ccccc1Cc1c([O-])[n-]c(=O)[n-]c1=O

>  <Energy>  (36) 
31.157046963041505

>  <Genealogy>  (36) 
Cc1ccccc1Cc1c([O-])[n-]c(=O)[n-]c1=O (protonated)
Cc1ccccc1Cc1c([O-])[n-]c(=O)[n-]c1=O (3D coordinates assigned)
Cc1ccccc1Cc1c([O-])[n-]c(=O)[n-]c1=O (optimized conformer: 31.157046963041505 kcal/mol)

>  <smiles>  (36) 
Cc1ccccc1Cc1c(O)[nH]c(=O)[nH]c1=O

>  <score_type>  (36) 
oracle

>  <origin>  (36) 
adg

>  <m_score__min__energy>  (36) 
-14.25

>  <m_primary>  (36) 
energy

$$$$
36:0
     RDKit          3D

 38 40  0  0  0  0  0  0  0  0999 V2000
   62.0707   34.1645   49.4075 H   0  0  0  0  0  0  0  0  0  0  0  0
   61.3450   33.7970   48.6670 C   0  0  0  0  0  0  0  0  0  0  0  0
   60.0210   33.5560   49.0460 C   0  0  0  0  0  0  0  0  0  0  0  0
   59.5210   33.8200   50.7060 Cl  0  0  0  0  0  0  0  0  0  0  0  0
   59.0940   33.1010   48.1000 C   0  0  0  0  0  0  0  0  0  0  0  0
   58.0567   32.8986   48.4050 H   0  0  0  0  0  0  0  0  0  0  0  0
   59.4790   32.9020   46.7680 C   0  0  0  0  0  0  0  0  0  0  0  0
   58.5040   32.4030   45.8360 N   0  0  0  0  0  0  0  0  0  0  0  0
   58.2260   31.1550   45.5880 C   0  0  0  0  0  0  0  0  0  0  0  0
   56.9660   30.7720   45.2450 N   0  0  0  0  0  0  0  0  0  0  0  0
   56.6580   29.4730   45.0050 C   0  0  0  0  0  0  0  0  0  0  0  0
   55.4710   29.1660   44.7090 O   0  0  0  0  0  0  0  0  0  0  0  0
   57.6540   28.4860   45.1100 C   0  0  0  0  0  0  0  0  0  0  0  0
   57.3770   27.0510   44.8480 C   0  0  0  0  0  0  0  0  0  0  0  0
   57.7750   26.4620   43.6350 C   0  0  0  0  0  0  0  0  0  0  0  0
   58.2988   27.0663   42.8798 H   0  0  0  0  0  0  0  0  0  0  0  0
   57.5090   25.1130   43.3830 C   0  0  0  0  0  0  0  0  0  0  0  0
   57.8326   24.6588   42.4348 H   0  0  0  0  0  0  0  0  0  0  0  0
   56.8320   24.3370   44.3330 C   0  0  0  0  0  0  0  0  0  0  0  0
   56.5120   22.6350   44.0200 S   0  0  0  0  0  0  0  0  0  0  0  0
   55.5480   22.1010   45.0430 O   0  0  0  0  0  0  0  0  0  0  0  0
   55.9040   22.4720   42.6550 O   0  0  0  0  0  0  0  0  0  0  0  0
   58.0360   21.7230   44.1050 C   0  0  0  0  0  0  0  0  0  0  0  0
   58.3077   21.5604   45.1584 H   0  0  0  0  0  0  0  0  0  0  0  0
   57.9103   20.7515   43.6046 H   0  0  0  0  0  0  0  0  0  0  0  0
   58.8327   22.2929   43.6046 H   0  0  0  0  0  0  0  0  0  0  0  0
   56.4320   24.9180   45.5420 C   0  0  0  0  0  0  0  0  0  0  0  0
   55.9072   24.3110   46.2944 H   0  0  0  0  0  0  0  0  0  0  0  0
   56.6970   26.2670   45.7970 C   0  0  0  0  0  0  0  0  0  0  0  0
   56.3715   26.7179   46.7460 H   0  0  0  0  0  0  0  0  0  0  0  0
   58.9390   28.9000   45.4860 C   0  0  0  0  0  0  0  0  0  0  0  0
   59.7426   28.1567   45.5940 H   0  0  0  0  0  0  0  0  0  0  0  0
   59.1990   30.2130   45.7180 N   0  0  0  0  0  0  0  0  0  0  0  0
   60.1660   30.4960   45.9950 H   0  0  0  0  0  0  0  0  0  0  0  0
   60.8220   33.1160   46.4010 C   0  0  0  0  0  0  0  0  0  0  0  0
   61.1447   32.9247   45.3669 H   0  0  0  0  0  0  0  0  0  0  0  0
   61.7470   33.5710   47.3470 C   0  0  0  0  0  0  0  0  0  0  0  0
   63.4160   33.8420   46.8810 Cl  0  0  0  0  0  0  0  0  0  0  0  0
  1  2  1  0
  2  3  2  0
  3  4  1  0
  3  5  1  0
  5  6  1  0
  5  7  2  0
  7  8  1  0
  8  9  2  0
  9 10  1  0
 10 11  1  0
 11 12  2  0
 11 13  1  0
 13 14  1  0
 14 15  2  0
 15 16  1  0
 15 17  1  0
 17 18  1  0
 17 19  2  0
 19 20  1  0
 20 21  2  0
 20 22  2  0
 20 23  1  0
 23 24  1  0
 23 25  1  0
 23 26  1  0
 19 27  1  0
 27 28  1  0
 27 29  2  0
 29 30  1  0
 13 31  2  0
 31 32  1  0
 31 33  1  0
 33 34  1  0
  7 35  1  0
 35 36  1  0
 35 37  2  0
 37 38  1  0
 37  2  1  0
 33  9  1  0
 29 14  1  0
M  CHG  1  10  -1
M  END
>  <UniqueID>  (37) 
35

>  <SMILES>  (37) 
CS(=O)(=O)c1ccc(-c2c[nH]/c(=N/c3cc(Cl)cc(Cl)c3)[n-]c2=O)cc1

>  <Energy>  (37) 
51.63297069287936

>  <Genealogy>  (37) 
CS(=O)(=O)c1ccc(-c2c[nH]c(=Nc3cc(Cl)cc(Cl)c3)[n-]c2=O)cc1 (protonated)
CS(=O)(=O)c1ccc(-c2c[nH]/c(=N/c3cc(Cl)cc(Cl)c3)[n-]c2=O)cc1 (cis-trans isomerization)
CS(=O)(=O)c1ccc(-c2c[nH]/c(=N/c3cc(Cl)cc(Cl)c3)[n-]c2=O)cc1 (3D coordinates assigned)
CS(=O)(=O)c1ccc(-c2c[nH]/c(=N/c3cc(Cl)cc(Cl)c3)[n-]c2=O)cc1 (optimized conformer: 51.63297069287936 kcal/mol)

>  <smiles>  (37) 
CS(=O)(=O)c1ccc(-c2c[nH]c(=Nc3cc(Cl)cc(Cl)c3)[nH]c2=O)cc1

>  <score_type>  (37) 
oracle

>  <origin>  (37) 
adg

>  <m_score__min__energy>  (37) 
-10.56

>  <m_primary>  (37) 
energy

$$$$
37:0
     RDKit          3D

 44 47  0  0  0  0  0  0  0  0999 V2000
   57.8850   25.9100   47.5730 C   0  0  0  0  0  0  0  0  0  0  0  0
   57.4630   27.0510   46.7510 N   0  0  0  0  0  0  0  0  0  0  0  0
   56.3240   26.9960   45.9760 C   0  0  0  0  0  0  0  0  0  0  0  0
   55.6310   25.9430   45.9300 O   0  0  0  0  0  0  0  0  0  0  0  0
   55.9280   28.0860   45.2450 N   0  0  0  0  0  0  0  0  0  0  0  0
   56.6290   29.2540   45.2700 C   0  0  0  0  0  0  0  0  0  0  0  0
   56.2510   30.2460   44.5930 O   0  0  0  0  0  0  0  0  0  0  0  0
   57.7600   29.3120   46.0660 C   0  0  0  0  0  0  0  0  0  0  0  0
   58.5990   30.3380   46.2720 N   0  0  0  0  0  0  0  0  0  0  0  0
   59.4950   29.8050   47.1470 C   0  0  0  0  0  0  0  0  0  0  0  0
   60.6100   30.5550   47.6660 N   0  0  0  0  0  0  0  0  0  0  0  0
   61.5870   31.1740   46.7620 C   0  0  0  0  0  0  0  0  0  0  0  0
   62.0100   32.5760   47.2550 C   0  0  0  0  0  0  0  0  0  0  0  0
   61.8870   32.7820   48.7270 N   0  0  0  0  0  0  0  0  0  0  0  0
   60.6410   33.5070   49.0910 C   0  0  0  0  0  0  0  0  0  0  0  0
   59.7590   33.7580   47.8870 C   0  0  0  0  0  0  0  0  0  0  0  0
   58.5990   32.9870   47.6910 C   0  0  0  0  0  0  0  0  0  0  0  0
   57.7780   33.2200   46.5830 C   0  0  0  0  0  0  0  0  0  0  0  0
   58.1070   34.2210   45.6650 C   0  0  0  0  0  0  0  0  0  0  0  0
   59.2590   34.9900   45.8520 C   0  0  0  0  0  0  0  0  0  0  0  0
   60.0840   34.7600   46.9570 C   0  0  0  0  0  0  0  0  0  0  0  0
   62.0070   31.5080   49.4720 C   0  0  0  0  0  0  0  0  0  0  0  0
   60.8800   30.5320   49.1070 C   0  0  0  0  0  0  0  0  0  0  0  0
   59.2520   28.5090   47.4890 N   0  0  0  0  0  0  0  0  0  0  0  0
   58.1460   28.2310   46.7820 C   0  0  0  0  0  0  0  0  0  0  0  0
   57.7890   26.1696   48.6376 H   0  0  0  0  0  0  0  0  0  0  0  0
   57.2487   25.0412   47.3486 H   0  0  0  0  0  0  0  0  0  0  0  0
   58.9335   25.6643   47.3486 H   0  0  0  0  0  0  0  0  0  0  0  0
   62.4781   30.5316   46.7056 H   0  0  0  0  0  0  0  0  0  0  0  0
   61.1187   31.2841   45.7728 H   0  0  0  0  0  0  0  0  0  0  0  0
   63.0613   32.7356   46.9733 H   0  0  0  0  0  0  0  0  0  0  0  0
   61.3219   33.2924   46.7823 H   0  0  0  0  0  0  0  0  0  0  0  0
   62.7000   33.3680   49.0320 H   0  0  0  0  0  0  0  0  0  0  0  0
   60.0810   32.9057   49.8223 H   0  0  0  0  0  0  0  0  0  0  0  0
   60.9261   34.4822   49.5127 H   0  0  0  0  0  0  0  0  0  0  0  0
   58.3367   32.1983   48.4115 H   0  0  0  0  0  0  0  0  0  0  0  0
   56.8719   32.6144   46.4339 H   0  0  0  0  0  0  0  0  0  0  0  0
   57.4591   34.4037   44.7950 H   0  0  0  0  0  0  0  0  0  0  0  0
   59.5170   35.7775   45.1286 H   0  0  0  0  0  0  0  0  0  0  0  0
   60.9911   35.3658   47.0990 H   0  0  0  0  0  0  0  0  0  0  0  0
   62.9742   31.0430   49.2305 H   0  0  0  0  0  0  0  0  0  0  0  0
   61.9354   31.7299   50.5470 H   0  0  0  0  0  0  0  0  0  0  0  0
   61.1764   29.5143   49.4011 H   0  0  0  0  0  0  0  0  0  0  0  0
   59.9668   30.8369   49.6392 H   0  0  0  0  0  0  0  0  0  0  0  0
  1  2  1  0
  2  3  1  0
  3  4  2  0
  3  5  1  0
  5  6  1  0
  6  7  2  0
  6  8  1  0
  8  9  1  0
  9 10  2  0
 10 11  1  0
 11 12  1  0
 12 13  1  0
 13 14  1  0
 14 15  1  0
 15 16  1  0
 16 17  2  0
 17 18  1  0
 18 19  2  0
 19 20  1  0
 20 21  2  0
 14 22  1  0
 22 23  1  0
 10 24  1  0
 24 25  1  0
 25  2  1  0
 25  8  2  0
 23 11  1  0
 21 16  1  0
  1 26  1  0
  1 27  1  0
  1 28  1  0
 12 29  1  0
 12 30  1  0
 13 31  1  0
 13 32  1  0
 14 33  1  0
 15 34  1  0
 15 35  1  0
 17 36  1  0
 18 37  1  0
 19 38  1  0
 20 39  1  0
 21 40  1  0
 22 41  1  0
 22 42  1  0
 23 43  1  0
 23 44  1  0
M  CHG  3   5  -1  14   1  24  -1
M  END
>  <UniqueID>  (38) 
36

>  <SMILES>  (38) 
Cn1c(=O)[n-]c(=O)c2nc(N3CC[NH+](Cc4ccccc4)CC3)[n-]c21

>  <Energy>  (38) 
95.6843165038667

>  <Genealogy>  (38) 
Cn1c(=O)[n-]c(=O)c2nc(N3CC[NH+](Cc4ccccc4)CC3)[n-]c21 (protonated)
Cn1c(=O)[n-]c(=O)c2nc(N3CC[NH+](Cc4ccccc4)CC3)[n-]c21 (3D coordinates assigned)
Cn1c(=O)[n-]c(=O)c2nc(N3CC[NH+](Cc4ccccc4)CC3)[n-]c21 (nonaromatic ring conformer: 95.6843165038667 kcal/mol)

>  <smiles>  (38) 
Cn1c(=O)[nH]c(=O)c2nc(N3CCN(Cc4ccccc4)CC3)[nH]c21

>  <score_type>  (38) 
oracle

>  <origin>  (38) 
adg

>  <m_score__min__energy>  (38) 
-8.5099999999999998

>  <m_primary>  (38) 
energy

$$$$
38:0
     RDKit          3D

 34 36  0  0  0  0  0  0  0  0999 V2000
   58.6453   26.9862   45.7041 H   0  0  0  0  0  0  0  0  0  0  0  0
   57.6080   26.6560   45.8620 C   0  0  0  0  0  0  0  0  0  0  0  0
   57.2340   25.4460   46.3180 N   0  0  0  0  0  0  0  0  0  0  0  0
   55.8880   25.5240   46.3460 C   0  0  0  0  0  0  0  0  0  0  0  0
   55.1610   24.5700   46.7270 O   0  0  0  0  0  0  0  0  0  0  0  0
   55.3840   26.7050   45.9380 N   0  0  0  0  0  0  0  0  0  0  0  0
   56.4830   27.4140   45.6250 C   0  0  0  0  0  0  0  0  0  0  0  0
   56.4620   28.8090   45.1450 C   0  0  0  0  0  0  0  0  0  0  0  0
   55.3570   29.3600   44.8950 O   0  0  0  0  0  0  0  0  0  0  0  0
   57.6720   29.5270   44.8710 N   0  0  0  0  0  0  0  0  0  0  0  0
   58.0200   30.6670   45.3970 C   0  0  0  0  0  0  0  0  0  0  0  0
   57.9050   31.9250   44.8200 C   0  0  0  0  0  0  0  0  0  0  0  0
   57.4926   32.1835   43.8335 H   0  0  0  0  0  0  0  0  0  0  0  0
   58.4310   32.7790   45.7770 C   0  0  0  0  0  0  0  0  0  0  0  0
   58.5700   34.2420   45.6400 C   0  0  0  0  0  0  0  0  0  0  0  0
   57.7870   34.8640   44.8750 O   0  0  0  0  0  0  0  0  0  0  0  0
   59.6090   34.9730   46.3080 N   0  0  0  0  0  0  0  0  0  0  0  0
   60.5680   34.4560   47.0200 C   0  0  0  0  0  0  0  0  0  0  0  0
   60.4080   34.2200   48.3550 N   0  0  0  0  0  0  0  0  0  0  0  0
   61.4030   33.6950   49.1180 C   0  0  0  0  0  0  0  0  0  0  0  0
   61.2356   33.5113   50.1896 H   0  0  0  0  0  0  0  0  0  0  0  0
   62.6370   33.3890   48.5420 C   0  0  0  0  0  0  0  0  0  0  0  0
   63.4455   32.9608   49.1528 H   0  0  0  0  0  0  0  0  0  0  0  0
   62.8330   33.6330   47.1810 C   0  0  0  0  0  0  0  0  0  0  0  0
   63.8014   33.4009   46.7138 H   0  0  0  0  0  0  0  0  0  0  0  0
   61.7980   34.1720   46.4140 C   0  0  0  0  0  0  0  0  0  0  0  0
   61.9477   34.3718   45.3427 H   0  0  0  0  0  0  0  0  0  0  0  0
   58.8530   32.0600   46.8380 N   0  0  0  0  0  0  0  0  0  0  0  0
   59.3160   32.4280   47.6990 H   0  0  0  0  0  0  0  0  0  0  0  0
   58.6120   30.7800   46.6020 N   0  0  0  0  0  0  0  0  0  0  0  0
   58.8950   29.7000   47.5430 C   0  0  0  0  0  0  0  0  0  0  0  0
   58.7966   30.0753   48.5723 H   0  0  0  0  0  0  0  0  0  0  0  0
   58.1820   28.8779   47.3828 H   0  0  0  0  0  0  0  0  0  0  0  0
   59.9196   29.3332   47.3828 H   0  0  0  0  0  0  0  0  0  0  0  0
  1  2  1  0
  2  3  1  0
  3  4  1  0
  4  5  2  0
  4  6  1  0
  6  7  1  0
  7  8  1  0
  8  9  2  0
  8 10  1  0
 10 11  2  0
 11 12  1  0
 12 13  1  0
 12 14  2  0
 14 15  1  0
 15 16  2  0
 15 17  1  0
 17 18  2  3
 18 19  1  0
 19 20  1  0
 20 21  1  0
 20 22  2  0
 22 23  1  0
 22 24  1  0
 24 25  1  0
 24 26  2  0
 26 27  1  0
 14 28  1  0
 28 29  1  0
 28 30  1  0
 30 31  1  0
 31 32  1  0
 31 33  1  0
 31 34  1  0
  7  2  2  0
 30 11  1  0
 26 18  1  0
M  CHG  3   3  -1   6  -1  19  -1
M  END
>  <UniqueID>  (39) 
37

>  <SMILES>  (39) 
Cn1[nH]c(C(=O)N=c2cccc[n-]2)c/c1=N\C(=O)c1c[n-]c(=O)[n-]1

>  <Energy>  (39) 
109.00202743904771

>  <Genealogy>  (39) 
Cn1[nH]c(C(=O)N=c2cccc[n-]2)cc1=NC(=O)c1c[n-]c(=O)[n-]1 (protonated)
Cn1[nH]c(C(=O)N=c2cccc[n-]2)c/c1=N\C(=O)c1c[n-]c(=O)[n-]1 (cis-trans isomerization)
Cn1[nH]c(C(=O)N=c2cccc[n-]2)c/c1=N\C(=O)c1c[n-]c(=O)[n-]1 (3D coordinates assigned)
Cn1[nH]c(C(=O)N=c2cccc[n-]2)c/c1=N\C(=O)c1c[n-]c(=O)[n-]1 (optimized conformer: 109.00202743904771 kcal/mol)

>  <smiles>  (39) 
Cn1[nH]c(C(=O)N=c2cccc[nH]2)cc1=NC(=O)c1c[nH]c(=O)[nH]1

>  <score_type>  (39) 
oracle

>  <origin>  (39) 
adg

>  <m_score__min__energy>  (39) 
-12.42

>  <m_primary>  (39) 
energy

$$$$
39:0
     RDKit          3D

 53 55  0  0  0  0  0  0  0  0999 V2000
   62.1430   31.7910   48.1060 C   0  0  0  0  0  0  0  0  0  0  0  0
   61.3410   30.7320   47.9650 C   0  0  0  0  0  0  0  0  0  0  0  0
   61.1450   30.0530   46.6350 C   0  0  0  0  0  0  0  0  0  0  0  0
   60.4460   28.7650   46.8090 N   0  0  0  0  0  0  0  0  0  0  0  0
   60.7780   27.8190   45.7100 C   0  0  0  0  0  0  0  0  0  0  0  0
   60.5140   26.3460   46.0810 C   0  0  0  0  0  0  0  0  0  0  0  0
   59.5370   26.2570   47.1710 N   0  0  0  0  0  0  0  0  0  0  0  0
   58.2410   25.6770   46.9280 C   0  0  0  0  0  0  0  0  0  0  0  0
   58.0860   24.3310   47.0570 N   0  0  0  0  0  0  0  0  0  0  0  0
   56.8950   23.7280   46.8180 C   0  0  0  0  0  0  0  0  0  0  0  0
   56.7880   22.4800   46.9400 O   0  0  0  0  0  0  0  0  0  0  0  0
   55.8200   24.4680   46.4510 N   0  0  0  0  0  0  0  0  0  0  0  0
   55.9100   25.8150   46.3150 C   0  0  0  0  0  0  0  0  0  0  0  0
   54.7720   26.5400   45.9790 O   0  0  0  0  0  0  0  0  0  0  0  0
   57.1370   26.4640   46.5370 C   0  0  0  0  0  0  0  0  0  0  0  0
   57.2330   27.9400   46.4770 C   0  0  0  0  0  0  0  0  0  0  0  0
   57.4350   28.6300   45.3370 C   0  0  0  0  0  0  0  0  0  0  0  0
   57.6900   27.9360   44.0930 C   0  0  0  0  0  0  0  0  0  0  0  0
   57.8940   27.3800   43.0990 N   0  0  0  0  0  0  0  0  0  0  0  0
   57.4390   30.1150   45.3450 C   0  0  0  0  0  0  0  0  0  0  0  0
   56.4970   30.7490   44.7940 O   0  0  0  0  0  0  0  0  0  0  0  0
   58.5000   30.8420   45.9850 N   0  0  0  0  0  0  0  0  0  0  0  0
   58.6470   32.2630   45.8490 C   0  0  0  0  0  0  0  0  0  0  0  0
   58.9530   33.0220   46.9870 C   0  0  0  0  0  0  0  0  0  0  0  0
   59.0860   34.4090   46.8990 C   0  0  0  0  0  0  0  0  0  0  0  0
   58.9240   35.0500   45.6700 C   0  0  0  0  0  0  0  0  0  0  0  0
   58.6470   34.3040   44.5220 C   0  0  0  0  0  0  0  0  0  0  0  0
   58.5290   32.9050   44.5920 C   0  0  0  0  0  0  0  0  0  0  0  0
   58.2740   32.1310   43.3270 C   0  0  0  0  0  0  0  0  0  0  0  0
   59.7970   27.0150   48.4040 C   0  0  0  0  0  0  0  0  0  0  0  0
   60.7530   28.1830   48.1290 C   0  0  0  0  0  0  0  0  0  0  0  0
   62.2630   32.2626   49.0925 H   0  0  0  0  0  0  0  0  0  0  0  0
   62.6834   32.1914   47.2356 H   0  0  0  0  0  0  0  0  0  0  0  0
   60.8082   30.3446   48.8460 H   0  0  0  0  0  0  0  0  0  0  0  0
   60.5462   30.7041   45.9811 H   0  0  0  0  0  0  0  0  0  0  0  0
   62.1303   29.8644   46.1838 H   0  0  0  0  0  0  0  0  0  0  0  0
   60.1668   28.0740   44.8317 H   0  0  0  0  0  0  0  0  0  0  0  0
   61.8542   27.9183   45.5050 H   0  0  0  0  0  0  0  0  0  0  0  0
   60.1228   25.8156   45.2003 H   0  0  0  0  0  0  0  0  0  0  0  0
   61.4580   25.8882   46.4117 H   0  0  0  0  0  0  0  0  0  0  0  0
   57.1339   28.5053   47.4154 H   0  0  0  0  0  0  0  0  0  0  0  0
   59.0610   30.3670   46.7290 H   0  0  0  0  0  0  0  0  0  0  0  0
   59.0894   32.5210   47.9568 H   0  0  0  0  0  0  0  0  0  0  0  0
   59.3187   34.9970   47.7991 H   0  0  0  0  0  0  0  0  0  0  0  0
   59.0146   36.1443   45.6052 H   0  0  0  0  0  0  0  0  0  0  0  0
   58.5203   34.8150   43.5562 H   0  0  0  0  0  0  0  0  0  0  0  0
   57.9391   31.1143   43.5804 H   0  0  0  0  0  0  0  0  0  0  0  0
   57.4952   32.6375   42.7379 H   0  0  0  0  0  0  0  0  0  0  0  0
   59.2013   32.0754   42.7379 H   0  0  0  0  0  0  0  0  0  0  0  0
   58.8467   27.4096   48.7928 H   0  0  0  0  0  0  0  0  0  0  0  0
   60.2608   26.3436   49.1417 H   0  0  0  0  0  0  0  0  0  0  0  0
   60.6282   28.9507   48.9069 H   0  0  0  0  0  0  0  0  0  0  0  0
   61.7910   27.8191   48.1384 H   0  0  0  0  0  0  0  0  0  0  0  0
  1  2  2  0
  2  3  1  0
  3  4  1  0
  4  5  1  0
  5  6  1  0
  6  7  1  0
  7  8  1  0
  8  9  2  0
  9 10  1  0
 10 11  2  0
 10 12  1  0
 12 13  1  0
 13 14  1  0
 13 15  2  0
 15 16  1  0
 16 17  2  3
 17 18  1  0
 18 19  3  0
 17 20  1  0
 20 21  2  0
 20 22  1  0
 22 23  1  0
 23 24  2  0
 24 25  1  0
 25 26  2  0
 26 27  1  0
 27 28  2  0
 28 29  1  0
  7 30  1  0
 30 31  1  0
 31  4  1  0
 15  8  1  0
 28 23  1  0
  1 32  1  0
  1 33  1  0
  2 34  1  0
  3 35  1  0
  3 36  1  0
  5 37  1  0
  5 38  1  0
  6 39  1  0
  6 40  1  0
 16 41  1  0
 22 42  1  0
 24 43  1  0
 25 44  1  0
 26 45  1  0
 27 46  1  0
 29 47  1  0
 29 48  1  0
 29 49  1  0
 30 50  1  0
 30 51  1  0
 31 52  1  0
 31 53  1  0
M  CHG  2  12  -1  14  -1
M  END
>  <UniqueID>  (40) 
38

>  <SMILES>  (40) 
C=CCN1CCN(c2nc(=O)[n-]c([O-])c2C=C(C#N)C(=O)Nc2ccccc2C)CC1

>  <Energy>  (40) 
77.79836361266895

>  <Genealogy>  (40) 
C=CCN1CCN(c2nc(=O)[n-]c([O-])c2C=C(C#N)C(=O)Nc2ccccc2C)CC1 (protonated)
C=CCN1CCN(c2nc(=O)[n-]c([O-])c2C=C(C#N)C(=O)Nc2ccccc2C)CC1 (3D coordinates assigned)
C=CCN1CCN(c2nc(=O)[n-]c([O-])c2C=C(C#N)C(=O)Nc2ccccc2C)CC1 (nonaromatic ring conformer: 77.79836361266895 kcal/mol)

>  <smiles>  (40) 
C=CCN1CCN(c2nc(=O)[nH]c(O)c2C=C(C#N)C(=O)Nc2ccccc2C)CC1

>  <score_type>  (40) 
oracle

>  <origin>  (40) 
adg

>  <m_score__min__energy>  (40) 
-14.210000000000001

>  <m_primary>  (40) 
energy

$$$$
40:0
     RDKit          3D

 63 66  0  0  0  0  0  0  0  0999 V2000
   59.1010   27.5235   47.1088 H   0  0  0  0  0  0  0  0  0  0  0  0
   59.6560   26.5780   47.0190 C   0  0  0  0  0  0  0  0  0  0  0  0
   60.6157   26.4518   47.5416 H   0  0  0  0  0  0  0  0  0  0  0  0
   59.1610   25.5760   46.2700 C   0  0  0  0  0  0  0  0  0  0  0  0
   59.9150   24.4450   46.2170 N   0  0  0  0  0  0  0  0  0  0  0  0
   59.5370   23.3320   45.5470 C   0  0  0  0  0  0  0  0  0  0  0  0
   60.2750   22.3130   45.5590 O   0  0  0  0  0  0  0  0  0  0  0  0
   58.3490   23.3250   44.8350 C   0  0  0  0  0  0  0  0  0  0  0  0
   58.0399   22.4188   44.2935 H   0  0  0  0  0  0  0  0  0  0  0  0
   57.5390   24.4690   44.8020 C   0  0  0  0  0  0  0  0  0  0  0  0
   56.4090   24.4540   43.7960 C   0  0  0  0  0  0  0  0  0  0  0  0
   55.4456   24.4412   44.3268 H   0  0  0  0  0  0  0  0  0  0  0  0
   56.4680   25.3530   43.1649 H   0  0  0  0  0  0  0  0  0  0  0  0
   56.4918   23.5569   43.1649 H   0  0  0  0  0  0  0  0  0  0  0  0
   57.8900   25.6130   45.5970 C   0  0  0  0  0  0  0  0  0  0  0  0
   57.0770   26.7020   45.6950 C   0  0  0  0  0  0  0  0  0  0  0  0
   56.0797   26.5482   46.1329 H   0  0  0  0  0  0  0  0  0  0  0  0
   57.4210   28.0680   45.2640 C   0  0  0  0  0  0  0  0  0  0  0  0
   58.6720   28.5750   45.3150 N   0  0  0  0  0  0  0  0  0  0  0  0
   58.5090   29.8690   44.9590 C   0  0  0  0  0  0  0  0  0  0  0  0
   59.4670   30.6840   44.8930 O   0  0  0  0  0  0  0  0  0  0  0  0
   57.2250   30.2040   44.7050 N   0  0  0  0  0  0  0  0  0  0  0  0
   56.6870   31.5270   44.3890 C   0  0  0  0  0  0  0  0  0  0  0  0
   56.3100   31.5291   43.3556 H   0  0  0  0  0  0  0  0  0  0  0  0
   55.8686   31.7588   45.0864 H   0  0  0  0  0  0  0  0  0  0  0  0
   57.7830   32.5890   44.5310 C   0  0  0  0  0  0  0  0  0  0  0  0
   58.7394   32.1454   44.2171 H   0  0  0  0  0  0  0  0  0  0  0  0
   57.4891   33.4411   43.9005 H   0  0  0  0  0  0  0  0  0  0  0  0
   57.9430   33.1250   45.9680 C   0  0  0  0  0  0  0  0  0  0  0  0
   57.9104   34.2241   45.9361 H   0  0  0  0  0  0  0  0  0  0  0  0
   57.1221   32.7025   46.5660 H   0  0  0  0  0  0  0  0  0  0  0  0
   59.2210   32.7080   46.6160 N   0  0  0  0  0  0  0  0  0  0  0  0
   59.5530   31.8290   46.1510 H   0  0  0  0  0  0  0  0  0  0  0  0
   58.9660   32.3410   48.0320 C   0  0  0  0  0  0  0  0  0  0  0  0
   58.4241   33.1635   48.5218 H   0  0  0  0  0  0  0  0  0  0  0  0
   58.3717   31.4155   48.0455 H   0  0  0  0  0  0  0  0  0  0  0  0
   60.2720   32.0830   48.7930 C   0  0  0  0  0  0  0  0  0  0  0  0
   60.0424   31.8910   49.8515 H   0  0  0  0  0  0  0  0  0  0  0  0
   60.7757   31.2111   48.3503 H   0  0  0  0  0  0  0  0  0  0  0  0
   61.1610   33.2450   48.6950 N   0  0  0  0  0  0  0  0  0  0  0  0
   62.3250   33.3330   49.5410 C   0  0  0  0  0  0  0  0  0  0  0  0
   62.1860   33.7670   50.8710 C   0  0  0  0  0  0  0  0  0  0  0  0
   61.1925   34.0442   51.2534 H   0  0  0  0  0  0  0  0  0  0  0  0
   63.2980   33.8490   51.7100 C   0  0  0  0  0  0  0  0  0  0  0  0
   63.1782   34.1874   52.7498 H   0  0  0  0  0  0  0  0  0  0  0  0
   64.5620   33.5020   51.2310 C   0  0  0  0  0  0  0  0  0  0  0  0
   65.4366   33.5643   51.8952 H   0  0  0  0  0  0  0  0  0  0  0  0
   64.7190   33.0760   49.9110 C   0  0  0  0  0  0  0  0  0  0  0  0
   65.7180   32.8033   49.5399 H   0  0  0  0  0  0  0  0  0  0  0  0
   63.6050   32.9930   49.0500 C   0  0  0  0  0  0  0  0  0  0  0  0
   63.7390   32.5960   47.7090 O   0  0  0  0  0  0  0  0  0  0  0  0
   63.6950   33.4800   46.5940 C   0  0  0  0  0  0  0  0  0  0  0  0
   63.6433   34.5190   46.9516 H   0  0  0  0  0  0  0  0  0  0  0  0
   64.6009   33.3467   45.9844 H   0  0  0  0  0  0  0  0  0  0  0  0
   62.8068   33.2574   45.9844 H   0  0  0  0  0  0  0  0  0  0  0  0
   60.8180   34.3290   47.7710 C   0  0  0  0  0  0  0  0  0  0  0  0
   60.0386   34.9607   48.2220 H   0  0  0  0  0  0  0  0  0  0  0  0
   61.7147   34.9339   47.5710 H   0  0  0  0  0  0  0  0  0  0  0  0
   60.2970   33.7400   46.4500 C   0  0  0  0  0  0  0  0  0  0  0  0
   59.8942   34.5628   45.8411 H   0  0  0  0  0  0  0  0  0  0  0  0
   61.1490   33.2329   45.9735 H   0  0  0  0  0  0  0  0  0  0  0  0
   56.5360   29.0740   44.9320 C   0  0  0  0  0  0  0  0  0  0  0  0
   55.1500   28.9690   44.8730 O   0  0  0  0  0  0  0  0  0  0  0  0
  1  2  1  0
  2  3  1  0
  2  4  2  0
  4  5  1  0
  5  6  1  0
  6  7  2  0
  6  8  1  0
  8  9  1  0
  8 10  2  0
 10 11  1  0
 11 12  1  0
 11 13  1  0
 11 14  1  0
 10 15  1  0
 15 16  2  0
 16 17  1  0
 16 18  1  0
 18 19  1  0
 19 20  1  0
 20 21  2  0
 20 22  1  0
 22 23  1  0
 23 24  1  0
 23 25  1  0
 23 26  1  0
 26 27  1  0
 26 28  1  0
 26 29  1  0
 29 30  1  0
 29 31  1  0
 29 32  1  0
 32 33  1  0
 32 34  1  0
 34 35  1  0
 34 36  1  0
 34 37  1  0
 37 38  1  0
 37 39  1  0
 37 40  1  0
 40 41  1  0
 41 42  2  0
 42 43  1  0
 42 44  1  0
 44 45  1  0
 44 46  2  0
 46 47  1  0
 46 48  1  0
 48 49  1  0
 48 50  2  0
 50 51  1  0
 51 52  1  0
 52 53  1  0
 52 54  1  0
 52 55  1  0
 40 56  1  0
 56 57  1  0
 56 58  1  0
 56 59  1  0
 59 60  1  0
 59 61  1  0
 22 62  1  0
 62 63  1  0
 15  4  1  0
 62 18  2  0
 59 32  1  0
 50 41  1  0
M  CHG  4   5  -1  19  -1  32   1  63  -1
M  END
>  <UniqueID>  (41) 
39

>  <SMILES>  (41) 
C=c1[n-]c(=O)cc(C)/c1=C\c1[n-]c(=O)n(CCC[NH+]2CCN(c3ccccc3OC)CC2)c1[O-]

>  <Energy>  (41) 
135.11523171799954

>  <Genealogy>  (41) 
C=c1[n-]c(=O)cc(C)c1=Cc1[n-]c(=O)n(CCC[NH+]2CCN(c3ccccc3OC)CC2)c1[O-] (protonated)
C=c1[n-]c(=O)cc(C)/c1=C\c1[n-]c(=O)n(CCC[NH+]2CCN(c3ccccc3OC)CC2)c1[O-] (cis-trans isomerization)
C=c1[n-]c(=O)cc(C)/c1=C\c1[n-]c(=O)n(CCC[NH+]2CCN(c3ccccc3OC)CC2)c1[O-] (3D coordinates assigned)
C=c1[n-]c(=O)cc(C)/c1=C\c1[n-]c(=O)n(CCC[NH+]2CCN(c3ccccc3OC)CC2)c1[O-] (nonaromatic ring conformer: 135.11523171799954 kcal/mol)

>  <smiles>  (41) 
C=c1[nH]c(=O)cc(C)c1=Cc1[nH]c(=O)n(CCCN2CCN(c3ccccc3OC)CC2)c1O

>  <score_type>  (41) 
oracle

>  <origin>  (41) 
adg

>  <m_score__min__energy>  (41) 
-13.06

>  <m_primary>  (41) 
energy

$$$$
41:0
     RDKit          3D

 42 45  0  0  0  0  0  0  0  0999 V2000
   56.6390   30.4820   43.5110 C   0  0  0  0  0  0  0  0  0  0  0  0
   56.6490   31.2420   44.7150 O   0  0  0  0  0  0  0  0  0  0  0  0
   57.8040   31.5300   45.4590 C   0  0  0  0  0  0  0  0  0  0  0  0
   58.7460   30.5110   45.6450 C   0  0  0  0  0  0  0  0  0  0  0  0
   59.9120   30.7470   46.3780 C   0  0  0  0  0  0  0  0  0  0  0  0
   60.1460   32.0070   46.9450 C   0  0  0  0  0  0  0  0  0  0  0  0
   61.3900   32.2630   47.7040 C   0  0  0  0  0  0  0  0  0  0  0  0
   62.2810   33.1460   47.2820 N   0  0  0  0  0  0  0  0  0  0  0  0
   62.1490   33.7760   46.0560 O   0  0  0  0  0  0  0  0  0  0  0  0
   63.4510   33.5470   48.0820 C   0  0  0  0  0  0  0  0  0  0  0  0
   63.8020   32.5110   49.0410 N   0  0  0  0  0  0  0  0  0  0  0  0
   62.9430   31.5890   49.5060 C   0  0  0  0  0  0  0  0  0  0  0  0
   63.4630   30.8340   50.5050 N   0  0  0  0  0  0  0  0  0  0  0  0
   64.7080   31.3230   50.6600 C   0  0  0  0  0  0  0  0  0  0  0  0
   65.6750   30.9420   51.5860 C   0  0  0  0  0  0  0  0  0  0  0  0
   66.9030   31.6420   51.5830 C   0  0  0  0  0  0  0  0  0  0  0  0
   67.9640   31.2970   52.5850 C   0  0  0  0  0  0  0  0  0  0  0  0
   67.1010   32.7200   50.6800 C   0  0  0  0  0  0  0  0  0  0  0  0
   66.0980   33.0830   49.7620 C   0  0  0  0  0  0  0  0  0  0  0  0
   64.9150   32.3490   49.7790 C   0  0  0  0  0  0  0  0  0  0  0  0
   61.5360   31.5360   49.0290 C   0  0  0  0  0  0  0  0  0  0  0  0
   59.2110   33.0340   46.7550 C   0  0  0  0  0  0  0  0  0  0  0  0
   58.0440   32.7980   46.0210 C   0  0  0  0  0  0  0  0  0  0  0  0
   56.6249   29.4094   43.7546 H   0  0  0  0  0  0  0  0  0  0  0  0
   55.7441   30.7365   42.9241 H   0  0  0  0  0  0  0  0  0  0  0  0
   57.5403   30.7129   42.9241 H   0  0  0  0  0  0  0  0  0  0  0  0
   58.5667   29.5165   45.2105 H   0  0  0  0  0  0  0  0  0  0  0  0
   60.6487   29.9410   46.5104 H   0  0  0  0  0  0  0  0  0  0  0  0
   61.2580   34.0750   45.6780 H   0  0  0  0  0  0  0  0  0  0  0  0
   64.3046   33.7205   47.4103 H   0  0  0  0  0  0  0  0  0  0  0  0
   63.2029   34.4667   48.6322 H   0  0  0  0  0  0  0  0  0  0  0  0
   62.9930   30.0790   51.0540 H   0  0  0  0  0  0  0  0  0  0  0  0
   65.4896   30.1231   52.2967 H   0  0  0  0  0  0  0  0  0  0  0  0
   67.5644   31.4269   53.6016 H   0  0  0  0  0  0  0  0  0  0  0  0
   68.2752   30.2514   52.4442 H   0  0  0  0  0  0  0  0  0  0  0  0
   68.8307   31.9596   52.4442 H   0  0  0  0  0  0  0  0  0  0  0  0
   68.0490   33.2776   50.6983 H   0  0  0  0  0  0  0  0  0  0  0  0
   66.2432   33.9153   49.0576 H   0  0  0  0  0  0  0  0  0  0  0  0
   61.2383   30.4851   48.8988 H   0  0  0  0  0  0  0  0  0  0  0  0
   60.8917   32.0261   49.7738 H   0  0  0  0  0  0  0  0  0  0  0  0
   59.3958   34.0295   47.1849 H   0  0  0  0  0  0  0  0  0  0  0  0
   57.3110   33.6064   45.8824 H   0  0  0  0  0  0  0  0  0  0  0  0
  1  2  1  0
  2  3  1  0
  3  4  2  0
  4  5  1  0
  5  6  2  0
  6  7  1  0
  7  8  2  0
  8  9  1  0
  8 10  1  0
 10 11  1  0
 11 12  1  0
 12 13  2  0
 13 14  1  0
 14 15  2  0
 15 16  1  0
 16 17  1  0
 16 18  2  0
 18 19  1  0
 19 20  2  0
 12 21  1  0
  6 22  1  0
 22 23  2  0
 23  3  1  0
 21  7  1  0
 20 11  1  0
 20 14  1  0
  1 24  1  0
  1 25  1  0
  1 26  1  0
  4 27  1  0
  5 28  1  0
  9 29  1  0
 10 30  1  0
 10 31  1  0
 13 32  1  0
 15 33  1  0
 17 34  1  0
 17 35  1  0
 17 36  1  0
 18 37  1  0
 19 38  1  0
 21 39  1  0
 21 40  1  0
 22 41  1  0
 23 42  1  0
M  CHG  2   8   1  13   1
M  END
>  <UniqueID>  (42) 
40

>  <SMILES>  (42) 
COc1ccc(C2=[N+](O)Cn3c([nH+]c4cc(C)ccc43)C2)cc1

>  <Energy>  (42) 
95.95673620187534

>  <Genealogy>  (42) 
COc1ccc(C2=[N+](O)Cn3c([nH+]c4cc(C)ccc43)C2)cc1 (protonated)
COc1ccc(C2=[N+](O)Cn3c([nH+]c4cc(C)ccc43)C2)cc1 (3D coordinates assigned)
COc1ccc(C2=[N+](O)Cn3c([nH+]c4cc(C)ccc43)C2)cc1 (nonaromatic ring conformer: 95.95673620187534 kcal/mol)

>  <smiles>  (42) 
COc1ccc(C2=[N+]([O-])Cn3c(nc4cc(C)ccc43)C2)cc1

>  <score_type>  (42) 
oracle

>  <origin>  (42) 
adg

>  <m_score__min__energy>  (42) 
-4.6500000000000004

>  <m_primary>  (42) 
energy

$$$$
42:0
     RDKit          3D

 50 53  0  0  0  0  0  0  0  0999 V2000
   55.8990   29.1440   45.2470 O   0  0  0  0  0  0  0  0  0  0  0  0
   57.0190   28.5790   45.1210 C   0  0  0  0  0  0  0  0  0  0  0  0
   58.1290   29.3140   44.5810 N   0  0  0  0  0  0  0  0  0  0  0  0
   58.2450   30.7460   44.6430 C   0  0  0  0  0  0  0  0  0  0  0  0
   58.0060   31.5100   43.4790 C   0  0  0  0  0  0  0  0  0  0  0  0
   58.1610   32.9030   43.4960 C   0  0  0  0  0  0  0  0  0  0  0  0
   58.5530   33.5180   44.6840 C   0  0  0  0  0  0  0  0  0  0  0  0
   58.7770   32.7940   45.8220 C   0  0  0  0  0  0  0  0  0  0  0  0
   58.6610   31.3980   45.8260 C   0  0  0  0  0  0  0  0  0  0  0  0
   59.2120   33.6310   46.8860 N   0  0  0  0  0  0  0  0  0  0  0  0
   59.3280   33.2630   48.2750 C   0  0  0  0  0  0  0  0  0  0  0  0
   58.5150   32.4450   48.7840 O   0  0  0  0  0  0  0  0  0  0  0  0
   60.4100   33.8340   49.1470 C   0  0  0  0  0  0  0  0  0  0  0  0
   61.4600   32.8210   49.3760 N   0  0  0  0  0  0  0  0  0  0  0  0
   61.4580   31.7300   48.3660 C   0  0  0  0  0  0  0  0  0  0  0  0
   62.6390   31.7670   47.3850 C   0  0  0  0  0  0  0  0  0  0  0  0
   62.9120   33.4550   46.7650 S   0  0  0  0  0  0  0  0  0  0  0  0
   63.3130   34.2100   48.3880 C   0  0  0  0  0  0  0  0  0  0  0  0
   62.7900   33.4250   49.6040 C   0  0  0  0  0  0  0  0  0  0  0  0
   59.3190   35.0020   46.3790 C   0  0  0  0  0  0  0  0  0  0  0  0
   58.8330   34.9610   44.9120 C   0  0  0  0  0  0  0  0  0  0  0  0
   57.1580   27.1480   45.4850 C   0  0  0  0  0  0  0  0  0  0  0  0
   58.3710   26.4720   45.2550 C   0  0  0  0  0  0  0  0  0  0  0  0
   58.5050   25.1210   45.5890 C   0  0  0  0  0  0  0  0  0  0  0  0
   57.4320   24.4280   46.1480 C   0  0  0  0  0  0  0  0  0  0  0  0
   56.2200   25.0840   46.3710 C   0  0  0  0  0  0  0  0  0  0  0  0
   56.0800   26.4350   46.0410 C   0  0  0  0  0  0  0  0  0  0  0  0
   58.8550   28.7880   44.0420 H   0  0  0  0  0  0  0  0  0  0  0  0
   57.6955   31.0073   42.5512 H   0  0  0  0  0  0  0  0  0  0  0  0
   57.9770   33.4990   42.5900 H   0  0  0  0  0  0  0  0  0  0  0  0
   58.8895   30.8197   46.7334 H   0  0  0  0  0  0  0  0  0  0  0  0
   60.8518   34.7114   48.6521 H   0  0  0  0  0  0  0  0  0  0  0  0
   59.9766   34.1303   50.1136 H   0  0  0  0  0  0  0  0  0  0  0  0
   61.4846   30.7683   48.8993 H   0  0  0  0  0  0  0  0  0  0  0  0
   60.5472   31.8634   47.7637 H   0  0  0  0  0  0  0  0  0  0  0  0
   63.5470   31.4211   47.9007 H   0  0  0  0  0  0  0  0  0  0  0  0
   62.4093   31.1113   46.5322 H   0  0  0  0  0  0  0  0  0  0  0  0
   64.4073   34.2838   48.4716 H   0  0  0  0  0  0  0  0  0  0  0  0
   62.8128   35.1895   48.4094 H   0  0  0  0  0  0  0  0  0  0  0  0
   63.5045   32.6213   49.8355 H   0  0  0  0  0  0  0  0  0  0  0  0
   62.6883   34.1378   50.4356 H   0  0  0  0  0  0  0  0  0  0  0  0
   58.6849   35.6778   46.9716 H   0  0  0  0  0  0  0  0  0  0  0  0
   60.3518   35.3744   46.4479 H   0  0  0  0  0  0  0  0  0  0  0  0
   57.9226   35.5644   44.7816 H   0  0  0  0  0  0  0  0  0  0  0  0
   59.5666   35.3741   44.2040 H   0  0  0  0  0  0  0  0  0  0  0  0
   59.2200   27.0108   44.8091 H   0  0  0  0  0  0  0  0  0  0  0  0
   59.4591   24.6036   45.4104 H   0  0  0  0  0  0  0  0  0  0  0  0
   57.5403   23.3659   46.4129 H   0  0  0  0  0  0  0  0  0  0  0  0
   55.3723   24.5358   46.8079 H   0  0  0  0  0  0  0  0  0  0  0  0
   55.1209   26.9440   46.2171 H   0  0  0  0  0  0  0  0  0  0  0  0
  1  2  2  0
  2  3  1  0
  3  4  1  0
  4  5  2  0
  5  6  1  0
  6  7  2  0
  7  8  1  0
  8  9  2  0
  8 10  1  0
 10 11  1  0
 11 12  2  0
 11 13  1  0
 13 14  1  0
 14 15  1  0
 15 16  1  0
 16 17  1  0
 17 18  1  0
 18 19  1  0
 10 20  1  0
 20 21  1  0
  2 22  1  0
 22 23  2  0
 23 24  1  0
 24 25  2  0
 25 26  1  0
 26 27  2  0
  9  4  1  0
 19 14  1  0
 27 22  1  0
 21  7  1  0
  3 28  1  0
  5 29  1  0
  6 30  1  0
  9 31  1  0
 13 32  1  0
 13 33  1  0
 15 34  1  0
 15 35  1  0
 16 36  1  0
 16 37  1  0
 18 38  1  0
 18 39  1  0
 19 40  1  0
 19 41  1  0
 20 42  1  0
 20 43  1  0
 21 44  1  0
 21 45  1  0
 23 46  1  0
 24 47  1  0
 25 48  1  0
 26 49  1  0
 27 50  1  0
M  END
>  <UniqueID>  (43) 
41

>  <SMILES>  (43) 
O=C(Nc1ccc2c(c1)N(C(=O)CN1CCSCC1)CC2)c1ccccc1

>  <Energy>  (43) 
82.51534050682586

>  <Genealogy>  (43) 
O=C(Nc1ccc2c(c1)N(C(=O)CN1CCSCC1)CC2)c1ccccc1 (3D coordinates assigned)
O=C(Nc1ccc2c(c1)N(C(=O)CN1CCSCC1)CC2)c1ccccc1 (nonaromatic ring conformer: 82.51534050682586 kcal/mol)

>  <smiles>  (43) 
O=C(Nc1ccc2c(c1)N(C(=O)CN1CCSCC1)CC2)c1ccccc1

>  <score_type>  (43) 
oracle

>  <origin>  (43) 
adg

>  <m_score__min__energy>  (43) 
-8.7200000000000006

>  <m_primary>  (43) 
energy

$$$$
43:0
     RDKit          3D

 40 42  0  0  0  0  0  0  0  0999 V2000
   59.9131   24.8075   45.5369 H   0  0  0  0  0  0  0  0  0  0  0  0
   58.8940   25.2020   45.6630 C   0  0  0  0  0  0  0  0  0  0  0  0
   58.6990   26.5340   45.8480 N   0  0  0  0  0  0  0  0  0  0  0  0
   57.4630   27.0810   46.0160 C   0  0  0  0  0  0  0  0  0  0  0  0
   57.3940   28.3720   46.1950 N   0  0  0  0  0  0  0  0  0  0  0  0
   56.9140   29.3850   45.2980 C   0  0  0  0  0  0  0  0  0  0  0  0
   55.9020   29.1570   44.5830 O   0  0  0  0  0  0  0  0  0  0  0  0
   57.5650   30.7200   45.2860 C   0  0  0  0  0  0  0  0  0  0  0  0
   58.1000   31.2170   46.4870 C   0  0  0  0  0  0  0  0  0  0  0  0
   58.0261   30.6082   47.4002 H   0  0  0  0  0  0  0  0  0  0  0  0
   58.7260   32.4710   46.5490 C   0  0  0  0  0  0  0  0  0  0  0  0
   59.3400   33.0240   48.1220 S   0  0  0  0  0  0  0  0  0  0  0  0
   59.1630   34.5150   48.2130 O   0  0  0  0  0  0  0  0  0  0  0  0
   58.5530   32.4120   49.2480 O   0  0  0  0  0  0  0  0  0  0  0  0
   61.0350   32.6380   48.3280 N   0  0  0  0  0  0  0  0  0  0  0  0
   61.4310   31.5420   47.4260 C   0  0  0  0  0  0  0  0  0  0  0  0
   61.0841   30.5856   47.8442 H   0  0  0  0  0  0  0  0  0  0  0  0
   60.9759   31.7111   46.4389 H   0  0  0  0  0  0  0  0  0  0  0  0
   62.9590   31.5010   47.2690 C   0  0  0  0  0  0  0  0  0  0  0  0
   63.4031   31.3256   48.2599 H   0  0  0  0  0  0  0  0  0  0  0  0
   63.1820   30.6956   46.5537 H   0  0  0  0  0  0  0  0  0  0  0  0
   63.5220   32.6930   46.7320 O   0  0  0  0  0  0  0  0  0  0  0  0
   62.6920   33.8370   46.8790 C   0  0  0  0  0  0  0  0  0  0  0  0
   63.3260   34.7355   46.8535 H   0  0  0  0  0  0  0  0  0  0  0  0
   61.9647   33.8237   46.0539 H   0  0  0  0  0  0  0  0  0  0  0  0
   61.8940   33.8370   48.1960 C   0  0  0  0  0  0  0  0  0  0  0  0
   62.6006   33.8614   49.0387 H   0  0  0  0  0  0  0  0  0  0  0  0
   61.2413   34.7224   48.1961 H   0  0  0  0  0  0  0  0  0  0  0  0
   58.8300   33.2420   45.3710 C   0  0  0  0  0  0  0  0  0  0  0  0
   59.5950   34.8280   45.3290 Cl  0  0  0  0  0  0  0  0  0  0  0  0
   58.3030   32.7530   44.1730 C   0  0  0  0  0  0  0  0  0  0  0  0
   58.3880   33.3580   43.2582 H   0  0  0  0  0  0  0  0  0  0  0  0
   57.6700   31.5090   44.1170 C   0  0  0  0  0  0  0  0  0  0  0  0
   56.9830   31.0210   42.5700 Cl  0  0  0  0  0  0  0  0  0  0  0  0
   56.3280   26.2310   45.9460 C   0  0  0  0  0  0  0  0  0  0  0  0
   55.0270   26.7150   45.9910 O   0  0  0  0  0  0  0  0  0  0  0  0
   56.5180   24.8560   45.7720 C   0  0  0  0  0  0  0  0  0  0  0  0
   55.6489   24.1823   45.7448 H   0  0  0  0  0  0  0  0  0  0  0  0
   57.8030   24.3360   45.6330 C   0  0  0  0  0  0  0  0  0  0  0  0
   57.9544   23.2545   45.5011 H   0  0  0  0  0  0  0  0  0  0  0  0
  1  2  1  0
  2  3  1  0
  3  4  1  0
  4  5  2  0
  5  6  1  0
  6  7  2  0
  6  8  1  0
  8  9  2  0
  9 10  1  0
  9 11  1  0
 11 12  1  0
 12 13  2  0
 12 14  2  0
 12 15  1  0
 15 16  1  0
 16 17  1  0
 16 18  1  0
 16 19  1  0
 19 20  1  0
 19 21  1  0
 19 22  1  0
 22 23  1  0
 23 24  1  0
 23 25  1  0
 23 26  1  0
 26 27  1  0
 26 28  1  0
 11 29  2  0
 29 30  1  0
 29 31  1  0
 31 32  1  0
 31 33  2  0
 33 34  1  0
  4 35  1  0
 35 36  1  0
 35 37  2  0
 37 38  1  0
 37 39  1  0
 39 40  1  0
 39  2  2  0
 33  8  1  0
 26 15  1  0
M  CHG  2   3  -1  36  -1
M  END
>  <UniqueID>  (44) 
42

>  <SMILES>  (44) 
O=C(/N=c1/[n-]cccc1[O-])c1cc(S(=O)(=O)N2CCOCC2)c(Cl)cc1Cl

>  <Energy>  (44) 
73.54990242750459

>  <Genealogy>  (44) 
O=C(N=c1[n-]cccc1[O-])c1cc(S(=O)(=O)N2CCOCC2)c(Cl)cc1Cl (protonated)
O=C(/N=c1/[n-]cccc1[O-])c1cc(S(=O)(=O)N2CCOCC2)c(Cl)cc1Cl (cis-trans isomerization)
O=C(/N=c1/[n-]cccc1[O-])c1cc(S(=O)(=O)N2CCOCC2)c(Cl)cc1Cl (3D coordinates assigned)
O=C(/N=c1/[n-]cccc1[O-])c1cc(S(=O)(=O)N2CCOCC2)c(Cl)cc1Cl (nonaromatic ring conformer: 73.54990242750459 kcal/mol)

>  <smiles>  (44) 
O=C(N=c1[nH]cccc1O)c1cc(S(=O)(=O)N2CCOCC2)c(Cl)cc1Cl

>  <score_type>  (44) 
oracle

>  <origin>  (44) 
adg

>  <m_score__min__energy>  (44) 
-14.619999999999999

>  <m_primary>  (44) 
energy

$$$$
44:0
     RDKit          3D

 41 43  0  0  0  0  0  0  0  0999 V2000
   55.6920   30.0850   52.4010 C   0  0  0  0  0  0  0  0  0  0  0  0
   56.8280   30.9130   51.8880 C   0  0  0  0  0  0  0  0  0  0  0  0
   57.1080   32.1590   52.4550 C   0  0  0  0  0  0  0  0  0  0  0  0
   58.1760   32.9010   51.9420 C   0  0  0  0  0  0  0  0  0  0  0  0
   58.5130   34.2400   52.5150 C   0  0  0  0  0  0  0  0  0  0  0  0
   58.9080   32.4000   50.9130 N   0  0  0  0  0  0  0  0  0  0  0  0
   58.6250   31.1840   50.3670 C   0  0  0  0  0  0  0  0  0  0  0  0
   59.3240   30.7050   49.3790 N   0  0  0  0  0  0  0  0  0  0  0  0
   58.8720   29.8020   48.3530 C   0  0  0  0  0  0  0  0  0  0  0  0
   58.6640   28.5860   48.6200 O   0  0  0  0  0  0  0  0  0  0  0  0
   58.6210   30.3190   46.9830 C   0  0  0  0  0  0  0  0  0  0  0  0
   58.4860   31.7080   46.7960 C   0  0  0  0  0  0  0  0  0  0  0  0
   58.2160   32.2370   45.5330 C   0  0  0  0  0  0  0  0  0  0  0  0
   58.0800   31.3920   44.4340 C   0  0  0  0  0  0  0  0  0  0  0  0
   58.2210   30.0130   44.5930 C   0  0  0  0  0  0  0  0  0  0  0  0
   58.4910   29.4630   45.8560 C   0  0  0  0  0  0  0  0  0  0  0  0
   58.7050   27.9990   45.9450 C   0  0  0  0  0  0  0  0  0  0  0  0
   60.0180   27.5390   46.1440 C   0  0  0  0  0  0  0  0  0  0  0  0
   60.2930   26.1730   46.1780 C   0  0  0  0  0  0  0  0  0  0  0  0
   59.2640   25.2490   46.0070 C   0  0  0  0  0  0  0  0  0  0  0  0
   57.9520   25.6880   45.8090 C   0  0  0  0  0  0  0  0  0  0  0  0
   57.6480   27.0620   45.7830 C   0  0  0  0  0  0  0  0  0  0  0  0
   56.2280   27.4690   45.6150 C   0  0  0  0  0  0  0  0  0  0  0  0
   55.9230   28.5970   45.1480 O   0  0  0  0  0  0  0  0  0  0  0  0
   55.2060   26.6100   46.0060 O   0  0  0  0  0  0  0  0  0  0  0  0
   57.5900   30.4560   50.8580 N   0  0  0  0  0  0  0  0  0  0  0  0
   55.7010   30.0915   53.5009 H   0  0  0  0  0  0  0  0  0  0  0  0
   54.7410   30.5032   52.0396 H   0  0  0  0  0  0  0  0  0  0  0  0
   55.7990   29.0516   52.0396 H   0  0  0  0  0  0  0  0  0  0  0  0
   56.5016   32.5474   53.2865 H   0  0  0  0  0  0  0  0  0  0  0  0
   58.4986   34.1829   53.6134 H   0  0  0  0  0  0  0  0  0  0  0  0
   59.5152   34.5420   52.1766 H   0  0  0  0  0  0  0  0  0  0  0  0
   57.7732   34.9804   52.1766 H   0  0  0  0  0  0  0  0  0  0  0  0
   58.5947   32.3848   47.6563 H   0  0  0  0  0  0  0  0  0  0  0  0
   58.1103   33.3244   45.4051 H   0  0  0  0  0  0  0  0  0  0  0  0
   57.8615   31.8118   43.4410 H   0  0  0  0  0  0  0  0  0  0  0  0
   58.1197   29.3507   43.7206 H   0  0  0  0  0  0  0  0  0  0  0  0
   60.8357   28.2632   46.2740 H   0  0  0  0  0  0  0  0  0  0  0  0
   61.3235   25.8239   46.3400 H   0  0  0  0  0  0  0  0  0  0  0  0
   59.4849   24.1716   46.0279 H   0  0  0  0  0  0  0  0  0  0  0  0
   57.1472   24.9508   45.6718 H   0  0  0  0  0  0  0  0  0  0  0  0
  1  2  1  0
  2  3  1  0
  3  4  2  0
  4  5  1  0
  4  6  1  0
  6  7  1  0
  7  8  2  3
  8  9  1  0
  9 10  2  0
  9 11  1  0
 11 12  2  0
 12 13  1  0
 13 14  2  0
 14 15  1  0
 15 16  2  0
 16 17  1  0
 17 18  2  0
 18 19  1  0
 19 20  2  0
 20 21  1  0
 21 22  2  0
 22 23  1  0
 23 24  2  0
 23 25  1  0
  7 26  1  0
 26  2  2  0
 16 11  1  0
 22 17  1  0
  1 27  1  0
  1 28  1  0
  1 29  1  0
  3 30  1  0
  5 31  1  0
  5 32  1  0
  5 33  1  0
 12 34  1  0
 13 35  1  0
 14 36  1  0
 15 37  1  0
 18 38  1  0
 19 39  1  0
 20 40  1  0
 21 41  1  0
M  CHG  2   6  -1  25  -1
M  END
>  <UniqueID>  (45) 
43

>  <SMILES>  (45) 
Cc1cc(C)[n-]c(=NC(=O)c2ccccc2-c2ccccc2C(=O)[O-])n1

>  <Energy>  (45) 
59.463913977778816

>  <Genealogy>  (45) 
Cc1cc(C)[n-]c(=NC(=O)c2ccccc2-c2ccccc2C(=O)[O-])n1 (protonated)
Cc1cc(C)[n-]c(=NC(=O)c2ccccc2-c2ccccc2C(=O)[O-])n1 (3D coordinates assigned)
Cc1cc(C)[n-]c(=NC(=O)c2ccccc2-c2ccccc2C(=O)[O-])n1 (optimized conformer: 59.463913977778816 kcal/mol)

>  <smiles>  (45) 
Cc1cc(C)[nH]c(=NC(=O)c2ccccc2-c2ccccc2C(=O)O)n1

>  <score_type>  (45) 
oracle

>  <origin>  (45) 
adg

>  <m_score__min__energy>  (45) 
-12.039999999999999

>  <m_primary>  (45) 
energy

$$$$
45:0
     RDKit          3D

 44 46  0  0  1  0  0  0  0  0999 V2000
   57.0390   33.0690   39.9620 C   0  0  0  0  0  0  0  0  0  0  0  0
   57.3160   32.1520   41.1290 C   0  0  0  0  0  0  0  0  0  0  0  0
   58.7080   34.1380   46.3740 N   0  0  0  0  0  0  0  0  0  0  0  0
   58.3960   33.1800   45.5650 C   0  0  0  0  0  0  0  0  0  0  0  0
   57.7680   31.2570   43.8640 N   0  0  0  0  0  0  0  0  0  0  0  0
   57.7050   30.9700   45.1770 C   0  0  0  0  0  0  0  0  0  0  0  0
   58.1870   32.7190   42.1240 N   0  0  0  0  0  0  0  0  0  0  0  0
   58.1300   32.4580   43.3780 C   0  0  0  0  0  0  0  0  0  0  0  0
   57.3240   27.3270   45.4680 C   0  0  0  0  0  0  0  0  0  0  0  0
   57.7770   26.4790   44.4670 C   0  0  0  0  0  0  0  0  0  0  0  0
   57.7240   24.9920   44.4560 C   0  0  0  0  0  0  0  0  0  0  0  0
   58.2810   27.2570   43.4920 N   0  0  0  0  0  0  0  0  0  0  0  0
   58.1690   28.5450   43.8300 N   0  0  0  0  0  0  0  0  0  0  0  0
   58.0310   31.9730   46.0360 N   0  0  0  0  0  0  0  0  0  0  0  0
   57.5820   28.5990   45.0410 C   0  0  0  0  0  0  0  0  0  0  0  0
   57.3180   29.6910   45.6730 N   0  0  0  0  0  0  0  0  0  0  0  0
   60.0350   34.7220   46.2300 C   0  0  0  0  0  0  0  0  0  0  0  0
   61.0810   33.8700   46.8170 C   0  0  0  0  0  0  0  0  0  0  0  0
   62.3950   33.8520   46.3720 C   0  0  0  0  0  0  0  0  0  0  0  0
   63.3330   33.0240   46.9710 C   0  0  0  0  0  0  0  0  0  0  0  0
   62.9120   32.2160   48.0300 C   0  0  0  0  0  0  0  0  0  0  0  0
   61.6120   32.2200   48.4860 C   0  0  0  0  0  0  0  0  0  0  0  0
   60.6980   33.0460   47.8810 C   0  0  0  0  0  0  0  0  0  0  0  0
   58.4480   33.4320   44.2430 N   0  0  0  0  0  0  0  0  0  0  0  0
   56.7399   34.0591   40.3366 H   0  0  0  0  0  0  0  0  0  0  0  0
   57.9474   33.1677   39.3496 H   0  0  0  0  0  0  0  0  0  0  0  0
   56.2279   32.6483   39.3496 H   0  0  0  0  0  0  0  0  0  0  0  0
   56.3579   31.9036   41.6089 H   0  0  0  0  0  0  0  0  0  0  0  0
   57.8285   31.2669   40.7240 H   0  0  0  0  0  0  0  0  0  0  0  0
   56.8511   27.0333   46.4168 H   0  0  0  0  0  0  0  0  0  0  0  0
   57.7107   24.6179   45.4904 H   0  0  0  0  0  0  0  0  0  0  0  0
   56.8135   24.6614   43.9348 H   0  0  0  0  0  0  0  0  0  0  0  0
   58.6086   24.5974   43.9348 H   0  0  0  0  0  0  0  0  0  0  0  0
   58.7170   26.9820   42.5740 H   0  0  0  0  0  0  0  0  0  0  0  0
   58.4820   29.3670   43.2510 H   0  0  0  0  0  0  0  0  0  0  0  0
   57.9850   31.7590   47.0610 H   0  0  0  0  0  0  0  0  0  0  0  0
   60.2481   34.8587   45.1595 H   0  0  0  0  0  0  0  0  0  0  0  0
   60.0418   35.6836   46.7642 H   0  0  0  0  0  0  0  0  0  0  0  0
   62.6959   34.5006   45.5361 H   0  0  0  0  0  0  0  0  0  0  0  0
   64.3763   33.0042   46.6228 H   0  0  0  0  0  0  0  0  0  0  0  0
   63.6435   31.5539   48.5164 H   0  0  0  0  0  0  0  0  0  0  0  0
   61.3113   31.5713   49.3219 H   0  0  0  0  0  0  0  0  0  0  0  0
   59.6567   33.0603   48.2352 H   0  0  0  0  0  0  0  0  0  0  0  0
   58.7380   34.3870   43.9220 H   0  0  0  0  0  0  0  0  0  0  0  0
  1  2  1  0
  2  3  1  0
  3  4  2  0
  4  5  1  0
  5  6  2  0
  6  7  1  0
  7  8  2  0
  8  9  1  0
  9 10  2  0
 10 11  1  0
 10 12  1  0
 12 13  1  0
  6 14  1  0
 14 15  1  0
 15 16  2  0
 16 17  1  0
 17 18  1  0
 18 19  2  0
 19 20  1  0
 20 21  2  0
 21 22  1  0
 22 23  2  0
 15 24  1  0
 24  4  1  0
 13  8  1  0
 23 18  1  0
  1 25  1  0
  1 26  1  0
  1 27  1  0
  2 28  1  0
  2 29  1  0
  9 30  1  0
 11 31  1  0
 11 32  1  0
 11 33  1  0
 12 34  1  0
 13 35  1  0
 14 36  1  0
 17 37  1  0
 17 38  1  0
 19 39  1  0
 20 40  1  0
 21 41  1  0
 22 42  1  0
 23 43  1  0
 24 44  1  0
M  END
>  <smiles>  (46) 
CCN=c1nc(N=c2cc(C)[nH][nH]2)[nH]c(=NCc2ccccc2)[nH]1

>  <score_type>  (46) 
oracle

>  <origin>  (46) 
adg

>  <m_score__min__energy>  (46) 
-7.71

>  <m_primary>  (46) 
energy

$$$$
46:0
     RDKit          3D

 45 47  0  0  0  0  0  0  0  0999 V2000
   56.3040   30.0350   52.7500 C   0  0  0  0  0  0  0  0  0  0  0  0
   57.3910   29.8030   51.8590 O   0  0  0  0  0  0  0  0  0  0  0  0
   58.0680   30.8110   51.1520 C   0  0  0  0  0  0  0  0  0  0  0  0
   58.0870   32.1470   51.5920 C   0  0  0  0  0  0  0  0  0  0  0  0
   58.7700   33.1210   50.8620 C   0  0  0  0  0  0  0  0  0  0  0  0
   59.4550   32.7780   49.6890 C   0  0  0  0  0  0  0  0  0  0  0  0
   60.1580   33.8370   48.8830 C   0  0  0  0  0  0  0  0  0  0  0  0
   59.1650   34.5580   47.9610 C   0  0  0  0  0  0  0  0  0  0  0  0
   59.6870   34.7360   46.5530 C   0  0  0  0  0  0  0  0  0  0  0  0
   59.9420   35.8930   46.1240 O   0  0  0  0  0  0  0  0  0  0  0  0
   59.9090   33.6240   45.6680 N   0  0  0  0  0  0  0  0  0  0  0  0
   59.2860   32.4810   45.6380 C   0  0  0  0  0  0  0  0  0  0  0  0
   58.1130   32.2620   44.9930 N   0  0  0  0  0  0  0  0  0  0  0  0
   57.7250   30.9700   45.1310 C   0  0  0  0  0  0  0  0  0  0  0  0
   56.5600   30.4330   44.5810 C   0  0  0  0  0  0  0  0  0  0  0  0
   56.2750   29.0750   44.7950 C   0  0  0  0  0  0  0  0  0  0  0  0
   57.1480   28.2680   45.5580 C   0  0  0  0  0  0  0  0  0  0  0  0
   56.7860   26.5630   45.8040 S   0  0  0  0  0  0  0  0  0  0  0  0
   55.0800   26.3550   45.9810 N   0  0  0  0  0  0  0  0  0  0  0  0
   57.2660   25.7670   44.6220 O   0  0  0  0  0  0  0  0  0  0  0  0
   57.4850   26.0640   47.0370 O   0  0  0  0  0  0  0  0  0  0  0  0
   58.3230   28.8230   46.1000 C   0  0  0  0  0  0  0  0  0  0  0  0
   58.5810   30.1710   45.8720 C   0  0  0  0  0  0  0  0  0  0  0  0
   59.8870   31.0900   46.3890 S   0  0  0  0  0  0  0  0  0  0  0  0
   59.4270   31.4480   49.2400 C   0  0  0  0  0  0  0  0  0  0  0  0
   58.7400   30.4600   49.9700 C   0  0  0  0  0  0  0  0  0  0  0  0
   58.6990   29.1190   49.5540 O   0  0  0  0  0  0  0  0  0  0  0  0
   59.8000   28.4160   48.9870 C   0  0  0  0  0  0  0  0  0  0  0  0
   56.6586   29.9593   53.7885 H   0  0  0  0  0  0  0  0  0  0  0  0
   55.8945   31.0408   52.5747 H   0  0  0  0  0  0  0  0  0  0  0  0
   55.5195   29.2841   52.5747 H   0  0  0  0  0  0  0  0  0  0  0  0
   57.5605   32.4257   52.5167 H   0  0  0  0  0  0  0  0  0  0  0  0
   58.7705   34.1645   51.2099 H   0  0  0  0  0  0  0  0  0  0  0  0
   60.6145   34.5684   49.5661 H   0  0  0  0  0  0  0  0  0  0  0  0
   60.9334   33.3588   48.2665 H   0  0  0  0  0  0  0  0  0  0  0  0
   58.2361   33.9703   47.9186 H   0  0  0  0  0  0  0  0  0  0  0  0
   58.9977   35.5617   48.3789 H   0  0  0  0  0  0  0  0  0  0  0  0
   55.8776   31.0622   43.9907 H   0  0  0  0  0  0  0  0  0  0  0  0
   55.3633   28.6353   44.3644 H   0  0  0  0  0  0  0  0  0  0  0  0
   54.7520   27.0920   46.6460 H   0  0  0  0  0  0  0  0  0  0  0  0
   59.0189   28.2069   46.6884 H   0  0  0  0  0  0  0  0  0  0  0  0
   59.9466   31.1757   48.3095 H   0  0  0  0  0  0  0  0  0  0  0  0
   60.4315   28.0128   49.7923 H   0  0  0  0  0  0  0  0  0  0  0  0
   59.4261   27.5891   48.3653 H   0  0  0  0  0  0  0  0  0  0  0  0
   60.3928   29.1031   48.3653 H   0  0  0  0  0  0  0  0  0  0  0  0
  1  2  1  0
  2  3  1  0
  3  4  2  0
  4  5  1  0
  5  6  2  0
  6  7  1  0
  7  8  1  0
  8  9  1  0
  9 10  2  0
  9 11  1  0
 11 12  2  3
 12 13  1  0
 13 14  1  0
 14 15  2  0
 15 16  1  0
 16 17  2  0
 17 18  1  0
 18 19  1  0
 18 20  2  0
 18 21  2  0
 17 22  1  0
 22 23  2  0
 23 24  1  0
  6 25  1  0
 25 26  2  0
 26 27  1  0
 27 28  1  0
 26  3  1  0
 24 12  1  0
 23 14  1  0
  1 29  1  0
  1 30  1  0
  1 31  1  0
  4 32  1  0
  5 33  1  0
  7 34  1  0
  7 35  1  0
  8 36  1  0
  8 37  1  0
 15 38  1  0
 16 39  1  0
 19 40  1  0
 22 41  1  0
 25 42  1  0
 28 43  1  0
 28 44  1  0
 28 45  1  0
M  CHG  2  13  -1  19  -1
M  END
>  <UniqueID>  (47) 
44

>  <SMILES>  (47) 
COc1ccc(CCC(=O)N=c2[n-]c3ccc(S([NH-])(=O)=O)cc3s2)cc1OC

>  <Energy>  (47) 
81.77362092804348

>  <Genealogy>  (47) 
COc1ccc(CCC(=O)N=c2[n-]c3ccc(S([NH-])(=O)=O)cc3s2)cc1OC (protonated)
COc1ccc(CCC(=O)N=c2[n-]c3ccc(S([NH-])(=O)=O)cc3s2)cc1OC (3D coordinates assigned)
COc1ccc(CCC(=O)N=c2[n-]c3ccc(S([NH-])(=O)=O)cc3s2)cc1OC (optimized conformer: 81.77362092804348 kcal/mol)

>  <smiles>  (47) 
COc1ccc(CCC(=O)N=c2[nH]c3ccc(S(N)(=O)=O)cc3s2)cc1OC

>  <score_type>  (47) 
oracle

>  <origin>  (47) 
adg

>  <m_score__min__energy>  (47) 
-12.380000000000001

>  <m_primary>  (47) 
energy

$$$$
47:0
     RDKit          3D

 69 72  0  0  0  0  0  0  0  0999 V2000
   54.5540   23.8020   44.0910 N   0  0  0  0  0  0  0  0  0  0  0  0
   55.8370   23.1850   44.2510 C   0  0  0  0  0  0  0  0  0  0  0  0
   56.2850   22.2650   43.2890 C   0  0  0  0  0  0  0  0  0  0  0  0
   57.5280   21.6440   43.4280 C   0  0  0  0  0  0  0  0  0  0  0  0
   58.3330   21.9300   44.5320 C   0  0  0  0  0  0  0  0  0  0  0  0
   57.8980   22.8400   45.4970 C   0  0  0  0  0  0  0  0  0  0  0  0
   56.6630   23.5000   45.3500 C   0  0  0  0  0  0  0  0  0  0  0  0
   56.2170   24.4590   46.3220 N   0  0  0  0  0  0  0  0  0  0  0  0
   55.9670   25.8500   46.0780 C   0  0  0  0  0  0  0  0  0  0  0  0
   54.7830   26.2680   45.9810 O   0  0  0  0  0  0  0  0  0  0  0  0
   57.0920   26.8150   46.0320 C   0  0  0  0  0  0  0  0  0  0  0  0
   57.9390   26.9920   47.1410 C   0  0  0  0  0  0  0  0  0  0  0  0
   58.9670   27.9420   47.1020 C   0  0  0  0  0  0  0  0  0  0  0  0
   59.1670   28.7240   45.9570 C   0  0  0  0  0  0  0  0  0  0  0  0
   60.2760   29.7440   45.9160 C   0  0  0  0  0  0  0  0  0  0  0  0
   60.0080   30.8450   46.8410 N   0  0  0  0  0  0  0  0  0  0  0  0
   58.7160   31.4650   46.9550 C   0  0  0  0  0  0  0  0  0  0  0  0
   57.8220   31.2210   46.1000 O   0  0  0  0  0  0  0  0  0  0  0  0
   58.4540   32.4720   48.0410 C   0  0  0  0  0  0  0  0  0  0  0  0
   59.2620   33.7590   47.8170 C   0  0  0  0  0  0  0  0  0  0  0  0
   60.7460   33.5010   47.9200 C   0  0  0  0  0  0  0  0  0  0  0  0
   61.5700   33.7670   46.8160 C   0  0  0  0  0  0  0  0  0  0  0  0
   62.9360   33.5010   46.8740 C   0  0  0  0  0  0  0  0  0  0  0  0
   63.4900   32.9470   48.0260 C   0  0  0  0  0  0  0  0  0  0  0  0
   62.6940   32.6840   49.1460 C   0  0  0  0  0  0  0  0  0  0  0  0
   63.5520   31.7460   50.5860 Br  0  0  0  0  0  0  0  0  0  0  0  0
   61.3100   33.0100   49.1200 C   0  0  0  0  0  0  0  0  0  0  0  0
   60.4510   32.8730   50.2260 O   0  0  0  0  0  0  0  0  0  0  0  0
   59.8650   33.9350   50.9780 C   0  0  0  0  0  0  0  0  0  0  0  0
   58.5780   33.4430   51.6410 C   0  0  0  0  0  0  0  0  0  0  0  0
   58.7850   32.1040   52.1880 N   0  0  0  0  0  0  0  0  0  0  0  0
   57.9180   30.9310   51.1820 S   0  0  0  0  0  0  0  0  0  0  0  0
   59.3510   29.8680   51.0390 C   0  0  0  0  0  0  0  0  0  0  0  0
   59.6160   29.2030   49.8340 C   0  0  0  0  0  0  0  0  0  0  0  0
   60.7590   28.4080   49.7310 C   0  0  0  0  0  0  0  0  0  0  0  0
   61.6210   28.2850   50.8230 C   0  0  0  0  0  0  0  0  0  0  0  0
   61.3180   28.9580   52.0120 C   0  0  0  0  0  0  0  0  0  0  0  0
   60.2010   29.7320   52.0930 N   0  0  0  0  0  0  0  0  0  0  0  0
   58.3320   28.5390   44.8450 C   0  0  0  0  0  0  0  0  0  0  0  0
   57.3060   27.5930   44.8820 C   0  0  0  0  0  0  0  0  0  0  0  0
   53.9400   23.5830   43.2770 H   0  0  0  0  0  0  0  0  0  0  0  0
   54.2360   24.5510   44.7480 H   0  0  0  0  0  0  0  0  0  0  0  0
   55.6523   22.0320   42.4199 H   0  0  0  0  0  0  0  0  0  0  0  0
   57.8731   20.9288   42.6668 H   0  0  0  0  0  0  0  0  0  0  0  0
   59.3107   21.4380   44.6416 H   0  0  0  0  0  0  0  0  0  0  0  0
   58.5243   23.0428   46.3783 H   0  0  0  0  0  0  0  0  0  0  0  0
   57.7930   26.3808   48.0438 H   0  0  0  0  0  0  0  0  0  0  0  0
   59.6216   28.0751   47.9759 H   0  0  0  0  0  0  0  0  0  0  0  0
   61.2220   29.2588   46.1983 H   0  0  0  0  0  0  0  0  0  0  0  0
   60.3417   30.1505   44.8960 H   0  0  0  0  0  0  0  0  0  0  0  0
   60.7700   31.1420   47.4940 H   0  0  0  0  0  0  0  0  0  0  0  0
   57.3821   32.7190   48.0494 H   0  0  0  0  0  0  0  0  0  0  0  0
   58.7603   32.0331   49.0020 H   0  0  0  0  0  0  0  0  0  0  0  0
   59.0358   34.1542   46.8157 H   0  0  0  0  0  0  0  0  0  0  0  0
   58.9813   34.4845   48.5947 H   0  0  0  0  0  0  0  0  0  0  0  0
   61.1342   34.1886   45.8982 H   0  0  0  0  0  0  0  0  0  0  0  0
   63.5776   33.7284   46.0099 H   0  0  0  0  0  0  0  0  0  0  0  0
   64.5646   32.7139   48.0553 H   0  0  0  0  0  0  0  0  0  0  0  0
   60.5715   34.2688   51.7523 H   0  0  0  0  0  0  0  0  0  0  0  0
   59.6326   34.7742   50.3059 H   0  0  0  0  0  0  0  0  0  0  0  0
   58.2995   34.1305   52.4533 H   0  0  0  0  0  0  0  0  0  0  0  0
   57.7729   33.4095   50.8922 H   0  0  0  0  0  0  0  0  0  0  0  0
   59.8100   31.8890   52.1210 H   0  0  0  0  0  0  0  0  0  0  0  0
   58.9313   29.3063   48.9793 H   0  0  0  0  0  0  0  0  0  0  0  0
   60.9802   27.8797   48.7919 H   0  0  0  0  0  0  0  0  0  0  0  0
   62.5275   27.6663   50.7493 H   0  0  0  0  0  0  0  0  0  0  0  0
   61.9835   28.8614   52.8825 H   0  0  0  0  0  0  0  0  0  0  0  0
   58.4866   29.1428   43.9386 H   0  0  0  0  0  0  0  0  0  0  0  0
   56.6593   27.4556   44.0028 H   0  0  0  0  0  0  0  0  0  0  0  0
  1  2  1  0
  2  3  2  0
  3  4  1  0
  4  5  2  0
  5  6  1  0
  6  7  2  0
  7  8  1  0
  8  9  1  0
  9 10  2  0
  9 11  1  0
 11 12  2  0
 12 13  1  0
 13 14  2  0
 14 15  1  0
 15 16  1  0
 16 17  1  0
 17 18  2  0
 17 19  1  0
 19 20  1  0
 20 21  1  0
 21 22  2  0
 22 23  1  0
 23 24  2  0
 24 25  1  0
 25 26  1  0
 25 27  2  0
 27 28  1  0
 28 29  1  0
 29 30  1  0
 30 31  1  0
 31 32  1  0
 32 33  1  0
 33 34  2  0
 34 35  1  0
 35 36  2  0
 36 37  1  0
 37 38  2  0
 14 39  1  0
 39 40  2  0
  7  2  1  0
 40 11  1  0
 27 21  1  0
 38 33  1  0
  1 41  1  0
  1 42  1  0
  3 43  1  0
  4 44  1  0
  5 45  1  0
  6 46  1  0
 12 47  1  0
 13 48  1  0
 15 49  1  0
 15 50  1  0
 16 51  1  0
 19 52  1  0
 19 53  1  0
 20 54  1  0
 20 55  1  0
 22 56  1  0
 23 57  1  0
 24 58  1  0
 29 59  1  0
 29 60  1  0
 30 61  1  0
 30 62  1  0
 31 63  1  0
 34 64  1  0
 35 65  1  0
 36 66  1  0
 37 67  1  0
 39 68  1  0
 40 69  1  0
M  CHG  1   8  -1
M  END
>  <UniqueID>  (48) 
45

>  <SMILES>  (48) 
Nc1ccccc1[N-]C(=O)c1ccc(CNC(=O)CCc2cccc(Br)c2OCCNSc2ccccn2)cc1

>  <Energy>  (48) 
69.9768487336843

>  <Genealogy>  (48) 
Nc1ccccc1[N-]C(=O)c1ccc(CNC(=O)CCc2cccc(Br)c2OCCNSc2ccccn2)cc1 (protonated)
Nc1ccccc1[N-]C(=O)c1ccc(CNC(=O)CCc2cccc(Br)c2OCCNSc2ccccn2)cc1 (3D coordinates assigned)
Nc1ccccc1[N-]C(=O)c1ccc(CNC(=O)CCc2cccc(Br)c2OCCNSc2ccccn2)cc1 (optimized conformer: 69.9768487336843 kcal/mol)

>  <smiles>  (48) 
Nc1ccccc1NC(=O)c1ccc(CNC(=O)CCc2cccc(Br)c2OCCNSc2ccccn2)cc1

>  <score_type>  (48) 
oracle

>  <origin>  (48) 
adg

>  <m_score__min__energy>  (48) 
-10.24

>  <m_primary>  (48) 
energy

$$$$
48:0
     RDKit          3D

 42 43  0  0  0  0  0  0  0  0999 V2000
   57.7560   32.0580   42.0670 C   0  0  0  0  0  0  0  0  0  0  0  0
   57.7740   32.7860   43.4070 C   0  0  0  0  0  0  0  0  0  0  0  0
   58.1550   31.8680   44.4920 N   0  0  0  0  0  0  0  0  0  0  0  0
   57.9300   30.4220   44.3180 C   0  0  0  0  0  0  0  0  0  0  0  0
   56.4650   30.0720   44.4200 C   0  0  0  0  0  0  0  0  0  0  0  0
   55.6080   30.7430   43.7860 O   0  0  0  0  0  0  0  0  0  0  0  0
   56.0180   29.0140   45.2760 N   0  0  0  0  0  0  0  0  0  0  0  0
   56.7860   27.8490   45.5900 C   0  0  0  0  0  0  0  0  0  0  0  0
   58.1820   27.9380   45.6230 C   0  0  0  0  0  0  0  0  0  0  0  0
   58.9530   26.8140   45.9390 C   0  0  0  0  0  0  0  0  0  0  0  0
   58.3270   25.6000   46.2400 C   0  0  0  0  0  0  0  0  0  0  0  0
   56.9330   25.5110   46.2390 C   0  0  0  0  0  0  0  0  0  0  0  0
   56.1580   26.6350   45.9300 C   0  0  0  0  0  0  0  0  0  0  0  0
   54.7730   26.5460   45.9890 O   0  0  0  0  0  0  0  0  0  0  0  0
   58.7730   32.3970   45.6890 C   0  0  0  0  0  0  0  0  0  0  0  0
   59.5340   33.3990   45.6110 O   0  0  0  0  0  0  0  0  0  0  0  0
   58.4880   31.8300   47.0500 C   0  0  0  0  0  0  0  0  0  0  0  0
   60.0110   31.8750   48.0520 S   0  0  0  0  0  0  0  0  0  0  0  0
   59.1300   31.9850   49.6060 C   0  0  0  0  0  0  0  0  0  0  0  0
   59.1980   33.1220   50.3500 N   0  0  0  0  0  0  0  0  0  0  0  0
   58.5360   33.2240   51.5330 C   0  0  0  0  0  0  0  0  0  0  0  0
   58.6280   34.4250   52.2970 N   0  0  0  0  0  0  0  0  0  0  0  0
   57.7730   32.1470   51.9950 C   0  0  0  0  0  0  0  0  0  0  0  0
   57.7130   30.9910   51.2160 C   0  0  0  0  0  0  0  0  0  0  0  0
   57.0390   30.0010   51.6000 O   0  0  0  0  0  0  0  0  0  0  0  0
   58.3880   30.9320   50.0380 N   0  0  0  0  0  0  0  0  0  0  0  0
   57.7292   30.9720   42.2400 H   0  0  0  0  0  0  0  0  0  0  0  0
   56.8651   32.3606   41.4972 H   0  0  0  0  0  0  0  0  0  0  0  0
   58.6608   32.3162   41.4972 H   0  0  0  0  0  0  0  0  0  0  0  0
   58.5002   33.6109   43.3601 H   0  0  0  0  0  0  0  0  0  0  0  0
   56.7660   33.1763   43.6113 H   0  0  0  0  0  0  0  0  0  0  0  0
   58.3013   30.1194   43.3278 H   0  0  0  0  0  0  0  0  0  0  0  0
   58.4673   29.8912   45.1177 H   0  0  0  0  0  0  0  0  0  0  0  0
   58.6753   28.8955   45.3996 H   0  0  0  0  0  0  0  0  0  0  0  0
   60.0506   26.8850   45.9507 H   0  0  0  0  0  0  0  0  0  0  0  0
   58.9335   24.7137   46.4779 H   0  0  0  0  0  0  0  0  0  0  0  0
   56.4435   24.5562   46.4814 H   0  0  0  0  0  0  0  0  0  0  0  0
   57.7069   32.4287   47.5414 H   0  0  0  0  0  0  0  0  0  0  0  0
   58.1422   30.7904   46.9513 H   0  0  0  0  0  0  0  0  0  0  0  0
   59.1060   34.4370   53.2250 H   0  0  0  0  0  0  0  0  0  0  0  0
   58.2150   35.3130   51.9310 H   0  0  0  0  0  0  0  0  0  0  0  0
   57.2324   32.2098   52.9509 H   0  0  0  0  0  0  0  0  0  0  0  0
  1  2  1  0
  2  3  1  0
  3  4  1  0
  4  5  1  0
  5  6  2  0
  5  7  1  0
  7  8  1  0
  8  9  2  0
  9 10  1  0
 10 11  2  0
 11 12  1  0
 12 13  2  0
 13 14  1  0
  3 15  1  0
 15 16  2  0
 15 17  1  0
 17 18  1  0
 18 19  1  0
 19 20  2  0
 20 21  1  0
 21 22  1  0
 21 23  2  0
 23 24  1  0
 24 25  2  0
 24 26  1  0
 13  8  1  0
 26 19  1  0
  1 27  1  0
  1 28  1  0
  1 29  1  0
  2 30  1  0
  2 31  1  0
  4 32  1  0
  4 33  1  0
  9 34  1  0
 10 35  1  0
 11 36  1  0
 12 37  1  0
 17 38  1  0
 17 39  1  0
 22 40  1  0
 22 41  1  0
 23 42  1  0
M  CHG  3   7  -1  14  -1  26  -1
M  END
>  <UniqueID>  (49) 
46

>  <SMILES>  (49) 
CCN(CC(=O)[N-]c1ccccc1[O-])C(=O)CSc1nc(N)cc(=O)[n-]1

>  <Energy>  (49) 
39.99579064845418

>  <Genealogy>  (49) 
CCN(CC(=O)[N-]c1ccccc1[O-])C(=O)CSc1nc(N)cc(=O)[n-]1 (protonated)
CCN(CC(=O)[N-]c1ccccc1[O-])C(=O)CSc1nc(N)cc(=O)[n-]1 (3D coordinates assigned)
CCN(CC(=O)[N-]c1ccccc1[O-])C(=O)CSc1nc(N)cc(=O)[n-]1 (optimized conformer: 39.99579064845418 kcal/mol)

>  <smiles>  (49) 
CCN(CC(=O)Nc1ccccc1O)C(=O)CSc1nc(N)cc(=O)[nH]1

>  <score_type>  (49) 
oracle

>  <origin>  (49) 
adg

>  <m_score__min__energy>  (49) 
-14.380000000000001

>  <m_primary>  (49) 
energy

$$$$
49:0
     RDKit          3D

 48 51  0  0  0  0  0  0  0  0999 V2000
   60.0150   34.6690   46.9990 C   0  0  0  0  0  0  0  0  0  0  0  0
   60.9680   33.5380   46.6060 C   0  0  0  0  0  0  0  0  0  0  0  0
   62.3490   33.7530   47.2370 C   0  0  0  0  0  0  0  0  0  0  0  0
   60.3830   32.2100   47.0000 C   0  0  0  0  0  0  0  0  0  0  0  0
   60.6910   31.0370   46.4030 N   0  0  0  0  0  0  0  0  0  0  0  0
   60.0790   29.9810   47.0060 C   0  0  0  0  0  0  0  0  0  0  0  0
   60.2770   28.5810   46.5160 C   0  0  0  0  0  0  0  0  0  0  0  0
   58.9710   27.9510   46.2240 N   0  0  0  0  0  0  0  0  0  0  0  0
   58.9960   27.3170   44.8870 C   0  0  0  0  0  0  0  0  0  0  0  0
   57.7600   26.4350   44.6130 C   0  0  0  0  0  0  0  0  0  0  0  0
   56.6410   26.6440   45.6400 C   0  0  0  0  0  0  0  0  0  0  0  0
   55.9570   27.9290   45.3890 N   0  0  0  0  0  0  0  0  0  0  0  0
   56.3710   29.0460   44.8610 C   0  0  0  0  0  0  0  0  0  0  0  0
   56.3220   29.3280   43.5320 N   0  0  0  0  0  0  0  0  0  0  0  0
   56.8920   30.5400   43.4710 C   0  0  0  0  0  0  0  0  0  0  0  0
   57.1420   31.3080   42.3380 C   0  0  0  0  0  0  0  0  0  0  0  0
   57.7710   32.5550   42.5180 C   0  0  0  0  0  0  0  0  0  0  0  0
   58.1400   32.9860   43.8130 C   0  0  0  0  0  0  0  0  0  0  0  0
   57.8840   32.1750   44.9350 C   0  0  0  0  0  0  0  0  0  0  0  0
   57.2540   30.9520   44.7160 C   0  0  0  0  0  0  0  0  0  0  0  0
   56.9340   30.0180   45.6230 N   0  0  0  0  0  0  0  0  0  0  0  0
   57.1780   26.4290   47.0730 C   0  0  0  0  0  0  0  0  0  0  0  0
   58.6130   26.9670   47.2680 C   0  0  0  0  0  0  0  0  0  0  0  0
   59.2800   30.3060   48.0990 C   0  0  0  0  0  0  0  0  0  0  0  0
   59.3650   31.9700   48.3170 S   0  0  0  0  0  0  0  0  0  0  0  0
   59.9583   34.7363   48.0955 H   0  0  0  0  0  0  0  0  0  0  0  0
   60.3877   35.6206   46.5920 H   0  0  0  0  0  0  0  0  0  0  0  0
   59.0140   34.4631   46.5920 H   0  0  0  0  0  0  0  0  0  0  0  0
   61.0986   33.5426   45.5138 H   0  0  0  0  0  0  0  0  0  0  0  0
   62.2575   33.7388   48.3331 H   0  0  0  0  0  0  0  0  0  0  0  0
   63.0282   32.9498   46.9153 H   0  0  0  0  0  0  0  0  0  0  0  0
   62.7519   34.7247   46.9153 H   0  0  0  0  0  0  0  0  0  0  0  0
   60.8842   28.5997   45.5990 H   0  0  0  0  0  0  0  0  0  0  0  0
   60.7899   27.9979   47.2950 H   0  0  0  0  0  0  0  0  0  0  0  0
   59.0371   28.1089   44.1246 H   0  0  0  0  0  0  0  0  0  0  0  0
   59.8802   26.6637   44.8499 H   0  0  0  0  0  0  0  0  0  0  0  0
   57.3696   26.6778   43.6137 H   0  0  0  0  0  0  0  0  0  0  0  0
   58.0807   25.3851   44.6820 H   0  0  0  0  0  0  0  0  0  0  0  0
   55.8546   25.8830   45.5280 H   0  0  0  0  0  0  0  0  0  0  0  0
   56.8581   30.9533   41.3362 H   0  0  0  0  0  0  0  0  0  0  0  0
   57.9760   33.1961   41.6479 H   0  0  0  0  0  0  0  0  0  0  0  0
   58.6305   33.9617   43.9448 H   0  0  0  0  0  0  0  0  0  0  0  0
   58.1709   32.4953   45.9475 H   0  0  0  0  0  0  0  0  0  0  0  0
   56.5110   26.9463   47.7784 H   0  0  0  0  0  0  0  0  0  0  0  0
   57.2063   25.3444   47.2540 H   0  0  0  0  0  0  0  0  0  0  0  0
   58.6822   27.4507   48.2535 H   0  0  0  0  0  0  0  0  0  0  0  0
   59.3111   26.1199   47.1968 H   0  0  0  0  0  0  0  0  0  0  0  0
   58.6978   29.6004   48.7099 H   0  0  0  0  0  0  0  0  0  0  0  0
  1  2  1  0
  2  3  1  0
  2  4  1  0
  4  5  2  0
  5  6  1  0
  6  7  1  0
  7  8  1  0
  8  9  1  0
  9 10  1  0
 10 11  1  0
 11 12  1  0
 12 13  2  3
 13 14  1  0
 14 15  1  0
 15 16  2  0
 16 17  1  0
 17 18  2  0
 18 19  1  0
 19 20  2  0
 20 21  1  0
 11 22  1  0
 22 23  1  0
  6 24  2  0
 24 25  1  0
 25  4  1  0
 23  8  1  0
 21 13  1  0
 20 15  1  0
  1 26  1  0
  1 27  1  0
  1 28  1  0
  2 29  1  0
  3 30  1  0
  3 31  1  0
  3 32  1  0
  7 33  1  0
  7 34  1  0
  9 35  1  0
  9 36  1  0
 10 37  1  0
 10 38  1  0
 11 39  1  0
 16 40  1  0
 17 41  1  0
 18 42  1  0
 19 43  1  0
 22 44  1  0
 22 45  1  0
 23 46  1  0
 23 47  1  0
 24 48  1  0
M  CHG  2  14  -1  21  -1
M  END
>  <UniqueID>  (50) 
47

>  <SMILES>  (50) 
CC(C)c1nc(CN2CCC(N=c3[n-]c4ccccc4[n-]3)CC2)cs1

>  <Energy>  (50) 
119.95540582787906

>  <Genealogy>  (50) 
CC(C)c1nc(CN2CCC(N=c3[n-]c4ccccc4[n-]3)CC2)cs1 (protonated)
CC(C)c1nc(CN2CCC(N=c3[n-]c4ccccc4[n-]3)CC2)cs1 (3D coordinates assigned)
CC(C)c1nc(CN2CCC(N=c3[n-]c4ccccc4[n-]3)CC2)cs1 (nonaromatic ring conformer: 119.95540582787906 kcal/mol)

>  <smiles>  (50) 
CC(C)c1nc(CN2CCC(N=c3[nH]c4ccccc4[nH]3)CC2)cs1

>  <score_type>  (50) 
oracle

>  <origin>  (50) 
adg

>  <m_score__min__energy>  (50) 
-12.02

>  <m_primary>  (50) 
energy

$$$$
50:0
     RDKit          3D

 71 74  0  0  0  0  0  0  0  0999 V2000
   57.9510   32.4760   42.7270 O   0  0  0  0  0  0  0  0  0  0  0  0
   57.2910   31.7260   43.4990 C   0  0  0  0  0  0  0  0  0  0  0  0
   56.9640   30.3250   43.0660 C   0  0  0  0  0  0  0  0  0  0  0  0
   57.4340   29.3260   44.0920 C   0  0  0  0  0  0  0  0  0  0  0  0
   58.7950   28.9880   44.1640 C   0  0  0  0  0  0  0  0  0  0  0  0
   59.2400   28.0270   45.0770 C   0  0  0  0  0  0  0  0  0  0  0  0
   58.3320   27.3910   45.9380 C   0  0  0  0  0  0  0  0  0  0  0  0
   58.7990   26.3410   46.8660 C   0  0  0  0  0  0  0  0  0  0  0  0
   60.0230   26.0410   46.8930 O   0  0  0  0  0  0  0  0  0  0  0  0
   57.9000   25.6280   47.7220 N   0  0  0  0  0  0  0  0  0  0  0  0
   56.7380   24.4630   47.1680 S   0  0  0  0  0  0  0  0  0  0  0  0
   56.0930   23.7890   48.3450 O   0  0  0  0  0  0  0  0  0  0  0  0
   55.6740   25.1850   46.3920 O   0  0  0  0  0  0  0  0  0  0  0  0
   57.5250   23.2230   46.1260 C   0  0  0  0  0  0  0  0  0  0  0  0
   57.1530   23.2510   44.6230 C   0  0  0  0  0  0  0  0  0  0  0  0
   55.6770   23.4480   44.2960 C   0  0  0  0  0  0  0  0  0  0  0  0
   55.5420   22.9820   42.8530 C   0  0  0  0  0  0  0  0  0  0  0  0
   56.6430   21.9420   42.6310 C   0  0  0  0  0  0  0  0  0  0  0  0
   57.5790   22.0120   43.8400 C   0  0  0  0  0  0  0  0  0  0  0  0
   56.9680   27.7130   45.8550 C   0  0  0  0  0  0  0  0  0  0  0  0
   56.5190   28.6730   44.9420 C   0  0  0  0  0  0  0  0  0  0  0  0
   55.1580   28.9630   44.8770 O   0  0  0  0  0  0  0  0  0  0  0  0
   56.8400   32.2180   44.7700 N   0  0  0  0  0  0  0  0  0  0  0  0
   57.0630   33.5970   45.2040 C   0  0  0  0  0  0  0  0  0  0  0  0
   58.3550   33.7040   45.9720 C   0  0  0  0  0  0  0  0  0  0  0  0
   59.5850   33.7530   45.3000 C   0  0  0  0  0  0  0  0  0  0  0  0
   60.7770   33.8980   46.0170 C   0  0  0  0  0  0  0  0  0  0  0  0
   60.7530   33.9850   47.4200 C   0  0  0  0  0  0  0  0  0  0  0  0
   61.9480   34.1430   48.1970 N   0  0  0  0  0  0  0  0  0  0  0  0
   62.2340   33.4770   49.7730 S   0  0  0  0  0  0  0  0  0  0  0  0
   63.4660   34.0920   50.3710 O   0  0  0  0  0  0  0  0  0  0  0  0
   61.0580   33.8040   50.6500 O   0  0  0  0  0  0  0  0  0  0  0  0
   62.4050   31.7020   49.6840 C   0  0  0  0  0  0  0  0  0  0  0  0
   61.2270   31.1060   48.9660 C   0  0  0  0  0  0  0  0  0  0  0  0
   61.3000   30.8360   47.5890 C   0  0  0  0  0  0  0  0  0  0  0  0
   60.1850   30.3330   46.9120 C   0  0  0  0  0  0  0  0  0  0  0  0
   58.9890   30.1070   47.5990 C   0  0  0  0  0  0  0  0  0  0  0  0
   58.9090   30.3790   48.9680 C   0  0  0  0  0  0  0  0  0  0  0  0
   60.0210   30.8820   49.6490 C   0  0  0  0  0  0  0  0  0  0  0  0
   59.5260   33.9240   48.0880 C   0  0  0  0  0  0  0  0  0  0  0  0
   58.3340   33.7840   47.3720 C   0  0  0  0  0  0  0  0  0  0  0  0
   55.8751   30.2303   42.9424 H   0  0  0  0  0  0  0  0  0  0  0  0
   57.4758   30.1210   42.1139 H   0  0  0  0  0  0  0  0  0  0  0  0
   59.5164   29.4829   43.4972 H   0  0  0  0  0  0  0  0  0  0  0  0
   60.3081   27.7678   45.1208 H   0  0  0  0  0  0  0  0  0  0  0  0
   58.6134   23.3619   46.2042 H   0  0  0  0  0  0  0  0  0  0  0  0
   57.1618   22.2541   46.4992 H   0  0  0  0  0  0  0  0  0  0  0  0
   57.7226   24.1401   44.3145 H   0  0  0  0  0  0  0  0  0  0  0  0
   55.0466   22.8402   44.9617 H   0  0  0  0  0  0  0  0  0  0  0  0
   55.3537   24.4907   44.4313 H   0  0  0  0  0  0  0  0  0  0  0  0
   54.5527   22.5296   42.6901 H   0  0  0  0  0  0  0  0  0  0  0  0
   55.6401   23.8232   42.1510 H   0  0  0  0  0  0  0  0  0  0  0  0
   56.2025   20.9371   42.5526 H   0  0  0  0  0  0  0  0  0  0  0  0
   57.1913   22.1452   41.6993 H   0  0  0  0  0  0  0  0  0  0  0  0
   57.4712   21.1104   44.4609 H   0  0  0  0  0  0  0  0  0  0  0  0
   58.6338   22.0692   43.5332 H   0  0  0  0  0  0  0  0  0  0  0  0
   56.2467   27.2064   46.5131 H   0  0  0  0  0  0  0  0  0  0  0  0
   56.3120   31.5790   45.4080 H   0  0  0  0  0  0  0  0  0  0  0  0
   57.1109   34.2515   44.3212 H   0  0  0  0  0  0  0  0  0  0  0  0
   56.2331   33.9038   45.8576 H   0  0  0  0  0  0  0  0  0  0  0  0
   59.6123   33.6770   44.2030 H   0  0  0  0  0  0  0  0  0  0  0  0
   61.7367   33.9441   45.4813 H   0  0  0  0  0  0  0  0  0  0  0  0
   63.3276   31.4520   49.1397 H   0  0  0  0  0  0  0  0  0  0  0  0
   62.4502   31.2927   50.7040 H   0  0  0  0  0  0  0  0  0  0  0  0
   62.2365   31.0208   47.0424 H   0  0  0  0  0  0  0  0  0  0  0  0
   60.2492   30.1145   45.8358 H   0  0  0  0  0  0  0  0  0  0  0  0
   58.1117   29.7156   47.0632 H   0  0  0  0  0  0  0  0  0  0  0  0
   57.9693   30.1968   49.5100 H   0  0  0  0  0  0  0  0  0  0  0  0
   59.9510   31.1032   50.7242 H   0  0  0  0  0  0  0  0  0  0  0  0
   59.4988   33.9867   49.1859 H   0  0  0  0  0  0  0  0  0  0  0  0
   57.3751   33.7363   47.9089 H   0  0  0  0  0  0  0  0  0  0  0  0
  1  2  2  0
  2  3  1  0
  3  4  1  0
  4  5  2  0
  5  6  1  0
  6  7  2  0
  7  8  1  0
  8  9  2  0
  8 10  1  0
 10 11  1  0
 11 12  2  0
 11 13  2  0
 11 14  1  0
 14 15  1  0
 15 16  1  0
 16 17  1  0
 17 18  1  0
 18 19  1  0
  7 20  1  0
 20 21  2  0
 21 22  1  0
  2 23  1  0
 23 24  1  0
 24 25  1  0
 25 26  2  0
 26 27  1  0
 27 28  2  0
 28 29  1  0
 29 30  1  0
 30 31  2  0
 30 32  2  0
 30 33  1  0
 33 34  1  0
 34 35  2  0
 35 36  1  0
 36 37  2  0
 37 38  1  0
 38 39  2  0
 28 40  1  0
 40 41  2  0
 21  4  1  0
 41 25  1  0
 19 15  1  0
 39 34  1  0
  3 42  1  0
  3 43  1  0
  5 44  1  0
  6 45  1  0
 14 46  1  0
 14 47  1  0
 15 48  1  0
 16 49  1  0
 16 50  1  0
 17 51  1  0
 17 52  1  0
 18 53  1  0
 18 54  1  0
 19 55  1  0
 19 56  1  0
 20 57  1  0
 23 58  1  0
 24 59  1  0
 24 60  1  0
 26 61  1  0
 27 62  1  0
 33 63  1  0
 33 64  1  0
 35 65  1  0
 36 66  1  0
 37 67  1  0
 38 68  1  0
 39 69  1  0
 40 70  1  0
 41 71  1  0
M  CHG  3  10  -1  22  -1  29  -1
M  END
>  <UniqueID>  (51) 
48

>  <SMILES>  (51) 
O=C(Cc1ccc(C(=O)[N-]S(=O)(=O)CC2CCCC2)cc1[O-])NCc1ccc([N-]S(=O)(=O)Cc2ccccc2)cc1

>  <Energy>  (51) 
75.79891727496293

>  <Genealogy>  (51) 
O=C(Cc1ccc(C(=O)[N-]S(=O)(=O)CC2CCCC2)cc1[O-])NCc1ccc([N-]S(=O)(=O)Cc2ccccc2)cc1 (protonated)
O=C(Cc1ccc(C(=O)[N-]S(=O)(=O)CC2CCCC2)cc1[O-])NCc1ccc([N-]S(=O)(=O)Cc2ccccc2)cc1 (3D coordinates assigned)
O=C(Cc1ccc(C(=O)[N-]S(=O)(=O)CC2CCCC2)cc1[O-])NCc1ccc([N-]S(=O)(=O)Cc2ccccc2)cc1 (nonaromatic ring conformer: 75.79891727496293 kcal/mol)

>  <smiles>  (51) 
O=C(Cc1ccc(C(=O)NS(=O)(=O)CC2CCCC2)cc1O)NCc1ccc(NS(=O)(=O)Cc2ccccc2)cc1

>  <score_type>  (51) 
oracle

>  <origin>  (51) 
adg

>  <m_score__min__energy>  (51) 
-17.530000000000001

>  <m_primary>  (51) 
energy

$$$$
51:0
     RDKit          3D

 48 51  0  0  0  0  0  0  0  0999 V2000
   57.7530   31.9840   42.0920 C   0  0  0  0  0  0  0  0  0  0  0  0
   57.4630   31.0580   43.2350 C   0  0  0  0  0  0  0  0  0  0  0  0
   56.3500   30.2090   43.2000 C   0  0  0  0  0  0  0  0  0  0  0  0
   56.1150   29.3480   44.2230 N   0  0  0  0  0  0  0  0  0  0  0  0
   56.9440   29.2670   45.2980 C   0  0  0  0  0  0  0  0  0  0  0  0
   58.0870   30.0780   45.3740 C   0  0  0  0  0  0  0  0  0  0  0  0
   59.0000   30.0020   46.5390 C   0  0  0  0  0  0  0  0  0  0  0  0
   60.0880   30.8870   46.6350 C   0  0  0  0  0  0  0  0  0  0  0  0
   60.9840   30.8290   47.7180 C   0  0  0  0  0  0  0  0  0  0  0  0
   62.1360   31.7640   47.7360 C   0  0  0  0  0  0  0  0  0  0  0  0
   63.1900   31.4990   47.0980 O   0  0  0  0  0  0  0  0  0  0  0  0
   62.0670   32.9650   48.5150 N   0  0  0  0  0  0  0  0  0  0  0  0
   61.1130   33.3260   49.3290 C   0  0  0  0  0  0  0  0  0  0  0  0
   61.2050   33.2130   50.6980 C   0  0  0  0  0  0  0  0  0  0  0  0
   60.0290   33.7800   51.1570 C   0  0  0  0  0  0  0  0  0  0  0  0
   59.6350   33.9280   52.5650 C   0  0  0  0  0  0  0  0  0  0  0  0
   58.5630   34.7970   52.9360 N   0  0  0  0  0  0  0  0  0  0  0  0
   60.2460   33.2830   53.4590 O   0  0  0  0  0  0  0  0  0  0  0  0
   59.2680   34.1750   50.1140 N   0  0  0  0  0  0  0  0  0  0  0  0
   59.9260   33.8960   48.9990 N   0  0  0  0  0  0  0  0  0  0  0  0
   59.2920   33.9820   47.7150 C   0  0  0  0  0  0  0  0  0  0  0  0
   59.8740   34.7520   46.6970 C   0  0  0  0  0  0  0  0  0  0  0  0
   59.2480   34.8590   45.4510 C   0  0  0  0  0  0  0  0  0  0  0  0
   58.0300   34.2120   45.2210 C   0  0  0  0  0  0  0  0  0  0  0  0
   57.4300   33.4670   46.2400 C   0  0  0  0  0  0  0  0  0  0  0  0
   58.0520   33.3600   47.4880 C   0  0  0  0  0  0  0  0  0  0  0  0
   60.7670   29.8640   48.7300 C   0  0  0  0  0  0  0  0  0  0  0  0
   61.7850   29.7330   50.1620 Cl  0  0  0  0  0  0  0  0  0  0  0  0
   59.6810   28.9850   48.6350 C   0  0  0  0  0  0  0  0  0  0  0  0
   58.8060   29.0460   47.5500 C   0  0  0  0  0  0  0  0  0  0  0  0
   57.7910   28.1480   47.4730 F   0  0  0  0  0  0  0  0  0  0  0  0
   58.3400   30.9770   44.3250 C   0  0  0  0  0  0  0  0  0  0  0  0
   58.0602   32.9649   42.4837 H   0  0  0  0  0  0  0  0  0  0  0  0
   58.5629   31.5648   41.4769 H   0  0  0  0  0  0  0  0  0  0  0  0
   56.8487   32.1016   41.4769 H   0  0  0  0  0  0  0  0  0  0  0  0
   55.6638   30.2398   42.3408 H   0  0  0  0  0  0  0  0  0  0  0  0
   56.7177   28.5625   46.1119 H   0  0  0  0  0  0  0  0  0  0  0  0
   60.2418   31.6397   45.8477 H   0  0  0  0  0  0  0  0  0  0  0  0
   62.0225   32.7744   51.2890 H   0  0  0  0  0  0  0  0  0  0  0  0
   58.2900   34.8950   53.9380 H   0  0  0  0  0  0  0  0  0  0  0  0
   58.0400   35.3450   52.2170 H   0  0  0  0  0  0  0  0  0  0  0  0
   60.8254   35.2731   46.8793 H   0  0  0  0  0  0  0  0  0  0  0  0
   59.7143   35.4528   44.6510 H   0  0  0  0  0  0  0  0  0  0  0  0
   57.5437   34.2894   44.2374 H   0  0  0  0  0  0  0  0  0  0  0  0
   56.4681   32.9646   46.0603 H   0  0  0  0  0  0  0  0  0  0  0  0
   57.5697   32.7876   48.2941 H   0  0  0  0  0  0  0  0  0  0  0  0
   59.5159   28.2377   49.4251 H   0  0  0  0  0  0  0  0  0  0  0  0
   59.2312   31.6209   44.3592 H   0  0  0  0  0  0  0  0  0  0  0  0
  1  2  1  0
  2  3  2  0
  3  4  1  0
  4  5  2  0
  5  6  1  0
  6  7  1  0
  7  8  2  0
  8  9  1  0
  9 10  1  0
 10 11  2  0
 10 12  1  0
 12 13  2  3
 13 14  1  0
 14 15  2  0
 15 16  1  0
 16 17  1  0
 16 18  2  0
 15 19  1  0
 19 20  1  0
 20 21  1  0
 21 22  2  0
 22 23  1  0
 23 24  2  0
 24 25  1  0
 25 26  2  0
  9 27  2  0
 27 28  1  0
 27 29  1  0
 29 30  2  0
 30 31  1  0
  6 32  2  0
 32  2  1  0
 30  7  1  0
 20 13  1  0
 26 21  1  0
  1 33  1  0
  1 34  1  0
  1 35  1  0
  3 36  1  0
  5 37  1  0
  8 38  1  0
 14 39  1  0
 17 40  1  0
 17 41  1  0
 22 42  1  0
 23 43  1  0
 24 44  1  0
 25 45  1  0
 26 46  1  0
 29 47  1  0
 32 48  1  0
M  CHG  1  19  -1
M  END
>  <UniqueID>  (52) 
49

>  <SMILES>  (52) 
Cc1cncc(-c2cc(C(=O)N=c3cc(C(N)=O)[n-]n3-c3ccccc3)c(Cl)cc2F)c1

>  <Energy>  (52) 
107.46688274331355

>  <Genealogy>  (52) 
Cc1cncc(-c2cc(C(=O)N=c3cc(C(N)=O)[n-]n3-c3ccccc3)c(Cl)cc2F)c1 (protonated)
Cc1cncc(-c2cc(C(=O)N=c3cc(C(N)=O)[n-]n3-c3ccccc3)c(Cl)cc2F)c1 (3D coordinates assigned)
Cc1cncc(-c2cc(C(=O)N=c3cc(C(N)=O)[n-]n3-c3ccccc3)c(Cl)cc2F)c1 (optimized conformer: 107.46688274331355 kcal/mol)

>  <smiles>  (52) 
Cc1cncc(-c2cc(C(=O)N=c3cc(C(N)=O)[nH]n3-c3ccccc3)c(Cl)cc2F)c1

>  <score_type>  (52) 
oracle

>  <origin>  (52) 
adg

>  <m_score__min__energy>  (52) 
-10.380000000000001

>  <m_primary>  (52) 
energy

$$$$
52:0
     RDKit          3D

 64 68  0  0  0  0  0  0  0  0999 V2000
   55.5220   28.8590   44.9640 O   0  0  0  0  0  0  0  0  0  0  0  0
   56.4390   29.7170   45.0610 C   0  0  0  0  0  0  0  0  0  0  0  0
   56.2690   30.9850   44.4270 N   0  0  0  0  0  0  0  0  0  0  0  0
   57.3760   31.8590   44.0420 C   0  0  0  0  0  0  0  0  0  0  0  0
   57.5920   32.9260   45.1220 C   0  0  2  0  0  0  0  0  0  0  0  0
   58.1240   34.2480   44.5590 C   0  0  0  0  0  0  0  0  0  0  0  0
   58.9830   34.8430   45.6700 C   0  0  0  0  0  0  0  0  0  0  0  0
   59.2820   33.7350   46.5610 N   0  0  0  0  0  0  0  0  0  0  0  0
   60.0910   33.8700   47.7410 C   0  0  0  0  0  0  0  0  0  0  0  0
   59.9340   34.8650   48.5010 O   0  0  0  0  0  0  0  0  0  0  0  0
   61.0330   32.8490   48.0980 N   0  0  0  0  0  0  0  0  0  0  0  0
   62.4290   32.9890   47.6610 C   0  0  0  0  0  0  0  0  0  0  0  0
   63.3730   32.4500   48.7430 C   0  0  0  0  0  0  0  0  0  0  0  0
   62.9780   31.1380   49.1460 O   0  0  0  0  0  0  0  0  0  0  0  0
   61.6310   30.7920   49.2960 C   0  0  0  0  0  0  0  0  0  0  0  0
   61.2860   29.6090   49.9530 C   0  0  0  0  0  0  0  0  0  0  0  0
   59.9420   29.2730   50.1310 C   0  0  0  0  0  0  0  0  0  0  0  0
   58.9390   30.1160   49.6380 C   0  0  0  0  0  0  0  0  0  0  0  0
   59.2770   31.2870   48.9560 C   0  0  0  0  0  0  0  0  0  0  0  0
   60.6300   31.6380   48.7850 C   0  0  0  0  0  0  0  0  0  0  0  0
   58.6110   32.5070   46.1780 C   0  0  0  0  0  0  0  0  0  0  0  0
   57.6540   29.3620   45.7320 N   0  0  0  0  0  0  0  0  0  0  0  0
   58.0750   28.0270   46.0470 C   0  0  0  0  0  0  0  0  0  0  0  0
   59.3460   27.7610   46.5910 C   0  0  0  0  0  0  0  0  0  0  0  0
   59.7090   26.4550   46.9250 C   0  0  0  0  0  0  0  0  0  0  0  0
   58.8210   25.4020   46.7010 C   0  0  0  0  0  0  0  0  0  0  0  0
   57.5710   25.6470   46.1120 C   0  0  0  0  0  0  0  0  0  0  0  0
   56.4600   24.3210   45.7750 S   0  0  0  0  0  0  0  0  0  0  0  0
   56.7810   23.2000   46.7310 O   0  0  0  0  0  0  0  0  0  0  0  0
   56.6390   23.8200   44.3640 O   0  0  0  0  0  0  0  0  0  0  0  0
   54.8080   24.8000   46.0240 N   0  0  0  0  0  0  0  0  0  0  0  0
   53.6730   23.9370   45.8890 C   0  0  0  0  0  0  0  0  0  0  0  0
   52.6660   24.1750   44.9380 C   0  0  0  0  0  0  0  0  0  0  0  0
   51.5540   23.3260   44.8640 C   0  0  0  0  0  0  0  0  0  0  0  0
   51.4520   22.2280   45.7240 C   0  0  0  0  0  0  0  0  0  0  0  0
   52.4670   21.9710   46.6510 C   0  0  0  0  0  0  0  0  0  0  0  0
   53.5790   22.8160   46.7230 C   0  0  0  0  0  0  0  0  0  0  0  0
   57.2060   26.9620   45.7820 C   0  0  0  0  0  0  0  0  0  0  0  0
   58.2924   31.2608   43.9306 H   0  0  0  0  0  0  0  0  0  0  0  0
   57.1371   32.3503   43.0872 H   0  0  0  0  0  0  0  0  0  0  0  0
   56.5895   33.0494   45.5576 H   0  0  0  0  0  0  0  0  0  0  0  0
   58.7297   34.0672   43.6588 H   0  0  0  0  0  0  0  0  0  0  0  0
   57.3089   34.9252   44.2640 H   0  0  0  0  0  0  0  0  0  0  0  0
   59.9105   35.2648   45.2555 H   0  0  0  0  0  0  0  0  0  0  0  0
   58.4664   35.6611   46.1932 H   0  0  0  0  0  0  0  0  0  0  0  0
   62.5785   32.4209   46.7310 H   0  0  0  0  0  0  0  0  0  0  0  0
   62.6484   34.0528   47.4872 H   0  0  0  0  0  0  0  0  0  0  0  0
   64.3972   32.4125   48.3434 H   0  0  0  0  0  0  0  0  0  0  0  0
   63.3297   33.1175   49.6162 H   0  0  0  0  0  0  0  0  0  0  0  0
   62.0739   28.9408   50.3309 H   0  0  0  0  0  0  0  0  0  0  0  0
   59.6718   28.3463   50.6584 H   0  0  0  0  0  0  0  0  0  0  0  0
   57.8810   29.8552   49.7883 H   0  0  0  0  0  0  0  0  0  0  0  0
   58.4857   31.9356   48.5521 H   0  0  0  0  0  0  0  0  0  0  0  0
   59.3301   31.7885   45.7577 H   0  0  0  0  0  0  0  0  0  0  0  0
   58.1354   32.0110   47.0370 H   0  0  0  0  0  0  0  0  0  0  0  0
   60.0558   28.5855   46.7535 H   0  0  0  0  0  0  0  0  0  0  0  0
   60.6970   26.2556   47.3656 H   0  0  0  0  0  0  0  0  0  0  0  0
   59.1015   24.3775   46.9868 H   0  0  0  0  0  0  0  0  0  0  0  0
   52.7511   25.0294   44.2505 H   0  0  0  0  0  0  0  0  0  0  0  0
   50.7602   23.5233   44.1285 H   0  0  0  0  0  0  0  0  0  0  0  0
   50.5742   21.5671   45.6713 H   0  0  0  0  0  0  0  0  0  0  0  0
   52.3907   21.1040   47.3237 H   0  0  0  0  0  0  0  0  0  0  0  0
   54.3850   22.5987   47.4393 H   0  0  0  0  0  0  0  0  0  0  0  0
   56.2307   27.1567   45.3121 H   0  0  0  0  0  0  0  0  0  0  0  0
  1  2  2  0
  2  3  1  0
  3  4  1  0
  4  5  1  0
  5  6  1  0
  6  7  1  0
  7  8  1  0
  8  9  1  0
  9 10  2  0
  9 11  1  0
 11 12  1  0
 12 13  1  0
 13 14  1  0
 14 15  1  0
 15 16  2  0
 16 17  1  0
 17 18  2  0
 18 19  1  0
 19 20  2  0
  8 21  1  0
  2 22  1  0
 22 23  1  0
 23 24  2  0
 24 25  1  0
 25 26  2  0
 26 27  1  0
 27 28  1  0
 28 29  2  0
 28 30  2  0
 28 31  1  0
 31 32  1  0
 32 33  2  0
 33 34  1  0
 34 35  2  0
 35 36  1  0
 36 37  2  0
 27 38  2  0
 21  5  1  0
 38 23  1  0
 20 11  1  0
 37 32  1  0
 20 15  1  0
  4 39  1  0
  4 40  1  0
  5 41  1  1
  6 42  1  0
  6 43  1  0
  7 44  1  0
  7 45  1  0
 12 46  1  0
 12 47  1  0
 13 48  1  0
 13 49  1  0
 16 50  1  0
 17 51  1  0
 18 52  1  0
 19 53  1  0
 21 54  1  0
 21 55  1  0
 24 56  1  0
 25 57  1  0
 26 58  1  0
 33 59  1  0
 34 60  1  0
 35 61  1  0
 36 62  1  0
 37 63  1  0
 38 64  1  0
M  CHG  3   3  -1  22  -1  31  -1
M  END
>  <UniqueID>  (53) 
50

>  <SMILES>  (53) 
O=C([N-]C[C@@H]1CCN(C(=O)N2CCOc3ccccc32)C1)[N-]c1cccc(S(=O)(=O)[N-]c2ccccc2)c1

>  <Energy>  (53) 
85.47957612880622

>  <Genealogy>  (53) 
O=C([N-]CC1CCN(C(=O)N2CCOc3ccccc32)C1)[N-]c1cccc(S(=O)(=O)[N-]c2ccccc2)c1 (protonated)
O=C([N-]C[C@@H]1CCN(C(=O)N2CCOc3ccccc32)C1)[N-]c1cccc(S(=O)(=O)[N-]c2ccccc2)c1 (chirality)
O=C([N-]C[C@@H]1CCN(C(=O)N2CCOc3ccccc32)C1)[N-]c1cccc(S(=O)(=O)[N-]c2ccccc2)c1 (3D coordinates assigned)
O=C([N-]C[C@@H]1CCN(C(=O)N2CCOc3ccccc32)C1)[N-]c1cccc(S(=O)(=O)[N-]c2ccccc2)c1 (nonaromatic ring conformer: 85.47957612880622 kcal/mol)

>  <smiles>  (53) 
O=C(NCC1CCN(C(=O)N2CCOc3ccccc32)C1)Nc1cccc(S(=O)(=O)Nc2ccccc2)c1

>  <score_type>  (53) 
oracle

>  <origin>  (53) 
adg

>  <m_score__min__energy>  (53) 
-14.300000000000001

>  <m_primary>  (53) 
energy

$$$$
53:0
     RDKit          3D

 52 54  0  0  0  0  0  0  0  0999 V2000
   50.6590   24.1470   43.6510 C   0  0  0  0  0  0  0  0  0  0  0  0
   51.0350   23.0430   44.6330 C   0  0  0  0  0  0  0  0  0  0  0  0
   52.4840   22.9660   44.7860 N   0  0  0  0  0  0  0  0  0  0  0  0
   53.2680   23.9700   45.4410 C   0  0  0  0  0  0  0  0  0  0  0  0
   53.0300   25.1920   45.2470 O   0  0  0  0  0  0  0  0  0  0  0  0
   54.3420   23.5950   46.3090 N   0  0  0  0  0  0  0  0  0  0  0  0
   55.6870   24.0620   46.1540 C   0  0  0  0  0  0  0  0  0  0  0  0
   56.7120   23.1140   46.0610 C   0  0  0  0  0  0  0  0  0  0  0  0
   58.0420   23.5210   45.9670 C   0  0  0  0  0  0  0  0  0  0  0  0
   58.3600   24.8780   45.9470 C   0  0  0  0  0  0  0  0  0  0  0  0
   57.3450   25.8500   45.9920 C   0  0  0  0  0  0  0  0  0  0  0  0
   57.7140   27.2830   45.9250 C   0  0  0  0  0  0  0  0  0  0  0  0
   58.8840   27.8360   46.4480 C   0  0  0  0  0  0  0  0  0  0  0  0
   58.8190   29.1770   46.1190 C   0  0  0  0  0  0  0  0  0  0  0  0
   57.6700   29.3760   45.4290 C   0  0  0  0  0  0  0  0  0  0  0  0
   56.9760   28.2330   45.2970 N   0  0  0  0  0  0  0  0  0  0  0  0
   57.3610   30.6300   44.9300 C   0  0  0  0  0  0  0  0  0  0  0  0
   56.3010   30.8000   44.2680 O   0  0  0  0  0  0  0  0  0  0  0  0
   58.2380   31.6670   45.1650 N   0  0  0  0  0  0  0  0  0  0  0  0
   57.9300   33.0250   44.6550 C   0  0  0  0  0  0  0  0  0  0  0  0
   57.8000   34.0850   45.7790 C   0  0  0  0  0  0  0  0  0  0  0  0
   59.0670   34.9330   45.9370 C   0  0  0  0  0  0  0  0  0  0  0  0
   57.3920   33.4710   47.1230 C   0  0  0  0  0  0  0  0  0  0  0  0
   59.4210   31.4310   45.8490 C   0  0  0  0  0  0  0  0  0  0  0  0
   60.2560   32.3680   46.0000 O   0  0  0  0  0  0  0  0  0  0  0  0
   59.7070   30.1810   46.3600 N   0  0  0  0  0  0  0  0  0  0  0  0
   60.9600   29.9090   47.0770 C   0  0  0  0  0  0  0  0  0  0  0  0
   55.9970   25.4410   46.0900 C   0  0  0  0  0  0  0  0  0  0  0  0
   54.9870   26.4070   46.1190 O   0  0  0  0  0  0  0  0  0  0  0  0
   50.3532   25.0448   44.2082 H   0  0  0  0  0  0  0  0  0  0  0  0
   51.5264   24.3859   43.0182 H   0  0  0  0  0  0  0  0  0  0  0  0
   49.8261   23.8068   43.0182 H   0  0  0  0  0  0  0  0  0  0  0  0
   50.5788   23.2575   45.6107 H   0  0  0  0  0  0  0  0  0  0  0  0
   50.6669   22.0817   44.2451 H   0  0  0  0  0  0  0  0  0  0  0  0
   56.4670   22.0416   46.0621 H   0  0  0  0  0  0  0  0  0  0  0  0
   58.8428   22.7691   45.9084 H   0  0  0  0  0  0  0  0  0  0  0  0
   59.4133   25.1909   45.8956 H   0  0  0  0  0  0  0  0  0  0  0  0
   59.6822   27.3185   47.0004 H   0  0  0  0  0  0  0  0  0  0  0  0
   56.0820   28.1020   44.7730 H   0  0  0  0  0  0  0  0  0  0  0  0
   58.7371   33.3342   43.9746 H   0  0  0  0  0  0  0  0  0  0  0  0
   56.9573   32.9694   44.1443 H   0  0  0  0  0  0  0  0  0  0  0  0
   56.9881   34.7541   45.4578 H   0  0  0  0  0  0  0  0  0  0  0  0
   59.2812   35.0764   47.0064 H   0  0  0  0  0  0  0  0  0  0  0  0
   59.9141   34.4192   45.4590 H   0  0  0  0  0  0  0  0  0  0  0  0
   58.9150   35.9120   45.4590 H   0  0  0  0  0  0  0  0  0  0  0  0
   57.7977   34.0815   47.9432 H   0  0  0  0  0  0  0  0  0  0  0  0
   56.2947   33.4425   47.1951 H   0  0  0  0  0  0  0  0  0  0  0  0
   57.7908   32.4484   47.1951 H   0  0  0  0  0  0  0  0  0  0  0  0
   60.7781   29.9485   48.1611 H   0  0  0  0  0  0  0  0  0  0  0  0
   61.3295   28.9097   46.8034 H   0  0  0  0  0  0  0  0  0  0  0  0
   61.7106   30.6651   46.8034 H   0  0  0  0  0  0  0  0  0  0  0  0
   54.0310   26.1970   46.3710 H   0  0  0  0  0  0  0  0  0  0  0  0
  1  2  1  0
  2  3  1  0
  3  4  1  0
  4  5  2  0
  4  6  1  0
  6  7  1  0
  7  8  2  0
  8  9  1  0
  9 10  2  0
 10 11  1  0
 11 12  1  0
 12 13  2  0
 13 14  1  0
 14 15  2  0
 15 16  1  0
 15 17  1  0
 17 18  2  0
 17 19  1  0
 19 20  1  0
 20 21  1  0
 21 22  1  0
 21 23  1  0
 19 24  1  0
 24 25  2  0
 24 26  1  0
 26 27  1  0
 11 28  2  0
 28 29  1  0
 28  7  1  0
 16 12  1  0
 26 14  1  0
  1 30  1  0
  1 31  1  0
  1 32  1  0
  2 33  1  0
  2 34  1  0
  8 35  1  0
  9 36  1  0
 10 37  1  0
 13 38  1  0
 16 39  1  0
 20 40  1  0
 20 41  1  0
 21 42  1  0
 22 43  1  0
 22 44  1  0
 22 45  1  0
 23 46  1  0
 23 47  1  0
 23 48  1  0
 27 49  1  0
 27 50  1  0
 27 51  1  0
 29 52  1  0
M  CHG  2   3  -1   6  -1
M  END
>  <UniqueID>  (54) 
51

>  <SMILES>  (54) 
CC[N-]C(=O)[N-]c1cccc(-c2cc3c([nH]2)c(=O)n(CC(C)C)c(=O)n3C)c1O

>  <Energy>  (54) 
97.42516773790781

>  <Genealogy>  (54) 
CC[N-]C(=O)[N-]c1cccc(-c2cc3c([nH]2)c(=O)n(CC(C)C)c(=O)n3C)c1O (protonated)
CC[N-]C(=O)[N-]c1cccc(-c2cc3c([nH]2)c(=O)n(CC(C)C)c(=O)n3C)c1O (3D coordinates assigned)
CC[N-]C(=O)[N-]c1cccc(-c2cc3c([nH]2)c(=O)n(CC(C)C)c(=O)n3C)c1O (optimized conformer: 97.42516773790781 kcal/mol)

>  <smiles>  (54) 
CCNC(=O)Nc1cccc(-c2cc3c([nH]2)c(=O)n(CC(C)C)c(=O)n3C)c1O

>  <score_type>  (54) 
oracle

>  <origin>  (54) 
adg

>  <m_score__min__energy>  (54) 
-12.93

>  <m_primary>  (54) 
energy

$$$$
54:0
     RDKit          3D

 39 41  0  0  0  0  0  0  0  0999 V2000
   59.1090   28.3280   49.1100 O   0  0  0  0  0  0  0  0  0  0  0  0
   59.9310   28.6550   48.2150 C   0  0  0  0  0  0  0  0  0  0  0  0
   61.1030   29.3870   48.5790 N   0  0  0  0  0  0  0  0  0  0  0  0
   61.0470   30.6440   49.3110 C   0  0  0  0  0  0  0  0  0  0  0  0
   60.5980   31.7450   48.3880 C   0  0  0  0  0  0  0  0  0  0  0  0
   61.4070   32.1050   47.2960 C   0  0  0  0  0  0  0  0  0  0  0  0
   61.0000   33.1070   46.4120 C   0  0  0  0  0  0  0  0  0  0  0  0
   59.7760   33.7550   46.6020 C   0  0  0  0  0  0  0  0  0  0  0  0
   59.2680   35.0120   45.4900 Cl  0  0  0  0  0  0  0  0  0  0  0  0
   58.9560   33.3950   47.6750 C   0  0  0  0  0  0  0  0  0  0  0  0
   59.3550   32.3910   48.5670 C   0  0  0  0  0  0  0  0  0  0  0  0
   58.2710   31.9660   49.8870 Cl  0  0  0  0  0  0  0  0  0  0  0  0
   59.6750   28.3490   46.8380 N   0  0  0  0  0  0  0  0  0  0  0  0
   58.7670   29.0280   45.9550 C   0  0  0  0  0  0  0  0  0  0  0  0
   59.1790   30.1200   45.1710 C   0  0  0  0  0  0  0  0  0  0  0  0
   58.2680   30.7740   44.3400 C   0  0  0  0  0  0  0  0  0  0  0  0
   56.9340   30.3660   44.3040 C   0  0  0  0  0  0  0  0  0  0  0  0
   56.5020   29.3040   45.1010 C   0  0  0  0  0  0  0  0  0  0  0  0
   55.1530   28.9700   45.1050 O   0  0  0  0  0  0  0  0  0  0  0  0
   57.4230   28.6110   45.9140 C   0  0  0  0  0  0  0  0  0  0  0  0
   57.0130   27.5200   46.7520 N   0  0  0  0  0  0  0  0  0  0  0  0
   56.3260   26.3420   46.3110 C   0  0  0  0  0  0  0  0  0  0  0  0
   55.1170   26.4010   45.9620 O   0  0  0  0  0  0  0  0  0  0  0  0
   57.0500   25.0680   46.2110 C   0  0  0  0  0  0  0  0  0  0  0  0
   58.0920   24.8060   45.3380 C   0  0  0  0  0  0  0  0  0  0  0  0
   58.4730   23.5040   45.5760 C   0  0  0  0  0  0  0  0  0  0  0  0
   57.6430   23.0520   46.5780 C   0  0  0  0  0  0  0  0  0  0  0  0
   57.6900   21.7760   47.1240 O   0  0  0  0  0  0  0  0  0  0  0  0
   56.7690   23.9940   46.9760 N   0  0  0  0  0  0  0  0  0  0  0  0
   60.3348   30.5513   50.1442 H   0  0  0  0  0  0  0  0  0  0  0  0
   62.0457   30.8822   49.7058 H   0  0  0  0  0  0  0  0  0  0  0  0
   62.3678   31.5937   47.1365 H   0  0  0  0  0  0  0  0  0  0  0  0
   61.6437   33.3866   45.5650 H   0  0  0  0  0  0  0  0  0  0  0  0
   57.9913   33.9031   47.8201 H   0  0  0  0  0  0  0  0  0  0  0  0
   60.2241   30.4605   45.2127 H   0  0  0  0  0  0  0  0  0  0  0  0
   58.6024   31.6130   43.7120 H   0  0  0  0  0  0  0  0  0  0  0  0
   56.2203   30.8828   43.6455 H   0  0  0  0  0  0  0  0  0  0  0  0
   58.5278   25.4982   44.6025 H   0  0  0  0  0  0  0  0  0  0  0  0
   59.2730   22.9425   45.0713 H   0  0  0  0  0  0  0  0  0  0  0  0
  1  2  2  0
  2  3  1  0
  3  4  1  0
  4  5  1  0
  5  6  2  0
  6  7  1  0
  7  8  2  0
  8  9  1  0
  8 10  1  0
 10 11  2  0
 11 12  1  0
  2 13  1  0
 13 14  1  0
 14 15  2  0
 15 16  1  0
 16 17  2  0
 17 18  1  0
 18 19  1  0
 18 20  2  0
 20 21  1  0
 21 22  1  0
 22 23  2  0
 22 24  1  0
 24 25  2  0
 25 26  1  0
 26 27  2  0
 27 28  1  0
 27 29  1  0
 11  5  1  0
 20 14  1  0
 29 24  1  0
  4 30  1  0
  4 31  1  0
  6 32  1  0
  7 33  1  0
 10 34  1  0
 15 35  1  0
 16 36  1  0
 17 37  1  0
 25 38  1  0
 26 39  1  0
M  CHG  6   3  -1  13  -1  19  -1  21  -1  28  -1  29  -1
M  END
>  <UniqueID>  (55) 
52

>  <SMILES>  (55) 
O=C([N-]Cc1ccc(Cl)cc1Cl)[N-]c1cccc([O-])c1[N-]C(=O)c1ccc([O-])[n-]1

>  <Energy>  (55) 
73.35895737314189

>  <Genealogy>  (55) 
O=C([N-]Cc1ccc(Cl)cc1Cl)[N-]c1cccc([O-])c1[N-]C(=O)c1ccc([O-])[n-]1 (protonated)
O=C([N-]Cc1ccc(Cl)cc1Cl)[N-]c1cccc([O-])c1[N-]C(=O)c1ccc([O-])[n-]1 (3D coordinates assigned)
O=C([N-]Cc1ccc(Cl)cc1Cl)[N-]c1cccc([O-])c1[N-]C(=O)c1ccc([O-])[n-]1 (optimized conformer: 73.35895737314189 kcal/mol)

>  <smiles>  (55) 
O=C(NCc1ccc(Cl)cc1Cl)Nc1cccc(O)c1NC(=O)c1ccc(O)[nH]1

>  <score_type>  (55) 
oracle

>  <origin>  (55) 
adg

>  <m_score__min__energy>  (55) 
-19.300000000000001

>  <m_primary>  (55) 
energy

$$$$
55:0
     RDKit          3D

 36 39  0  0  0  0  0  0  0  0999 V2000
   55.9510   34.5580   45.6880 H   0  0  0  0  0  0  0  0  0  0  0  0
   56.9360   34.2340   45.8110 N   0  0  0  0  0  0  0  0  0  0  0  0
   57.4000   33.2180   45.1580 C   0  0  0  0  0  0  0  0  0  0  0  0
   57.8900   32.1390   45.8270 N   0  0  0  0  0  0  0  0  0  0  0  0
   58.3810   31.0580   45.1630 C   0  0  0  0  0  0  0  0  0  0  0  0
   58.9150   29.9090   45.9270 C   0  0  0  0  0  0  0  0  0  0  0  0
   60.1740   29.7970   46.4990 C   0  0  0  0  0  0  0  0  0  0  0  0
   61.1690   30.7780   46.4560 O   0  0  0  0  0  0  0  0  0  0  0  0
   61.4280   31.6680   47.5380 C   0  0  0  0  0  0  0  0  0  0  0  0
   61.0942   31.2040   48.4778 H   0  0  0  0  0  0  0  0  0  0  0  0
   62.5077   31.8733   47.5828 H   0  0  0  0  0  0  0  0  0  0  0  0
   60.6930   32.9590   47.3350 C   0  0  0  0  0  0  0  0  0  0  0  0
   60.8750   33.7620   46.2140 C   0  0  0  0  0  0  0  0  0  0  0  0
   61.5308   33.5410   45.3590 H   0  0  0  0  0  0  0  0  0  0  0  0
   59.9160   35.1290   46.3970 S   0  0  0  0  0  0  0  0  0  0  0  0
   59.2670   34.7210   47.8930 C   0  0  0  0  0  0  0  0  0  0  0  0
   58.5457   35.3191   48.4692 H   0  0  0  0  0  0  0  0  0  0  0  0
   59.8000   33.4980   48.2740 C   0  0  0  0  0  0  0  0  0  0  0  0
   59.5470   32.9988   49.2210 H   0  0  0  0  0  0  0  0  0  0  0  0
   60.3090   28.6090   47.1360 N   0  0  0  0  0  0  0  0  0  0  0  0
   59.1110   28.0210   46.9340 C   0  0  0  0  0  0  0  0  0  0  0  0
   58.7300   26.7560   47.3820 C   0  0  0  0  0  0  0  0  0  0  0  0
   59.5390   26.0200   48.0760 N   0  0  0  0  0  0  0  0  0  0  0  0
   60.4900   26.3590   48.3400 H   0  0  0  0  0  0  0  0  0  0  0  0
   57.4790   26.3110   47.0650 N   0  0  0  0  0  0  0  0  0  0  0  0
   56.6130   27.0660   46.3270 C   0  0  0  0  0  0  0  0  0  0  0  0
   55.3490   26.5670   46.0230 O   0  0  0  0  0  0  0  0  0  0  0  0
   54.6930   26.3120   46.7510 H   0  0  0  0  0  0  0  0  0  0  0  0
   57.0100   28.3400   45.8800 C   0  0  0  0  0  0  0  0  0  0  0  0
   56.3359   28.9664   45.2773 H   0  0  0  0  0  0  0  0  0  0  0  0
   58.2550   28.7710   46.2180 N   0  0  0  0  0  0  0  0  0  0  0  0
   58.3800   31.0600   43.7610 C   0  0  0  0  0  0  0  0  0  0  0  0
   58.7709   30.1992   43.1986 H   0  0  0  0  0  0  0  0  0  0  0  0
   57.8740   32.1740   43.0940 C   0  0  0  0  0  0  0  0  0  0  0  0
   57.8627   32.1977   41.9943 H   0  0  0  0  0  0  0  0  0  0  0  0
   57.3950   33.2300   43.8000 N   0  0  0  0  0  0  0  0  0  0  0  0
  1  2  1  0
  2  3  2  0
  3  4  1  0
  4  5  2  0
  5  6  1  0
  6  7  2  0
  7  8  1  0
  8  9  1  0
  9 10  1  0
  9 11  1  0
  9 12  1  0
 12 13  2  0
 13 14  1  0
 13 15  1  0
 15 16  1  0
 16 17  1  0
 16 18  2  0
 18 19  1  0
  7 20  1  0
 20 21  2  0
 21 22  1  0
 22 23  2  0
 23 24  1  0
 22 25  1  0
 25 26  1  0
 26 27  1  0
 27 28  1  0
 26 29  2  0
 29 30  1  0
 29 31  1  0
  5 32  1  0
 32 33  1  0
 32 34  2  0
 34 35  1  0
 34 36  1  0
 36  3  1  0
 31  6  1  0
 18 12  1  0
 31 21  1  0
M  CHG  2  25  -1  36  -1
M  END
>  <UniqueID>  (56) 
53

>  <SMILES>  (56) 
[H]/N=c1\nc(-c2c(OCc3ccsc3)nc3/c(=N/[H])[n-]c(O)cn23)cc[n-]1

>  <Energy>  (56) 
104.65700201739834

>  <Genealogy>  (56) 
N=c1nc(-c2c(OCc3ccsc3)nc3c(=N)[n-]c(O)cn23)cc[n-]1 (protonated)
[H]/N=c1\nc(-c2c(OCc3ccsc3)nc3/c(=N/[H])[n-]c(O)cn23)cc[n-]1 (cis-trans isomerization)
[H]/N=c1\nc(-c2c(OCc3ccsc3)nc3/c(=N/[H])[n-]c(O)cn23)cc[n-]1 (3D coordinates assigned)
[H]/N=c1\nc(-c2c(OCc3ccsc3)nc3/c(=N/[H])[n-]c(O)cn23)cc[n-]1 (optimized conformer: 104.65700201739834 kcal/mol)

>  <smiles>  (56) 
N=c1nc(-c2c(OCc3ccsc3)nc3c(=N)[nH]c(O)cn23)cc[nH]1

>  <score_type>  (56) 
oracle

>  <origin>  (56) 
adg

>  <m_score__min__energy>  (56) 
-9.1099999999999994

>  <m_primary>  (56) 
energy

$$$$
56:0
     RDKit          3D

 33 35  0  0  0  0  0  0  0  0999 V2000
   50.7030   31.8580   49.0470 O   0  0  0  0  0  0  0  0  0  0  0  0
   51.1350   31.6220   50.2060 C   0  0  0  0  0  0  0  0  0  0  0  0
   52.0850   30.6200   50.4100 C   0  0  0  0  0  0  0  0  0  0  0  0
   52.5460   30.3890   51.7140 C   0  0  0  0  0  0  0  0  0  0  0  0
   53.4960   29.3450   51.9850 N   0  0  0  0  0  0  0  0  0  0  0  0
   54.6590   29.9100   52.6210 C   0  0  0  0  0  0  0  0  0  0  0  0
   54.8250   29.8170   54.0120 C   0  0  0  0  0  0  0  0  0  0  0  0
   55.9330   30.3980   54.6310 C   0  0  0  0  0  0  0  0  0  0  0  0
   56.8820   31.0840   53.8720 C   0  0  0  0  0  0  0  0  0  0  0  0
   56.7330   31.2000   52.4780 C   0  0  0  0  0  0  0  0  0  0  0  0
   57.7380   31.9370   51.6700 C   0  0  0  0  0  0  0  0  0  0  0  0
   58.2970   33.1380   52.1460 C   0  0  0  0  0  0  0  0  0  0  0  0
   59.2410   33.8330   51.3830 C   0  0  0  0  0  0  0  0  0  0  0  0
   59.6370   33.3380   50.1380 C   0  0  0  0  0  0  0  0  0  0  0  0
   60.8220   34.2100   49.1820 Cl  0  0  0  0  0  0  0  0  0  0  0  0
   59.0880   32.1470   49.6540 C   0  0  0  0  0  0  0  0  0  0  0  0
   58.1440   31.4490   50.4140 C   0  0  0  0  0  0  0  0  0  0  0  0
   55.6140   30.6110   51.8610 C   0  0  0  0  0  0  0  0  0  0  0  0
   52.0440   31.1310   52.7400 N   0  0  0  0  0  0  0  0  0  0  0  0
   51.1200   32.1000   52.5200 C   0  0  0  0  0  0  0  0  0  0  0  0
   50.5410   32.9740   53.7710 S   0  0  0  0  0  0  0  0  0  0  0  0
   50.6710   32.3410   51.2600 N   0  0  0  0  0  0  0  0  0  0  0  0
   52.4638   30.0245   49.5663 H   0  0  0  0  0  0  0  0  0  0  0  0
   53.7710   28.8810   51.0870 H   0  0  0  0  0  0  0  0  0  0  0  0
   53.0650   28.6100   52.5940 H   0  0  0  0  0  0  0  0  0  0  0  0
   54.0777   29.2832   54.6175 H   0  0  0  0  0  0  0  0  0  0  0  0
   56.0585   30.3148   55.7206 H   0  0  0  0  0  0  0  0  0  0  0  0
   57.7531   31.5375   54.3675 H   0  0  0  0  0  0  0  0  0  0  0  0
   57.9891   33.5329   53.1254 H   0  0  0  0  0  0  0  0  0  0  0  0
   59.6722   34.7706   51.7637 H   0  0  0  0  0  0  0  0  0  0  0  0
   59.3992   31.7580   48.6733 H   0  0  0  0  0  0  0  0  0  0  0  0
   57.7160   30.5123   50.0275 H   0  0  0  0  0  0  0  0  0  0  0  0
   55.4841   30.6994   50.7723 H   0  0  0  0  0  0  0  0  0  0  0  0
  1  2  2  0
  2  3  1  0
  3  4  2  0
  4  5  1  0
  5  6  1  0
  6  7  2  0
  7  8  1  0
  8  9  2  0
  9 10  1  0
 10 11  1  0
 11 12  2  0
 12 13  1  0
 13 14  2  0
 14 15  1  0
 14 16  1  0
 16 17  2  0
 10 18  2  0
  4 19  1  0
 19 20  1  0
 20 21  2  0
 20 22  1  0
 22  2  1  0
 18  6  1  0
 17 11  1  0
  3 23  1  0
  5 24  1  0
  5 25  1  0
  7 26  1  0
  8 27  1  0
  9 28  1  0
 12 29  1  0
 13 30  1  0
 16 31  1  0
 17 32  1  0
 18 33  1  0
M  CHG  3   5   1  19  -1  22  -1
M  END
>  <UniqueID>  (57) 
54

>  <SMILES>  (57) 
O=c1cc([NH2+]c2cccc(-c3ccc(Cl)cc3)c2)[n-]c(=S)[n-]1

>  <Energy>  (57) 
43.25368977371693

>  <Genealogy>  (57) 
O=c1cc([NH2+]c2cccc(-c3ccc(Cl)cc3)c2)[n-]c(=S)[n-]1 (protonated)
O=c1cc([NH2+]c2cccc(-c3ccc(Cl)cc3)c2)[n-]c(=S)[n-]1 (3D coordinates assigned)
O=c1cc([NH2+]c2cccc(-c3ccc(Cl)cc3)c2)[n-]c(=S)[n-]1 (optimized conformer: 43.25368977371693 kcal/mol)

>  <smiles>  (57) 
O=c1cc(Nc2cccc(-c3ccc(Cl)cc3)c2)[nH]c(=S)[nH]1

>  <score_type>  (57) 
oracle

>  <origin>  (57) 
adg

>  <m_score__min__energy>  (57) 
-11.01

>  <m_primary>  (57) 
energy

$$$$
57:0
     RDKit          3D

 41 43  0  0  0  0  0  0  0  0999 V2000
   58.8260   26.4370   45.1230 O   0  0  0  0  0  0  0  0  0  0  0  0
   57.6350   26.5360   45.5260 C   0  0  0  0  0  0  0  0  0  0  0  0
   57.2030   27.7330   46.1950 N   0  0  0  0  0  0  0  0  0  0  0  0
   58.1270   28.8180   46.5170 C   0  0  0  0  0  0  0  0  0  0  0  0
   57.9000   29.9630   45.5780 C   0  0  0  0  0  0  0  0  0  0  0  0
   57.3030   29.7590   44.3280 C   0  0  0  0  0  0  0  0  0  0  0  0
   57.0190   30.8720   43.5360 C   0  0  0  0  0  0  0  0  0  0  0  0
   56.4890   30.7250   42.4030 O   0  0  0  0  0  0  0  0  0  0  0  0
   57.3030   32.1190   43.9920 N   0  0  0  0  0  0  0  0  0  0  0  0
   57.8710   32.3020   45.2120 C   0  0  0  0  0  0  0  0  0  0  0  0
   58.1550   33.9580   45.8260 S   0  0  0  0  0  0  0  0  0  0  0  0
   58.8620   33.4090   47.4210 C   0  0  0  0  0  0  0  0  0  0  0  0
   60.3390   33.1320   47.3030 C   0  0  0  0  0  0  0  0  0  0  0  0
   61.1810   34.0880   46.7110 C   0  0  0  0  0  0  0  0  0  0  0  0
   62.5570   33.8570   46.6200 C   0  0  0  0  0  0  0  0  0  0  0  0
   63.1040   32.6740   47.1230 C   0  0  0  0  0  0  0  0  0  0  0  0
   62.2750   31.7180   47.7180 C   0  0  0  0  0  0  0  0  0  0  0  0
   60.8970   31.9430   47.8110 C   0  0  0  0  0  0  0  0  0  0  0  0
   60.1160   31.0050   48.4030 F   0  0  0  0  0  0  0  0  0  0  0  0
   58.1640   31.2310   45.9940 N   0  0  0  0  0  0  0  0  0  0  0  0
   56.7180   25.3870   45.3530 C   0  0  0  0  0  0  0  0  0  0  0  0
   57.2340   24.1590   44.9010 C   0  0  0  0  0  0  0  0  0  0  0  0
   56.3960   23.0520   44.7460 C   0  0  0  0  0  0  0  0  0  0  0  0
   55.0340   23.1590   45.0310 C   0  0  0  0  0  0  0  0  0  0  0  0
   54.5040   24.3780   45.4620 C   0  0  0  0  0  0  0  0  0  0  0  0
   55.3350   25.4950   45.6140 C   0  0  0  0  0  0  0  0  0  0  0  0
   54.7690   26.7050   45.9970 O   0  0  0  0  0  0  0  0  0  0  0  0
   56.2630   27.7540   46.6480 H   0  0  0  0  0  0  0  0  0  0  0  0
   57.9543   29.1519   47.5508 H   0  0  0  0  0  0  0  0  0  0  0  0
   59.1622   28.4602   46.4151 H   0  0  0  0  0  0  0  0  0  0  0  0
   57.0633   28.7440   43.9782 H   0  0  0  0  0  0  0  0  0  0  0  0
   58.7048   34.1971   48.1721 H   0  0  0  0  0  0  0  0  0  0  0  0
   58.3585   32.4779   47.7201 H   0  0  0  0  0  0  0  0  0  0  0  0
   60.7557   35.0229   46.3171 H   0  0  0  0  0  0  0  0  0  0  0  0
   63.2100   34.6081   46.1515 H   0  0  0  0  0  0  0  0  0  0  0  0
   64.1869   32.4946   47.0510 H   0  0  0  0  0  0  0  0  0  0  0  0
   62.7070   30.7870   48.1138 H   0  0  0  0  0  0  0  0  0  0  0  0
   58.3053   24.0696   44.6678 H   0  0  0  0  0  0  0  0  0  0  0  0
   56.8105   22.0941   44.3986 H   0  0  0  0  0  0  0  0  0  0  0  0
   54.3777   22.2837   44.9163 H   0  0  0  0  0  0  0  0  0  0  0  0
   53.4296   24.4606   45.6828 H   0  0  0  0  0  0  0  0  0  0  0  0
  1  2  2  0
  2  3  1  0
  3  4  1  0
  4  5  1  0
  5  6  2  0
  6  7  1  0
  7  8  2  0
  7  9  1  0
  9 10  2  0
 10 11  1  0
 11 12  1  0
 12 13  1  0
 13 14  2  0
 14 15  1  0
 15 16  2  0
 16 17  1  0
 17 18  2  0
 18 19  1  0
 10 20  1  0
  2 21  1  0
 21 22  2  0
 22 23  1  0
 23 24  2  0
 24 25  1  0
 25 26  2  0
 26 27  1  0
 20  5  1  0
 26 21  1  0
 18 13  1  0
  3 28  1  0
  4 29  1  0
  4 30  1  0
  6 31  1  0
 12 32  1  0
 12 33  1  0
 14 34  1  0
 15 35  1  0
 16 36  1  0
 17 37  1  0
 22 38  1  0
 23 39  1  0
 24 40  1  0
 25 41  1  0
M  CHG  2  20  -1  27  -1
M  END
>  <UniqueID>  (58) 
55

>  <SMILES>  (58) 
O=C(NCc1cc(=O)nc(SCc2ccccc2F)[n-]1)c1ccccc1[O-]

>  <Energy>  (58) 
41.02351998022421

>  <Genealogy>  (58) 
O=C(NCc1cc(=O)nc(SCc2ccccc2F)[n-]1)c1ccccc1[O-] (protonated)
O=C(NCc1cc(=O)nc(SCc2ccccc2F)[n-]1)c1ccccc1[O-] (3D coordinates assigned)
O=C(NCc1cc(=O)nc(SCc2ccccc2F)[n-]1)c1ccccc1[O-] (optimized conformer: 41.02351998022421 kcal/mol)

>  <smiles>  (58) 
O=C(NCc1cc(=O)nc(SCc2ccccc2F)[nH]1)c1ccccc1O

>  <score_type>  (58) 
oracle

>  <origin>  (58) 
adg

>  <m_score__min__energy>  (58) 
-13.65

>  <m_primary>  (58) 
energy

$$$$
58:0
     RDKit          3D

 38 39  0  0  0  0  0  0  0  0999 V2000
   57.4860   32.6070   46.6900 O   0  0  0  0  0  0  0  0  0  0  0  0
   58.2000   33.2780   45.8940 C   0  0  0  0  0  0  0  0  0  0  0  0
   58.0100   33.1190   44.4170 C   0  0  0  0  0  0  0  0  0  0  0  0
   57.3570   31.8430   44.1300 N   0  0  0  0  0  0  0  0  0  0  0  0
   57.0830   31.3980   42.7940 C   0  0  0  0  0  0  0  0  0  0  0  0
   57.2890   32.1620   41.8120 O   0  0  0  0  0  0  0  0  0  0  0  0
   56.5450   30.0200   42.5570 C   0  0  0  0  0  0  0  0  0  0  0  0
   57.1480   29.0750   43.4900 N   0  0  0  0  0  0  0  0  0  0  0  0
   56.6300   28.8080   44.8000 C   0  0  0  0  0  0  0  0  0  0  0  0
   55.7010   29.5310   45.2580 O   0  0  0  0  0  0  0  0  0  0  0  0
   57.1640   27.6870   45.6210 C   0  0  0  0  0  0  0  0  0  0  0  0
   58.5530   27.6050   45.8580 C   0  0  0  0  0  0  0  0  0  0  0  0
   59.0870   26.5710   46.6340 C   0  0  0  0  0  0  0  0  0  0  0  0
   58.2460   25.6040   47.1840 C   0  0  0  0  0  0  0  0  0  0  0  0
   56.8710   25.6630   46.9560 C   0  0  0  0  0  0  0  0  0  0  0  0
   56.3230   26.6930   46.1800 C   0  0  0  0  0  0  0  0  0  0  0  0
   54.9470   26.7040   45.9740 O   0  0  0  0  0  0  0  0  0  0  0  0
   59.1500   34.2330   46.3850 N   0  0  0  0  0  0  0  0  0  0  0  0
   60.3830   33.9550   47.0660 C   0  0  0  0  0  0  0  0  0  0  0  0
   61.5700   33.6490   46.3710 C   0  0  0  0  0  0  0  0  0  0  0  0
   62.7540   33.4020   47.0730 C   0  0  0  0  0  0  0  0  0  0  0  0
   62.7680   33.4660   48.4710 C   0  0  0  0  0  0  0  0  0  0  0  0
   64.3810   33.1160   49.4300 Br  0  0  0  0  0  0  0  0  0  0  0  0
   61.5980   33.7940   49.1670 C   0  0  0  0  0  0  0  0  0  0  0  0
   60.4130   34.0410   48.4670 C   0  0  0  0  0  0  0  0  0  0  0  0
   59.2830   34.3510   49.1550 F   0  0  0  0  0  0  0  0  0  0  0  0
   57.3840   33.9412   44.0399 H   0  0  0  0  0  0  0  0  0  0  0  0
   58.9925   33.1403   43.9228 H   0  0  0  0  0  0  0  0  0  0  0  0
   57.1520   31.2000   44.9290 H   0  0  0  0  0  0  0  0  0  0  0  0
   55.4544   30.0263   42.7007 H   0  0  0  0  0  0  0  0  0  0  0  0
   56.7873   29.7126   41.5290 H   0  0  0  0  0  0  0  0  0  0  0  0
   59.2235   28.3633   45.4273 H   0  0  0  0  0  0  0  0  0  0  0  0
   60.1716   26.5205   46.8106 H   0  0  0  0  0  0  0  0  0  0  0  0
   58.6671   24.7942   47.7980 H   0  0  0  0  0  0  0  0  0  0  0  0
   56.2123   24.8955   47.3885 H   0  0  0  0  0  0  0  0  0  0  0  0
   61.5653   33.6042   45.2719 H   0  0  0  0  0  0  0  0  0  0  0  0
   63.6760   33.1570   46.5254 H   0  0  0  0  0  0  0  0  0  0  0  0
   61.6111   33.8574   50.2651 H   0  0  0  0  0  0  0  0  0  0  0  0
  1  2  2  0
  2  3  1  0
  3  4  1  0
  4  5  1  0
  5  6  2  0
  5  7  1  0
  7  8  1  0
  8  9  1  0
  9 10  2  0
  9 11  1  0
 11 12  2  0
 12 13  1  0
 13 14  2  0
 14 15  1  0
 15 16  2  0
 16 17  1  0
  2 18  1  0
 18 19  1  0
 19 20  2  0
 20 21  1  0
 21 22  2  0
 22 23  1  0
 22 24  1  0
 24 25  2  0
 25 26  1  0
 16 11  1  0
 25 19  1  0
  3 27  1  0
  3 28  1  0
  4 29  1  0
  7 30  1  0
  7 31  1  0
 12 32  1  0
 13 33  1  0
 14 34  1  0
 15 35  1  0
 20 36  1  0
 21 37  1  0
 24 38  1  0
M  CHG  3   8  -1  17  -1  18  -1
M  END
>  <UniqueID>  (59) 
56

>  <SMILES>  (59) 
O=C(CNC(=O)C[N-]C(=O)c1ccccc1[O-])[N-]c1ccc(Br)cc1F

>  <Energy>  (59) 
38.93892461880648

>  <Genealogy>  (59) 
O=C(CNC(=O)C[N-]C(=O)c1ccccc1[O-])[N-]c1ccc(Br)cc1F (protonated)
O=C(CNC(=O)C[N-]C(=O)c1ccccc1[O-])[N-]c1ccc(Br)cc1F (3D coordinates assigned)
O=C(CNC(=O)C[N-]C(=O)c1ccccc1[O-])[N-]c1ccc(Br)cc1F (optimized conformer: 38.93892461880648 kcal/mol)

>  <smiles>  (59) 
O=C(CNC(=O)c1ccccc1O)NCC(=O)Nc1ccc(Br)cc1F

>  <score_type>  (59) 
oracle

>  <origin>  (59) 
adg

>  <m_score__min__energy>  (59) 
-14.98

>  <m_primary>  (59) 
energy

$$$$
59:0
     RDKit          3D

 32 33  0  0  0  0  0  0  0  0999 V2000
   57.6850   22.1830   46.5640 O   0  0  0  0  0  0  0  0  0  0  0  0
   56.9690   22.9640   47.2460 C   0  0  0  0  0  0  0  0  0  0  0  0
   57.0200   22.9080   48.6330 O   0  0  0  0  0  0  0  0  0  0  0  0
   56.0320   23.9100   46.5680 C   0  0  0  0  0  0  0  0  0  0  0  0
   56.7170   25.2280   46.3170 C   0  0  0  0  0  0  0  0  0  0  0  0
   58.1190   25.3040   46.3610 C   0  0  0  0  0  0  0  0  0  0  0  0
   58.7710   26.5130   46.1030 C   0  0  0  0  0  0  0  0  0  0  0  0
   58.0390   27.6590   45.7730 C   0  0  0  0  0  0  0  0  0  0  0  0
   58.7370   28.8500   45.5300 O   0  0  0  0  0  0  0  0  0  0  0  0
   58.1590   30.0620   45.1300 C   0  0  0  0  0  0  0  0  0  0  0  0
   57.8400   30.9360   45.9810 O   0  0  0  0  0  0  0  0  0  0  0  0
   57.8780   30.2750   43.7430 N   0  0  0  0  0  0  0  0  0  0  0  0
   57.2450   31.5070   43.2660 C   0  0  0  0  0  0  0  0  0  0  0  0
   57.0670   31.5470   41.7500 C   0  0  0  0  0  0  0  0  0  0  0  0
   58.0490   32.7080   41.6690 C   0  0  0  0  0  0  0  0  0  0  0  0
   58.2300   32.6680   43.1800 C   0  0  0  0  0  0  0  0  0  0  0  0
   56.6340   27.5890   45.7340 C   0  0  0  0  0  0  0  0  0  0  0  0
   55.9770   26.3820   45.9940 C   0  0  0  0  0  0  0  0  0  0  0  0
   54.5880   26.3370   45.9340 O   0  0  0  0  0  0  0  0  0  0  0  0
   55.7109   23.4786   45.6084 H   0  0  0  0  0  0  0  0  0  0  0  0
   55.1583   24.0764   47.2153 H   0  0  0  0  0  0  0  0  0  0  0  0
   58.7076   24.4060   46.6001 H   0  0  0  0  0  0  0  0  0  0  0  0
   59.8683   26.5641   46.1598 H   0  0  0  0  0  0  0  0  0  0  0  0
   58.1060   29.5050   43.0750 H   0  0  0  0  0  0  0  0  0  0  0  0
   56.3670   31.5558   43.9268 H   0  0  0  0  0  0  0  0  0  0  0  0
   57.4041   30.6362   41.2335 H   0  0  0  0  0  0  0  0  0  0  0  0
   56.0633   31.6333   41.3081 H   0  0  0  0  0  0  0  0  0  0  0  0
   58.9641   32.4823   41.1018 H   0  0  0  0  0  0  0  0  0  0  0  0
   57.7607   33.6446   41.1694 H   0  0  0  0  0  0  0  0  0  0  0  0
   59.2507   32.4161   43.5037 H   0  0  0  0  0  0  0  0  0  0  0  0
   58.0766   33.5747   43.7837 H   0  0  0  0  0  0  0  0  0  0  0  0
   56.0485   28.4897   45.4974 H   0  0  0  0  0  0  0  0  0  0  0  0
  1  2  2  0
  2  3  1  0
  2  4  1  0
  4  5  1  0
  5  6  2  0
  6  7  1  0
  7  8  2  0
  8  9  1  0
  9 10  1  0
 10 11  2  0
 10 12  1  0
 12 13  1  0
 13 14  1  0
 14 15  1  0
 15 16  1  0
  8 17  1  0
 17 18  2  0
 18 19  1  0
 18  5  1  0
 16 13  1  0
  4 20  1  0
  4 21  1  0
  6 22  1  0
  7 23  1  0
 12 24  1  0
 13 25  1  0
 14 26  1  0
 14 27  1  0
 15 28  1  0
 15 29  1  0
 16 30  1  0
 16 31  1  0
 17 32  1  0
M  CHG  2   3  -1  19  -1
M  END
>  <UniqueID>  (60) 
57

>  <SMILES>  (60) 
O=C([O-])Cc1ccc(OC(=O)NC2CCC2)cc1[O-]

>  <Energy>  (60) 
92.20185408941308

>  <Genealogy>  (60) 
O=C([O-])Cc1ccc(OC(=O)NC2CCC2)cc1[O-] (protonated)
O=C([O-])Cc1ccc(OC(=O)NC2CCC2)cc1[O-] (3D coordinates assigned)
O=C([O-])Cc1ccc(OC(=O)NC2CCC2)cc1[O-] (nonaromatic ring conformer: 92.20185408941308 kcal/mol)

>  <smiles>  (60) 
O=C(O)Cc1ccc(OC(=O)NC2CCC2)cc1O

>  <score_type>  (60) 
oracle

>  <origin>  (60) 
adg

>  <m_score__min__energy>  (60) 
-12.4

>  <m_primary>  (60) 
energy

$$$$
60:0
     RDKit          3D

 43 45  0  0  0  0  0  0  0  0999 V2000
   59.3130   25.4330   45.6310 O   0  0  0  0  0  0  0  0  0  0  0  0
   58.1840   25.3020   45.0860 C   0  0  0  0  0  0  0  0  0  0  0  0
   57.6050   23.9990   44.9210 N   0  0  0  0  0  0  0  0  0  0  0  0
   58.2770   22.7760   45.2670 C   0  0  0  0  0  0  0  0  0  0  0  0
   59.5230   22.7730   45.4630 O   0  0  0  0  0  0  0  0  0  0  0  0
   57.5330   21.4970   45.3440 C   0  0  0  0  0  0  0  0  0  0  0  0
   57.8580   20.5690   46.3500 C   0  0  0  0  0  0  0  0  0  0  0  0
   57.1760   19.3520   46.4410 C   0  0  0  0  0  0  0  0  0  0  0  0
   56.1580   19.0510   45.5350 C   0  0  0  0  0  0  0  0  0  0  0  0
   55.8120   19.9700   44.5420 C   0  0  0  0  0  0  0  0  0  0  0  0
   56.4850   21.1930   44.4460 C   0  0  0  0  0  0  0  0  0  0  0  0
   56.0830   22.1060   43.4760 O   0  0  0  0  0  0  0  0  0  0  0  0
   57.4770   26.4540   44.6020 N   0  0  0  0  0  0  0  0  0  0  0  0
   57.8600   27.8120   44.8890 C   0  0  0  0  0  0  0  0  0  0  0  0
   59.2120   28.1960   44.8970 C   0  0  0  0  0  0  0  0  0  0  0  0
   59.5730   29.5100   45.2020 C   0  0  0  0  0  0  0  0  0  0  0  0
   58.5920   30.4620   45.5220 C   0  0  0  0  0  0  0  0  0  0  0  0
   58.9590   31.8200   45.8340 N   0  0  0  0  0  0  0  0  0  0  0  0
   58.0340   32.9180   45.5340 C   0  0  0  0  0  0  0  0  0  0  0  0
   58.8260   34.2050   45.2880 C   0  0  0  0  0  0  0  0  0  0  0  0
   59.7110   34.4640   46.3620 O   0  0  0  0  0  0  0  0  0  0  0  0
   60.6940   33.4480   46.4290 C   0  0  0  0  0  0  0  0  0  0  0  0
   60.0570   32.0950   46.7660 C   0  0  0  0  0  0  0  0  0  0  0  0
   57.2430   30.0760   45.5290 C   0  0  0  0  0  0  0  0  0  0  0  0
   56.8780   28.7610   45.2210 C   0  0  0  0  0  0  0  0  0  0  0  0
   55.5340   28.4070   45.2350 O   0  0  0  0  0  0  0  0  0  0  0  0
   56.6530   23.9400   44.4960 H   0  0  0  0  0  0  0  0  0  0  0  0
   58.6552   20.8028   47.0709 H   0  0  0  0  0  0  0  0  0  0  0  0
   57.4421   18.6307   47.2277 H   0  0  0  0  0  0  0  0  0  0  0  0
   55.6280   18.0895   45.6031 H   0  0  0  0  0  0  0  0  0  0  0  0
   55.0065   19.7313   43.8319 H   0  0  0  0  0  0  0  0  0  0  0  0
   56.6820   26.2930   43.9420 H   0  0  0  0  0  0  0  0  0  0  0  0
   59.9912   27.4562   44.6613 H   0  0  0  0  0  0  0  0  0  0  0  0
   60.6337   29.8013   45.1915 H   0  0  0  0  0  0  0  0  0  0  0  0
   57.4507   32.6698   44.6351 H   0  0  0  0  0  0  0  0  0  0  0  0
   57.3537   33.0652   46.3858 H   0  0  0  0  0  0  0  0  0  0  0  0
   59.4067   34.0992   44.3598 H   0  0  0  0  0  0  0  0  0  0  0  0
   58.1189   35.0434   45.2040 H   0  0  0  0  0  0  0  0  0  0  0  0
   61.2034   33.3745   45.4568 H   0  0  0  0  0  0  0  0  0  0  0  0
   61.4136   33.7055   47.2201 H   0  0  0  0  0  0  0  0  0  0  0  0
   60.8153   31.3027   46.6816 H   0  0  0  0  0  0  0  0  0  0  0  0
   59.6646   32.1228   47.7932 H   0  0  0  0  0  0  0  0  0  0  0  0
   56.4660   30.8135   45.7787 H   0  0  0  0  0  0  0  0  0  0  0  0
  1  2  2  0
  2  3  1  0
  3  4  1  0
  4  5  2  0
  4  6  1  0
  6  7  2  0
  7  8  1  0
  8  9  2  0
  9 10  1  0
 10 11  2  0
 11 12  1  0
  2 13  1  0
 13 14  1  0
 14 15  2  0
 15 16  1  0
 16 17  2  0
 17 18  1  0
 18 19  1  0
 19 20  1  0
 20 21  1  0
 21 22  1  0
 22 23  1  0
 17 24  1  0
 24 25  2  0
 25 26  1  0
 11  6  1  0
 25 14  1  0
 23 18  1  0
  3 27  1  0
  7 28  1  0
  8 29  1  0
  9 30  1  0
 10 31  1  0
 13 32  1  0
 15 33  1  0
 16 34  1  0
 19 35  1  0
 19 36  1  0
 20 37  1  0
 20 38  1  0
 22 39  1  0
 22 40  1  0
 23 41  1  0
 23 42  1  0
 24 43  1  0
M  CHG  2  12  -1  26  -1
M  END
>  <UniqueID>  (61) 
58

>  <SMILES>  (61) 
O=C(NC(=O)c1ccccc1[O-])Nc1ccc(N2CCOCC2)cc1[O-]

>  <Energy>  (61) 
58.50588297972776

>  <Genealogy>  (61) 
O=C(NC(=O)c1ccccc1[O-])Nc1ccc(N2CCOCC2)cc1[O-] (protonated)
O=C(NC(=O)c1ccccc1[O-])Nc1ccc(N2CCOCC2)cc1[O-] (3D coordinates assigned)
O=C(NC(=O)c1ccccc1[O-])Nc1ccc(N2CCOCC2)cc1[O-] (nonaromatic ring conformer: 58.50588297972776 kcal/mol)

>  <smiles>  (61) 
O=C(NC(=O)c1ccccc1O)Nc1ccc(N2CCOCC2)cc1O

>  <score_type>  (61) 
oracle

>  <origin>  (61) 
adg

>  <m_score__min__energy>  (61) 
-12.119999999999999

>  <m_primary>  (61) 
energy

$$$$
61:0
     RDKit          3D

 40 42  0  0  0  0  0  0  0  0999 V2000
   60.2900   31.0880   48.3580 C   0  0  0  0  0  0  0  0  0  0  0  0
   61.4250   31.9590   47.8910 C   0  0  0  0  0  0  0  0  0  0  0  0
   62.6970   31.8010   48.4660 C   0  0  0  0  0  0  0  0  0  0  0  0
   63.7670   32.5960   48.0500 C   0  0  0  0  0  0  0  0  0  0  0  0
   63.5780   33.5650   47.0650 C   0  0  0  0  0  0  0  0  0  0  0  0
   62.3150   33.7450   46.4950 C   0  0  0  0  0  0  0  0  0  0  0  0
   61.2290   32.9520   46.9010 C   0  0  0  0  0  0  0  0  0  0  0  0
   59.9290   33.1830   46.3280 N   0  0  0  0  0  0  0  0  0  0  0  0
   59.3160   32.1670   45.7140 N   0  0  0  0  0  0  0  0  0  0  0  0
   58.0880   32.2920   45.1440 C   0  0  0  0  0  0  0  0  0  0  0  0
   57.4830   31.1330   44.4660 C   0  0  0  0  0  0  0  0  0  0  0  0
   57.7490   30.8900   43.2570 O   0  0  0  0  0  0  0  0  0  0  0  0
   56.5920   30.2790   45.1910 N   0  0  0  0  0  0  0  0  0  0  0  0
   56.1550   28.9720   44.7140 C   0  0  0  0  0  0  0  0  0  0  0  0
   56.9200   27.8790   45.4180 C   0  0  0  0  0  0  0  0  0  0  0  0
   58.3240   27.9350   45.4480 C   0  0  0  0  0  0  0  0  0  0  0  0
   59.0590   26.9250   46.0760 C   0  0  0  0  0  0  0  0  0  0  0  0
   58.4000   25.8500   46.6760 C   0  0  0  0  0  0  0  0  0  0  0  0
   57.0050   25.7810   46.6480 C   0  0  0  0  0  0  0  0  0  0  0  0
   56.2620   26.7870   46.0210 C   0  0  0  0  0  0  0  0  0  0  0  0
   54.8740   26.6940   46.0060 O   0  0  0  0  0  0  0  0  0  0  0  0
   57.4360   33.5270   45.2070 C   0  0  0  0  0  0  0  0  0  0  0  0
   58.0620   34.5940   45.8460 C   0  0  0  0  0  0  0  0  0  0  0  0
   59.3250   34.4100   46.4070 C   0  0  0  0  0  0  0  0  0  0  0  0
   59.9020   35.3820   46.9690 O   0  0  0  0  0  0  0  0  0  0  0  0
   60.2688   31.0717   49.4577 H   0  0  0  0  0  0  0  0  0  0  0  0
   59.3390   31.4904   47.9788 H   0  0  0  0  0  0  0  0  0  0  0  0
   60.4326   30.0653   47.9788 H   0  0  0  0  0  0  0  0  0  0  0  0
   62.8513   31.0451   49.2501 H   0  0  0  0  0  0  0  0  0  0  0  0
   64.7611   32.4576   48.5002 H   0  0  0  0  0  0  0  0  0  0  0  0
   64.4233   34.1877   46.7368 H   0  0  0  0  0  0  0  0  0  0  0  0
   62.1700   34.5140   45.7220 H   0  0  0  0  0  0  0  0  0  0  0  0
   55.0804   28.8519   44.9162 H   0  0  0  0  0  0  0  0  0  0  0  0
   56.3432   28.9029   43.6324 H   0  0  0  0  0  0  0  0  0  0  0  0
   58.8477   28.7785   44.9746 H   0  0  0  0  0  0  0  0  0  0  0  0
   60.1575   26.9772   46.0975 H   0  0  0  0  0  0  0  0  0  0  0  0
   58.9797   25.0570   47.1710 H   0  0  0  0  0  0  0  0  0  0  0  0
   56.4888   24.9324   47.1207 H   0  0  0  0  0  0  0  0  0  0  0  0
   56.4403   33.6543   44.7571 H   0  0  0  0  0  0  0  0  0  0  0  0
   57.5646   35.5732   45.9076 H   0  0  0  0  0  0  0  0  0  0  0  0
  1  2  1  0
  2  3  2  0
  3  4  1  0
  4  5  2  0
  5  6  1  0
  6  7  2  0
  7  8  1  0
  8  9  1  0
  9 10  2  0
 10 11  1  0
 11 12  2  0
 11 13  1  0
 13 14  1  0
 14 15  1  0
 15 16  2  0
 16 17  1  0
 17 18  2  0
 18 19  1  0
 19 20  2  0
 20 21  1  0
 10 22  1  0
 22 23  2  0
 23 24  1  0
 24 25  2  0
  7  2  1  0
 24  8  1  0
 20 15  1  0
  1 26  1  0
  1 27  1  0
  1 28  1  0
  3 29  1  0
  4 30  1  0
  5 31  1  0
  6 32  1  0
 14 33  1  0
 14 34  1  0
 16 35  1  0
 17 36  1  0
 18 37  1  0
 19 38  1  0
 22 39  1  0
 23 40  1  0
M  CHG  2  13  -1  21  -1
M  END
>  <UniqueID>  (62) 
59

>  <SMILES>  (62) 
Cc1ccccc1-n1nc(C(=O)[N-]Cc2ccccc2[O-])ccc1=O

>  <Energy>  (62) 
49.159490660700264

>  <Genealogy>  (62) 
Cc1ccccc1-n1nc(C(=O)[N-]Cc2ccccc2[O-])ccc1=O (protonated)
Cc1ccccc1-n1nc(C(=O)[N-]Cc2ccccc2[O-])ccc1=O (3D coordinates assigned)
Cc1ccccc1-n1nc(C(=O)[N-]Cc2ccccc2[O-])ccc1=O (optimized conformer: 49.159490660700264 kcal/mol)

>  <smiles>  (62) 
Cc1ccccc1-n1nc(C(=O)NCc2ccccc2O)ccc1=O

>  <score_type>  (62) 
oracle

>  <origin>  (62) 
adg

>  <m_score__min__energy>  (62) 
-14.300000000000001

>  <m_primary>  (62) 
energy

$$$$
62:0
     RDKit          3D

 46 48  0  0  0  0  0  0  0  0999 V2000
   56.5740   26.1640   46.2340 C   0  0  0  0  0  0  0  0  0  0  0  0
   56.9090   27.5360   45.7320 C   0  0  0  0  0  0  0  0  0  0  0  0
   55.8930   28.2990   45.2510 N   0  0  0  0  0  0  0  0  0  0  0  0
   56.1080   29.5470   44.7650 C   0  0  0  0  0  0  0  0  0  0  0  0
   55.1440   30.2260   44.3270 O   0  0  0  0  0  0  0  0  0  0  0  0
   57.3590   30.0630   44.7540 N   0  0  0  0  0  0  0  0  0  0  0  0
   58.4180   29.3490   45.2100 C   0  0  0  0  0  0  0  0  0  0  0  0
   59.5630   29.8730   45.1830 O   0  0  0  0  0  0  0  0  0  0  0  0
   58.2290   28.0390   45.7020 C   0  0  0  0  0  0  0  0  0  0  0  0
   59.6130   27.0640   46.2550 S   0  0  0  0  0  0  0  0  0  0  0  0
   60.8540   27.5490   45.5580 O   0  0  0  0  0  0  0  0  0  0  0  0
   59.4160   25.6050   45.9360 O   0  0  0  0  0  0  0  0  0  0  0  0
   59.8200   27.2280   47.9720 N   0  0  0  0  0  0  0  0  0  0  0  0
   60.1330   28.4550   48.6470 C   0  0  0  0  0  0  0  0  0  0  0  0
   60.3730   28.4200   50.0250 C   0  0  0  0  0  0  0  0  0  0  0  0
   60.6980   29.5910   50.7140 C   0  0  0  0  0  0  0  0  0  0  0  0
   60.7820   30.8070   50.0330 C   0  0  0  0  0  0  0  0  0  0  0  0
   60.5360   30.8610   48.6530 C   0  0  0  0  0  0  0  0  0  0  0  0
   60.6310   32.4000   47.7890 S   0  0  0  0  0  0  0  0  0  0  0  0
   60.2400   33.5120   48.7260 O   0  0  0  0  0  0  0  0  0  0  0  0
   62.0530   32.6380   47.3580 O   0  0  0  0  0  0  0  0  0  0  0  0
   59.5880   32.4270   46.3820 N   0  0  0  0  0  0  0  0  0  0  0  0
   58.1690   32.1680   46.7480 C   0  0  0  0  0  0  0  0  0  0  0  0
   57.3310   33.4510   46.8340 C   0  0  0  0  0  0  0  0  0  0  0  0
   57.3390   34.2160   45.4960 C   0  0  0  0  0  0  0  0  0  0  0  0
   58.6250   33.9790   44.6820 C   0  0  0  0  0  0  0  0  0  0  0  0
   59.8050   33.6760   45.6120 C   0  0  0  0  0  0  0  0  0  0  0  0
   60.2110   29.6850   47.9630 C   0  0  0  0  0  0  0  0  0  0  0  0
   56.5744   26.1658   47.3340 H   0  0  0  0  0  0  0  0  0  0  0  0
   55.5783   25.8727   45.8682 H   0  0  0  0  0  0  0  0  0  0  0  0
   57.3234   25.4466   45.8682 H   0  0  0  0  0  0  0  0  0  0  0  0
   60.3055   27.4660   50.5684 H   0  0  0  0  0  0  0  0  0  0  0  0
   60.8884   29.5549   51.7968 H   0  0  0  0  0  0  0  0  0  0  0  0
   61.0418   31.7252   50.5801 H   0  0  0  0  0  0  0  0  0  0  0  0
   59.9060   31.6290   45.7790 H   0  0  0  0  0  0  0  0  0  0  0  0
   57.7249   31.5090   45.9874 H   0  0  0  0  0  0  0  0  0  0  0  0
   58.1646   31.7032   47.7450 H   0  0  0  0  0  0  0  0  0  0  0  0
   56.2944   33.1855   47.0887 H   0  0  0  0  0  0  0  0  0  0  0  0
   57.7679   34.0998   47.6074 H   0  0  0  0  0  0  0  0  0  0  0  0
   56.4777   33.8856   44.8969 H   0  0  0  0  0  0  0  0  0  0  0  0
   57.2863   35.2900   45.7277 H   0  0  0  0  0  0  0  0  0  0  0  0
   58.4714   33.1268   44.0037 H   0  0  0  0  0  0  0  0  0  0  0  0
   58.8523   34.8882   44.1060 H   0  0  0  0  0  0  0  0  0  0  0  0
   60.7174   33.5683   45.0071 H   0  0  0  0  0  0  0  0  0  0  0  0
   59.9021   34.5072   46.3259 H   0  0  0  0  0  0  0  0  0  0  0  0
   60.0156   29.7222   46.8811 H   0  0  0  0  0  0  0  0  0  0  0  0
  1  2  1  0
  2  3  1  0
  3  4  1  0
  4  5  2  0
  4  6  1  0
  6  7  1  0
  7  8  2  0
  7  9  1  0
  9 10  1  0
 10 11  2  0
 10 12  2  0
 10 13  1  0
 13 14  1  0
 14 15  2  0
 15 16  1  0
 16 17  2  0
 17 18  1  0
 18 19  1  0
 19 20  2  0
 19 21  2  0
 19 22  1  0
 22 23  1  0
 23 24  1  0
 24 25  1  0
 25 26  1  0
 26 27  1  0
 18 28  2  0
  9  2  2  0
 28 14  1  0
 27 22  1  0
  1 29  1  0
  1 30  1  0
  1 31  1  0
 15 32  1  0
 16 33  1  0
 17 34  1  0
 22 35  1  0
 23 36  1  0
 23 37  1  0
 24 38  1  0
 24 39  1  0
 25 40  1  0
 25 41  1  0
 26 42  1  0
 26 43  1  0
 27 44  1  0
 27 45  1  0
 28 46  1  0
M  CHG  4   3  -1   6  -1  13  -1  22   1
M  END
>  <UniqueID>  (63) 
60

>  <SMILES>  (63) 
Cc1[n-]c(=O)[n-]c(=O)c1S(=O)(=O)[N-]c1cccc(S(=O)(=O)[NH+]2CCCCC2)c1

>  <Energy>  (63) 
57.414719871329694

>  <Genealogy>  (63) 
Cc1[n-]c(=O)[n-]c(=O)c1S(=O)(=O)[N-]c1cccc(S(=O)(=O)[NH+]2CCCCC2)c1 (protonated)
Cc1[n-]c(=O)[n-]c(=O)c1S(=O)(=O)[N-]c1cccc(S(=O)(=O)[NH+]2CCCCC2)c1 (3D coordinates assigned)
Cc1[n-]c(=O)[n-]c(=O)c1S(=O)(=O)[N-]c1cccc(S(=O)(=O)[NH+]2CCCCC2)c1 (nonaromatic ring conformer: 57.414719871329694 kcal/mol)

>  <smiles>  (63) 
Cc1[nH]c(=O)[nH]c(=O)c1S(=O)(=O)Nc1cccc(S(=O)(=O)N2CCCCC2)c1

>  <score_type>  (63) 
oracle

>  <origin>  (63) 
adg

>  <m_score__min__energy>  (63) 
-13.67

>  <m_primary>  (63) 
energy

$$$$
63:0
     RDKit          3D

 59 62  0  0  0  0  0  0  0  0999 V2000
   58.9010   32.9690   51.3230 O   0  0  0  0  0  0  0  0  0  0  0  0
   59.4900   32.7550   50.2280 C   0  0  0  0  0  0  0  0  0  0  0  0
   59.2950   33.6970   49.0820 C   0  0  0  0  0  0  0  0  0  0  0  0
   58.7140   32.9930   47.9400 N   0  0  0  0  0  0  0  0  0  0  0  0
   58.4590   33.6690   46.6990 C   0  0  0  0  0  0  0  0  0  0  0  0
   58.5030   34.9300   46.6580 O   0  0  0  0  0  0  0  0  0  0  0  0
   58.1460   32.9080   45.4640 C   0  0  0  0  0  0  0  0  0  0  0  0
   58.4460   33.4570   44.2050 C   0  0  0  0  0  0  0  0  0  0  0  0
   58.1880   32.7330   43.0370 C   0  0  0  0  0  0  0  0  0  0  0  0
   57.6350   31.4530   43.1110 C   0  0  0  0  0  0  0  0  0  0  0  0
   57.3320   30.8910   44.3580 C   0  0  0  0  0  0  0  0  0  0  0  0
   56.6780   29.2590   44.4640 S   0  0  0  0  0  0  0  0  0  0  0  0
   55.1820   29.3230   44.6050 O   0  0  0  0  0  0  0  0  0  0  0  0
   57.0040   28.5140   43.2000 O   0  0  0  0  0  0  0  0  0  0  0  0
   57.3440   28.3920   45.8100 N   0  0  0  0  0  0  0  0  0  0  0  0
   57.5050   26.9710   45.8130 C   0  0  0  0  0  0  0  0  0  0  0  0
   58.7760   26.3910   45.6820 C   0  0  0  0  0  0  0  0  0  0  0  0
   58.9170   25.0000   45.6790 C   0  0  0  0  0  0  0  0  0  0  0  0
   57.7880   24.1830   45.7810 C   0  0  0  0  0  0  0  0  0  0  0  0
   56.5180   24.7560   45.8810 C   0  0  0  0  0  0  0  0  0  0  0  0
   56.3740   26.1470   45.8910 C   0  0  0  0  0  0  0  0  0  0  0  0
   55.1350   26.6940   45.9890 F   0  0  0  0  0  0  0  0  0  0  0  0
   57.5890   31.6170   45.5280 C   0  0  0  0  0  0  0  0  0  0  0  0
   60.3560   31.6250   50.0670 N   0  0  0  0  0  0  0  0  0  0  0  0
   60.3180   30.6700   48.9960 C   0  0  0  0  0  0  0  0  0  0  0  0
   59.4470   29.5650   49.0340 C   0  0  0  0  0  0  0  0  0  0  0  0
   59.3880   28.6770   47.9580 C   0  0  0  0  0  0  0  0  0  0  0  0
   60.1820   28.8890   46.8290 C   0  0  0  0  0  0  0  0  0  0  0  0
   61.0320   29.9940   46.7700 C   0  0  0  0  0  0  0  0  0  0  0  0
   61.1020   30.8920   47.8470 C   0  0  0  0  0  0  0  0  0  0  0  0
   61.9790   32.0270   47.7740 N   0  0  0  0  0  0  0  0  0  0  0  0
   61.6910   33.1010   46.8150 C   0  0  0  0  0  0  0  0  0  0  0  0
   62.9700   33.8680   46.3960 C   0  0  0  0  0  0  0  0  0  0  0  0
   64.1370   33.4630   47.0890 O   0  0  0  0  0  0  0  0  0  0  0  0
   63.8830   33.4120   48.4740 C   0  0  0  0  0  0  0  0  0  0  0  0
   63.0380   32.1810   48.7770 C   0  0  0  0  0  0  0  0  0  0  0  0
   58.6193   34.5084   49.3902 H   0  0  0  0  0  0  0  0  0  0  0  0
   60.2711   34.1106   48.7886 H   0  0  0  0  0  0  0  0  0  0  0  0
   58.4320   31.9920   48.0480 H   0  0  0  0  0  0  0  0  0  0  0  0
   58.8866   34.4627   44.1384 H   0  0  0  0  0  0  0  0  0  0  0  0
   58.4215   33.1733   42.0564 H   0  0  0  0  0  0  0  0  0  0  0  0
   57.4371   30.8856   42.1897 H   0  0  0  0  0  0  0  0  0  0  0  0
   59.6639   27.0325   45.5814 H   0  0  0  0  0  0  0  0  0  0  0  0
   59.9168   24.5487   45.5963 H   0  0  0  0  0  0  0  0  0  0  0  0
   57.8993   23.0886   45.7825 H   0  0  0  0  0  0  0  0  0  0  0  0
   55.6293   24.1117   45.9520 H   0  0  0  0  0  0  0  0  0  0  0  0
   57.3531   31.1737   46.5067 H   0  0  0  0  0  0  0  0  0  0  0  0
   58.8098   29.4002   49.9154 H   0  0  0  0  0  0  0  0  0  0  0  0
   58.7144   27.8083   47.9998 H   0  0  0  0  0  0  0  0  0  0  0  0
   60.1373   28.1843   45.9855 H   0  0  0  0  0  0  0  0  0  0  0  0
   61.6500   30.1623   45.8757 H   0  0  0  0  0  0  0  0  0  0  0  0
   61.2314   32.6611   45.9176 H   0  0  0  0  0  0  0  0  0  0  0  0
   61.0119   33.8163   47.3020 H   0  0  0  0  0  0  0  0  0  0  0  0
   63.1331   33.7071   45.3201 H   0  0  0  0  0  0  0  0  0  0  0  0
   62.8027   34.9263   46.6451 H   0  0  0  0  0  0  0  0  0  0  0  0
   64.8349   33.3501   49.0217 H   0  0  0  0  0  0  0  0  0  0  0  0
   63.3452   34.3189   48.7874 H   0  0  0  0  0  0  0  0  0  0  0  0
   63.6808   31.2885   48.7651 H   0  0  0  0  0  0  0  0  0  0  0  0
   62.5756   32.3012   49.7678 H   0  0  0  0  0  0  0  0  0  0  0  0
  1  2  2  0
  2  3  1  0
  3  4  1  0
  4  5  1  0
  5  6  2  0
  5  7  1  0
  7  8  2  0
  8  9  1  0
  9 10  2  0
 10 11  1  0
 11 12  1  0
 12 13  2  0
 12 14  2  0
 12 15  1  0
 15 16  1  0
 16 17  2  0
 17 18  1  0
 18 19  2  0
 19 20  1  0
 20 21  2  0
 21 22  1  0
 11 23  2  0
  2 24  1  0
 24 25  1  0
 25 26  2  0
 26 27  1  0
 27 28  2  0
 28 29  1  0
 29 30  2  0
 30 31  1  0
 31 32  1  0
 32 33  1  0
 33 34  1  0
 34 35  1  0
 35 36  1  0
 23  7  1  0
 30 25  1  0
 36 31  1  0
 21 16  1  0
  3 37  1  0
  3 38  1  0
  4 39  1  0
  8 40  1  0
  9 41  1  0
 10 42  1  0
 17 43  1  0
 18 44  1  0
 19 45  1  0
 20 46  1  0
 23 47  1  0
 26 48  1  0
 27 49  1  0
 28 50  1  0
 29 51  1  0
 32 52  1  0
 32 53  1  0
 33 54  1  0
 33 55  1  0
 35 56  1  0
 35 57  1  0
 36 58  1  0
 36 59  1  0
M  CHG  2  15  -1  24  -1
M  END
>  <UniqueID>  (64) 
61

>  <SMILES>  (64) 
O=C(CNC(=O)c1cccc(S(=O)(=O)[N-]c2ccccc2F)c1)[N-]c1ccccc1N1CCOCC1

>  <Energy>  (64) 
82.76834322568331

>  <Genealogy>  (64) 
O=C(CNC(=O)c1cccc(S(=O)(=O)[N-]c2ccccc2F)c1)[N-]c1ccccc1N1CCOCC1 (protonated)
O=C(CNC(=O)c1cccc(S(=O)(=O)[N-]c2ccccc2F)c1)[N-]c1ccccc1N1CCOCC1 (3D coordinates assigned)
O=C(CNC(=O)c1cccc(S(=O)(=O)[N-]c2ccccc2F)c1)[N-]c1ccccc1N1CCOCC1 (nonaromatic ring conformer: 82.76834322568331 kcal/mol)

>  <smiles>  (64) 
O=C(CNC(=O)c1cccc(S(=O)(=O)Nc2ccccc2F)c1)Nc1ccccc1N1CCOCC1

>  <score_type>  (64) 
oracle

>  <origin>  (64) 
adg

>  <m_score__min__energy>  (64) 
-12.529999999999999

>  <m_primary>  (64) 
energy

$$$$
64:0
     RDKit          3D

 24 25  0  0  0  0  0  0  0  0999 V2000
   60.4028   30.1373   51.3897 H   0  0  0  0  0  0  0  0  0  0  0  0
   60.0590   29.7050   52.3410 C   0  0  0  0  0  0  0  0  0  0  0  0
   60.7916   29.3921   53.0996 H   0  0  0  0  0  0  0  0  0  0  0  0
   58.7520   29.5600   52.5750 C   0  0  0  0  0  0  0  0  0  0  0  0
   58.3470   29.0240   53.7560 N   0  0  0  0  0  0  0  0  0  0  0  0
   57.0330   28.8520   54.0620 C   0  0  0  0  0  0  0  0  0  0  0  0
   56.7370   28.3020   55.1560 O   0  0  0  0  0  0  0  0  0  0  0  0
   56.0450   29.2580   53.1300 C   0  0  0  0  0  0  0  0  0  0  0  0
   54.7140   29.1470   53.3260 C   0  0  0  0  0  0  0  0  0  0  0  0
   54.3617   28.2534   53.8621 H   0  0  0  0  0  0  0  0  0  0  0  0
   53.6870   30.1130   52.8880 C   0  0  0  0  0  0  0  0  0  0  0  0
   53.6950   30.6260   51.5790 C   0  0  0  0  0  0  0  0  0  0  0  0
   54.4977   30.3418   50.8826 H   0  0  0  0  0  0  0  0  0  0  0  0
   52.6840   31.4970   51.1610 C   0  0  0  0  0  0  0  0  0  0  0  0
   52.7037   31.9124   50.1426 H   0  0  0  0  0  0  0  0  0  0  0  0
   51.6480   31.8410   52.0350 C   0  0  0  0  0  0  0  0  0  0  0  0
   50.6440   32.7070   51.6180 O   0  0  0  0  0  0  0  0  0  0  0  0
   51.6210   31.3090   53.3290 C   0  0  0  0  0  0  0  0  0  0  0  0
   50.8041   31.5757   54.0157 H   0  0  0  0  0  0  0  0  0  0  0  0
   52.6310   30.4390   53.7500 C   0  0  0  0  0  0  0  0  0  0  0  0
   52.5968   30.0086   54.7617 H   0  0  0  0  0  0  0  0  0  0  0  0
   56.4630   29.7700   51.9410 N   0  0  0  0  0  0  0  0  0  0  0  0
   57.7760   29.9360   51.6360 C   0  0  0  0  0  0  0  0  0  0  0  0
   58.0940   30.4230   50.5170 O   0  0  0  0  0  0  0  0  0  0  0  0
  1  2  1  0
  2  3  1  0
  2  4  2  0
  4  5  1  0
  5  6  1  0
  6  7  2  0
  6  8  1  0
  8  9  2  0
  9 10  1  0
  9 11  1  0
 11 12  2  0
 12 13  1  0
 12 14  1  0
 14 15  1  0
 14 16  2  0
 16 17  1  0
 16 18  1  0
 18 19  1  0
 18 20  2  0
 20 21  1  0
  8 22  1  0
 22 23  1  0
 23 24  2  0
 23  4  1  0
 20 11  1  0
M  CHG  3   5  -1  17  -1  22  -1
M  END
>  <UniqueID>  (65) 
62

>  <SMILES>  (65) 
C=c1[n-]c(=O)/c(=C\c2ccc([O-])cc2)[n-]c1=O

>  <Energy>  (65) 
40.08846447234454

>  <Genealogy>  (65) 
C=c1[n-]c(=O)c(=Cc2ccc([O-])cc2)[n-]c1=O (protonated)
C=c1[n-]c(=O)/c(=C\c2ccc([O-])cc2)[n-]c1=O (cis-trans isomerization)
C=c1[n-]c(=O)/c(=C\c2ccc([O-])cc2)[n-]c1=O (3D coordinates assigned)
C=c1[n-]c(=O)/c(=C\c2ccc([O-])cc2)[n-]c1=O (optimized conformer: 40.08846447234454 kcal/mol)

>  <smiles>  (65) 
C=c1[nH]c(=O)c(=Cc2ccc(O)cc2)[nH]c1=O

>  <score_type>  (65) 
oracle

>  <origin>  (65) 
adg

>  <m_score__min__energy>  (65) 
-11.630000000000001

>  <m_primary>  (65) 
energy

$$$$
65:0
     RDKit          3D

 59 62  0  0  0  0  0  0  0  0999 V2000
   57.7910   29.8890   53.1440 H   0  0  0  0  0  0  0  0  0  0  0  0
   57.7530   29.5840   52.1450 N   0  0  0  0  0  0  0  0  0  0  0  0
   58.3560   30.2080   51.1770 C   0  0  0  0  0  0  0  0  0  0  0  0
   57.8910   31.4290   50.8010 N   0  0  0  0  0  0  0  0  0  0  0  0
   58.4720   32.1560   49.8110 C   0  0  0  0  0  0  0  0  0  0  0  0
   58.0663   33.1439   49.5474 H   0  0  0  0  0  0  0  0  0  0  0  0
   59.5870   31.6530   49.1230 C   0  0  0  0  0  0  0  0  0  0  0  0
   60.2820   32.5140   48.1400 C   0  0  0  0  0  0  0  0  0  0  0  0
   61.6860   32.4640   48.0730 C   0  0  0  0  0  0  0  0  0  0  0  0
   62.2368   31.7540   48.7074 H   0  0  0  0  0  0  0  0  0  0  0  0
   62.3870   33.3070   47.2090 C   0  0  0  0  0  0  0  0  0  0  0  0
   63.4844   33.2517   47.1571 H   0  0  0  0  0  0  0  0  0  0  0  0
   61.6960   34.2200   46.4110 C   0  0  0  0  0  0  0  0  0  0  0  0
   62.2503   34.8947   45.7420 H   0  0  0  0  0  0  0  0  0  0  0  0
   60.3000   34.2780   46.4610 C   0  0  0  0  0  0  0  0  0  0  0  0
   59.6390   35.1600   45.6700 F   0  0  0  0  0  0  0  0  0  0  0  0
   59.5810   33.4190   47.3050 C   0  0  0  0  0  0  0  0  0  0  0  0
   58.1820   33.4950   47.2820 O   0  0  0  0  0  0  0  0  0  0  0  0
   57.4280   33.6670   46.0850 C   0  0  0  0  0  0  0  0  0  0  0  0
   56.3847   33.9050   46.3398 H   0  0  0  0  0  0  0  0  0  0  0  0
   57.8584   34.4900   45.4956 H   0  0  0  0  0  0  0  0  0  0  0  0
   57.4589   32.7387   45.4956 H   0  0  0  0  0  0  0  0  0  0  0  0
   60.0720   30.3700   49.4590 C   0  0  0  0  0  0  0  0  0  0  0  0
   61.1390   29.7770   48.7670 O   0  0  0  0  0  0  0  0  0  0  0  0
   60.9700   29.0340   47.5610 C   0  0  0  0  0  0  0  0  0  0  0  0
   61.9212   28.5512   47.2924 H   0  0  0  0  0  0  0  0  0  0  0  0
   60.1963   28.2666   47.7107 H   0  0  0  0  0  0  0  0  0  0  0  0
   60.5410   29.9730   46.4350 C   0  0  0  0  0  0  0  0  0  0  0  0
   60.6095   31.0126   46.7880 H   0  0  0  0  0  0  0  0  0  0  0  0
   61.2062   29.8135   45.5736 H   0  0  0  0  0  0  0  0  0  0  0  0
   59.1250   29.6910   46.0060 C   0  0  0  0  0  0  0  0  0  0  0  0
   58.3970   30.6610   45.3010 C   0  0  0  0  0  0  0  0  0  0  0  0
   58.8643   31.6252   45.0520 H   0  0  0  0  0  0  0  0  0  0  0  0
   57.0800   30.4040   44.9150 C   0  0  0  0  0  0  0  0  0  0  0  0
   56.5179   31.1626   44.3506 H   0  0  0  0  0  0  0  0  0  0  0  0
   56.4700   29.1860   45.2420 C   0  0  0  0  0  0  0  0  0  0  0  0
   55.1550   28.9570   44.8430 O   0  0  0  0  0  0  0  0  0  0  0  0
   57.1820   28.2100   45.9690 C   0  0  0  0  0  0  0  0  0  0  0  0
   56.5180   26.9120   46.3950 C   0  0  0  0  0  0  0  0  0  0  0  0
   56.8004   26.7114   47.4390 H   0  0  0  0  0  0  0  0  0  0  0  0
   55.4371   27.0602   46.2543 H   0  0  0  0  0  0  0  0  0  0  0  0
   56.8800   25.7280   45.5870 N   0  0  0  0  0  0  0  0  0  0  0  0
   57.4850   26.0130   44.2860 C   0  0  0  0  0  0  0  0  0  0  0  0
   56.9450   26.8287   43.7830 H   0  0  0  0  0  0  0  0  0  0  0  0
   58.5327   26.3323   44.3883 H   0  0  0  0  0  0  0  0  0  0  0  0
   57.3680   24.7250   43.4820 C   0  0  0  0  0  0  0  0  0  0  0  0
   57.0474   24.9423   42.4525 H   0  0  0  0  0  0  0  0  0  0  0  0
   58.3311   24.1980   43.4134 H   0  0  0  0  0  0  0  0  0  0  0  0
   56.3150   23.8880   44.2030 C   0  0  0  0  0  0  0  0  0  0  0  0
   55.4976   23.6216   43.5168 H   0  0  0  0  0  0  0  0  0  0  0  0
   56.7300   22.9429   44.5831 H   0  0  0  0  0  0  0  0  0  0  0  0
   55.8020   24.7750   45.3240 C   0  0  0  0  0  0  0  0  0  0  0  0
   54.8892   25.3028   45.0105 H   0  0  0  0  0  0  0  0  0  0  0  0
   55.5416   24.1932   46.2205 H   0  0  0  0  0  0  0  0  0  0  0  0
   58.5050   28.4800   46.3620 C   0  0  0  0  0  0  0  0  0  0  0  0
   59.0601   27.7370   46.9534 H   0  0  0  0  0  0  0  0  0  0  0  0
   59.4760   29.6550   50.5130 C   0  0  0  0  0  0  0  0  0  0  0  0
   60.0100   28.3590   50.8740 C   0  0  0  0  0  0  0  0  0  0  0  0
   60.4350   27.3180   51.1560 N   0  0  0  0  0  0  0  0  0  0  0  0
  1  2  1  0
  2  3  2  0
  3  4  1  0
  4  5  1  0
  5  6  1  0
  5  7  2  0
  7  8  1  0
  8  9  2  0
  9 10  1  0
  9 11  1  0
 11 12  1  0
 11 13  2  0
 13 14  1  0
 13 15  1  0
 15 16  1  0
 15 17  2  0
 17 18  1  0
 18 19  1  0
 19 20  1  0
 19 21  1  0
 19 22  1  0
  7 23  1  0
 23 24  1  0
 24 25  1  0
 25 26  1  0
 25 27  1  0
 25 28  1  0
 28 29  1  0
 28 30  1  0
 28 31  1  0
 31 32  2  0
 32 33  1  0
 32 34  1  0
 34 35  1  0
 34 36  2  0
 36 37  1  0
 36 38  1  0
 38 39  1  0
 39 40  1  0
 39 41  1  0
 39 42  1  0
 42 43  1  0
 43 44  1  0
 43 45  1  0
 43 46  1  0
 46 47  1  0
 46 48  1  0
 46 49  1  0
 49 50  1  0
 49 51  1  0
 49 52  1  0
 52 53  1  0
 52 54  1  0
 38 55  2  0
 55 56  1  0
 23 57  2  0
 57 58  1  0
 58 59  3  0
 57  3  1  0
 17  8  1  0
 55 31  1  0
 52 42  1  0
M  CHG  2   4  -1  37  -1
M  END
>  <UniqueID>  (66) 
63

>  <SMILES>  (66) 
[H]/N=c1/[n-]cc(-c2cccc(F)c2OC)c(OCCc2ccc([O-])c(CN3CCCC3)c2)c1C#N

>  <Energy>  (66) 
84.97021474877937

>  <Genealogy>  (66) 
COc1c(F)cccc1-c1c[n-]c(=N)c(C#N)c1OCCc1ccc([O-])c(CN2CCCC2)c1 (protonated)
[H]/N=c1/[n-]cc(-c2cccc(F)c2OC)c(OCCc2ccc([O-])c(CN3CCCC3)c2)c1C#N (cis-trans isomerization)
[H]/N=c1/[n-]cc(-c2cccc(F)c2OC)c(OCCc2ccc([O-])c(CN3CCCC3)c2)c1C#N (3D coordinates assigned)
[H]/N=c1/[n-]cc(-c2cccc(F)c2OC)c(OCCc2ccc([O-])c(CN3CCCC3)c2)c1C#N (nonaromatic ring conformer: 84.97021474877937 kcal/mol)

>  <smiles>  (66) 
COc1c(F)cccc1-c1c[nH]c(=N)c(C#N)c1OCCc1ccc(O)c(CN2CCCC2)c1

>  <score_type>  (66) 
oracle

>  <origin>  (66) 
adg

>  <m_score__min__energy>  (66) 
-12.6

>  <m_primary>  (66) 
energy

$$$$
66:0
     RDKit          3D

 49 51  0  0  0  0  0  0  0  0999 V2000
   55.3020   29.3100   44.8730 O   0  0  0  0  0  0  0  0  0  0  0  0
   56.2120   30.0720   44.4480 C   0  0  0  0  0  0  0  0  0  0  0  0
   57.2420   29.5380   43.4990 C   0  0  0  0  0  0  0  0  0  0  0  0
   58.1120   28.4510   44.1590 C   0  0  0  0  0  0  0  0  0  0  0  0
   57.9320   28.3870   45.6370 N   0  0  0  0  0  0  0  0  0  0  0  0
   59.1920   28.6820   46.3720 C   0  0  0  0  0  0  0  0  0  0  0  0
   60.0000   27.4100   46.7000 C   0  0  0  0  0  0  0  0  0  0  0  0
   59.7450   26.3990   45.7480 O   0  0  0  0  0  0  0  0  0  0  0  0
   58.4120   25.9370   45.8740 C   0  0  0  0  0  0  0  0  0  0  0  0
   57.3820   27.0780   46.0560 C   0  0  0  0  0  0  0  0  0  0  0  0
   56.2630   31.4470   44.8450 N   0  0  0  0  0  0  0  0  0  0  0  0
   57.4390   32.1770   45.2240 C   0  0  0  0  0  0  0  0  0  0  0  0
   57.8380   33.3450   44.5540 C   0  0  0  0  0  0  0  0  0  0  0  0
   58.9760   34.0420   44.9710 C   0  0  0  0  0  0  0  0  0  0  0  0
   59.7240   33.5950   46.0650 C   0  0  0  0  0  0  0  0  0  0  0  0
   60.8630   34.3290   46.4370 O   0  0  0  0  0  0  0  0  0  0  0  0
   62.2050   33.8420   46.4110 C   0  0  0  0  0  0  0  0  0  0  0  0
   62.7560   33.7180   47.8070 C   0  0  0  0  0  0  0  0  0  0  0  0
   62.0370   34.2140   48.9060 C   0  0  0  0  0  0  0  0  0  0  0  0
   62.5610   34.1050   50.1990 C   0  0  0  0  0  0  0  0  0  0  0  0
   63.8090   33.5110   50.4000 C   0  0  0  0  0  0  0  0  0  0  0  0
   64.5370   33.0260   49.3100 C   0  0  0  0  0  0  0  0  0  0  0  0
   64.0160   33.1330   48.0170 C   0  0  0  0  0  0  0  0  0  0  0  0
   59.3080   32.4380   46.7530 C   0  0  0  0  0  0  0  0  0  0  0  0
   58.1690   31.7430   46.3360 C   0  0  0  0  0  0  0  0  0  0  0  0
   56.7323   29.1056   42.6253 H   0  0  0  0  0  0  0  0  0  0  0  0
   57.8978   30.3689   43.1998 H   0  0  0  0  0  0  0  0  0  0  0  0
   57.8416   27.4752   43.7293 H   0  0  0  0  0  0  0  0  0  0  0  0
   59.1644   28.7048   43.9638 H   0  0  0  0  0  0  0  0  0  0  0  0
   57.2230   29.1030   45.9200 H   0  0  0  0  0  0  0  0  0  0  0  0
   59.8143   29.3444   45.7524 H   0  0  0  0  0  0  0  0  0  0  0  0
   58.9177   29.1571   47.3254 H   0  0  0  0  0  0  0  0  0  0  0  0
   61.0731   27.6515   46.6920 H   0  0  0  0  0  0  0  0  0  0  0  0
   59.6990   27.0454   47.6932 H   0  0  0  0  0  0  0  0  0  0  0  0
   58.1510   25.3728   44.9665 H   0  0  0  0  0  0  0  0  0  0  0  0
   58.3684   25.3121   46.7782 H   0  0  0  0  0  0  0  0  0  0  0  0
   56.4923   26.8548   45.4488 H   0  0  0  0  0  0  0  0  0  0  0  0
   57.1262   27.1406   47.1240 H   0  0  0  0  0  0  0  0  0  0  0  0
   57.2531   33.7128   43.6981 H   0  0  0  0  0  0  0  0  0  0  0  0
   59.2859   34.9504   44.4337 H   0  0  0  0  0  0  0  0  0  0  0  0
   62.2208   32.8539   45.9280 H   0  0  0  0  0  0  0  0  0  0  0  0
   62.8274   34.5533   45.8482 H   0  0  0  0  0  0  0  0  0  0  0  0
   61.0578   34.6903   48.7501 H   0  0  0  0  0  0  0  0  0  0  0  0
   61.9896   34.4874   51.0577 H   0  0  0  0  0  0  0  0  0  0  0  0
   64.2192   33.4248   51.4170 H   0  0  0  0  0  0  0  0  0  0  0  0
   65.5205   32.5598   49.4695 H   0  0  0  0  0  0  0  0  0  0  0  0
   64.5951   32.7575   47.1604 H   0  0  0  0  0  0  0  0  0  0  0  0
   59.8813   32.0804   47.6210 H   0  0  0  0  0  0  0  0  0  0  0  0
   57.8441   30.8478   46.8865 H   0  0  0  0  0  0  0  0  0  0  0  0
  1  2  2  0
  2  3  1  0
  3  4  1  0
  4  5  1  0
  5  6  1  0
  6  7  1  0
  7  8  1  0
  8  9  1  0
  9 10  1  0
  2 11  1  0
 11 12  1  0
 12 13  2  0
 13 14  1  0
 14 15  2  0
 15 16  1  0
 16 17  1  0
 17 18  1  0
 18 19  2  0
 19 20  1  0
 20 21  2  0
 21 22  1  0
 22 23  2  0
 15 24  1  0
 24 25  2  0
 10  5  1  0
 25 12  1  0
 23 18  1  0
  3 26  1  0
  3 27  1  0
  4 28  1  0
  4 29  1  0
  5 30  1  0
  6 31  1  0
  6 32  1  0
  7 33  1  0
  7 34  1  0
  9 35  1  0
  9 36  1  0
 10 37  1  0
 10 38  1  0
 13 39  1  0
 14 40  1  0
 17 41  1  0
 17 42  1  0
 19 43  1  0
 20 44  1  0
 21 45  1  0
 22 46  1  0
 23 47  1  0
 24 48  1  0
 25 49  1  0
M  CHG  2   5   1  11  -1
M  END
>  <UniqueID>  (67) 
64

>  <SMILES>  (67) 
O=C(CC[NH+]1CCOCC1)[N-]c1ccc(OCc2ccccc2)cc1

>  <Energy>  (67) 
64.23801378935266

>  <Genealogy>  (67) 
O=C(CC[NH+]1CCOCC1)[N-]c1ccc(OCc2ccccc2)cc1 (protonated)
O=C(CC[NH+]1CCOCC1)[N-]c1ccc(OCc2ccccc2)cc1 (3D coordinates assigned)
O=C(CC[NH+]1CCOCC1)[N-]c1ccc(OCc2ccccc2)cc1 (nonaromatic ring conformer: 64.23801378935266 kcal/mol)

>  <smiles>  (67) 
O=C(CCN1CCOCC1)Nc1ccc(OCc2ccccc2)cc1

>  <score_type>  (67) 
oracle

>  <origin>  (67) 
adg

>  <m_score__min__energy>  (67) 
-7.7800000000000002

>  <m_primary>  (67) 
energy

$$$$
67:0
     RDKit          3D

 42 43  0  0  0  0  0  0  0  0999 V2000
   57.2450   31.9470   41.7100 C   0  0  0  0  0  0  0  0  0  0  0  0
   57.1440   31.3360   43.0410 N   0  0  0  0  0  0  0  0  0  0  0  0
   57.0120   29.8710   43.1410 C   0  0  0  0  0  0  0  0  0  0  0  0
   56.0720   29.5160   44.2540 C   0  0  0  0  0  0  0  0  0  0  0  0
   54.8420   29.3920   44.0140 O   0  0  0  0  0  0  0  0  0  0  0  0
   56.5670   29.3730   45.5910 N   0  0  0  0  0  0  0  0  0  0  0  0
   57.8760   28.9130   45.9580 C   0  0  0  0  0  0  0  0  0  0  0  0
   58.9390   29.8130   46.1510 C   0  0  0  0  0  0  0  0  0  0  0  0
   60.1950   29.3460   46.5420 C   0  0  0  0  0  0  0  0  0  0  0  0
   60.3990   27.9830   46.7580 C   0  0  0  0  0  0  0  0  0  0  0  0
   59.3440   27.0840   46.5940 C   0  0  0  0  0  0  0  0  0  0  0  0
   58.0830   27.5450   46.2040 C   0  0  0  0  0  0  0  0  0  0  0  0
   56.6560   26.2860   46.0180 Br  0  0  0  0  0  0  0  0  0  0  0  0
   57.3830   32.1720   44.2020 C   0  0  0  0  0  0  0  0  0  0  0  0
   56.7080   31.9860   45.2550 O   0  0  0  0  0  0  0  0  0  0  0  0
   58.4350   33.2520   44.2170 C   0  0  0  0  0  0  0  0  0  0  0  0
   59.2990   33.1100   45.3850 N   0  0  0  0  0  0  0  0  0  0  0  0
   59.9390   34.2280   46.0040 C   0  0  0  0  0  0  0  0  0  0  0  0
   59.6640   35.3900   45.6140 O   0  0  0  0  0  0  0  0  0  0  0  0
   60.9460   34.0410   47.0760 C   0  0  0  0  0  0  0  0  0  0  0  0
   62.2740   33.7150   46.7310 C   0  0  0  0  0  0  0  0  0  0  0  0
   63.2440   33.5080   47.7210 C   0  0  0  0  0  0  0  0  0  0  0  0
   62.8960   33.6370   49.0680 C   0  0  0  0  0  0  0  0  0  0  0  0
   61.5840   33.9880   49.4270 C   0  0  0  0  0  0  0  0  0  0  0  0
   60.6100   34.1960   48.4410 C   0  0  0  0  0  0  0  0  0  0  0  0
   59.3790   34.6160   48.8170 F   0  0  0  0  0  0  0  0  0  0  0  0
   57.4236   33.0273   41.8151 H   0  0  0  0  0  0  0  0  0  0  0  0
   58.0797   31.4893   41.1588 H   0  0  0  0  0  0  0  0  0  0  0  0
   56.3074   31.7822   41.1588 H   0  0  0  0  0  0  0  0  0  0  0  0
   56.6199   29.4749   42.1926 H   0  0  0  0  0  0  0  0  0  0  0  0
   57.9993   29.4326   43.3483 H   0  0  0  0  0  0  0  0  0  0  0  0
   58.7801   30.8900   45.9931 H   0  0  0  0  0  0  0  0  0  0  0  0
   61.0254   30.0541   46.6800 H   0  0  0  0  0  0  0  0  0  0  0  0
   61.3919   27.6165   47.0577 H   0  0  0  0  0  0  0  0  0  0  0  0
   59.5050   26.0105   46.7720 H   0  0  0  0  0  0  0  0  0  0  0  0
   59.0447   33.1757   43.3046 H   0  0  0  0  0  0  0  0  0  0  0  0
   57.9373   34.2320   44.2605 H   0  0  0  0  0  0  0  0  0  0  0  0
   59.6180   32.1290   45.6310 H   0  0  0  0  0  0  0  0  0  0  0  0
   62.5521   33.6220   45.6708 H   0  0  0  0  0  0  0  0  0  0  0  0
   64.2743   33.2453   47.4390 H   0  0  0  0  0  0  0  0  0  0  0  0
   63.6509   33.4634   49.8490 H   0  0  0  0  0  0  0  0  0  0  0  0
   61.3194   34.1003   50.4888 H   0  0  0  0  0  0  0  0  0  0  0  0
  1  2  1  0
  2  3  1  0
  3  4  1  0
  4  5  2  0
  4  6  1  0
  6  7  1  0
  7  8  2  0
  8  9  1  0
  9 10  2  0
 10 11  1  0
 11 12  2  0
 12 13  1  0
  2 14  1  0
 14 15  2  0
 14 16  1  0
 16 17  1  0
 17 18  1  0
 18 19  2  0
 18 20  1  0
 20 21  2  0
 21 22  1  0
 22 23  2  0
 23 24  1  0
 24 25  2  0
 25 26  1  0
 12  7  1  0
 25 20  1  0
  1 27  1  0
  1 28  1  0
  1 29  1  0
  3 30  1  0
  3 31  1  0
  8 32  1  0
  9 33  1  0
 10 34  1  0
 11 35  1  0
 16 36  1  0
 16 37  1  0
 17 38  1  0
 21 39  1  0
 22 40  1  0
 23 41  1  0
 24 42  1  0
M  CHG  1   6  -1
M  END
>  <UniqueID>  (68) 
65

>  <SMILES>  (68) 
CN(CC(=O)[N-]c1ccccc1Br)C(=O)CNC(=O)c1ccccc1F

>  <Energy>  (68) 
41.03316138582236

>  <Genealogy>  (68) 
CN(CC(=O)[N-]c1ccccc1Br)C(=O)CNC(=O)c1ccccc1F (protonated)
CN(CC(=O)[N-]c1ccccc1Br)C(=O)CNC(=O)c1ccccc1F (3D coordinates assigned)
CN(CC(=O)[N-]c1ccccc1Br)C(=O)CNC(=O)c1ccccc1F (optimized conformer: 41.03316138582236 kcal/mol)

>  <smiles>  (68) 
CN(CC(=O)Nc1ccccc1Br)C(=O)CNC(=O)c1ccccc1F

>  <score_type>  (68) 
oracle

>  <origin>  (68) 
adg

>  <m_score__min__energy>  (68) 
-10.33

>  <m_primary>  (68) 
energy

$$$$
68:0
     RDKit          3D

 62 63  0  0  0  0  0  0  0  0999 V2000
   52.0480   22.6160   45.9930 H   0  0  0  0  0  0  0  0  0  0  0  0
   52.9250   22.4440   45.5130 O   0  0  0  0  0  0  0  0  0  0  0  0
   54.0690   23.1880   45.7950 C   0  0  0  0  0  0  0  0  0  0  0  0
   54.0500   24.5740   45.6250 C   0  0  0  0  0  0  0  0  0  0  0  0
   53.1320   25.0694   45.2758 H   0  0  0  0  0  0  0  0  0  0  0  0
   55.1910   25.3360   45.8960 C   0  0  0  0  0  0  0  0  0  0  0  0
   55.1370   26.7150   45.7170 O   0  0  0  0  0  0  0  0  0  0  0  0
   56.3780   24.7100   46.3380 C   0  0  0  0  0  0  0  0  0  0  0  0
   57.5860   25.5280   46.6090 C   0  0  0  0  0  0  0  0  0  0  0  0
   58.7270   25.0070   46.4650 O   0  0  0  0  0  0  0  0  0  0  0  0
   57.4720   26.9240   47.0880 C   0  0  0  0  0  0  0  0  0  0  0  0
   57.0609   27.1100   48.0912 H   0  0  0  0  0  0  0  0  0  0  0  0
   57.8530   27.9690   46.3400 C   0  0  0  0  0  0  0  0  0  0  0  0
   57.3005   28.1851   45.4137 H   0  0  0  0  0  0  0  0  0  0  0  0
   58.9870   28.8430   46.7110 C   0  0  0  0  0  0  0  0  0  0  0  0
   59.0380   29.4930   47.9580 C   0  0  0  0  0  0  0  0  0  0  0  0
   58.2345   29.3339   48.6922 H   0  0  0  0  0  0  0  0  0  0  0  0
   60.1060   30.3400   48.2670 C   0  0  0  0  0  0  0  0  0  0  0  0
   60.1388   30.8477   49.2423 H   0  0  0  0  0  0  0  0  0  0  0  0
   61.1330   30.5440   47.3400 C   0  0  0  0  0  0  0  0  0  0  0  0
   62.5070   31.6170   47.7540 S   0  0  0  0  0  0  0  0  0  0  0  0
   61.8990   33.0130   46.7430 C   0  0  0  0  0  0  0  0  0  0  0  0
   62.4889   33.0717   45.8164 H   0  0  0  0  0  0  0  0  0  0  0  0
   62.0052   33.9420   47.3224 H   0  0  0  0  0  0  0  0  0  0  0  0
   60.4250   32.8210   46.3880 C   0  0  0  0  0  0  0  0  0  0  0  0
   59.9354   32.2240   47.1716 H   0  0  0  0  0  0  0  0  0  0  0  0
   60.3489   32.2992   45.4226 H   0  0  0  0  0  0  0  0  0  0  0  0
   59.7560   34.1430   46.2850 N   0  0  0  0  0  0  0  0  0  0  0  0
   59.2090   34.6340   47.5780 C   0  0  0  0  0  0  0  0  0  0  0  0
   58.2423   35.1269   47.3973 H   0  0  0  0  0  0  0  0  0  0  0  0
   59.9238   35.3455   48.0172 H   0  0  0  0  0  0  0  0  0  0  0  0
   59.0050   33.4650   48.5620 C   0  0  0  0  0  0  0  0  0  0  0  0
   59.4056   32.5523   48.0968 H   0  0  0  0  0  0  0  0  0  0  0  0
   57.9244   33.4126   48.7607 H   0  0  0  0  0  0  0  0  0  0  0  0
   59.6880   33.6450   49.9280 C   0  0  0  0  0  0  0  0  0  0  0  0
   59.6080   32.7020   50.4887 H   0  0  0  0  0  0  0  0  0  0  0  0
   59.1802   34.4709   50.4477 H   0  0  0  0  0  0  0  0  0  0  0  0
   61.1650   34.0160   49.8030 C   0  0  0  0  0  0  0  0  0  0  0  0
   61.6017   34.1257   50.8066 H   0  0  0  0  0  0  0  0  0  0  0  0
   61.6971   33.2236   49.2562 H   0  0  0  0  0  0  0  0  0  0  0  0
   61.2595   34.9658   49.2562 H   0  0  0  0  0  0  0  0  0  0  0  0
   58.7660   34.2040   45.1810 C   0  0  0  0  0  0  0  0  0  0  0  0
   58.4340   35.2446   45.0509 H   0  0  0  0  0  0  0  0  0  0  0  0
   59.2412   33.8367   44.2595 H   0  0  0  0  0  0  0  0  0  0  0  0
   57.5430   33.3180   45.4950 C   0  0  0  0  0  0  0  0  0  0  0  0
   57.3575   33.3580   46.5785 H   0  0  0  0  0  0  0  0  0  0  0  0
   56.7053   33.7157   44.9033 H   0  0  0  0  0  0  0  0  0  0  0  0
   57.7090   31.8450   45.0890 C   0  0  0  0  0  0  0  0  0  0  0  0
   58.6732   31.4798   45.4724 H   0  0  0  0  0  0  0  0  0  0  0  0
   56.8653   31.2832   45.5162 H   0  0  0  0  0  0  0  0  0  0  0  0
   57.6780   31.6490   43.5730 C   0  0  0  0  0  0  0  0  0  0  0  0
   57.5099   30.5863   43.3440 H   0  0  0  0  0  0  0  0  0  0  0  0
   56.8638   32.2501   43.1421 H   0  0  0  0  0  0  0  0  0  0  0  0
   58.6380   31.9695   43.1421 H   0  0  0  0  0  0  0  0  0  0  0  0
   61.0840   29.9090   46.0970 C   0  0  0  0  0  0  0  0  0  0  0  0
   61.8911   30.0685   45.3669 H   0  0  0  0  0  0  0  0  0  0  0  0
   60.0110   29.0710   45.7790 C   0  0  0  0  0  0  0  0  0  0  0  0
   59.9692   28.5873   44.7919 H   0  0  0  0  0  0  0  0  0  0  0  0
   56.3770   23.3110   46.5380 C   0  0  0  0  0  0  0  0  0  0  0  0
   57.5000   22.6550   47.0330 O   0  0  0  0  0  0  0  0  0  0  0  0
   55.2290   22.5610   46.2600 C   0  0  0  0  0  0  0  0  0  0  0  0
   55.2391   21.4711   46.4082 H   0  0  0  0  0  0  0  0  0  0  0  0
  1  2  1  0
  2  3  1  0
  3  4  2  0
  4  5  1  0
  4  6  1  0
  6  7  1  0
  6  8  2  0
  8  9  1  0
  9 10  2  0
  9 11  1  0
 11 12  1  0
 11 13  2  0
 13 14  1  0
 13 15  1  0
 15 16  2  0
 16 17  1  0
 16 18  1  0
 18 19  1  0
 18 20  2  0
 20 21  1  0
 21 22  1  0
 22 23  1  0
 22 24  1  0
 22 25  1  0
 25 26  1  0
 25 27  1  0
 25 28  1  0
 28 29  1  0
 29 30  1  0
 29 31  1  0
 29 32  1  0
 32 33  1  0
 32 34  1  0
 32 35  1  0
 35 36  1  0
 35 37  1  0
 35 38  1  0
 38 39  1  0
 38 40  1  0
 38 41  1  0
 28 42  1  0
 42 43  1  0
 42 44  1  0
 42 45  1  0
 45 46  1  0
 45 47  1  0
 45 48  1  0
 48 49  1  0
 48 50  1  0
 48 51  1  0
 51 52  1  0
 51 53  1  0
 51 54  1  0
 20 55  1  0
 55 56  1  0
 55 57  2  0
 57 58  1  0
  8 59  1  0
 59 60  1  0
 59 61  2  0
 61 62  1  0
 61  3  1  0
 57 15  1  0
M  CHG  2   7  -1  60  -1
M  END
>  <UniqueID>  (69) 
66

>  <SMILES>  (69) 
CCCCN(CCCC)CCSc1ccc(/C=C/C(=O)c2c([O-])cc(O)cc2[O-])cc1

>  <Energy>  (69) 
63.49233207065404

>  <Genealogy>  (69) 
CCCCN(CCCC)CCSc1ccc(C=CC(=O)c2c([O-])cc(O)cc2[O-])cc1 (protonated)
CCCCN(CCCC)CCSc1ccc(/C=C/C(=O)c2c([O-])cc(O)cc2[O-])cc1 (cis-trans isomerization)
CCCCN(CCCC)CCSc1ccc(/C=C/C(=O)c2c([O-])cc(O)cc2[O-])cc1 (3D coordinates assigned)
CCCCN(CCCC)CCSc1ccc(/C=C/C(=O)c2c([O-])cc(O)cc2[O-])cc1 (optimized conformer: 63.49233207065404 kcal/mol)

>  <smiles>  (69) 
CCCCN(CCCC)CCSc1ccc(C=CC(=O)c2c(O)cc(O)cc2O)cc1

>  <score_type>  (69) 
oracle

>  <origin>  (69) 
adg

>  <m_score__min__energy>  (69) 
-14.02

>  <m_primary>  (69) 
energy

$$$$
69:0
     RDKit          3D

 43 45  0  0  0  0  0  0  0  0999 V2000
   57.3880   25.9780   44.0860 N   0  0  0  0  0  0  0  0  0  0  0  0
   57.0620   26.0620   45.7810 S   0  0  0  0  0  0  0  0  0  0  0  0
   55.5900   26.2770   45.9970 O   0  0  0  0  0  0  0  0  0  0  0  0
   57.4600   24.7690   46.4340 O   0  0  0  0  0  0  0  0  0  0  0  0
   57.9720   27.3920   46.4930 C   0  0  0  0  0  0  0  0  0  0  0  0
   58.9220   27.1410   47.4900 C   0  0  0  0  0  0  0  0  0  0  0  0
   59.6220   28.2000   48.0720 C   0  0  0  0  0  0  0  0  0  0  0  0
   59.3790   29.5130   47.6630 C   0  0  0  0  0  0  0  0  0  0  0  0
   58.4300   29.7850   46.6590 C   0  0  0  0  0  0  0  0  0  0  0  0
   58.1760   31.1880   46.2450 C   0  0  0  0  0  0  0  0  0  0  0  0
   58.7690   32.2740   46.9080 C   0  0  0  0  0  0  0  0  0  0  0  0
   58.4810   33.5730   46.4690 C   0  0  0  0  0  0  0  0  0  0  0  0
   59.1220   34.7650   47.1240 C   0  0  0  0  0  0  0  0  0  0  0  0
   60.1160   34.3590   48.1840 C   0  0  0  0  0  0  0  0  0  0  0  0
   59.8240   34.5320   49.4010 O   0  0  0  0  0  0  0  0  0  0  0  0
   61.4180   33.8350   47.8360 N   0  0  0  0  0  0  0  0  0  0  0  0
   61.8860   33.8430   46.4430 C   0  0  0  0  0  0  0  0  0  0  0  0
   63.4170   33.8290   46.3930 C   0  0  0  0  0  0  0  0  0  0  0  0
   63.9380   32.7880   47.1950 O   0  0  0  0  0  0  0  0  0  0  0  0
   63.6400   33.0460   48.5520 C   0  0  0  0  0  0  0  0  0  0  0  0
   62.1310   32.9840   48.7990 C   0  0  0  0  0  0  0  0  0  0  0  0
   57.6470   33.7540   45.4110 N   0  0  0  0  0  0  0  0  0  0  0  0
   57.0710   32.6980   44.7850 C   0  0  0  0  0  0  0  0  0  0  0  0
   57.3330   31.4330   45.2030 N   0  0  0  0  0  0  0  0  0  0  0  0
   57.7200   28.7100   46.0870 C   0  0  0  0  0  0  0  0  0  0  0  0
   56.6200   25.4160   43.6550 H   0  0  0  0  0  0  0  0  0  0  0  0
   57.2960   26.9480   43.7090 H   0  0  0  0  0  0  0  0  0  0  0  0
   59.1173   26.1085   47.8154 H   0  0  0  0  0  0  0  0  0  0  0  0
   60.3675   27.9992   48.8555 H   0  0  0  0  0  0  0  0  0  0  0  0
   59.9333   30.3411   48.1288 H   0  0  0  0  0  0  0  0  0  0  0  0
   59.4480   32.1080   47.7574 H   0  0  0  0  0  0  0  0  0  0  0  0
   59.6429   35.3554   46.3558 H   0  0  0  0  0  0  0  0  0  0  0  0
   58.3295   35.3545   47.6083 H   0  0  0  0  0  0  0  0  0  0  0  0
   61.4985   32.9530   45.9255 H   0  0  0  0  0  0  0  0  0  0  0  0
   61.5216   34.7562   45.9498 H   0  0  0  0  0  0  0  0  0  0  0  0
   63.7421   33.6795   45.3528 H   0  0  0  0  0  0  0  0  0  0  0  0
   63.7902   34.7896   46.7777 H   0  0  0  0  0  0  0  0  0  0  0  0
   64.1393   32.2936   49.1801 H   0  0  0  0  0  0  0  0  0  0  0  0
   63.9973   34.0550   48.8055 H   0  0  0  0  0  0  0  0  0  0  0  0
   61.7880   31.9448   48.6875 H   0  0  0  0  0  0  0  0  0  0  0  0
   61.9213   33.3445   49.8169 H   0  0  0  0  0  0  0  0  0  0  0  0
   56.3905   32.8664   43.9373 H   0  0  0  0  0  0  0  0  0  0  0  0
   56.9614   28.9070   45.3152 H   0  0  0  0  0  0  0  0  0  0  0  0
  1  2  1  0
  2  3  2  0
  2  4  2  0
  2  5  1  0
  5  6  2  0
  6  7  1  0
  7  8  2  0
  8  9  1  0
  9 10  1  0
 10 11  2  0
 11 12  1  0
 12 13  1  0
 13 14  1  0
 14 15  2  0
 14 16  1  0
 16 17  1  0
 17 18  1  0
 18 19  1  0
 19 20  1  0
 20 21  1  0
 12 22  2  0
 22 23  1  0
 23 24  2  0
  9 25  2  0
 25  5  1  0
 24 10  1  0
 21 16  1  0
  1 26  1  0
  1 27  1  0
  6 28  1  0
  7 29  1  0
  8 30  1  0
 11 31  1  0
 13 32  1  0
 13 33  1  0
 17 34  1  0
 17 35  1  0
 18 36  1  0
 18 37  1  0
 20 38  1  0
 20 39  1  0
 21 40  1  0
 21 41  1  0
 23 42  1  0
 25 43  1  0
M  END
>  <UniqueID>  (70) 
67

>  <SMILES>  (70) 
NS(=O)(=O)c1cccc(-c2cc(CC(=O)N3CCOCC3)ncn2)c1

>  <Energy>  (70) 
49.741600603946296

>  <Genealogy>  (70) 
NS(=O)(=O)c1cccc(-c2cc(CC(=O)N3CCOCC3)ncn2)c1 (3D coordinates assigned)
NS(=O)(=O)c1cccc(-c2cc(CC(=O)N3CCOCC3)ncn2)c1 (nonaromatic ring conformer: 49.741600603946296 kcal/mol)

>  <smiles>  (70) 
NS(=O)(=O)c1cccc(-c2cc(CC(=O)N3CCOCC3)ncn2)c1

>  <score_type>  (70) 
oracle

>  <origin>  (70) 
adg

>  <m_score__min__energy>  (70) 
-8.8100000000000005

>  <m_primary>  (70) 
energy

$$$$
70:0
     RDKit          3D

 38 40  0  0  0  0  0  0  0  0999 V2000
   60.6410   31.6700   46.8770 C   0  0  0  0  0  0  0  0  0  0  0  0
   59.4960   32.4110   46.3020 C   0  0  0  0  0  0  0  0  0  0  0  0
   59.4920   33.7910   46.3070 C   0  0  0  0  0  0  0  0  0  0  0  0
   58.4280   34.4950   45.7780 C   0  0  0  0  0  0  0  0  0  0  0  0
   57.3580   33.8240   45.2390 C   0  0  0  0  0  0  0  0  0  0  0  0
   57.3560   32.4550   45.2310 C   0  0  0  0  0  0  0  0  0  0  0  0
   58.4260   31.7260   45.7630 C   0  0  0  0  0  0  0  0  0  0  0  0
   58.3480   30.2710   45.7130 C   0  0  0  0  0  0  0  0  0  0  0  0
   58.5140   29.4620   46.8180 C   0  0  0  0  0  0  0  0  0  0  0  0
   58.4200   28.0810   46.6700 C   0  0  0  0  0  0  0  0  0  0  0  0
   58.1660   27.4810   45.4570 C   0  0  0  0  0  0  0  0  0  0  0  0
   58.0580   26.0240   45.2570 C   0  0  0  0  0  0  0  0  0  0  0  0
   56.6580   25.5690   45.3580 C   0  0  0  0  0  0  0  0  0  0  0  0
   55.7000   26.2640   46.0390 N   0  0  0  0  0  0  0  0  0  0  0  0
   54.5550   25.6380   45.9660 N   0  0  0  0  0  0  0  0  0  0  0  0
   54.7370   24.5100   45.2310 C   0  0  0  0  0  0  0  0  0  0  0  0
   53.8970   23.6270   44.9200 O   0  0  0  0  0  0  0  0  0  0  0  0
   56.0340   24.5010   44.8750 N   0  0  0  0  0  0  0  0  0  0  0  0
   56.6670   23.4760   44.0820 C   0  0  0  0  0  0  0  0  0  0  0  0
   58.0010   28.3010   44.3510 C   0  0  0  0  0  0  0  0  0  0  0  0
   58.0940   29.6710   44.4970 C   0  0  0  0  0  0  0  0  0  0  0  0
   60.5864   31.7053   47.9751 H   0  0  0  0  0  0  0  0  0  0  0  0
   60.6058   30.6230   46.5416 H   0  0  0  0  0  0  0  0  0  0  0  0
   61.5817   32.1310   46.5416 H   0  0  0  0  0  0  0  0  0  0  0  0
   60.3453   34.3361   46.7369 H   0  0  0  0  0  0  0  0  0  0  0  0
   58.4377   35.5949   45.7885 H   0  0  0  0  0  0  0  0  0  0  0  0
   56.5092   34.3821   44.8170 H   0  0  0  0  0  0  0  0  0  0  0  0
   56.4984   31.9185   44.7989 H   0  0  0  0  0  0  0  0  0  0  0  0
   58.7183   29.9031   47.8048 H   0  0  0  0  0  0  0  0  0  0  0  0
   58.5539   27.4441   47.5568 H   0  0  0  0  0  0  0  0  0  0  0  0
   58.4458   25.7700   44.2595 H   0  0  0  0  0  0  0  0  0  0  0  0
   58.6425   25.5225   46.0424 H   0  0  0  0  0  0  0  0  0  0  0  0
   53.6400   25.9170   46.3820 H   0  0  0  0  0  0  0  0  0  0  0  0
   57.1275   22.7303   44.7467 H   0  0  0  0  0  0  0  0  0  0  0  0
   55.9139   22.9861   43.4473 H   0  0  0  0  0  0  0  0  0  0  0  0
   57.4423   23.9299   43.4473 H   0  0  0  0  0  0  0  0  0  0  0  0
   57.7972   27.8626   43.3629 H   0  0  0  0  0  0  0  0  0  0  0  0
   57.9605   30.3080   43.6102 H   0  0  0  0  0  0  0  0  0  0  0  0
  1  2  1  0
  2  3  2  0
  3  4  1  0
  4  5  2  0
  5  6  1  0
  6  7  2  0
  7  8  1  0
  8  9  2  0
  9 10  1  0
 10 11  2  0
 11 12  1  0
 12 13  1  0
 13 14  2  0
 14 15  1  0
 15 16  1  0
 16 17  2  0
 16 18  1  0
 18 19  1  0
 11 20  1  0
 20 21  2  0
  7  2  1  0
 21  8  1  0
 18 13  1  0
  1 22  1  0
  1 23  1  0
  1 24  1  0
  3 25  1  0
  4 26  1  0
  5 27  1  0
  6 28  1  0
  9 29  1  0
 10 30  1  0
 12 31  1  0
 12 32  1  0
 15 33  1  0
 19 34  1  0
 19 35  1  0
 19 36  1  0
 20 37  1  0
 21 38  1  0
M  END
>  <smiles>  (71) 
Cc1ccccc1-c1ccc(Cc2n[nH]c(=O)n2C)cc1

>  <score_type>  (71) 
oracle

>  <origin>  (71) 
adg

>  <m_score__min__energy>  (71) 
-8.0700000000000003

>  <m_primary>  (71) 
energy

$$$$
71:0
     RDKit          3D

 58 62  0  0  1  0  0  0  0  0999 V2000
   57.2160   24.0110   44.6730 C   0  0  0  0  0  0  0  0  0  0  0  0
   57.8500   25.2890   44.6430 N   0  0  0  0  0  0  0  0  0  0  0  0
   57.8470   26.0460   45.8320 C   0  0  0  0  0  0  0  0  0  0  0  0
   56.9670   27.2730   45.6370 C   0  0  0  0  0  0  0  0  0  0  0  0
   57.5980   28.1390   44.6630 N   0  0  0  0  0  0  0  0  0  0  0  0
   57.7380   29.5380   44.7760 C   0  0  0  0  0  0  0  0  0  0  0  0
   58.4820   30.1110   45.7740 C   0  0  0  0  0  0  0  0  0  0  0  0
   58.6520   31.4860   45.8310 C   0  0  0  0  0  0  0  0  0  0  0  0
   58.0890   32.3400   44.8980 C   0  0  0  0  0  0  0  0  0  0  0  0
   58.3840   33.7940   44.9650 C   0  0  0  0  0  0  0  0  0  0  0  0
   57.4700   34.5650   44.5260 O   0  0  0  0  0  0  0  0  0  0  0  0
   59.6060   34.1720   45.4820 N   0  0  0  0  0  0  0  0  0  0  0  0
   59.9530   34.3300   46.6510 C   0  0  0  0  0  0  0  0  0  0  0  0
   59.1360   34.8650   47.6170 N   0  0  0  0  0  0  0  0  0  0  0  0
   59.7630   34.8790   48.7750 N   0  0  0  0  0  0  0  0  0  0  0  0
   60.9810   34.3550   48.5740 C   0  0  0  0  0  0  0  0  0  0  0  0
   61.9830   34.1370   49.4380 N   0  0  0  0  0  0  0  0  0  0  0  0
   63.1290   33.5740   49.0060 C   0  0  0  0  0  0  0  0  0  0  0  0
   64.1150   33.3580   50.0160 N   0  0  0  0  0  0  0  0  0  0  0  0
   65.1140   32.3100   49.7490 C   0  0  0  0  0  0  0  0  0  0  0  0
   66.3970   32.7640   50.4190 C   0  0  0  0  0  0  0  0  0  0  0  0
   66.1300   32.7930   51.7760 O   0  0  0  0  0  0  0  0  0  0  0  0
   65.2080   33.7000   52.1930 C   0  0  0  0  0  0  0  0  0  0  0  0
   64.1720   34.1370   51.2220 C   0  0  0  0  0  0  0  0  0  0  0  0
   63.2960   33.2210   47.6900 C   0  0  0  0  0  0  0  0  0  0  0  0
   62.2720   33.4350   46.7510 C   0  0  0  0  0  0  0  0  0  0  0  0
   61.1320   34.0000   47.2360 C   0  0  0  0  0  0  0  0  0  0  0  0
   57.3420   31.7740   43.9060 C   0  0  0  0  0  0  0  0  0  0  0  0
   57.1550   30.3890   43.8260 C   0  0  0  0  0  0  0  0  0  0  0  0
   58.1470   27.4540   43.4770 C   0  0  0  0  0  0  0  0  0  0  0  0
   57.7760   26.0130   43.4220 C   0  0  0  0  0  0  0  0  0  0  0  0
   57.0628   23.7021   45.7176 H   0  0  0  0  0  0  0  0  0  0  0  0
   56.2437   24.0720   44.1623 H   0  0  0  0  0  0  0  0  0  0  0  0
   57.8528   23.2737   44.1623 H   0  0  0  0  0  0  0  0  0  0  0  0
   57.4508   25.4355   46.6568 H   0  0  0  0  0  0  0  0  0  0  0  0
   58.8729   26.3596   46.0751 H   0  0  0  0  0  0  0  0  0  0  0  0
   55.9757   26.9650   45.2730 H   0  0  0  0  0  0  0  0  0  0  0  0
   56.8442   27.8051   46.5919 H   0  0  0  0  0  0  0  0  0  0  0  0
   58.9496   29.4730   46.5384 H   0  0  0  0  0  0  0  0  0  0  0  0
   59.2551   31.9131   46.6458 H   0  0  0  0  0  0  0  0  0  0  0  0
   58.1580   35.2100   47.4410 H   0  0  0  0  0  0  0  0  0  0  0  0
   59.4270   35.2210   49.7160 H   0  0  0  0  0  0  0  0  0  0  0  0
   64.7820   31.3506   50.1725 H   0  0  0  0  0  0  0  0  0  0  0  0
   65.2582   32.1611   48.6687 H   0  0  0  0  0  0  0  0  0  0  0  0
   67.2111   32.0559   50.2049 H   0  0  0  0  0  0  0  0  0  0  0  0
   66.7164   33.7500   50.0505 H   0  0  0  0  0  0  0  0  0  0  0  0
   64.6842   33.2615   53.0552 H   0  0  0  0  0  0  0  0  0  0  0  0
   65.7911   34.6093   52.4011 H   0  0  0  0  0  0  0  0  0  0  0  0
   63.1912   34.0761   51.7163 H   0  0  0  0  0  0  0  0  0  0  0  0
   64.4404   35.1600   50.9196 H   0  0  0  0  0  0  0  0  0  0  0  0
   64.2431   32.7649   47.3661 H   0  0  0  0  0  0  0  0  0  0  0  0
   62.3846   33.1631   45.6911 H   0  0  0  0  0  0  0  0  0  0  0  0
   56.8750   32.4225   43.1501 H   0  0  0  0  0  0  0  0  0  0  0  0
   56.5470   29.9656   43.0129 H   0  0  0  0  0  0  0  0  0  0  0  0
   57.7624   27.9510   42.5742 H   0  0  0  0  0  0  0  0  0  0  0  0
   59.2438   27.5124   43.5379 H   0  0  0  0  0  0  0  0  0  0  0  0
   56.7398   25.9490   43.0585 H   0  0  0  0  0  0  0  0  0  0  0  0
   58.5230   25.5465   42.7629 H   0  0  0  0  0  0  0  0  0  0  0  0
  1  2  1  0
  2  3  1  0
  3  4  1  0
  4  5  1  0
  5  6  1  0
  6  7  2  0
  7  8  1  0
  8  9  2  0
  9 10  1  0
 10 11  2  0
 10 12  1  0
 12 13  2  0
 13 14  1  0
 14 15  1  0
 15 16  1  0
 16 17  2  0
 17 18  1  0
 18 19  1  0
 19 20  1  0
 20 21  1  0
 21 22  1  0
 22 23  1  0
 23 24  1  0
 18 25  2  0
 25 26  1  0
 26 27  2  0
  9 28  1  0
 28 29  2  0
  5 30  1  0
 30 31  1  0
 31  2  1  0
 29  6  1  0
 27 13  1  0
 27 16  1  0
 24 19  1  0
  1 32  1  0
  1 33  1  0
  1 34  1  0
  3 35  1  0
  3 36  1  0
  4 37  1  0
  4 38  1  0
  7 39  1  0
  8 40  1  0
 14 41  1  0
 15 42  1  0
 20 43  1  0
 20 44  1  0
 21 45  1  0
 21 46  1  0
 23 47  1  0
 23 48  1  0
 24 49  1  0
 24 50  1  0
 25 51  1  0
 26 52  1  0
 28 53  1  0
 29 54  1  0
 30 55  1  0
 30 56  1  0
 31 57  1  0
 31 58  1  0
M  END
>  <smiles>  (72) 
CN1CCN(c2ccc(C(=O)N=c3[nH][nH]c4nc(N5CCOCC5)ccc34)cc2)CC1

>  <score_type>  (72) 
oracle

>  <origin>  (72) 
adg

>  <m_score__min__energy>  (72) 
-9.4100000000000001

>  <m_primary>  (72) 
energy

$$$$
72:0
     RDKit          3D

 51 53  0  0  0  0  0  0  0  0999 V2000
   57.7700   27.1650   42.9140 C   0  0  0  0  0  0  0  0  0  0  0  0
   58.7400   27.3100   44.0810 C   0  0  0  0  0  0  0  0  0  0  0  0
   58.0740   27.9510   45.2220 N   0  0  0  0  0  0  0  0  0  0  0  0
   57.6460   27.1550   46.3780 C   0  0  0  0  0  0  0  0  0  0  0  0
   57.0700   25.8420   45.9130 C   0  0  0  0  0  0  0  0  0  0  0  0
   57.9280   24.7500   45.6920 C   0  0  0  0  0  0  0  0  0  0  0  0
   57.4100   23.5120   45.3010 C   0  0  0  0  0  0  0  0  0  0  0  0
   56.0310   23.3510   45.1370 C   0  0  0  0  0  0  0  0  0  0  0  0
   55.1670   24.4240   45.3750 C   0  0  0  0  0  0  0  0  0  0  0  0
   55.6790   25.6660   45.7680 C   0  0  0  0  0  0  0  0  0  0  0  0
   54.7990   26.7130   46.0190 O   0  0  0  0  0  0  0  0  0  0  0  0
   57.8840   29.3750   45.2280 C   0  0  0  0  0  0  0  0  0  0  0  0
   58.2750   30.1360   46.3390 C   0  0  0  0  0  0  0  0  0  0  0  0
   58.0800   31.5200   46.3500 C   0  0  0  0  0  0  0  0  0  0  0  0
   57.4910   32.1600   45.2480 C   0  0  0  0  0  0  0  0  0  0  0  0
   57.3170   33.6530   45.2320 C   0  0  0  0  0  0  0  0  0  0  0  0
   58.4700   34.2850   44.6000 N   0  0  0  0  0  0  0  0  0  0  0  0
   59.3880   35.1330   45.3010 C   0  0  0  0  0  0  0  0  0  0  0  0
   59.6010   36.3080   44.8970 O   0  0  0  0  0  0  0  0  0  0  0  0
   60.0900   34.6190   46.4900 C   0  0  0  0  0  0  0  0  0  0  0  0
   59.4860   34.6210   47.7530 C   0  0  0  0  0  0  0  0  0  0  0  0
   60.1960   34.1360   48.8480 C   0  0  0  0  0  0  0  0  0  0  0  0
   61.4910   33.6500   48.6630 C   0  0  0  0  0  0  0  0  0  0  0  0
   62.1410   33.2200   49.6550 O   0  0  0  0  0  0  0  0  0  0  0  0
   62.0400   33.6480   47.4090 N   0  0  0  0  0  0  0  0  0  0  0  0
   63.3990   33.1490   47.1850 C   0  0  0  0  0  0  0  0  0  0  0  0
   61.3540   34.1300   46.3660 N   0  0  0  0  0  0  0  0  0  0  0  0
   57.1100   31.3980   44.1320 C   0  0  0  0  0  0  0  0  0  0  0  0
   57.2970   30.0130   44.1260 C   0  0  0  0  0  0  0  0  0  0  0  0
   56.7515   27.0127   43.3006 H   0  0  0  0  0  0  0  0  0  0  0  0
   57.7965   28.0771   42.2997 H   0  0  0  0  0  0  0  0  0  0  0  0
   58.0621   26.3005   42.2997 H   0  0  0  0  0  0  0  0  0  0  0  0
   59.0967   26.3139   44.3820 H   0  0  0  0  0  0  0  0  0  0  0  0
   59.5883   27.9350   43.7651 H   0  0  0  0  0  0  0  0  0  0  0  0
   58.5116   26.9632   47.0291 H   0  0  0  0  0  0  0  0  0  0  0  0
   56.8770   27.7104   46.9349 H   0  0  0  0  0  0  0  0  0  0  0  0
   59.0129   24.8707   45.8276 H   0  0  0  0  0  0  0  0  0  0  0  0
   58.0876   22.6641   45.1223 H   0  0  0  0  0  0  0  0  0  0  0  0
   55.6253   22.3788   44.8203 H   0  0  0  0  0  0  0  0  0  0  0  0
   54.0818   24.2918   45.2531 H   0  0  0  0  0  0  0  0  0  0  0  0
   58.7374   29.6414   47.2060 H   0  0  0  0  0  0  0  0  0  0  0  0
   58.3892   32.1100   47.2254 H   0  0  0  0  0  0  0  0  0  0  0  0
   56.4078   33.9074   44.6675 H   0  0  0  0  0  0  0  0  0  0  0  0
   57.2291   34.0165   46.2665 H   0  0  0  0  0  0  0  0  0  0  0  0
   58.4616   35.0016   47.8788 H   0  0  0  0  0  0  0  0  0  0  0  0
   59.7406   34.1359   49.8493 H   0  0  0  0  0  0  0  0  0  0  0  0
   63.8880   32.9694   48.1538 H   0  0  0  0  0  0  0  0  0  0  0  0
   63.3551   32.2083   46.6165 H   0  0  0  0  0  0  0  0  0  0  0  0
   63.9743   33.8945   46.6165 H   0  0  0  0  0  0  0  0  0  0  0  0
   56.6621   31.8936   43.2580 H   0  0  0  0  0  0  0  0  0  0  0  0
   56.9826   29.4213   43.2536 H   0  0  0  0  0  0  0  0  0  0  0  0
  1  2  1  0
  2  3  1  0
  3  4  1  0
  4  5  1  0
  5  6  2  0
  6  7  1  0
  7  8  2  0
  8  9  1  0
  9 10  2  0
 10 11  1  0
  3 12  1  0
 12 13  2  0
 13 14  1  0
 14 15  2  0
 15 16  1  0
 16 17  1  0
 17 18  1  0
 18 19  2  0
 18 20  1  0
 20 21  1  0
 21 22  2  0
 22 23  1  0
 23 24  2  0
 23 25  1  0
 25 26  1  0
 25 27  1  0
 15 28  1  0
 28 29  2  0
 10  5  1  0
 29 12  1  0
 27 20  2  0
  1 30  1  0
  1 31  1  0
  1 32  1  0
  2 33  1  0
  2 34  1  0
  4 35  1  0
  4 36  1  0
  6 37  1  0
  7 38  1  0
  8 39  1  0
  9 40  1  0
 13 41  1  0
 14 42  1  0
 16 43  1  0
 16 44  1  0
 21 45  1  0
 22 46  1  0
 26 47  1  0
 26 48  1  0
 26 49  1  0
 28 50  1  0
 29 51  1  0
M  CHG  2  11  -1  17  -1
M  END
>  <UniqueID>  (73) 
68

>  <SMILES>  (73) 
CCN(Cc1ccccc1[O-])c1ccc(C[N-]C(=O)c2ccc(=O)n(C)n2)cc1

>  <Energy>  (73) 
51.46684847214492

>  <Genealogy>  (73) 
CCN(Cc1ccccc1[O-])c1ccc(C[N-]C(=O)c2ccc(=O)n(C)n2)cc1 (protonated)
CCN(Cc1ccccc1[O-])c1ccc(C[N-]C(=O)c2ccc(=O)n(C)n2)cc1 (3D coordinates assigned)
CCN(Cc1ccccc1[O-])c1ccc(C[N-]C(=O)c2ccc(=O)n(C)n2)cc1 (optimized conformer: 51.46684847214492 kcal/mol)

>  <smiles>  (73) 
CCN(Cc1ccccc1O)c1ccc(CNC(=O)c2ccc(=O)n(C)n2)cc1

>  <score_type>  (73) 
oracle

>  <origin>  (73) 
adg

>  <m_score__min__energy>  (73) 
-13.18

>  <m_primary>  (73) 
energy

$$$$
73:0
     RDKit          3D

 49 50  0  0  0  0  0  0  0  0999 V2000
   57.3570   32.0520   41.7700 C   0  0  0  0  0  0  0  0  0  0  0  0
   58.4220   32.4390   42.6330 O   0  0  0  0  0  0  0  0  0  0  0  0
   58.2510   32.8700   43.9590 C   0  0  0  0  0  0  0  0  0  0  0  0
   58.8060   34.0770   44.4270 C   0  0  0  0  0  0  0  0  0  0  0  0
   58.6490   34.4560   45.7620 C   0  0  0  0  0  0  0  0  0  0  0  0
   57.9510   33.6340   46.6440 C   0  0  0  0  0  0  0  0  0  0  0  0
   57.3890   32.4400   46.1900 C   0  0  0  0  0  0  0  0  0  0  0  0
   57.5060   32.0650   44.8400 C   0  0  0  0  0  0  0  0  0  0  0  0
   56.9410   30.8330   44.3670 N   0  0  0  0  0  0  0  0  0  0  0  0
   56.6150   29.7150   45.2020 C   0  0  0  0  0  0  0  0  0  0  0  0
   55.6090   29.0140   44.9250 O   0  0  0  0  0  0  0  0  0  0  0  0
   57.4090   29.3800   46.3460 N   0  0  0  0  0  0  0  0  0  0  0  0
   58.6710   28.6400   46.2700 C   0  0  1  0  0  0  0  0  0  0  0  0
   58.3810   27.1700   46.4700 C   0  0  0  0  0  0  0  0  0  0  0  0
   59.3040   26.4020   46.8530 O   0  0  0  0  0  0  0  0  0  0  0  0
   57.0460   26.6600   46.3990 N   0  0  0  0  0  0  0  0  0  0  0  0
   56.6310   25.5730   45.5670 C   0  0  0  0  0  0  0  0  0  0  0  0
   57.3630   25.2240   44.4230 C   0  0  0  0  0  0  0  0  0  0  0  0
   56.9980   24.1050   43.6740 C   0  0  0  0  0  0  0  0  0  0  0  0
   55.8900   23.3350   44.0460 C   0  0  0  0  0  0  0  0  0  0  0  0
   55.5430   22.2270   43.2810 O   0  0  0  0  0  0  0  0  0  0  0  0
   55.1480   23.6810   45.1890 C   0  0  0  0  0  0  0  0  0  0  0  0
   53.7560   22.7150   45.6810 S   0  0  0  0  0  0  0  0  0  0  0  0
   52.4540   22.9670   44.5720 N   0  0  0  0  0  0  0  0  0  0  0  0
   53.3260   23.1130   47.0650 O   0  0  0  0  0  0  0  0  0  0  0  0
   54.1160   21.2550   45.6910 O   0  0  0  0  0  0  0  0  0  0  0  0
   55.5400   24.7880   45.9570 C   0  0  0  0  0  0  0  0  0  0  0  0
   59.3420   28.8640   44.8870 C   0  0  0  0  0  0  0  0  0  0  0  0
   58.8510   27.8380   43.8500 C   0  0  0  0  0  0  0  0  0  0  0  0
   60.8720   28.7880   44.9800 C   0  0  0  0  0  0  0  0  0  0  0  0
   56.4923   31.7378   42.3729 H   0  0  0  0  0  0  0  0  0  0  0  0
   57.0714   32.9038   41.1353 H   0  0  0  0  0  0  0  0  0  0  0  0
   57.6849   31.2155   41.1353 H   0  0  0  0  0  0  0  0  0  0  0  0
   59.3664   34.7249   43.7370 H   0  0  0  0  0  0  0  0  0  0  0  0
   59.0771   35.4049   46.1176 H   0  0  0  0  0  0  0  0  0  0  0  0
   57.8428   33.9263   47.6989 H   0  0  0  0  0  0  0  0  0  0  0  0
   56.8507   31.7876   46.8933 H   0  0  0  0  0  0  0  0  0  0  0  0
   59.3583   28.9974   47.0510 H   0  0  0  0  0  0  0  0  0  0  0  0
   58.2259   25.8331   44.1158 H   0  0  0  0  0  0  0  0  0  0  0  0
   57.5844   23.8263   42.7860 H   0  0  0  0  0  0  0  0  0  0  0  0
   51.7560   22.2070   44.7400 H   0  0  0  0  0  0  0  0  0  0  0  0
   54.9855   25.0408   46.8727 H   0  0  0  0  0  0  0  0  0  0  0  0
   59.0531   29.8743   44.5615 H   0  0  0  0  0  0  0  0  0  0  0  0
   58.4324   26.9633   44.3694 H   0  0  0  0  0  0  0  0  0  0  0  0
   58.0747   28.2964   43.2198 H   0  0  0  0  0  0  0  0  0  0  0  0
   59.6950   27.5210   43.2198 H   0  0  0  0  0  0  0  0  0  0  0  0
   61.1748   28.7730   46.0374 H   0  0  0  0  0  0  0  0  0  0  0  0
   61.2244   27.8712   44.4846 H   0  0  0  0  0  0  0  0  0  0  0  0
   61.3135   29.6653   44.4846 H   0  0  0  0  0  0  0  0  0  0  0  0
  1  2  1  0
  2  3  1  0
  3  4  2  0
  4  5  1  0
  5  6  2  0
  6  7  1  0
  7  8  2  0
  8  9  1  0
  9 10  1  0
 10 11  2  0
 10 12  1  0
 12 13  1  0
 13 14  1  0
 14 15  2  0
 14 16  1  0
 16 17  1  0
 17 18  2  0
 18 19  1  0
 19 20  2  0
 20 21  1  0
 20 22  1  0
 22 23  1  0
 23 24  1  0
 23 25  2  0
 23 26  2  0
 22 27  2  0
 13 28  1  0
 28 29  1  0
 28 30  1  0
  8  3  1  0
 27 17  1  0
  1 31  1  0
  1 32  1  0
  1 33  1  0
  4 34  1  0
  5 35  1  0
  6 36  1  0
  7 37  1  0
 13 38  1  1
 18 39  1  0
 19 40  1  0
 24 41  1  0
 27 42  1  0
 28 43  1  0
 29 44  1  0
 29 45  1  0
 29 46  1  0
 30 47  1  0
 30 48  1  0
 30 49  1  0
M  CHG  5   9  -1  12  -1  16  -1  21  -1  24  -1
M  END
>  <UniqueID>  (74) 
69

>  <SMILES>  (74) 
COc1ccccc1[N-]C(=O)[N-][C@@H](C(=O)[N-]c1ccc([O-])c(S([NH-])(=O)=O)c1)C(C)C

>  <Energy>  (74) 
54.59563558789955

>  <Genealogy>  (74) 
COc1ccccc1[N-]C(=O)[N-]C(C(=O)[N-]c1ccc([O-])c(S([NH-])(=O)=O)c1)C(C)C (protonated)
COc1ccccc1[N-]C(=O)[N-][C@@H](C(=O)[N-]c1ccc([O-])c(S([NH-])(=O)=O)c1)C(C)C (chirality)
COc1ccccc1[N-]C(=O)[N-][C@@H](C(=O)[N-]c1ccc([O-])c(S([NH-])(=O)=O)c1)C(C)C (3D coordinates assigned)
COc1ccccc1[N-]C(=O)[N-][C@@H](C(=O)[N-]c1ccc([O-])c(S([NH-])(=O)=O)c1)C(C)C (optimized conformer: 54.59563558789955 kcal/mol)

>  <smiles>  (74) 
COc1ccccc1NC(=O)NC(C(=O)Nc1ccc(O)c(S(N)(=O)=O)c1)C(C)C

>  <score_type>  (74) 
oracle

>  <origin>  (74) 
adg

>  <m_score__min__energy>  (74) 
-15.949999999999999

>  <m_primary>  (74) 
energy

$$$$
74:0
     RDKit          3D

 33 34  0  0  0  0  0  0  0  0999 V2000
   55.2710   28.5870   45.6300 H   0  0  0  0  0  0  0  0  0  0  0  0
   55.2090   29.4530   45.0490 N   0  0  0  0  0  0  0  0  0  0  0  0
   56.0770   29.6510   43.9370 C   0  0  0  0  0  0  0  0  0  0  0  0
   55.6000   29.6810   42.7700 O   0  0  0  0  0  0  0  0  0  0  0  0
   57.5410   29.8810   44.1600 C   0  0  0  0  0  0  0  0  0  0  0  0
   57.9884   28.9659   44.5753 H   0  0  0  0  0  0  0  0  0  0  0  0
   58.0034   30.1367   43.1952 H   0  0  0  0  0  0  0  0  0  0  0  0
   57.7770   31.0250   45.1210 C   0  0  0  0  0  0  0  0  0  0  0  0
   57.3110   32.3020   44.7560 C   0  0  0  0  0  0  0  0  0  0  0  0
   56.7779   32.4339   43.8029 H   0  0  0  0  0  0  0  0  0  0  0  0
   57.5170   33.4020   45.5880 C   0  0  0  0  0  0  0  0  0  0  0  0
   57.1411   34.3926   45.2921 H   0  0  0  0  0  0  0  0  0  0  0  0
   58.1980   33.2480   46.7930 C   0  0  0  0  0  0  0  0  0  0  0  0
   58.3570   34.1165   47.4491 H   0  0  0  0  0  0  0  0  0  0  0  0
   58.6790   31.9930   47.1690 C   0  0  0  0  0  0  0  0  0  0  0  0
   59.2178   31.8804   48.1214 H   0  0  0  0  0  0  0  0  0  0  0  0
   58.4830   30.8710   46.3450 C   0  0  0  0  0  0  0  0  0  0  0  0
   59.0890   29.3010   46.9020 S   0  0  0  0  0  0  0  0  0  0  0  0
   59.7880   29.4420   48.2260 O   0  0  0  0  0  0  0  0  0  0  0  0
   60.0720   28.7610   45.9030 O   0  0  0  0  0  0  0  0  0  0  0  0
   57.7770   28.1830   47.0820 N   0  0  0  0  0  0  0  0  0  0  0  0
   57.4120   27.2550   46.0610 C   0  0  0  0  0  0  0  0  0  0  0  0
   58.2450   26.9900   45.1540 O   0  0  0  0  0  0  0  0  0  0  0  0
   56.1130   26.6390   46.0800 N   0  0  0  0  0  0  0  0  0  0  0  0
   55.8440   25.3780   46.2530 C   0  0  0  0  0  0  0  0  0  0  0  0
   56.7190   24.6050   46.9470 N   0  0  0  0  0  0  0  0  0  0  0  0
   56.4780   23.2850   47.1590 C   0  0  0  0  0  0  0  0  0  0  0  0
   57.3910   22.5200   47.8720 O   0  0  0  0  0  0  0  0  0  0  0  0
   55.3130   22.7020   46.6590 C   0  0  0  0  0  0  0  0  0  0  0  0
   55.1022   21.6346   46.8212 H   0  0  0  0  0  0  0  0  0  0  0  0
   54.4220   23.5070   45.9480 C   0  0  0  0  0  0  0  0  0  0  0  0
   53.3600   23.0170   45.4830 O   0  0  0  0  0  0  0  0  0  0  0  0
   54.7010   24.8230   45.7600 N   0  0  0  0  0  0  0  0  0  0  0  0
  1  2  1  0
  2  3  1  0
  3  4  2  0
  3  5  1  0
  5  6  1  0
  5  7  1  0
  5  8  1  0
  8  9  2  0
  9 10  1  0
  9 11  1  0
 11 12  1  0
 11 13  2  0
 13 14  1  0
 13 15  1  0
 15 16  1  0
 15 17  2  0
 17 18  1  0
 18 19  2  0
 18 20  2  0
 18 21  1  0
 21 22  1  0
 22 23  2  0
 22 24  1  0
 24 25  2  0
 25 26  1  0
 26 27  1  0
 27 28  1  0
 27 29  2  0
 29 30  1  0
 29 31  1  0
 31 32  2  0
 31 33  1  0
 17  8  1  0
 33 25  1  0
M  CHG  5   2  -1  21  -1  26  -1  28  -1  33  -1
M  END
>  <UniqueID>  (75) 
70

>  <SMILES>  (75) 
[NH-]C(=O)Cc1ccccc1S(=O)(=O)[N-]C(=O)/N=c1/[n-]c([O-])cc(=O)[n-]1

>  <Energy>  (75) 
38.91138027365048

>  <Genealogy>  (75) 
[NH-]C(=O)Cc1ccccc1S(=O)(=O)[N-]C(=O)N=c1[n-]c([O-])cc(=O)[n-]1 (protonated)
[NH-]C(=O)Cc1ccccc1S(=O)(=O)[N-]C(=O)/N=c1/[n-]c([O-])cc(=O)[n-]1 (cis-trans isomerization)
[NH-]C(=O)Cc1ccccc1S(=O)(=O)[N-]C(=O)/N=c1/[n-]c([O-])cc(=O)[n-]1 (3D coordinates assigned)
[NH-]C(=O)Cc1ccccc1S(=O)(=O)[N-]C(=O)/N=c1/[n-]c([O-])cc(=O)[n-]1 (optimized conformer: 38.91138027365048 kcal/mol)

>  <smiles>  (75) 
NC(=O)Cc1ccccc1S(=O)(=O)NC(=O)N=c1[nH]c(O)cc(=O)[nH]1

>  <score_type>  (75) 
oracle

>  <origin>  (75) 
adg

>  <m_score__min__energy>  (75) 
-17.670000000000002

>  <m_primary>  (75) 
energy

$$$$
75:0
     RDKit          3D

 66 70  0  0  1  0  0  0  0  0999 V2000
   56.5250   29.6040   45.5390 O   0  0  0  0  0  0  0  0  0  0  0  0
   57.7510   29.9620   45.5580 C   0  0  0  0  0  0  0  0  0  0  0  0
   58.6930   29.0290   46.0590 N   0  0  0  0  0  0  0  0  0  0  0  0
   58.4410   27.7720   46.2010 C   0  0  0  0  0  0  0  0  0  0  0  0
   59.2820   26.7440   45.8310 C   0  0  0  0  0  0  0  0  0  0  0  0
   58.6040   25.5770   46.1690 C   0  0  0  0  0  0  0  0  0  0  0  0
   59.1520   24.3240   45.9380 O   0  0  0  0  0  0  0  0  0  0  0  0
   58.4160   23.4020   45.2120 C   0  0  0  0  0  0  0  0  0  0  0  0
   58.9070   22.1190   45.0930 C   0  0  0  0  0  0  0  0  0  0  0  0
   58.1790   21.1970   44.3720 C   0  0  0  0  0  0  0  0  0  0  0  0
   56.9690   21.5790   43.7820 C   0  0  0  0  0  0  0  0  0  0  0  0
   56.2930   20.6200   43.0770 O   0  0  0  0  0  0  0  0  0  0  0  0
   56.4740   22.8570   43.8980 C   0  0  0  0  0  0  0  0  0  0  0  0
   55.1990   23.3210   43.3290 C   0  0  0  0  0  0  0  0  0  0  0  0
   54.1910   23.6990   44.2480 N   0  0  0  0  0  0  0  0  0  0  0  0
   52.8440   23.7170   43.8100 C   0  0  0  0  0  0  0  0  0  0  0  0
   51.9820   24.1790   44.9930 C   0  0  0  0  0  0  0  0  0  0  0  0
   51.9460   23.1110   45.9700 N   0  0  0  0  0  0  0  0  0  0  0  0
   53.1800   22.3710   46.0390 C   0  0  0  0  0  0  0  0  0  0  0  0
   54.3320   23.2370   45.5890 C   0  0  0  0  0  0  0  0  0  0  0  0
   57.2210   23.7610   44.6240 C   0  0  0  0  0  0  0  0  0  0  0  0
   57.4290   25.9280   46.7080 N   0  0  0  0  0  0  0  0  0  0  0  0
   57.3010   27.2530   46.7410 N   0  0  0  0  0  0  0  0  0  0  0  0
   58.0530   31.2760   45.0680 C   0  0  0  0  0  0  0  0  0  0  0  0
   57.6630   31.7160   43.8070 C   0  0  0  0  0  0  0  0  0  0  0  0
   58.0210   33.0000   43.4530 C   0  0  0  0  0  0  0  0  0  0  0  0
   58.7330   33.8390   44.2900 C   0  0  0  0  0  0  0  0  0  0  0  0
   59.1230   33.3960   45.5580 C   0  0  0  0  0  0  0  0  0  0  0  0
   60.0160   34.5060   46.5670 S   0  0  0  0  0  0  0  0  0  0  0  0
   59.8340   35.9120   45.9750 O   0  0  0  0  0  0  0  0  0  0  0  0
   59.3760   34.5610   47.9390 O   0  0  0  0  0  0  0  0  0  0  0  0
   61.6920   34.2080   46.6080 N   0  0  0  0  0  0  0  0  0  0  0  0
   62.3770   33.8130   47.6100 C   0  0  0  0  0  0  0  0  0  0  0  0
   63.4470   32.9460   47.5140 C   0  0  0  0  0  0  0  0  0  0  0  0
   64.1340   32.5710   48.6640 C   0  0  0  0  0  0  0  0  0  0  0  0
   63.7750   33.0450   49.9100 C   0  0  0  0  0  0  0  0  0  0  0  0
   62.7000   33.9080   49.9560 C   0  0  0  0  0  0  0  0  0  0  0  0
   62.0580   34.2510   48.8340 N   0  0  0  0  0  0  0  0  0  0  0  0
   58.7730   32.1250   45.9180 C   0  0  0  0  0  0  0  0  0  0  0  0
   60.2761   26.8284   45.3678 H   0  0  0  0  0  0  0  0  0  0  0  0
   59.8603   21.8370   45.5639 H   0  0  0  0  0  0  0  0  0  0  0  0
   58.5472   20.1664   44.2610 H   0  0  0  0  0  0  0  0  0  0  0  0
   56.6240   19.6740   42.9140 H   0  0  0  0  0  0  0  0  0  0  0  0
   55.4153   24.1932   42.6946 H   0  0  0  0  0  0  0  0  0  0  0  0
   54.7893   22.4521   42.7930 H   0  0  0  0  0  0  0  0  0  0  0  0
   52.7319   24.4157   42.9678 H   0  0  0  0  0  0  0  0  0  0  0  0
   52.5331   22.7181   43.4700 H   0  0  0  0  0  0  0  0  0  0  0  0
   52.4208   25.0814   45.4436 H   0  0  0  0  0  0  0  0  0  0  0  0
   50.9637   24.4165   44.6516 H   0  0  0  0  0  0  0  0  0  0  0  0
   51.1330   22.4930   45.7300 H   0  0  0  0  0  0  0  0  0  0  0  0
   53.3521   22.0471   47.0760 H   0  0  0  0  0  0  0  0  0  0  0  0
   53.1105   21.4939   45.3788 H   0  0  0  0  0  0  0  0  0  0  0  0
   54.3956   24.1097   46.2555 H   0  0  0  0  0  0  0  0  0  0  0  0
   55.2424   22.6211   45.6307 H   0  0  0  0  0  0  0  0  0  0  0  0
   56.8553   24.7923   44.7367 H   0  0  0  0  0  0  0  0  0  0  0  0
   56.7240   25.2170   47.0500 H   0  0  0  0  0  0  0  0  0  0  0  0
   56.4780   27.8150   47.1130 H   0  0  0  0  0  0  0  0  0  0  0  0
   57.0945   31.0687   43.1230 H   0  0  0  0  0  0  0  0  0  0  0  0
   57.7270   33.3731   42.4608 H   0  0  0  0  0  0  0  0  0  0  0  0
   58.9928   34.8552   43.9586 H   0  0  0  0  0  0  0  0  0  0  0  0
   63.7547   32.5538   46.5334 H   0  0  0  0  0  0  0  0  0  0  0  0
   64.9849   31.8792   48.5784 H   0  0  0  0  0  0  0  0  0  0  0  0
   64.3185   32.7495   50.8196 H   0  0  0  0  0  0  0  0  0  0  0  0
   62.3685   34.3168   50.9219 H   0  0  0  0  0  0  0  0  0  0  0  0
   61.2580   34.9040   48.9270 H   0  0  0  0  0  0  0  0  0  0  0  0
   59.0674   31.7553   46.9113 H   0  0  0  0  0  0  0  0  0  0  0  0
  1  2  2  0
  2  3  1  0
  3  4  2  0
  4  5  1  0
  5  6  2  0
  6  7  1  0
  7  8  1  0
  8  9  2  0
  9 10  1  0
 10 11  2  0
 11 12  1  0
 11 13  1  0
 13 14  1  0
 14 15  1  0
 15 16  1  0
 16 17  1  0
 17 18  1  0
 18 19  1  0
 19 20  1  0
 13 21  2  0
  6 22  1  0
 22 23  1  0
  2 24  1  0
 24 25  2  0
 25 26  1  0
 26 27  2  0
 27 28  1  0
 28 29  1  0
 29 30  2  0
 29 31  2  0
 29 32  1  0
 32 33  2  0
 33 34  1  0
 34 35  2  0
 35 36  1  0
 36 37  2  0
 37 38  1  0
 28 39  2  0
 23  4  1  0
 39 24  1  0
 21  8  1  0
 38 33  1  0
 20 15  1  0
  5 40  1  0
  9 41  1  0
 10 42  1  0
 12 43  1  0
 14 44  1  0
 14 45  1  0
 16 46  1  0
 16 47  1  0
 17 48  1  0
 17 49  1  0
 18 50  1  0
 19 51  1  0
 19 52  1  0
 20 53  1  0
 20 54  1  0
 21 55  1  0
 22 56  1  0
 23 57  1  0
 25 58  1  0
 26 59  1  0
 27 60  1  0
 34 61  1  0
 35 62  1  0
 36 63  1  0
 37 64  1  0
 38 65  1  0
 39 66  1  0
M  END
>  <smiles>  (76) 
O=C(N=c1cc(Oc2ccc(O)c(CN3CCNCC3)c2)[nH][nH]1)c1cccc(S(=O)(=O)N=c2cccc[nH]2)c1

>  <score_type>  (76) 
oracle

>  <origin>  (76) 
adg

>  <m_score__min__energy>  (76) 
-10.609999999999999

>  <m_primary>  (76) 
energy

$$$$
76:0
     RDKit          3D

 54 57  0  0  0  0  0  0  0  0999 V2000
   58.7980   32.0970   48.4930 C   0  0  0  0  0  0  0  0  0  0  0  0
   58.7590   32.9820   47.2780 C   0  0  0  0  0  0  0  0  0  0  0  0
   59.2030   34.3120   47.3650 C   0  0  0  0  0  0  0  0  0  0  0  0
   59.2060   35.1310   46.2340 C   0  0  0  0  0  0  0  0  0  0  0  0
   58.7790   34.6280   45.0040 C   0  0  0  0  0  0  0  0  0  0  0  0
   58.3350   33.3070   44.9050 C   0  0  0  0  0  0  0  0  0  0  0  0
   58.2920   32.4810   46.0450 C   0  0  0  0  0  0  0  0  0  0  0  0
   57.9100   31.0990   45.9450 N   0  0  0  0  0  0  0  0  0  0  0  0
   58.6920   30.0710   45.7790 C   0  0  0  0  0  0  0  0  0  0  0  0
   60.0150   30.1490   46.1000 N   0  0  0  0  0  0  0  0  0  0  0  0
   60.8750   29.1200   45.8940 C   0  0  0  0  0  0  0  0  0  0  0  0
   60.4180   27.9340   45.3240 C   0  0  0  0  0  0  0  0  0  0  0  0
   59.0720   27.8160   44.9810 C   0  0  0  0  0  0  0  0  0  0  0  0
   58.1810   28.8750   45.2170 C   0  0  0  0  0  0  0  0  0  0  0  0
   56.7430   28.6960   44.8790 C   0  0  0  0  0  0  0  0  0  0  0  0
   56.2580   29.3450   43.9140 O   0  0  0  0  0  0  0  0  0  0  0  0
   55.8730   27.8300   45.6230 N   0  0  0  0  0  0  0  0  0  0  0  0
   56.1290   26.4620   45.9750 C   0  0  0  0  0  0  0  0  0  0  0  0
   57.2680   26.0910   46.7100 C   0  0  0  0  0  0  0  0  0  0  0  0
   57.4420   24.7630   47.1100 C   0  0  0  0  0  0  0  0  0  0  0  0
   56.4910   23.7930   46.7700 C   0  0  0  0  0  0  0  0  0  0  0  0
   56.7180   22.1310   47.3070 S   0  0  0  0  0  0  0  0  0  0  0  0
   57.3110   22.1570   48.6880 O   0  0  0  0  0  0  0  0  0  0  0  0
   55.3920   21.4250   47.3630 O   0  0  0  0  0  0  0  0  0  0  0  0
   57.8010   21.3170   46.1970 N   0  0  0  0  0  0  0  0  0  0  0  0
   58.2010   22.1940   45.0730 C   0  0  0  0  0  0  0  0  0  0  0  0
   57.3990   21.9180   43.7880 C   0  0  0  0  0  0  0  0  0  0  0  0
   56.0890   21.5080   44.1090 O   0  0  0  0  0  0  0  0  0  0  0  0
   56.1090   20.2210   44.7010 C   0  0  0  0  0  0  0  0  0  0  0  0
   57.2440   20.0330   45.7370 C   0  0  0  0  0  0  0  0  0  0  0  0
   55.3790   24.1550   45.9980 C   0  0  0  0  0  0  0  0  0  0  0  0
   55.2050   25.4810   45.5960 C   0  0  0  0  0  0  0  0  0  0  0  0
   58.7706   32.7184   49.4003 H   0  0  0  0  0  0  0  0  0  0  0  0
   57.9287   31.4231   48.4838 H   0  0  0  0  0  0  0  0  0  0  0  0
   59.7232   31.5021   48.4838 H   0  0  0  0  0  0  0  0  0  0  0  0
   59.5503   34.7105   48.3296 H   0  0  0  0  0  0  0  0  0  0  0  0
   59.5455   36.1744   46.3125 H   0  0  0  0  0  0  0  0  0  0  0  0
   58.7921   35.2719   44.1123 H   0  0  0  0  0  0  0  0  0  0  0  0
   58.0168   32.9093   43.9300 H   0  0  0  0  0  0  0  0  0  0  0  0
   61.9330   29.2223   46.1771 H   0  0  0  0  0  0  0  0  0  0  0  0
   61.1120   27.0992   45.1464 H   0  0  0  0  0  0  0  0  0  0  0  0
   58.7052   26.8861   44.5219 H   0  0  0  0  0  0  0  0  0  0  0  0
   58.0236   26.8467   46.9708 H   0  0  0  0  0  0  0  0  0  0  0  0
   58.3296   24.4787   47.6943 H   0  0  0  0  0  0  0  0  0  0  0  0
   58.0407   23.2411   45.3696 H   0  0  0  0  0  0  0  0  0  0  0  0
   59.2595   21.9903   44.8537 H   0  0  0  0  0  0  0  0  0  0  0  0
   57.3543   22.8360   43.1836 H   0  0  0  0  0  0  0  0  0  0  0  0
   57.8961   21.1176   43.2202 H   0  0  0  0  0  0  0  0  0  0  0  0
   55.1460   20.0556   45.2063 H   0  0  0  0  0  0  0  0  0  0  0  0
   56.2870   19.4967   43.8925 H   0  0  0  0  0  0  0  0  0  0  0  0
   56.8434   19.4900   46.6057 H   0  0  0  0  0  0  0  0  0  0  0  0
   58.0541   19.4707   45.2496 H   0  0  0  0  0  0  0  0  0  0  0  0
   54.6411   23.3926   45.7078 H   0  0  0  0  0  0  0  0  0  0  0  0
   54.3374   25.7561   44.9783 H   0  0  0  0  0  0  0  0  0  0  0  0
  1  2  1  0
  2  3  2  0
  3  4  1  0
  4  5  2  0
  5  6  1  0
  6  7  2  0
  7  8  1  0
  8  9  2  3
  9 10  1  0
 10 11  1  0
 11 12  2  0
 12 13  1  0
 13 14  2  0
 14 15  1  0
 15 16  2  0
 15 17  1  0
 17 18  1  0
 18 19  2  0
 19 20  1  0
 20 21  2  0
 21 22  1  0
 22 23  2  0
 22 24  2  0
 22 25  1  0
 25 26  1  0
 26 27  1  0
 27 28  1  0
 28 29  1  0
 29 30  1  0
 21 31  1  0
 31 32  2  0
  7  2  1  0
 14  9  1  0
 32 18  1  0
 30 25  1  0
  1 33  1  0
  1 34  1  0
  1 35  1  0
  3 36  1  0
  4 37  1  0
  5 38  1  0
  6 39  1  0
 11 40  1  0
 12 41  1  0
 13 42  1  0
 19 43  1  0
 20 44  1  0
 26 45  1  0
 26 46  1  0
 27 47  1  0
 27 48  1  0
 29 49  1  0
 29 50  1  0
 30 51  1  0
 30 52  1  0
 31 53  1  0
 32 54  1  0
M  CHG  2  10  -1  17  -1
M  END
>  <UniqueID>  (77) 
71

>  <SMILES>  (77) 
Cc1ccccc1N=c1[n-]cccc1C(=O)[N-]c1ccc(S(=O)(=O)N2CCOCC2)cc1

>  <Energy>  (77) 
82.0598032527956

>  <Genealogy>  (77) 
Cc1ccccc1N=c1[n-]cccc1C(=O)[N-]c1ccc(S(=O)(=O)N2CCOCC2)cc1 (protonated)
Cc1ccccc1N=c1[n-]cccc1C(=O)[N-]c1ccc(S(=O)(=O)N2CCOCC2)cc1 (3D coordinates assigned)
Cc1ccccc1N=c1[n-]cccc1C(=O)[N-]c1ccc(S(=O)(=O)N2CCOCC2)cc1 (nonaromatic ring conformer: 82.0598032527956 kcal/mol)

>  <smiles>  (77) 
Cc1ccccc1N=c1[nH]cccc1C(=O)Nc1ccc(S(=O)(=O)N2CCOCC2)cc1

>  <score_type>  (77) 
oracle

>  <origin>  (77) 
adg

>  <m_score__min__energy>  (77) 
-12.57

>  <m_primary>  (77) 
energy

$$$$
77:0
     RDKit          3D

 35 36  0  0  0  0  0  0  0  0999 V2000
   55.1520   28.3260   44.5270 H   0  0  0  0  0  0  0  0  0  0  0  0
   55.3650   29.3140   44.7880 N   0  0  0  0  0  0  0  0  0  0  0  0
   56.7050   29.8030   44.7750 C   0  0  0  0  0  0  0  0  0  0  0  0
   56.9270   30.9850   45.1420 O   0  0  0  0  0  0  0  0  0  0  0  0
   57.8040   28.9030   44.3580 C   0  0  0  0  0  0  0  0  0  0  0  0
   57.7340   28.3930   43.2060 O   0  0  0  0  0  0  0  0  0  0  0  0
   58.9380   28.5860   45.2030 N   0  0  0  0  0  0  0  0  0  0  0  0
   60.3190   28.6900   44.7160 C   0  0  0  0  0  0  0  0  0  0  0  0
   61.0070   28.7418   45.5727 H   0  0  0  0  0  0  0  0  0  0  0  0
   60.5598   27.8074   44.1052 H   0  0  0  0  0  0  0  0  0  0  0  0
   60.4249   29.5987   44.1052 H   0  0  0  0  0  0  0  0  0  0  0  0
   58.7010   28.0560   46.5560 C   0  0  0  0  0  0  0  0  0  0  0  0
   59.6632   27.9561   47.0796 H   0  0  0  0  0  0  0  0  0  0  0  0
   58.0440   28.7501   47.1005 H   0  0  0  0  0  0  0  0  0  0  0  0
   58.0360   26.7130   46.4840 C   0  0  0  0  0  0  0  0  0  0  0  0
   57.9822   26.0907   47.3894 H   0  0  0  0  0  0  0  0  0  0  0  0
   57.5080   26.2560   45.3460 C   0  0  0  0  0  0  0  0  0  0  0  0
   57.7942   26.7279   44.3945 H   0  0  0  0  0  0  0  0  0  0  0  0
   56.5470   25.1300   45.3330 C   0  0  0  0  0  0  0  0  0  0  0  0
   55.2050   25.4030   45.6570 C   0  0  0  0  0  0  0  0  0  0  0  0
   54.8090   26.6910   46.0030 O   0  0  0  0  0  0  0  0  0  0  0  0
   54.2460   24.3880   45.6190 C   0  0  0  0  0  0  0  0  0  0  0  0
   53.1998   24.6155   45.8713 H   0  0  0  0  0  0  0  0  0  0  0  0
   54.6050   23.0900   45.2640 C   0  0  0  0  0  0  0  0  0  0  0  0
   53.8377   22.3032   45.2166 H   0  0  0  0  0  0  0  0  0  0  0  0
   55.9390   22.7820   44.9670 C   0  0  0  0  0  0  0  0  0  0  0  0
   56.2970   21.4650   44.6390 C   0  0  0  0  0  0  0  0  0  0  0  0
   55.5237   20.6844   44.5874 H   0  0  0  0  0  0  0  0  0  0  0  0
   57.6290   21.1410   44.3780 C   0  0  0  0  0  0  0  0  0  0  0  0
   57.9012   20.1088   44.1126 H   0  0  0  0  0  0  0  0  0  0  0  0
   58.6150   22.1230   44.4530 C   0  0  0  0  0  0  0  0  0  0  0  0
   59.6653   21.8600   44.2586 H   0  0  0  0  0  0  0  0  0  0  0  0
   58.2760   23.4400   44.7740 C   0  0  0  0  0  0  0  0  0  0  0  0
   59.0638   24.2048   44.8411 H   0  0  0  0  0  0  0  0  0  0  0  0
   56.9310   23.7980   45.0130 C   0  0  0  0  0  0  0  0  0  0  0  0
  1  2  1  0
  2  3  1  0
  3  4  2  0
  3  5  1  0
  5  6  2  0
  5  7  1  0
  7  8  1  0
  8  9  1  0
  8 10  1  0
  8 11  1  0
  7 12  1  0
 12 13  1  0
 12 14  1  0
 12 15  1  0
 15 16  1  0
 15 17  2  0
 17 18  1  0
 17 19  1  0
 19 20  2  0
 20 21  1  0
 20 22  1  0
 22 23  1  0
 22 24  2  0
 24 25  1  0
 24 26  1  0
 26 27  2  0
 27 28  1  0
 27 29  1  0
 29 30  1  0
 29 31  2  0
 31 32  1  0
 31 33  1  0
 33 34  1  0
 33 35  2  0
 35 19  1  0
 35 26  1  0
M  CHG  2   2  -1  21  -1
M  END
>  <UniqueID>  (78) 
72

>  <SMILES>  (78) 
CN(C/C=C/c1c([O-])ccc2ccccc12)C(=O)C([NH-])=O

>  <Energy>  (78) 
43.68112674414821

>  <Genealogy>  (78) 
CN(CC=Cc1c([O-])ccc2ccccc12)C(=O)C([NH-])=O (protonated)
CN(C/C=C/c1c([O-])ccc2ccccc12)C(=O)C([NH-])=O (cis-trans isomerization)
CN(C/C=C/c1c([O-])ccc2ccccc12)C(=O)C([NH-])=O (3D coordinates assigned)
CN(C/C=C/c1c([O-])ccc2ccccc12)C(=O)C([NH-])=O (optimized conformer: 43.68112674414821 kcal/mol)

>  <smiles>  (78) 
CN(CC=Cc1c(O)ccc2ccccc12)C(=O)C(N)=O

>  <score_type>  (78) 
oracle

>  <origin>  (78) 
adg

>  <m_score__min__energy>  (78) 
-13.640000000000001

>  <m_primary>  (78) 
energy

$$$$
78:0
     RDKit          3D

 42 43  0  0  0  0  0  0  0  0999 V2000
   58.0530   31.3390   43.4490 C   0  0  0  0  0  0  0  0  0  0  0  0
   56.8160   30.0680   43.6210 S   0  0  0  0  0  0  0  0  0  0  0  0
   56.2130   29.7940   42.2730 O   0  0  0  0  0  0  0  0  0  0  0  0
   55.7370   30.5390   44.5560 O   0  0  0  0  0  0  0  0  0  0  0  0
   57.5390   28.6080   44.2240 N   0  0  0  0  0  0  0  0  0  0  0  0
   57.7920   28.7280   45.6610 C   0  0  0  0  0  0  0  0  0  0  0  0
   59.2660   28.8840   45.9000 C   0  0  0  0  0  0  0  0  0  0  0  0
   60.0690   28.2550   45.1580 O   0  0  0  0  0  0  0  0  0  0  0  0
   59.7710   29.7640   46.9270 N   0  0  0  0  0  0  0  0  0  0  0  0
   61.1590   30.2360   46.8870 C   0  0  0  0  0  0  0  0  0  0  0  0
   61.1820   31.7390   47.1780 C   0  0  0  0  0  0  0  0  0  0  0  0
   60.4940   32.0920   48.4430 N   0  0  0  0  0  0  0  0  0  0  0  0
   59.8770   33.4380   48.4440 C   0  0  0  0  0  0  0  0  0  0  0  0
   59.0740   33.7470   47.1960 C   0  0  0  0  0  0  0  0  0  0  0  0
   57.7680   33.2400   47.0520 C   0  0  0  0  0  0  0  0  0  0  0  0
   57.0290   33.5060   45.8950 C   0  0  0  0  0  0  0  0  0  0  0  0
   57.5800   34.2850   44.8770 C   0  0  0  0  0  0  0  0  0  0  0  0
   58.8650   34.8140   45.0180 C   0  0  0  0  0  0  0  0  0  0  0  0
   59.6050   34.5570   46.1770 C   0  0  0  0  0  0  0  0  0  0  0  0
   59.6830   31.0220   49.0700 C   0  0  0  0  0  0  0  0  0  0  0  0
   58.9060   30.1880   48.0370 C   0  0  0  0  0  0  0  0  0  0  0  0
   58.3774   31.6723   44.4459 H   0  0  0  0  0  0  0  0  0  0  0  0
   58.9163   30.9383   42.8975 H   0  0  0  0  0  0  0  0  0  0  0  0
   57.6290   32.1911   42.8975 H   0  0  0  0  0  0  0  0  0  0  0  0
   56.8430   27.8400   44.0790 H   0  0  0  0  0  0  0  0  0  0  0  0
   57.2619   29.6081   46.0541 H   0  0  0  0  0  0  0  0  0  0  0  0
   57.4320   27.8233   46.1728 H   0  0  0  0  0  0  0  0  0  0  0  0
   61.7516   29.7041   47.6459 H   0  0  0  0  0  0  0  0  0  0  0  0
   61.5891   30.0429   45.8932 H   0  0  0  0  0  0  0  0  0  0  0  0
   62.2296   32.0677   47.2446 H   0  0  0  0  0  0  0  0  0  0  0  0
   60.6466   32.2421   46.3593 H   0  0  0  0  0  0  0  0  0  0  0  0
   59.2073   33.5113   49.3136 H   0  0  0  0  0  0  0  0  0  0  0  0
   60.7004   34.1664   48.4821 H   0  0  0  0  0  0  0  0  0  0  0  0
   57.3265   32.6310   47.8546 H   0  0  0  0  0  0  0  0  0  0  0  0
   56.0121   33.1006   45.7873 H   0  0  0  0  0  0  0  0  0  0  0  0
   57.0018   34.4828   43.9624 H   0  0  0  0  0  0  0  0  0  0  0  0
   59.2954   35.4331   44.2171 H   0  0  0  0  0  0  0  0  0  0  0  0
   60.6090   34.9916   46.2918 H   0  0  0  0  0  0  0  0  0  0  0  0
   60.3536   30.3537   49.6301 H   0  0  0  0  0  0  0  0  0  0  0  0
   58.9475   31.5044   49.7306 H   0  0  0  0  0  0  0  0  0  0  0  0
   58.4973   29.2952   48.5329 H   0  0  0  0  0  0  0  0  0  0  0  0
   58.0985   30.8120   47.6265 H   0  0  0  0  0  0  0  0  0  0  0  0
  1  2  1  0
  2  3  2  0
  2  4  2  0
  2  5  1  0
  5  6  1  0
  6  7  1  0
  7  8  2  0
  7  9  1  0
  9 10  1  0
 10 11  1  0
 11 12  1  0
 12 13  1  0
 13 14  1  0
 14 15  2  0
 15 16  1  0
 16 17  2  0
 17 18  1  0
 18 19  2  0
 12 20  1  0
 20 21  1  0
 21  9  1  0
 19 14  1  0
  1 22  1  0
  1 23  1  0
  1 24  1  0
  5 25  1  0
  6 26  1  0
  6 27  1  0
 10 28  1  0
 10 29  1  0
 11 30  1  0
 11 31  1  0
 13 32  1  0
 13 33  1  0
 15 34  1  0
 16 35  1  0
 17 36  1  0
 18 37  1  0
 19 38  1  0
 20 39  1  0
 20 40  1  0
 21 41  1  0
 21 42  1  0
M  END
>  <UniqueID>  (79) 
73

>  <SMILES>  (79) 
CS(=O)(=O)NCC(=O)N1CCN(Cc2ccccc2)CC1

>  <Energy>  (79) 
40.78042653070741

>  <Genealogy>  (79) 
CS(=O)(=O)NCC(=O)N1CCN(Cc2ccccc2)CC1 (3D coordinates assigned)
CS(=O)(=O)NCC(=O)N1CCN(Cc2ccccc2)CC1 (nonaromatic ring conformer: 40.78042653070741 kcal/mol)

>  <smiles>  (79) 
CS(=O)(=O)NCC(=O)N1CCN(Cc2ccccc2)CC1

>  <score_type>  (79) 
oracle

>  <origin>  (79) 
adg

>  <m_score__min__energy>  (79) 
-7.9699999999999998

>  <m_primary>  (79) 
energy

$$$$
79:0
     RDKit          3D

 52 55  0  0  0  0  0  0  0  0999 V2000
   57.0330   31.9420   42.0990 O   0  0  0  0  0  0  0  0  0  0  0  0
   57.1920   31.1130   43.0350 C   0  0  0  0  0  0  0  0  0  0  0  0
   58.4420   30.8400   43.4850 N   0  0  0  0  0  0  0  0  0  0  0  0
   58.6510   29.9540   44.4910 C   0  0  0  0  0  0  0  0  0  0  0  0
   59.8290   29.7280   44.8790 O   0  0  0  0  0  0  0  0  0  0  0  0
   57.5580   29.3020   45.0930 C   0  0  0  0  0  0  0  0  0  0  0  0
   57.7580   28.2920   46.2010 C   0  0  0  0  0  0  0  0  0  0  0  0
   58.6790   28.8370   47.2610 C   0  0  0  0  0  0  0  0  0  0  0  0
   59.6930   28.0330   47.7990 C   0  0  0  0  0  0  0  0  0  0  0  0
   60.5290   28.5280   48.8000 C   0  0  0  0  0  0  0  0  0  0  0  0
   60.3680   29.8400   49.2870 C   0  0  0  0  0  0  0  0  0  0  0  0
   61.1570   30.3390   50.3360 O   0  0  0  0  0  0  0  0  0  0  0  0
   62.5530   30.6300   50.2630 C   0  0  0  0  0  0  0  0  0  0  0  0
   62.8100   31.7820   49.3280 C   0  0  0  0  0  0  0  0  0  0  0  0
   63.0210   31.5420   47.9600 C   0  0  0  0  0  0  0  0  0  0  0  0
   63.2600   32.6080   47.0870 C   0  0  0  0  0  0  0  0  0  0  0  0
   63.3000   33.9170   47.5730 C   0  0  0  0  0  0  0  0  0  0  0  0
   63.1040   34.1620   48.9360 C   0  0  0  0  0  0  0  0  0  0  0  0
   62.8630   33.1000   49.8120 C   0  0  0  0  0  0  0  0  0  0  0  0
   59.3680   30.6620   48.7220 C   0  0  0  0  0  0  0  0  0  0  0  0
   59.1710   31.9930   49.1230 O   0  0  0  0  0  0  0  0  0  0  0  0
   59.8070   33.1240   48.5240 C   0  0  0  0  0  0  0  0  0  0  0  0
   59.1110   33.5000   47.2450 C   0  0  0  0  0  0  0  0  0  0  0  0
   59.8210   34.1110   46.1970 C   0  0  0  0  0  0  0  0  0  0  0  0
   59.1780   34.4110   44.9900 C   0  0  0  0  0  0  0  0  0  0  0  0
   57.8250   34.1030   44.8220 C   0  0  0  0  0  0  0  0  0  0  0  0
   57.1150   33.4860   45.8570 C   0  0  0  0  0  0  0  0  0  0  0  0
   57.7560   33.1790   47.0630 C   0  0  0  0  0  0  0  0  0  0  0  0
   58.5170   30.1450   47.7390 C   0  0  0  0  0  0  0  0  0  0  0  0
   56.2730   29.5950   44.6010 C   0  0  0  0  0  0  0  0  0  0  0  0
   55.1510   28.9770   45.1410 O   0  0  0  0  0  0  0  0  0  0  0  0
   56.1170   30.4930   43.5910 N   0  0  0  0  0  0  0  0  0  0  0  0
   56.7841   28.0573   46.6553 H   0  0  0  0  0  0  0  0  0  0  0  0
   58.2096   27.3845   45.7739 H   0  0  0  0  0  0  0  0  0  0  0  0
   59.8304   27.0059   47.4299 H   0  0  0  0  0  0  0  0  0  0  0  0
   61.3220   27.8874   49.2132 H   0  0  0  0  0  0  0  0  0  0  0  0
   62.9201   30.8910   51.2665 H   0  0  0  0  0  0  0  0  0  0  0  0
   63.0792   29.7422   49.8822 H   0  0  0  0  0  0  0  0  0  0  0  0
   62.9981   30.5121   47.5742 H   0  0  0  0  0  0  0  0  0  0  0  0
   63.4168   32.4153   46.0154 H   0  0  0  0  0  0  0  0  0  0  0  0
   63.4855   34.7544   46.8843 H   0  0  0  0  0  0  0  0  0  0  0  0
   63.1396   35.1925   49.3192 H   0  0  0  0  0  0  0  0  0  0  0  0
   62.7143   33.2966   50.8840 H   0  0  0  0  0  0  0  0  0  0  0  0
   59.7675   33.9737   49.2215 H   0  0  0  0  0  0  0  0  0  0  0  0
   60.8529   32.8679   48.2993 H   0  0  0  0  0  0  0  0  0  0  0  0
   60.8860   34.3544   46.3256 H   0  0  0  0  0  0  0  0  0  0  0  0
   59.7381   34.8895   44.1732 H   0  0  0  0  0  0  0  0  0  0  0  0
   57.3188   34.3458   43.8761 H   0  0  0  0  0  0  0  0  0  0  0  0
   56.0509   33.2415   45.7231 H   0  0  0  0  0  0  0  0  0  0  0  0
   57.1965   32.6847   47.8708 H   0  0  0  0  0  0  0  0  0  0  0  0
   57.7095   30.7737   47.3356 H   0  0  0  0  0  0  0  0  0  0  0  0
   55.1570   30.7040   43.2360 H   0  0  0  0  0  0  0  0  0  0  0  0
  1  2  2  0
  2  3  1  0
  3  4  1  0
  4  5  2  0
  4  6  1  0
  6  7  1  0
  7  8  1  0
  8  9  2  0
  9 10  1  0
 10 11  2  0
 11 12  1  0
 12 13  1  0
 13 14  1  0
 14 15  2  0
 15 16  1  0
 16 17  2  0
 17 18  1  0
 18 19  2  0
 11 20  1  0
 20 21  1  0
 21 22  1  0
 22 23  1  0
 23 24  2  0
 24 25  1  0
 25 26  2  0
 26 27  1  0
 27 28  2  0
 20 29  2  0
  6 30  2  0
 30 31  1  0
 30 32  1  0
 32  2  1  0
 29  8  1  0
 19 14  1  0
 28 23  1  0
  7 33  1  0
  7 34  1  0
  9 35  1  0
 10 36  1  0
 13 37  1  0
 13 38  1  0
 15 39  1  0
 16 40  1  0
 17 41  1  0
 18 42  1  0
 19 43  1  0
 22 44  1  0
 22 45  1  0
 24 46  1  0
 25 47  1  0
 26 48  1  0
 27 49  1  0
 28 50  1  0
 29 51  1  0
 32 52  1  0
M  CHG  2   3  -1  31  -1
M  END
>  <UniqueID>  (80) 
74

>  <SMILES>  (80) 
O=c1[n-]c(=O)c(Cc2ccc(OCc3ccccc3)c(OCc3ccccc3)c2)c([O-])[nH]1

>  <Energy>  (80) 
61.46326120988429

>  <Genealogy>  (80) 
O=c1[n-]c(=O)c(Cc2ccc(OCc3ccccc3)c(OCc3ccccc3)c2)c([O-])[nH]1 (protonated)
O=c1[n-]c(=O)c(Cc2ccc(OCc3ccccc3)c(OCc3ccccc3)c2)c([O-])[nH]1 (3D coordinates assigned)
O=c1[n-]c(=O)c(Cc2ccc(OCc3ccccc3)c(OCc3ccccc3)c2)c([O-])[nH]1 (optimized conformer: 61.46326120988429 kcal/mol)

>  <smiles>  (80) 
O=c1[nH]c(O)c(Cc2ccc(OCc3ccccc3)c(OCc3ccccc3)c2)c(=O)[nH]1

>  <score_type>  (80) 
oracle

>  <origin>  (80) 
adg

>  <m_score__min__energy>  (80) 
-14.6

>  <m_primary>  (80) 
energy

$$$$
80:0
     RDKit          3D

 44 48  0  0  0  0  0  0  0  0999 V2000
   55.5725   28.4605   43.9027 H   0  0  0  0  0  0  0  0  0  0  0  0
   56.2620   29.0800   44.4950 C   0  0  0  0  0  0  0  0  0  0  0  0
   56.2720   30.3750   44.5260 N   0  0  0  0  0  0  0  0  0  0  0  0
   57.8410   29.7360   46.0380 N   0  0  0  0  0  0  0  0  0  0  0  0
   59.1090   30.1370   46.3040 C   0  0  0  0  0  0  0  0  0  0  0  0
   59.9520   29.5230   47.0840 N   0  0  0  0  0  0  0  0  0  0  0  0
   57.9020   34.2300   44.9900 C   0  0  0  0  0  0  0  0  0  0  0  0
   56.9150   34.4078   44.5381 H   0  0  0  0  0  0  0  0  0  0  0  0
   58.5550   34.5980   46.3110 C   0  0  0  0  0  0  0  0  0  0  0  0
   58.1159   35.3849   46.9418 H   0  0  0  0  0  0  0  0  0  0  0  0
   58.8552   34.0439   47.2126 H   0  0  0  0  0  0  0  0  0  0  0  0
   59.2320   34.9650   44.9900 C   0  0  0  0  0  0  0  0  0  0  0  0
   59.2803   36.0161   44.6694 H   0  0  0  0  0  0  0  0  0  0  0  0
   60.2218   34.7849   44.5453 H   0  0  0  0  0  0  0  0  0  0  0  0
   59.3530   31.3870   45.8420 N   0  0  0  0  0  0  0  0  0  0  0  0
   58.1640   31.7250   45.2910 C   0  0  0  0  0  0  0  0  0  0  0  0
   57.9290   32.8080   44.6010 N   0  0  0  0  0  0  0  0  0  0  0  0
   60.9050   30.1280   47.9650 C   0  0  0  0  0  0  0  0  0  0  0  0
   61.7870   31.0570   47.5050 N   0  0  0  0  0  0  0  0  0  0  0  0
   62.7210   31.6380   48.3060 C   0  0  0  0  0  0  0  0  0  0  0  0
   63.6300   32.6750   47.7150 C   0  0  0  0  0  0  0  0  0  0  0  0
   64.1214   33.2356   48.5238 H   0  0  0  0  0  0  0  0  0  0  0  0
   64.3929   32.1828   47.0939 H   0  0  0  0  0  0  0  0  0  0  0  0
   63.0421   33.3669   47.0939 H   0  0  0  0  0  0  0  0  0  0  0  0
   62.8030   31.2630   49.6650 C   0  0  0  0  0  0  0  0  0  0  0  0
   63.8170   31.8780   50.5930 C   0  0  0  0  0  0  0  0  0  0  0  0
   63.5174   31.6963   51.6357 H   0  0  0  0  0  0  0  0  0  0  0  0
   64.8029   31.4255   50.4106 H   0  0  0  0  0  0  0  0  0  0  0  0
   63.8714   32.9614   50.4106 H   0  0  0  0  0  0  0  0  0  0  0  0
   61.9220   30.2820   50.1450 C   0  0  0  0  0  0  0  0  0  0  0  0
   61.9771   29.9639   51.1966 H   0  0  0  0  0  0  0  0  0  0  0  0
   60.9760   29.7080   49.2940 C   0  0  0  0  0  0  0  0  0  0  0  0
   60.2924   28.9314   49.6677 H   0  0  0  0  0  0  0  0  0  0  0  0
   57.2540   30.7510   45.4490 N   0  0  0  0  0  0  0  0  0  0  0  0
   57.3230   28.5710   45.3810 C   0  0  0  0  0  0  0  0  0  0  0  0
   57.8290   27.3290   45.4100 C   0  0  0  0  0  0  0  0  0  0  0  0
   58.7167   27.1140   44.7970 H   0  0  0  0  0  0  0  0  0  0  0  0
   57.2600   26.2390   46.2180 C   0  0  0  0  0  0  0  0  0  0  0  0
   58.0010   25.2510   46.7490 N   0  0  0  0  0  0  0  0  0  0  0  0
   57.0820   24.4420   47.3200 C   0  0  0  0  0  0  0  0  0  0  0  0
   57.3950   23.3930   47.9420 O   0  0  0  0  0  0  0  0  0  0  0  0
   55.8020   24.8390   47.1640 N   0  0  0  0  0  0  0  0  0  0  0  0
   55.9290   25.9720   46.4530 C   0  0  0  0  0  0  0  0  0  0  0  0
   54.8490   26.7130   45.9890 O   0  0  0  0  0  0  0  0  0  0  0  0
  1  2  1  0
  2  3  2  0
  3  4  1  0
  4  5  1  0
  5  6  2  0
  6  7  1  0
  7  8  1  0
  7  9  1  0
  9 10  1  0
  9 11  1  0
  9 12  1  0
 12 13  1  0
 12 14  1  0
  5 15  1  0
 15 16  1  0
 16 17  2  0
 17 18  1  0
 18 19  2  0
 19 20  1  0
 20 21  1  0
 21 22  1  0
 21 23  1  0
 21 24  1  0
 20 25  2  0
 25 26  1  0
 26 27  1  0
 26 28  1  0
 26 29  1  0
 25 30  1  0
 30 31  1  0
 30 32  2  0
 32 33  1  0
 16 34  1  0
 34 35  1  0
 35 36  2  3
 36 37  1  0
 36 38  1  0
 38 39  1  0
 39 40  1  0
 40 41  2  0
 40 42  1  0
 42 43  1  0
 43 44  1  0
 35  2  1  0
 43 38  2  0
 34  4  1  0
 12  7  1  0
 32 18  1  0
M  CHG  4  15  -1  39  -1  42  -1  44  -1
M  END
>  <UniqueID>  (81) 
75

>  <SMILES>  (81) 
Cc1ccc(/N=c2/[n-]/c(=N\C3CC3)n3n2C(=Cc2[n-]c(=O)[n-]c2[O-])C=N3)nc1C

>  <Energy>  (81) 
461.96906577054807

>  <Genealogy>  (81) 
Cc1ccc(N=c2[n-]c(=NC3CC3)n3n2C(=Cc2[n-]c(=O)[n-]c2[O-])C=N3)nc1C (protonated)
Cc1ccc(/N=c2/[n-]/c(=N\C3CC3)n3n2C(=Cc2[n-]c(=O)[n-]c2[O-])C=N3)nc1C (cis-trans isomerization)
Cc1ccc(/N=c2/[n-]/c(=N\C3CC3)n3n2C(=Cc2[n-]c(=O)[n-]c2[O-])C=N3)nc1C (3D coordinates assigned)
Cc1ccc(/N=c2/[n-]/c(=N\C3CC3)n3n2C(=Cc2[n-]c(=O)[n-]c2[O-])C=N3)nc1C (nonaromatic ring conformer: 461.96906577054807 kcal/mol)

>  <smiles>  (81) 
Cc1ccc(N=c2[nH]c(=NC3CC3)n3n2C(=Cc2[nH]c(=O)[nH]c2O)C=N3)nc1C

>  <score_type>  (81) 
oracle

>  <origin>  (81) 
adg

>  <m_score__min__energy>  (81) 
-17.039999999999999

>  <m_primary>  (81) 
energy

$$$$
81:0
     RDKit          3D

 47 49  0  0  0  0  0  0  0  0999 V2000
   64.4650   33.1300   49.4500 C   0  0  0  0  0  0  0  0  0  0  0  0
   64.0340   33.1310   48.0940 O   0  0  0  0  0  0  0  0  0  0  0  0
   62.7090   32.9250   47.6780 C   0  0  0  0  0  0  0  0  0  0  0  0
   62.0390   33.8420   46.8490 C   0  0  0  0  0  0  0  0  0  0  0  0
   60.7150   33.6090   46.4580 C   0  0  0  0  0  0  0  0  0  0  0  0
   60.0590   32.4250   46.8480 C   0  0  0  0  0  0  0  0  0  0  0  0
   60.7180   31.5290   47.7070 C   0  0  0  0  0  0  0  0  0  0  0  0
   62.0440   31.7710   48.1150 C   0  0  0  0  0  0  0  0  0  0  0  0
   62.7350   30.8870   48.9570 O   0  0  0  0  0  0  0  0  0  0  0  0
   62.3040   30.5080   50.2610 C   0  0  0  0  0  0  0  0  0  0  0  0
   58.6570   32.2090   46.3820 C   0  0  0  0  0  0  0  0  0  0  0  0
   58.0370   30.8720   46.2980 C   0  0  0  0  0  0  0  0  0  0  0  0
   58.3180   29.9780   47.1430 O   0  0  0  0  0  0  0  0  0  0  0  0
   57.1830   30.5860   45.2260 O   0  0  0  0  0  0  0  0  0  0  0  0
   57.6170   29.9490   44.0270 C   0  0  0  0  0  0  0  0  0  0  0  0
   57.6780   28.4630   44.2120 C   0  0  0  0  0  0  0  0  0  0  0  0
   58.0900   27.7370   43.2670 O   0  0  0  0  0  0  0  0  0  0  0  0
   57.3450   27.8850   45.4830 N   0  0  0  0  0  0  0  0  0  0  0  0
   57.1790   26.4740   45.6890 C   0  0  0  0  0  0  0  0  0  0  0  0
   58.3130   25.6500   45.7080 C   0  0  0  0  0  0  0  0  0  0  0  0
   58.1830   24.2740   45.9170 C   0  0  0  0  0  0  0  0  0  0  0  0
   56.9220   23.7120   46.1220 C   0  0  0  0  0  0  0  0  0  0  0  0
   55.7880   24.5270   46.1320 C   0  0  0  0  0  0  0  0  0  0  0  0
   55.9110   25.9070   45.9300 C   0  0  0  0  0  0  0  0  0  0  0  0
   54.7760   26.7040   45.9990 O   0  0  0  0  0  0  0  0  0  0  0  0
   57.9810   33.2210   45.9210 N   0  0  0  0  0  0  0  0  0  0  0  0
   58.5000   34.5900   45.9130 C   0  0  0  0  0  0  0  0  0  0  0  0
   59.9960   34.5960   45.5770 C   0  0  0  0  0  0  0  0  0  0  0  0
   63.5877   33.1320   50.1136 H   0  0  0  0  0  0  0  0  0  0  0  0
   65.0682   32.2305   49.6424 H   0  0  0  0  0  0  0  0  0  0  0  0
   65.0723   34.0267   49.6424 H   0  0  0  0  0  0  0  0  0  0  0  0
   62.5586   34.7486   46.5053 H   0  0  0  0  0  0  0  0  0  0  0  0
   60.1933   30.6305   48.0639 H   0  0  0  0  0  0  0  0  0  0  0  0
   62.9059   31.0373   51.0144 H   0  0  0  0  0  0  0  0  0  0  0  0
   61.2436   30.7715   50.3877 H   0  0  0  0  0  0  0  0  0  0  0  0
   62.4298   29.4226   50.3877 H   0  0  0  0  0  0  0  0  0  0  0  0
   56.9110   30.1838   43.2168 H   0  0  0  0  0  0  0  0  0  0  0  0
   58.6224   30.3166   43.7738 H   0  0  0  0  0  0  0  0  0  0  0  0
   57.3550   28.5090   46.3210 H   0  0  0  0  0  0  0  0  0  0  0  0
   59.3105   26.0886   45.5576 H   0  0  0  0  0  0  0  0  0  0  0  0
   59.0766   23.6326   45.9199 H   0  0  0  0  0  0  0  0  0  0  0  0
   56.8214   22.6274   46.2756 H   0  0  0  0  0  0  0  0  0  0  0  0
   54.7953   24.0835   46.2991 H   0  0  0  0  0  0  0  0  0  0  0  0
   57.9573   35.1783   45.1584 H   0  0  0  0  0  0  0  0  0  0  0  0
   58.3581   35.0297   46.9113 H   0  0  0  0  0  0  0  0  0  0  0  0
   60.1356   34.3152   44.5226 H   0  0  0  0  0  0  0  0  0  0  0  0
   60.4047   35.6030   45.7469 H   0  0  0  0  0  0  0  0  0  0  0  0
  1  2  1  0
  2  3  1  0
  3  4  2  0
  4  5  1  0
  5  6  2  0
  6  7  1  0
  7  8  2  0
  8  9  1  0
  9 10  1  0
  6 11  1  0
 11 12  1  0
 12 13  2  0
 12 14  1  0
 14 15  1  0
 15 16  1  0
 16 17  2  0
 16 18  1  0
 18 19  1  0
 19 20  2  0
 20 21  1  0
 21 22  2  0
 22 23  1  0
 23 24  2  0
 24 25  1  0
 11 26  2  0
 26 27  1  0
 27 28  1  0
  8  3  1  0
 24 19  1  0
 28  5  1  0
  1 29  1  0
  1 30  1  0
  1 31  1  0
  4 32  1  0
  7 33  1  0
 10 34  1  0
 10 35  1  0
 10 36  1  0
 15 37  1  0
 15 38  1  0
 18 39  1  0
 20 40  1  0
 21 41  1  0
 22 42  1  0
 23 43  1  0
 27 44  1  0
 27 45  1  0
 28 46  1  0
 28 47  1  0
M  CHG  1  25  -1
M  END
>  <UniqueID>  (82) 
76

>  <SMILES>  (82) 
COc1cc2c(cc1OC)C(C(=O)OCC(=O)Nc1ccccc1[O-])=NCC2

>  <Energy>  (82) 
54.9549618756724

>  <Genealogy>  (82) 
COc1cc2c(cc1OC)C(C(=O)OCC(=O)Nc1ccccc1[O-])=NCC2 (protonated)
COc1cc2c(cc1OC)C(C(=O)OCC(=O)Nc1ccccc1[O-])=NCC2 (3D coordinates assigned)
COc1cc2c(cc1OC)C(C(=O)OCC(=O)Nc1ccccc1[O-])=NCC2 (nonaromatic ring conformer: 54.9549618756724 kcal/mol)

>  <smiles>  (82) 
COc1cc2c(cc1OC)C(C(=O)OCC(=O)Nc1ccccc1O)=NCC2

>  <score_type>  (82) 
oracle

>  <origin>  (82) 
adg

>  <m_score__min__energy>  (82) 
-11.619999999999999

>  <m_primary>  (82) 
energy

$$$$
82:0
     RDKit          3D

 46 49  0  0  0  0  0  0  0  0999 V2000
   57.9280   27.8530   43.5420 O   0  0  0  0  0  0  0  0  0  0  0  0
   57.5800   28.1920   44.7040 C   0  0  0  0  0  0  0  0  0  0  0  0
   56.2640   28.8950   44.8670 C   0  0  0  0  0  0  0  0  0  0  0  0
   55.8340   29.7550   43.3170 S   0  0  0  0  0  0  0  0  0  0  0  0
   56.9010   31.1500   43.6660 C   0  0  0  0  0  0  0  0  0  0  0  0
   57.5120   31.8840   42.7200 N   0  0  0  0  0  0  0  0  0  0  0  0
   58.1990   32.8170   43.3650 N   0  0  0  0  0  0  0  0  0  0  0  0
   57.9750   32.6140   44.6780 C   0  0  0  0  0  0  0  0  0  0  0  0
   58.5530   33.4370   45.7600 C   0  0  0  0  0  0  0  0  0  0  0  0
   59.3140   34.5770   45.4520 C   0  0  0  0  0  0  0  0  0  0  0  0
   59.8590   35.3400   46.4880 C   0  0  0  0  0  0  0  0  0  0  0  0
   59.6480   34.9810   47.7820 N   0  0  0  0  0  0  0  0  0  0  0  0
   58.9060   33.8900   48.1100 C   0  0  0  0  0  0  0  0  0  0  0  0
   58.3450   33.0960   47.1070 C   0  0  0  0  0  0  0  0  0  0  0  0
   57.1750   31.5920   44.8700 O   0  0  0  0  0  0  0  0  0  0  0  0
   58.4810   27.9010   45.8540 C   0  0  0  0  0  0  0  0  0  0  0  0
   58.6420   26.5940   46.3550 C   0  0  0  0  0  0  0  0  0  0  0  0
   59.5140   26.3430   47.4190 C   0  0  0  0  0  0  0  0  0  0  0  0
   60.2240   27.3880   48.0060 C   0  0  0  0  0  0  0  0  0  0  0  0
   60.0550   28.7030   47.5490 C   0  0  0  0  0  0  0  0  0  0  0  0
   60.8100   29.7650   48.1600 N   0  0  0  0  0  0  0  0  0  0  0  0
   61.1260   31.0040   47.4960 C   0  0  0  0  0  0  0  0  0  0  0  0
   60.6110   31.2720   46.3760 O   0  0  0  0  0  0  0  0  0  0  0  0
   62.0160   31.9980   48.1430 C   0  0  0  0  0  0  0  0  0  0  0  0
   63.1060   32.5220   47.4230 C   0  0  0  0  0  0  0  0  0  0  0  0
   63.9680   33.4510   48.0140 C   0  0  0  0  0  0  0  0  0  0  0  0
   63.7560   33.8650   49.3290 C   0  0  0  0  0  0  0  0  0  0  0  0
   62.6810   33.3530   50.0570 C   0  0  0  0  0  0  0  0  0  0  0  0
   61.8120   32.4180   49.4790 C   0  0  0  0  0  0  0  0  0  0  0  0
   60.4430   31.8590   50.4350 Cl  0  0  0  0  0  0  0  0  0  0  0  0
   59.1960   28.9500   46.4630 C   0  0  0  0  0  0  0  0  0  0  0  0
   55.4826   28.1586   45.1060 H   0  0  0  0  0  0  0  0  0  0  0  0
   56.3403   29.6287   45.6830 H   0  0  0  0  0  0  0  0  0  0  0  0
   59.4795   34.8666   44.4038 H   0  0  0  0  0  0  0  0  0  0  0  0
   60.4594   36.2321   46.2562 H   0  0  0  0  0  0  0  0  0  0  0  0
   58.7471   33.6320   49.1675 H   0  0  0  0  0  0  0  0  0  0  0  0
   57.7457   32.2117   47.3694 H   0  0  0  0  0  0  0  0  0  0  0  0
   58.0770   25.7641   45.9054 H   0  0  0  0  0  0  0  0  0  0  0  0
   59.6398   25.3165   47.7939 H   0  0  0  0  0  0  0  0  0  0  0  0
   60.9204   27.1807   48.8318 H   0  0  0  0  0  0  0  0  0  0  0  0
   61.1090   29.6330   49.1520 H   0  0  0  0  0  0  0  0  0  0  0  0
   63.2813   32.1980   46.3865 H   0  0  0  0  0  0  0  0  0  0  0  0
   64.8149   33.8561   47.4407 H   0  0  0  0  0  0  0  0  0  0  0  0
   64.4361   34.5950   49.7922 H   0  0  0  0  0  0  0  0  0  0  0  0
   62.5147   33.6859   51.0921 H   0  0  0  0  0  0  0  0  0  0  0  0
   59.0813   29.9764   46.0844 H   0  0  0  0  0  0  0  0  0  0  0  0
  1  2  2  0
  2  3  1  0
  3  4  1  0
  4  5  1  0
  5  6  2  0
  6  7  1  0
  7  8  2  0
  8  9  1  0
  9 10  2  0
 10 11  1  0
 11 12  2  0
 12 13  1  0
 13 14  2  0
  8 15  1  0
  2 16  1  0
 16 17  2  0
 17 18  1  0
 18 19  2  0
 19 20  1  0
 20 21  1  0
 21 22  1  0
 22 23  2  0
 22 24  1  0
 24 25  2  0
 25 26  1  0
 26 27  2  0
 27 28  1  0
 28 29  2  0
 29 30  1  0
 20 31  2  0
 15  5  1  0
 31 16  1  0
 14  9  1  0
 29 24  1  0
  3 32  1  0
  3 33  1  0
 10 34  1  0
 11 35  1  0
 13 36  1  0
 14 37  1  0
 17 38  1  0
 18 39  1  0
 19 40  1  0
 21 41  1  0
 25 42  1  0
 26 43  1  0
 27 44  1  0
 28 45  1  0
 31 46  1  0
M  END
>  <UniqueID>  (83) 
77

>  <SMILES>  (83) 
O=C(CSc1nnc(-c2ccncc2)o1)c1cccc(NC(=O)c2ccccc2Cl)c1

>  <Energy>  (83) 
93.36621226704392

>  <Genealogy>  (83) 
O=C(CSc1nnc(-c2ccncc2)o1)c1cccc(NC(=O)c2ccccc2Cl)c1 (3D coordinates assigned)
O=C(CSc1nnc(-c2ccncc2)o1)c1cccc(NC(=O)c2ccccc2Cl)c1 (optimized conformer: 93.36621226704392 kcal/mol)

>  <smiles>  (83) 
O=C(CSc1nnc(-c2ccncc2)o1)c1cccc(NC(=O)c2ccccc2Cl)c1

>  <score_type>  (83) 
oracle

>  <origin>  (83) 
adg

>  <m_score__min__energy>  (83) 
-9.5999999999999996

>  <m_primary>  (83) 
energy

$$$$
83:0
     RDKit          3D

 60 63  0  0  0  0  0  0  0  0999 V2000
   63.3370   31.7960   49.4580 C   0  0  0  0  0  0  0  0  0  0  0  0
   62.0720   30.9110   49.3610 C   0  0  0  0  0  0  0  0  0  0  0  0
   61.7220   30.5010   50.8160 C   0  0  0  0  0  0  0  0  0  0  0  0
   60.8390   31.5850   48.5870 C   0  0  2  0  0  0  0  0  0  0  0  0
   60.5970   30.7890   47.2480 C   0  0  0  0  0  0  0  0  0  0  0  0
   59.6630   31.4460   46.2030 C   0  0  0  0  0  0  0  0  0  0  0  0
   58.7930   32.5660   46.7920 C   0  0  1  0  0  0  0  0  0  0  0  0
   59.6680   33.6430   47.4600 C   0  0  2  0  0  0  0  0  0  0  0  0
   59.8050   34.7360   46.3920 C   0  0  0  0  0  0  0  0  0  0  0  0
   58.4620   34.7740   45.6850 C   0  0  0  0  0  0  0  0  0  0  0  0
   57.8730   33.3450   45.7870 C   0  0  1  0  0  0  0  0  0  0  0  0
   57.7750   32.7120   44.3860 C   0  0  0  0  0  0  0  0  0  0  0  0
   56.5580   33.4140   46.2980 O   0  0  0  0  0  0  0  0  0  0  0  0
   61.0110   33.1340   48.1700 C   0  0  2  0  0  0  0  0  0  0  0  0
   62.2180   33.2880   47.1720 C   0  0  0  0  0  0  0  0  0  0  0  0
   61.3250   34.1100   49.3690 C   0  0  2  0  0  0  0  0  0  0  0  0
   62.6840   34.4930   49.3700 O   0  0  0  0  0  0  0  0  0  0  0  0
   60.9690   33.6330   50.7550 C   0  0  0  0  0  0  0  0  0  0  0  0
   61.8000   33.8240   51.6860 O   0  0  0  0  0  0  0  0  0  0  0  0
   59.6440   33.1120   51.1100 C   0  0  0  0  0  0  0  0  0  0  0  0
   58.9430   33.7180   52.1750 C   0  0  0  0  0  0  0  0  0  0  0  0
   59.4590   34.8380   52.8180 O   0  0  0  0  0  0  0  0  0  0  0  0
   57.7100   33.2130   52.5900 C   0  0  0  0  0  0  0  0  0  0  0  0
   57.1660   32.0820   51.9730 C   0  0  0  0  0  0  0  0  0  0  0  0
   55.8200   31.5610   52.3900 C   0  0  0  0  0  0  0  0  0  0  0  0
   55.8400   30.0970   52.4270 C   0  0  0  0  0  0  0  0  0  0  0  0
   55.8580   28.9400   52.4560 N   0  0  0  0  0  0  0  0  0  0  0  0
   57.8580   31.4810   50.9160 C   0  0  0  0  0  0  0  0  0  0  0  0
   59.0810   31.9920   50.4610 C   0  0  0  0  0  0  0  0  0  0  0  0
   59.6610   31.3180   49.3730 O   0  0  0  0  0  0  0  0  0  0  0  0
   63.5836   31.9685   50.5160 H   0  0  0  0  0  0  0  0  0  0  0  0
   64.1784   31.2885   48.9635 H   0  0  0  0  0  0  0  0  0  0  0  0
   63.1486   32.7603   48.9635 H   0  0  0  0  0  0  0  0  0  0  0  0
   62.2850   30.0317   48.7354 H   0  0  0  0  0  0  0  0  0  0  0  0
   62.2707   31.1438   51.5201 H   0  0  0  0  0  0  0  0  0  0  0  0
   60.6405   30.6174   50.9797 H   0  0  0  0  0  0  0  0  0  0  0  0
   62.0067   29.4512   50.9797 H   0  0  0  0  0  0  0  0  0  0  0  0
   61.5760   30.6370   46.7700 H   0  0  0  0  0  0  0  0  0  0  0  0
   60.0831   29.8651   47.5519 H   0  0  0  0  0  0  0  0  0  0  0  0
   60.2815   31.8698   45.3981 H   0  0  0  0  0  0  0  0  0  0  0  0
   58.9840   30.6639   45.8325 H   0  0  0  0  0  0  0  0  0  0  0  0
   58.1449   32.0150   47.4893 H   0  0  0  0  0  0  0  0  0  0  0  0
   59.1933   34.0454   48.3670 H   0  0  0  0  0  0  0  0  0  0  0  0
   60.0218   35.7075   46.8602 H   0  0  0  0  0  0  0  0  0  0  0  0
   60.6302   34.5280   45.6950 H   0  0  0  0  0  0  0  0  0  0  0  0
   57.7939   35.4967   46.1762 H   0  0  0  0  0  0  0  0  0  0  0  0
   58.5725   35.0856   44.6359 H   0  0  0  0  0  0  0  0  0  0  0  0
   57.6074   31.6293   44.4838 H   0  0  0  0  0  0  0  0  0  0  0  0
   56.9363   33.1648   43.8369 H   0  0  0  0  0  0  0  0  0  0  0  0
   58.7114   32.8900   43.8369 H   0  0  0  0  0  0  0  0  0  0  0  0
   56.5860   33.8770   47.1770 H   0  0  0  0  0  0  0  0  0  0  0  0
   63.1516   33.4071   47.7413 H   0  0  0  0  0  0  0  0  0  0  0  0
   62.2867   32.3913   46.5385 H   0  0  0  0  0  0  0  0  0  0  0  0
   62.0594   34.1732   46.5385 H   0  0  0  0  0  0  0  0  0  0  0  0
   60.6524   34.9563   49.1656 H   0  0  0  0  0  0  0  0  0  0  0  0
   63.0340   34.3960   50.2950 H   0  0  0  0  0  0  0  0  0  0  0  0
   57.1632   33.7071   53.4066 H   0  0  0  0  0  0  0  0  0  0  0  0
   55.5734   31.9475   53.3899 H   0  0  0  0  0  0  0  0  0  0  0  0
   55.0630   31.8939   51.6647 H   0  0  0  0  0  0  0  0  0  0  0  0
   57.4334   30.5890   50.4321 H   0  0  0  0  0  0  0  0  0  0  0  0
  1  2  1  0
  2  3  1  0
  4  2  1  1
  4  5  1  0
  5  6  1  0
  6  7  1  0
  7  8  1  0
  8  9  1  0
  9 10  1  0
 10 11  1  0
 11 12  1  0
 11 13  1  1
  8 14  1  0
 14 15  1  6
 14 16  1  0
 16 17  1  0
 16 18  1  0
 18 19  2  0
 18 20  1  0
 20 21  2  0
 21 22  1  0
 21 23  1  0
 23 24  2  0
 24 25  1  0
 25 26  1  0
 26 27  3  0
 24 28  1  0
 28 29  2  0
 29 30  1  0
 14  4  1  0
 29 20  1  0
 30  4  1  0
 11  7  1  0
  1 31  1  0
  1 32  1  0
  1 33  1  0
  2 34  1  0
  3 35  1  0
  3 36  1  0
  3 37  1  0
  5 38  1  0
  5 39  1  0
  6 40  1  0
  6 41  1  0
  7 42  1  1
  8 43  1  1
  9 44  1  0
  9 45  1  0
 10 46  1  0
 10 47  1  0
 12 48  1  0
 12 49  1  0
 12 50  1  0
 13 51  1  0
 15 52  1  0
 15 53  1  0
 15 54  1  0
 16 55  1  6
 17 56  1  0
 23 57  1  0
 25 58  1  0
 25 59  1  0
 28 60  1  0
M  CHG  1  22  -1
M  END
>  <UniqueID>  (84) 
78

>  <SMILES>  (84) 
CC(C)[C@]12CC[C@H]3C(CCC3(C)O)C1(C)C(O)C(=O)c1c([O-])cc(CC#N)cc1O2

>  <Energy>  (84) 
124.32109953534456

>  <Genealogy>  (84) 
CC(C)C12CCC3C(CCC3(C)O)C1(C)C(O)C(=O)c1c([O-])cc(CC#N)cc1O2 (protonated)
CC(C)[C@]12CC[C@H]3C(CCC3(C)O)C1(C)C(O)C(=O)c1c([O-])cc(CC#N)cc1O2 (chirality)
CC(C)[C@]12CC[C@H]3C(CCC3(C)O)C1(C)C(O)C(=O)c1c([O-])cc(CC#N)cc1O2 (3D coordinates assigned)
CC(C)[C@]12CC[C@H]3C(CCC3(C)O)C1(C)C(O)C(=O)c1c([O-])cc(CC#N)cc1O2 (nonaromatic ring conformer: 124.32109953534456 kcal/mol)

>  <smiles>  (84) 
CC(C)C12CCC3C(CCC3(C)O)C1(C)C(O)C(=O)c1c(O)cc(CC#N)cc1O2

>  <score_type>  (84) 
oracle

>  <origin>  (84) 
adg

>  <m_score__min__energy>  (84) 
-7.6699999999999999

>  <m_primary>  (84) 
energy

$$$$
84:0
     RDKit          3D

 60 63  0  0  0  0  0  0  0  0999 V2000
   54.5580   29.3570   43.6890 O   0  0  0  0  0  0  0  0  0  0  0  0
   55.7660   29.6500   43.9080 C   0  0  0  0  0  0  0  0  0  0  0  0
   56.6430   30.1020   42.7660 C   0  0  0  0  0  0  0  0  0  0  0  0
   57.3000   31.4580   43.0790 C   0  0  0  0  0  0  0  0  0  0  0  0
   58.4650   31.3290   44.0770 C   0  0  0  0  0  0  0  0  0  0  0  0
   58.4920   32.4660   45.0710 C   0  0  0  0  0  0  0  0  0  0  0  0
   57.7940   32.3590   46.2860 C   0  0  0  0  0  0  0  0  0  0  0  0
   57.8150   33.4170   47.2030 C   0  0  0  0  0  0  0  0  0  0  0  0
   58.5350   34.5850   46.9190 C   0  0  0  0  0  0  0  0  0  0  0  0
   59.2380   34.6930   45.7150 C   0  0  0  0  0  0  0  0  0  0  0  0
   59.2190   33.6370   44.7960 C   0  0  0  0  0  0  0  0  0  0  0  0
   56.2810   29.5010   45.2350 N   0  0  0  0  0  0  0  0  0  0  0  0
   57.3750   28.6560   45.6360 C   0  0  0  0  0  0  0  0  0  0  0  0
   57.7450   27.5290   44.8880 C   0  0  0  0  0  0  0  0  0  0  0  0
   58.8730   26.7920   45.2470 C   0  0  0  0  0  0  0  0  0  0  0  0
   59.6580   27.1850   46.3350 C   0  0  0  0  0  0  0  0  0  0  0  0
   59.3020   28.3090   47.0910 C   0  0  0  0  0  0  0  0  0  0  0  0
   60.1150   28.7580   48.1880 N   0  0  0  0  0  0  0  0  0  0  0  0
   60.0060   30.1020   48.6780 C   0  0  0  0  0  0  0  0  0  0  0  0
   59.1570   30.3740   49.7530 C   0  0  0  0  0  0  0  0  0  0  0  0
   59.0350   31.6750   50.2310 C   0  0  0  0  0  0  0  0  0  0  0  0
   59.7670   32.7020   49.6300 C   0  0  0  0  0  0  0  0  0  0  0  0
   59.6060   33.8870   50.0370 O   0  0  0  0  0  0  0  0  0  0  0  0
   60.6310   32.4270   48.5980 N   0  0  0  0  0  0  0  0  0  0  0  0
   61.3470   33.4690   47.9730 N   0  0  0  0  0  0  0  0  0  0  0  0
   62.7800   33.4770   47.8800 C   0  0  0  0  0  0  0  0  0  0  0  0
   63.3310   33.4670   46.7430 O   0  0  0  0  0  0  0  0  0  0  0  0
   63.6090   33.5380   49.1050 C   0  0  0  0  0  0  0  0  0  0  0  0
   63.1330   34.2020   50.2540 C   0  0  0  0  0  0  0  0  0  0  0  0
   63.9280   34.2730   51.4060 C   0  0  0  0  0  0  0  0  0  0  0  0
   65.2010   33.6800   51.4280 C   0  0  0  0  0  0  0  0  0  0  0  0
   65.6830   33.0190   50.2970 C   0  0  0  0  0  0  0  0  0  0  0  0
   64.8930   32.9440   49.1410 C   0  0  0  0  0  0  0  0  0  0  0  0
   60.7600   31.1460   48.1140 C   0  0  0  0  0  0  0  0  0  0  0  0
   61.6580   30.8510   47.0780 O   0  0  0  0  0  0  0  0  0  0  0  0
   58.1530   29.0350   46.7380 C   0  0  0  0  0  0  0  0  0  0  0  0
   57.4294   29.3516   42.5974 H   0  0  0  0  0  0  0  0  0  0  0  0
   56.0185   30.2140   41.8674 H   0  0  0  0  0  0  0  0  0  0  0  0
   57.6832   31.8895   42.1425 H   0  0  0  0  0  0  0  0  0  0  0  0
   56.5359   32.1033   43.5370 H   0  0  0  0  0  0  0  0  0  0  0  0
   58.3587   30.3813   44.6253 H   0  0  0  0  0  0  0  0  0  0  0  0
   59.4045   31.3571   43.5055 H   0  0  0  0  0  0  0  0  0  0  0  0
   57.2305   31.4430   46.5169 H   0  0  0  0  0  0  0  0  0  0  0  0
   57.2636   33.3308   48.1509 H   0  0  0  0  0  0  0  0  0  0  0  0
   58.5472   35.4147   47.6411 H   0  0  0  0  0  0  0  0  0  0  0  0
   59.8060   35.6077   45.4899 H   0  0  0  0  0  0  0  0  0  0  0  0
   59.7770   33.7244   43.8521 H   0  0  0  0  0  0  0  0  0  0  0  0
   57.1449   27.2261   44.0173 H   0  0  0  0  0  0  0  0  0  0  0  0
   59.1468   25.8960   44.6706 H   0  0  0  0  0  0  0  0  0  0  0  0
   60.5579   26.6098   46.5981 H   0  0  0  0  0  0  0  0  0  0  0  0
   60.4430   28.0380   48.8720 H   0  0  0  0  0  0  0  0  0  0  0  0
   58.5848   29.5598   50.2218 H   0  0  0  0  0  0  0  0  0  0  0  0
   58.3664   31.8935   51.0767 H   0  0  0  0  0  0  0  0  0  0  0  0
   62.1354   34.6654   50.2463 H   0  0  0  0  0  0  0  0  0  0  0  0
   63.5529   34.7961   52.2980 H   0  0  0  0  0  0  0  0  0  0  0  0
   65.8183   33.7365   52.3367 H   0  0  0  0  0  0  0  0  0  0  0  0
   66.6814   32.5575   50.3126 H   0  0  0  0  0  0  0  0  0  0  0  0
   65.2750   32.4183   48.2534 H   0  0  0  0  0  0  0  0  0  0  0  0
   62.2720   31.5470   46.6750 H   0  0  0  0  0  0  0  0  0  0  0  0
   57.8601   29.9120   47.3339 H   0  0  0  0  0  0  0  0  0  0  0  0
  1  2  2  0
  2  3  1  0
  3  4  1  0
  4  5  1  0
  5  6  1  0
  6  7  2  0
  7  8  1  0
  8  9  2  0
  9 10  1  0
 10 11  2  0
  2 12  1  0
 12 13  1  0
 13 14  2  0
 14 15  1  0
 15 16  2  0
 16 17  1  0
 17 18  1  0
 18 19  1  0
 19 20  1  0
 20 21  2  0
 21 22  1  0
 22 23  2  0
 22 24  1  0
 24 25  1  0
 25 26  1  0
 26 27  2  0
 26 28  1  0
 28 29  2  0
 29 30  1  0
 30 31  2  0
 31 32  1  0
 32 33  2  0
 24 34  1  0
 34 35  1  0
 17 36  2  0
 11  6  1  0
 36 13  1  0
 34 19  2  0
 33 28  1  0
  3 37  1  0
  3 38  1  0
  4 39  1  0
  4 40  1  0
  5 41  1  0
  5 42  1  0
  7 43  1  0
  8 44  1  0
  9 45  1  0
 10 46  1  0
 11 47  1  0
 14 48  1  0
 15 49  1  0
 16 50  1  0
 18 51  1  0
 20 52  1  0
 21 53  1  0
 29 54  1  0
 30 55  1  0
 31 56  1  0
 32 57  1  0
 33 58  1  0
 35 59  1  0
 36 60  1  0
M  CHG  2  12  -1  25  -1
M  END
>  <UniqueID>  (85) 
79

>  <SMILES>  (85) 
O=C(CCCc1ccccc1)[N-]c1cccc(Nc2ccc(=O)n([N-]C(=O)c3ccccc3)c2O)c1

>  <Energy>  (85) 
84.9737288246132

>  <Genealogy>  (85) 
O=C(CCCc1ccccc1)[N-]c1cccc(Nc2ccc(=O)n([N-]C(=O)c3ccccc3)c2O)c1 (protonated)
O=C(CCCc1ccccc1)[N-]c1cccc(Nc2ccc(=O)n([N-]C(=O)c3ccccc3)c2O)c1 (3D coordinates assigned)
O=C(CCCc1ccccc1)[N-]c1cccc(Nc2ccc(=O)n([N-]C(=O)c3ccccc3)c2O)c1 (optimized conformer: 84.9737288246132 kcal/mol)

>  <smiles>  (85) 
O=C(CCCc1ccccc1)Nc1cccc(Nc2ccc(=O)n(NC(=O)c3ccccc3)c2O)c1

>  <score_type>  (85) 
oracle

>  <origin>  (85) 
adg

>  <m_score__min__energy>  (85) 
-13.66

>  <m_primary>  (85) 
energy

$$$$
85:0
     RDKit          3D

 58 60  0  0  0  0  0  0  0  0999 V2000
   59.0840   33.1530   48.9590 C   0  0  0  0  0  0  0  0  0  0  0  0
   60.5710   33.1520   48.6420 C   0  0  0  0  0  0  0  0  0  0  0  0
   61.0400   33.7640   47.4480 C   0  0  0  0  0  0  0  0  0  0  0  0
   60.1610   34.5680   46.5690 C   0  0  0  0  0  0  0  0  0  0  0  0
   59.7640   35.7020   46.9480 O   0  0  0  0  0  0  0  0  0  0  0  0
   59.6860   34.0320   45.3280 N   0  0  0  0  0  0  0  0  0  0  0  0
   58.8570   32.8670   45.2510 C   0  0  0  0  0  0  0  0  0  0  0  0
   59.1450   31.7540   46.0480 C   0  0  0  0  0  0  0  0  0  0  0  0
   58.3890   30.5830   45.9200 C   0  0  0  0  0  0  0  0  0  0  0  0
   57.3140   30.5220   45.0130 C   0  0  0  0  0  0  0  0  0  0  0  0
   56.5470   29.2700   44.8290 C   0  0  0  0  0  0  0  0  0  0  0  0
   55.2870   29.2820   44.8990 O   0  0  0  0  0  0  0  0  0  0  0  0
   57.2330   28.0370   44.5740 N   0  0  0  0  0  0  0  0  0  0  0  0
   57.5170   27.0570   45.5790 C   0  0  0  0  0  0  0  0  0  0  0  0
   58.8450   26.8880   45.9920 C   0  0  0  0  0  0  0  0  0  0  0  0
   59.1700   25.9230   46.9480 C   0  0  0  0  0  0  0  0  0  0  0  0
   58.1690   25.1300   47.5090 C   0  0  0  0  0  0  0  0  0  0  0  0
   56.8370   25.3110   47.1300 C   0  0  0  0  0  0  0  0  0  0  0  0
   56.4940   26.2840   46.1770 C   0  0  0  0  0  0  0  0  0  0  0  0
   55.1110   26.5120   45.8780 N   0  0  0  0  0  0  0  0  0  0  0  0
   56.9960   31.6640   44.2580 C   0  0  0  0  0  0  0  0  0  0  0  0
   57.7620   32.8240   44.3750 C   0  0  0  0  0  0  0  0  0  0  0  0
   62.4000   33.6730   47.1210 C   0  0  0  0  0  0  0  0  0  0  0  0
   62.8490   34.2130   46.0720 O   0  0  0  0  0  0  0  0  0  0  0  0
   63.2660   32.9730   47.9450 C   0  0  0  0  0  0  0  0  0  0  0  0
   62.7930   32.3980   49.1190 C   0  0  0  0  0  0  0  0  0  0  0  0
   63.7000   31.7040   49.9160 O   0  0  0  0  0  0  0  0  0  0  0  0
   61.4730   32.5150   49.4820 N   0  0  0  0  0  0  0  0  0  0  0  0
   61.0560   32.0000   50.8060 C   0  0  0  0  0  0  0  0  0  0  0  0
   60.7390   30.4870   50.7580 C   0  0  0  0  0  0  0  0  0  0  0  0
   60.0760   30.0050   49.4450 C   0  0  0  0  0  0  0  0  0  0  0  0
   60.6670   28.6520   49.0220 C   0  0  0  0  0  0  0  0  0  0  0  0
   58.5510   29.8750   49.5870 C   0  0  0  0  0  0  0  0  0  0  0  0
   58.9416   33.1531   50.0497 H   0  0  0  0  0  0  0  0  0  0  0  0
   58.6179   34.0515   48.5283 H   0  0  0  0  0  0  0  0  0  0  0  0
   58.6167   32.2552   48.5283 H   0  0  0  0  0  0  0  0  0  0  0  0
   59.9675   31.7992   46.7770 H   0  0  0  0  0  0  0  0  0  0  0  0
   58.6367   29.7037   46.5327 H   0  0  0  0  0  0  0  0  0  0  0  0
   59.6363   27.5189   45.5609 H   0  0  0  0  0  0  0  0  0  0  0  0
   60.2165   25.7882   47.2588 H   0  0  0  0  0  0  0  0  0  0  0  0
   58.4291   24.3608   48.2511 H   0  0  0  0  0  0  0  0  0  0  0  0
   56.0512   24.6872   47.5810 H   0  0  0  0  0  0  0  0  0  0  0  0
   54.8350   27.1500   45.0970 H   0  0  0  0  0  0  0  0  0  0  0  0
   54.3500   25.9870   46.3620 H   0  0  0  0  0  0  0  0  0  0  0  0
   56.1376   31.6430   43.5704 H   0  0  0  0  0  0  0  0  0  0  0  0
   57.5058   33.7107   43.7766 H   0  0  0  0  0  0  0  0  0  0  0  0
   64.3265   32.8723   47.6708 H   0  0  0  0  0  0  0  0  0  0  0  0
   61.8689   32.1711   51.5271 H   0  0  0  0  0  0  0  0  0  0  0  0
   60.1420   32.5322   51.1083 H   0  0  0  0  0  0  0  0  0  0  0  0
   61.6818   29.9354   50.8881 H   0  0  0  0  0  0  0  0  0  0  0  0
   60.0113   30.2971   51.5607 H   0  0  0  0  0  0  0  0  0  0  0  0
   60.2833   30.7624   48.6747 H   0  0  0  0  0  0  0  0  0  0  0  0
   60.9224   28.0672   49.9180 H   0  0  0  0  0  0  0  0  0  0  0  0
   59.9279   28.1003   48.4225 H   0  0  0  0  0  0  0  0  0  0  0  0
   61.5740   28.8194   48.4225 H   0  0  0  0  0  0  0  0  0  0  0  0
   58.2827   29.8521   50.6535 H   0  0  0  0  0  0  0  0  0  0  0  0
   58.0632   30.7348   49.1045 H   0  0  0  0  0  0  0  0  0  0  0  0
   58.2158   28.9450   49.1045 H   0  0  0  0  0  0  0  0  0  0  0  0
  1  2  1  0
  2  3  2  0
  3  4  1  0
  4  5  2  0
  4  6  1  0
  6  7  1  0
  7  8  2  0
  8  9  1  0
  9 10  2  0
 10 11  1  0
 11 12  2  0
 11 13  1  0
 13 14  1  0
 14 15  2  0
 15 16  1  0
 16 17  2  0
 17 18  1  0
 18 19  2  0
 19 20  1  0
 10 21  1  0
 21 22  2  0
  3 23  1  0
 23 24  2  0
 23 25  1  0
 25 26  2  0
 26 27  1  0
 26 28  1  0
 28 29  1  0
 29 30  1  0
 30 31  1  0
 31 32  1  0
 31 33  1  0
 28  2  1  0
 22  7  1  0
 19 14  1  0
  1 34  1  0
  1 35  1  0
  1 36  1  0
  8 37  1  0
  9 38  1  0
 15 39  1  0
 16 40  1  0
 17 41  1  0
 18 42  1  0
 20 43  1  0
 20 44  1  0
 21 45  1  0
 22 46  1  0
 25 47  1  0
 29 48  1  0
 29 49  1  0
 30 50  1  0
 30 51  1  0
 31 52  1  0
 32 53  1  0
 32 54  1  0
 32 55  1  0
 33 56  1  0
 33 57  1  0
 33 58  1  0
M  CHG  3   6  -1  13  -1  27  -1
M  END
>  <UniqueID>  (86) 
80

>  <SMILES>  (86) 
Cc1c(C(=O)[N-]c2ccc(C(=O)[N-]c3ccccc3N)cc2)c(=O)cc([O-])n1CCC(C)C

>  <Energy>  (86) 
79.78769065393548

>  <Genealogy>  (86) 
Cc1c(C(=O)[N-]c2ccc(C(=O)[N-]c3ccccc3N)cc2)c(=O)cc([O-])n1CCC(C)C (protonated)
Cc1c(C(=O)[N-]c2ccc(C(=O)[N-]c3ccccc3N)cc2)c(=O)cc([O-])n1CCC(C)C (3D coordinates assigned)
Cc1c(C(=O)[N-]c2ccc(C(=O)[N-]c3ccccc3N)cc2)c(=O)cc([O-])n1CCC(C)C (optimized conformer: 79.78769065393548 kcal/mol)

>  <smiles>  (86) 
Cc1c(C(=O)Nc2ccc(C(=O)Nc3ccccc3N)cc2)c(=O)cc(O)n1CCC(C)C

>  <score_type>  (86) 
oracle

>  <origin>  (86) 
adg

>  <m_score__min__energy>  (86) 
-12.59

>  <m_primary>  (86) 
energy

$$$$
86:0
     RDKit          3D

 57 60  0  0  0  0  0  0  0  0999 V2000
   55.1660   27.0800   45.1620 H   0  0  0  0  0  0  0  0  0  0  0  0
   55.1430   26.4710   46.0100 N   0  0  0  0  0  0  0  0  0  0  0  0
   56.3480   25.9500   46.5680 C   0  0  0  0  0  0  0  0  0  0  0  0
   56.3160   24.8910   47.2490 O   0  0  0  0  0  0  0  0  0  0  0  0
   57.6620   26.6180   46.2910 C   0  0  0  0  0  0  0  0  0  0  0  0
   58.0651   26.2379   45.3407 H   0  0  0  0  0  0  0  0  0  0  0  0
   58.3497   26.3937   47.1197 H   0  0  0  0  0  0  0  0  0  0  0  0
   57.5050   28.0700   46.1970 N   0  0  0  0  0  0  0  0  0  0  0  0
   58.1730   28.9360   46.9000 C   0  0  0  0  0  0  0  0  0  0  0  0
   58.3660   30.2050   46.4480 N   0  0  0  0  0  0  0  0  0  0  0  0
   59.0490   31.1300   47.1780 C   0  0  0  0  0  0  0  0  0  0  0  0
   59.2140   32.5100   46.6490 C   0  0  0  0  0  0  0  0  0  0  0  0
   59.7140   33.5480   47.4650 C   0  0  0  0  0  0  0  0  0  0  0  0
   60.1040   33.2800   48.7840 O   0  0  0  0  0  0  0  0  0  0  0  0
   61.4120   32.9630   49.1660 C   0  0  0  0  0  0  0  0  0  0  0  0
   62.3850   32.8670   48.1680 C   0  0  0  0  0  0  0  0  0  0  0  0
   62.1058   33.0344   47.1173 H   0  0  0  0  0  0  0  0  0  0  0  0
   63.7070   32.5610   48.4910 C   0  0  0  0  0  0  0  0  0  0  0  0
   64.4606   32.4860   47.6932 H   0  0  0  0  0  0  0  0  0  0  0  0
   64.0830   32.3480   49.8270 C   0  0  0  0  0  0  0  0  0  0  0  0
   65.4890   32.0110   50.1570 C   0  0  0  0  0  0  0  0  0  0  0  0
   66.4240   32.7070   49.6730 O   0  0  0  0  0  0  0  0  0  0  0  0
   65.8030   30.9120   51.0280 N   0  0  0  0  0  0  0  0  0  0  0  0
   65.0610   30.5080   51.6420 H   0  0  0  0  0  0  0  0  0  0  0  0
   67.1480   30.3480   51.1160 C   0  0  0  0  0  0  0  0  0  0  0  0
   67.7713   30.7654   50.3114 H   0  0  0  0  0  0  0  0  0  0  0  0
   67.5824   30.6015   52.0943 H   0  0  0  0  0  0  0  0  0  0  0  0
   67.0890   28.8520   50.9750 C   0  0  0  0  0  0  0  0  0  0  0  0
   67.9890   28.1910   50.1220 C   0  0  0  0  0  0  0  0  0  0  0  0
   68.7132   28.7724   49.5325 H   0  0  0  0  0  0  0  0  0  0  0  0
   67.9670   26.7960   50.0200 C   0  0  0  0  0  0  0  0  0  0  0  0
   68.6713   26.2829   49.3487 H   0  0  0  0  0  0  0  0  0  0  0  0
   67.0500   26.0530   50.7710 C   0  0  0  0  0  0  0  0  0  0  0  0
   67.0339   24.9561   50.6895 H   0  0  0  0  0  0  0  0  0  0  0  0
   66.1540   26.7030   51.6250 C   0  0  0  0  0  0  0  0  0  0  0  0
   65.4328   26.1173   52.2140 H   0  0  0  0  0  0  0  0  0  0  0  0
   66.1740   28.0980   51.7310 C   0  0  0  0  0  0  0  0  0  0  0  0
   65.4717   28.6065   52.4079 H   0  0  0  0  0  0  0  0  0  0  0  0
   63.0980   32.4060   50.8290 C   0  0  0  0  0  0  0  0  0  0  0  0
   63.3788   32.2242   51.8769 H   0  0  0  0  0  0  0  0  0  0  0  0
   61.7600   32.6930   50.5100 C   0  0  0  0  0  0  0  0  0  0  0  0
   60.7330   32.6970   51.6100 C   0  0  0  0  0  0  0  0  0  0  0  0
   61.2408   32.6950   52.5858 H   0  0  0  0  0  0  0  0  0  0  0  0
   60.1072   33.5976   51.5241 H   0  0  0  0  0  0  0  0  0  0  0  0
   60.1003   31.8013   51.5241 H   0  0  0  0  0  0  0  0  0  0  0  0
   59.8480   34.8070   46.9570 N   0  0  0  0  0  0  0  0  0  0  0  0
   59.4990   35.1120   45.6820 C   0  0  0  0  0  0  0  0  0  0  0  0
   59.6200   36.1397   45.3090 H   0  0  0  0  0  0  0  0  0  0  0  0
   58.9870   34.1220   44.8450 C   0  0  0  0  0  0  0  0  0  0  0  0
   58.6988   34.3644   43.8115 H   0  0  0  0  0  0  0  0  0  0  0  0
   58.8430   32.8220   45.3280 C   0  0  0  0  0  0  0  0  0  0  0  0
   58.4375   32.0366   44.6733 H   0  0  0  0  0  0  0  0  0  0  0  0
   59.5650   30.7560   48.4290 C   0  0  0  0  0  0  0  0  0  0  0  0
   60.1168   31.4800   49.0466 H   0  0  0  0  0  0  0  0  0  0  0  0
   59.3650   29.4500   48.8740 C   0  0  0  0  0  0  0  0  0  0  0  0
   59.7670   29.1336   49.8478 H   0  0  0  0  0  0  0  0  0  0  0  0
   58.6750   28.5690   48.1070 N   0  0  0  0  0  0  0  0  0  0  0  0
  1  2  1  0
  2  3  1  0
  3  4  2  0
  3  5  1  0
  5  6  1  0
  5  7  1  0
  5  8  1  0
  8  9  2  0
  9 10  1  0
 10 11  2  0
 11 12  1  0
 12 13  1  0
 13 14  1  0
 14 15  1  0
 15 16  2  0
 16 17  1  0
 16 18  1  0
 18 19  1  0
 18 20  2  0
 20 21  1  0
 21 22  2  0
 21 23  1  0
 23 24  1  0
 23 25  1  0
 25 26  1  0
 25 27  1  0
 25 28  1  0
 28 29  2  0
 29 30  1  0
 29 31  1  0
 31 32  1  0
 31 33  2  0
 33 34  1  0
 33 35  1  0
 35 36  1  0
 35 37  2  0
 37 38  1  0
 20 39  1  0
 39 40  1  0
 39 41  2  0
 41 42  1  0
 42 43  1  0
 42 44  1  0
 42 45  1  0
 13 46  2  0
 46 47  1  0
 47 48  1  0
 47 49  2  0
 49 50  1  0
 49 51  1  0
 51 52  1  0
 11 53  1  0
 53 54  1  0
 53 55  2  0
 55 56  1  0
 55 57  1  0
 57  9  1  0
 51 12  2  0
 41 15  1  0
 37 28  1  0
M  CHG  2   2  -1  57  -1
M  END
>  <UniqueID>  (87) 
81

>  <SMILES>  (87) 
Cc1cc(C(=O)NCc2ccccc2)ccc1Oc1ncccc1-c1cc[n-]/c(=N/CC([NH-])=O)n1

>  <Energy>  (87) 
71.2485005463975

>  <Genealogy>  (87) 
Cc1cc(C(=O)NCc2ccccc2)ccc1Oc1ncccc1-c1cc[n-]c(=NCC([NH-])=O)n1 (protonated)
Cc1cc(C(=O)NCc2ccccc2)ccc1Oc1ncccc1-c1cc[n-]/c(=N/CC([NH-])=O)n1 (cis-trans isomerization)
Cc1cc(C(=O)NCc2ccccc2)ccc1Oc1ncccc1-c1cc[n-]/c(=N/CC([NH-])=O)n1 (3D coordinates assigned)
Cc1cc(C(=O)NCc2ccccc2)ccc1Oc1ncccc1-c1cc[n-]/c(=N/CC([NH-])=O)n1 (optimized conformer: 71.2485005463975 kcal/mol)

>  <smiles>  (87) 
Cc1cc(C(=O)NCc2ccccc2)ccc1Oc1ncccc1-c1cc[nH]c(=NCC(N)=O)n1

>  <score_type>  (87) 
oracle

>  <origin>  (87) 
adg

>  <m_score__min__energy>  (87) 
-13.710000000000001

>  <m_primary>  (87) 
energy

$$$$
87:0
     RDKit          3D

 46 49  0  0  0  0  0  0  0  0999 V2000
   60.2170   30.6730   46.4310 H   0  0  0  0  0  0  0  0  0  0  0  0
   60.6870   30.4170   47.2900 O   0  0  0  0  0  0  0  0  0  0  0  0
   61.6340   31.2320   47.9130 C   0  0  0  0  0  0  0  0  0  0  0  0
   62.5030   31.9770   47.1060 C   0  0  0  0  0  0  0  0  0  0  0  0
   62.4340   31.8972   46.0111 H   0  0  0  0  0  0  0  0  0  0  0  0
   63.4560   32.8200   47.6800 C   0  0  0  0  0  0  0  0  0  0  0  0
   64.1296   33.4060   47.0374 H   0  0  0  0  0  0  0  0  0  0  0  0
   63.5550   32.9200   49.0680 C   0  0  0  0  0  0  0  0  0  0  0  0
   64.3069   33.5844   49.5188 H   0  0  0  0  0  0  0  0  0  0  0  0
   62.7000   32.1770   49.8860 C   0  0  0  0  0  0  0  0  0  0  0  0
   62.7903   32.2505   50.9798 H   0  0  0  0  0  0  0  0  0  0  0  0
   61.7250   31.3360   49.3210 C   0  0  0  0  0  0  0  0  0  0  0  0
   60.8610   30.5180   50.2000 C   0  0  0  0  0  0  0  0  0  0  0  0
   61.3325   29.7395   50.8178 H   0  0  0  0  0  0  0  0  0  0  0  0
   59.1180   33.0240   49.4490 C   0  0  0  0  0  0  0  0  0  0  0  0
   58.8050   31.9160   50.1450 C   0  0  0  0  0  0  0  0  0  0  0  0
   59.5280   30.6780   50.2820 C   0  0  0  0  0  0  0  0  0  0  0  0
   59.7001   33.8002   49.9674 H   0  0  0  0  0  0  0  0  0  0  0  0
   58.7430   33.2800   48.0480 C   0  0  0  0  0  0  0  0  0  0  0  0
   58.1900   32.3510   47.1900 C   0  0  0  0  0  0  0  0  0  0  0  0
   57.8739   31.3270   47.4379 H   0  0  0  0  0  0  0  0  0  0  0  0
   58.1140   32.9700   45.9540 C   0  0  0  0  0  0  0  0  0  0  0  0
   57.5520   32.3840   44.7200 C   0  0  0  0  0  0  0  0  0  0  0  0
   57.6400   33.0280   43.6420 O   0  0  0  0  0  0  0  0  0  0  0  0
   56.8470   31.1330   44.7220 N   0  0  0  0  0  0  0  0  0  0  0  0
   57.3610   29.9710   45.0060 C   0  0  0  0  0  0  0  0  0  0  0  0
   58.7070   29.8200   45.1740 N   0  0  0  0  0  0  0  0  0  0  0  0
   59.2680   28.6140   45.4540 C   0  0  0  0  0  0  0  0  0  0  0  0
   60.3566   28.5322   45.5892 H   0  0  0  0  0  0  0  0  0  0  0  0
   58.4640   27.4800   45.5700 C   0  0  0  0  0  0  0  0  0  0  0  0
   58.9119   26.5020   45.8000 H   0  0  0  0  0  0  0  0  0  0  0  0
   57.0850   27.6000   45.3910 C   0  0  0  0  0  0  0  0  0  0  0  0
   56.4392   26.7136   45.4765 H   0  0  0  0  0  0  0  0  0  0  0  0
   56.5260   28.8480   45.1030 C   0  0  0  0  0  0  0  0  0  0  0  0
   55.1520   28.9660   44.9220 O   0  0  0  0  0  0  0  0  0  0  0  0
   58.6020   34.2240   46.0300 N   0  0  0  0  0  0  0  0  0  0  0  0
   58.6770   34.9160   45.2520 H   0  0  0  0  0  0  0  0  0  0  0  0
   59.0060   34.4130   47.2990 C   0  0  0  0  0  0  0  0  0  0  0  0
   59.4751   35.3307   47.6835 H   0  0  0  0  0  0  0  0  0  0  0  0
   57.5430   31.7610   50.9010 C   0  0  0  0  0  0  0  0  0  0  0  0
   57.5633   32.4052   51.7924 H   0  0  0  0  0  0  0  0  0  0  0  0
   56.6892   32.0516   50.2713 H   0  0  0  0  0  0  0  0  0  0  0  0
   57.4160   30.4060   51.2940 O   0  0  0  0  0  0  0  0  0  0  0  0
   58.5820   29.7080   50.8930 C   0  0  0  0  0  0  0  0  0  0  0  0
   59.0503   29.2348   51.7686 H   0  0  0  0  0  0  0  0  0  0  0  0
   58.3207   28.9272   50.1636 H   0  0  0  0  0  0  0  0  0  0  0  0
  1  2  1  0
  2  3  1  0
  3  4  2  0
  4  5  1  0
  4  6  1  0
  6  7  1  0
  6  8  2  0
  8  9  1  0
  8 10  1  0
 10 11  1  0
 10 12  2  0
 12 13  1  0
 13 14  1  0
 13 15  2  0
 15 16  1  0
 16 17  2  0
 17 18  1  0
 17 19  1  0
 19 20  1  0
 20 21  1  0
 20 22  2  0
 22 23  1  0
 23 24  2  0
 23 25  1  0
 25 26  2  0
 26 27  1  0
 27 28  1  0
 28 29  1  0
 28 30  2  0
 30 31  1  0
 30 32  1  0
 32 33  1  0
 32 34  2  0
 34 35  1  0
 22 36  1  0
 36 37  1  0
 36 38  1  0
 38 39  1  0
 16 40  1  0
 40 41  1  0
 40 42  1  0
 40 43  1  0
 43 44  1  0
 44 45  1  0
 44 46  1  0
 12  3  1  0
 44 15  1  0
 38 19  2  0
 34 26  1  0
M  CHG  2  27  -1  35  -1
M  END
>  <UniqueID>  (88) 
82

>  <SMILES>  (88) 
O=C(/N=c1\[n-]cccc1[O-])c1cc(C=C2COC/C2=C\c2ccccc2O)c[nH]1

>  <Energy>  (88) 
106.08110315495728

>  <Genealogy>  (88) 
O=C(N=c1[n-]cccc1[O-])c1cc(C=C2COCC2=Cc2ccccc2O)c[nH]1 (protonated)
O=C(/N=c1\[n-]cccc1[O-])c1cc(C=C2COC/C2=C\c2ccccc2O)c[nH]1 (cis-trans isomerization)
O=C(/N=c1\[n-]cccc1[O-])c1cc(C=C2COC/C2=C\c2ccccc2O)c[nH]1 (3D coordinates assigned)
O=C(/N=c1\[n-]cccc1[O-])c1cc(C=C2COC/C2=C\c2ccccc2O)c[nH]1 (nonaromatic ring conformer: 106.08110315495728 kcal/mol)

>  <smiles>  (88) 
O=C(N=c1[nH]cccc1O)c1cc(C=C2COCC2=Cc2ccccc2O)c[nH]1

>  <score_type>  (88) 
oracle

>  <origin>  (88) 
adg

>  <m_score__min__energy>  (88) 
-14.279999999999999

>  <m_primary>  (88) 
energy

$$$$
88:0
     RDKit          3D

 49 51  0  0  0  0  0  0  0  0999 V2000
   57.1012   20.8701   43.1337 H   0  0  0  0  0  0  0  0  0  0  0  0
   56.3830   21.0160   43.9540 C   0  0  0  0  0  0  0  0  0  0  0  0
   55.8810   22.2550   44.2060 N   0  0  0  0  0  0  0  0  0  0  0  0
   54.9820   22.4800   45.2070 C   0  0  0  0  0  0  0  0  0  0  0  0
   54.5290   23.6760   45.4530 N   0  0  0  0  0  0  0  0  0  0  0  0
   55.3100   24.8760   45.5480 C   0  0  0  0  0  0  0  0  0  0  0  0
   54.7540   25.9230   45.9730 O   0  0  0  0  0  0  0  0  0  0  0  0
   56.6890   24.9010   45.1320 N   0  0  0  0  0  0  0  0  0  0  0  0
   57.1200   24.0230   44.7670 H   0  0  0  0  0  0  0  0  0  0  0  0
   57.5470   26.0470   45.2590 C   0  0  0  0  0  0  0  0  0  0  0  0
   57.9320   26.5420   46.5170 C   0  0  0  0  0  0  0  0  0  0  0  0
   57.5878   26.0375   47.4319 H   0  0  0  0  0  0  0  0  0  0  0  0
   58.7500   27.6720   46.6120 C   0  0  0  0  0  0  0  0  0  0  0  0
   59.0527   28.0466   47.6009 H   0  0  0  0  0  0  0  0  0  0  0  0
   59.1870   28.3310   45.4520 C   0  0  0  0  0  0  0  0  0  0  0  0
   60.0840   29.5480   45.5540 C   0  0  0  0  0  0  0  0  0  0  0  0
   59.7770   30.2711   44.7841 H   0  0  0  0  0  0  0  0  0  0  0  0
   61.1174   29.1983   45.4133 H   0  0  0  0  0  0  0  0  0  0  0  0
   60.0300   30.2190   46.8740 N   0  0  0  0  0  0  0  0  0  0  0  0
   61.1230   31.1940   47.0470 C   0  0  0  0  0  0  0  0  0  0  0  0
   61.3040   31.3554   48.1199 H   0  0  0  0  0  0  0  0  0  0  0  0
   62.0380   30.8067   46.5750 H   0  0  0  0  0  0  0  0  0  0  0  0
   60.8423   32.1471   46.5750 H   0  0  0  0  0  0  0  0  0  0  0  0
   58.7090   30.8220   47.1490 C   0  0  0  0  0  0  0  0  0  0  0  0
   57.9226   30.0919   46.9073 H   0  0  0  0  0  0  0  0  0  0  0  0
   58.6635   31.0980   48.2128 H   0  0  0  0  0  0  0  0  0  0  0  0
   58.5000   32.0700   46.3160 C   0  0  0  0  0  0  0  0  0  0  0  0
   59.0390   33.2810   46.7910 C   0  0  0  0  0  0  0  0  0  0  0  0
   59.6334   33.2839   47.7166 H   0  0  0  0  0  0  0  0  0  0  0  0
   58.8300   34.4760   46.1050 C   0  0  0  0  0  0  0  0  0  0  0  0
   59.2619   35.4123   46.4882 H   0  0  0  0  0  0  0  0  0  0  0  0
   58.0750   34.4860   44.9350 C   0  0  0  0  0  0  0  0  0  0  0  0
   57.9074   35.4309   44.3974 H   0  0  0  0  0  0  0  0  0  0  0  0
   57.5310   33.2990   44.4440 C   0  0  0  0  0  0  0  0  0  0  0  0
   56.9309   33.3182   43.5223 H   0  0  0  0  0  0  0  0  0  0  0  0
   57.7390   32.0770   45.1110 C   0  0  0  0  0  0  0  0  0  0  0  0
   57.1390   30.8510   44.5230 C   0  0  0  0  0  0  0  0  0  0  0  0
   56.4330   30.0910   45.2370 O   0  0  0  0  0  0  0  0  0  0  0  0
   57.3030   30.5400   43.1800 O   0  0  0  0  0  0  0  0  0  0  0  0
   58.7750   27.8570   44.1970 C   0  0  0  0  0  0  0  0  0  0  0  0
   59.0979   28.3761   43.2825 H   0  0  0  0  0  0  0  0  0  0  0  0
   57.9560   26.7280   44.1040 C   0  0  0  0  0  0  0  0  0  0  0  0
   57.6297   26.3709   43.1161 H   0  0  0  0  0  0  0  0  0  0  0  0
   54.5730   21.4140   46.0180 C   0  0  0  0  0  0  0  0  0  0  0  0
   53.8611   21.5833   46.8393 H   0  0  0  0  0  0  0  0  0  0  0  0
   55.0770   20.1330   45.7750 C   0  0  0  0  0  0  0  0  0  0  0  0
   54.7573   19.2869   46.4010 H   0  0  0  0  0  0  0  0  0  0  0  0
   55.9870   19.9300   44.7360 C   0  0  0  0  0  0  0  0  0  0  0  0
   56.3875   18.9252   44.5359 H   0  0  0  0  0  0  0  0  0  0  0  0
  1  2  1  0
  2  3  1  0
  3  4  1  0
  4  5  2  0
  5  6  1  0
  6  7  2  0
  6  8  1  0
  8  9  1  0
  8 10  1  0
 10 11  2  0
 11 12  1  0
 11 13  1  0
 13 14  1  0
 13 15  2  0
 15 16  1  0
 16 17  1  0
 16 18  1  0
 16 19  1  0
 19 20  1  0
 20 21  1  0
 20 22  1  0
 20 23  1  0
 19 24  1  0
 24 25  1  0
 24 26  1  0
 24 27  1  0
 27 28  2  0
 28 29  1  0
 28 30  1  0
 30 31  1  0
 30 32  2  0
 32 33  1  0
 32 34  1  0
 34 35  1  0
 34 36  2  0
 36 37  1  0
 37 38  2  0
 37 39  1  0
 15 40  1  0
 40 41  1  0
 40 42  2  0
 42 43  1  0
  4 44  1  0
 44 45  1  0
 44 46  2  0
 46 47  1  0
 46 48  1  0
 48 49  1  0
 48  2  2  0
 42 10  1  0
 36 27  1  0
M  CHG  2   3  -1  39  -1
M  END
>  <UniqueID>  (89) 
83

>  <SMILES>  (89) 
CN(Cc1ccc(NC(=O)/N=c2/cccc[n-]2)cc1)Cc1ccccc1C(=O)[O-]

>  <Energy>  (89) 
69.85154237678924

>  <Genealogy>  (89) 
CN(Cc1ccc(NC(=O)N=c2cccc[n-]2)cc1)Cc1ccccc1C(=O)[O-] (protonated)
CN(Cc1ccc(NC(=O)/N=c2/cccc[n-]2)cc1)Cc1ccccc1C(=O)[O-] (cis-trans isomerization)
CN(Cc1ccc(NC(=O)/N=c2/cccc[n-]2)cc1)Cc1ccccc1C(=O)[O-] (3D coordinates assigned)
CN(Cc1ccc(NC(=O)/N=c2/cccc[n-]2)cc1)Cc1ccccc1C(=O)[O-] (optimized conformer: 69.85154237678924 kcal/mol)

>  <smiles>  (89) 
CN(Cc1ccc(NC(=O)N=c2cccc[nH]2)cc1)Cc1ccccc1C(=O)O

>  <score_type>  (89) 
oracle

>  <origin>  (89) 
adg

>  <m_score__min__energy>  (89) 
-11.460000000000001

>  <m_primary>  (89) 
energy

$$$$
89:0
     RDKit          3D

 34 35  0  0  0  0  0  0  0  0999 V2000
   59.3580   25.6450   45.8180 H   0  0  0  0  0  0  0  0  0  0  0  0
   58.9670   24.8390   45.3470 O   0  0  0  0  0  0  0  0  0  0  0  0
   57.5960   24.5650   45.3170 C   0  0  0  0  0  0  0  0  0  0  0  0
   57.1230   23.2880   44.9680 C   0  0  0  0  0  0  0  0  0  0  0  0
   58.2230   21.9820   44.5440 Cl  0  0  0  0  0  0  0  0  0  0  0  0
   55.7520   23.0260   44.9630 C   0  0  0  0  0  0  0  0  0  0  0  0
   55.3944   22.0203   44.6972 H   0  0  0  0  0  0  0  0  0  0  0  0
   54.8210   24.0260   45.2920 C   0  0  0  0  0  0  0  0  0  0  0  0
   53.3620   23.7210   45.2810 C   0  0  0  0  0  0  0  0  0  0  0  0
   52.9550   22.5670   45.5840 O   0  0  0  0  0  0  0  0  0  0  0  0
   52.3450   24.7460   44.8740 C   0  0  0  0  0  0  0  0  0  0  0  0
   51.8983   25.1963   45.7727 H   0  0  0  0  0  0  0  0  0  0  0  0
   52.8331   25.5293   44.2754 H   0  0  0  0  0  0  0  0  0  0  0  0
   51.5579   24.2641   44.2754 H   0  0  0  0  0  0  0  0  0  0  0  0
   55.2950   25.3130   45.6270 C   0  0  0  0  0  0  0  0  0  0  0  0
   54.3920   26.3400   45.8920 O   0  0  0  0  0  0  0  0  0  0  0  0
   56.6810   25.5810   45.6560 C   0  0  0  0  0  0  0  0  0  0  0  0
   57.1800   26.9290   46.0200 C   0  0  0  0  0  0  0  0  0  0  0  0
   58.0280   27.0450   46.9460 O   0  0  0  0  0  0  0  0  0  0  0  0
   56.6680   28.1320   45.3290 C   0  0  0  0  0  0  0  0  0  0  0  0
   55.9509   28.0054   44.5045 H   0  0  0  0  0  0  0  0  0  0  0  0
   57.0470   29.3720   45.6720 C   0  0  0  0  0  0  0  0  0  0  0  0
   57.1931   29.6010   46.7379 H   0  0  0  0  0  0  0  0  0  0  0  0
   57.2780   30.4490   44.6770 C   0  0  0  0  0  0  0  0  0  0  0  0
   56.9310   30.2600   43.3240 C   0  0  0  0  0  0  0  0  0  0  0  0
   56.4705   29.3127   43.0069 H   0  0  0  0  0  0  0  0  0  0  0  0
   57.1660   31.2630   42.3830 C   0  0  0  0  0  0  0  0  0  0  0  0
   56.8836   31.1064   41.3315 H   0  0  0  0  0  0  0  0  0  0  0  0
   57.7580   32.4630   42.7730 C   0  0  0  0  0  0  0  0  0  0  0  0
   57.9396   33.2512   42.0275 H   0  0  0  0  0  0  0  0  0  0  0  0
   58.1220   32.6700   44.1060 C   0  0  0  0  0  0  0  0  0  0  0  0
   58.8670   34.2020   44.5450 Cl  0  0  0  0  0  0  0  0  0  0  0  0
   57.8880   31.6650   45.0650 C   0  0  0  0  0  0  0  0  0  0  0  0
   58.3330   31.9570   46.7500 Cl  0  0  0  0  0  0  0  0  0  0  0  0
  1  2  1  0
  2  3  1  0
  3  4  2  0
  4  5  1  0
  4  6  1  0
  6  7  1  0
  6  8  2  0
  8  9  1  0
  9 10  2  0
  9 11  1  0
 11 12  1  0
 11 13  1  0
 11 14  1  0
  8 15  1  0
 15 16  1  0
 15 17  2  0
 17 18  1  0
 18 19  2  0
 18 20  1  0
 20 21  1  0
 20 22  2  0
 22 23  1  0
 22 24  1  0
 24 25  2  0
 25 26  1  0
 25 27  1  0
 27 28  1  0
 27 29  2  0
 29 30  1  0
 29 31  1  0
 31 32  1  0
 31 33  2  0
 33 34  1  0
 17  3  1  0
 33 24  1  0
M  CHG  1  16  -1
M  END
>  <UniqueID>  (90) 
84

>  <SMILES>  (90) 
CC(=O)c1cc(Cl)c(O)c(C(=O)/C=C/c2cccc(Cl)c2Cl)c1[O-]

>  <Energy>  (90) 
49.26044291493436

>  <Genealogy>  (90) 
CC(=O)c1cc(Cl)c(O)c(C(=O)C=Cc2cccc(Cl)c2Cl)c1[O-] (protonated)
CC(=O)c1cc(Cl)c(O)c(C(=O)/C=C/c2cccc(Cl)c2Cl)c1[O-] (cis-trans isomerization)
CC(=O)c1cc(Cl)c(O)c(C(=O)/C=C/c2cccc(Cl)c2Cl)c1[O-] (3D coordinates assigned)
CC(=O)c1cc(Cl)c(O)c(C(=O)/C=C/c2cccc(Cl)c2Cl)c1[O-] (optimized conformer: 49.26044291493436 kcal/mol)

>  <smiles>  (90) 
CC(=O)c1cc(Cl)c(O)c(C(=O)C=Cc2cccc(Cl)c2Cl)c1O

>  <score_type>  (90) 
oracle

>  <origin>  (90) 
adg

>  <m_score__min__energy>  (90) 
-11.44

>  <m_primary>  (90) 
energy

$$$$
90:0
     RDKit          3D

 52 54  0  0  0  0  0  0  0  0999 V2000
   59.2240   27.7730   47.8010 C   0  0  0  0  0  0  0  0  0  0  0  0
   59.9420   29.0830   47.9090 C   0  0  0  0  0  0  0  0  0  0  0  0
   60.3240   29.7800   46.7520 C   0  0  0  0  0  0  0  0  0  0  0  0
   61.0320   30.9800   46.8540 C   0  0  0  0  0  0  0  0  0  0  0  0
   61.3680   31.4990   48.1140 C   0  0  0  0  0  0  0  0  0  0  0  0
   62.1550   32.7770   48.2140 C   0  0  0  0  0  0  0  0  0  0  0  0
   61.4320   33.7570   49.0190 N   0  0  0  0  0  0  0  0  0  0  0  0
   60.0560   34.0950   48.8140 C   0  0  0  0  0  0  0  0  0  0  0  0
   59.2970   34.2570   49.8080 O   0  0  0  0  0  0  0  0  0  0  0  0
   59.5220   34.2450   47.4400 C   0  0  0  0  0  0  0  0  0  0  0  0
   59.9790   35.2790   46.6020 C   0  0  0  0  0  0  0  0  0  0  0  0
   59.4870   35.4060   45.3010 C   0  0  0  0  0  0  0  0  0  0  0  0
   58.5330   34.5080   44.8200 C   0  0  0  0  0  0  0  0  0  0  0  0
   58.0560   33.4750   45.6430 C   0  0  0  0  0  0  0  0  0  0  0  0
   57.0170   32.5180   45.1240 C   0  0  0  0  0  0  0  0  0  0  0  0
   57.5910   31.1790   44.9930 N   0  0  0  0  0  0  0  0  0  0  0  0
   56.7920   30.0010   44.8010 C   0  0  0  0  0  0  0  0  0  0  0  0
   55.5460   30.1010   44.6390 O   0  0  0  0  0  0  0  0  0  0  0  0
   57.3990   28.6610   44.7820 C   0  0  0  0  0  0  0  0  0  0  0  0
   58.5520   28.2770   44.1170 C   0  0  0  0  0  0  0  0  0  0  0  0
   58.7240   26.9410   44.4030 C   0  0  0  0  0  0  0  0  0  0  0  0
   57.6670   26.5940   45.2210 C   0  0  0  0  0  0  0  0  0  0  0  0
   57.4370   25.2490   45.8320 C   0  0  0  0  0  0  0  0  0  0  0  0
   55.6960   24.8700   45.8490 S   0  0  0  0  0  0  0  0  0  0  0  0
   54.7740   26.3250   45.9990 N   0  0  0  0  0  0  0  0  0  0  0  0
   55.3290   24.1790   44.5680 O   0  0  0  0  0  0  0  0  0  0  0  0
   55.3860   23.9650   47.0070 O   0  0  0  0  0  0  0  0  0  0  0  0
   56.8980   27.6350   45.4320 O   0  0  0  0  0  0  0  0  0  0  0  0
   58.5510   33.3490   46.9530 C   0  0  0  0  0  0  0  0  0  0  0  0
   61.0080   30.7900   49.2690 C   0  0  0  0  0  0  0  0  0  0  0  0
   60.3050   29.5880   49.1670 C   0  0  0  0  0  0  0  0  0  0  0  0
   59.0123   27.3867   48.8090 H   0  0  0  0  0  0  0  0  0  0  0  0
   58.2786   27.9168   47.2574 H   0  0  0  0  0  0  0  0  0  0  0  0
   59.8538   27.0534   47.2574 H   0  0  0  0  0  0  0  0  0  0  0  0
   60.0648   29.3796   45.7608 H   0  0  0  0  0  0  0  0  0  0  0  0
   61.3275   31.5205   45.9427 H   0  0  0  0  0  0  0  0  0  0  0  0
   63.1274   32.5682   48.6839 H   0  0  0  0  0  0  0  0  0  0  0  0
   62.3039   33.1849   47.2033 H   0  0  0  0  0  0  0  0  0  0  0  0
   60.7291   35.9923   46.9742 H   0  0  0  0  0  0  0  0  0  0  0  0
   59.8526   36.2165   44.6533 H   0  0  0  0  0  0  0  0  0  0  0  0
   58.1534   34.6098   43.7926 H   0  0  0  0  0  0  0  0  0  0  0  0
   56.1702   32.4843   45.8253 H   0  0  0  0  0  0  0  0  0  0  0  0
   56.6712   32.8607   44.1376 H   0  0  0  0  0  0  0  0  0  0  0  0
   58.6280   31.0960   45.0590 H   0  0  0  0  0  0  0  0  0  0  0  0
   59.1974   28.9093   43.4895 H   0  0  0  0  0  0  0  0  0  0  0  0
   59.5352   26.2860   44.0525 H   0  0  0  0  0  0  0  0  0  0  0  0
   57.9690   24.4869   45.2436 H   0  0  0  0  0  0  0  0  0  0  0  0
   57.8129   25.2555   46.8658 H   0  0  0  0  0  0  0  0  0  0  0  0
   55.1410   26.9970   45.2900 H   0  0  0  0  0  0  0  0  0  0  0  0
   58.1767   32.5441   47.6026 H   0  0  0  0  0  0  0  0  0  0  0  0
   61.2806   31.1825   50.2597 H   0  0  0  0  0  0  0  0  0  0  0  0
   60.0342   29.0338   50.0778 H   0  0  0  0  0  0  0  0  0  0  0  0
  1  2  1  0
  2  3  2  0
  3  4  1  0
  4  5  2  0
  5  6  1  0
  6  7  1  0
  7  8  1  0
  8  9  2  0
  8 10  1  0
 10 11  2  0
 11 12  1  0
 12 13  2  0
 13 14  1  0
 14 15  1  0
 15 16  1  0
 16 17  1  0
 17 18  2  0
 17 19  1  0
 19 20  2  0
 20 21  1  0
 21 22  2  0
 22 23  1  0
 23 24  1  0
 24 25  1  0
 24 26  2  0
 24 27  2  0
 22 28  1  0
 14 29  2  0
  5 30  1  0
 30 31  2  0
 31  2  1  0
 29 10  1  0
 28 19  1  0
  1 32  1  0
  1 33  1  0
  1 34  1  0
  3 35  1  0
  4 36  1  0
  6 37  1  0
  6 38  1  0
 11 39  1  0
 12 40  1  0
 13 41  1  0
 15 42  1  0
 15 43  1  0
 16 44  1  0
 20 45  1  0
 21 46  1  0
 23 47  1  0
 23 48  1  0
 25 49  1  0
 29 50  1  0
 30 51  1  0
 31 52  1  0
M  CHG  2   7  -1  25  -1
M  END
>  <UniqueID>  (91) 
85

>  <SMILES>  (91) 
Cc1ccc(C[N-]C(=O)c2cccc(CNC(=O)c3ccc(CS([NH-])(=O)=O)o3)c2)cc1

>  <Energy>  (91) 
69.60052996425063

>  <Genealogy>  (91) 
Cc1ccc(C[N-]C(=O)c2cccc(CNC(=O)c3ccc(CS([NH-])(=O)=O)o3)c2)cc1 (protonated)
Cc1ccc(C[N-]C(=O)c2cccc(CNC(=O)c3ccc(CS([NH-])(=O)=O)o3)c2)cc1 (3D coordinates assigned)
Cc1ccc(C[N-]C(=O)c2cccc(CNC(=O)c3ccc(CS([NH-])(=O)=O)o3)c2)cc1 (optimized conformer: 69.60052996425063 kcal/mol)

>  <smiles>  (91) 
Cc1ccc(CNC(=O)c2cccc(CNC(=O)c3ccc(CS(N)(=O)=O)o3)c2)cc1

>  <score_type>  (91) 
oracle

>  <origin>  (91) 
adg

>  <m_score__min__energy>  (91) 
-13.56

>  <m_primary>  (91) 
energy

$$$$
91:0
     RDKit          3D

 40 41  0  0  0  0  0  0  0  0999 V2000
   56.8420   34.5750   44.8640 C   0  0  0  0  0  0  0  0  0  0  0  0
   56.6520   33.1200   45.2710 C   0  0  0  0  0  0  0  0  0  0  0  0
   57.9170   32.5540   45.7380 N   0  0  0  0  0  0  0  0  0  0  0  0
   58.9340   33.2260   46.3030 C   0  0  0  0  0  0  0  0  0  0  0  0
   59.9570   32.3260   46.5350 C   0  0  0  0  0  0  0  0  0  0  0  0
   61.2590   32.6390   47.1450 C   0  0  0  0  0  0  0  0  0  0  0  0
   61.4790   33.8000   47.5830 O   0  0  0  0  0  0  0  0  0  0  0  0
   62.2740   31.6300   47.2420 N   0  0  0  0  0  0  0  0  0  0  0  0
   63.5740   31.9080   47.8410 C   0  0  0  0  0  0  0  0  0  0  0  0
   59.5960   31.0970   46.1100 N   0  0  0  0  0  0  0  0  0  0  0  0
   58.3510   31.2810   45.6180 C   0  0  0  0  0  0  0  0  0  0  0  0
   57.6180   30.3290   45.1150 N   0  0  0  0  0  0  0  0  0  0  0  0
   57.5510   28.9660   45.5710 C   0  0  0  0  0  0  0  0  0  0  0  0
   58.7030   28.2660   45.9710 C   0  0  0  0  0  0  0  0  0  0  0  0
   58.6130   26.9300   46.3590 C   0  0  0  0  0  0  0  0  0  0  0  0
   57.3800   26.2790   46.3470 C   0  0  0  0  0  0  0  0  0  0  0  0
   56.2180   26.9510   45.9470 C   0  0  0  0  0  0  0  0  0  0  0  0
   54.9880   26.2090   45.9560 N   0  0  0  0  0  0  0  0  0  0  0  0
   54.7670   24.5150   45.6440 S   0  0  0  0  0  0  0  0  0  0  0  0
   55.8460   23.9800   44.3330 C   0  0  0  0  0  0  0  0  0  0  0  0
   53.3330   24.2320   45.2980 O   0  0  0  0  0  0  0  0  0  0  0  0
   55.1110   23.7530   46.8920 O   0  0  0  0  0  0  0  0  0  0  0  0
   56.3160   28.2970   45.5230 C   0  0  0  0  0  0  0  0  0  0  0  0
   55.2100   28.9800   45.0340 O   0  0  0  0  0  0  0  0  0  0  0  0
   56.9236   35.2002   45.7654 H   0  0  0  0  0  0  0  0  0  0  0  0
   57.7604   34.6716   44.2663 H   0  0  0  0  0  0  0  0  0  0  0  0
   55.9792   34.9042   44.2663 H   0  0  0  0  0  0  0  0  0  0  0  0
   55.9087   33.0636   46.0799 H   0  0  0  0  0  0  0  0  0  0  0  0
   56.3041   32.5471   44.3988 H   0  0  0  0  0  0  0  0  0  0  0  0
   58.9497   34.3003   46.5388 H   0  0  0  0  0  0  0  0  0  0  0  0
   62.0880   30.6690   46.8770 H   0  0  0  0  0  0  0  0  0  0  0  0
   63.4843   31.8888   48.9372 H   0  0  0  0  0  0  0  0  0  0  0  0
   64.2970   31.1442   47.5189 H   0  0  0  0  0  0  0  0  0  0  0  0
   63.9214   32.9007   47.5189 H   0  0  0  0  0  0  0  0  0  0  0  0
   59.6785   28.7742   45.9778 H   0  0  0  0  0  0  0  0  0  0  0  0
   59.5166   26.3883   46.6753 H   0  0  0  0  0  0  0  0  0  0  0  0
   57.3191   25.2249   46.6554 H   0  0  0  0  0  0  0  0  0  0  0  0
   56.7525   23.5305   44.7646 H   0  0  0  0  0  0  0  0  0  0  0  0
   55.3271   23.2348   43.7122 H   0  0  0  0  0  0  0  0  0  0  0  0
   56.1251   24.8441   43.7122 H   0  0  0  0  0  0  0  0  0  0  0  0
  1  2  1  0
  2  3  1  0
  3  4  1  0
  4  5  2  0
  5  6  1  0
  6  7  2  0
  6  8  1  0
  8  9  1  0
  5 10  1  0
 10 11  1  0
 11 12  2  3
 12 13  1  0
 13 14  2  0
 14 15  1  0
 15 16  2  0
 16 17  1  0
 17 18  1  0
 18 19  1  0
 19 20  1  0
 19 21  2  0
 19 22  2  0
 17 23  2  0
 23 24  1  0
 11  3  1  0
 23 13  1  0
  1 25  1  0
  1 26  1  0
  1 27  1  0
  2 28  1  0
  2 29  1  0
  4 30  1  0
  8 31  1  0
  9 32  1  0
  9 33  1  0
  9 34  1  0
 14 35  1  0
 15 36  1  0
 16 37  1  0
 20 38  1  0
 20 39  1  0
 20 40  1  0
M  CHG  3  10  -1  18  -1  24  -1
M  END
>  <UniqueID>  (92) 
86

>  <SMILES>  (92) 
CCn1cc(C(=O)NC)[n-]c1=Nc1cccc([N-]S(C)(=O)=O)c1[O-]

>  <Energy>  (92) 
71.82217530743235

>  <Genealogy>  (92) 
CCn1cc(C(=O)NC)[n-]c1=Nc1cccc([N-]S(C)(=O)=O)c1[O-] (protonated)
CCn1cc(C(=O)NC)[n-]c1=Nc1cccc([N-]S(C)(=O)=O)c1[O-] (3D coordinates assigned)
CCn1cc(C(=O)NC)[n-]c1=Nc1cccc([N-]S(C)(=O)=O)c1[O-] (optimized conformer: 71.82217530743235 kcal/mol)

>  <smiles>  (92) 
CCn1cc(C(=O)NC)[nH]c1=Nc1cccc(NS(C)(=O)=O)c1O

>  <score_type>  (92) 
oracle

>  <origin>  (92) 
adg

>  <m_score__min__energy>  (92) 
-14.75

>  <m_primary>  (92) 
energy

$$$$
92:0
     RDKit          3D

 26 26  0  0  0  0  0  0  0  0999 V2000
   58.4170   30.8510   46.5830 C   0  0  0  0  0  0  0  0  0  0  0  0
   58.2130   29.6740   45.6110 C   0  0  2  0  0  0  0  0  0  0  0  0
   57.1670   30.0630   44.5870 C   0  0  0  0  0  0  0  0  0  0  0  0
   55.9790   30.0540   44.8760 O   0  0  0  0  0  0  0  0  0  0  0  0
   57.7530   28.4490   46.3760 C   0  0  0  0  0  0  0  0  0  0  0  0
   57.8500   27.2250   45.8250 C   0  0  0  0  0  0  0  0  0  0  0  0
   57.4510   26.0000   46.6100 C   0  0  0  0  0  0  0  0  0  0  0  0
   55.9930   25.7190   46.4260 C   0  0  0  0  0  0  0  0  0  0  0  0
   55.5250   24.5850   46.7100 O   0  0  0  0  0  0  0  0  0  0  0  0
   55.1430   26.7240   45.9820 O   0  0  0  0  0  0  0  0  0  0  0  0
   58.3370   27.0980   44.4000 C   0  0  0  0  0  0  0  0  0  0  0  0
   59.5480   28.0110   44.1140 C   0  0  0  0  0  0  0  0  0  0  0  0
   59.5600   29.3410   44.9150 C   0  0  0  0  0  0  0  0  0  0  0  0
   58.3538   30.4863   47.6188 H   0  0  0  0  0  0  0  0  0  0  0  0
   59.4064   31.3003   46.4122 H   0  0  0  0  0  0  0  0  0  0  0  0
   57.6365   31.6071   46.4122 H   0  0  0  0  0  0  0  0  0  0  0  0
   57.4791   30.3564   43.5738 H   0  0  0  0  0  0  0  0  0  0  0  0
   57.3372   28.5612   47.3882 H   0  0  0  0  0  0  0  0  0  0  0  0
   58.0345   25.1368   46.2573 H   0  0  0  0  0  0  0  0  0  0  0  0
   57.6498   26.1778   47.6772 H   0  0  0  0  0  0  0  0  0  0  0  0
   58.6299   26.0535   44.2176 H   0  0  0  0  0  0  0  0  0  0  0  0
   57.5173   27.4061   43.7344 H   0  0  0  0  0  0  0  0  0  0  0  0
   60.4635   27.4536   44.3613 H   0  0  0  0  0  0  0  0  0  0  0  0
   59.4845   28.2883   43.0514 H   0  0  0  0  0  0  0  0  0  0  0  0
   60.3401   29.2720   45.6874 H   0  0  0  0  0  0  0  0  0  0  0  0
   59.7499   30.1462   44.1900 H   0  0  0  0  0  0  0  0  0  0  0  0
  2  1  1  1
  2  3  1  0
  3  4  2  0
  2  5  1  0
  5  6  2  0
  6  7  1  0
  7  8  1  0
  8  9  2  0
  8 10  1  0
  6 11  1  0
 11 12  1  0
 12 13  1  0
 13  2  1  0
  1 14  1  0
  1 15  1  0
  1 16  1  0
  3 17  1  0
  5 18  1  0
  7 19  1  0
  7 20  1  0
 11 21  1  0
 11 22  1  0
 12 23  1  0
 12 24  1  0
 13 25  1  0
 13 26  1  0
M  CHG  1  10  -1
M  END
>  <UniqueID>  (93) 
87

>  <SMILES>  (93) 
C[C@]1(C=O)C=C(CC(=O)[O-])CCC1

>  <Energy>  (93) 
22.46776585605038

>  <Genealogy>  (93) 
CC1(C=O)C=C(CC(=O)[O-])CCC1 (protonated)
C[C@]1(C=O)C=C(CC(=O)[O-])CCC1 (chirality)
C[C@]1(C=O)C=C(CC(=O)[O-])CCC1 (3D coordinates assigned)
C[C@]1(C=O)C=C(CC(=O)[O-])CCC1 (nonaromatic ring conformer: 22.46776585605038 kcal/mol)

>  <smiles>  (93) 
CC1(C=O)C=C(CC(=O)O)CCC1

>  <score_type>  (93) 
oracle

>  <origin>  (93) 
adg

>  <m_score__min__energy>  (93) 
-8.6600000000000001

>  <m_primary>  (93) 
energy

$$$$
93:0
     RDKit          3D

 25 25  0  0  0  0  0  0  0  0999 V2000
   56.3610   30.0730   44.8000 O   0  0  0  0  0  0  0  0  0  0  0  0
   57.5080   29.9580   45.3180 C   0  0  0  0  0  0  0  0  0  0  0  0
   57.9300   28.6350   45.5790 C   0  0  0  0  0  0  0  0  0  0  0  0
   56.9960   27.5820   45.2520 N   0  0  0  0  0  0  0  0  0  0  0  0
   57.1860   26.1820   45.6440 C   0  0  0  0  0  0  0  0  0  0  0  0
   55.9080   25.6110   46.2630 C   0  0  0  0  0  0  0  0  0  0  0  0
   54.8030   26.3940   45.9030 O   0  0  0  0  0  0  0  0  0  0  0  0
   59.1650   28.2270   46.0950 C   0  0  0  0  0  0  0  0  0  0  0  0
   60.2570   28.9790   46.4910 C   0  0  0  0  0  0  0  0  0  0  0  0
   60.4000   30.3520   46.4890 C   0  0  0  0  0  0  0  0  0  0  0  0
   59.4900   31.3120   46.0840 C   0  0  0  0  0  0  0  0  0  0  0  0
   58.2000   31.1680   45.5630 C   0  0  0  0  0  0  0  0  0  0  0  0
   57.5230   32.4030   45.2450 N   0  0  0  0  0  0  0  0  0  0  0  0
   57.3730   32.7600   44.0580 O   0  0  0  0  0  0  0  0  0  0  0  0
   56.9270   33.1450   46.2410 O   0  0  0  0  0  0  0  0  0  0  0  0
   56.0770   27.8360   44.8230 H   0  0  0  0  0  0  0  0  0  0  0  0
   57.4505   25.5915   44.7545 H   0  0  0  0  0  0  0  0  0  0  0  0
   57.9917   26.1320   46.3912 H   0  0  0  0  0  0  0  0  0  0  0  0
   55.7576   24.5829   45.9020 H   0  0  0  0  0  0  0  0  0  0  0  0
   56.0079   25.6141   47.3584 H   0  0  0  0  0  0  0  0  0  0  0  0
   54.3910   26.7110   46.7500 H   0  0  0  0  0  0  0  0  0  0  0  0
   59.2868   27.1391   46.2026 H   0  0  0  0  0  0  0  0  0  0  0  0
   61.1242   28.4083   46.8548 H   0  0  0  0  0  0  0  0  0  0  0  0
   61.3639   30.7326   46.8578 H   0  0  0  0  0  0  0  0  0  0  0  0
   59.8350   32.3513   46.1880 H   0  0  0  0  0  0  0  0  0  0  0  0
  1  2  2  0
  2  3  1  0
  3  4  1  0
  4  5  1  0
  5  6  1  0
  6  7  1  0
  3  8  2  0
  8  9  1  0
  9 10  2  0
 10 11  1  0
 11 12  2  0
 12 13  1  0
 13 14  2  0
 13 15  1  0
 12  2  1  0
  4 16  1  0
  5 17  1  0
  5 18  1  0
  6 19  1  0
  6 20  1  0
  7 21  1  0
  8 22  1  0
  9 23  1  0
 10 24  1  0
 11 25  1  0
M  CHG  2  13   1  15  -1
M  END
>  <UniqueID>  (94) 
88

>  <SMILES>  (94) 
O=c1c(NCCO)ccccc1[N+](=O)[O-]

>  <Energy>  (94) 
51.60859862126634

>  <Genealogy>  (94) 
O=c1c(NCCO)ccccc1[N+](=O)[O-] (3D coordinates assigned)
O=c1c(NCCO)ccccc1[N+](=O)[O-] (optimized conformer: 51.60859862126634 kcal/mol)

>  <smiles>  (94) 
O=c1c(NCCO)ccccc1[N+](=O)[O-]

>  <score_type>  (94) 
oracle

>  <origin>  (94) 
adg

>  <m_score__min__energy>  (94) 
-6.2400000000000002

>  <m_primary>  (94) 
energy

$$$$
94:0
     RDKit          3D

 54 57  0  0  0  0  0  0  0  0999 V2000
   60.1410   29.2720   47.9670 C   0  0  0  0  0  0  0  0  0  0  0  0
   60.6210   30.0410   46.8140 N   0  0  0  0  0  0  0  0  0  0  0  0
   60.5020   29.4440   45.5020 C   0  0  0  0  0  0  0  0  0  0  0  0
   61.5430   29.0130   44.9270 O   0  0  0  0  0  0  0  0  0  0  0  0
   59.1820   29.3450   44.7790 C   0  0  0  0  0  0  0  0  0  0  0  0
   58.4390   28.0680   45.1110 C   0  0  0  0  0  0  0  0  0  0  0  0
   59.1930   26.8880   45.2440 C   0  0  0  0  0  0  0  0  0  0  0  0
   58.5810   25.6830   45.5810 C   0  0  0  0  0  0  0  0  0  0  0  0
   57.2100   25.6360   45.8050 C   0  0  0  0  0  0  0  0  0  0  0  0
   56.4340   26.7920   45.6910 C   0  0  0  0  0  0  0  0  0  0  0  0
   55.0690   26.6990   45.9390 O   0  0  0  0  0  0  0  0  0  0  0  0
   57.0280   28.0260   45.3260 C   0  0  0  0  0  0  0  0  0  0  0  0
   56.1540   29.2720   45.2450 C   0  0  0  0  0  0  0  0  0  0  0  0
   56.7070   30.3010   44.3590 N   0  0  0  0  0  0  0  0  0  0  0  0
   56.7950   30.1520   42.9040 C   0  0  0  0  0  0  0  0  0  0  0  0
   57.3900   31.4760   42.3700 C   0  0  0  0  0  0  0  0  0  0  0  0
   57.7410   32.2170   43.6140 C   0  0  0  0  0  0  0  0  0  0  0  0
   58.4100   33.4390   43.7200 C   0  0  0  0  0  0  0  0  0  0  0  0
   58.6930   33.9360   45.0010 C   0  0  0  0  0  0  0  0  0  0  0  0
   58.3170   33.2050   46.1440 C   0  0  0  0  0  0  0  0  0  0  0  0
   57.6430   31.9810   46.0120 C   0  0  0  0  0  0  0  0  0  0  0  0
   57.3530   31.5150   44.7240 C   0  0  0  0  0  0  0  0  0  0  0  0
   61.3900   31.2390   47.0570 C   0  0  0  0  0  0  0  0  0  0  0  0
   61.0010   32.3390   46.5720 O   0  0  0  0  0  0  0  0  0  0  0  0
   62.6260   31.1820   47.7820 N   0  0  0  0  0  0  0  0  0  0  0  0
   63.0660   32.0710   48.8180 C   0  0  0  0  0  0  0  0  0  0  0  0
   62.1900   33.0750   49.2500 C   0  0  0  0  0  0  0  0  0  0  0  0
   62.5890   33.9850   50.2360 C   0  0  0  0  0  0  0  0  0  0  0  0
   63.8750   33.9070   50.7840 C   0  0  0  0  0  0  0  0  0  0  0  0
   64.3810   35.0560   52.0110 Cl  0  0  0  0  0  0  0  0  0  0  0  0
   64.7640   32.9210   50.3420 C   0  0  0  0  0  0  0  0  0  0  0  0
   64.3650   32.0080   49.3580 C   0  0  0  0  0  0  0  0  0  0  0  0
   60.4527   29.7714   48.8962 H   0  0  0  0  0  0  0  0  0  0  0  0
   59.0432   29.2095   47.9348 H   0  0  0  0  0  0  0  0  0  0  0  0
   60.5671   28.2584   47.9348 H   0  0  0  0  0  0  0  0  0  0  0  0
   58.5563   30.2030   45.0659 H   0  0  0  0  0  0  0  0  0  0  0  0
   59.3895   29.3423   43.6987 H   0  0  0  0  0  0  0  0  0  0  0  0
   60.2803   26.9172   45.0797 H   0  0  0  0  0  0  0  0  0  0  0  0
   59.1837   24.7671   45.6700 H   0  0  0  0  0  0  0  0  0  0  0  0
   56.7328   24.6821   46.0739 H   0  0  0  0  0  0  0  0  0  0  0  0
   55.1622   28.9810   44.8686 H   0  0  0  0  0  0  0  0  0  0  0  0
   56.0986   29.7022   46.2558 H   0  0  0  0  0  0  0  0  0  0  0  0
   57.4512   29.3076   42.6461 H   0  0  0  0  0  0  0  0  0  0  0  0
   55.8087   29.9484   42.4615 H   0  0  0  0  0  0  0  0  0  0  0  0
   58.2839   31.2880   41.7572 H   0  0  0  0  0  0  0  0  0  0  0  0
   56.6969   32.0292   41.7191 H   0  0  0  0  0  0  0  0  0  0  0  0
   58.7077   33.9980   42.8206 H   0  0  0  0  0  0  0  0  0  0  0  0
   59.2105   34.9002   45.1128 H   0  0  0  0  0  0  0  0  0  0  0  0
   58.5526   33.5950   47.1452 H   0  0  0  0  0  0  0  0  0  0  0  0
   57.3495   31.4014   46.8997 H   0  0  0  0  0  0  0  0  0  0  0  0
   61.1835   33.1487   48.8123 H   0  0  0  0  0  0  0  0  0  0  0  0
   61.8913   34.7624   50.5807 H   0  0  0  0  0  0  0  0  0  0  0  0
   65.7767   32.8630   50.7676 H   0  0  0  0  0  0  0  0  0  0  0  0
   65.0685   31.2392   49.0058 H   0  0  0  0  0  0  0  0  0  0  0  0
  1  2  1  0
  2  3  1  0
  3  4  2  0
  3  5  1  0
  5  6  1  0
  6  7  2  0
  7  8  1  0
  8  9  2  0
  9 10  1  0
 10 11  1  0
 10 12  2  0
 12 13  1  0
 13 14  1  0
 14 15  1  0
 15 16  1  0
 16 17  1  0
 17 18  2  0
 18 19  1  0
 19 20  2  0
 20 21  1  0
 21 22  2  0
  2 23  1  0
 23 24  2  0
 23 25  1  0
 25 26  1  0
 26 27  2  0
 27 28  1  0
 28 29  2  0
 29 30  1  0
 29 31  1  0
 31 32  2  0
 12  6  1  0
 22 14  1  0
 32 26  1  0
 22 17  1  0
  1 33  1  0
  1 34  1  0
  1 35  1  0
  5 36  1  0
  5 37  1  0
  7 38  1  0
  8 39  1  0
  9 40  1  0
 13 41  1  0
 13 42  1  0
 15 43  1  0
 15 44  1  0
 16 45  1  0
 16 46  1  0
 18 47  1  0
 19 48  1  0
 20 49  1  0
 21 50  1  0
 27 51  1  0
 28 52  1  0
 31 53  1  0
 32 54  1  0
M  CHG  2  11  -1  25  -1
M  END
>  <UniqueID>  (95) 
89

>  <SMILES>  (95) 
CN(C(=O)Cc1cccc([O-])c1CN1CCc2ccccc21)C(=O)[N-]c1ccc(Cl)cc1

>  <Energy>  (95) 
80.79485390862395

>  <Genealogy>  (95) 
CN(C(=O)Cc1cccc([O-])c1CN1CCc2ccccc21)C(=O)[N-]c1ccc(Cl)cc1 (protonated)
CN(C(=O)Cc1cccc([O-])c1CN1CCc2ccccc21)C(=O)[N-]c1ccc(Cl)cc1 (3D coordinates assigned)
CN(C(=O)Cc1cccc([O-])c1CN1CCc2ccccc21)C(=O)[N-]c1ccc(Cl)cc1 (nonaromatic ring conformer: 80.79485390862395 kcal/mol)

>  <smiles>  (95) 
CN(C(=O)Cc1cccc(O)c1CN1CCc2ccccc21)C(=O)Nc1ccc(Cl)cc1

>  <score_type>  (95) 
oracle

>  <origin>  (95) 
adg

>  <m_score__min__energy>  (95) 
-13.029999999999999

>  <m_primary>  (95) 
energy

$$$$
95:0
     RDKit          3D

 42 44  0  0  0  0  0  0  0  0999 V2000
   58.6700   28.5420   46.1350 O   0  0  0  0  0  0  0  0  0  0  0  0
   57.5750   28.2010   45.6110 C   0  0  0  0  0  0  0  0  0  0  0  0
   56.9640   29.0370   44.6120 N   0  0  0  0  0  0  0  0  0  0  0  0
   57.3390   30.4050   44.3740 C   0  0  0  0  0  0  0  0  0  0  0  0
   57.3980   30.9330   43.0720 C   0  0  0  0  0  0  0  0  0  0  0  0
   57.7900   32.2590   42.8670 C   0  0  0  0  0  0  0  0  0  0  0  0
   58.1440   33.0620   43.9540 C   0  0  0  0  0  0  0  0  0  0  0  0
   58.1190   32.5410   45.2530 C   0  0  0  0  0  0  0  0  0  0  0  0
   58.6060   33.5430   46.6240 S   0  0  0  0  0  0  0  0  0  0  0  0
   59.1510   34.8490   46.1130 O   0  0  0  0  0  0  0  0  0  0  0  0
   57.4010   33.8430   47.4700 O   0  0  0  0  0  0  0  0  0  0  0  0
   59.8170   32.7480   47.6020 N   0  0  0  0  0  0  0  0  0  0  0  0
   60.7330   31.9610   46.7470 C   0  0  0  0  0  0  0  0  0  0  0  0
   61.5260   30.9410   47.5700 C   0  0  0  0  0  0  0  0  0  0  0  0
   60.5890   29.9190   48.2370 C   0  0  0  0  0  0  0  0  0  0  0  0
   59.1730   30.4740   48.4720 C   0  0  0  0  0  0  0  0  0  0  0  0
   59.2060   31.9890   48.7210 C   0  0  0  0  0  0  0  0  0  0  0  0
   57.7170   31.2130   45.4580 C   0  0  0  0  0  0  0  0  0  0  0  0
   56.9440   26.9200   45.9990 C   0  0  0  0  0  0  0  0  0  0  0  0
   57.6470   25.9620   46.7460 C   0  0  0  0  0  0  0  0  0  0  0  0
   56.9990   24.7750   47.0890 C   0  0  0  0  0  0  0  0  0  0  0  0
   57.6010   23.8950   47.7590 O   0  0  0  0  0  0  0  0  0  0  0  0
   55.7140   24.5660   46.7020 N   0  0  0  0  0  0  0  0  0  0  0  0
   55.0440   25.5010   45.9790 C   0  0  0  0  0  0  0  0  0  0  0  0
   53.8540   25.2920   45.6280 O   0  0  0  0  0  0  0  0  0  0  0  0
   55.6570   26.6640   45.6370 N   0  0  0  0  0  0  0  0  0  0  0  0
   56.2690   28.6040   43.9630 H   0  0  0  0  0  0  0  0  0  0  0  0
   57.1347   30.3002   42.2116 H   0  0  0  0  0  0  0  0  0  0  0  0
   57.8198   32.6711   41.8475 H   0  0  0  0  0  0  0  0  0  0  0  0
   58.4435   34.1074   43.7885 H   0  0  0  0  0  0  0  0  0  0  0  0
   60.1435   31.4273   45.9870 H   0  0  0  0  0  0  0  0  0  0  0  0
   61.4450   32.6528   46.2731 H   0  0  0  0  0  0  0  0  0  0  0  0
   62.2241   30.4091   46.9069 H   0  0  0  0  0  0  0  0  0  0  0  0
   62.0745   31.4782   48.3577 H   0  0  0  0  0  0  0  0  0  0  0  0
   60.5164   29.0332   47.5888 H   0  0  0  0  0  0  0  0  0  0  0  0
   61.0152   29.6708   49.2202 H   0  0  0  0  0  0  0  0  0  0  0  0
   58.5554   30.2693   47.5851 H   0  0  0  0  0  0  0  0  0  0  0  0
   58.7491   29.9835   49.3607 H   0  0  0  0  0  0  0  0  0  0  0  0
   58.1743   32.3434   48.8626 H   0  0  0  0  0  0  0  0  0  0  0  0
   59.8261   32.1621   49.6129 H   0  0  0  0  0  0  0  0  0  0  0  0
   57.6977   30.8008   46.4777 H   0  0  0  0  0  0  0  0  0  0  0  0
   58.6872   26.1433   47.0546 H   0  0  0  0  0  0  0  0  0  0  0  0
  1  2  2  0
  2  3  1  0
  3  4  1  0
  4  5  2  0
  5  6  1  0
  6  7  2  0
  7  8  1  0
  8  9  1  0
  9 10  2  0
  9 11  2  0
  9 12  1  0
 12 13  1  0
 13 14  1  0
 14 15  1  0
 15 16  1  0
 16 17  1  0
  8 18  2  0
  2 19  1  0
 19 20  2  0
 20 21  1  0
 21 22  2  0
 21 23  1  0
 23 24  1  0
 24 25  2  0
 24 26  1  0
 18  4  1  0
 26 19  1  0
 17 12  1  0
  3 27  1  0
  5 28  1  0
  6 29  1  0
  7 30  1  0
 13 31  1  0
 13 32  1  0
 14 33  1  0
 14 34  1  0
 15 35  1  0
 15 36  1  0
 16 37  1  0
 16 38  1  0
 17 39  1  0
 17 40  1  0
 18 41  1  0
 20 42  1  0
M  CHG  2  23  -1  26  -1
M  END
>  <UniqueID>  (96) 
90

>  <SMILES>  (96) 
O=C(Nc1cccc(S(=O)(=O)N2CCCCC2)c1)c1cc(=O)[n-]c(=O)[n-]1

>  <Energy>  (96) 
52.84428686009848

>  <Genealogy>  (96) 
O=C(Nc1cccc(S(=O)(=O)N2CCCCC2)c1)c1cc(=O)[n-]c(=O)[n-]1 (protonated)
O=C(Nc1cccc(S(=O)(=O)N2CCCCC2)c1)c1cc(=O)[n-]c(=O)[n-]1 (3D coordinates assigned)
O=C(Nc1cccc(S(=O)(=O)N2CCCCC2)c1)c1cc(=O)[n-]c(=O)[n-]1 (nonaromatic ring conformer: 52.84428686009848 kcal/mol)

>  <smiles>  (96) 
O=C(Nc1cccc(S(=O)(=O)N2CCCCC2)c1)c1cc(=O)[nH]c(=O)[nH]1

>  <score_type>  (96) 
oracle

>  <origin>  (96) 
adg

>  <m_score__min__energy>  (96) 
-13.470000000000001

>  <m_primary>  (96) 
energy

$$$$
