0:0
     RDKit          3D

 50 53  0  0  0  0  0  0  0  0999 V2000
   55.8420   30.4500   44.0610 C   0  0  0  0  0  0  0  0  0  0  0  0
   56.7430   29.7850   44.7880 C   0  0  0  0  0  0  0  0  0  0  0  0
   56.8450   28.4390   44.7530 N   0  0  0  0  0  0  0  0  0  0  0  0
   57.8350   28.0970   45.5960 C   0  0  0  0  0  0  0  0  0  0  0  0
   58.2190   26.8310   45.7920 C   0  0  0  0  0  0  0  0  0  0  0  0
   57.3550   25.8280   46.4280 C   0  0  0  0  0  0  0  0  0  0  0  0
   57.8140   24.7110   47.0160 N   0  0  0  0  0  0  0  0  0  0  0  0
   56.6850   24.0350   47.3300 C   0  0  0  0  0  0  0  0  0  0  0  0
   56.6990   22.9130   47.8980 O   0  0  0  0  0  0  0  0  0  0  0  0
   55.5380   24.6480   46.9620 N   0  0  0  0  0  0  0  0  0  0  0  0
   55.9810   25.7780   46.3830 C   0  0  0  0  0  0  0  0  0  0  0  0
   55.1460   26.7260   45.8030 O   0  0  0  0  0  0  0  0  0  0  0  0
   58.3820   29.2270   46.1840 C   0  0  0  0  0  0  0  0  0  0  0  0
   57.6900   30.3170   45.6710 C   0  0  0  0  0  0  0  0  0  0  0  0
   57.9740   31.7430   45.9940 C   0  0  0  0  0  0  0  0  0  0  0  0
   57.3310   32.6530   45.4000 O   0  0  0  0  0  0  0  0  0  0  0  0
   59.0460   32.0960   46.9090 N   0  0  0  0  0  0  0  0  0  0  0  0
   60.3140   31.5030   46.4410 C   0  0  0  0  0  0  0  0  0  0  0  0
   61.4660   31.8590   47.3930 C   0  0  0  0  0  0  0  0  0  0  0  0
   61.5860   33.3240   47.5010 N   0  0  0  0  0  0  0  0  0  0  0  0
   62.8240   33.7260   48.2290 C   0  0  0  0  0  0  0  0  0  0  0  0
   63.9610   32.7020   48.2840 C   0  0  0  0  0  0  0  0  0  0  0  0
   64.8050   33.1580   49.4610 C   0  0  0  0  0  0  0  0  0  0  0  0
   63.8380   33.8230   50.4420 C   0  0  0  0  0  0  0  0  0  0  0  0
   62.5290   34.0650   49.6880 C   0  0  0  0  0  0  0  0  0  0  0  0
   60.3250   33.9090   48.0070 C   0  0  0  0  0  0  0  0  0  0  0  0
   59.1710   33.5630   47.0600 C   0  0  0  0  0  0  0  0  0  0  0  0
   55.7911   31.5474   44.1178 H   0  0  0  0  0  0  0  0  0  0  0  0
   55.1506   29.9005   43.4053 H   0  0  0  0  0  0  0  0  0  0  0  0
   56.2650   27.7840   44.1780 H   0  0  0  0  0  0  0  0  0  0  0  0
   59.2241   26.5283   45.4631 H   0  0  0  0  0  0  0  0  0  0  0  0
   59.2039   29.2551   46.9145 H   0  0  0  0  0  0  0  0  0  0  0  0
   58.8240   31.7080   47.8530 H   0  0  0  0  0  0  0  0  0  0  0  0
   60.2065   30.4091   46.3980 H   0  0  0  0  0  0  0  0  0  0  0  0
   60.5441   31.9043   45.4430 H   0  0  0  0  0  0  0  0  0  0  0  0
   61.2633   31.4344   48.3873 H   0  0  0  0  0  0  0  0  0  0  0  0
   62.4057   31.4444   46.9991 H   0  0  0  0  0  0  0  0  0  0  0  0
   63.1599   34.5829   47.6266 H   0  0  0  0  0  0  0  0  0  0  0  0
   63.5676   31.6888   48.4535 H   0  0  0  0  0  0  0  0  0  0  0  0
   64.5328   32.6515   47.3457 H   0  0  0  0  0  0  0  0  0  0  0  0
   65.2972   32.2959   49.9349 H   0  0  0  0  0  0  0  0  0  0  0  0
   65.5969   33.8523   49.1434 H   0  0  0  0  0  0  0  0  0  0  0  0
   63.6608   33.1625   51.3036 H   0  0  0  0  0  0  0  0  0  0  0  0
   64.2527   34.7689   50.8205 H   0  0  0  0  0  0  0  0  0  0  0  0
   61.7344   33.4132   50.0801 H   0  0  0  0  0  0  0  0  0  0  0  0
   62.1809   35.1023   49.8014 H   0  0  0  0  0  0  0  0  0  0  0  0
   60.1103   33.5033   49.0066 H   0  0  0  0  0  0  0  0  0  0  0  0
   60.4308   35.0024   48.0636 H   0  0  0  0  0  0  0  0  0  0  0  0
   58.2331   33.9659   47.4700 H   0  0  0  0  0  0  0  0  0  0  0  0
   59.3751   34.0059   46.0740 H   0  0  0  0  0  0  0  0  0  0  0  0
  1  2  2  0
  2  3  1  0
  3  4  1  0
  4  5  2  3
  5  6  1  0
  6  7  1  0
  7  8  1  0
  8  9  2  0
  8 10  1  0
 10 11  1  0
 11 12  1  0
  4 13  1  0
 13 14  2  0
 14 15  1  0
 15 16  2  0
 15 17  1  0
 17 18  1  0
 18 19  1  0
 19 20  1  0
 20 21  1  0
 21 22  1  0
 22 23  1  0
 23 24  1  0
 24 25  1  0
 20 26  1  0
 26 27  1  0
 14  2  1  0
 27 17  1  0
 11  6  2  0
 25 21  1  0
  1 28  1  0
  1 29  1  0
  3 30  1  0
  5 31  1  0
 13 32  1  0
 17 33  1  0
 18 34  1  0
 18 35  1  0
 19 36  1  0
 19 37  1  0
 21 38  1  0
 22 39  1  0
 22 40  1  0
 23 41  1  0
 23 42  1  0
 24 43  1  0
 24 44  1  0
 25 45  1  0
 25 46  1  0
 26 47  1  0
 26 48  1  0
 27 49  1  0
 27 50  1  0
M  CHG  4   7  -1  10  -1  12  -1  17   1
M  END
>  <UniqueID>  (1) 
1

>  <SMILES>  (1) 
C=c1[nH]c(=Cc2[n-]c(=O)[n-]c2[O-])cc1C(=O)[NH+]1CCN(C2CCCC2)CC1

>  <Energy>  (1) 
129.80391671491347

>  <Genealogy>  (1) 
C=c1[nH]c(=Cc2[n-]c(=O)[n-]c2[O-])cc1C(=O)[NH+]1CCN(C2CCCC2)CC1 (protonated)
C=c1[nH]c(=Cc2[n-]c(=O)[n-]c2[O-])cc1C(=O)[NH+]1CCN(C2CCCC2)CC1 (3D coordinates assigned)
C=c1[nH]c(=Cc2[n-]c(=O)[n-]c2[O-])cc1C(=O)[NH+]1CCN(C2CCCC2)CC1 (nonaromatic ring conformer: 129.80391671491347 kcal/mol)

>  <smiles>  (1) 
C=c1[nH]c(=Cc2[nH]c(=O)[nH]c2O)cc1C(=O)N1CCN(C2CCCC2)CC1

>  <score_type>  (1) 
oracle

>  <origin>  (1) 
adg

>  <m_score__min__energy>  (1) 
-16.449999999999999

>  <m_primary>  (1) 
energy

$$$$
1:0
     RDKit          3D

 53 55  0  0  0  0  0  0  0  0999 V2000
   58.5772   34.7469   46.8055 H   0  0  0  0  0  0  0  0  0  0  0  0
   58.3050   33.8840   46.1800 C   0  0  0  0  0  0  0  0  0  0  0  0
   58.4980   32.5780   46.6570 C   0  0  0  0  0  0  0  0  0  0  0  0
   59.1080   32.3470   47.9960 C   0  0  0  0  0  0  0  0  0  0  0  0
   59.1420   33.3090   48.8140 O   0  0  0  0  0  0  0  0  0  0  0  0
   59.6710   31.0690   48.3970 N   0  0  0  0  0  0  0  0  0  0  0  0
   60.0290   31.2030   49.3740 H   0  0  0  0  0  0  0  0  0  0  0  0
   60.8660   30.6900   47.5880 C   0  0  0  0  0  0  0  0  0  0  0  0
   61.1507   31.5575   46.9745 H   0  0  0  0  0  0  0  0  0  0  0  0
   61.6400   30.3890   48.3093 H   0  0  0  0  0  0  0  0  0  0  0  0
   60.6660   29.4840   46.6460 C   0  0  0  0  0  0  0  0  0  0  0  0
   60.1072   29.8195   45.7599 H   0  0  0  0  0  0  0  0  0  0  0  0
   61.6632   29.1030   46.3806 H   0  0  0  0  0  0  0  0  0  0  0  0
   59.9260   28.3820   47.2780 N   0  0  0  0  0  0  0  0  0  0  0  0
   59.9340   27.0830   46.6410 C   0  0  0  0  0  0  0  0  0  0  0  0
   60.6220   26.9140   45.5960 O   0  0  0  0  0  0  0  0  0  0  0  0
   59.1390   25.9220   47.2000 C   0  0  0  0  0  0  0  0  0  0  0  0
   59.2880   25.0539   46.5410 H   0  0  0  0  0  0  0  0  0  0  0  0
   59.5076   25.7522   48.2224 H   0  0  0  0  0  0  0  0  0  0  0  0
   57.6250   26.1850   47.3160 C   0  0  0  0  0  0  0  0  0  0  0  0
   57.3415   26.1513   48.3783 H   0  0  0  0  0  0  0  0  0  0  0  0
   57.4224   27.1719   46.8744 H   0  0  0  0  0  0  0  0  0  0  0  0
   56.7990   25.1640   46.5600 C   0  0  0  0  0  0  0  0  0  0  0  0
   57.2160   23.8220   46.5280 C   0  0  0  0  0  0  0  0  0  0  0  0
   58.1381   23.5241   47.0486 H   0  0  0  0  0  0  0  0  0  0  0  0
   56.4670   22.8630   45.8390 C   0  0  0  0  0  0  0  0  0  0  0  0
   56.7950   21.8131   45.8291 H   0  0  0  0  0  0  0  0  0  0  0  0
   55.3040   23.2360   45.1640 C   0  0  0  0  0  0  0  0  0  0  0  0
   54.7156   22.4801   44.6232 H   0  0  0  0  0  0  0  0  0  0  0  0
   54.8870   24.5690   45.1750 C   0  0  0  0  0  0  0  0  0  0  0  0
   53.9724   24.8613   44.6383 H   0  0  0  0  0  0  0  0  0  0  0  0
   55.6280   25.5340   45.8660 C   0  0  0  0  0  0  0  0  0  0  0  0
   55.1910   26.8550   45.8540 O   0  0  0  0  0  0  0  0  0  0  0  0
   59.2140   28.6310   48.5370 C   0  0  0  0  0  0  0  0  0  0  0  0
   58.4077   27.8922   48.6557 H   0  0  0  0  0  0  0  0  0  0  0  0
   59.9146   28.5440   49.3805 H   0  0  0  0  0  0  0  0  0  0  0  0
   58.6180   30.0370   48.5090 C   0  0  0  0  0  0  0  0  0  0  0  0
   57.9413   30.1214   47.6459 H   0  0  0  0  0  0  0  0  0  0  0  0
   58.0732   30.2001   49.4506 H   0  0  0  0  0  0  0  0  0  0  0  0
   58.1280   31.5280   45.8720 N   0  0  0  0  0  0  0  0  0  0  0  0
   57.5900   31.6930   44.6280 C   0  0  0  0  0  0  0  0  0  0  0  0
   57.2810   30.6700   43.8850 N   0  0  0  0  0  0  0  0  0  0  0  0
   56.7010   29.4440   44.3530 C   0  0  0  0  0  0  0  0  0  0  0  0
   57.4000   28.2050   44.2010 N   0  0  0  0  0  0  0  0  0  0  0  0
   58.3890   28.1930   43.8710 H   0  0  0  0  0  0  0  0  0  0  0  0
   56.9690   27.3060   44.5110 H   0  0  0  0  0  0  0  0  0  0  0  0
   55.5760   29.4770   44.9950 N   0  0  0  0  0  0  0  0  0  0  0  0
   55.1340   30.3890   45.2500 H   0  0  0  0  0  0  0  0  0  0  0  0
   55.0850   28.5960   45.2620 H   0  0  0  0  0  0  0  0  0  0  0  0
   57.4160   32.9840   44.1220 C   0  0  0  0  0  0  0  0  0  0  0  0
   57.0064   33.1331   43.1121 H   0  0  0  0  0  0  0  0  0  0  0  0
   57.7660   34.0820   44.9080 C   0  0  0  0  0  0  0  0  0  0  0  0
   57.6173   35.1027   44.5257 H   0  0  0  0  0  0  0  0  0  0  0  0
  1  2  1  0
  2  3  2  0
  3  4  1  0
  4  5  2  0
  4  6  1  0
  6  7  1  0
  6  8  1  0
  8  9  1  0
  8 10  1  0
  8 11  1  0
 11 12  1  0
 11 13  1  0
 11 14  1  0
 14 15  1  0
 15 16  2  0
 15 17  1  0
 17 18  1  0
 17 19  1  0
 17 20  1  0
 20 21  1  0
 20 22  1  0
 20 23  1  0
 23 24  2  0
 24 25  1  0
 24 26  1  0
 26 27  1  0
 26 28  2  0
 28 29  1  0
 28 30  1  0
 30 31  1  0
 30 32  2  0
 32 33  1  0
 14 34  1  0
 34 35  1  0
 34 36  1  0
 34 37  1  0
 37 38  1  0
 37 39  1  0
  3 40  1  0
 40 41  1  0
 41 42  2  0
 42 43  1  0
 43 44  1  0
 44 45  1  0
 44 46  1  0
 43 47  2  0
 47 48  1  0
 47 49  1  0
 41 50  1  0
 50 51  1  0
 50 52  2  0
 52 53  1  0
 52  2  1  0
 37  6  1  0
 32 23  1  0
M  CHG  4   6   1  33  -1  40  -1  47   1
M  END
>  <UniqueID>  (2) 
2

>  <SMILES>  (2) 
NC(=[NH2+])/N=c1/cccc(C(=O)[NH+]2CCN(C(=O)CCc3ccccc3[O-])CC2)[n-]1

>  <Energy>  (2) 
67.08636575848949

>  <Genealogy>  (2) 
NC(=[NH2+])N=c1cccc(C(=O)[NH+]2CCN(C(=O)CCc3ccccc3[O-])CC2)[n-]1 (protonated)
NC(=[NH2+])/N=c1/cccc(C(=O)[NH+]2CCN(C(=O)CCc3ccccc3[O-])CC2)[n-]1 (cis-trans isomerization)
NC(=[NH2+])/N=c1/cccc(C(=O)[NH+]2CCN(C(=O)CCc3ccccc3[O-])CC2)[n-]1 (3D coordinates assigned)
NC(=[NH2+])/N=c1/cccc(C(=O)[NH+]2CCN(C(=O)CCc3ccccc3[O-])CC2)[n-]1 (nonaromatic ring conformer: 67.08636575848949 kcal/mol)

>  <smiles>  (2) 
N=C(N)N=c1cccc(C(=O)N2CCN(C(=O)CCc3ccccc3O)CC2)[nH]1

>  <score_type>  (2) 
oracle

>  <origin>  (2) 
adg

>  <m_score__min__energy>  (2) 
-10.32

>  <m_primary>  (2) 
energy

$$$$
2:0
     RDKit          3D

 27 28  0  0  0  0  0  0  0  0999 V2000
   57.7640   21.1080   43.4310 C   0  0  0  0  0  0  0  0  0  0  0  0
   57.3460   22.2220   44.0390 C   0  0  0  0  0  0  0  0  0  0  0  0
   56.7230   23.2670   43.2780 N   0  0  0  0  0  0  0  0  0  0  0  0
   56.2590   24.4770   43.8960 C   0  0  0  0  0  0  0  0  0  0  0  0
   56.3980   24.7030   45.2170 C   0  0  0  0  0  0  0  0  0  0  0  0
   55.8930   25.9670   45.8100 C   0  0  0  0  0  0  0  0  0  0  0  0
   54.6540   26.1210   45.9700 O   0  0  0  0  0  0  0  0  0  0  0  0
   56.7690   27.0490   46.1570 N   0  0  0  0  0  0  0  0  0  0  0  0
   57.0360   28.2130   45.3610 C   0  0  0  0  0  0  0  0  0  0  0  0
   58.3490   28.6460   45.1000 C   0  0  0  0  0  0  0  0  0  0  0  0
   58.5710   29.7930   44.3330 C   0  0  0  0  0  0  0  0  0  0  0  0
   57.4890   30.5250   43.8340 C   0  0  0  0  0  0  0  0  0  0  0  0
   57.7690   31.9650   42.8720 Cl  0  0  0  0  0  0  0  0  0  0  0  0
   56.1810   30.1110   44.1110 C   0  0  0  0  0  0  0  0  0  0  0  0
   55.9560   28.9640   44.8780 C   0  0  0  0  0  0  0  0  0  0  0  0
   57.0290   23.6730   46.0800 C   0  0  0  0  0  0  0  0  0  0  0  0
   57.1740   23.8750   47.3160 O   0  0  0  0  0  0  0  0  0  0  0  0
   57.5060   22.4150   45.4910 C   0  0  0  0  0  0  0  0  0  0  0  0
   58.0400   21.5330   46.2160 O   0  0  0  0  0  0  0  0  0  0  0  0
   58.2413   20.3081   44.0161 H   0  0  0  0  0  0  0  0  0  0  0  0
   57.6308   20.9908   42.3454 H   0  0  0  0  0  0  0  0  0  0  0  0
   56.5910   23.1580   42.2480 H   0  0  0  0  0  0  0  0  0  0  0  0
   55.7753   25.2429   43.2720 H   0  0  0  0  0  0  0  0  0  0  0  0
   59.2030   28.0803   45.5007 H   0  0  0  0  0  0  0  0  0  0  0  0
   59.5995   30.1208   44.1213 H   0  0  0  0  0  0  0  0  0  0  0  0
   55.3286   30.6891   43.7246 H   0  0  0  0  0  0  0  0  0  0  0  0
   54.9263   28.6495   45.1034 H   0  0  0  0  0  0  0  0  0  0  0  0
  1  2  2  0
  2  3  1  0
  3  4  1  0
  4  5  2  0
  5  6  1  0
  6  7  2  0
  6  8  1  0
  8  9  1  0
  9 10  2  0
 10 11  1  0
 11 12  2  0
 12 13  1  0
 12 14  1  0
 14 15  2  0
  5 16  1  0
 16 17  2  0
 16 18  1  0
 18 19  2  0
 18  2  1  0
 15  9  1  0
  1 20  1  0
  1 21  1  0
  3 22  1  0
  4 23  1  0
 10 24  1  0
 11 25  1  0
 14 26  1  0
 15 27  1  0
M  CHG  1   8  -1
M  END
>  <UniqueID>  (3) 
3

>  <SMILES>  (3) 
C=C1NC=C(C(=O)[N-]c2ccc(Cl)cc2)C(=O)C1=O

>  <Energy>  (3) 
32.85000586949664

>  <Genealogy>  (3) 
C=C1NC=C(C(=O)[N-]c2ccc(Cl)cc2)C(=O)C1=O (protonated)
C=C1NC=C(C(=O)[N-]c2ccc(Cl)cc2)C(=O)C1=O (3D coordinates assigned)
C=C1NC=C(C(=O)[N-]c2ccc(Cl)cc2)C(=O)C1=O (nonaromatic ring conformer: 32.85000586949664 kcal/mol)

>  <smiles>  (3) 
C=C1NC=C(C(=O)Nc2ccc(Cl)cc2)C(=O)C1=O

>  <score_type>  (3) 
oracle

>  <origin>  (3) 
adg

>  <m_score__min__energy>  (3) 
-8.9900000000000002

>  <m_primary>  (3) 
energy

$$$$
3:0
     RDKit          3D

 54 57  0  0  0  0  0  0  0  0999 V2000
   53.3890   28.5590   53.4730 C   0  0  0  0  0  0  0  0  0  0  0  0
   54.3240   29.2600   52.8120 C   0  0  0  0  0  0  0  0  0  0  0  0
   54.1040   30.2820   51.8760 C   0  0  0  0  0  0  0  0  0  0  0  0
   52.9780   30.6870   51.2550 C   0  0  0  0  0  0  0  0  0  0  0  0
   51.8590   31.4040   51.8860 C   0  0  0  0  0  0  0  0  0  0  0  0
   51.6040   31.3680   53.2050 N   0  0  0  0  0  0  0  0  0  0  0  0
   50.5920   32.2510   53.3510 C   0  0  0  0  0  0  0  0  0  0  0  0
   50.0560   32.4890   54.4640 O   0  0  0  0  0  0  0  0  0  0  0  0
   50.2100   32.8700   52.2130 N   0  0  0  0  0  0  0  0  0  0  0  0
   51.0330   32.3340   51.2970 C   0  0  0  0  0  0  0  0  0  0  0  0
   51.0450   32.7080   49.9600 O   0  0  0  0  0  0  0  0  0  0  0  0
   55.3320   30.8780   51.6590 C   0  0  0  0  0  0  0  0  0  0  0  0
   56.2650   30.1760   52.4030 C   0  0  0  0  0  0  0  0  0  0  0  0
   57.7090   30.5170   52.5180 C   0  0  0  0  0  0  0  0  0  0  0  0
   58.2520   30.4300   53.6530 O   0  0  0  0  0  0  0  0  0  0  0  0
   58.5080   30.9870   51.4000 N   0  0  0  0  0  0  0  0  0  0  0  0
   58.1000   32.3530   50.9950 C   0  0  0  0  0  0  0  0  0  0  0  0
   58.5480   32.6990   49.5610 C   0  0  0  0  0  0  0  0  0  0  0  0
   59.7710   31.9500   49.2180 N   0  0  0  0  0  0  0  0  0  0  0  0
   60.4910   32.4120   47.9970 C   0  0  0  0  0  0  0  0  0  0  0  0
   59.8920   31.9110   46.6550 C   0  0  0  0  0  0  0  0  0  0  0  0
   58.9380   32.9230   46.0090 C   0  0  0  0  0  0  0  0  0  0  0  0
   59.5530   34.1880   45.9000 O   0  0  0  0  0  0  0  0  0  0  0  0
   59.7180   34.7440   47.1880 C   0  0  0  0  0  0  0  0  0  0  0  0
   60.7320   33.9420   48.0180 C   0  0  0  0  0  0  0  0  0  0  0  0
   59.5290   30.4870   49.1930 C   0  0  0  0  0  0  0  0  0  0  0  0
   58.5130   30.0420   50.2650 C   0  0  0  0  0  0  0  0  0  0  0  0
   55.6530   29.1750   53.0820 N   0  0  0  0  0  0  0  0  0  0  0  0
   56.3030   28.2240   53.9920 C   0  0  0  0  0  0  0  0  0  0  0  0
   53.6895   27.7775   54.1864 H   0  0  0  0  0  0  0  0  0  0  0  0
   52.3224   28.7662   53.3011 H   0  0  0  0  0  0  0  0  0  0  0  0
   52.8880   30.4615   50.1821 H   0  0  0  0  0  0  0  0  0  0  0  0
   55.5309   31.7476   51.0154 H   0  0  0  0  0  0  0  0  0  0  0  0
   59.4970   31.0440   51.7440 H   0  0  0  0  0  0  0  0  0  0  0  0
   57.0037   32.4251   51.0497 H   0  0  0  0  0  0  0  0  0  0  0  0
   58.5853   33.0648   51.6790 H   0  0  0  0  0  0  0  0  0  0  0  0
   57.7477   32.4318   48.8553 H   0  0  0  0  0  0  0  0  0  0  0  0
   58.7567   33.7772   49.4991 H   0  0  0  0  0  0  0  0  0  0  0  0
   61.4749   31.9220   48.0408 H   0  0  0  0  0  0  0  0  0  0  0  0
   60.7173   31.7116   45.9556 H   0  0  0  0  0  0  0  0  0  0  0  0
   59.3099   31.0035   46.8732 H   0  0  0  0  0  0  0  0  0  0  0  0
   58.6609   32.5684   45.0053 H   0  0  0  0  0  0  0  0  0  0  0  0
   58.0424   33.0181   46.6406 H   0  0  0  0  0  0  0  0  0  0  0  0
   60.0762   35.7792   47.0879 H   0  0  0  0  0  0  0  0  0  0  0  0
   58.7474   34.7155   47.7048 H   0  0  0  0  0  0  0  0  0  0  0  0
   61.7384   34.1395   47.6202 H   0  0  0  0  0  0  0  0  0  0  0  0
   60.6187   34.2685   49.0623 H   0  0  0  0  0  0  0  0  0  0  0  0
   59.1412   30.2097   48.2017 H   0  0  0  0  0  0  0  0  0  0  0  0
   60.4841   29.9848   49.4063 H   0  0  0  0  0  0  0  0  0  0  0  0
   57.5082   30.0076   49.8187 H   0  0  0  0  0  0  0  0  0  0  0  0
   58.7996   29.0461   50.6338 H   0  0  0  0  0  0  0  0  0  0  0  0
   56.1026   28.5172   55.0331 H   0  0  0  0  0  0  0  0  0  0  0  0
   55.9052   27.2143   53.8124 H   0  0  0  0  0  0  0  0  0  0  0  0
   57.3882   28.2279   53.8124 H   0  0  0  0  0  0  0  0  0  0  0  0
  1  2  2  0
  2  3  1  0
  3  4  2  3
  4  5  1  0
  5  6  1  0
  6  7  1  0
  7  8  2  0
  7  9  1  0
  9 10  1  0
 10 11  1  0
  3 12  1  0
 12 13  2  0
 13 14  1  0
 14 15  2  0
 14 16  1  0
 16 17  1  0
 17 18  1  0
 18 19  1  0
 19 20  1  0
 20 21  1  0
 21 22  1  0
 22 23  1  0
 23 24  1  0
 24 25  1  0
 19 26  1  0
 26 27  1  0
 13 28  1  0
 28 29  1  0
 28  2  1  0
 10  5  2  0
 27 16  1  0
 25 20  1  0
  1 30  1  0
  1 31  1  0
  4 32  1  0
 12 33  1  0
 16 34  1  0
 17 35  1  0
 17 36  1  0
 18 37  1  0
 18 38  1  0
 20 39  1  0
 21 40  1  0
 21 41  1  0
 22 42  1  0
 22 43  1  0
 24 44  1  0
 24 45  1  0
 25 46  1  0
 25 47  1  0
 26 48  1  0
 26 49  1  0
 27 50  1  0
 27 51  1  0
 29 52  1  0
 29 53  1  0
 29 54  1  0
M  CHG  4   6  -1   9  -1  11  -1  16   1
M  END
>  <UniqueID>  (4) 
4

>  <SMILES>  (4) 
C=c1c(=Cc2[n-]c(=O)[n-]c2[O-])cc(C(=O)[NH+]2CCN(C3CCOCC3)CC2)n1C

>  <Energy>  (4) 
152.40772064177673

>  <Genealogy>  (4) 
C=c1c(=Cc2[n-]c(=O)[n-]c2[O-])cc(C(=O)[NH+]2CCN(C3CCOCC3)CC2)n1C (protonated)
C=c1c(=Cc2[n-]c(=O)[n-]c2[O-])cc(C(=O)[NH+]2CCN(C3CCOCC3)CC2)n1C (3D coordinates assigned)
C=c1c(=Cc2[n-]c(=O)[n-]c2[O-])cc(C(=O)[NH+]2CCN(C3CCOCC3)CC2)n1C (nonaromatic ring conformer: 152.40772064177673 kcal/mol)

>  <smiles>  (4) 
C=c1c(=Cc2[nH]c(=O)[nH]c2O)cc(C(=O)N2CCN(C3CCOCC3)CC2)n1C

>  <score_type>  (4) 
oracle

>  <origin>  (4) 
adg

>  <m_score__min__energy>  (4) 
-17.379999999999999

>  <m_primary>  (4) 
energy

$$$$
4:0
     RDKit          3D

 62 66  0  0  0  0  0  0  0  0999 V2000
   58.8780   25.4540   47.7470 H   0  0  0  0  0  0  0  0  0  0  0  0
   58.1660   24.9240   47.2590 O   0  0  0  0  0  0  0  0  0  0  0  0
   57.1000   25.5710   46.6400 C   0  0  0  0  0  0  0  0  0  0  0  0
   55.8560   25.0660   46.5710 N   0  0  0  0  0  0  0  0  0  0  0  0
   55.1720   26.0500   45.9480 C   0  0  0  0  0  0  0  0  0  0  0  0
   53.9450   25.9610   45.6880 O   0  0  0  0  0  0  0  0  0  0  0  0
   55.9060   27.1390   45.6270 N   0  0  0  0  0  0  0  0  0  0  0  0
   57.1400   26.8190   46.0530 C   0  0  0  0  0  0  0  0  0  0  0  0
   58.2850   27.7470   45.9850 C   0  0  0  0  0  0  0  0  0  0  0  0
   59.2987   27.3200   45.9737 H   0  0  0  0  0  0  0  0  0  0  0  0
   58.1600   29.0860   45.9360 C   0  0  0  0  0  0  0  0  0  0  0  0
   58.5490   29.9830   46.9190 C   0  0  0  0  0  0  0  0  0  0  0  0
   59.0018   29.7363   47.8906 H   0  0  0  0  0  0  0  0  0  0  0  0
   58.2590   31.2420   46.4440 C   0  0  0  0  0  0  0  0  0  0  0  0
   58.5290   32.4800   47.2020 C   0  0  0  0  0  0  0  0  0  0  0  0
   57.7200   33.4360   47.0840 O   0  0  0  0  0  0  0  0  0  0  0  0
   59.6890   32.6300   48.0480 N   0  0  0  0  0  0  0  0  0  0  0  0
   59.6590   33.6360   49.1170 C   0  0  0  0  0  0  0  0  0  0  0  0
   59.3493   34.6007   48.6888 H   0  0  0  0  0  0  0  0  0  0  0  0
   58.9483   33.2963   49.8848 H   0  0  0  0  0  0  0  0  0  0  0  0
   61.0300   33.8060   49.7810 C   0  0  0  0  0  0  0  0  0  0  0  0
   61.0120   34.6977   50.4248 H   0  0  0  0  0  0  0  0  0  0  0  0
   61.2483   32.9094   50.3798 H   0  0  0  0  0  0  0  0  0  0  0  0
   62.1400   33.9740   48.7060 C   0  0  0  0  0  0  0  0  0  0  0  0
   61.9109   34.8730   48.1150 H   0  0  0  0  0  0  0  0  0  0  0  0
   63.4860   34.1930   49.3210 N   0  0  0  0  0  0  0  0  0  0  0  0
   63.4440   34.2880   50.8060 C   0  0  0  0  0  0  0  0  0  0  0  0
   64.1346   35.0819   51.1266 H   0  0  0  0  0  0  0  0  0  0  0  0
   62.4053   34.5083   51.0935 H   0  0  0  0  0  0  0  0  0  0  0  0
   63.8470   32.9770   51.5010 C   0  0  0  0  0  0  0  0  0  0  0  0
   63.8043   33.1276   52.5898 H   0  0  0  0  0  0  0  0  0  0  0  0
   63.1458   32.1958   51.1723 H   0  0  0  0  0  0  0  0  0  0  0  0
   65.2130   32.5370   51.1360 N   0  0  0  0  0  0  0  0  0  0  0  0
   66.1840   32.8580   52.1920 C   0  0  0  0  0  0  0  0  0  0  0  0
   65.7188   32.7042   53.1769 H   0  0  0  0  0  0  0  0  0  0  0  0
   67.0618   32.2022   52.0947 H   0  0  0  0  0  0  0  0  0  0  0  0
   66.4980   33.9077   52.0947 H   0  0  0  0  0  0  0  0  0  0  0  0
   65.6690   33.0700   49.8320 C   0  0  0  0  0  0  0  0  0  0  0  0
   66.1260   34.0583   49.9881 H   0  0  0  0  0  0  0  0  0  0  0  0
   66.4005   32.3683   49.4048 H   0  0  0  0  0  0  0  0  0  0  0  0
   64.4990   33.2090   48.8520 C   0  0  0  0  0  0  0  0  0  0  0  0
   64.8899   33.5399   47.8785 H   0  0  0  0  0  0  0  0  0  0  0  0
   64.0062   32.2287   48.7737 H   0  0  0  0  0  0  0  0  0  0  0  0
   62.1520   32.7270   47.7610 C   0  0  0  0  0  0  0  0  0  0  0  0
   62.2444   33.0859   46.7253 H   0  0  0  0  0  0  0  0  0  0  0  0
   62.9981   32.1047   48.0879 H   0  0  0  0  0  0  0  0  0  0  0  0
   60.9060   31.8300   47.8440 C   0  0  0  0  0  0  0  0  0  0  0  0
   60.8094   31.2620   46.9070 H   0  0  0  0  0  0  0  0  0  0  0  0
   61.0230   31.1486   48.6995 H   0  0  0  0  0  0  0  0  0  0  0  0
   57.7590   31.1710   45.1840 N   0  0  0  0  0  0  0  0  0  0  0  0
   57.3490   32.2970   44.3310 C   0  0  0  0  0  0  0  0  0  0  0  0
   56.2928   32.3075   44.6382 H   0  0  0  0  0  0  0  0  0  0  0  0
   58.1130   32.3680   43.0140 C   0  0  0  0  0  0  0  0  0  0  0  0
   58.8520   31.5922   42.7651 H   0  0  0  0  0  0  0  0  0  0  0  0
   57.8280   32.4379   41.9539 H   0  0  0  0  0  0  0  0  0  0  0  0
   58.4090   33.3710   44.1100 C   0  0  0  0  0  0  0  0  0  0  0  0
   59.3625   33.3226   44.6563 H   0  0  0  0  0  0  0  0  0  0  0  0
   58.4274   34.4690   44.1738 H   0  0  0  0  0  0  0  0  0  0  0  0
   57.6640   29.8520   44.8770 C   0  0  0  0  0  0  0  0  0  0  0  0
   57.1350   29.3800   43.7370 C   0  0  0  0  0  0  0  0  0  0  0  0
   56.7741   30.0784   42.9676 H   0  0  0  0  0  0  0  0  0  0  0  0
   57.0624   28.2948   43.5723 H   0  0  0  0  0  0  0  0  0  0  0  0
  1  2  1  0
  2  3  1  0
  3  4  1  0
  4  5  1  0
  5  6  2  0
  5  7  1  0
  7  8  1  0
  8  9  1  0
  9 10  1  0
  9 11  2  0
 11 12  1  0
 12 13  1  0
 12 14  2  0
 14 15  1  0
 15 16  2  0
 15 17  1  0
 17 18  1  0
 18 19  1  0
 18 20  1  0
 18 21  1  0
 21 22  1  0
 21 23  1  0
 21 24  1  0
 24 25  1  0
 24 26  1  0
 26 27  1  0
 27 28  1  0
 27 29  1  0
 27 30  1  0
 30 31  1  0
 30 32  1  0
 30 33  1  0
 33 34  1  0
 34 35  1  0
 34 36  1  0
 34 37  1  0
 33 38  1  0
 38 39  1  0
 38 40  1  0
 38 41  1  0
 41 42  1  0
 41 43  1  0
 24 44  1  0
 44 45  1  0
 44 46  1  0
 44 47  1  0
 47 48  1  0
 47 49  1  0
 14 50  1  0
 50 51  1  0
 51 52  1  0
 51 53  1  0
 53 54  1  0
 53 55  1  0
 53 56  1  0
 56 57  1  0
 56 58  1  0
 50 59  1  0
 59 60  2  0
 60 61  1  0
 60 62  1  0
  8  3  2  0
 59 11  1  0
 47 17  1  0
 56 51  1  0
 41 26  1  0
M  CHG  2   4  -1   7  -1
M  END
>  <UniqueID>  (5) 
5

>  <SMILES>  (5) 
C=c1/c(=C/c2[n-]c(=O)[n-]c2O)cc(C(=O)N2CCC(N3CCN(C)CC3)CC2)n1C1CC1

>  <Energy>  (5) 
419.2261866420339

>  <Genealogy>  (5) 
C=c1c(=Cc2[n-]c(=O)[n-]c2O)cc(C(=O)N2CCC(N3CCN(C)CC3)CC2)n1C1CC1 (protonated)
C=c1/c(=C/c2[n-]c(=O)[n-]c2O)cc(C(=O)N2CCC(N3CCN(C)CC3)CC2)n1C1CC1 (cis-trans isomerization)
C=c1/c(=C/c2[n-]c(=O)[n-]c2O)cc(C(=O)N2CCC(N3CCN(C)CC3)CC2)n1C1CC1 (3D coordinates assigned)
C=c1/c(=C/c2[n-]c(=O)[n-]c2O)cc(C(=O)N2CCC(N3CCN(C)CC3)CC2)n1C1CC1 (nonaromatic ring conformer: 419.2261866420339 kcal/mol)

>  <smiles>  (5) 
C=c1c(=Cc2[nH]c(=O)[nH]c2O)cc(C(=O)N2CCC(N3CCN(C)CC3)CC2)n1C1CC1

>  <score_type>  (5) 
oracle

>  <origin>  (5) 
adg

>  <m_score__min__energy>  (5) 
-13.800000000000001

>  <m_primary>  (5) 
energy

$$$$
5:0
     RDKit          3D

 47 50  0  0  0  0  0  0  0  0999 V2000
   57.0030   34.3240   45.5640 O   0  0  0  0  0  0  0  0  0  0  0  0
   58.0110   33.8140   45.0040 C   0  0  0  0  0  0  0  0  0  0  0  0
   59.2830   34.6150   44.9950 C   0  0  0  0  0  0  0  0  0  0  0  0
   60.4380   33.8780   45.6860 C   0  0  0  0  0  0  0  0  0  0  0  0
   60.7190   34.4920   47.0080 N   0  0  0  0  0  0  0  0  0  0  0  0
   59.5180   34.5600   47.8730 C   0  0  0  0  0  0  0  0  0  0  0  0
   59.3320   33.2840   48.7200 C   0  0  0  0  0  0  0  0  0  0  0  0
   60.0260   32.1950   48.1490 O   0  0  0  0  0  0  0  0  0  0  0  0
   61.4230   32.4210   48.2220 C   0  0  0  0  0  0  0  0  0  0  0  0
   61.8300   33.8260   47.7140 C   0  0  0  0  0  0  0  0  0  0  0  0
   57.8850   32.4470   44.4350 C   0  0  0  0  0  0  0  0  0  0  0  0
   57.6590   32.1960   43.0830 C   0  0  0  0  0  0  0  0  0  0  0  0
   57.5710   30.8720   42.8450 N   0  0  0  0  0  0  0  0  0  0  0  0
   57.7410   30.2690   44.0310 C   0  0  0  0  0  0  0  0  0  0  0  0
   57.7290   28.8960   44.2690 C   0  0  0  0  0  0  0  0  0  0  0  0
   57.9270   28.4390   45.5890 C   0  0  0  0  0  0  0  0  0  0  0  0
   57.9200   26.9840   45.8900 C   0  0  0  0  0  0  0  0  0  0  0  0
   56.7460   26.3540   46.3440 C   0  0  0  0  0  0  0  0  0  0  0  0
   56.7400   24.9840   46.6260 C   0  0  0  0  0  0  0  0  0  0  0  0
   57.9050   24.2290   46.4580 C   0  0  0  0  0  0  0  0  0  0  0  0
   57.8970   22.8680   46.7390 O   0  0  0  0  0  0  0  0  0  0  0  0
   59.0750   24.8440   46.0100 C   0  0  0  0  0  0  0  0  0  0  0  0
   59.0860   26.2130   45.7250 C   0  0  0  0  0  0  0  0  0  0  0  0
   58.1340   29.3840   46.6250 C   0  0  0  0  0  0  0  0  0  0  0  0
   58.1440   30.7630   46.3550 C   0  0  0  0  0  0  0  0  0  0  0  0
   57.9380   31.1870   45.0370 C   0  0  0  0  0  0  0  0  0  0  0  0
   59.5663   34.8179   43.9517 H   0  0  0  0  0  0  0  0  0  0  0  0
   59.0985   35.5473   45.5488 H   0  0  0  0  0  0  0  0  0  0  0  0
   60.1631   32.8222   45.8266 H   0  0  0  0  0  0  0  0  0  0  0  0
   61.3378   33.9509   45.0575 H   0  0  0  0  0  0  0  0  0  0  0  0
   59.6177   35.4218   48.5493 H   0  0  0  0  0  0  0  0  0  0  0  0
   58.6387   34.6608   47.2198 H   0  0  0  0  0  0  0  0  0  0  0  0
   59.7179   33.4653   49.7340 H   0  0  0  0  0  0  0  0  0  0  0  0
   58.2603   33.0385   48.7552 H   0  0  0  0  0  0  0  0  0  0  0  0
   61.7412   32.3203   49.2701 H   0  0  0  0  0  0  0  0  0  0  0  0
   61.9132   31.6793   47.5742 H   0  0  0  0  0  0  0  0  0  0  0  0
   62.1277   34.4439   48.5740 H   0  0  0  0  0  0  0  0  0  0  0  0
   62.6645   33.7075   47.0072 H   0  0  0  0  0  0  0  0  0  0  0  0
   57.5649   32.9750   42.3121 H   0  0  0  0  0  0  0  0  0  0  0  0
   57.4040   30.4140   41.9220 H   0  0  0  0  0  0  0  0  0  0  0  0
   57.5687   28.1842   43.4458 H   0  0  0  0  0  0  0  0  0  0  0  0
   55.8268   26.9432   46.4780 H   0  0  0  0  0  0  0  0  0  0  0  0
   55.8179   24.5000   46.9803 H   0  0  0  0  0  0  0  0  0  0  0  0
   59.9916   24.2498   45.8806 H   0  0  0  0  0  0  0  0  0  0  0  0
   60.0113   26.6901   45.3698 H   0  0  0  0  0  0  0  0  0  0  0  0
   58.2891   29.0326   47.6558 H   0  0  0  0  0  0  0  0  0  0  0  0
   58.3100   31.4928   47.1612 H   0  0  0  0  0  0  0  0  0  0  0  0
  1  2  2  0
  2  3  1  0
  3  4  1  0
  4  5  1  0
  5  6  1  0
  6  7  1  0
  7  8  1  0
  8  9  1  0
  9 10  1  0
  2 11  1  0
 11 12  2  0
 12 13  1  0
 13 14  1  0
 14 15  2  0
 15 16  1  0
 16 17  1  0
 17 18  2  0
 18 19  1  0
 19 20  2  0
 20 21  1  0
 20 22  1  0
 22 23  2  0
 16 24  2  0
 24 25  1  0
 25 26  2  0
 10  5  1  0
 26 11  1  0
 26 14  1  0
 23 17  1  0
  3 27  1  0
  3 28  1  0
  4 29  1  0
  4 30  1  0
  6 31  1  0
  6 32  1  0
  7 33  1  0
  7 34  1  0
  9 35  1  0
  9 36  1  0
 10 37  1  0
 10 38  1  0
 12 39  1  0
 13 40  1  0
 15 41  1  0
 18 42  1  0
 19 43  1  0
 22 44  1  0
 23 45  1  0
 24 46  1  0
 25 47  1  0
M  CHG  1  21  -1
M  END
>  <UniqueID>  (6) 
6

>  <SMILES>  (6) 
O=C(CCN1CCOCC1)c1c[nH]c2cc(-c3ccc([O-])cc3)ccc12

>  <Energy>  (6) 
102.07147440417941

>  <Genealogy>  (6) 
O=C(CCN1CCOCC1)c1c[nH]c2cc(-c3ccc([O-])cc3)ccc12 (protonated)
O=C(CCN1CCOCC1)c1c[nH]c2cc(-c3ccc([O-])cc3)ccc12 (3D coordinates assigned)
O=C(CCN1CCOCC1)c1c[nH]c2cc(-c3ccc([O-])cc3)ccc12 (nonaromatic ring conformer: 102.07147440417941 kcal/mol)

>  <smiles>  (6) 
O=C(CCN1CCOCC1)c1c[nH]c2cc(-c3ccc(O)cc3)ccc12

>  <score_type>  (6) 
oracle

>  <origin>  (6) 
adg

>  <m_score__min__energy>  (6) 
-9.6400000000000006

>  <m_primary>  (6) 
energy

$$$$
6:0
     RDKit          3D

 60 63  0  0  0  0  0  0  0  0999 V2000
   68.4250   27.5500   49.7440 C   0  0  0  0  0  0  0  0  0  0  0  0
   67.1040   26.9120   50.1820 C   0  0  0  0  0  0  0  0  0  0  0  0
   67.1970   26.3070   51.5350 N   0  0  0  0  0  0  0  0  0  0  0  0
   68.0280   27.1350   52.4510 C   0  0  0  0  0  0  0  0  0  0  0  0
   67.2100   28.0390   53.3970 C   0  0  0  0  0  0  0  0  0  0  0  0
   65.8990   28.3490   52.8150 N   0  0  0  0  0  0  0  0  0  0  0  0
   65.3890   29.6950   52.7570 C   0  0  0  0  0  0  0  0  0  0  0  0
   64.1530   29.8980   52.9150 O   0  0  0  0  0  0  0  0  0  0  0  0
   66.3060   30.8660   52.5280 C   0  0  0  0  0  0  0  0  0  0  0  0
   65.8390   31.6980   51.3760 C   0  0  0  0  0  0  0  0  0  0  0  0
   64.5540   31.7840   50.9810 N   0  0  0  0  0  0  0  0  0  0  0  0
   64.5730   32.6460   49.9460 C   0  0  0  0  0  0  0  0  0  0  0  0
   63.3830   33.0690   49.1670 C   0  0  0  0  0  0  0  0  0  0  0  0
   63.4050   33.0530   47.7610 C   0  0  0  0  0  0  0  0  0  0  0  0
   62.2860   33.4560   47.0280 C   0  0  0  0  0  0  0  0  0  0  0  0
   61.1230   33.8760   47.6860 C   0  0  0  0  0  0  0  0  0  0  0  0
   59.7090   34.3780   46.7560 S   0  0  0  0  0  0  0  0  0  0  0  0
   58.5600   34.6260   47.6940 O   0  0  0  0  0  0  0  0  0  0  0  0
   60.0180   35.6680   46.0490 O   0  0  0  0  0  0  0  0  0  0  0  0
   59.2420   33.1750   45.5790 N   0  0  0  0  0  0  0  0  0  0  0  0
   58.4540   32.1100   46.2140 C   0  0  0  0  0  0  0  0  0  0  0  0
   58.0990   31.0300   45.1700 C   0  0  0  0  0  0  0  0  0  0  0  0
   58.3850   31.4440   43.8430 O   0  0  0  0  0  0  0  0  0  0  0  0
   57.8130   32.7150   43.6020 C   0  0  0  0  0  0  0  0  0  0  0  0
   58.4770   33.7920   44.4820 C   0  0  0  0  0  0  0  0  0  0  0  0
   61.0920   33.8960   49.0860 C   0  0  0  0  0  0  0  0  0  0  0  0
   62.2120   33.4970   49.8220 C   0  0  0  0  0  0  0  0  0  0  0  0
   65.8810   33.0560   49.7530 C   0  0  0  0  0  0  0  0  0  0  0  0
   66.6300   32.4550   50.6500 O   0  0  0  0  0  0  0  0  0  0  0  0
   65.0410   27.2350   52.3970 C   0  0  0  0  0  0  0  0  0  0  0  0
   65.8830   25.9760   52.1330 C   0  0  0  0  0  0  0  0  0  0  0  0
   69.0085   27.8318   50.6328 H   0  0  0  0  0  0  0  0  0  0  0  0
   68.9984   26.8295   49.1422 H   0  0  0  0  0  0  0  0  0  0  0  0
   68.2172   28.4470   49.1422 H   0  0  0  0  0  0  0  0  0  0  0  0
   66.3226   27.6862   50.1927 H   0  0  0  0  0  0  0  0  0  0  0  0
   66.8622   26.1104   49.4686 H   0  0  0  0  0  0  0  0  0  0  0  0
   68.6437   26.4604   53.0640 H   0  0  0  0  0  0  0  0  0  0  0  0
   68.6316   27.8015   51.8175 H   0  0  0  0  0  0  0  0  0  0  0  0
   67.0655   27.5204   54.3563 H   0  0  0  0  0  0  0  0  0  0  0  0
   67.7598   28.9794   53.5499 H   0  0  0  0  0  0  0  0  0  0  0  0
   66.3278   31.4880   53.4350 H   0  0  0  0  0  0  0  0  0  0  0  0
   67.3112   30.4830   52.2978 H   0  0  0  0  0  0  0  0  0  0  0  0
   63.7350   31.3030   51.4140 H   0  0  0  0  0  0  0  0  0  0  0  0
   64.3112   32.7203   47.2337 H   0  0  0  0  0  0  0  0  0  0  0  0
   62.3185   33.4434   45.9286 H   0  0  0  0  0  0  0  0  0  0  0  0
   59.0415   31.6550   47.0251 H   0  0  0  0  0  0  0  0  0  0  0  0
   57.5272   32.5384   46.6234 H   0  0  0  0  0  0  0  0  0  0  0  0
   58.6801   30.1222   45.3896 H   0  0  0  0  0  0  0  0  0  0  0  0
   57.0171   30.8427   45.2365 H   0  0  0  0  0  0  0  0  0  0  0  0
   57.9531   32.9782   42.5432 H   0  0  0  0  0  0  0  0  0  0  0  0
   56.7418   32.6710   43.8481 H   0  0  0  0  0  0  0  0  0  0  0  0
   59.1577   34.3942   43.8623 H   0  0  0  0  0  0  0  0  0  0  0  0
   57.6899   34.4265   44.9154 H   0  0  0  0  0  0  0  0  0  0  0  0
   60.1826   34.2270   49.6089 H   0  0  0  0  0  0  0  0  0  0  0  0
   62.1782   33.5176   50.9213 H   0  0  0  0  0  0  0  0  0  0  0  0
   66.2315   33.7605   48.9844 H   0  0  0  0  0  0  0  0  0  0  0  0
   64.3112   27.0222   53.1921 H   0  0  0  0  0  0  0  0  0  0  0  0
   64.5205   27.5157   51.4695 H   0  0  0  0  0  0  0  0  0  0  0  0
   66.0477   25.4518   53.0859 H   0  0  0  0  0  0  0  0  0  0  0  0
   65.3343   25.3414   51.4216 H   0  0  0  0  0  0  0  0  0  0  0  0
  1  2  1  0
  2  3  1  0
  3  4  1  0
  4  5  1  0
  5  6  1  0
  6  7  1  0
  7  8  2  0
  7  9  1  0
  9 10  1  0
 10 11  2  0
 11 12  1  0
 12 13  1  0
 13 14  2  0
 14 15  1  0
 15 16  2  0
 16 17  1  0
 17 18  2  0
 17 19  2  0
 17 20  1  0
 20 21  1  0
 21 22  1  0
 22 23  1  0
 23 24  1  0
 24 25  1  0
 16 26  1  0
 26 27  2  0
 12 28  2  0
 28 29  1  0
  6 30  1  0
 30 31  1  0
 31  3  1  0
 29 10  1  0
 27 13  1  0
 25 20  1  0
  1 32  1  0
  1 33  1  0
  1 34  1  0
  2 35  1  0
  2 36  1  0
  4 37  1  0
  4 38  1  0
  5 39  1  0
  5 40  1  0
  9 41  1  0
  9 42  1  0
 11 43  1  0
 14 44  1  0
 15 45  1  0
 21 46  1  0
 21 47  1  0
 22 48  1  0
 22 49  1  0
 24 50  1  0
 24 51  1  0
 25 52  1  0
 25 53  1  0
 26 54  1  0
 27 55  1  0
 28 56  1  0
 30 57  1  0
 30 58  1  0
 31 59  1  0
 31 60  1  0
M  CHG  1  11   1
M  END
>  <UniqueID>  (7) 
7

>  <SMILES>  (7) 
CCN1CCN(C(=O)Cc2[nH+]c(-c3ccc(S(=O)(=O)N4CCOCC4)cc3)co2)CC1

>  <Energy>  (7) 
109.57286945580897

>  <Genealogy>  (7) 
CCN1CCN(C(=O)Cc2[nH+]c(-c3ccc(S(=O)(=O)N4CCOCC4)cc3)co2)CC1 (protonated)
CCN1CCN(C(=O)Cc2[nH+]c(-c3ccc(S(=O)(=O)N4CCOCC4)cc3)co2)CC1 (3D coordinates assigned)
CCN1CCN(C(=O)Cc2[nH+]c(-c3ccc(S(=O)(=O)N4CCOCC4)cc3)co2)CC1 (nonaromatic ring conformer: 109.57286945580897 kcal/mol)

>  <smiles>  (7) 
CCN1CCN(C(=O)Cc2nc(-c3ccc(S(=O)(=O)N4CCOCC4)cc3)co2)CC1

>  <score_type>  (7) 
oracle

>  <origin>  (7) 
adg

>  <m_score__min__energy>  (7) 
-7.5

>  <m_primary>  (7) 
energy

$$$$
7:0
     RDKit          3D

 49 51  0  0  0  0  0  0  0  0999 V2000
   55.7190   27.0880   45.9830 O   0  0  0  0  0  0  0  0  0  0  0  0
   56.3630   27.9500   45.3230 C   0  0  0  0  0  0  0  0  0  0  0  0
   57.7850   27.6920   44.9330 C   0  0  0  0  0  0  0  0  0  0  0  0
   58.7330   28.4930   45.7880 C   0  0  0  0  0  0  0  0  0  0  0  0
   59.7850   29.2120   45.1970 C   0  0  0  0  0  0  0  0  0  0  0  0
   60.6450   29.9820   45.9850 C   0  0  0  0  0  0  0  0  0  0  0  0
   60.4600   30.0620   47.3770 C   0  0  0  0  0  0  0  0  0  0  0  0
   61.3530   30.8430   48.1970 N   0  0  0  0  0  0  0  0  0  0  0  0
   61.6630   30.5540   49.5900 C   0  0  0  0  0  0  0  0  0  0  0  0
   62.8330   31.4820   49.9680 C   0  0  0  0  0  0  0  0  0  0  0  0
   62.9600   32.5280   48.8490 C   0  0  0  0  0  0  0  0  0  0  0  0
   62.0590   32.0090   47.7990 C   0  0  0  0  0  0  0  0  0  0  0  0
   61.8800   32.5880   46.6940 O   0  0  0  0  0  0  0  0  0  0  0  0
   59.4070   29.3370   47.9650 C   0  0  0  0  0  0  0  0  0  0  0  0
   58.5460   28.5680   47.1760 C   0  0  0  0  0  0  0  0  0  0  0  0
   55.7600   29.2060   44.9980 N   0  0  0  0  0  0  0  0  0  0  0  0
   55.6840   29.7150   43.6350 C   0  0  0  0  0  0  0  0  0  0  0  0
   56.6070   30.8810   43.4890 C   0  0  0  0  0  0  0  0  0  0  0  0
   57.0100   31.2130   42.3410 O   0  0  0  0  0  0  0  0  0  0  0  0
   56.9970   31.6400   44.6430 N   0  0  0  0  0  0  0  0  0  0  0  0
   57.8320   32.8360   44.5510 C   0  0  0  0  0  0  0  0  0  0  0  0
   58.3450   33.2180   45.9130 C   0  0  0  0  0  0  0  0  0  0  0  0
   59.1330   34.3700   46.0700 C   0  0  0  0  0  0  0  0  0  0  0  0
   59.6330   34.7170   47.3290 C   0  0  0  0  0  0  0  0  0  0  0  0
   59.3520   33.9140   48.4400 C   0  0  0  0  0  0  0  0  0  0  0  0
   59.8330   34.2540   49.6610 F   0  0  0  0  0  0  0  0  0  0  0  0
   58.5780   32.7590   48.2890 C   0  0  0  0  0  0  0  0  0  0  0  0
   58.0790   32.4090   47.0310 C   0  0  0  0  0  0  0  0  0  0  0  0
   58.0040   26.6214   45.0589 H   0  0  0  0  0  0  0  0  0  0  0  0
   57.9207   27.9921   43.8835 H   0  0  0  0  0  0  0  0  0  0  0  0
   59.9328   29.1688   44.1078 H   0  0  0  0  0  0  0  0  0  0  0  0
   61.4735   30.5301   45.5126 H   0  0  0  0  0  0  0  0  0  0  0  0
   60.7901   30.7614   50.2264 H   0  0  0  0  0  0  0  0  0  0  0  0
   61.9271   29.4957   49.7320 H   0  0  0  0  0  0  0  0  0  0  0  0
   62.6257   31.9789   50.9272 H   0  0  0  0  0  0  0  0  0  0  0  0
   63.7665   30.9104   50.0774 H   0  0  0  0  0  0  0  0  0  0  0  0
   62.6319   33.5189   49.1960 H   0  0  0  0  0  0  0  0  0  0  0  0
   63.9946   32.6647   48.5012 H   0  0  0  0  0  0  0  0  0  0  0  0
   59.2600   29.3755   49.0544 H   0  0  0  0  0  0  0  0  0  0  0  0
   57.7173   28.0187   47.6466 H   0  0  0  0  0  0  0  0  0  0  0  0
   55.9785   28.9232   42.9305 H   0  0  0  0  0  0  0  0  0  0  0  0
   54.6534   30.0325   43.4181 H   0  0  0  0  0  0  0  0  0  0  0  0
   56.6620   31.3380   45.5870 H   0  0  0  0  0  0  0  0  0  0  0  0
   58.6841   32.6338   43.8854 H   0  0  0  0  0  0  0  0  0  0  0  0
   57.2296   33.6641   44.1492 H   0  0  0  0  0  0  0  0  0  0  0  0
   59.3579   35.0023   45.1984 H   0  0  0  0  0  0  0  0  0  0  0  0
   60.2476   35.6218   47.4461 H   0  0  0  0  0  0  0  0  0  0  0  0
   58.3616   32.1250   49.1615 H   0  0  0  0  0  0  0  0  0  0  0  0
   57.4756   31.4965   46.9156 H   0  0  0  0  0  0  0  0  0  0  0  0
  1  2  2  0
  2  3  1  0
  3  4  1  0
  4  5  2  0
  5  6  1  0
  6  7  2  0
  7  8  1  0
  8  9  1  0
  9 10  1  0
 10 11  1  0
 11 12  1  0
 12 13  2  0
  7 14  1  0
 14 15  2  0
  2 16  1  0
 16 17  1  0
 17 18  1  0
 18 19  2  0
 18 20  1  0
 20 21  1  0
 21 22  1  0
 22 23  2  0
 23 24  1  0
 24 25  2  0
 25 26  1  0
 25 27  1  0
 27 28  2  0
 15  4  1  0
 28 22  1  0
 12  8  1  0
  3 29  1  0
  3 30  1  0
  5 31  1  0
  6 32  1  0
  9 33  1  0
  9 34  1  0
 10 35  1  0
 10 36  1  0
 11 37  1  0
 11 38  1  0
 14 39  1  0
 15 40  1  0
 17 41  1  0
 17 42  1  0
 20 43  1  0
 21 44  1  0
 21 45  1  0
 23 46  1  0
 24 47  1  0
 27 48  1  0
 28 49  1  0
M  CHG  1  16  -1
M  END
>  <UniqueID>  (8) 
8

>  <SMILES>  (8) 
O=C(Cc1ccc(N2CCCC2=O)cc1)[N-]CC(=O)NCc1ccc(F)cc1

>  <Energy>  (8) 
52.844781450981934

>  <Genealogy>  (8) 
O=C(Cc1ccc(N2CCCC2=O)cc1)[N-]CC(=O)NCc1ccc(F)cc1 (protonated)
O=C(Cc1ccc(N2CCCC2=O)cc1)[N-]CC(=O)NCc1ccc(F)cc1 (3D coordinates assigned)
O=C(Cc1ccc(N2CCCC2=O)cc1)[N-]CC(=O)NCc1ccc(F)cc1 (nonaromatic ring conformer: 52.844781450981934 kcal/mol)

>  <smiles>  (8) 
O=C(CNC(=O)Cc1ccc(N2CCCC2=O)cc1)NCc1ccc(F)cc1

>  <score_type>  (8) 
oracle

>  <origin>  (8) 
adg

>  <m_score__min__energy>  (8) 
-10.300000000000001

>  <m_primary>  (8) 
energy

$$$$
8:0
     RDKit          3D

 42 43  0  0  0  0  0  0  0  0999 V2000
   56.1430   30.4570   43.9760 C   0  0  0  0  0  0  0  0  0  0  0  0
   56.9820   31.1760   44.8740 O   0  0  0  0  0  0  0  0  0  0  0  0
   57.7540   32.2700   44.4710 C   0  0  0  0  0  0  0  0  0  0  0  0
   58.3370   32.2560   43.3540 O   0  0  0  0  0  0  0  0  0  0  0  0
   57.8290   33.4520   45.3490 C   0  0  0  0  0  0  0  0  0  0  0  0
   57.4470   34.5580   44.8800 O   0  0  0  0  0  0  0  0  0  0  0  0
   58.3190   33.4100   46.7520 C   0  0  0  0  0  0  0  0  0  0  0  0
   59.1130   34.5720   47.3310 C   0  0  0  0  0  0  0  0  0  0  0  0
   60.5660   34.2030   47.5000 C   0  0  0  0  0  0  0  0  0  0  0  0
   61.1610   34.2140   48.7740 C   0  0  0  0  0  0  0  0  0  0  0  0
   62.5100   33.8780   48.9250 C   0  0  0  0  0  0  0  0  0  0  0  0
   63.2730   33.5240   47.8100 C   0  0  0  0  0  0  0  0  0  0  0  0
   62.6890   33.5030   46.5410 C   0  0  0  0  0  0  0  0  0  0  0  0
   61.3410   33.8400   46.3850 C   0  0  0  0  0  0  0  0  0  0  0  0
   58.0560   32.3270   47.4350 N   0  0  0  0  0  0  0  0  0  0  0  0
   58.9450   31.4930   48.1970 C   0  0  0  0  0  0  0  0  0  0  0  0
   59.4720   31.9190   49.2600 O   0  0  0  0  0  0  0  0  0  0  0  0
   59.4000   30.1720   47.6190 C   0  0  2  0  0  0  0  0  0  0  0  0
   59.2150   29.0340   48.6360 C   0  0  0  0  0  0  0  0  0  0  0  0
   60.8840   30.2630   47.1300 C   0  0  0  0  0  0  0  0  0  0  0  0
   60.8420   30.0100   45.7300 O   0  0  0  0  0  0  0  0  0  0  0  0
   59.5430   29.7830   45.3420 C   0  0  0  0  0  0  0  0  0  0  0  0
   59.1930   29.5260   44.1220 N   0  0  0  0  0  0  0  0  0  0  0  0
   58.6340   29.8630   46.4150 N   0  0  0  0  0  0  0  0  0  0  0  0
   55.4303   29.8462   44.5496 H   0  0  0  0  0  0  0  0  0  0  0  0
   55.5908   31.1666   43.3423 H   0  0  0  0  0  0  0  0  0  0  0  0
   56.7597   29.8027   43.3423 H   0  0  0  0  0  0  0  0  0  0  0  0
   59.0374   35.4335   46.6512 H   0  0  0  0  0  0  0  0  0  0  0  0
   58.6979   34.8226   48.3184 H   0  0  0  0  0  0  0  0  0  0  0  0
   60.5628   34.4881   49.6555 H   0  0  0  0  0  0  0  0  0  0  0  0
   62.9710   33.8925   49.9236 H   0  0  0  0  0  0  0  0  0  0  0  0
   64.3344   33.2616   47.9311 H   0  0  0  0  0  0  0  0  0  0  0  0
   63.2901   33.2211   45.6640 H   0  0  0  0  0  0  0  0  0  0  0  0
   60.8846   33.8209   45.3843 H   0  0  0  0  0  0  0  0  0  0  0  0
   59.2810   29.4398   49.6563 H   0  0  0  0  0  0  0  0  0  0  0  0
   58.2293   28.5681   48.4897 H   0  0  0  0  0  0  0  0  0  0  0  0
   60.0023   28.2799   48.4897 H   0  0  0  0  0  0  0  0  0  0  0  0
   61.2924   31.2652   47.3270 H   0  0  0  0  0  0  0  0  0  0  0  0
   61.5301   29.5436   47.6544 H   0  0  0  0  0  0  0  0  0  0  0  0
   59.5960   28.7040   43.6220 H   0  0  0  0  0  0  0  0  0  0  0  0
   58.5070   30.1360   43.6260 H   0  0  0  0  0  0  0  0  0  0  0  0
   57.5990   29.7260   46.3580 H   0  0  0  0  0  0  0  0  0  0  0  0
  1  2  1  0
  2  3  1  0
  3  4  2  0
  3  5  1  0
  5  6  2  0
  5  7  1  0
  7  8  1  0
  8  9  1  0
  9 10  2  0
 10 11  1  0
 11 12  2  0
 12 13  1  0
 13 14  2  0
  7 15  2  3
 15 16  1  0
 16 17  2  0
 16 18  1  0
 18 19  1  1
 18 20  1  0
 20 21  1  0
 21 22  1  0
 22 23  2  0
 22 24  1  0
 14  9  1  0
 24 18  1  0
  1 25  1  0
  1 26  1  0
  1 27  1  0
  8 28  1  0
  8 29  1  0
 10 30  1  0
 11 31  1  0
 12 32  1  0
 13 33  1  0
 14 34  1  0
 19 35  1  0
 19 36  1  0
 19 37  1  0
 20 38  1  0
 20 39  1  0
 23 40  1  0
 23 41  1  0
 24 42  1  0
M  CHG  1  23   1
M  END
>  <UniqueID>  (9) 
9

>  <SMILES>  (9) 
COC(=O)C(=O)C(Cc1ccccc1)=NC(=O)[C@]1(C)COC(=[NH2+])N1

>  <Energy>  (9) 
60.01998721528986

>  <Genealogy>  (9) 
COC(=O)C(=O)C(Cc1ccccc1)=NC(=O)C1(C)COC(=[NH2+])N1 (protonated)
COC(=O)C(=O)C(Cc1ccccc1)=NC(=O)[C@]1(C)COC(=[NH2+])N1 (chirality)
COC(=O)C(=O)C(Cc1ccccc1)=NC(=O)[C@]1(C)COC(=[NH2+])N1 (3D coordinates assigned)
COC(=O)C(=O)C(Cc1ccccc1)=NC(=O)[C@]1(C)COC(=[NH2+])N1 (nonaromatic ring conformer: 60.01998721528986 kcal/mol)

>  <smiles>  (9) 
COC(=O)C(=O)C(Cc1ccccc1)=NC(=O)C1(C)COC(=N)N1

>  <score_type>  (9) 
oracle

>  <origin>  (9) 
adg

>  <m_score__min__energy>  (9) 
-5.1799999999999997

>  <m_primary>  (9) 
energy

$$$$
9:0
     RDKit          3D

 46 48  0  0  0  0  0  0  0  0999 V2000
   57.0043   31.2570   41.3686 H   0  0  0  0  0  0  0  0  0  0  0  0
   57.1120   31.2030   42.4620 C   0  0  0  0  0  0  0  0  0  0  0  0
   56.6010   30.1430   43.1400 N   0  0  0  0  0  0  0  0  0  0  0  0
   56.7130   30.0260   44.4890 C   0  0  0  0  0  0  0  0  0  0  0  0
   56.1890   28.9830   45.0690 N   0  0  0  0  0  0  0  0  0  0  0  0
   56.9160   27.8130   45.5620 C   0  0  0  0  0  0  0  0  0  0  0  0
   56.3193   26.9091   45.3700 H   0  0  0  0  0  0  0  0  0  0  0  0
   57.0893   27.9319   46.6417 H   0  0  0  0  0  0  0  0  0  0  0  0
   58.2760   27.6820   44.8520 C   0  0  0  0  0  0  0  0  0  0  0  0
   58.2528   28.3120   43.9506 H   0  0  0  0  0  0  0  0  0  0  0  0
   58.4074   26.6121   44.6326 H   0  0  0  0  0  0  0  0  0  0  0  0
   59.4470   28.0860   45.6660 N   0  0  0  0  0  0  0  0  0  0  0  0
   59.0800   28.6740   46.9620 C   0  0  0  0  0  0  0  0  0  0  0  0
   59.4727   28.0449   47.7744 H   0  0  0  0  0  0  0  0  0  0  0  0
   59.5083   29.6841   47.0408 H   0  0  0  0  0  0  0  0  0  0  0  0
   57.9844   28.7331   47.0408 H   0  0  0  0  0  0  0  0  0  0  0  0
   60.3900   28.9480   44.9340 C   0  0  0  0  0  0  0  0  0  0  0  0
   61.0054   29.5105   45.6516 H   0  0  0  0  0  0  0  0  0  0  0  0
   61.0405   28.3258   44.3018 H   0  0  0  0  0  0  0  0  0  0  0  0
   59.8286   29.6516   44.3018 H   0  0  0  0  0  0  0  0  0  0  0  0
   57.3820   31.0340   45.2140 C   0  0  0  0  0  0  0  0  0  0  0  0
   57.4894   30.9477   46.3053 H   0  0  0  0  0  0  0  0  0  0  0  0
   57.9110   32.1480   44.5420 C   0  0  0  0  0  0  0  0  0  0  0  0
   58.6000   33.2130   45.3150 C   0  0  0  0  0  0  0  0  0  0  0  0
   58.6340   33.1860   46.6760 N   0  0  0  0  0  0  0  0  0  0  0  0
   59.2670   34.2620   47.1870 C   0  0  0  0  0  0  0  0  0  0  0  0
   59.4150   34.4780   48.4580 N   0  0  0  0  0  0  0  0  0  0  0  0
   60.2880   33.6900   49.3290 C   0  0  0  0  0  0  0  0  0  0  0  0
   60.6083   34.3141   50.1763 H   0  0  0  0  0  0  0  0  0  0  0  0
   59.7272   32.8132   49.6850 H   0  0  0  0  0  0  0  0  0  0  0  0
   61.5060   33.2090   48.5840 C   0  0  0  0  0  0  0  0  0  0  0  0
   61.5170   31.9470   47.9700 C   0  0  0  0  0  0  0  0  0  0  0  0
   60.6313   31.2969   48.0244 H   0  0  0  0  0  0  0  0  0  0  0  0
   62.6610   31.5220   47.2890 C   0  0  0  0  0  0  0  0  0  0  0  0
   62.6748   30.5362   46.8012 H   0  0  0  0  0  0  0  0  0  0  0  0
   63.7580   32.3250   47.2280 N   0  0  0  0  0  0  0  0  0  0  0  0
   64.6060   31.9920   46.7170 H   0  0  0  0  0  0  0  0  0  0  0  0
   63.7740   33.5510   47.8160 C   0  0  0  0  0  0  0  0  0  0  0  0
   64.6754   34.1781   47.7519 H   0  0  0  0  0  0  0  0  0  0  0  0
   62.6480   34.0170   48.5020 C   0  0  0  0  0  0  0  0  0  0  0  0
   62.6586   35.0106   48.9738 H   0  0  0  0  0  0  0  0  0  0  0  0
   59.8160   35.2970   45.9900 S   0  0  0  0  0  0  0  0  0  0  0  0
   59.2210   34.3300   44.7450 C   0  0  0  0  0  0  0  0  0  0  0  0
   59.3061   34.5406   43.6687 H   0  0  0  0  0  0  0  0  0  0  0  0
   57.7730   32.2240   43.1460 C   0  0  0  0  0  0  0  0  0  0  0  0
   58.1836   33.0832   42.5954 H   0  0  0  0  0  0  0  0  0  0  0  0
  1  2  1  0
  2  3  1  0
  3  4  1  0
  4  5  2  0
  5  6  1  0
  6  7  1  0
  6  8  1  0
  6  9  1  0
  9 10  1  0
  9 11  1  0
  9 12  1  0
 12 13  1  0
 13 14  1  0
 13 15  1  0
 13 16  1  0
 12 17  1  0
 17 18  1  0
 17 19  1  0
 17 20  1  0
  4 21  1  0
 21 22  1  0
 21 23  2  0
 23 24  1  0
 24 25  1  0
 25 26  1  0
 26 27  2  0
 27 28  1  0
 28 29  1  0
 28 30  1  0
 28 31  1  0
 31 32  2  0
 32 33  1  0
 32 34  1  0
 34 35  1  0
 34 36  2  0
 36 37  1  0
 36 38  1  0
 38 39  1  0
 38 40  2  0
 40 41  1  0
 26 42  1  0
 42 43  1  0
 43 44  1  0
 23 45  1  0
 45 46  1  0
 45  2  2  0
 43 24  2  0
 40 31  1  0
M  CHG  3   3  -1  25  -1  36   1
M  END
>  <UniqueID>  (10) 
10

>  <SMILES>  (10) 
CN(C)CC/N=c1\cc(-c2cs/c(=N/Cc3cc[nH+]cc3)[n-]2)cc[n-]1

>  <Energy>  (10) 
81.23221169751335

>  <Genealogy>  (10) 
CN(C)CCN=c1cc(-c2csc(=NCc3cc[nH+]cc3)[n-]2)cc[n-]1 (protonated)
CN(C)CC/N=c1\cc(-c2cs/c(=N/Cc3cc[nH+]cc3)[n-]2)cc[n-]1 (cis-trans isomerization)
CN(C)CC/N=c1\cc(-c2cs/c(=N/Cc3cc[nH+]cc3)[n-]2)cc[n-]1 (3D coordinates assigned)
CN(C)CC/N=c1\cc(-c2cs/c(=N/Cc3cc[nH+]cc3)[n-]2)cc[n-]1 (optimized conformer: 81.23221169751335 kcal/mol)

>  <smiles>  (10) 
CN(C)CCN=c1cc(-c2csc(=NCc3ccncc3)[nH]2)cc[nH]1

>  <score_type>  (10) 
oracle

>  <origin>  (10) 
adg

>  <m_score__min__energy>  (10) 
-9.8699999999999992

>  <m_primary>  (10) 
energy

$$$$
10:0
     RDKit          3D

 50 52  0  0  0  0  0  0  0  0999 V2000
   62.8160   33.8400   49.0300 C   0  0  0  0  0  0  0  0  0  0  0  0
   61.5880   33.7680   48.1720 C   0  0  0  0  0  0  0  0  0  0  0  0
   61.6970   33.8520   46.7750 C   0  0  0  0  0  0  0  0  0  0  0  0
   60.5510   33.8210   45.9750 C   0  0  0  0  0  0  0  0  0  0  0  0
   59.2820   33.7180   46.5640 C   0  0  0  0  0  0  0  0  0  0  0  0
   57.8330   33.6620   45.5640 S   0  0  0  0  0  0  0  0  0  0  0  0
   57.6580   34.9600   44.8270 O   0  0  0  0  0  0  0  0  0  0  0  0
   56.6310   33.4520   46.4420 O   0  0  0  0  0  0  0  0  0  0  0  0
   57.9610   32.3680   44.4050 N   0  0  0  0  0  0  0  0  0  0  0  0
   57.8190   32.6680   42.9790 C   0  0  0  0  0  0  0  0  0  0  0  0
   58.2220   31.0180   44.8460 C   0  0  0  0  0  0  0  0  0  0  0  0
   57.3490   29.9700   44.4980 C   0  0  0  0  0  0  0  0  0  0  0  0
   57.5790   28.6710   44.9580 C   0  0  0  0  0  0  0  0  0  0  0  0
   58.6770   28.3940   45.7850 C   0  0  0  0  0  0  0  0  0  0  0  0
   58.8580   27.0360   46.3440 C   0  0  0  0  0  0  0  0  0  0  0  0
   59.7030   26.2650   45.8150 O   0  0  0  0  0  0  0  0  0  0  0  0
   58.1070   26.5500   47.5250 C   0  0  0  0  0  0  0  0  0  0  0  0
   57.1520   25.6050   47.5010 C   0  0  0  0  0  0  0  0  0  0  0  0
   56.7220   24.8680   46.2920 C   0  0  0  0  0  0  0  0  0  0  0  0
   57.5190   23.8150   45.8210 C   0  0  0  0  0  0  0  0  0  0  0  0
   57.1140   23.0630   44.7140 C   0  0  0  0  0  0  0  0  0  0  0  0
   55.9190   23.3720   44.0530 C   0  0  0  0  0  0  0  0  0  0  0  0
   55.4990   22.6210   42.9580 O   0  0  0  0  0  0  0  0  0  0  0  0
   55.1400   24.4470   44.4920 C   0  0  0  0  0  0  0  0  0  0  0  0
   55.5420   25.2050   45.5980 C   0  0  0  0  0  0  0  0  0  0  0  0
   54.7680   26.2900   45.9960 O   0  0  0  0  0  0  0  0  0  0  0  0
   59.5770   29.4260   46.0940 C   0  0  0  0  0  0  0  0  0  0  0  0
   59.3500   30.7260   45.6320 C   0  0  0  0  0  0  0  0  0  0  0  0
   59.1710   33.6570   47.9600 C   0  0  0  0  0  0  0  0  0  0  0  0
   60.3160   33.6880   48.7610 C   0  0  0  0  0  0  0  0  0  0  0  0
   62.5239   33.8229   50.0904 H   0  0  0  0  0  0  0  0  0  0  0  0
   63.4649   32.9784   48.8145 H   0  0  0  0  0  0  0  0  0  0  0  0
   63.3598   34.7716   48.8145 H   0  0  0  0  0  0  0  0  0  0  0  0
   62.6887   33.9426   46.3077 H   0  0  0  0  0  0  0  0  0  0  0  0
   60.6446   33.8775   44.8804 H   0  0  0  0  0  0  0  0  0  0  0  0
   57.3513   33.6561   42.8570 H   0  0  0  0  0  0  0  0  0  0  0  0
   58.8113   32.6709   42.5043 H   0  0  0  0  0  0  0  0  0  0  0  0
   57.1877   31.9024   42.5043 H   0  0  0  0  0  0  0  0  0  0  0  0
   56.4781   30.1756   43.8583 H   0  0  0  0  0  0  0  0  0  0  0  0
   56.8941   27.8600   44.6695 H   0  0  0  0  0  0  0  0  0  0  0  0
   58.3506   26.9986   48.4994 H   0  0  0  0  0  0  0  0  0  0  0  0
   56.6529   25.3612   48.4504 H   0  0  0  0  0  0  0  0  0  0  0  0
   58.4679   23.5793   46.3250 H   0  0  0  0  0  0  0  0  0  0  0  0
   57.7356   22.2267   44.3616 H   0  0  0  0  0  0  0  0  0  0  0  0
   55.8470   22.8050   42.0240 H   0  0  0  0  0  0  0  0  0  0  0  0
   54.2072   24.6981   43.9659 H   0  0  0  0  0  0  0  0  0  0  0  0
   60.4668   29.2105   46.7037 H   0  0  0  0  0  0  0  0  0  0  0  0
   60.0601   31.5268   45.8858 H   0  0  0  0  0  0  0  0  0  0  0  0
   58.1779   33.5844   48.4274 H   0  0  0  0  0  0  0  0  0  0  0  0
   60.2203   33.6496   49.8562 H   0  0  0  0  0  0  0  0  0  0  0  0
  1  2  1  0
  2  3  2  0
  3  4  1  0
  4  5  2  0
  5  6  1  0
  6  7  2  0
  6  8  2  0
  6  9  1  0
  9 10  1  0
  9 11  1  0
 11 12  2  0
 12 13  1  0
 13 14  2  0
 14 15  1  0
 15 16  2  0
 15 17  1  0
 17 18  2  3
 18 19  1  0
 19 20  2  0
 20 21  1  0
 21 22  2  0
 22 23  1  0
 22 24  1  0
 24 25  2  0
 25 26  1  0
 14 27  1  0
 27 28  2  0
  5 29  1  0
 29 30  2  0
 30  2  1  0
 28 11  1  0
 25 19  1  0
  1 31  1  0
  1 32  1  0
  1 33  1  0
  3 34  1  0
  4 35  1  0
 10 36  1  0
 10 37  1  0
 10 38  1  0
 12 39  1  0
 13 40  1  0
 17 41  1  0
 18 42  1  0
 20 43  1  0
 21 44  1  0
 23 45  1  0
 24 46  1  0
 27 47  1  0
 28 48  1  0
 29 49  1  0
 30 50  1  0
M  CHG  1  26  -1
M  END
>  <UniqueID>  (11) 
11

>  <SMILES>  (11) 
Cc1ccc(S(=O)(=O)N(C)c2ccc(C(=O)C=Cc3ccc(O)cc3[O-])cc2)cc1

>  <Energy>  (11) 
65.88980898149394

>  <Genealogy>  (11) 
Cc1ccc(S(=O)(=O)N(C)c2ccc(C(=O)C=Cc3ccc(O)cc3[O-])cc2)cc1 (protonated)
Cc1ccc(S(=O)(=O)N(C)c2ccc(C(=O)C=Cc3ccc(O)cc3[O-])cc2)cc1 (3D coordinates assigned)
Cc1ccc(S(=O)(=O)N(C)c2ccc(C(=O)C=Cc3ccc(O)cc3[O-])cc2)cc1 (optimized conformer: 65.88980898149394 kcal/mol)

>  <smiles>  (11) 
Cc1ccc(S(=O)(=O)N(C)c2ccc(C(=O)C=Cc3ccc(O)cc3O)cc2)cc1

>  <score_type>  (11) 
oracle

>  <origin>  (11) 
adg

>  <m_score__min__energy>  (11) 
-13.24

>  <m_primary>  (11) 
energy

$$$$
11:0
     RDKit          3D

 72 77  0  0  0  0  0  0  0  0999 V2000
   55.6300   28.8570   45.2310 O   0  0  0  0  0  0  0  0  0  0  0  0
   56.7620   28.7860   44.6720 C   0  0  0  0  0  0  0  0  0  0  0  0
   56.9690   29.4620   43.3530 C   0  0  0  0  0  0  0  0  0  0  0  0
   57.2030   30.8890   43.5690 N   0  0  0  0  0  0  0  0  0  0  0  0
   57.4460   31.5050   44.7360 C   0  0  0  0  0  0  0  0  0  0  0  0
   57.4020   30.8850   45.9800 O   0  0  0  0  0  0  0  0  0  0  0  0
   57.7740   32.8190   44.4930 C   0  0  0  0  0  0  0  0  0  0  0  0
   58.2110   33.8260   45.5090 C   0  0  0  0  0  0  0  0  0  0  0  0
   59.5550   33.4480   46.0510 C   0  0  0  0  0  0  0  0  0  0  0  0
   60.5880   34.3430   46.3220 C   0  0  0  0  0  0  0  0  0  0  0  0
   61.5750   33.5770   46.9020 C   0  0  0  0  0  0  0  0  0  0  0  0
   62.8280   33.9370   47.3960 C   0  0  0  0  0  0  0  0  0  0  0  0
   63.6230   32.9250   47.9640 C   0  0  0  0  0  0  0  0  0  0  0  0
   63.1510   31.5940   48.0300 C   0  0  0  0  0  0  0  0  0  0  0  0
   61.8770   31.2640   47.5270 C   0  0  0  0  0  0  0  0  0  0  0  0
   61.1140   32.2870   46.9660 C   0  0  0  0  0  0  0  0  0  0  0  0
   59.8770   32.1940   46.4510 N   0  0  0  0  0  0  0  0  0  0  0  0
   57.7770   33.0400   43.1600 N   0  0  0  0  0  0  0  0  0  0  0  0
   57.4270   31.8420   42.6390 C   0  0  0  0  0  0  0  0  0  0  0  0
   57.3410   31.6350   41.4000 O   0  0  0  0  0  0  0  0  0  0  0  0
   57.8540   28.1150   45.3180 N   0  0  0  0  0  0  0  0  0  0  0  0
   57.8460   27.7740   46.7410 C   0  0  2  0  0  0  0  0  0  0  0  0
   59.2940   27.7660   47.2700 C   0  0  0  0  0  0  0  0  0  0  0  0
   59.4920   28.7790   48.3680 C   0  0  0  0  0  0  0  0  0  0  0  0
   60.3700   28.5160   49.4350 C   0  0  0  0  0  0  0  0  0  0  0  0
   60.5150   29.4440   50.4720 C   0  0  0  0  0  0  0  0  0  0  0  0
   59.7890   30.6380   50.4510 C   0  0  0  0  0  0  0  0  0  0  0  0
   58.9160   30.9070   49.3940 C   0  0  0  0  0  0  0  0  0  0  0  0
   58.7620   29.9790   48.3580 C   0  0  0  0  0  0  0  0  0  0  0  0
   57.1540   26.4390   46.9250 C   0  0  0  0  0  0  0  0  0  0  0  0
   57.6830   25.5570   47.6530 O   0  0  0  0  0  0  0  0  0  0  0  0
   55.9450   26.1120   46.2220 N   0  0  0  0  0  0  0  0  0  0  0  0
   55.7970   25.0280   45.2520 C   0  0  1  0  0  0  0  0  0  0  0  0
   57.0280   24.9900   44.3350 C   0  0  0  0  0  0  0  0  0  0  0  0
   56.9680   23.8460   43.2900 C   0  0  0  0  0  0  0  0  0  0  0  0
   55.9290   22.7430   43.5900 C   0  0  0  0  0  0  0  0  0  0  0  0
   55.7270   22.5400   45.0710 C   0  0  0  0  0  0  0  0  0  0  0  0
   55.5720   21.2540   45.6090 C   0  0  0  0  0  0  0  0  0  0  0  0
   55.3650   21.0890   46.9810 C   0  0  0  0  0  0  0  0  0  0  0  0
   55.3090   22.2040   47.8190 C   0  0  0  0  0  0  0  0  0  0  0  0
   55.4450   23.4910   47.2900 C   0  0  0  0  0  0  0  0  0  0  0  0
   55.6450   23.6690   45.9080 C   0  0  0  0  0  0  0  0  0  0  0  0
   57.8399   29.0200   42.8469 H   0  0  0  0  0  0  0  0  0  0  0  0
   56.0744   29.3274   42.7272 H   0  0  0  0  0  0  0  0  0  0  0  0
   58.2731   34.8178   45.0372 H   0  0  0  0  0  0  0  0  0  0  0  0
   57.4814   33.8525   46.3318 H   0  0  0  0  0  0  0  0  0  0  0  0
   60.6104   35.4236   46.1177 H   0  0  0  0  0  0  0  0  0  0  0  0
   63.1828   34.9769   47.3434 H   0  0  0  0  0  0  0  0  0  0  0  0
   64.6194   33.1711   48.3598 H   0  0  0  0  0  0  0  0  0  0  0  0
   63.7821   30.8115   48.4766 H   0  0  0  0  0  0  0  0  0  0  0  0
   61.4968   30.2329   47.5754 H   0  0  0  0  0  0  0  0  0  0  0  0
   59.2790   31.3390   46.3930 H   0  0  0  0  0  0  0  0  0  0  0  0
   58.7480   27.9940   44.7890 H   0  0  0  0  0  0  0  0  0  0  0  0
   57.2873   28.5221   47.3225 H   0  0  0  0  0  0  0  0  0  0  0  0
   59.5244   26.7648   47.6630 H   0  0  0  0  0  0  0  0  0  0  0  0
   59.9645   28.0269   46.4379 H   0  0  0  0  0  0  0  0  0  0  0  0
   60.9443   27.5780   49.4542 H   0  0  0  0  0  0  0  0  0  0  0  0
   61.2016   29.2335   51.3052 H   0  0  0  0  0  0  0  0  0  0  0  0
   59.9050   31.3663   51.2671 H   0  0  0  0  0  0  0  0  0  0  0  0
   58.3490   31.8494   49.3761 H   0  0  0  0  0  0  0  0  0  0  0  0
   58.0664   30.1901   47.5324 H   0  0  0  0  0  0  0  0  0  0  0  0
   54.8791   25.2332   44.6817 H   0  0  0  0  0  0  0  0  0  0  0  0
   57.0977   25.9493   43.8013 H   0  0  0  0  0  0  0  0  0  0  0  0
   57.9074   24.8100   44.9708 H   0  0  0  0  0  0  0  0  0  0  0  0
   56.7238   24.2885   42.3130 H   0  0  0  0  0  0  0  0  0  0  0  0
   57.9526   23.3560   43.3131 H   0  0  0  0  0  0  0  0  0  0  0  0
   54.9681   23.0285   43.1370 H   0  0  0  0  0  0  0  0  0  0  0  0
   56.3055   21.7997   43.1675 H   0  0  0  0  0  0  0  0  0  0  0  0
   55.6134   20.3742   44.9500 H   0  0  0  0  0  0  0  0  0  0  0  0
   55.2461   20.0794   47.4012 H   0  0  0  0  0  0  0  0  0  0  0  0
   55.1572   22.0695   48.9001 H   0  0  0  0  0  0  0  0  0  0  0  0
   55.3956   24.3660   47.9548 H   0  0  0  0  0  0  0  0  0  0  0  0
  1  2  2  0
  2  3  1  0
  3  4  1  0
  4  5  1  0
  5  6  1  0
  5  7  2  0
  7  8  1  0
  8  9  1  0
  9 10  2  0
 10 11  1  0
 11 12  2  0
 12 13  1  0
 13 14  2  0
 14 15  1  0
 15 16  2  0
 16 17  1  0
  7 18  1  0
 18 19  1  0
 19 20  2  0
  2 21  1  0
 21 22  1  0
 22 23  1  0
 23 24  1  0
 24 25  2  0
 25 26  1  0
 26 27  2  0
 27 28  1  0
 28 29  2  0
 22 30  1  0
 30 31  2  0
 30 32  1  0
 32 33  1  0
 33 34  1  0
 34 35  1  0
 35 36  1  0
 36 37  1  0
 37 38  2  0
 38 39  1  0
 39 40  2  0
 40 41  1  0
 41 42  2  0
 19  4  1  0
 29 24  1  0
 42 33  1  0
 17  9  1  0
 42 37  1  0
 16 11  1  0
  3 43  1  0
  3 44  1  0
  8 45  1  0
  8 46  1  0
 10 47  1  0
 12 48  1  0
 13 49  1  0
 14 50  1  0
 15 51  1  0
 17 52  1  0
 21 53  1  0
 22 54  1  1
 23 55  1  0
 23 56  1  0
 25 57  1  0
 26 58  1  0
 27 59  1  0
 28 60  1  0
 29 61  1  0
 33 62  1  6
 34 63  1  0
 34 64  1  0
 35 65  1  0
 35 66  1  0
 36 67  1  0
 36 68  1  0
 38 69  1  0
 39 70  1  0
 40 71  1  0
 41 72  1  0
M  CHG  3   6  -1  18  -1  32  -1
M  END
>  <UniqueID>  (12) 
12

>  <SMILES>  (12) 
O=C(Cn1c([O-])c(Cc2cc3ccccc3[nH]2)[n-]c1=O)N[C@H](Cc1ccccc1)C(=O)[N-][C@H]1CCCc2ccccc21

>  <Energy>  (12) 
138.2950231526886

>  <Genealogy>  (12) 
O=C(Cn1c([O-])c(Cc2cc3ccccc3[nH]2)[n-]c1=O)NC(Cc1ccccc1)C(=O)[N-]C1CCCc2ccccc21 (protonated)
O=C(Cn1c([O-])c(Cc2cc3ccccc3[nH]2)[n-]c1=O)N[C@H](Cc1ccccc1)C(=O)[N-][C@H]1CCCc2ccccc21 (chirality)
O=C(Cn1c([O-])c(Cc2cc3ccccc3[nH]2)[n-]c1=O)N[C@H](Cc1ccccc1)C(=O)[N-][C@H]1CCCc2ccccc21 (3D coordinates assigned)
O=C(Cn1c([O-])c(Cc2cc3ccccc3[nH]2)[n-]c1=O)N[C@H](Cc1ccccc1)C(=O)[N-][C@H]1CCCc2ccccc21 (nonaromatic ring conformer: 138.2950231526886 kcal/mol)

>  <smiles>  (12) 
O=C(Cn1c(O)c(Cc2cc3ccccc3[nH]2)[nH]c1=O)NC(Cc1ccccc1)C(=O)NC1CCCc2ccccc21

>  <score_type>  (12) 
oracle

>  <origin>  (12) 
adg

>  <m_score__min__energy>  (12) 
-15.33

>  <m_primary>  (12) 
energy

$$$$
12:0
     RDKit          3D

 32 34  0  0  0  0  0  0  0  0999 V2000
   60.3367   26.3759   45.4442 H   0  0  0  0  0  0  0  0  0  0  0  0
   60.4800   27.4450   45.6600 C   0  0  0  0  0  0  0  0  0  0  0  0
   61.4742   27.8203   45.9441 H   0  0  0  0  0  0  0  0  0  0  0  0
   59.4460   28.2880   45.5770 C   0  0  0  0  0  0  0  0  0  0  0  0
   58.1290   28.0280   45.1590 C   0  0  0  0  0  0  0  0  0  0  0  0
   57.5030   26.8840   44.8200 C   0  0  0  0  0  0  0  0  0  0  0  0
   57.2275   26.7514   43.7633 H   0  0  0  0  0  0  0  0  0  0  0  0
   57.1580   25.7960   45.7530 C   0  0  0  0  0  0  0  0  0  0  0  0
   55.8840   25.7370   46.3310 C   0  0  0  0  0  0  0  0  0  0  0  0
   54.9090   26.6710   45.9960 O   0  0  0  0  0  0  0  0  0  0  0  0
   55.5880   24.7550   47.2230 N   0  0  0  0  0  0  0  0  0  0  0  0
   56.5150   23.8310   47.5790 C   0  0  0  0  0  0  0  0  0  0  0  0
   56.2170   22.9280   48.4040 O   0  0  0  0  0  0  0  0  0  0  0  0
   57.7660   23.8820   47.0530 N   0  0  0  0  0  0  0  0  0  0  0  0
   58.1110   24.8440   46.1590 C   0  0  0  0  0  0  0  0  0  0  0  0
   59.2850   24.8750   45.7030 O   0  0  0  0  0  0  0  0  0  0  0  0
   57.5360   29.2830   45.1630 C   0  0  0  0  0  0  0  0  0  0  0  0
   56.3450   29.5370   44.8370 O   0  0  0  0  0  0  0  0  0  0  0  0
   58.4210   30.2110   45.5720 N   0  0  0  0  0  0  0  0  0  0  0  0
   58.1790   31.6170   45.7500 C   0  0  0  0  0  0  0  0  0  0  0  0
   58.2140   32.1700   47.0410 C   0  0  0  0  0  0  0  0  0  0  0  0
   58.4126   31.5225   47.9078 H   0  0  0  0  0  0  0  0  0  0  0  0
   57.9980   33.5380   47.2310 C   0  0  0  0  0  0  0  0  0  0  0  0
   58.0305   33.9640   48.2446 H   0  0  0  0  0  0  0  0  0  0  0  0
   57.7410   34.3640   46.1350 C   0  0  0  0  0  0  0  0  0  0  0  0
   57.5746   35.4409   46.2854 H   0  0  0  0  0  0  0  0  0  0  0  0
   57.6950   33.8240   44.8480 C   0  0  0  0  0  0  0  0  0  0  0  0
   57.4889   34.4775   43.9875 H   0  0  0  0  0  0  0  0  0  0  0  0
   57.9100   32.4540   44.6470 C   0  0  0  0  0  0  0  0  0  0  0  0
   57.7660   31.8130   43.0160 Cl  0  0  0  0  0  0  0  0  0  0  0  0
   59.5710   29.6080   45.8320 N   0  0  0  0  0  0  0  0  0  0  0  0
   60.4310   30.0940   46.1770 H   0  0  0  0  0  0  0  0  0  0  0  0
  1  2  1  0
  2  3  1  0
  2  4  2  0
  4  5  1  0
  5  6  2  0
  6  7  1  0
  6  8  1  0
  8  9  2  0
  9 10  1  0
  9 11  1  0
 11 12  1  0
 12 13  2  0
 12 14  1  0
 14 15  1  0
 15 16  2  0
  5 17  1  0
 17 18  2  0
 17 19  1  0
 19 20  1  0
 20 21  2  0
 21 22  1  0
 21 23  1  0
 23 24  1  0
 23 25  2  0
 25 26  1  0
 25 27  1  0
 27 28  1  0
 27 29  2  0
 29 30  1  0
 19 31  1  0
 31 32  1  0
 31  4  1  0
 15  8  1  0
 29 20  1  0
M  CHG  3  10  -1  11  -1  14  -1
M  END
>  <UniqueID>  (13) 
13

>  <SMILES>  (13) 
C=c1[nH]n(-c2ccccc2Cl)c(=O)/c1=C/c1c([O-])[n-]c(=O)[n-]c1=O

>  <Energy>  (13) 
90.23600944689059

>  <Genealogy>  (13) 
C=c1[nH]n(-c2ccccc2Cl)c(=O)c1=Cc1c([O-])[n-]c(=O)[n-]c1=O (protonated)
C=c1[nH]n(-c2ccccc2Cl)c(=O)/c1=C/c1c([O-])[n-]c(=O)[n-]c1=O (cis-trans isomerization)
C=c1[nH]n(-c2ccccc2Cl)c(=O)/c1=C/c1c([O-])[n-]c(=O)[n-]c1=O (3D coordinates assigned)
C=c1[nH]n(-c2ccccc2Cl)c(=O)/c1=C/c1c([O-])[n-]c(=O)[n-]c1=O (optimized conformer: 90.23600944689059 kcal/mol)

>  <smiles>  (13) 
C=c1[nH]n(-c2ccccc2Cl)c(=O)c1=Cc1c(O)[nH]c(=O)[nH]c1=O

>  <score_type>  (13) 
oracle

>  <origin>  (13) 
adg

>  <m_score__min__energy>  (13) 
-15.609999999999999

>  <m_primary>  (13) 
energy

$$$$
13:0
     RDKit          3D

 36 39  0  0  0  0  0  0  0  0999 V2000
   58.9324   28.5030   43.7449 H   0  0  0  0  0  0  0  0  0  0  0  0
   58.3820   28.7670   44.6600 C   0  0  0  0  0  0  0  0  0  0  0  0
   58.3920   30.0400   45.0660 C   0  0  0  0  0  0  0  0  0  0  0  0
   59.4500   30.6640   45.7300 O   0  0  0  0  0  0  0  0  0  0  0  0
   59.0740   31.9890   45.9560 C   0  0  0  0  0  0  0  0  0  0  0  0
   57.8160   32.2510   45.4540 C   0  0  0  0  0  0  0  0  0  0  0  0
   57.2360   33.5110   45.5420 C   0  0  0  0  0  0  0  0  0  0  0  0
   56.2340   33.7043   45.1314 H   0  0  0  0  0  0  0  0  0  0  0  0
   57.9700   34.5300   46.1720 C   0  0  0  0  0  0  0  0  0  0  0  0
   57.5382   35.5381   46.2580 H   0  0  0  0  0  0  0  0  0  0  0  0
   59.2560   34.2740   46.6960 C   0  0  0  0  0  0  0  0  0  0  0  0
   59.9380   35.3020   47.3370 O   0  0  0  0  0  0  0  0  0  0  0  0
   59.8310   32.9830   46.5870 C   0  0  0  0  0  0  0  0  0  0  0  0
   61.1820   32.6810   47.1160 C   0  0  0  0  0  0  0  0  0  0  0  0
   61.3770   31.6140   48.0100 C   0  0  0  0  0  0  0  0  0  0  0  0
   60.5233   30.9890   48.3109 H   0  0  0  0  0  0  0  0  0  0  0  0
   62.6520   31.3430   48.5190 C   0  0  0  0  0  0  0  0  0  0  0  0
   62.7979   30.5060   49.2177 H   0  0  0  0  0  0  0  0  0  0  0  0
   63.7400   32.1340   48.1410 C   0  0  0  0  0  0  0  0  0  0  0  0
   64.7417   31.9187   48.5413 H   0  0  0  0  0  0  0  0  0  0  0  0
   63.5560   33.1980   47.2550 C   0  0  0  0  0  0  0  0  0  0  0  0
   64.4132   33.8205   46.9588 H   0  0  0  0  0  0  0  0  0  0  0  0
   62.2840   33.4730   46.7440 C   0  0  0  0  0  0  0  0  0  0  0  0
   62.1440   34.3128   46.0475 H   0  0  0  0  0  0  0  0  0  0  0  0
   57.3260   31.0200   44.8650 C   0  0  0  0  0  0  0  0  0  0  0  0
   56.2180   30.8400   44.2950 O   0  0  0  0  0  0  0  0  0  0  0  0
   57.6640   27.6970   45.3860 C   0  0  0  0  0  0  0  0  0  0  0  0
   58.3910   26.5920   45.8530 C   0  0  0  0  0  0  0  0  0  0  0  0
   59.4751   26.5346   45.6759 H   0  0  0  0  0  0  0  0  0  0  0  0
   57.7440   25.5660   46.5410 C   0  0  0  0  0  0  0  0  0  0  0  0
   58.3150   24.7053   46.9194 H   0  0  0  0  0  0  0  0  0  0  0  0
   56.3660   25.6410   46.7450 C   0  0  0  0  0  0  0  0  0  0  0  0
   55.8482   24.8440   47.2988 H   0  0  0  0  0  0  0  0  0  0  0  0
   55.6630   26.6980   46.2600 N   0  0  0  0  0  0  0  0  0  0  0  0
   56.2650   27.7120   45.5840 C   0  0  0  0  0  0  0  0  0  0  0  0
   55.5550   28.6430   45.1180 O   0  0  0  0  0  0  0  0  0  0  0  0
  1  2  1  0
  2  3  2  0
  3  4  1  0
  4  5  1  0
  5  6  2  0
  6  7  1  0
  7  8  1  0
  7  9  2  0
  9 10  1  0
  9 11  1  0
 11 12  1  0
 11 13  2  0
 13 14  1  0
 14 15  2  0
 15 16  1  0
 15 17  1  0
 17 18  1  0
 17 19  2  0
 19 20  1  0
 19 21  1  0
 21 22  1  0
 21 23  2  0
 23 24  1  0
  6 25  1  0
 25 26  2  0
  2 27  1  0
 27 28  2  0
 28 29  1  0
 28 30  1  0
 30 31  1  0
 30 32  2  0
 32 33  1  0
 32 34  1  0
 34 35  1  0
 35 36  2  0
 25  3  1  0
 35 27  1  0
 13  5  1  0
 23 14  1  0
M  CHG  2  12  -1  34  -1
M  END
>  <UniqueID>  (14) 
14

>  <SMILES>  (14) 
O=C1/C(=C/c2ccc[n-]c2=O)Oc2c1ccc([O-])c2-c1ccccc1

>  <Energy>  (14) 
84.73109676768756

>  <Genealogy>  (14) 
O=C1C(=Cc2ccc[n-]c2=O)Oc2c1ccc([O-])c2-c1ccccc1 (protonated)
O=C1/C(=C/c2ccc[n-]c2=O)Oc2c1ccc([O-])c2-c1ccccc1 (cis-trans isomerization)
O=C1/C(=C/c2ccc[n-]c2=O)Oc2c1ccc([O-])c2-c1ccccc1 (3D coordinates assigned)
O=C1/C(=C/c2ccc[n-]c2=O)Oc2c1ccc([O-])c2-c1ccccc1 (nonaromatic ring conformer: 84.73109676768756 kcal/mol)

>  <smiles>  (14) 
O=C1C(=Cc2ccc[nH]c2=O)Oc2c1ccc(O)c2-c1ccccc1

>  <score_type>  (14) 
oracle

>  <origin>  (14) 
adg

>  <m_score__min__energy>  (14) 
-11.699999999999999

>  <m_primary>  (14) 
energy

$$$$
14:0
     RDKit          3D

 57 60  0  0  0  0  0  0  0  0999 V2000
   62.2030   33.8370   46.3900 C   0  0  0  0  0  0  0  0  0  0  0  0
   60.9530   33.8330   47.2080 C   0  0  0  0  0  0  0  0  0  0  0  0
   60.8540   33.3190   48.4080 O   0  0  0  0  0  0  0  0  0  0  0  0
   59.6140   33.5070   48.8070 C   0  0  0  0  0  0  0  0  0  0  0  0
   59.1010   33.0670   50.1200 C   0  0  0  0  0  0  0  0  0  0  0  0
   59.3650   33.8290   51.2720 C   0  0  0  0  0  0  0  0  0  0  0  0
   58.8710   33.4230   52.5150 C   0  0  0  0  0  0  0  0  0  0  0  0
   58.1110   32.2550   52.6200 C   0  0  0  0  0  0  0  0  0  0  0  0
   57.8440   31.4900   51.4820 C   0  0  0  0  0  0  0  0  0  0  0  0
   58.3350   31.8930   50.2360 C   0  0  0  0  0  0  0  0  0  0  0  0
   58.8620   34.1480   47.8830 N   0  0  0  0  0  0  0  0  0  0  0  0
   59.7250   34.3620   46.8710 C   0  0  0  0  0  0  0  0  0  0  0  0
   59.3420   35.0170   45.5760 C   0  0  0  0  0  0  0  0  0  0  0  0
   58.3080   34.1820   44.8240 C   0  0  0  0  0  0  0  0  0  0  0  0
   57.8600   33.1100   45.6490 O   0  0  0  0  0  0  0  0  0  0  0  0
   58.0370   31.7500   45.3540 C   0  0  0  0  0  0  0  0  0  0  0  0
   59.0330   31.0470   46.0400 C   0  0  0  0  0  0  0  0  0  0  0  0
   59.2500   29.6920   45.7820 C   0  0  0  0  0  0  0  0  0  0  0  0
   58.4680   29.0170   44.8310 C   0  0  0  0  0  0  0  0  0  0  0  0
   58.6860   27.5460   44.5770 C   0  0  0  0  0  0  0  0  0  0  0  0
   57.9700   26.6650   45.6200 C   0  0  1  0  0  0  0  0  0  0  0  0
   58.5190   26.9140   47.0280 C   0  0  0  0  0  0  0  0  0  0  0  0
   56.5380   26.9870   45.6200 N   0  0  0  0  0  0  0  0  0  0  0  0
   55.5640   25.5720   45.8990 S   0  0  0  0  0  0  0  0  0  0  0  0
   55.9240   24.9620   47.2260 O   0  0  0  0  0  0  0  0  0  0  0  0
   54.1150   25.9660   45.9280 O   0  0  0  0  0  0  0  0  0  0  0  0
   55.8060   24.3930   44.6240 C   0  0  0  0  0  0  0  0  0  0  0  0
   55.0160   23.2980   44.3780 C   0  0  0  0  0  0  0  0  0  0  0  0
   55.5400   22.6130   43.3470 N   0  0  0  0  0  0  0  0  0  0  0  0
   56.6360   23.3220   43.0020 C   0  0  0  0  0  0  0  0  0  0  0  0
   56.8350   24.4190   43.7620 N   0  0  0  0  0  0  0  0  0  0  0  0
   57.4640   29.7170   44.1450 C   0  0  0  0  0  0  0  0  0  0  0  0
   57.2500   31.0760   44.4000 C   0  0  0  0  0  0  0  0  0  0  0  0
   63.0777   33.8398   47.0570 H   0  0  0  0  0  0  0  0  0  0  0  0
   62.2287   32.9389   45.7553 H   0  0  0  0  0  0  0  0  0  0  0  0
   62.2230   34.7352   45.7553 H   0  0  0  0  0  0  0  0  0  0  0  0
   59.9631   34.7489   51.1946 H   0  0  0  0  0  0  0  0  0  0  0  0
   59.0809   34.0240   53.4121 H   0  0  0  0  0  0  0  0  0  0  0  0
   57.7228   31.9378   53.5991 H   0  0  0  0  0  0  0  0  0  0  0  0
   57.2471   30.5699   51.5660 H   0  0  0  0  0  0  0  0  0  0  0  0
   58.1210   31.2887   49.3421 H   0  0  0  0  0  0  0  0  0  0  0  0
   58.9179   36.0098   45.7869 H   0  0  0  0  0  0  0  0  0  0  0  0
   60.2418   35.1069   44.9497 H   0  0  0  0  0  0  0  0  0  0  0  0
   57.4517   34.8176   44.5543 H   0  0  0  0  0  0  0  0  0  0  0  0
   58.7666   33.7712   43.9125 H   0  0  0  0  0  0  0  0  0  0  0  0
   59.6500   31.5657   46.7885 H   0  0  0  0  0  0  0  0  0  0  0  0
   60.0376   29.1506   46.3266 H   0  0  0  0  0  0  0  0  0  0  0  0
   58.2995   27.2975   43.5776 H   0  0  0  0  0  0  0  0  0  0  0  0
   59.7653   27.3462   44.6486 H   0  0  0  0  0  0  0  0  0  0  0  0
   58.1388   25.6116   45.3518 H   0  0  0  0  0  0  0  0  0  0  0  0
   57.7822   26.5798   47.7733 H   0  0  0  0  0  0  0  0  0  0  0  0
   59.4555   26.3526   47.1610 H   0  0  0  0  0  0  0  0  0  0  0  0
   58.7136   27.9885   47.1610 H   0  0  0  0  0  0  0  0  0  0  0  0
   54.1056   23.0262   44.9323 H   0  0  0  0  0  0  0  0  0  0  0  0
   57.3046   23.0323   42.1779 H   0  0  0  0  0  0  0  0  0  0  0  0
   56.8420   29.1948   43.4030 H   0  0  0  0  0  0  0  0  0  0  0  0
   56.4649   31.6195   43.8539 H   0  0  0  0  0  0  0  0  0  0  0  0
  1  2  1  0
  2  3  1  0
  3  4  1  0
  4  5  1  0
  5  6  2  0
  6  7  1  0
  7  8  2  0
  8  9  1  0
  9 10  2  0
  4 11  2  0
 11 12  1  0
 12 13  1  0
 13 14  1  0
 14 15  1  0
 15 16  1  0
 16 17  2  0
 17 18  1  0
 18 19  2  0
 19 20  1  0
 20 21  1  0
 21 22  1  0
 21 23  1  0
 23 24  1  0
 24 25  2  0
 24 26  2  0
 24 27  1  0
 27 28  2  0
 28 29  1  0
 29 30  1  0
 30 31  2  0
 19 32  1  0
 32 33  2  0
 12  2  2  0
 33 16  1  0
 10  5  1  0
 31 27  1  0
  1 34  1  0
  1 35  1  0
  1 36  1  0
  6 37  1  0
  7 38  1  0
  8 39  1  0
  9 40  1  0
 10 41  1  0
 13 42  1  0
 13 43  1  0
 14 44  1  0
 14 45  1  0
 17 46  1  0
 18 47  1  0
 20 48  1  0
 20 49  1  0
 21 50  1  6
 22 51  1  0
 22 52  1  0
 22 53  1  0
 28 54  1  0
 30 55  1  0
 32 56  1  0
 33 57  1  0
M  CHG  2  23  -1  29  -1
M  END
>  <UniqueID>  (15) 
15

>  <SMILES>  (15) 
Cc1oc(-c2ccccc2)nc1CCOc1ccc(C[C@@H](C)[N-]S(=O)(=O)c2c[n-]cn2)cc1

>  <Energy>  (15) 
107.62939151831647

>  <Genealogy>  (15) 
Cc1oc(-c2ccccc2)nc1CCOc1ccc(CC(C)[N-]S(=O)(=O)c2c[n-]cn2)cc1 (protonated)
Cc1oc(-c2ccccc2)nc1CCOc1ccc(C[C@@H](C)[N-]S(=O)(=O)c2c[n-]cn2)cc1 (chirality)
Cc1oc(-c2ccccc2)nc1CCOc1ccc(C[C@@H](C)[N-]S(=O)(=O)c2c[n-]cn2)cc1 (3D coordinates assigned)
Cc1oc(-c2ccccc2)nc1CCOc1ccc(C[C@@H](C)[N-]S(=O)(=O)c2c[n-]cn2)cc1 (optimized conformer: 107.62939151831647 kcal/mol)

>  <smiles>  (15) 
Cc1oc(-c2ccccc2)nc1CCOc1ccc(CC(C)NS(=O)(=O)c2c[nH]cn2)cc1

>  <score_type>  (15) 
oracle

>  <origin>  (15) 
adg

>  <m_score__min__energy>  (15) 
-12.48

>  <m_primary>  (15) 
energy

$$$$
15:0
     RDKit          3D

 35 37  0  0  0  0  0  0  0  0999 V2000
   56.4510   27.3120   44.5220 H   0  0  0  0  0  0  0  0  0  0  0  0
   57.0090   28.1820   44.6660 N   0  0  0  0  0  0  0  0  0  0  0  0
   56.7120   29.4120   44.2030 C   0  0  0  0  0  0  0  0  0  0  0  0
   55.4890   29.7070   43.3900 C   0  0  0  0  0  0  0  0  0  0  0  0
   54.6424   29.9112   44.0620 H   0  0  0  0  0  0  0  0  0  0  0  0
   55.6738   30.5863   42.7555 H   0  0  0  0  0  0  0  0  0  0  0  0
   55.2526   28.8401   42.7555 H   0  0  0  0  0  0  0  0  0  0  0  0
   57.6920   30.3200   44.5890 C   0  0  0  0  0  0  0  0  0  0  0  0
   57.7280   31.7700   44.3080 C   0  0  0  0  0  0  0  0  0  0  0  0
   58.1680   32.1720   43.1980 O   0  0  0  0  0  0  0  0  0  0  0  0
   57.3340   32.7400   45.2860 N   0  0  0  0  0  0  0  0  0  0  0  0
   58.0900   33.6900   45.7570 C   0  0  0  0  0  0  0  0  0  0  0  0
   58.3720   33.7760   47.1440 N   0  0  0  0  0  0  0  0  0  0  0  0
   59.4410   34.6370   47.3840 C   0  0  0  0  0  0  0  0  0  0  0  0
   60.2090   34.2770   48.3520 N   0  0  0  0  0  0  0  0  0  0  0  0
   59.6050   33.1290   49.0250 C   0  0  0  0  0  0  0  0  0  0  0  0
   60.3390   32.3180   49.1412 H   0  0  0  0  0  0  0  0  0  0  0  0
   59.2522   33.3798   50.0363 H   0  0  0  0  0  0  0  0  0  0  0  0
   58.4540   32.6900   48.1010 C   0  0  0  0  0  0  0  0  0  0  0  0
   58.6893   31.7390   47.6007 H   0  0  0  0  0  0  0  0  0  0  0  0
   57.5104   32.5131   48.6379 H   0  0  0  0  0  0  0  0  0  0  0  0
   59.9520   35.6580   46.0200 S   0  0  0  0  0  0  0  0  0  0  0  0
   58.8710   34.6620   44.9070 C   0  0  0  0  0  0  0  0  0  0  0  0
   59.4889   34.1108   44.1828 H   0  0  0  0  0  0  0  0  0  0  0  0
   58.1850   35.3202   44.3537 H   0  0  0  0  0  0  0  0  0  0  0  0
   58.6140   29.5990   45.3330 C   0  0  0  0  0  0  0  0  0  0  0  0
   59.8410   30.1370   46.0070 C   0  0  0  0  0  0  0  0  0  0  0  0
   59.7141   30.0814   47.0982 H   0  0  0  0  0  0  0  0  0  0  0  0
   60.7151   29.5396   45.7086 H   0  0  0  0  0  0  0  0  0  0  0  0
   59.9937   31.1847   45.7086 H   0  0  0  0  0  0  0  0  0  0  0  0
   58.1550   28.2910   45.3680 C   0  0  0  0  0  0  0  0  0  0  0  0
   58.8220   27.1390   46.0500 C   0  0  0  0  0  0  0  0  0  0  0  0
   58.7486   27.2658   47.1402 H   0  0  0  0  0  0  0  0  0  0  0  0
   58.3267   26.2019   45.7557 H   0  0  0  0  0  0  0  0  0  0  0  0
   59.8812   27.1020   45.7557 H   0  0  0  0  0  0  0  0  0  0  0  0
  1  2  1  0
  2  3  1  0
  3  4  1  0
  4  5  1  0
  4  6  1  0
  4  7  1  0
  3  8  2  0
  8  9  1  0
  9 10  2  0
  9 11  1  0
 11 12  2  0
 12 13  1  0
 13 14  1  0
 14 15  2  0
 15 16  1  0
 16 17  1  0
 16 18  1  0
 16 19  1  0
 19 20  1  0
 19 21  1  0
 14 22  1  0
 22 23  1  0
 23 24  1  0
 23 25  1  0
  8 26  1  0
 26 27  1  0
 27 28  1  0
 27 29  1  0
 27 30  1  0
 26 31  2  0
 31 32  1  0
 32 33  1  0
 32 34  1  0
 32 35  1  0
 31  2  1  0
 23 12  1  0
 19 13  1  0
M  END
>  <UniqueID>  (16) 
16

>  <SMILES>  (16) 
Cc1[nH]c(C)c(C(=O)/N=C2\CSC3=NCCN32)c1C

>  <Energy>  (16) 
95.1048715511776

>  <Genealogy>  (16) 
Cc1[nH]c(C)c(C(=O)/N=C2\CSC3=NCCN32)c1C (cis-trans isomerization)
Cc1[nH]c(C)c(C(=O)/N=C2\CSC3=NCCN32)c1C (3D coordinates assigned)
Cc1[nH]c(C)c(C(=O)/N=C2\CSC3=NCCN32)c1C (nonaromatic ring conformer: 95.1048715511776 kcal/mol)

>  <smiles>  (16) 
Cc1[nH]c(C)c(C(=O)N=C2CSC3=NCCN23)c1C

>  <score_type>  (16) 
oracle

>  <origin>  (16) 
adg

>  <m_score__min__energy>  (16) 
-6.9299999999999997

>  <m_primary>  (16) 
energy

$$$$
16:0
     RDKit          3D

 35 36  0  0  0  0  0  0  0  0999 V2000
   59.9920   34.5840   47.7210 C   0  0  0  0  0  0  0  0  0  0  0  0
   59.5500   33.3760   47.3670 C   0  0  0  0  0  0  0  0  0  0  0  0
   59.8020   32.8130   45.9950 C   0  0  0  0  0  0  0  0  0  0  0  0
   58.7900   31.7870   45.6530 N   0  0  0  0  0  0  0  0  0  0  0  0
   57.5130   32.1440   45.2780 C   0  0  0  0  0  0  0  0  0  0  0  0
   57.0080   33.7080   45.2550 S   0  0  0  0  0  0  0  0  0  0  0  0
   56.6250   31.1950   44.8960 N   0  0  0  0  0  0  0  0  0  0  0  0
   56.9290   29.8770   44.8950 C   0  0  0  0  0  0  0  0  0  0  0  0
   55.9760   28.9820   44.4100 O   0  0  0  0  0  0  0  0  0  0  0  0
   58.1900   29.4600   45.3580 C   0  0  0  0  0  0  0  0  0  0  0  0
   58.5490   28.0220   45.4670 C   0  0  0  0  0  0  0  0  0  0  0  0
   58.8850   27.4030   44.4220 O   0  0  0  0  0  0  0  0  0  0  0  0
   58.4960   27.2620   46.7390 C   0  0  0  0  0  0  0  0  0  0  0  0
   57.5020   26.4480   47.1250 C   0  0  0  0  0  0  0  0  0  0  0  0
   56.8940   25.4030   46.2810 C   0  0  0  0  0  0  0  0  0  0  0  0
   57.5960   24.2100   46.0550 C   0  0  0  0  0  0  0  0  0  0  0  0
   57.0420   23.2070   45.2550 C   0  0  0  0  0  0  0  0  0  0  0  0
   55.7680   23.3740   44.7050 C   0  0  0  0  0  0  0  0  0  0  0  0
   55.2170   22.3760   43.9100 O   0  0  0  0  0  0  0  0  0  0  0  0
   55.0450   24.5420   44.9600 C   0  0  0  0  0  0  0  0  0  0  0  0
   55.6020   25.5580   45.7440 C   0  0  0  0  0  0  0  0  0  0  0  0
   54.8620   26.7090   45.9950 O   0  0  0  0  0  0  0  0  0  0  0  0
   59.1220   30.4540   45.7180 C   0  0  0  0  0  0  0  0  0  0  0  0
   60.2680   30.1040   46.1160 O   0  0  0  0  0  0  0  0  0  0  0  0
   59.7918   34.9684   48.7320 H   0  0  0  0  0  0  0  0  0  0  0  0
   60.5566   35.1956   47.0019 H   0  0  0  0  0  0  0  0  0  0  0  0
   58.9868   32.7763   48.0972 H   0  0  0  0  0  0  0  0  0  0  0  0
   59.7538   33.6271   45.2568 H   0  0  0  0  0  0  0  0  0  0  0  0
   60.7970   32.3441   45.9838 H   0  0  0  0  0  0  0  0  0  0  0  0
   56.0090   27.9870   44.5900 H   0  0  0  0  0  0  0  0  0  0  0  0
   59.3468   27.3757   47.4269 H   0  0  0  0  0  0  0  0  0  0  0  0
   57.1118   26.5691   48.1463 H   0  0  0  0  0  0  0  0  0  0  0  0
   58.5869   24.0632   46.5094 H   0  0  0  0  0  0  0  0  0  0  0  0
   57.6091   22.2853   45.0580 H   0  0  0  0  0  0  0  0  0  0  0  0
   54.0344   24.6631   44.5429 H   0  0  0  0  0  0  0  0  0  0  0  0
  1  2  2  0
  2  3  1  0
  3  4  1  0
  4  5  1  0
  5  6  2  0
  5  7  1  0
  7  8  1  0
  8  9  1  0
  8 10  2  0
 10 11  1  0
 11 12  2  0
 11 13  1  0
 13 14  2  3
 14 15  1  0
 15 16  2  0
 16 17  1  0
 17 18  2  0
 18 19  1  0
 18 20  1  0
 20 21  2  0
 21 22  1  0
 10 23  1  0
 23 24  2  0
 23  4  1  0
 21 15  1  0
  1 25  1  0
  1 26  1  0
  2 27  1  0
  3 28  1  0
  3 29  1  0
  9 30  1  0
 13 31  1  0
 14 32  1  0
 16 33  1  0
 17 34  1  0
 20 35  1  0
M  CHG  3   7  -1  19  -1  22  -1
M  END
>  <UniqueID>  (17) 
17

>  <SMILES>  (17) 
C=CCn1c(=S)[n-]c(O)c(C(=O)C=Cc2ccc([O-])cc2[O-])c1=O

>  <Energy>  (17) 
53.5223912396672

>  <Genealogy>  (17) 
C=CCn1c(=S)[n-]c(O)c(C(=O)C=Cc2ccc([O-])cc2[O-])c1=O (protonated)
C=CCn1c(=S)[n-]c(O)c(C(=O)C=Cc2ccc([O-])cc2[O-])c1=O (3D coordinates assigned)
C=CCn1c(=S)[n-]c(O)c(C(=O)C=Cc2ccc([O-])cc2[O-])c1=O (optimized conformer: 53.5223912396672 kcal/mol)

>  <smiles>  (17) 
C=CCn1c(=S)[nH]c(O)c(C(=O)C=Cc2ccc(O)cc2O)c1=O

>  <score_type>  (17) 
oracle

>  <origin>  (17) 
adg

>  <m_score__min__energy>  (17) 
-14.76

>  <m_primary>  (17) 
energy

$$$$
17:0
     RDKit          3D

 43 45  0  0  0  0  0  0  0  0999 V2000
   59.5693   29.8955   48.8005 H   0  0  0  0  0  0  0  0  0  0  0  0
   59.2970   29.4640   47.8260 C   0  0  0  0  0  0  0  0  0  0  0  0
   59.4852   28.3992   47.6241 H   0  0  0  0  0  0  0  0  0  0  0  0
   58.7350   30.2370   46.8830 C   0  0  0  0  0  0  0  0  0  0  0  0
   58.3420   29.8190   45.6080 C   0  0  0  0  0  0  0  0  0  0  0  0
   58.4260   28.5790   45.0870 C   0  0  0  0  0  0  0  0  0  0  0  0
   59.1238   28.4103   44.2535 H   0  0  0  0  0  0  0  0  0  0  0  0
   57.6290   27.4320   45.5770 C   0  0  0  0  0  0  0  0  0  0  0  0
   56.2240   27.4690   45.6080 C   0  0  0  0  0  0  0  0  0  0  0  0
   55.5310   28.5910   45.1710 O   0  0  0  0  0  0  0  0  0  0  0  0
   55.5280   26.4050   46.0870 N   0  0  0  0  0  0  0  0  0  0  0  0
   56.1680   25.3050   46.5600 C   0  0  0  0  0  0  0  0  0  0  0  0
   55.5020   24.3300   46.9960 O   0  0  0  0  0  0  0  0  0  0  0  0
   57.5240   25.2560   46.5680 N   0  0  0  0  0  0  0  0  0  0  0  0
   58.2660   26.2930   46.0970 C   0  0  0  0  0  0  0  0  0  0  0  0
   59.5230   26.2150   46.1230 O   0  0  0  0  0  0  0  0  0  0  0  0
   57.8910   30.9520   44.9480 C   0  0  0  0  0  0  0  0  0  0  0  0
   57.5120   31.0042   43.9167 H   0  0  0  0  0  0  0  0  0  0  0  0
   58.0100   32.0010   45.8360 C   0  0  0  0  0  0  0  0  0  0  0  0
   57.6950   33.4270   45.4940 C   0  0  0  0  0  0  0  0  0  0  0  0
   57.5670   34.0065   46.4202 H   0  0  0  0  0  0  0  0  0  0  0  0
   58.5205   33.8539   44.9055 H   0  0  0  0  0  0  0  0  0  0  0  0
   56.7665   33.4664   44.9055 H   0  0  0  0  0  0  0  0  0  0  0  0
   58.4950   31.5690   47.0260 N   0  0  0  0  0  0  0  0  0  0  0  0
   58.7550   32.4050   48.2090 C   0  0  0  0  0  0  0  0  0  0  0  0
   57.8220   32.9084   48.5024 H   0  0  0  0  0  0  0  0  0  0  0  0
   59.1209   31.7539   49.0166 H   0  0  0  0  0  0  0  0  0  0  0  0
   59.8080   33.4490   47.9310 C   0  0  0  0  0  0  0  0  0  0  0  0
   59.5000   34.6650   48.0600 O   0  0  0  0  0  0  0  0  0  0  0  0
   61.1430   33.0970   47.5200 N   0  0  0  0  0  0  0  0  0  0  0  0
   61.7510   31.8270   47.9280 C   0  0  0  0  0  0  0  0  0  0  0  0
   61.3821   31.5510   48.9269 H   0  0  0  0  0  0  0  0  0  0  0  0
   61.4798   31.0473   47.2010 H   0  0  0  0  0  0  0  0  0  0  0  0
   63.2760   31.9650   47.9710 C   0  0  0  0  0  0  0  0  0  0  0  0
   63.5544   32.6356   48.7974 H   0  0  0  0  0  0  0  0  0  0  0  0
   63.7163   30.9684   48.1221 H   0  0  0  0  0  0  0  0  0  0  0  0
   63.7660   32.4980   46.7560 O   0  0  0  0  0  0  0  0  0  0  0  0
   63.3010   33.8240   46.5960 C   0  0  0  0  0  0  0  0  0  0  0  0
   63.5804   34.4134   47.4817 H   0  0  0  0  0  0  0  0  0  0  0  0
   63.7586   34.2512   45.6915 H   0  0  0  0  0  0  0  0  0  0  0  0
   61.7780   33.8510   46.4350 C   0  0  0  0  0  0  0  0  0  0  0  0
   61.4277   34.8934   46.4629 H   0  0  0  0  0  0  0  0  0  0  0  0
   61.5097   33.3914   45.4723 H   0  0  0  0  0  0  0  0  0  0  0  0
  1  2  1  0
  2  3  1  0
  2  4  2  0
  4  5  1  0
  5  6  2  0
  6  7  1  0
  6  8  1  0
  8  9  2  0
  9 10  1  0
  9 11  1  0
 11 12  1  0
 12 13  2  0
 12 14  1  0
 14 15  1  0
 15 16  2  0
  5 17  1  0
 17 18  1  0
 17 19  2  0
 19 20  1  0
 20 21  1  0
 20 22  1  0
 20 23  1  0
 19 24  1  0
 24 25  1  0
 25 26  1  0
 25 27  1  0
 25 28  1  0
 28 29  2  0
 28 30  1  0
 30 31  1  0
 31 32  1  0
 31 33  1  0
 31 34  1  0
 34 35  1  0
 34 36  1  0
 34 37  1  0
 37 38  1  0
 38 39  1  0
 38 40  1  0
 38 41  1  0
 41 42  1  0
 41 43  1  0
 24  4  1  0
 41 30  1  0
 15  8  1  0
M  CHG  3  10  -1  11  -1  14  -1
M  END
>  <UniqueID>  (18) 
18

>  <SMILES>  (18) 
C=c1/c(=C/c2c([O-])[n-]c(=O)[n-]c2=O)cc(C)n1CC(=O)N1CCOCC1

>  <Energy>  (18) 
84.8939446577192

>  <Genealogy>  (18) 
C=c1c(=Cc2c([O-])[n-]c(=O)[n-]c2=O)cc(C)n1CC(=O)N1CCOCC1 (protonated)
C=c1/c(=C/c2c([O-])[n-]c(=O)[n-]c2=O)cc(C)n1CC(=O)N1CCOCC1 (cis-trans isomerization)
C=c1/c(=C/c2c([O-])[n-]c(=O)[n-]c2=O)cc(C)n1CC(=O)N1CCOCC1 (3D coordinates assigned)
C=c1/c(=C/c2c([O-])[n-]c(=O)[n-]c2=O)cc(C)n1CC(=O)N1CCOCC1 (nonaromatic ring conformer: 84.8939446577192 kcal/mol)

>  <smiles>  (18) 
C=c1c(=Cc2c(O)[nH]c(=O)[nH]c2=O)cc(C)n1CC(=O)N1CCOCC1

>  <score_type>  (18) 
oracle

>  <origin>  (18) 
adg

>  <m_score__min__energy>  (18) 
-15.789999999999999

>  <m_primary>  (18) 
energy

$$$$
18:0
     RDKit          3D

 40 42  0  0  0  0  0  0  0  0999 V2000
   54.3280   23.7596   43.3397 H   0  0  0  0  0  0  0  0  0  0  0  0
   55.2690   23.3250   43.7080 C   0  0  0  0  0  0  0  0  0  0  0  0
   55.8110   23.7680   44.8530 C   0  0  0  0  0  0  0  0  0  0  0  0
   55.1700   24.8140   45.6780 C   0  0  0  0  0  0  0  0  0  0  0  0
   53.9280   24.9920   45.5680 O   0  0  0  0  0  0  0  0  0  0  0  0
   55.8940   25.5980   46.6390 N   0  0  0  0  0  0  0  0  0  0  0  0
   56.9550   26.3100   46.3920 C   0  0  0  0  0  0  0  0  0  0  0  0
   56.8600   27.5220   45.7730 N   0  0  0  0  0  0  0  0  0  0  0  0
   57.9470   28.3010   45.5140 C   0  0  0  0  0  0  0  0  0  0  0  0
   57.7570   29.6010   44.8210 C   0  0  0  0  0  0  0  0  0  0  0  0
   57.2060   29.6270   43.5270 C   0  0  0  0  0  0  0  0  0  0  0  0
   56.9198   28.6843   43.0376 H   0  0  0  0  0  0  0  0  0  0  0  0
   57.0190   30.8380   42.8580 C   0  0  0  0  0  0  0  0  0  0  0  0
   56.5959   30.8437   41.8426 H   0  0  0  0  0  0  0  0  0  0  0  0
   57.3670   32.0410   43.4730 C   0  0  0  0  0  0  0  0  0  0  0  0
   57.2258   32.9921   42.9387 H   0  0  0  0  0  0  0  0  0  0  0  0
   57.8960   32.0390   44.7700 C   0  0  0  0  0  0  0  0  0  0  0  0
   58.3380   33.5550   45.5500 S   0  0  0  0  0  0  0  0  0  0  0  0
   57.1540   34.4810   45.5640 O   0  0  0  0  0  0  0  0  0  0  0  0
   59.4570   34.2140   44.7940 O   0  0  0  0  0  0  0  0  0  0  0  0
   58.8600   33.2290   47.2170 C   0  0  0  0  0  0  0  0  0  0  0  0
   58.1425   33.6771   47.9202 H   0  0  0  0  0  0  0  0  0  0  0  0
   58.9046   32.1423   47.3814 H   0  0  0  0  0  0  0  0  0  0  0  0
   59.8561   33.6658   47.3814 H   0  0  0  0  0  0  0  0  0  0  0  0
   58.0930   30.8230   45.4390 C   0  0  0  0  0  0  0  0  0  0  0  0
   58.5136   30.8221   46.4554 H   0  0  0  0  0  0  0  0  0  0  0  0
   59.2210   27.8410   45.8910 C   0  0  0  0  0  0  0  0  0  0  0  0
   60.1141   28.4473   45.6793 H   0  0  0  0  0  0  0  0  0  0  0  0
   59.3440   26.6090   46.5360 C   0  0  0  0  0  0  0  0  0  0  0  0
   60.3364   26.2442   46.8395 H   0  0  0  0  0  0  0  0  0  0  0  0
   58.2090   25.8400   46.7960 C   0  0  0  0  0  0  0  0  0  0  0  0
   58.2995   24.8736   47.3136 H   0  0  0  0  0  0  0  0  0  0  0  0
   57.0450   23.2450   45.2650 O   0  0  0  0  0  0  0  0  0  0  0  0
   57.8650   22.4670   44.3910 C   0  0  0  0  0  0  0  0  0  0  0  0
   58.5547   21.8523   44.9880 H   0  0  0  0  0  0  0  0  0  0  0  0
   58.4399   23.1394   43.7373 H   0  0  0  0  0  0  0  0  0  0  0  0
   56.9870   21.5570   43.5330 C   0  0  0  0  0  0  0  0  0  0  0  0
   56.5878   20.7423   44.1550 H   0  0  0  0  0  0  0  0  0  0  0  0
   57.5899   21.1368   42.7145 H   0  0  0  0  0  0  0  0  0  0  0  0
   55.9030   22.3090   42.9830 O   0  0  0  0  0  0  0  0  0  0  0  0
  1  2  1  0
  2  3  2  0
  3  4  1  0
  4  5  2  0
  4  6  1  0
  6  7  2  0
  7  8  1  0
  8  9  1  0
  9 10  1  0
 10 11  2  0
 11 12  1  0
 11 13  1  0
 13 14  1  0
 13 15  2  0
 15 16  1  0
 15 17  1  0
 17 18  1  0
 18 19  2  0
 18 20  2  0
 18 21  1  0
 21 22  1  0
 21 23  1  0
 21 24  1  0
 17 25  2  0
 25 26  1  0
  9 27  2  0
 27 28  1  0
 27 29  1  0
 29 30  1  0
 29 31  2  0
 31 32  1  0
  3 33  1  0
 33 34  1  0
 34 35  1  0
 34 36  1  0
 34 37  1  0
 37 38  1  0
 37 39  1  0
 37 40  1  0
 40  2  1  0
 31  7  1  0
 25 10  1  0
M  CHG  1   8  -1
M  END
>  <UniqueID>  (19) 
19

>  <SMILES>  (19) 
CS(=O)(=O)c1cccc(-c2ccc/c(=N/C(=O)C3=COCCO3)[n-]2)c1

>  <Energy>  (19) 
49.25047254361187

>  <Genealogy>  (19) 
CS(=O)(=O)c1cccc(-c2cccc(=NC(=O)C3=COCCO3)[n-]2)c1 (protonated)
CS(=O)(=O)c1cccc(-c2ccc/c(=N/C(=O)C3=COCCO3)[n-]2)c1 (cis-trans isomerization)
CS(=O)(=O)c1cccc(-c2ccc/c(=N/C(=O)C3=COCCO3)[n-]2)c1 (3D coordinates assigned)
CS(=O)(=O)c1cccc(-c2ccc/c(=N/C(=O)C3=COCCO3)[n-]2)c1 (nonaromatic ring conformer: 49.25047254361187 kcal/mol)

>  <smiles>  (19) 
CS(=O)(=O)c1cccc(-c2cccc(=NC(=O)C3=COCCO3)[nH]2)c1

>  <score_type>  (19) 
oracle

>  <origin>  (19) 
adg

>  <m_score__min__energy>  (19) 
-10.710000000000001

>  <m_primary>  (19) 
energy

$$$$
19:0
     RDKit          3D

 37 40  0  0  0  0  0  0  0  0999 V2000
   55.9100   26.1100   45.6000 O   0  0  0  0  0  0  0  0  0  0  0  0
   57.0110   26.8130   46.0860 C   0  0  0  0  0  0  0  0  0  0  0  0
   58.0900   26.1350   46.6690 C   0  0  0  0  0  0  0  0  0  0  0  0
   59.1920   26.8480   47.1530 C   0  0  0  0  0  0  0  0  0  0  0  0
   59.2180   28.2440   47.0580 C   0  0  0  0  0  0  0  0  0  0  0  0
   60.2840   28.9380   47.5340 N   0  0  0  0  0  0  0  0  0  0  0  0
   60.3620   30.2960   47.4670 C   0  0  0  0  0  0  0  0  0  0  0  0
   61.5420   30.9550   48.0710 C   0  0  0  0  0  0  0  0  0  0  0  0
   62.4540   31.6600   47.2650 C   0  0  0  0  0  0  0  0  0  0  0  0
   63.5640   32.2870   47.8400 C   0  0  0  0  0  0  0  0  0  0  0  0
   63.7660   32.2280   49.2210 C   0  0  0  0  0  0  0  0  0  0  0  0
   65.2840   33.0850   50.0030 Br  0  0  0  0  0  0  0  0  0  0  0  0
   62.8540   31.5450   50.0320 C   0  0  0  0  0  0  0  0  0  0  0  0
   61.7420   30.9150   49.4620 C   0  0  0  0  0  0  0  0  0  0  0  0
   60.8770   30.2460   50.2660 F   0  0  0  0  0  0  0  0  0  0  0  0
   59.3060   31.0270   46.8620 C   0  0  0  0  0  0  0  0  0  0  0  0
   59.3630   32.4970   46.6710 C   0  0  0  0  0  0  0  0  0  0  0  0
   59.5830   33.3550   47.7590 C   0  0  0  0  0  0  0  0  0  0  0  0
   59.6320   34.7360   47.5620 C   0  0  0  0  0  0  0  0  0  0  0  0
   59.4700   35.2490   46.2730 C   0  0  0  0  0  0  0  0  0  0  0  0
   59.2700   34.4060   45.2260 N   0  0  0  0  0  0  0  0  0  0  0  0
   59.2170   33.0580   45.3930 C   0  0  0  0  0  0  0  0  0  0  0  0
   58.1890   30.3240   46.3820 C   0  0  0  0  0  0  0  0  0  0  0  0
   58.1360   28.9300   46.4740 C   0  0  0  0  0  0  0  0  0  0  0  0
   57.0340   28.2090   45.9890 C   0  0  0  0  0  0  0  0  0  0  0  0
   55.7710   25.9650   44.6070 H   0  0  0  0  0  0  0  0  0  0  0  0
   58.0704   25.0379   46.7464 H   0  0  0  0  0  0  0  0  0  0  0  0
   60.0377   26.3116   47.6080 H   0  0  0  0  0  0  0  0  0  0  0  0
   62.2936   31.7184   46.1783 H   0  0  0  0  0  0  0  0  0  0  0  0
   64.2796   32.8279   47.2034 H   0  0  0  0  0  0  0  0  0  0  0  0
   63.0111   31.5029   51.1199 H   0  0  0  0  0  0  0  0  0  0  0  0
   59.7170   32.9389   48.7684 H   0  0  0  0  0  0  0  0  0  0  0  0
   59.7965   35.4133   48.4130 H   0  0  0  0  0  0  0  0  0  0  0  0
   59.5043   36.3356   46.1053 H   0  0  0  0  0  0  0  0  0  0  0  0
   59.0590   32.4041   44.5227 H   0  0  0  0  0  0  0  0  0  0  0  0
   57.3501   30.8739   45.9306 H   0  0  0  0  0  0  0  0  0  0  0  0
   56.1871   28.7418   45.5320 H   0  0  0  0  0  0  0  0  0  0  0  0
  1  2  1  0
  2  3  2  0
  3  4  1  0
  4  5  2  0
  5  6  1  0
  6  7  2  0
  7  8  1  0
  8  9  2  0
  9 10  1  0
 10 11  2  0
 11 12  1  0
 11 13  1  0
 13 14  2  0
 14 15  1  0
  7 16  1  0
 16 17  1  0
 17 18  2  0
 18 19  1  0
 19 20  2  0
 20 21  1  0
 21 22  2  0
 16 23  2  0
 23 24  1  0
 24 25  2  0
 25  2  1  0
 24  5  1  0
 14  8  1  0
 22 17  1  0
  1 26  1  0
  3 27  1  0
  4 28  1  0
  9 29  1  0
 10 30  1  0
 13 31  1  0
 18 32  1  0
 19 33  1  0
 20 34  1  0
 22 35  1  0
 23 36  1  0
 25 37  1  0
M  END
>  <UniqueID>  (20) 
20

>  <SMILES>  (20) 
Oc1ccc2nc(-c3ccc(Br)cc3F)c(-c3cccnc3)cc2c1

>  <Energy>  (20) 
58.01792696479745

>  <Genealogy>  (20) 
Oc1ccc2nc(-c3ccc(Br)cc3F)c(-c3cccnc3)cc2c1 (3D coordinates assigned)
Oc1ccc2nc(-c3ccc(Br)cc3F)c(-c3cccnc3)cc2c1 (optimized conformer: 58.01792696479745 kcal/mol)

>  <smiles>  (20) 
Oc1ccc2nc(-c3ccc(Br)cc3F)c(-c3cccnc3)cc2c1

>  <score_type>  (20) 
oracle

>  <origin>  (20) 
adg

>  <m_score__min__energy>  (20) 
-7.6299999999999999

>  <m_primary>  (20) 
energy

$$$$
20:0
     RDKit          3D

 42 44  0  0  0  0  0  0  0  0999 V2000
   58.5250   33.9170   44.2040 O   0  0  0  0  0  0  0  0  0  0  0  0
   57.8400   32.8960   44.4830 C   0  0  0  0  0  0  0  0  0  0  0  0
   57.6050   31.8520   43.4370 C   0  0  0  0  0  0  0  0  0  0  0  0
   56.9900   30.6440   44.0680 C   0  0  0  0  0  0  0  0  0  0  0  0
   55.7180   30.5980   44.5090 N   0  0  0  0  0  0  0  0  0  0  0  0
   55.5620   29.4210   45.0850 N   0  0  0  0  0  0  0  0  0  0  0  0
   56.7430   28.7840   44.9810 C   0  0  0  0  0  0  0  0  0  0  0  0
   57.0120   27.4350   45.5670 C   0  0  0  0  0  0  0  0  0  0  0  0
   58.2450   27.4770   46.4290 C   0  0  0  0  0  0  0  0  0  0  0  0
   58.5060   28.5880   47.2460 C   0  0  0  0  0  0  0  0  0  0  0  0
   59.6540   28.6200   48.0450 C   0  0  0  0  0  0  0  0  0  0  0  0
   60.5550   27.5520   48.0200 C   0  0  0  0  0  0  0  0  0  0  0  0
   60.3100   26.4500   47.1960 C   0  0  0  0  0  0  0  0  0  0  0  0
   59.1600   26.4100   46.4030 C   0  0  0  0  0  0  0  0  0  0  0  0
   57.6820   29.5270   44.3630 N   0  0  0  0  0  0  0  0  0  0  0  0
   57.3300   32.7050   45.8070 N   0  0  0  0  0  0  0  0  0  0  0  0
   57.7720   33.5320   46.9300 C   0  0  0  0  0  0  0  0  0  0  0  0
   58.5750   32.7100   47.9440 C   0  0  0  0  0  0  0  0  0  0  0  0
   60.0430   32.7310   47.6160 C   0  0  0  0  0  0  0  0  0  0  0  0
   60.6250   33.8390   46.9800 C   0  0  0  0  0  0  0  0  0  0  0  0
   61.9990   33.8440   46.7340 C   0  0  0  0  0  0  0  0  0  0  0  0
   62.7770   32.7520   47.1190 C   0  0  0  0  0  0  0  0  0  0  0  0
   62.1670   31.6670   47.7530 C   0  0  0  0  0  0  0  0  0  0  0  0
   60.8280   31.6830   47.9920 N   0  0  0  0  0  0  0  0  0  0  0  0
   56.9264   32.2496   42.6680 H   0  0  0  0  0  0  0  0  0  0  0  0
   58.5633   31.5756   42.9729 H   0  0  0  0  0  0  0  0  0  0  0  0
   56.1515   27.1270   46.1791 H   0  0  0  0  0  0  0  0  0  0  0  0
   57.1703   26.7150   44.7505 H   0  0  0  0  0  0  0  0  0  0  0  0
   57.8057   29.4362   47.2581 H   0  0  0  0  0  0  0  0  0  0  0  0
   59.8477   29.4870   48.6938 H   0  0  0  0  0  0  0  0  0  0  0  0
   61.4571   27.5787   48.6489 H   0  0  0  0  0  0  0  0  0  0  0  0
   61.0234   25.6130   47.1716 H   0  0  0  0  0  0  0  0  0  0  0  0
   58.9701   25.5407   45.7563 H   0  0  0  0  0  0  0  0  0  0  0  0
   56.6790   31.9040   45.9740 H   0  0  0  0  0  0  0  0  0  0  0  0
   58.4045   34.3468   46.5479 H   0  0  0  0  0  0  0  0  0  0  0  0
   56.8823   33.9349   47.4361 H   0  0  0  0  0  0  0  0  0  0  0  0
   58.4251   33.1326   48.9485 H   0  0  0  0  0  0  0  0  0  0  0  0
   58.2232   31.6684   47.9067 H   0  0  0  0  0  0  0  0  0  0  0  0
   60.0040   34.6953   46.6783 H   0  0  0  0  0  0  0  0  0  0  0  0
   62.4671   34.7069   46.2378 H   0  0  0  0  0  0  0  0  0  0  0  0
   63.8598   32.7454   46.9253 H   0  0  0  0  0  0  0  0  0  0  0  0
   62.7697   30.7992   48.0591 H   0  0  0  0  0  0  0  0  0  0  0  0
  1  2  2  0
  2  3  1  0
  3  4  1  0
  4  5  2  0
  5  6  1  0
  6  7  1  0
  7  8  1  0
  8  9  1  0
  9 10  2  0
 10 11  1  0
 11 12  2  0
 12 13  1  0
 13 14  2  0
  7 15  2  0
  2 16  1  0
 16 17  1  0
 17 18  1  0
 18 19  1  0
 19 20  2  0
 20 21  1  0
 21 22  2  0
 22 23  1  0
 23 24  2  0
 15  4  1  0
 24 19  1  0
 14  9  1  0
  3 25  1  0
  3 26  1  0
  8 27  1  0
  8 28  1  0
 10 29  1  0
 11 30  1  0
 12 31  1  0
 13 32  1  0
 14 33  1  0
 16 34  1  0
 17 35  1  0
 17 36  1  0
 18 37  1  0
 18 38  1  0
 20 39  1  0
 21 40  1  0
 22 41  1  0
 23 42  1  0
M  CHG  1   6  -1
M  END
>  <UniqueID>  (21) 
21

>  <SMILES>  (21) 
O=C(Cc1n[n-]c(Cc2ccccc2)n1)NCCc1ccccn1

>  <Energy>  (21) 
63.39987284441444

>  <Genealogy>  (21) 
O=C(Cc1n[n-]c(Cc2ccccc2)n1)NCCc1ccccn1 (protonated)
O=C(Cc1n[n-]c(Cc2ccccc2)n1)NCCc1ccccn1 (3D coordinates assigned)
O=C(Cc1n[n-]c(Cc2ccccc2)n1)NCCc1ccccn1 (optimized conformer: 63.39987284441444 kcal/mol)

>  <smiles>  (21) 
O=C(Cc1n[nH]c(Cc2ccccc2)n1)NCCc1ccccn1

>  <score_type>  (21) 
oracle

>  <origin>  (21) 
adg

>  <m_score__min__energy>  (21) 
-9.0600000000000005

>  <m_primary>  (21) 
energy

$$$$
21:0
     RDKit          3D

 47 50  0  0  0  0  0  0  0  0999 V2000
   59.4500   32.9270   50.7850 C   0  0  0  0  0  0  0  0  0  0  0  0
   59.3210   33.3270   49.3460 C   0  0  0  0  0  0  0  0  0  0  0  0
   59.8000   34.5740   48.9150 C   0  0  0  0  0  0  0  0  0  0  0  0
   59.6550   34.9660   47.5820 C   0  0  0  0  0  0  0  0  0  0  0  0
   59.0160   34.1190   46.6610 C   0  0  0  0  0  0  0  0  0  0  0  0
   58.8510   34.4730   45.3090 C   0  0  0  0  0  0  0  0  0  0  0  0
   59.2750   35.5780   44.8730 O   0  0  0  0  0  0  0  0  0  0  0  0
   58.2120   33.5900   44.4330 C   0  0  0  0  0  0  0  0  0  0  0  0
   57.7430   32.3540   44.9060 C   0  0  0  0  0  0  0  0  0  0  0  0
   57.0760   31.3950   43.9980 C   0  0  0  0  0  0  0  0  0  0  0  0
   57.0110   31.6470   42.7650 O   0  0  0  0  0  0  0  0  0  0  0  0
   56.4380   30.2080   44.4900 N   0  0  0  0  0  0  0  0  0  0  0  0
   57.0950   29.0380   44.9980 C   0  0  0  0  0  0  0  0  0  0  0  0
   57.4420   28.9150   46.3530 C   0  0  0  0  0  0  0  0  0  0  0  0
   58.0870   27.7660   46.8160 C   0  0  0  0  0  0  0  0  0  0  0  0
   58.4300   26.7340   45.9250 C   0  0  0  0  0  0  0  0  0  0  0  0
   59.1120   25.5080   46.4050 C   0  0  0  0  0  0  0  0  0  0  0  0
   60.3450   25.5470   46.6610 O   0  0  0  0  0  0  0  0  0  0  0  0
   58.4250   24.2560   46.5370 N   0  0  0  0  0  0  0  0  0  0  0  0
   58.0620   23.3740   45.4640 C   0  0  0  0  0  0  0  0  0  0  0  0
   56.7760   23.4090   44.8910 C   0  0  0  0  0  0  0  0  0  0  0  0
   56.4450   22.5330   43.8550 C   0  0  0  0  0  0  0  0  0  0  0  0
   57.3820   21.6050   43.3940 C   0  0  0  0  0  0  0  0  0  0  0  0
   58.6510   21.5470   43.9740 C   0  0  0  0  0  0  0  0  0  0  0  0
   58.9930   22.4250   45.0130 C   0  0  0  0  0  0  0  0  0  0  0  0
   60.2580   22.3650   45.5940 O   0  0  0  0  0  0  0  0  0  0  0  0
   58.0950   26.8690   44.5670 C   0  0  0  0  0  0  0  0  0  0  0  0
   57.4440   28.0170   44.1070 C   0  0  0  0  0  0  0  0  0  0  0  0
   57.8990   32.0400   46.2200 N   0  0  0  0  0  0  0  0  0  0  0  0
   58.5170   32.8720   47.0990 C   0  0  0  0  0  0  0  0  0  0  0  0
   58.6650   32.4860   48.4350 C   0  0  0  0  0  0  0  0  0  0  0  0
   59.1760   33.7766   51.4277 H   0  0  0  0  0  0  0  0  0  0  0  0
   58.7795   32.0798   50.9916 H   0  0  0  0  0  0  0  0  0  0  0  0
   60.4891   32.6311   50.9916 H   0  0  0  0  0  0  0  0  0  0  0  0
   60.2929   35.2472   49.6318 H   0  0  0  0  0  0  0  0  0  0  0  0
   60.0425   35.9413   47.2523 H   0  0  0  0  0  0  0  0  0  0  0  0
   58.0771   33.8630   43.3760 H   0  0  0  0  0  0  0  0  0  0  0  0
   57.2044   29.7286   47.0542 H   0  0  0  0  0  0  0  0  0  0  0  0
   58.3282   27.6679   47.8847 H   0  0  0  0  0  0  0  0  0  0  0  0
   56.0303   24.1283   45.2605 H   0  0  0  0  0  0  0  0  0  0  0  0
   55.4440   22.5738   43.4008 H   0  0  0  0  0  0  0  0  0  0  0  0
   57.1202   20.9200   42.5741 H   0  0  0  0  0  0  0  0  0  0  0  0
   59.3848   20.8104   43.6149 H   0  0  0  0  0  0  0  0  0  0  0  0
   60.5150   22.9660   46.3680 H   0  0  0  0  0  0  0  0  0  0  0  0
   58.3472   26.0646   43.8603 H   0  0  0  0  0  0  0  0  0  0  0  0
   57.2045   28.1185   43.0382 H   0  0  0  0  0  0  0  0  0  0  0  0
   58.2652   31.5186   48.7729 H   0  0  0  0  0  0  0  0  0  0  0  0
  1  2  1  0
  2  3  2  0
  3  4  1  0
  4  5  2  0
  5  6  1  0
  6  7  2  0
  6  8  1  0
  8  9  2  0
  9 10  1  0
 10 11  2  0
 10 12  1  0
 12 13  1  0
 13 14  2  0
 14 15  1  0
 15 16  2  0
 16 17  1  0
 17 18  2  0
 17 19  1  0
 19 20  1  0
 20 21  2  0
 21 22  1  0
 22 23  2  0
 23 24  1  0
 24 25  2  0
 25 26  1  0
 16 27  1  0
 27 28  2  0
  9 29  1  0
 29 30  1  0
 30 31  2  0
 31  2  1  0
 30  5  1  0
 28 13  1  0
 25 20  1  0
  1 32  1  0
  1 33  1  0
  1 34  1  0
  3 35  1  0
  4 36  1  0
  8 37  1  0
 14 38  1  0
 15 39  1  0
 21 40  1  0
 22 41  1  0
 23 42  1  0
 24 43  1  0
 26 44  1  0
 27 45  1  0
 28 46  1  0
 31 47  1  0
M  CHG  3  12  -1  19  -1  29  -1
M  END
>  <UniqueID>  (22) 
22

>  <SMILES>  (22) 
Cc1ccc2c(=O)cc(C(=O)[N-]c3ccc(C(=O)[N-]c4ccccc4O)cc3)[n-]c2c1

>  <Energy>  (22) 
67.58206673228605

>  <Genealogy>  (22) 
Cc1ccc2c(=O)cc(C(=O)[N-]c3ccc(C(=O)[N-]c4ccccc4O)cc3)[n-]c2c1 (protonated)
Cc1ccc2c(=O)cc(C(=O)[N-]c3ccc(C(=O)[N-]c4ccccc4O)cc3)[n-]c2c1 (3D coordinates assigned)
Cc1ccc2c(=O)cc(C(=O)[N-]c3ccc(C(=O)[N-]c4ccccc4O)cc3)[n-]c2c1 (optimized conformer: 67.58206673228605 kcal/mol)

>  <smiles>  (22) 
Cc1ccc2c(=O)cc(C(=O)Nc3ccc(C(=O)Nc4ccccc4O)cc3)[nH]c2c1

>  <score_type>  (22) 
oracle

>  <origin>  (22) 
adg

>  <m_score__min__energy>  (22) 
-13.289999999999999

>  <m_primary>  (22) 
energy

$$$$
22:0
     RDKit          3D

 51 54  0  0  0  0  0  0  0  0999 V2000
   60.3010   26.1850   45.5900 H   0  0  0  0  0  0  0  0  0  0  0  0
   59.7010   25.5350   46.0830 O   0  0  0  0  0  0  0  0  0  0  0  0
   58.3340   25.4770   45.8230 C   0  0  0  0  0  0  0  0  0  0  0  0
   57.6810   24.4590   45.1510 C   0  0  0  0  0  0  0  0  0  0  0  0
   56.3500   24.7960   45.1300 C   0  0  0  0  0  0  0  0  0  0  0  0
   56.2380   26.0040   45.7880 C   0  0  0  0  0  0  0  0  0  0  0  0
   55.0520   26.6990   45.9960 O   0  0  0  0  0  0  0  0  0  0  0  0
   57.4500   26.4250   46.2080 N   0  0  0  0  0  0  0  0  0  0  0  0
   57.7420   27.6440   46.9620 C   0  0  0  0  0  0  0  0  0  0  0  0
   58.3499   27.3843   47.8412 H   0  0  0  0  0  0  0  0  0  0  0  0
   56.7885   28.0991   47.2681 H   0  0  0  0  0  0  0  0  0  0  0  0
   58.5110   28.6610   46.1050 C   0  0  0  0  0  0  0  0  0  0  0  0
   59.3893   28.1625   45.6691 H   0  0  0  0  0  0  0  0  0  0  0  0
   58.8031   29.4961   46.7587 H   0  0  0  0  0  0  0  0  0  0  0  0
   57.6710   29.2260   44.9870 C   0  0  0  0  0  0  0  0  0  0  0  0
   57.6950   28.6520   43.8650 O   0  0  0  0  0  0  0  0  0  0  0  0
   56.9460   30.4610   45.1040 N   0  0  0  0  0  0  0  0  0  0  0  0
   57.4160   31.6680   45.2320 C   0  0  0  0  0  0  0  0  0  0  0  0
   56.6130   32.7520   45.1650 N   0  0  0  0  0  0  0  0  0  0  0  0
   57.2960   33.9080   45.3900 C   0  0  0  0  0  0  0  0  0  0  0  0
   56.8117   34.8955   45.3766 H   0  0  0  0  0  0  0  0  0  0  0  0
   58.6540   33.7420   45.6380 C   0  0  0  0  0  0  0  0  0  0  0  0
   59.6120   34.8180   46.0340 C   0  0  0  0  0  0  0  0  0  0  0  0
   59.0583   35.6445   46.5033 H   0  0  0  0  0  0  0  0  0  0  0  0
   60.1369   35.1827   45.1387 H   0  0  0  0  0  0  0  0  0  0  0  0
   60.6190   34.2740   47.0110 C   0  0  0  0  0  0  0  0  0  0  0  0
   61.8830   33.8560   46.5680 C   0  0  0  0  0  0  0  0  0  0  0  0
   62.1285   33.8936   45.4964 H   0  0  0  0  0  0  0  0  0  0  0  0
   62.8310   33.3920   47.4840 C   0  0  0  0  0  0  0  0  0  0  0  0
   63.8162   33.0536   47.1305 H   0  0  0  0  0  0  0  0  0  0  0  0
   62.5300   33.3570   48.8480 C   0  0  0  0  0  0  0  0  0  0  0  0
   63.2810   32.9903   49.5632 H   0  0  0  0  0  0  0  0  0  0  0  0
   61.2800   33.7850   49.3120 C   0  0  0  0  0  0  0  0  0  0  0  0
   61.0320   33.7460   50.6920 O   0  0  0  0  0  0  0  0  0  0  0  0
   59.7560   33.4980   51.2740 C   0  0  0  0  0  0  0  0  0  0  0  0
   59.8435   33.5150   52.3704 H   0  0  0  0  0  0  0  0  0  0  0  0
   59.0481   34.2754   50.9506 H   0  0  0  0  0  0  0  0  0  0  0  0
   59.3908   32.5121   50.9506 H   0  0  0  0  0  0  0  0  0  0  0  0
   60.3230   34.2430   48.3850 C   0  0  0  0  0  0  0  0  0  0  0  0
   59.3371   34.5788   48.7389 H   0  0  0  0  0  0  0  0  0  0  0  0
   59.0040   32.0980   45.6030 S   0  0  0  0  0  0  0  0  0  0  0  0
   55.2810   23.9520   44.5150 C   0  0  0  0  0  0  0  0  0  0  0  0
   54.7520   24.5453   43.7546 H   0  0  0  0  0  0  0  0  0  0  0  0
   54.5954   23.6322   45.3135 H   0  0  0  0  0  0  0  0  0  0  0  0
   55.8530   22.7110   43.8590 C   0  0  0  0  0  0  0  0  0  0  0  0
   55.1588   22.0381   43.3343 H   0  0  0  0  0  0  0  0  0  0  0  0
   57.1640   22.3800   43.8790 C   0  0  0  0  0  0  0  0  0  0  0  0
   57.4713   21.4583   43.3631 H   0  0  0  0  0  0  0  0  0  0  0  0
   58.2360   23.2000   44.5680 C   0  0  0  0  0  0  0  0  0  0  0  0
   59.0129   23.4596   43.8338 H   0  0  0  0  0  0  0  0  0  0  0  0
   58.6535   22.5977   45.3883 H   0  0  0  0  0  0  0  0  0  0  0  0
  1  2  1  0
  2  3  1  0
  3  4  2  0
  4  5  1  0
  5  6  2  0
  6  7  1  0
  6  8  1  0
  8  9  1  0
  9 10  1  0
  9 11  1  0
  9 12  1  0
 12 13  1  0
 12 14  1  0
 12 15  1  0
 15 16  2  0
 15 17  1  0
 17 18  2  0
 18 19  1  0
 19 20  1  0
 20 21  1  0
 20 22  2  0
 22 23  1  0
 23 24  1  0
 23 25  1  0
 23 26  1  0
 26 27  2  0
 27 28  1  0
 27 29  1  0
 29 30  1  0
 29 31  2  0
 31 32  1  0
 31 33  1  0
 33 34  1  0
 34 35  1  0
 35 36  1  0
 35 37  1  0
 35 38  1  0
 33 39  2  0
 39 40  1  0
 22 41  1  0
  5 42  1  0
 42 43  1  0
 42 44  1  0
 42 45  1  0
 45 46  1  0
 45 47  2  0
 47 48  1  0
 47 49  1  0
 49 50  1  0
 49 51  1  0
  8  3  1  0
 41 18  1  0
 49  4  1  0
 39 26  1  0
M  CHG  2   7  -1  19  -1
M  END
>  <UniqueID>  (23) 
23

>  <SMILES>  (23) 
COc1cccc(Cc2c[n-]/c(=N/C(=O)CCn3c([O-])c4c(c3O)CC=CC4)s2)c1

>  <Energy>  (23) 
116.99994297663756

>  <Genealogy>  (23) 
COc1cccc(Cc2c[n-]c(=NC(=O)CCn3c([O-])c4c(c3O)CC=CC4)s2)c1 (protonated)
COc1cccc(Cc2c[n-]/c(=N/C(=O)CCn3c([O-])c4c(c3O)CC=CC4)s2)c1 (cis-trans isomerization)
COc1cccc(Cc2c[n-]/c(=N/C(=O)CCn3c([O-])c4c(c3O)CC=CC4)s2)c1 (3D coordinates assigned)
COc1cccc(Cc2c[n-]/c(=N/C(=O)CCn3c([O-])c4c(c3O)CC=CC4)s2)c1 (nonaromatic ring conformer: 116.99994297663756 kcal/mol)

>  <smiles>  (23) 
COc1cccc(Cc2c[nH]c(=NC(=O)CCn3c(O)c4c(c3O)CC=CC4)s2)c1

>  <score_type>  (23) 
oracle

>  <origin>  (23) 
adg

>  <m_score__min__energy>  (23) 
-14.470000000000001

>  <m_primary>  (23) 
energy

$$$$
23:0
     RDKit          3D

 68 72  0  0  0  0  0  0  0  0999 V2000
   63.3510   32.3320   50.2410 C   0  0  0  0  0  0  0  0  0  0  0  0
   62.8430   32.8930   48.9340 C   0  0  0  0  0  0  0  0  0  0  0  0
   63.8000   33.5180   48.1160 C   0  0  0  0  0  0  0  0  0  0  0  0
   63.4660   34.0040   46.8590 C   0  0  0  0  0  0  0  0  0  0  0  0
   62.1750   33.8490   46.3740 C   0  0  0  0  0  0  0  0  0  0  0  0
   61.1960   33.2090   47.1430 C   0  0  0  0  0  0  0  0  0  0  0  0
   59.8750   33.0090   46.5110 C   0  0  0  0  0  0  0  0  0  0  0  0
   59.0080   34.0950   46.3170 C   0  0  0  0  0  0  0  0  0  0  0  0
   57.7450   33.8900   45.7510 C   0  0  0  0  0  0  0  0  0  0  0  0
   57.3470   32.6050   45.3730 C   0  0  0  0  0  0  0  0  0  0  0  0
   58.2130   31.5180   45.5530 C   0  0  0  0  0  0  0  0  0  0  0  0
   57.8220   30.2070   45.1390 N   0  0  0  0  0  0  0  0  0  0  0  0
   58.4190   29.0560   44.4360 C   0  0  0  0  0  0  0  0  0  0  0  0
   57.2350   28.1470   44.5810 C   0  0  0  0  0  0  0  0  0  0  0  0
   57.5560   26.9470   45.3870 N   0  0  0  0  0  0  0  0  0  0  0  0
   58.9100   26.3710   45.4440 C   0  0  0  0  0  0  0  0  0  0  0  0
   58.9990   25.2170   46.4520 C   0  0  0  0  0  0  0  0  0  0  0  0
   57.9040   24.3370   46.2970 O   0  0  0  0  0  0  0  0  0  0  0  0
   56.7230   24.9650   46.7540 C   0  0  0  0  0  0  0  0  0  0  0  0
   56.4630   26.2400   46.0090 C   0  0  0  0  0  0  0  0  0  0  0  0
   55.2890   26.7070   45.9710 O   0  0  0  0  0  0  0  0  0  0  0  0
   56.6440   29.3350   45.2900 C   0  0  0  0  0  0  0  0  0  0  0  0
   59.4760   31.7220   46.1220 C   0  0  0  0  0  0  0  0  0  0  0  0
   61.4990   32.7340   48.4560 C   0  0  0  0  0  0  0  0  0  0  0  0
   60.3790   32.1160   49.3150 C   0  0  2  0  0  0  0  0  0  0  0  0
   60.3400   32.6740   50.7560 C   0  0  0  0  0  0  0  0  0  0  0  0
   59.9680   31.5940   51.7950 C   0  0  0  0  0  0  0  0  0  0  0  0
   58.8810   30.6910   51.3420 N   0  0  1  0  0  0  0  0  0  0  0  0
   57.5960   31.3670   51.4030 C   0  0  0  0  0  0  0  0  0  0  0  0
   57.4680   32.4980   50.9530 O   0  0  0  0  0  0  0  0  0  0  0  0
   56.4070   30.6740   52.0240 C   0  0  0  0  0  0  0  0  0  0  0  0
   56.7030   29.3420   52.3490 O   0  0  0  0  0  0  0  0  0  0  0  0
   59.1080   30.0530   50.0100 C   0  0  0  0  0  0  0  0  0  0  0  0
   60.3490   30.5810   49.2640 C   0  0  0  0  0  0  0  0  0  0  0  0
   62.8719   32.8611   51.0780 H   0  0  0  0  0  0  0  0  0  0  0  0
   63.1098   31.2603   50.2985 H   0  0  0  0  0  0  0  0  0  0  0  0
   64.4413   32.4660   50.2985 H   0  0  0  0  0  0  0  0  0  0  0  0
   64.8331   33.6241   48.4785 H   0  0  0  0  0  0  0  0  0  0  0  0
   64.2255   34.5124   46.2469 H   0  0  0  0  0  0  0  0  0  0  0  0
   61.9185   34.2328   45.3755 H   0  0  0  0  0  0  0  0  0  0  0  0
   59.3214   35.1079   46.6100 H   0  0  0  0  0  0  0  0  0  0  0  0
   57.0645   34.7415   45.6034 H   0  0  0  0  0  0  0  0  0  0  0  0
   56.3514   32.4462   44.9330 H   0  0  0  0  0  0  0  0  0  0  0  0
   58.6575   29.2777   43.3853 H   0  0  0  0  0  0  0  0  0  0  0  0
   59.3836   28.6851   44.8128 H   0  0  0  0  0  0  0  0  0  0  0  0
   56.6953   27.6320   43.7726 H   0  0  0  0  0  0  0  0  0  0  0  0
   59.1780   25.9932   44.4463 H   0  0  0  0  0  0  0  0  0  0  0  0
   59.6032   27.1611   45.7682 H   0  0  0  0  0  0  0  0  0  0  0  0
   59.9346   24.6630   46.2859 H   0  0  0  0  0  0  0  0  0  0  0  0
   58.9792   25.6326   47.4703 H   0  0  0  0  0  0  0  0  0  0  0  0
   55.8732   24.2827   46.6048 H   0  0  0  0  0  0  0  0  0  0  0  0
   56.8463   25.2041   47.8206 H   0  0  0  0  0  0  0  0  0  0  0  0
   55.7530   29.7328   44.7822 H   0  0  0  0  0  0  0  0  0  0  0  0
   56.2671   29.1735   46.3107 H   0  0  0  0  0  0  0  0  0  0  0  0
   60.1573   30.8702   46.2643 H   0  0  0  0  0  0  0  0  0  0  0  0
   59.4398   32.4426   48.8447 H   0  0  0  0  0  0  0  0  0  0  0  0
   61.3324   33.0775   51.0056 H   0  0  0  0  0  0  0  0  0  0  0  0
   59.5666   33.4554   50.7925 H   0  0  0  0  0  0  0  0  0  0  0  0
   60.8617   30.9872   52.0027 H   0  0  0  0  0  0  0  0  0  0  0  0
   59.6036   32.1171   52.6914 H   0  0  0  0  0  0  0  0  0  0  0  0
   58.8530   29.9130   52.0450 H   0  0  0  0  0  0  0  0  0  0  0  0
   56.1185   31.2102   52.9401 H   0  0  0  0  0  0  0  0  0  0  0  0
   55.5842   30.6775   51.2940 H   0  0  0  0  0  0  0  0  0  0  0  0
   56.0890   29.0860   53.0870 H   0  0  0  0  0  0  0  0  0  0  0  0
   59.2305   28.9704   50.1616 H   0  0  0  0  0  0  0  0  0  0  0  0
   58.2349   30.2981   49.3874 H   0  0  0  0  0  0  0  0  0  0  0  0
   61.2571   30.1829   49.7403 H   0  0  0  0  0  0  0  0  0  0  0  0
   60.3049   30.2554   48.2142 H   0  0  0  0  0  0  0  0  0  0  0  0
  1  2  1  0
  2  3  2  0
  3  4  1  0
  4  5  2  0
  5  6  1  0
  6  7  1  0
  7  8  2  0
  8  9  1  0
  9 10  2  0
 10 11  1  0
 11 12  1  0
 12 13  1  0
 13 14  1  0
 14 15  1  0
 15 16  1  0
 16 17  1  0
 17 18  1  0
 18 19  1  0
 19 20  1  0
 20 21  2  0
 14 22  1  0
 11 23  2  0
  6 24  2  0
 24 25  1  0
 25 26  1  0
 26 27  1  0
 27 28  1  0
 28 29  1  0
 29 30  2  0
 29 31  1  0
 31 32  1  0
 28 33  1  0
 33 34  1  0
 24  2  1  0
 34 25  1  0
 23  7  1  0
 22 12  1  0
 20 15  1  0
  1 35  1  0
  1 36  1  0
  1 37  1  0
  3 38  1  0
  4 39  1  0
  5 40  1  0
  8 41  1  0
  9 42  1  0
 10 43  1  0
 13 44  1  0
 13 45  1  0
 14 46  1  0
 16 47  1  0
 16 48  1  0
 17 49  1  0
 17 50  1  0
 19 51  1  0
 19 52  1  0
 22 53  1  0
 22 54  1  0
 23 55  1  0
 25 56  1  6
 26 57  1  0
 26 58  1  0
 27 59  1  0
 27 60  1  0
 28 61  1  1
 31 62  1  0
 31 63  1  0
 32 64  1  0
 33 65  1  0
 33 66  1  0
 34 67  1  0
 34 68  1  0
M  CHG  1  28   1
M  END
>  <UniqueID>  (24) 
24

>  <SMILES>  (24) 
Cc1cccc(-c2cccc(N3CC(N4CCOCC4=O)C3)c2)c1C1CC[NH+](C(=O)CO)CC1

>  <Energy>  (24) 
148.03689259040559

>  <Genealogy>  (24) 
Cc1cccc(-c2cccc(N3CC(N4CCOCC4=O)C3)c2)c1C1CC[NH+](C(=O)CO)CC1 (protonated)
Cc1cccc(-c2cccc(N3CC(N4CCOCC4=O)C3)c2)c1C1CC[NH+](C(=O)CO)CC1 (3D coordinates assigned)
Cc1cccc(-c2cccc(N3CC(N4CCOCC4=O)C3)c2)c1C1CC[NH+](C(=O)CO)CC1 (nonaromatic ring conformer: 148.03689259040559 kcal/mol)

>  <smiles>  (24) 
Cc1cccc(-c2cccc(N3CC(N4CCOCC4=O)C3)c2)c1C1CCN(C(=O)CO)CC1

>  <score_type>  (24) 
oracle

>  <origin>  (24) 
adg

>  <m_score__min__energy>  (24) 
-8.4100000000000001

>  <m_primary>  (24) 
energy

$$$$
24:0
     RDKit          3D

 56 59  0  0  0  0  0  0  0  0999 V2000
   55.5982   29.9230   44.4637 H   0  0  0  0  0  0  0  0  0  0  0  0
   56.2420   29.2680   45.0690 C   0  0  0  0  0  0  0  0  0  0  0  0
   55.8970   27.9690   45.2570 N   0  0  0  0  0  0  0  0  0  0  0  0
   56.6680   27.1370   46.0060 C   0  0  0  0  0  0  0  0  0  0  0  0
   56.3290   25.8970   46.2070 N   0  0  0  0  0  0  0  0  0  0  0  0
   56.6570   24.7690   45.3780 C   0  0  0  0  0  0  0  0  0  0  0  0
   55.6700   24.2460   44.5320 C   0  0  0  0  0  0  0  0  0  0  0  0
   54.6763   24.7164   44.4954 H   0  0  0  0  0  0  0  0  0  0  0  0
   55.9400   23.1300   43.7340 C   0  0  0  0  0  0  0  0  0  0  0  0
   55.1648   22.7358   43.0605 H   0  0  0  0  0  0  0  0  0  0  0  0
   57.1930   22.5150   43.7910 C   0  0  0  0  0  0  0  0  0  0  0  0
   57.4072   21.6430   43.1555 H   0  0  0  0  0  0  0  0  0  0  0  0
   58.1750   23.0080   44.6560 C   0  0  0  0  0  0  0  0  0  0  0  0
   59.7370   22.2150   44.7510 Cl  0  0  0  0  0  0  0  0  0  0  0  0
   57.9080   24.1260   45.4550 C   0  0  0  0  0  0  0  0  0  0  0  0
   58.6772   24.5034   46.1449 H   0  0  0  0  0  0  0  0  0  0  0  0
   57.7900   27.6190   46.5970 N   0  0  0  0  0  0  0  0  0  0  0  0
   58.1870   28.9110   46.4340 C   0  0  0  0  0  0  0  0  0  0  0  0
   59.3320   29.3800   47.0890 O   0  0  0  0  0  0  0  0  0  0  0  0
   59.4120   29.5580   48.4760 C   0  0  0  0  0  0  0  0  0  0  0  0
   58.8980   30.7390   49.0250 C   0  0  0  0  0  0  0  0  0  0  0  0
   58.4655   31.5055   48.3651 H   0  0  0  0  0  0  0  0  0  0  0  0
   58.9310   30.9500   50.4060 C   0  0  0  0  0  0  0  0  0  0  0  0
   58.2440   32.4550   51.1010 S   0  0  0  0  0  0  0  0  0  0  0  0
   59.7740   32.8880   51.9870 C   0  0  0  0  0  0  0  0  0  0  0  0
   59.5965   32.8378   53.0714 H   0  0  0  0  0  0  0  0  0  0  0  0
   60.5696   32.1797   51.7125 H   0  0  0  0  0  0  0  0  0  0  0  0
   60.0805   33.9082   51.7125 H   0  0  0  0  0  0  0  0  0  0  0  0
   59.4820   29.9790   51.2470 C   0  0  0  0  0  0  0  0  0  0  0  0
   59.4885   30.1356   52.3358 H   0  0  0  0  0  0  0  0  0  0  0  0
   60.0240   28.8110   50.7080 C   0  0  0  0  0  0  0  0  0  0  0  0
   60.4584   28.0522   51.3756 H   0  0  0  0  0  0  0  0  0  0  0  0
   60.0190   28.5970   49.3190 C   0  0  0  0  0  0  0  0  0  0  0  0
   60.6540   27.3490   48.7700 C   0  0  0  0  0  0  0  0  0  0  0  0
   60.9805   26.7074   49.6017 H   0  0  0  0  0  0  0  0  0  0  0  0
   59.9225   26.8062   48.1534 H   0  0  0  0  0  0  0  0  0  0  0  0
   61.5235   27.6207   48.1534 H   0  0  0  0  0  0  0  0  0  0  0  0
   57.4140   29.7790   45.6420 C   0  0  0  0  0  0  0  0  0  0  0  0
   57.7880   31.1950   45.4200 C   0  0  0  0  0  0  0  0  0  0  0  0
   56.9560   31.9720   44.8770 O   0  0  0  0  0  0  0  0  0  0  0  0
   59.0900   31.6810   45.7810 N   0  0  0  0  0  0  0  0  0  0  0  0
   59.8440   30.9980   46.0180 H   0  0  0  0  0  0  0  0  0  0  0  0
   59.4720   33.0820   45.6260 C   0  0  0  0  0  0  0  0  0  0  0  0
   60.0458   33.2024   44.6953 H   0  0  0  0  0  0  0  0  0  0  0  0
   58.5642   33.7019   45.5870 H   0  0  0  0  0  0  0  0  0  0  0  0
   60.3170   33.5160   46.7920 C   0  0  0  0  0  0  0  0  0  0  0  0
   59.7070   34.0320   47.9490 C   0  0  0  0  0  0  0  0  0  0  0  0
   58.6133   34.1425   47.9894 H   0  0  0  0  0  0  0  0  0  0  0  0
   60.4860   34.4050   49.0480 C   0  0  0  0  0  0  0  0  0  0  0  0
   60.0052   34.8163   49.9478 H   0  0  0  0  0  0  0  0  0  0  0  0
   61.8750   34.2560   49.0050 C   0  0  0  0  0  0  0  0  0  0  0  0
   62.4866   34.5506   49.8705 H   0  0  0  0  0  0  0  0  0  0  0  0
   62.4870   33.7330   47.8630 C   0  0  0  0  0  0  0  0  0  0  0  0
   63.5801   33.6145   47.8317 H   0  0  0  0  0  0  0  0  0  0  0  0
   61.7130   33.3600   46.7600 C   0  0  0  0  0  0  0  0  0  0  0  0
   62.1981   32.9434   45.8650 H   0  0  0  0  0  0  0  0  0  0  0  0
  1  2  1  0
  2  3  1  0
  3  4  1  0
  4  5  2  0
  5  6  1  0
  6  7  2  0
  7  8  1  0
  7  9  1  0
  9 10  1  0
  9 11  2  0
 11 12  1  0
 11 13  1  0
 13 14  1  0
 13 15  2  0
 15 16  1  0
  4 17  1  0
 17 18  2  0
 18 19  1  0
 19 20  1  0
 20 21  2  0
 21 22  1  0
 21 23  1  0
 23 24  1  0
 24 25  1  0
 25 26  1  0
 25 27  1  0
 25 28  1  0
 23 29  2  0
 29 30  1  0
 29 31  1  0
 31 32  1  0
 31 33  2  0
 33 34  1  0
 34 35  1  0
 34 36  1  0
 34 37  1  0
 18 38  1  0
 38 39  1  0
 39 40  2  0
 39 41  1  0
 41 42  1  0
 41 43  1  0
 43 44  1  0
 43 45  1  0
 43 46  1  0
 46 47  2  0
 47 48  1  0
 47 49  1  0
 49 50  1  0
 49 51  2  0
 51 52  1  0
 51 53  1  0
 53 54  1  0
 53 55  2  0
 55 56  1  0
 38  2  2  0
 55 46  1  0
 15  6  1  0
 33 20  1  0
M  CHG  1   3  -1
M  END
>  <UniqueID>  (25) 
25

>  <SMILES>  (25) 
CSc1ccc(C)c(Oc2n/c(=N/c3cccc(Cl)c3)[n-]cc2C(=O)NCc2ccccc2)c1

>  <Energy>  (25) 
71.1652234812766

>  <Genealogy>  (25) 
CSc1ccc(C)c(Oc2nc(=Nc3cccc(Cl)c3)[n-]cc2C(=O)NCc2ccccc2)c1 (protonated)
CSc1ccc(C)c(Oc2n/c(=N/c3cccc(Cl)c3)[n-]cc2C(=O)NCc2ccccc2)c1 (cis-trans isomerization)
CSc1ccc(C)c(Oc2n/c(=N/c3cccc(Cl)c3)[n-]cc2C(=O)NCc2ccccc2)c1 (3D coordinates assigned)
CSc1ccc(C)c(Oc2n/c(=N/c3cccc(Cl)c3)[n-]cc2C(=O)NCc2ccccc2)c1 (optimized conformer: 71.1652234812766 kcal/mol)

>  <smiles>  (25) 
CSc1ccc(C)c(Oc2nc(=Nc3cccc(Cl)c3)[nH]cc2C(=O)NCc2ccccc2)c1

>  <score_type>  (25) 
oracle

>  <origin>  (25) 
adg

>  <m_score__min__energy>  (25) 
-11.26

>  <m_primary>  (25) 
energy

$$$$
25:0
     RDKit          3D

 50 53  0  0  0  0  0  0  0  0999 V2000
   56.0091   30.5723   44.7535 H   0  0  0  0  0  0  0  0  0  0  0  0
   56.3660   29.5330   44.7040 C   0  0  0  0  0  0  0  0  0  0  0  0
   55.7154   28.7470   44.2930 H   0  0  0  0  0  0  0  0  0  0  0  0
   57.5950   29.2240   45.1450 C   0  0  0  0  0  0  0  0  0  0  0  0
   58.1820   27.9500   45.1450 C   0  0  0  0  0  0  0  0  0  0  0  0
   57.5950   26.7900   44.7760 C   0  0  0  0  0  0  0  0  0  0  0  0
   57.5093   26.5921   43.6974 H   0  0  0  0  0  0  0  0  0  0  0  0
   57.0570   25.7620   45.6960 C   0  0  0  0  0  0  0  0  0  0  0  0
   57.7080   24.6640   46.1220 N   0  0  0  0  0  0  0  0  0  0  0  0
   56.7960   24.0360   46.8960 C   0  0  0  0  0  0  0  0  0  0  0  0
   57.0410   22.9520   47.4880 O   0  0  0  0  0  0  0  0  0  0  0  0
   55.6030   24.6590   46.9840 N   0  0  0  0  0  0  0  0  0  0  0  0
   55.7840   25.7460   46.2170 C   0  0  0  0  0  0  0  0  0  0  0  0
   54.8030   26.7040   45.9940 O   0  0  0  0  0  0  0  0  0  0  0  0
   59.4790   28.1240   45.6130 C   0  0  0  0  0  0  0  0  0  0  0  0
   60.2394   27.3402   45.7452 H   0  0  0  0  0  0  0  0  0  0  0  0
   59.6290   29.4700   45.8800 C   0  0  0  0  0  0  0  0  0  0  0  0
   60.8820   30.0990   46.4080 C   0  0  0  0  0  0  0  0  0  0  0  0
   60.8620   30.0890   47.5078 H   0  0  0  0  0  0  0  0  0  0  0  0
   61.7549   29.5323   46.0520 H   0  0  0  0  0  0  0  0  0  0  0  0
   60.9491   31.1376   46.0520 H   0  0  0  0  0  0  0  0  0  0  0  0
   58.4870   30.1380   45.6050 N   0  0  0  0  0  0  0  0  0  0  0  0
   58.2850   31.5490   45.8050 C   0  0  0  0  0  0  0  0  0  0  0  0
   57.3650   32.1340   45.1650 O   0  0  0  0  0  0  0  0  0  0  0  0
   59.2150   32.3160   46.6060 N   0  0  0  0  0  0  0  0  0  0  0  0
   60.1800   31.9590   46.4100 H   0  0  0  0  0  0  0  0  0  0  0  0
   58.9410   32.1650   48.0600 C   0  0  0  0  0  0  0  0  0  0  0  0
   57.8714   31.9457   48.1940 H   0  0  0  0  0  0  0  0  0  0  0  0
   59.5779   31.3485   48.4312 H   0  0  0  0  0  0  0  0  0  0  0  0
   59.2900   33.4300   48.8760 C   0  0  0  0  0  0  0  0  0  0  0  0
   58.4220   34.1057   48.8657 H   0  0  0  0  0  0  0  0  0  0  0  0
   59.5429   33.1070   49.8966 H   0  0  0  0  0  0  0  0  0  0  0  0
   60.4600   34.1550   48.3350 N   0  0  0  0  0  0  0  0  0  0  0  0
   61.7270   33.4170   48.5590 C   0  0  0  0  0  0  0  0  0  0  0  0
   61.3918   32.6786   49.3022 H   0  0  0  0  0  0  0  0  0  0  0  0
   62.9200   34.3360   48.8430 C   0  0  0  0  0  0  0  0  0  0  0  0
   62.6708   35.4074   48.8388 H   0  0  0  0  0  0  0  0  0  0  0  0
   63.4434   34.2815   49.8090 H   0  0  0  0  0  0  0  0  0  0  0  0
   63.6040   33.8550   47.5740 C   0  0  0  0  0  0  0  0  0  0  0  0
   63.7860   34.6484   46.8341 H   0  0  0  0  0  0  0  0  0  0  0  0
   64.6146   33.4227   47.6170 H   0  0  0  0  0  0  0  0  0  0  0  0
   62.4060   32.9760   47.2580 C   0  0  0  0  0  0  0  0  0  0  0  0
   61.8629   33.2698   46.3477 H   0  0  0  0  0  0  0  0  0  0  0  0
   62.5458   31.9066   47.0415 H   0  0  0  0  0  0  0  0  0  0  0  0
   60.2660   34.5400   46.9100 C   0  0  0  0  0  0  0  0  0  0  0  0
   59.9861   35.6032   46.8741 H   0  0  0  0  0  0  0  0  0  0  0  0
   61.2147   34.3337   46.3928 H   0  0  0  0  0  0  0  0  0  0  0  0
   59.1760   33.7270   46.1830 C   0  0  0  0  0  0  0  0  0  0  0  0
   58.1891   34.1495   46.4228 H   0  0  0  0  0  0  0  0  0  0  0  0
   59.3578   33.7783   45.0993 H   0  0  0  0  0  0  0  0  0  0  0  0
  1  2  1  0
  2  3  1  0
  2  4  2  0
  4  5  1  0
  5  6  2  0
  6  7  1  0
  6  8  1  0
  8  9  1  0
  9 10  1  0
 10 11  2  0
 10 12  1  0
 12 13  1  0
 13 14  1  0
  5 15  1  0
 15 16  1  0
 15 17  2  0
 17 18  1  0
 18 19  1  0
 18 20  1  0
 18 21  1  0
 17 22  1  0
 22 23  1  0
 23 24  2  0
 23 25  1  0
 25 26  1  0
 25 27  1  0
 27 28  1  0
 27 29  1  0
 27 30  1  0
 30 31  1  0
 30 32  1  0
 30 33  1  0
 33 34  1  0
 34 35  1  0
 34 36  1  0
 36 37  1  0
 36 38  1  0
 36 39  1  0
 39 40  1  0
 39 41  1  0
 39 42  1  0
 42 43  1  0
 42 44  1  0
 33 45  1  0
 45 46  1  0
 45 47  1  0
 45 48  1  0
 48 49  1  0
 48 50  1  0
 22  4  1  0
 48 25  1  0
 13  8  2  0
 42 34  1  0
M  CHG  4   9  -1  12  -1  14  -1  25   1
M  END
>  <UniqueID>  (26) 
26

>  <SMILES>  (26) 
C=c1/c(=C/c2[n-]c(=O)[n-]c2[O-])cc(C)n1C(=O)[NH+]1CCN(C2CCC2)CC1

>  <Energy>  (26) 
194.148505642829

>  <Genealogy>  (26) 
C=c1c(=Cc2[n-]c(=O)[n-]c2[O-])cc(C)n1C(=O)[NH+]1CCN(C2CCC2)CC1 (protonated)
C=c1/c(=C/c2[n-]c(=O)[n-]c2[O-])cc(C)n1C(=O)[NH+]1CCN(C2CCC2)CC1 (cis-trans isomerization)
C=c1/c(=C/c2[n-]c(=O)[n-]c2[O-])cc(C)n1C(=O)[NH+]1CCN(C2CCC2)CC1 (3D coordinates assigned)
C=c1/c(=C/c2[n-]c(=O)[n-]c2[O-])cc(C)n1C(=O)[NH+]1CCN(C2CCC2)CC1 (nonaromatic ring conformer: 194.148505642829 kcal/mol)

>  <smiles>  (26) 
C=c1c(=Cc2[nH]c(=O)[nH]c2O)cc(C)n1C(=O)N1CCN(C2CCC2)CC1

>  <score_type>  (26) 
oracle

>  <origin>  (26) 
adg

>  <m_score__min__energy>  (26) 
-14.77

>  <m_primary>  (26) 
energy

$$$$
26:0
     RDKit          3D

 61 64  0  0  0  0  0  0  0  0999 V2000
   61.0486   32.0073   49.9694 H   0  0  0  0  0  0  0  0  0  0  0  0
   60.9840   31.3660   49.0780 C   0  0  0  0  0  0  0  0  0  0  0  0
   60.8440   30.0210   49.2190 N   0  0  0  0  0  0  0  0  0  0  0  0
   60.7560   29.1830   48.1510 C   0  0  0  0  0  0  0  0  0  0  0  0
   60.6230   27.9050   48.3720 N   0  0  0  0  0  0  0  0  0  0  0  0
   60.7850   26.8380   47.3860 C   0  0  0  0  0  0  0  0  0  0  0  0
   61.3728   26.0180   47.8244 H   0  0  0  0  0  0  0  0  0  0  0  0
   61.3097   27.2284   46.5015 H   0  0  0  0  0  0  0  0  0  0  0  0
   59.4310   26.3270   46.9850 C   0  0  0  0  0  0  0  0  0  0  0  0
   59.3170   25.1760   46.1900 C   0  0  0  0  0  0  0  0  0  0  0  0
   60.2218   24.6328   45.8796 H   0  0  0  0  0  0  0  0  0  0  0  0
   58.0580   24.7170   45.7910 C   0  0  0  0  0  0  0  0  0  0  0  0
   57.9755   23.8074   45.1779 H   0  0  0  0  0  0  0  0  0  0  0  0
   56.9010   25.4110   46.1690 C   0  0  0  0  0  0  0  0  0  0  0  0
   55.3160   24.8200   45.6830 S   0  0  0  0  0  0  0  0  0  0  0  0
   54.3420   25.9640   45.6290 O   0  0  0  0  0  0  0  0  0  0  0  0
   54.8190   23.8100   46.6800 O   0  0  0  0  0  0  0  0  0  0  0  0
   55.4350   24.0620   44.0790 C   0  0  0  0  0  0  0  0  0  0  0  0
   55.6046   22.9814   44.1958 H   0  0  0  0  0  0  0  0  0  0  0  0
   54.4997   24.2285   43.5245 H   0  0  0  0  0  0  0  0  0  0  0  0
   56.2743   24.5071   43.5245 H   0  0  0  0  0  0  0  0  0  0  0  0
   57.0140   26.5660   46.9550 C   0  0  0  0  0  0  0  0  0  0  0  0
   56.1090   27.1124   47.2589 H   0  0  0  0  0  0  0  0  0  0  0  0
   58.2710   27.0260   47.3540 C   0  0  0  0  0  0  0  0  0  0  0  0
   58.3523   27.9403   47.9602 H   0  0  0  0  0  0  0  0  0  0  0  0
   60.8090   29.7230   46.8500 C   0  0  0  0  0  0  0  0  0  0  0  0
   60.7367   29.0635   45.9726 H   0  0  0  0  0  0  0  0  0  0  0  0
   60.9540   31.1020   46.6840 C   0  0  0  0  0  0  0  0  0  0  0  0
   60.9959   31.5325   45.6726 H   0  0  0  0  0  0  0  0  0  0  0  0
   61.0460   31.9360   47.8030 C   0  0  0  0  0  0  0  0  0  0  0  0
   61.2110   33.6790   47.6210 S   0  0  0  0  0  0  0  0  0  0  0  0
   62.1270   34.1880   48.7010 O   0  0  0  0  0  0  0  0  0  0  0  0
   61.8270   33.9930   46.2850 O   0  0  0  0  0  0  0  0  0  0  0  0
   59.6310   34.4220   47.7660 N   0  0  0  0  0  0  0  0  0  0  0  0
   58.5430   33.4180   47.8250 C   0  0  0  0  0  0  0  0  0  0  0  0
   58.9748   32.4545   48.1334 H   0  0  0  0  0  0  0  0  0  0  0  0
   57.7979   33.7905   48.5434 H   0  0  0  0  0  0  0  0  0  0  0  0
   57.8170   33.2190   46.4820 C   0  0  0  0  0  0  0  0  0  0  0  0
   57.4314   32.1905   46.4229 H   0  0  0  0  0  0  0  0  0  0  0  0
   56.9807   33.9298   46.4093 H   0  0  0  0  0  0  0  0  0  0  0  0
   58.7560   33.4540   45.3760 N   0  0  0  0  0  0  0  0  0  0  0  0
   58.2880   32.9370   44.0720 C   0  0  0  0  0  0  0  0  0  0  0  0
   57.4361   33.5500   43.7426 H   0  0  0  0  0  0  0  0  0  0  0  0
   59.1430   32.9936   43.3822 H   0  0  0  0  0  0  0  0  0  0  0  0
   57.8470   31.4870   44.1050 C   0  0  0  0  0  0  0  0  0  0  0  0
   58.5950   30.5300   44.8140 C   0  0  0  0  0  0  0  0  0  0  0  0
   59.5046   30.8351   45.3521 H   0  0  0  0  0  0  0  0  0  0  0  0
   58.1880   29.1930   44.8380 C   0  0  0  0  0  0  0  0  0  0  0  0
   58.7732   28.4511   45.4011 H   0  0  0  0  0  0  0  0  0  0  0  0
   57.0390   28.7970   44.1480 C   0  0  0  0  0  0  0  0  0  0  0  0
   56.7180   27.7451   44.1716 H   0  0  0  0  0  0  0  0  0  0  0  0
   56.2980   29.7380   43.4280 C   0  0  0  0  0  0  0  0  0  0  0  0
   55.3960   29.4257   42.8814 H   0  0  0  0  0  0  0  0  0  0  0  0
   56.7020   31.0750   43.4020 C   0  0  0  0  0  0  0  0  0  0  0  0
   56.1199   31.8104   42.8273 H   0  0  0  0  0  0  0  0  0  0  0  0
   59.2090   34.8580   45.3240 C   0  0  0  0  0  0  0  0  0  0  0  0
   60.1641   34.9034   44.7801 H   0  0  0  0  0  0  0  0  0  0  0  0
   58.4329   35.4474   44.8137 H   0  0  0  0  0  0  0  0  0  0  0  0
   59.4100   35.4530   46.7370 C   0  0  0  0  0  0  0  0  0  0  0  0
   60.2837   36.1209   46.7158 H   0  0  0  0  0  0  0  0  0  0  0  0
   58.4891   35.9929   47.0024 H   0  0  0  0  0  0  0  0  0  0  0  0
  1  2  1  0
  2  3  1  0
  3  4  1  0
  4  5  2  0
  5  6  1  0
  6  7  1  0
  6  8  1  0
  6  9  1  0
  9 10  2  0
 10 11  1  0
 10 12  1  0
 12 13  1  0
 12 14  2  0
 14 15  1  0
 15 16  2  0
 15 17  2  0
 15 18  1  0
 18 19  1  0
 18 20  1  0
 18 21  1  0
 14 22  1  0
 22 23  1  0
 22 24  2  0
 24 25  1  0
  4 26  1  0
 26 27  1  0
 26 28  2  0
 28 29  1  0
 28 30  1  0
 30 31  1  0
 31 32  2  0
 31 33  2  0
 31 34  1  0
 34 35  1  0
 35 36  1  0
 35 37  1  0
 35 38  1  0
 38 39  1  0
 38 40  1  0
 38 41  1  0
 41 42  1  0
 42 43  1  0
 42 44  1  0
 42 45  1  0
 45 46  2  0
 46 47  1  0
 46 48  1  0
 48 49  1  0
 48 50  2  0
 50 51  1  0
 50 52  1  0
 52 53  1  0
 52 54  2  0
 54 55  1  0
 41 56  1  0
 56 57  1  0
 56 58  1  0
 56 59  1  0
 59 60  1  0
 59 61  1  0
 30  2  2  0
 59 34  1  0
 24  9  1  0
 54 45  1  0
M  CHG  1   3  -1
M  END
>  <UniqueID>  (27) 
27

>  <SMILES>  (27) 
CS(=O)(=O)c1ccc(C/N=c2\ccc(S(=O)(=O)N3CCN(Cc4ccccc4)CC3)c[n-]2)cc1

>  <Energy>  (27) 
76.08462008411372

>  <Genealogy>  (27) 
CS(=O)(=O)c1ccc(CN=c2ccc(S(=O)(=O)N3CCN(Cc4ccccc4)CC3)c[n-]2)cc1 (protonated)
CS(=O)(=O)c1ccc(C/N=c2\ccc(S(=O)(=O)N3CCN(Cc4ccccc4)CC3)c[n-]2)cc1 (cis-trans isomerization)
CS(=O)(=O)c1ccc(C/N=c2\ccc(S(=O)(=O)N3CCN(Cc4ccccc4)CC3)c[n-]2)cc1 (3D coordinates assigned)
CS(=O)(=O)c1ccc(C/N=c2\ccc(S(=O)(=O)N3CCN(Cc4ccccc4)CC3)c[n-]2)cc1 (nonaromatic ring conformer: 76.08462008411372 kcal/mol)

>  <smiles>  (27) 
CS(=O)(=O)c1ccc(CN=c2ccc(S(=O)(=O)N3CCN(Cc4ccccc4)CC3)c[nH]2)cc1

>  <score_type>  (27) 
oracle

>  <origin>  (27) 
adg

>  <m_score__min__energy>  (27) 
-10.75

>  <m_primary>  (27) 
energy

$$$$
27:0
     RDKit          3D

 67 71  0  0  0  0  0  0  0  0999 V2000
   53.6730   29.5950   54.8360 C   0  0  0  0  0  0  0  0  0  0  0  0
   54.3010   30.0080   53.7230 C   0  0  0  0  0  0  0  0  0  0  0  0
   53.6970   30.4040   52.5220 C   0  0  0  0  0  0  0  0  0  0  0  0
   52.3780   30.4220   52.2490 C   0  0  0  0  0  0  0  0  0  0  0  0
   51.7780   30.8350   50.9610 C   0  0  0  0  0  0  0  0  0  0  0  0
   51.6750   30.0680   49.8590 N   0  0  0  0  0  0  0  0  0  0  0  0
   51.0120   30.8550   48.9820 C   0  0  0  0  0  0  0  0  0  0  0  0
   50.7320   30.4860   47.8100 O   0  0  0  0  0  0  0  0  0  0  0  0
   50.6720   32.0680   49.4640 N   0  0  0  0  0  0  0  0  0  0  0  0
   51.1570   32.0380   50.7160 C   0  0  0  0  0  0  0  0  0  0  0  0
   51.0250   33.0830   51.6200 O   0  0  0  0  0  0  0  0  0  0  0  0
   54.7340   30.8100   51.6860 C   0  0  0  0  0  0  0  0  0  0  0  0
   55.9060   30.6210   52.3880 C   0  0  0  0  0  0  0  0  0  0  0  0
   57.2510   30.9030   51.8500 C   0  0  0  0  0  0  0  0  0  0  0  0
   57.8430   30.0170   51.1800 O   0  0  0  0  0  0  0  0  0  0  0  0
   57.9190   32.1400   52.1490 N   0  0  0  0  0  0  0  0  0  0  0  0
   58.9060   32.6870   51.2030 C   0  0  0  0  0  0  0  0  0  0  0  0
   60.2650   32.9080   51.8940 C   0  0  0  0  0  0  0  0  0  0  0  0
   60.4120   31.9850   53.0330 N   0  0  0  0  0  0  0  0  0  0  0  0
   61.4580   30.9970   53.0740 C   0  0  0  0  0  0  0  0  0  0  0  0
   61.9710   30.6780   54.1810 O   0  0  0  0  0  0  0  0  0  0  0  0
   61.9210   30.2960   51.8150 C   0  0  1  0  0  0  0  0  0  0  0  0
   63.1590   30.9670   51.2180 C   0  0  0  0  0  0  0  0  0  0  0  0
   64.3320   30.0410   51.5310 C   0  0  0  0  0  0  0  0  0  0  0  0
   63.7250   28.6720   51.8070 C   0  0  0  0  0  0  0  0  0  0  0  0
   62.3210   28.9210   52.0900 N   0  0  0  0  0  0  0  0  0  0  0  0
   61.4070   27.9060   52.5480 C   0  0  0  0  0  0  0  0  0  0  0  0
   61.2500   26.8610   51.8530 O   0  0  0  0  0  0  0  0  0  0  0  0
   60.6940   28.0560   53.7870 N   0  0  0  0  0  0  0  0  0  0  0  0
   59.6440   27.1600   54.1810 C   0  0  0  0  0  0  0  0  0  0  0  0
   58.3080   27.4610   53.8640 C   0  0  0  0  0  0  0  0  0  0  0  0
   57.2810   26.5850   54.2320 C   0  0  0  0  0  0  0  0  0  0  0  0
   57.5880   25.3950   54.9030 C   0  0  0  0  0  0  0  0  0  0  0  0
   58.9160   25.0780   55.2110 C   0  0  0  0  0  0  0  0  0  0  0  0
   59.9450   25.9530   54.8430 C   0  0  0  0  0  0  0  0  0  0  0  0
   59.3860   31.9960   54.0920 C   0  0  0  0  0  0  0  0  0  0  0  0
   58.0530   32.5410   53.5550 C   0  0  0  0  0  0  0  0  0  0  0  0
   55.6500   30.1420   53.6260 N   0  0  0  0  0  0  0  0  0  0  0  0
   56.6280   29.9190   54.6960 C   0  0  0  0  0  0  0  0  0  0  0  0
   54.2572   29.3080   55.7228 H   0  0  0  0  0  0  0  0  0  0  0  0
   52.5745   29.5438   54.8608 H   0  0  0  0  0  0  0  0  0  0  0  0
   51.6918   30.1041   53.0478 H   0  0  0  0  0  0  0  0  0  0  0  0
   54.6372   31.2049   50.6639 H   0  0  0  0  0  0  0  0  0  0  0  0
   59.0362   31.9808   50.3697 H   0  0  0  0  0  0  0  0  0  0  0  0
   58.5385   33.6551   50.8319 H   0  0  0  0  0  0  0  0  0  0  0  0
   61.0741   32.7255   51.1715 H   0  0  0  0  0  0  0  0  0  0  0  0
   60.3168   33.9434   52.2617 H   0  0  0  0  0  0  0  0  0  0  0  0
   61.0670   30.3411   51.1232 H   0  0  0  0  0  0  0  0  0  0  0  0
   63.0436   31.0833   50.1303 H   0  0  0  0  0  0  0  0  0  0  0  0
   63.3152   31.9713   51.6387 H   0  0  0  0  0  0  0  0  0  0  0  0
   65.0174   29.9889   50.6722 H   0  0  0  0  0  0  0  0  0  0  0  0
   64.9134   30.4044   52.3912 H   0  0  0  0  0  0  0  0  0  0  0  0
   63.8303   28.0201   50.9273 H   0  0  0  0  0  0  0  0  0  0  0  0
   64.2266   28.1637   52.6437 H   0  0  0  0  0  0  0  0  0  0  0  0
   61.0500   28.7440   54.4880 H   0  0  0  0  0  0  0  0  0  0  0  0
   58.0690   28.3892   53.3243 H   0  0  0  0  0  0  0  0  0  0  0  0
   56.2353   26.8305   53.9948 H   0  0  0  0  0  0  0  0  0  0  0  0
   56.7806   24.7051   55.1898 H   0  0  0  0  0  0  0  0  0  0  0  0
   59.1507   24.1432   55.7412 H   0  0  0  0  0  0  0  0  0  0  0  0
   60.9904   25.6978   55.0710 H   0  0  0  0  0  0  0  0  0  0  0  0
   59.2347   30.9698   54.4582 H   0  0  0  0  0  0  0  0  0  0  0  0
   59.7297   32.6474   54.9090 H   0  0  0  0  0  0  0  0  0  0  0  0
   57.2194   32.1258   54.1404 H   0  0  0  0  0  0  0  0  0  0  0  0
   58.0331   33.6377   53.6379 H   0  0  0  0  0  0  0  0  0  0  0  0
   56.1348   30.0315   55.6728 H   0  0  0  0  0  0  0  0  0  0  0  0
   57.0417   28.9035   54.6089 H   0  0  0  0  0  0  0  0  0  0  0  0
   57.4410   30.6548   54.6089 H   0  0  0  0  0  0  0  0  0  0  0  0
  1  2  2  0
  2  3  1  0
  3  4  2  3
  4  5  1  0
  5  6  1  0
  6  7  1  0
  7  8  2  0
  7  9  1  0
  9 10  1  0
 10 11  1  0
  3 12  1  0
 12 13  2  0
 13 14  1  0
 14 15  2  0
 14 16  1  0
 16 17  1  0
 17 18  1  0
 18 19  1  0
 19 20  1  0
 20 21  2  0
 20 22  1  0
 22 23  1  0
 23 24  1  0
 24 25  1  0
 25 26  1  0
 26 27  1  0
 27 28  2  0
 27 29  1  0
 29 30  1  0
 30 31  2  0
 31 32  1  0
 32 33  2  0
 33 34  1  0
 34 35  2  0
 19 36  1  0
 36 37  1  0
 13 38  1  0
 38 39  1  0
 38  2  1  0
 10  5  2  0
 37 16  1  0
 26 22  1  0
 35 30  1  0
  1 40  1  0
  1 41  1  0
  4 42  1  0
 12 43  1  0
 17 44  1  0
 17 45  1  0
 18 46  1  0
 18 47  1  0
 22 48  1  6
 23 49  1  0
 23 50  1  0
 24 51  1  0
 24 52  1  0
 25 53  1  0
 25 54  1  0
 29 55  1  0
 31 56  1  0
 32 57  1  0
 33 58  1  0
 34 59  1  0
 35 60  1  0
 36 61  1  0
 36 62  1  0
 37 63  1  0
 37 64  1  0
 39 65  1  0
 39 66  1  0
 39 67  1  0
M  CHG  3   6  -1   9  -1  11  -1
M  END
>  <UniqueID>  (28) 
28

>  <SMILES>  (28) 
C=c1c(=Cc2[n-]c(=O)[n-]c2[O-])cc(C(=O)N2CCN(C(=O)[C@H]3CCCN3C(=O)Nc3ccccc3)CC2)n1C

>  <Energy>  (28) 
152.56542007639288

>  <Genealogy>  (28) 
C=c1c(=Cc2[n-]c(=O)[n-]c2[O-])cc(C(=O)N2CCN(C(=O)C3CCCN3C(=O)Nc3ccccc3)CC2)n1C (protonated)
C=c1c(=Cc2[n-]c(=O)[n-]c2[O-])cc(C(=O)N2CCN(C(=O)[C@H]3CCCN3C(=O)Nc3ccccc3)CC2)n1C (chirality)
C=c1c(=Cc2[n-]c(=O)[n-]c2[O-])cc(C(=O)N2CCN(C(=O)[C@H]3CCCN3C(=O)Nc3ccccc3)CC2)n1C (3D coordinates assigned)
C=c1c(=Cc2[n-]c(=O)[n-]c2[O-])cc(C(=O)N2CCN(C(=O)[C@H]3CCCN3C(=O)Nc3ccccc3)CC2)n1C (nonaromatic ring conformer: 152.56542007639288 kcal/mol)

>  <smiles>  (28) 
C=c1c(=Cc2[nH]c(=O)[nH]c2O)cc(C(=O)N2CCN(C(=O)C3CCCN3C(=O)Nc3ccccc3)CC2)n1C

>  <score_type>  (28) 
oracle

>  <origin>  (28) 
adg

>  <m_score__min__energy>  (28) 
-19.77

>  <m_primary>  (28) 
energy

$$$$
28:0
     RDKit          3D

 60 63  0  0  0  0  0  0  0  0999 V2000
   60.5230   26.9070   48.2410 O   0  0  0  0  0  0  0  0  0  0  0  0
   59.2720   26.8950   48.0800 C   0  0  0  0  0  0  0  0  0  0  0  0
   58.5990   25.6320   47.6360 C   0  0  0  0  0  0  0  0  0  0  0  0
   57.2220   25.8720   47.3630 O   0  0  0  0  0  0  0  0  0  0  0  0
   56.7560   26.4150   46.1580 C   0  0  0  0  0  0  0  0  0  0  0  0
   55.6780   25.9910   45.6580 O   0  0  0  0  0  0  0  0  0  0  0  0
   57.5190   27.4920   45.4720 C   0  0  0  0  0  0  0  0  0  0  0  0
   58.8900   27.3230   45.2290 C   0  0  0  0  0  0  0  0  0  0  0  0
   59.6140   28.3090   44.5670 C   0  0  0  0  0  0  0  0  0  0  0  0
   58.9690   29.4690   44.1480 C   0  0  0  0  0  0  0  0  0  0  0  0
   57.6370   29.6540   44.3870 N   0  0  0  0  0  0  0  0  0  0  0  0
   56.9920   30.8820   43.8900 C   0  0  0  0  0  0  0  0  0  0  0  0
   57.6210   32.0950   44.5230 C   0  0  0  0  0  0  0  0  0  0  0  0
   58.2490   33.0680   43.7300 C   0  0  0  0  0  0  0  0  0  0  0  0
   58.8680   34.1700   44.3260 C   0  0  0  0  0  0  0  0  0  0  0  0
   58.8700   34.3060   45.7180 C   0  0  0  0  0  0  0  0  0  0  0  0
   59.6560   35.6840   46.4640 Cl  0  0  0  0  0  0  0  0  0  0  0  0
   58.2500   33.3400   46.5140 C   0  0  0  0  0  0  0  0  0  0  0  0
   57.6310   32.2370   45.9210 C   0  0  0  0  0  0  0  0  0  0  0  0
   56.9040   28.6880   45.0360 C   0  0  0  0  0  0  0  0  0  0  0  0
   55.6740   28.8730   45.2450 O   0  0  0  0  0  0  0  0  0  0  0  0
   58.4840   28.0630   48.3590 N   0  0  0  0  0  0  0  0  0  0  0  0
   59.0370   29.3580   48.6490 C   0  0  0  0  0  0  0  0  0  0  0  0
   60.1250   29.8710   47.9210 C   0  0  0  0  0  0  0  0  0  0  0  0
   60.6260   31.1450   48.2050 C   0  0  0  0  0  0  0  0  0  0  0  0
   60.0470   31.9250   49.2130 C   0  0  0  0  0  0  0  0  0  0  0  0
   60.6740   33.5420   49.5600 S   0  0  0  0  0  0  0  0  0  0  0  0
   61.0390   33.6220   51.0180 O   0  0  0  0  0  0  0  0  0  0  0  0
   59.5910   34.5520   49.2970 O   0  0  0  0  0  0  0  0  0  0  0  0
   62.0750   33.9470   48.5990 N   0  0  0  0  0  0  0  0  0  0  0  0
   63.2540   33.1830   49.0000 C   0  0  0  0  0  0  0  0  0  0  0  0
   64.1700   33.1530   47.7890 C   0  0  0  0  0  0  0  0  0  0  0  0
   63.2590   33.3920   46.5950 C   0  0  0  0  0  0  0  0  0  0  0  0
   61.8780   33.6530   47.1810 C   0  0  0  0  0  0  0  0  0  0  0  0
   58.9440   31.4290   49.9190 C   0  0  0  0  0  0  0  0  0  0  0  0
   58.4400   30.1560   49.6350 C   0  0  0  0  0  0  0  0  0  0  0  0
   59.0899   25.2611   46.7241 H   0  0  0  0  0  0  0  0  0  0  0  0
   58.6782   24.8845   48.4391 H   0  0  0  0  0  0  0  0  0  0  0  0
   59.3956   26.4053   45.5639 H   0  0  0  0  0  0  0  0  0  0  0  0
   60.6887   28.1730   44.3760 H   0  0  0  0  0  0  0  0  0  0  0  0
   59.5389   30.2463   43.6179 H   0  0  0  0  0  0  0  0  0  0  0  0
   57.1123   30.9388   42.7981 H   0  0  0  0  0  0  0  0  0  0  0  0
   55.9235   30.8557   44.1502 H   0  0  0  0  0  0  0  0  0  0  0  0
   58.2539   32.9627   42.6351 H   0  0  0  0  0  0  0  0  0  0  0  0
   59.3546   34.9319   43.6992 H   0  0  0  0  0  0  0  0  0  0  0  0
   58.2492   33.4479   47.6087 H   0  0  0  0  0  0  0  0  0  0  0  0
   57.1489   31.4756   46.5517 H   0  0  0  0  0  0  0  0  0  0  0  0
   57.4500   27.9410   48.4490 H   0  0  0  0  0  0  0  0  0  0  0  0
   60.5841   29.2672   47.1244 H   0  0  0  0  0  0  0  0  0  0  0  0
   61.4801   31.5367   47.6331 H   0  0  0  0  0  0  0  0  0  0  0  0
   63.7567   33.6735   49.8466 H   0  0  0  0  0  0  0  0  0  0  0  0
   62.9830   32.1672   49.3235 H   0  0  0  0  0  0  0  0  0  0  0  0
   64.9293   33.9457   47.8598 H   0  0  0  0  0  0  0  0  0  0  0  0
   64.7135   32.2001   47.7077 H   0  0  0  0  0  0  0  0  0  0  0  0
   63.6025   34.2633   46.0180 H   0  0  0  0  0  0  0  0  0  0  0  0
   63.2544   32.5333   45.9076 H   0  0  0  0  0  0  0  0  0  0  0  0
   61.4078   34.5105   46.6773 H   0  0  0  0  0  0  0  0  0  0  0  0
   61.2181   32.7836   47.0440 H   0  0  0  0  0  0  0  0  0  0  0  0
   58.4722   32.0433   50.7001 H   0  0  0  0  0  0  0  0  0  0  0  0
   57.5685   29.7778   50.1894 H   0  0  0  0  0  0  0  0  0  0  0  0
  1  2  2  0
  2  3  1  0
  3  4  1  0
  4  5  1  0
  5  6  2  0
  5  7  1  0
  7  8  2  0
  8  9  1  0
  9 10  2  0
 10 11  1  0
 11 12  1  0
 12 13  1  0
 13 14  2  0
 14 15  1  0
 15 16  2  0
 16 17  1  0
 16 18  1  0
 18 19  2  0
 11 20  1  0
 20 21  2  0
  2 22  1  0
 22 23  1  0
 23 24  2  0
 24 25  1  0
 25 26  2  0
 26 27  1  0
 27 28  2  0
 27 29  2  0
 27 30  1  0
 30 31  1  0
 31 32  1  0
 32 33  1  0
 33 34  1  0
 26 35  1  0
 35 36  2  0
 20  7  1  0
 36 23  1  0
 19 13  1  0
 34 30  1  0
  3 37  1  0
  3 38  1  0
  8 39  1  0
  9 40  1  0
 10 41  1  0
 12 42  1  0
 12 43  1  0
 14 44  1  0
 15 45  1  0
 18 46  1  0
 19 47  1  0
 22 48  1  0
 24 49  1  0
 25 50  1  0
 31 51  1  0
 31 52  1  0
 32 53  1  0
 32 54  1  0
 33 55  1  0
 33 56  1  0
 34 57  1  0
 34 58  1  0
 35 59  1  0
 36 60  1  0
M  END
>  <UniqueID>  (29) 
29

>  <SMILES>  (29) 
O=C(COC(=O)c1cccn(Cc2ccc(Cl)cc2)c1=O)Nc1ccc(S(=O)(=O)N2CCCC2)cc1

>  <Energy>  (29) 
68.7392763005608

>  <Genealogy>  (29) 
O=C(COC(=O)c1cccn(Cc2ccc(Cl)cc2)c1=O)Nc1ccc(S(=O)(=O)N2CCCC2)cc1 (3D coordinates assigned)
O=C(COC(=O)c1cccn(Cc2ccc(Cl)cc2)c1=O)Nc1ccc(S(=O)(=O)N2CCCC2)cc1 (nonaromatic ring conformer: 68.7392763005608 kcal/mol)

>  <smiles>  (29) 
O=C(COC(=O)c1cccn(Cc2ccc(Cl)cc2)c1=O)Nc1ccc(S(=O)(=O)N2CCCC2)cc1

>  <score_type>  (29) 
oracle

>  <origin>  (29) 
adg

>  <m_score__min__energy>  (29) 
-9.6300000000000008

>  <m_primary>  (29) 
energy

$$$$
29:0
     RDKit          3D

 61 65  0  0  0  0  0  0  0  0999 V2000
   60.3940   30.9480   46.2410 O   0  0  0  0  0  0  0  0  0  0  0  0
   59.3180   31.1210   46.8780 C   0  0  0  0  0  0  0  0  0  0  0  0
   58.1720   31.6730   46.2080 N   0  0  0  0  0  0  0  0  0  0  0  0
   58.3000   32.4370   44.9630 C   0  0  1  0  0  0  0  0  0  0  0  0
   57.3860   31.8610   43.8690 C   0  0  0  0  0  0  0  0  0  0  0  0
   56.3640   30.4720   44.4950 S   0  0  0  0  0  0  0  0  0  0  0  0
   57.3260   29.0920   43.7630 C   0  0  0  0  0  0  0  0  0  0  0  0
   58.1860   28.4080   44.7930 C   0  0  0  0  0  0  0  0  0  0  0  0
   57.5970   27.7500   45.8850 C   0  0  0  0  0  0  0  0  0  0  0  0
   58.3950   27.1100   46.8370 C   0  0  0  0  0  0  0  0  0  0  0  0
   59.7870   27.1210   46.7060 C   0  0  0  0  0  0  0  0  0  0  0  0
   60.3820   27.7750   45.6220 C   0  0  0  0  0  0  0  0  0  0  0  0
   59.5870   28.4190   44.6690 C   0  0  0  0  0  0  0  0  0  0  0  0
   57.9340   33.8730   45.2110 C   0  0  0  0  0  0  0  0  0  0  0  0
   56.7960   34.2940   44.8660 O   0  0  0  0  0  0  0  0  0  0  0  0
   58.8780   34.7460   45.8490 N   0  0  0  0  0  0  0  0  0  0  0  0
   59.8940   34.3640   46.7860 C   0  0  0  0  0  0  0  0  0  0  0  0
   59.6240   34.5000   48.1620 C   0  0  0  0  0  0  0  0  0  0  0  0
   60.5990   34.1710   49.1160 C   0  0  0  0  0  0  0  0  0  0  0  0
   61.8430   33.7160   48.6760 C   0  0  0  0  0  0  0  0  0  0  0  0
   62.1210   33.5950   47.3380 C   0  0  0  0  0  0  0  0  0  0  0  0
   61.1690   33.9230   46.3690 C   0  0  0  0  0  0  0  0  0  0  0  0
   63.5040   33.1230   47.0950 C   0  0  0  0  0  0  0  0  0  0  0  0
   64.0860   32.9250   48.5080 C   0  0  0  0  0  0  0  0  0  0  0  0
   63.0010   33.3440   49.5200 C   0  0  0  0  0  0  0  0  0  0  0  0
   59.2630   30.7270   48.2990 C   0  0  0  0  0  0  0  0  0  0  0  0
   59.9680   29.6110   48.7810 C   0  0  0  0  0  0  0  0  0  0  0  0
   59.8690   29.2740   50.1320 C   0  0  0  0  0  0  0  0  0  0  0  0
   60.4960   28.2690   50.5710 O   0  0  0  0  0  0  0  0  0  0  0  0
   59.0660   30.0550   50.9810 C   0  0  0  0  0  0  0  0  0  0  0  0
   58.9210   29.7720   52.3510 C   0  0  0  0  0  0  0  0  0  0  0  0
   58.1080   30.5820   53.1510 C   0  0  0  0  0  0  0  0  0  0  0  0
   57.4360   31.6750   52.5940 C   0  0  0  0  0  0  0  0  0  0  0  0
   57.5720   31.9630   51.2340 C   0  0  0  0  0  0  0  0  0  0  0  0
   58.3820   31.1610   50.4220 C   0  0  0  0  0  0  0  0  0  0  0  0
   58.5040   31.4420   49.1290 O   0  0  0  0  0  0  0  0  0  0  0  0
   57.2260   31.5650   46.6430 H   0  0  0  0  0  0  0  0  0  0  0  0
   59.3435   32.3693   44.6218 H   0  0  0  0  0  0  0  0  0  0  0  0
   56.7199   32.6576   43.5060 H   0  0  0  0  0  0  0  0  0  0  0  0
   58.0233   31.4778   43.0584 H   0  0  0  0  0  0  0  0  0  0  0  0
   56.6277   28.3571   43.3361 H   0  0  0  0  0  0  0  0  0  0  0  0
   57.9844   29.5062   42.9853 H   0  0  0  0  0  0  0  0  0  0  0  0
   56.5022   27.7384   45.9914 H   0  0  0  0  0  0  0  0  0  0  0  0
   57.9275   26.5970   47.6904 H   0  0  0  0  0  0  0  0  0  0  0  0
   60.4141   26.6155   47.4552 H   0  0  0  0  0  0  0  0  0  0  0  0
   61.4772   27.7826   45.5192 H   0  0  0  0  0  0  0  0  0  0  0  0
   60.0585   28.9356   43.8200 H   0  0  0  0  0  0  0  0  0  0  0  0
   58.6407   34.8671   48.4912 H   0  0  0  0  0  0  0  0  0  0  0  0
   60.3868   34.2699   50.1908 H   0  0  0  0  0  0  0  0  0  0  0  0
   61.4089   33.8390   45.2988 H   0  0  0  0  0  0  0  0  0  0  0  0
   63.5009   32.1748   46.5373 H   0  0  0  0  0  0  0  0  0  0  0  0
   64.0918   33.8299   46.4910 H   0  0  0  0  0  0  0  0  0  0  0  0
   64.3528   31.8686   48.6595 H   0  0  0  0  0  0  0  0  0  0  0  0
   64.9942   33.5313   48.6410 H   0  0  0  0  0  0  0  0  0  0  0  0
   62.7452   32.5074   50.1868 H   0  0  0  0  0  0  0  0  0  0  0  0
   63.3284   34.1664   50.1731 H   0  0  0  0  0  0  0  0  0  0  0  0
   60.5905   29.0101   48.1017 H   0  0  0  0  0  0  0  0  0  0  0  0
   59.4471   28.9134   52.7937 H   0  0  0  0  0  0  0  0  0  0  0  0
   57.9968   30.3585   54.2223 H   0  0  0  0  0  0  0  0  0  0  0  0
   56.7991   32.3091   53.2283 H   0  0  0  0  0  0  0  0  0  0  0  0
   57.0408   32.8228   50.7998 H   0  0  0  0  0  0  0  0  0  0  0  0
  1  2  2  0
  2  3  1  0
  3  4  1  0
  4  5  1  0
  5  6  1  0
  6  7  1  0
  7  8  1  0
  8  9  2  0
  9 10  1  0
 10 11  2  0
 11 12  1  0
 12 13  2  0
  4 14  1  0
 14 15  2  0
 14 16  1  0
 16 17  1  0
 17 18  2  0
 18 19  1  0
 19 20  2  0
 20 21  1  0
 21 22  2  0
 21 23  1  0
 23 24  1  0
 24 25  1  0
  2 26  1  0
 26 27  2  0
 27 28  1  0
 28 29  2  0
 28 30  1  0
 30 31  2  0
 31 32  1  0
 32 33  2  0
 33 34  1  0
 34 35  2  0
 35 36  1  0
 13  8  1  0
 22 17  1  0
 36 26  1  0
 25 20  1  0
 35 30  1  0
  3 37  1  0
  4 38  1  6
  5 39  1  0
  5 40  1  0
  7 41  1  0
  7 42  1  0
  9 43  1  0
 10 44  1  0
 11 45  1  0
 12 46  1  0
 13 47  1  0
 18 48  1  0
 19 49  1  0
 22 50  1  0
 23 51  1  0
 23 52  1  0
 24 53  1  0
 24 54  1  0
 25 55  1  0
 25 56  1  0
 27 57  1  0
 31 58  1  0
 32 59  1  0
 33 60  1  0
 34 61  1  0
M  CHG  1  16  -1
M  END
>  <UniqueID>  (30) 
30

>  <SMILES>  (30) 
O=C(N[C@@H](CSCc1ccccc1)C(=O)[N-]c1ccc2c(c1)CCC2)c1cc(=O)c2ccccc2o1

>  <Energy>  (30) 
77.29430311976851

>  <Genealogy>  (30) 
O=C(NC(CSCc1ccccc1)C(=O)[N-]c1ccc2c(c1)CCC2)c1cc(=O)c2ccccc2o1 (protonated)
O=C(N[C@@H](CSCc1ccccc1)C(=O)[N-]c1ccc2c(c1)CCC2)c1cc(=O)c2ccccc2o1 (chirality)
O=C(N[C@@H](CSCc1ccccc1)C(=O)[N-]c1ccc2c(c1)CCC2)c1cc(=O)c2ccccc2o1 (3D coordinates assigned)
O=C(N[C@@H](CSCc1ccccc1)C(=O)[N-]c1ccc2c(c1)CCC2)c1cc(=O)c2ccccc2o1 (nonaromatic ring conformer: 77.29430311976851 kcal/mol)

>  <smiles>  (30) 
O=C(NC(CSCc1ccccc1)C(=O)Nc1ccc2c(c1)CCC2)c1cc(=O)c2ccccc2o1

>  <score_type>  (30) 
oracle

>  <origin>  (30) 
adg

>  <m_score__min__energy>  (30) 
-12.32

>  <m_primary>  (30) 
energy

$$$$
30:0
     RDKit          3D

 47 49  0  0  0  0  0  0  0  0999 V2000
   57.1411   35.1170   44.8407 H   0  0  0  0  0  0  0  0  0  0  0  0
   58.0150   34.5280   45.1560 C   0  0  0  0  0  0  0  0  0  0  0  0
   57.8730   33.2620   45.4400 C   0  0  0  0  0  0  0  0  0  0  0  0
   57.7440   31.9930   45.7150 C   0  0  0  0  0  0  0  0  0  0  0  0
   57.1361   31.6747   46.5747 H   0  0  0  0  0  0  0  0  0  0  0  0
   58.4140   30.9870   44.8720 C   0  0  0  0  0  0  0  0  0  0  0  0
   59.4982   31.0862   44.7146 H   0  0  0  0  0  0  0  0  0  0  0  0
   57.7860   29.9590   44.2850 C   0  0  0  0  0  0  0  0  0  0  0  0
   57.4002   30.1126   43.2664 H   0  0  0  0  0  0  0  0  0  0  0  0
   57.5730   28.6330   44.9050 C   0  0  0  0  0  0  0  0  0  0  0  0
   58.6490   27.7430   45.0860 C   0  0  0  0  0  0  0  0  0  0  0  0
   59.6658   28.0475   44.7973 H   0  0  0  0  0  0  0  0  0  0  0  0
   58.4310   26.4740   45.6310 C   0  0  0  0  0  0  0  0  0  0  0  0
   59.2785   25.7901   45.7860 H   0  0  0  0  0  0  0  0  0  0  0  0
   57.1390   26.0730   45.9790 C   0  0  0  0  0  0  0  0  0  0  0  0
   56.9710   25.0757   46.4116 H   0  0  0  0  0  0  0  0  0  0  0  0
   56.0590   26.9380   45.7780 C   0  0  0  0  0  0  0  0  0  0  0  0
   54.7750   26.5290   46.1180 O   0  0  0  0  0  0  0  0  0  0  0  0
   56.2710   28.2140   45.2360 C   0  0  0  0  0  0  0  0  0  0  0  0
   55.1860   29.0630   45.0350 O   0  0  0  0  0  0  0  0  0  0  0  0
   59.3520   35.1840   45.2550 C   0  0  0  0  0  0  0  0  0  0  0  0
   59.3488   35.8973   46.0924 H   0  0  0  0  0  0  0  0  0  0  0  0
   59.5675   35.7178   44.3177 H   0  0  0  0  0  0  0  0  0  0  0  0
   60.3540   34.1950   45.4780 O   0  0  0  0  0  0  0  0  0  0  0  0
   61.1240   34.0930   46.6470 C   0  0  0  0  0  0  0  0  0  0  0  0
   62.5070   33.8360   46.6210 C   0  0  0  0  0  0  0  0  0  0  0  0
   63.0226   33.7086   45.6577 H   0  0  0  0  0  0  0  0  0  0  0  0
   63.2280   33.7420   47.8140 C   0  0  0  0  0  0  0  0  0  0  0  0
   64.3102   33.5474   47.7832 H   0  0  0  0  0  0  0  0  0  0  0  0
   62.5820   33.8940   49.0540 C   0  0  0  0  0  0  0  0  0  0  0  0
   63.3400   33.8170   50.3260 C   0  0  0  0  0  0  0  0  0  0  0  0
   63.0390   34.6070   51.2630 O   0  0  0  0  0  0  0  0  0  0  0  0
   64.4380   32.8420   50.5400 C   0  0  0  0  0  0  0  0  0  0  0  0
   65.7570   33.1420   50.1520 C   0  0  0  0  0  0  0  0  0  0  0  0
   65.9856   34.1185   49.7001 H   0  0  0  0  0  0  0  0  0  0  0  0
   66.7790   32.2050   50.3380 C   0  0  0  0  0  0  0  0  0  0  0  0
   67.8090   32.4496   50.0394 H   0  0  0  0  0  0  0  0  0  0  0  0
   66.4940   30.9600   50.9020 C   0  0  0  0  0  0  0  0  0  0  0  0
   67.2996   30.2260   51.0510 H   0  0  0  0  0  0  0  0  0  0  0  0
   65.1850   30.6470   51.2770 C   0  0  0  0  0  0  0  0  0  0  0  0
   64.9609   29.6646   51.7182 H   0  0  0  0  0  0  0  0  0  0  0  0
   64.1590   31.5790   51.0930 C   0  0  0  0  0  0  0  0  0  0  0  0
   63.1289   31.3234   51.3820 H   0  0  0  0  0  0  0  0  0  0  0  0
   61.2040   34.1650   49.0730 C   0  0  0  0  0  0  0  0  0  0  0  0
   60.6882   34.3043   50.0346 H   0  0  0  0  0  0  0  0  0  0  0  0
   60.4830   34.2590   47.8790 C   0  0  0  0  0  0  0  0  0  0  0  0
   59.4029   34.4652   47.9087 H   0  0  0  0  0  0  0  0  0  0  0  0
  1  2  1  0
  2  3  2  0
  3  4  2  0
  4  5  1  0
  4  6  1  0
  6  7  1  0
  6  8  2  0
  8  9  1  0
  8 10  1  0
 10 11  2  0
 11 12  1  0
 11 13  1  0
 13 14  1  0
 13 15  2  0
 15 16  1  0
 15 17  1  0
 17 18  1  0
 17 19  2  0
 19 20  1  0
  2 21  1  0
 21 22  1  0
 21 23  1  0
 21 24  1  0
 24 25  1  0
 25 26  2  0
 26 27  1  0
 26 28  1  0
 28 29  1  0
 28 30  2  0
 30 31  1  0
 31 32  2  0
 31 33  1  0
 33 34  2  0
 34 35  1  0
 34 36  1  0
 36 37  1  0
 36 38  2  0
 38 39  1  0
 38 40  1  0
 40 41  1  0
 40 42  2  0
 42 43  1  0
 30 44  1  0
 44 45  1  0
 44 46  2  0
 46 47  1  0
 19 10  1  0
 46 25  1  0
 42 33  1  0
M  CHG  2  18  -1  20  -1
M  END
>  <UniqueID>  (31) 
31

>  <SMILES>  (31) 
O=C(c1ccccc1)c1ccc(OCC=C=C/C=C\c2cccc([O-])c2[O-])cc1

>  <Energy>  (31) 
56.33791342742149

>  <Genealogy>  (31) 
O=C(c1ccccc1)c1ccc(OCC=C=CC=Cc2cccc([O-])c2[O-])cc1 (protonated)
O=C(c1ccccc1)c1ccc(OCC=C=C/C=C\c2cccc([O-])c2[O-])cc1 (cis-trans isomerization)
O=C(c1ccccc1)c1ccc(OCC=C=C/C=C\c2cccc([O-])c2[O-])cc1 (3D coordinates assigned)
O=C(c1ccccc1)c1ccc(OCC=C=C/C=C\c2cccc([O-])c2[O-])cc1 (optimized conformer: 56.33791342742149 kcal/mol)

>  <smiles>  (31) 
O=C(c1ccccc1)c1ccc(OCC=C=CC=Cc2cccc(O)c2O)cc1

>  <score_type>  (31) 
oracle

>  <origin>  (31) 
adg

>  <m_score__min__energy>  (31) 
-17.600000000000001

>  <m_primary>  (31) 
energy

$$$$
31:0
     RDKit          3D

 34 36  0  0  0  0  0  0  0  0999 V2000
   58.0890   31.6510   51.1990 C   0  0  0  0  0  0  0  0  0  0  0  0
   58.7570   32.1460   50.0030 N   0  0  0  0  0  0  0  0  0  0  0  0
   60.0850   32.3000   49.8420 C   0  0  0  0  0  0  0  0  0  0  0  0
   60.3570   32.6980   48.5490 C   0  0  0  0  0  0  0  0  0  0  0  0
   59.1340   32.7800   47.9000 C   0  0  0  0  0  0  0  0  0  0  0  0
   58.9020   33.1100   46.4780 C   0  0  0  0  0  0  0  0  0  0  0  0
   58.3540   32.3310   45.5410 C   0  0  0  0  0  0  0  0  0  0  0  0
   57.9870   30.9030   45.6580 C   0  0  0  0  0  0  0  0  0  0  0  0
   58.6490   30.0650   46.5700 C   0  0  0  0  0  0  0  0  0  0  0  0
   58.3060   28.7150   46.6670 C   0  0  0  0  0  0  0  0  0  0  0  0
   57.3010   28.1820   45.8490 C   0  0  0  0  0  0  0  0  0  0  0  0
   56.8800   26.4770   45.9630 S   0  0  0  0  0  0  0  0  0  0  0  0
   55.1600   26.3070   45.9810 N   0  0  0  0  0  0  0  0  0  0  0  0
   57.4480   25.7320   44.7880 O   0  0  0  0  0  0  0  0  0  0  0  0
   57.4520   25.8930   47.2250 O   0  0  0  0  0  0  0  0  0  0  0  0
   56.6540   29.0090   44.9220 C   0  0  0  0  0  0  0  0  0  0  0  0
   56.9970   30.3610   44.8240 C   0  0  0  0  0  0  0  0  0  0  0  0
   58.2550   33.1260   44.3160 C   0  0  0  0  0  0  0  0  0  0  0  0
   57.8020   32.7080   43.2180 O   0  0  0  0  0  0  0  0  0  0  0  0
   58.7630   34.4420   44.4930 N   0  0  0  0  0  0  0  0  0  0  0  0
   59.1660   34.4120   45.8560 C   0  0  0  0  0  0  0  0  0  0  0  0
   59.6630   35.4070   46.4450 O   0  0  0  0  0  0  0  0  0  0  0  0
   58.1690   32.4140   48.8220 C   0  0  0  0  0  0  0  0  0  0  0  0
   58.6050   32.0334   52.0920 H   0  0  0  0  0  0  0  0  0  0  0  0
   57.0440   31.9945   51.2041 H   0  0  0  0  0  0  0  0  0  0  0  0
   58.1135   30.5513   51.2041 H   0  0  0  0  0  0  0  0  0  0  0  0
   60.8402   32.1334   50.6243 H   0  0  0  0  0  0  0  0  0  0  0  0
   61.3471   32.9084   48.1185 H   0  0  0  0  0  0  0  0  0  0  0  0
   59.4427   30.4747   47.2120 H   0  0  0  0  0  0  0  0  0  0  0  0
   58.8266   28.0677   47.3881 H   0  0  0  0  0  0  0  0  0  0  0  0
   54.7830   27.0910   46.5590 H   0  0  0  0  0  0  0  0  0  0  0  0
   55.8729   28.5932   44.2685 H   0  0  0  0  0  0  0  0  0  0  0  0
   56.4884   31.0029   44.0896 H   0  0  0  0  0  0  0  0  0  0  0  0
   57.0893   32.3517   48.6211 H   0  0  0  0  0  0  0  0  0  0  0  0
  1  2  1  0
  2  3  1  0
  3  4  2  0
  4  5  1  0
  5  6  1  0
  6  7  2  0
  7  8  1  0
  8  9  2  0
  9 10  1  0
 10 11  2  0
 11 12  1  0
 12 13  1  0
 12 14  2  0
 12 15  2  0
 11 16  1  0
 16 17  2  0
  7 18  1  0
 18 19  2  0
 18 20  1  0
 20 21  1  0
 21 22  2  0
  5 23  2  0
 23  2  1  0
 21  6  1  0
 17  8  1  0
  1 24  1  0
  1 25  1  0
  1 26  1  0
  3 27  1  0
  4 28  1  0
  9 29  1  0
 10 30  1  0
 13 31  1  0
 16 32  1  0
 17 33  1  0
 23 34  1  0
M  CHG  2  13  -1  20  -1
M  END
>  <UniqueID>  (32) 
32

>  <SMILES>  (32) 
Cn1ccc(C2=C(c3ccc(S([NH-])(=O)=O)cc3)C(=O)[N-]C2=O)c1

>  <Energy>  (32) 
92.9766344848564

>  <Genealogy>  (32) 
Cn1ccc(C2=C(c3ccc(S([NH-])(=O)=O)cc3)C(=O)[N-]C2=O)c1 (protonated)
Cn1ccc(C2=C(c3ccc(S([NH-])(=O)=O)cc3)C(=O)[N-]C2=O)c1 (3D coordinates assigned)
Cn1ccc(C2=C(c3ccc(S([NH-])(=O)=O)cc3)C(=O)[N-]C2=O)c1 (nonaromatic ring conformer: 92.9766344848564 kcal/mol)

>  <smiles>  (32) 
Cn1ccc(C2=C(c3ccc(S(N)(=O)=O)cc3)C(=O)NC2=O)c1

>  <score_type>  (32) 
oracle

>  <origin>  (32) 
adg

>  <m_score__min__energy>  (32) 
-11.460000000000001

>  <m_primary>  (32) 
energy

$$$$
32:0
     RDKit          3D

 43 45  0  0  0  0  0  0  0  0999 V2000
   57.5280   29.0660   44.2060 C   0  0  0  0  0  0  0  0  0  0  0  0
   56.3590   29.8850   44.6390 C   0  0  0  0  0  0  0  0  0  0  0  0
   55.3110   29.3070   45.0340 O   0  0  0  0  0  0  0  0  0  0  0  0
   56.4060   31.3110   44.4980 N   0  0  0  0  0  0  0  0  0  0  0  0
   57.3800   32.1900   45.0790 C   0  0  0  0  0  0  0  0  0  0  0  0
   57.2140   33.5710   44.9270 C   0  0  0  0  0  0  0  0  0  0  0  0
   58.1320   34.4590   45.4890 C   0  0  0  0  0  0  0  0  0  0  0  0
   59.2260   33.9750   46.2110 C   0  0  0  0  0  0  0  0  0  0  0  0
   59.4180   32.5920   46.3660 C   0  0  0  0  0  0  0  0  0  0  0  0
   60.5790   32.0870   47.1430 C   0  0  0  0  0  0  0  0  0  0  0  0
   61.6570   32.7390   47.1320 O   0  0  0  0  0  0  0  0  0  0  0  0
   60.5330   30.8550   47.8790 N   0  0  0  0  0  0  0  0  0  0  0  0
   60.1470   29.5710   47.3680 C   0  0  0  0  0  0  0  0  0  0  0  0
   59.1860   28.8270   48.0600 C   0  0  0  0  0  0  0  0  0  0  0  0
   58.8280   27.5480   47.6190 C   0  0  0  0  0  0  0  0  0  0  0  0
   59.4370   26.9960   46.4860 C   0  0  0  0  0  0  0  0  0  0  0  0
   59.0750   25.6660   46.0790 N   0  0  0  0  0  0  0  0  0  0  0  0
   57.8930   25.1330   46.1880 C   0  0  0  0  0  0  0  0  0  0  0  0
   57.7860   23.8200   46.5230 N   0  0  0  0  0  0  0  0  0  0  0  0
   56.5730   23.2130   46.6220 C   0  0  0  0  0  0  0  0  0  0  0  0
   56.4910   21.7650   46.9880 C   0  0  0  0  0  0  0  0  0  0  0  0
   55.4100   23.9440   46.3590 C   0  0  0  0  0  0  0  0  0  0  0  0
   55.5350   25.2880   46.0060 C   0  0  0  0  0  0  0  0  0  0  0  0
   54.5120   25.9760   45.7590 O   0  0  0  0  0  0  0  0  0  0  0  0
   56.7660   25.8530   45.9250 N   0  0  0  0  0  0  0  0  0  0  0  0
   60.3450   27.7730   45.7450 C   0  0  0  0  0  0  0  0  0  0  0  0
   60.6930   29.0540   46.1800 C   0  0  0  0  0  0  0  0  0  0  0  0
   58.5090   31.7030   45.7620 C   0  0  0  0  0  0  0  0  0  0  0  0
   58.0619   28.6919   45.0920 H   0  0  0  0  0  0  0  0  0  0  0  0
   57.1767   28.2155   43.6033 H   0  0  0  0  0  0  0  0  0  0  0  0
   58.2074   29.6866   43.6033 H   0  0  0  0  0  0  0  0  0  0  0  0
   56.3544   33.9591   44.3609 H   0  0  0  0  0  0  0  0  0  0  0  0
   57.9940   35.5430   45.3633 H   0  0  0  0  0  0  0  0  0  0  0  0
   59.9405   34.6804   46.6603 H   0  0  0  0  0  0  0  0  0  0  0  0
   58.7086   29.2497   48.9564 H   0  0  0  0  0  0  0  0  0  0  0  0
   58.0648   26.9741   48.1650 H   0  0  0  0  0  0  0  0  0  0  0  0
   56.4852   21.6634   48.0833 H   0  0  0  0  0  0  0  0  0  0  0  0
   55.5670   21.3341   46.5749 H   0  0  0  0  0  0  0  0  0  0  0  0
   57.3604   21.2326   46.5749 H   0  0  0  0  0  0  0  0  0  0  0  0
   54.4197   23.4703   46.4288 H   0  0  0  0  0  0  0  0  0  0  0  0
   60.7828   27.3707   44.8195 H   0  0  0  0  0  0  0  0  0  0  0  0
   61.3968   29.6604   45.5910 H   0  0  0  0  0  0  0  0  0  0  0  0
   58.6830   30.6187   45.8247 H   0  0  0  0  0  0  0  0  0  0  0  0
  1  2  1  0
  2  3  2  0
  2  4  1  0
  4  5  1  0
  5  6  2  0
  6  7  1  0
  7  8  2  0
  8  9  1  0
  9 10  1  0
 10 11  2  0
 10 12  1  0
 12 13  1  0
 13 14  2  0
 14 15  1  0
 15 16  2  0
 16 17  1  0
 17 18  2  3
 18 19  1  0
 19 20  1  0
 20 21  1  0
 20 22  2  0
 22 23  1  0
 23 24  2  0
 23 25  1  0
 16 26  1  0
 26 27  2  0
  9 28  2  0
 28  5  1  0
 27 13  1  0
 25 18  1  0
  1 29  1  0
  1 30  1  0
  1 31  1  0
  6 32  1  0
  7 33  1  0
  8 34  1  0
 14 35  1  0
 15 36  1  0
 21 37  1  0
 21 38  1  0
 21 39  1  0
 22 40  1  0
 26 41  1  0
 27 42  1  0
 28 43  1  0
M  CHG  4   4  -1  12  -1  19  -1  25  -1
M  END
>  <UniqueID>  (33) 
33

>  <SMILES>  (33) 
CC(=O)[N-]c1cccc(C(=O)[N-]c2ccc(N=c3[n-]c(C)cc(=O)[n-]3)cc2)c1

>  <Energy>  (33) 
58.35519921482473

>  <Genealogy>  (33) 
CC(=O)[N-]c1cccc(C(=O)[N-]c2ccc(N=c3[n-]c(C)cc(=O)[n-]3)cc2)c1 (protonated)
CC(=O)[N-]c1cccc(C(=O)[N-]c2ccc(N=c3[n-]c(C)cc(=O)[n-]3)cc2)c1 (3D coordinates assigned)
CC(=O)[N-]c1cccc(C(=O)[N-]c2ccc(N=c3[n-]c(C)cc(=O)[n-]3)cc2)c1 (optimized conformer: 58.35519921482473 kcal/mol)

>  <smiles>  (33) 
CC(=O)Nc1cccc(C(=O)Nc2ccc(N=c3[nH]c(C)cc(=O)[nH]3)cc2)c1

>  <score_type>  (33) 
oracle

>  <origin>  (33) 
adg

>  <m_score__min__energy>  (33) 
-14.050000000000001

>  <m_primary>  (33) 
energy

$$$$
33:0
     RDKit          3D

 35 37  0  0  0  0  0  0  0  0999 V2000
   60.1130   32.0120   46.4620 C   0  0  0  0  0  0  0  0  0  0  0  0
   58.9980   31.4100   45.6350 C   0  0  0  0  0  0  0  0  0  0  0  0
   57.9580   32.2290   45.1140 C   0  0  0  0  0  0  0  0  0  0  0  0
   57.8550   33.9670   45.4540 S   0  0  0  0  0  0  0  0  0  0  0  0
   57.9020   34.2420   47.1600 N   0  0  0  0  0  0  0  0  0  0  0  0
   59.0010   34.6790   44.7930 O   0  0  0  0  0  0  0  0  0  0  0  0
   56.5650   34.5270   44.9210 O   0  0  0  0  0  0  0  0  0  0  0  0
   56.9630   31.6560   44.3080 C   0  0  0  0  0  0  0  0  0  0  0  0
   56.9680   30.2920   44.0360 C   0  0  0  0  0  0  0  0  0  0  0  0
   57.9490   29.4730   44.5840 C   0  0  0  0  0  0  0  0  0  0  0  0
   58.9520   30.0070   45.4050 C   0  0  0  0  0  0  0  0  0  0  0  0
   60.1230   28.8840   46.1250 S   0  0  0  0  0  0  0  0  0  0  0  0
   61.1410   29.6250   46.9460 O   0  0  0  0  0  0  0  0  0  0  0  0
   60.8250   28.1400   45.0250 O   0  0  0  0  0  0  0  0  0  0  0  0
   59.3260   27.7330   47.1500 N   0  0  0  0  0  0  0  0  0  0  0  0
   58.3740   26.7550   46.7100 C   0  0  0  0  0  0  0  0  0  0  0  0
   58.7530   25.4210   46.3950 C   0  0  0  0  0  0  0  0  0  0  0  0
   57.7920   24.4830   45.9760 C   0  0  0  0  0  0  0  0  0  0  0  0
   56.4700   24.9080   45.8800 C   0  0  0  0  0  0  0  0  0  0  0  0
   55.4030   24.1890   45.5070 N   0  0  0  0  0  0  0  0  0  0  0  0
   54.4000   25.0990   45.6010 C   0  0  0  0  0  0  0  0  0  0  0  0
   53.2050   24.8170   45.3290 O   0  0  0  0  0  0  0  0  0  0  0  0
   54.7800   26.3370   46.0100 N   0  0  0  0  0  0  0  0  0  0  0  0
   56.1010   26.1840   46.1800 C   0  0  0  0  0  0  0  0  0  0  0  0
   57.0220   27.1390   46.5990 C   0  0  0  0  0  0  0  0  0  0  0  0
   59.8844   31.8886   47.5309 H   0  0  0  0  0  0  0  0  0  0  0  0
   61.0593   31.5022   46.2282 H   0  0  0  0  0  0  0  0  0  0  0  0
   60.2059   33.0828   46.2282 H   0  0  0  0  0  0  0  0  0  0  0  0
   56.9150   34.2130   47.5010 H   0  0  0  0  0  0  0  0  0  0  0  0
   56.1706   32.2921   43.8867 H   0  0  0  0  0  0  0  0  0  0  0  0
   56.1935   29.8598   43.3853 H   0  0  0  0  0  0  0  0  0  0  0  0
   57.9379   28.3939   44.3709 H   0  0  0  0  0  0  0  0  0  0  0  0
   59.8076   25.1198   46.4798 H   0  0  0  0  0  0  0  0  0  0  0  0
   58.0757   23.4485   45.7324 H   0  0  0  0  0  0  0  0  0  0  0  0
   56.7042   28.1649   46.8370 H   0  0  0  0  0  0  0  0  0  0  0  0
  1  2  1  0
  2  3  2  0
  3  4  1  0
  4  5  1  0
  4  6  2  0
  4  7  2  0
  3  8  1  0
  8  9  2  0
  9 10  1  0
 10 11  2  0
 11 12  1  0
 12 13  2  0
 12 14  2  0
 12 15  1  0
 15 16  1  0
 16 17  2  0
 17 18  1  0
 18 19  2  0
 19 20  1  0
 20 21  1  0
 21 22  2  0
 21 23  1  0
 23 24  1  0
 24 25  2  0
 11  2  1  0
 25 16  1  0
 24 19  1  0
  1 26  1  0
  1 27  1  0
  1 28  1  0
  5 29  1  0
  8 30  1  0
  9 31  1  0
 10 32  1  0
 17 33  1  0
 18 34  1  0
 25 35  1  0
M  CHG  4   5  -1  15  -1  20  -1  23  -1
M  END
>  <UniqueID>  (34) 
34

>  <SMILES>  (34) 
Cc1c(S([NH-])(=O)=O)cccc1S(=O)(=O)[N-]c1ccc2[n-]c(=O)[n-]c2c1

>  <Energy>  (34) 
81.08347292628906

>  <Genealogy>  (34) 
Cc1c(S([NH-])(=O)=O)cccc1S(=O)(=O)[N-]c1ccc2[n-]c(=O)[n-]c2c1 (protonated)
Cc1c(S([NH-])(=O)=O)cccc1S(=O)(=O)[N-]c1ccc2[n-]c(=O)[n-]c2c1 (3D coordinates assigned)
Cc1c(S([NH-])(=O)=O)cccc1S(=O)(=O)[N-]c1ccc2[n-]c(=O)[n-]c2c1 (optimized conformer: 81.08347292628906 kcal/mol)

>  <smiles>  (34) 
Cc1c(S(N)(=O)=O)cccc1S(=O)(=O)Nc1ccc2[nH]c(=O)[nH]c2c1

>  <score_type>  (34) 
oracle

>  <origin>  (34) 
adg

>  <m_score__min__energy>  (34) 
-14.869999999999999

>  <m_primary>  (34) 
energy

$$$$
34:0
     RDKit          3D

 42 45  0  0  0  0  0  0  0  0999 V2000
   59.0800   33.8830   45.9540 C   0  0  0  0  0  0  0  0  0  0  0  0
   59.3580   32.4730   46.2340 N   0  0  0  0  0  0  0  0  0  0  0  0
   60.3360   31.9350   47.0180 C   0  0  0  0  0  0  0  0  0  0  0  0
   61.3750   32.7070   47.7310 C   0  0  0  0  0  0  0  0  0  0  0  0
   61.0560   33.4850   48.8590 C   0  0  0  0  0  0  0  0  0  0  0  0
   62.0480   34.2280   49.5060 C   0  0  0  0  0  0  0  0  0  0  0  0
   63.3600   34.2130   49.0270 C   0  0  0  0  0  0  0  0  0  0  0  0
   63.6800   33.4630   47.8940 C   0  0  0  0  0  0  0  0  0  0  0  0
   62.6920   32.7170   47.2430 C   0  0  0  0  0  0  0  0  0  0  0  0
   60.2690   30.5790   47.0970 N   0  0  0  0  0  0  0  0  0  0  0  0
   59.2230   30.2760   46.3090 C   0  0  0  0  0  0  0  0  0  0  0  0
   58.7190   29.0090   46.0250 C   0  0  0  0  0  0  0  0  0  0  0  0
   57.6040   28.9180   45.1560 C   0  0  0  0  0  0  0  0  0  0  0  0
   57.0160   27.6590   44.8060 N   0  0  0  0  0  0  0  0  0  0  0  0
   56.5550   26.4240   45.9340 S   0  0  0  0  0  0  0  0  0  0  0  0
   55.0550   26.3590   46.0080 O   0  0  0  0  0  0  0  0  0  0  0  0
   57.1280   26.7520   47.2850 O   0  0  0  0  0  0  0  0  0  0  0  0
   57.1750   24.8550   45.4090 C   0  0  0  0  0  0  0  0  0  0  0  0
   56.3100   23.9370   44.7910 C   0  0  0  0  0  0  0  0  0  0  0  0
   56.7830   22.6920   44.3690 C   0  0  0  0  0  0  0  0  0  0  0  0
   58.1230   22.3500   44.5600 C   0  0  0  0  0  0  0  0  0  0  0  0
   58.9930   23.2550   45.1720 C   0  0  0  0  0  0  0  0  0  0  0  0
   58.5290   24.5050   45.5990 C   0  0  0  0  0  0  0  0  0  0  0  0
   59.6740   25.6010   46.3650 Cl  0  0  0  0  0  0  0  0  0  0  0  0
   57.0440   30.0980   44.6100 C   0  0  0  0  0  0  0  0  0  0  0  0
   57.5790   31.3620   44.9210 C   0  0  0  0  0  0  0  0  0  0  0  0
   58.6770   31.4070   45.7810 C   0  0  0  0  0  0  0  0  0  0  0  0
   58.9720   34.4307   46.9018 H   0  0  0  0  0  0  0  0  0  0  0  0
   59.9107   34.3125   45.3749 H   0  0  0  0  0  0  0  0  0  0  0  0
   58.1484   33.9651   45.3749 H   0  0  0  0  0  0  0  0  0  0  0  0
   60.0219   33.5088   49.2334 H   0  0  0  0  0  0  0  0  0  0  0  0
   61.7947   34.8256   50.3941 H   0  0  0  0  0  0  0  0  0  0  0  0
   64.1406   34.7919   49.5423 H   0  0  0  0  0  0  0  0  0  0  0  0
   64.7116   33.4587   47.5122 H   0  0  0  0  0  0  0  0  0  0  0  0
   62.9476   32.1356   46.3449 H   0  0  0  0  0  0  0  0  0  0  0  0
   59.1726   28.1072   46.4619 H   0  0  0  0  0  0  0  0  0  0  0  0
   55.2529   24.2001   44.6382 H   0  0  0  0  0  0  0  0  0  0  0  0
   56.0983   21.9798   43.8853 H   0  0  0  0  0  0  0  0  0  0  0  0
   58.4933   21.3686   44.2288 H   0  0  0  0  0  0  0  0  0  0  0  0
   60.0489   22.9841   45.3194 H   0  0  0  0  0  0  0  0  0  0  0  0
   56.1794   30.0260   43.9338 H   0  0  0  0  0  0  0  0  0  0  0  0
   57.1468   32.2822   44.5009 H   0  0  0  0  0  0  0  0  0  0  0  0
  1  2  1  0
  2  3  1  0
  3  4  1  0
  4  5  2  0
  5  6  1  0
  6  7  2  0
  7  8  1  0
  8  9  2  0
  3 10  2  0
 10 11  1  0
 11 12  2  0
 12 13  1  0
 13 14  1  0
 14 15  1  0
 15 16  2  0
 15 17  2  0
 15 18  1  0
 18 19  2  0
 19 20  1  0
 20 21  2  0
 21 22  1  0
 22 23  2  0
 23 24  1  0
 13 25  2  0
 25 26  1  0
 26 27  2  0
 27  2  1  0
  9  4  1  0
 27 11  1  0
 23 18  1  0
  1 28  1  0
  1 29  1  0
  1 30  1  0
  5 31  1  0
  6 32  1  0
  7 33  1  0
  8 34  1  0
  9 35  1  0
 12 36  1  0
 19 37  1  0
 20 38  1  0
 21 39  1  0
 22 40  1  0
 25 41  1  0
 26 42  1  0
M  CHG  1  14  -1
M  END
>  <UniqueID>  (35) 
35

>  <SMILES>  (35) 
Cn1c(-c2ccccc2)nc2cc([N-]S(=O)(=O)c3ccccc3Cl)ccc21

>  <Energy>  (35) 
94.58591564695895

>  <Genealogy>  (35) 
Cn1c(-c2ccccc2)nc2cc([N-]S(=O)(=O)c3ccccc3Cl)ccc21 (protonated)
Cn1c(-c2ccccc2)nc2cc([N-]S(=O)(=O)c3ccccc3Cl)ccc21 (3D coordinates assigned)
Cn1c(-c2ccccc2)nc2cc([N-]S(=O)(=O)c3ccccc3Cl)ccc21 (optimized conformer: 94.58591564695895 kcal/mol)

>  <smiles>  (35) 
Cn1c(-c2ccccc2)nc2cc(NS(=O)(=O)c3ccccc3Cl)ccc21

>  <score_type>  (35) 
oracle

>  <origin>  (35) 
adg

>  <m_score__min__energy>  (35) 
-10.25

>  <m_primary>  (35) 
energy

$$$$
35:0
     RDKit          3D

 42 43  0  0  0  0  0  0  0  0999 V2000
   55.5120   29.8260   44.1330 C   0  0  0  0  0  0  0  0  0  0  0  0
   56.9480   30.3200   43.9930 C   0  0  0  0  0  0  0  0  0  0  0  0
   57.9470   29.1660   44.1330 C   0  0  0  0  0  0  0  0  0  0  0  0
   58.6210   29.2030   45.4790 C   0  0  0  0  0  0  0  0  0  0  0  0
   59.6260   30.1020   45.6560 N   0  0  0  0  0  0  0  0  0  0  0  0
   60.3040   30.2300   46.8240 C   0  0  0  0  0  0  0  0  0  0  0  0
   61.2200   31.0890   46.9140 O   0  0  0  0  0  0  0  0  0  0  0  0
   59.9810   29.4060   47.9140 C   0  0  0  0  0  0  0  0  0  0  0  0
   60.6830   29.5430   49.2430 C   0  0  0  0  0  0  0  0  0  0  0  0
   60.1130   30.7000   50.0190 C   0  0  0  0  0  0  0  0  0  0  0  0
   60.8800   31.8580   50.2270 C   0  0  0  0  0  0  0  0  0  0  0  0
   60.3660   32.9170   50.9790 C   0  0  0  0  0  0  0  0  0  0  0  0
   59.0870   32.8310   51.5390 C   0  0  0  0  0  0  0  0  0  0  0  0
   58.4760   34.1840   52.4810 Cl  0  0  0  0  0  0  0  0  0  0  0  0
   58.3180   31.6710   51.3430 C   0  0  0  0  0  0  0  0  0  0  0  0
   56.7070   31.5190   52.0360 Cl  0  0  0  0  0  0  0  0  0  0  0  0
   58.8340   30.6110   50.5890 C   0  0  0  0  0  0  0  0  0  0  0  0
   58.9360   28.4840   47.7710 C   0  0  0  0  0  0  0  0  0  0  0  0
   58.2340   28.3670   46.5560 C   0  0  0  0  0  0  0  0  0  0  0  0
   57.1410   27.4290   46.4230 N   0  0  0  0  0  0  0  0  0  0  0  0
   57.2410   26.1630   45.6810 C   0  0  2  0  0  0  0  0  0  0  0  0
   57.7320   26.3880   44.3840 O   0  0  0  0  0  0  0  0  0  0  0  0
   55.9050   25.4750   45.6110 C   0  0  0  0  0  0  0  0  0  0  0  0
   54.7200   26.1690   45.9960 N   0  0  0  0  0  0  0  0  0  0  0  0
   55.8290   24.2790   45.2220 O   0  0  0  0  0  0  0  0  0  0  0  0
   55.2568   29.7382   45.1994 H   0  0  0  0  0  0  0  0  0  0  0  0
   54.8296   30.5410   43.6503 H   0  0  0  0  0  0  0  0  0  0  0  0
   55.4139   28.8424   43.6503 H   0  0  0  0  0  0  0  0  0  0  0  0
   57.0728   30.7847   43.0038 H   0  0  0  0  0  0  0  0  0  0  0  0
   57.1448   31.0501   44.7919 H   0  0  0  0  0  0  0  0  0  0  0  0
   57.4124   28.2109   44.0234 H   0  0  0  0  0  0  0  0  0  0  0  0
   58.7144   29.2670   43.3514 H   0  0  0  0  0  0  0  0  0  0  0  0
   60.5486   28.6170   49.8213 H   0  0  0  0  0  0  0  0  0  0  0  0
   61.7532   29.7246   49.0649 H   0  0  0  0  0  0  0  0  0  0  0  0
   61.8894   31.9313   49.7961 H   0  0  0  0  0  0  0  0  0  0  0  0
   60.9702   33.8234   51.1317 H   0  0  0  0  0  0  0  0  0  0  0  0
   58.2327   29.7017   50.4422 H   0  0  0  0  0  0  0  0  0  0  0  0
   58.6598   27.8420   48.6204 H   0  0  0  0  0  0  0  0  0  0  0  0
   56.2280   27.6470   46.8770 H   0  0  0  0  0  0  0  0  0  0  0  0
   57.9436   25.5103   46.2198 H   0  0  0  0  0  0  0  0  0  0  0  0
   56.9640   26.3140   43.7580 H   0  0  0  0  0  0  0  0  0  0  0  0
   54.7720   27.0860   46.4920 H   0  0  0  0  0  0  0  0  0  0  0  0
  1  2  1  0
  2  3  1  0
  3  4  1  0
  4  5  1  0
  5  6  1  0
  6  7  2  0
  6  8  1  0
  8  9  1  0
  9 10  1  0
 10 11  2  0
 11 12  1  0
 12 13  2  0
 13 14  1  0
 13 15  1  0
 15 16  1  0
 15 17  2  0
  8 18  2  0
 18 19  1  0
 19 20  1  0
 20 21  1  0
 21 22  1  0
 21 23  1  0
 23 24  1  0
 23 25  2  0
 19  4  2  0
 17 10  1  0
  1 26  1  0
  1 27  1  0
  1 28  1  0
  2 29  1  0
  2 30  1  0
  3 31  1  0
  3 32  1  0
  9 33  1  0
  9 34  1  0
 11 35  1  0
 12 36  1  0
 17 37  1  0
 18 38  1  0
 20 39  1  0
 21 40  1  1
 22 41  1  0
 24 42  1  0
M  CHG  2   5  -1  24  -1
M  END
>  <UniqueID>  (36) 
36

>  <SMILES>  (36) 
CCCc1[n-]c(=O)c(Cc2ccc(Cl)c(Cl)c2)cc1N[C@H](O)C([NH-])=O

>  <Energy>  (36) 
39.32355716706647

>  <Genealogy>  (36) 
CCCc1[n-]c(=O)c(Cc2ccc(Cl)c(Cl)c2)cc1NC(O)C([NH-])=O (protonated)
CCCc1[n-]c(=O)c(Cc2ccc(Cl)c(Cl)c2)cc1N[C@H](O)C([NH-])=O (chirality)
CCCc1[n-]c(=O)c(Cc2ccc(Cl)c(Cl)c2)cc1N[C@H](O)C([NH-])=O (3D coordinates assigned)
CCCc1[n-]c(=O)c(Cc2ccc(Cl)c(Cl)c2)cc1N[C@H](O)C([NH-])=O (optimized conformer: 39.32355716706647 kcal/mol)

>  <smiles>  (36) 
CCCc1[nH]c(=O)c(Cc2ccc(Cl)c(Cl)c2)cc1NC(O)C(N)=O

>  <score_type>  (36) 
oracle

>  <origin>  (36) 
adg

>  <m_score__min__energy>  (36) 
-12.720000000000001

>  <m_primary>  (36) 
energy

$$$$
36:0
     RDKit          3D

 49 52  0  0  0  0  0  0  0  0999 V2000
   64.9170   32.2600   49.8400 C   0  0  0  0  0  0  0  0  0  0  0  0
   64.5380   33.2440   49.0230 C   0  0  0  0  0  0  0  0  0  0  0  0
   63.2080   33.3210   48.3680 C   0  0  0  0  0  0  0  0  0  0  0  0
   63.0500   33.4080   46.9720 C   0  0  0  0  0  0  0  0  0  0  0  0
   61.7730   33.4690   46.4050 C   0  0  0  0  0  0  0  0  0  0  0  0
   60.6280   33.4400   47.2160 C   0  0  0  0  0  0  0  0  0  0  0  0
   59.2880   33.5070   46.5920 C   0  0  0  0  0  0  0  0  0  0  0  0
   58.4290   34.5930   46.5360 C   0  0  0  0  0  0  0  0  0  0  0  0
   57.3210   34.2180   45.8730 N   0  0  0  0  0  0  0  0  0  0  0  0
   57.5410   32.9250   45.5560 C   0  0  0  0  0  0  0  0  0  0  0  0
   56.7210   32.1710   44.8830 N   0  0  0  0  0  0  0  0  0  0  0  0
   56.9810   30.8370   44.4220 C   0  0  0  0  0  0  0  0  0  0  0  0
   56.5730   30.4110   43.1470 C   0  0  0  0  0  0  0  0  0  0  0  0
   56.7950   29.0920   42.7430 C   0  0  0  0  0  0  0  0  0  0  0  0
   57.4070   28.1860   43.6120 C   0  0  0  0  0  0  0  0  0  0  0  0
   57.7960   28.5920   44.8970 C   0  0  0  0  0  0  0  0  0  0  0  0
   58.5490   27.4420   46.0070 S   0  0  0  0  0  0  0  0  0  0  0  0
   57.4880   26.8480   46.8910 O   0  0  0  0  0  0  0  0  0  0  0  0
   59.1670   26.3270   45.2080 O   0  0  0  0  0  0  0  0  0  0  0  0
   59.7810   28.1720   47.0080 N   0  0  0  0  0  0  0  0  0  0  0  0
   59.2100   28.8730   48.1570 C   0  0  0  0  0  0  0  0  0  0  0  0
   60.2220   29.9360   48.5560 C   0  0  0  0  0  0  0  0  0  0  0  0
   61.1010   30.1350   47.3300 C   0  0  0  0  0  0  0  0  0  0  0  0
   60.5560   29.1760   46.2830 C   0  0  0  0  0  0  0  0  0  0  0  0
   57.5600   29.9150   45.3030 C   0  0  0  0  0  0  0  0  0  0  0  0
   58.7100   32.4980   45.9750 O   0  0  0  0  0  0  0  0  0  0  0  0
   60.7850   33.3400   48.6090 C   0  0  0  0  0  0  0  0  0  0  0  0
   62.0610   33.2770   49.1760 C   0  0  0  0  0  0  0  0  0  0  0  0
   65.9216   32.2732   50.2879 H   0  0  0  0  0  0  0  0  0  0  0  0
   64.2250   31.4353   50.0658 H   0  0  0  0  0  0  0  0  0  0  0  0
   65.2579   34.0510   48.8215 H   0  0  0  0  0  0  0  0  0  0  0  0
   63.9374   33.4282   46.3223 H   0  0  0  0  0  0  0  0  0  0  0  0
   61.6650   33.5404   45.3126 H   0  0  0  0  0  0  0  0  0  0  0  0
   58.6205   35.5895   46.9606 H   0  0  0  0  0  0  0  0  0  0  0  0
   56.5090   34.8270   45.6300 H   0  0  0  0  0  0  0  0  0  0  0  0
   56.0775   31.1176   42.4650 H   0  0  0  0  0  0  0  0  0  0  0  0
   56.4871   28.7665   41.7384 H   0  0  0  0  0  0  0  0  0  0  0  0
   57.5846   27.1501   43.2875 H   0  0  0  0  0  0  0  0  0  0  0  0
   58.2543   29.3421   47.8803 H   0  0  0  0  0  0  0  0  0  0  0  0
   59.0095   28.1806   48.9879 H   0  0  0  0  0  0  0  0  0  0  0  0
   59.7115   30.8739   48.8203 H   0  0  0  0  0  0  0  0  0  0  0  0
   60.8086   29.6336   49.4360 H   0  0  0  0  0  0  0  0  0  0  0  0
   61.0342   31.1733   46.9729 H   0  0  0  0  0  0  0  0  0  0  0  0
   62.1610   29.9409   47.5505 H   0  0  0  0  0  0  0  0  0  0  0  0
   59.9114   29.7144   45.5726 H   0  0  0  0  0  0  0  0  0  0  0  0
   61.3689   28.7120   45.7052 H   0  0  0  0  0  0  0  0  0  0  0  0
   57.8320   30.2300   46.3212 H   0  0  0  0  0  0  0  0  0  0  0  0
   59.8972   33.3111   49.2578 H   0  0  0  0  0  0  0  0  0  0  0  0
   62.1676   33.1920   50.2675 H   0  0  0  0  0  0  0  0  0  0  0  0
  1  2  2  0
  2  3  1  0
  3  4  2  0
  4  5  1  0
  5  6  2  0
  6  7  1  0
  7  8  2  0
  8  9  1  0
  9 10  1  0
 10 11  2  3
 11 12  1  0
 12 13  2  0
 13 14  1  0
 14 15  2  0
 15 16  1  0
 16 17  1  0
 17 18  2  0
 17 19  2  0
 17 20  1  0
 20 21  1  0
 21 22  1  0
 22 23  1  0
 23 24  1  0
 16 25  2  0
 10 26  1  0
  6 27  1  0
 27 28  2  0
 28  3  1  0
 26  7  1  0
 25 12  1  0
 24 20  1  0
  1 29  1  0
  1 30  1  0
  2 31  1  0
  4 32  1  0
  5 33  1  0
  8 34  1  0
  9 35  1  0
 13 36  1  0
 14 37  1  0
 15 38  1  0
 21 39  1  0
 21 40  1  0
 22 41  1  0
 22 42  1  0
 23 43  1  0
 23 44  1  0
 24 45  1  0
 24 46  1  0
 25 47  1  0
 27 48  1  0
 28 49  1  0
M  END
>  <UniqueID>  (37) 
37

>  <SMILES>  (37) 
C=Cc1ccc(-c2c[nH]c(=Nc3cccc(S(=O)(=O)N4CCCC4)c3)o2)cc1

>  <Energy>  (37) 
94.25899886537468

>  <Genealogy>  (37) 
C=Cc1ccc(-c2c[nH]c(=Nc3cccc(S(=O)(=O)N4CCCC4)c3)o2)cc1 (3D coordinates assigned)
C=Cc1ccc(-c2c[nH]c(=Nc3cccc(S(=O)(=O)N4CCCC4)c3)o2)cc1 (nonaromatic ring conformer: 94.25899886537468 kcal/mol)

>  <smiles>  (37) 
C=Cc1ccc(-c2c[nH]c(=Nc3cccc(S(=O)(=O)N4CCCC4)c3)o2)cc1

>  <score_type>  (37) 
oracle

>  <origin>  (37) 
adg

>  <m_score__min__energy>  (37) 
-9.4600000000000009

>  <m_primary>  (37) 
energy

$$$$
37:0
     RDKit          3D

 58 61  0  0  0  0  0  0  0  0999 V2000
   55.4330   26.3760   46.0190 N   0  0  0  0  0  0  0  0  0  0  0  0
   56.6780   26.7580   45.4360 C   0  0  0  0  0  0  0  0  0  0  0  0
   57.4600   25.8640   45.0110 O   0  0  0  0  0  0  0  0  0  0  0  0
   57.0800   28.2210   45.4060 C   0  0  0  0  0  0  0  0  0  0  0  0
   57.4860   28.6430   46.7530 N   0  0  0  0  0  0  0  0  0  0  0  0
   58.8060   28.5530   47.3060 C   0  0  0  0  0  0  0  0  0  0  0  0
   59.6510   27.7500   46.8270 O   0  0  0  0  0  0  0  0  0  0  0  0
   59.1720   29.4210   48.4310 C   0  0  0  0  0  0  0  0  0  0  0  0
   60.2000   29.1830   49.3280 C   0  0  0  0  0  0  0  0  0  0  0  0
   60.1970   30.2440   50.2070 C   0  0  0  0  0  0  0  0  0  0  0  0
   59.1670   31.0640   49.7990 C   0  0  0  0  0  0  0  0  0  0  0  0
   58.8180   32.2580   50.4200 O   0  0  0  0  0  0  0  0  0  0  0  0
   58.5320   30.5740   48.7170 N   0  0  0  0  0  0  0  0  0  0  0  0
   55.9280   29.1330   44.8900 C   0  0  0  0  0  0  0  0  0  0  0  0
   56.4080   30.5480   44.4910 C   0  0  0  0  0  0  0  0  0  0  0  0
   57.7910   30.7860   44.9430 N   0  0  0  0  0  0  0  0  0  0  0  0
   58.2070   32.2030   44.8480 C   0  0  0  0  0  0  0  0  0  0  0  0
   59.2430   32.6080   45.8740 C   0  0  0  0  0  0  0  0  0  0  0  0
   59.2880   33.9220   46.3620 C   0  0  0  0  0  0  0  0  0  0  0  0
   60.2530   34.2970   47.2990 C   0  0  0  0  0  0  0  0  0  0  0  0
   61.1870   33.3610   47.7770 C   0  0  0  0  0  0  0  0  0  0  0  0
   62.2160   33.7800   48.8110 C   0  0  0  0  0  0  0  0  0  0  0  0
   61.6270   33.7650   50.2370 C   0  0  0  0  0  0  0  0  0  0  0  0
   62.7400   33.7750   51.3020 C   0  0  0  0  0  0  0  0  0  0  0  0
   63.9520   34.2750   50.7710 O   0  0  0  0  0  0  0  0  0  0  0  0
   64.4970   33.3470   49.8420 C   0  0  0  0  0  0  0  0  0  0  0  0
   63.4900   32.9210   48.7470 C   0  0  0  0  0  0  0  0  0  0  0  0
   61.1220   32.0370   47.3070 C   0  0  0  0  0  0  0  0  0  0  0  0
   60.1630   31.6670   46.3620 C   0  0  0  0  0  0  0  0  0  0  0  0
   58.7380   29.8530   44.2990 C   0  0  0  0  0  0  0  0  0  0  0  0
   58.2940   28.3780   44.4650 C   0  0  0  0  0  0  0  0  0  0  0  0
   54.7900   27.0900   46.4290 H   0  0  0  0  0  0  0  0  0  0  0  0
   60.8821   28.3200   49.3369 H   0  0  0  0  0  0  0  0  0  0  0  0
   60.8757   30.4035   51.0578 H   0  0  0  0  0  0  0  0  0  0  0  0
   58.0730   32.2840   51.1070 H   0  0  0  0  0  0  0  0  0  0  0  0
   55.4718   28.6567   44.0096 H   0  0  0  0  0  0  0  0  0  0  0  0
   55.2082   29.2505   45.7135 H   0  0  0  0  0  0  0  0  0  0  0  0
   56.3658   30.6463   43.3962 H   0  0  0  0  0  0  0  0  0  0  0  0
   55.7511   31.2883   44.9711 H   0  0  0  0  0  0  0  0  0  0  0  0
   58.6267   32.3743   43.8458 H   0  0  0  0  0  0  0  0  0  0  0  0
   57.3116   32.8122   45.0407 H   0  0  0  0  0  0  0  0  0  0  0  0
   58.5578   34.6627   46.0040 H   0  0  0  0  0  0  0  0  0  0  0  0
   60.2827   35.3334   47.6663 H   0  0  0  0  0  0  0  0  0  0  0  0
   62.4992   34.8139   48.5645 H   0  0  0  0  0  0  0  0  0  0  0  0
   60.9934   34.6539   50.3724 H   0  0  0  0  0  0  0  0  0  0  0  0
   61.0372   32.8446   50.3596 H   0  0  0  0  0  0  0  0  0  0  0  0
   62.4267   34.4119   52.1423 H   0  0  0  0  0  0  0  0  0  0  0  0
   62.9079   32.7417   51.6399 H   0  0  0  0  0  0  0  0  0  0  0  0
   65.3683   33.8097   49.3553 H   0  0  0  0  0  0  0  0  0  0  0  0
   64.7713   32.4426   50.4048 H   0  0  0  0  0  0  0  0  0  0  0  0
   63.9583   33.0438   47.7593 H   0  0  0  0  0  0  0  0  0  0  0  0
   63.2141   31.8691   48.9124 H   0  0  0  0  0  0  0  0  0  0  0  0
   61.8319   31.2874   47.6867 H   0  0  0  0  0  0  0  0  0  0  0  0
   60.1282   30.6299   45.9971 H   0  0  0  0  0  0  0  0  0  0  0  0
   58.7964   30.0888   43.2262 H   0  0  0  0  0  0  0  0  0  0  0  0
   59.7184   29.9719   44.7835 H   0  0  0  0  0  0  0  0  0  0  0  0
   58.0260   27.9782   43.4759 H   0  0  0  0  0  0  0  0  0  0  0  0
   59.1342   27.8277   44.9136 H   0  0  0  0  0  0  0  0  0  0  0  0
  1  2  1  0
  2  3  2  0
  2  4  1  0
  4  5  1  0
  5  6  1  0
  6  7  2  0
  6  8  1  0
  8  9  2  0
  9 10  1  0
 10 11  2  0
 11 12  1  0
 11 13  1  0
  4 14  1  0
 14 15  1  0
 15 16  1  0
 16 17  1  0
 17 18  1  0
 18 19  2  0
 19 20  1  0
 20 21  2  0
 21 22  1  0
 22 23  1  0
 23 24  1  0
 24 25  1  0
 25 26  1  0
 26 27  1  0
 21 28  1  0
 28 29  2  0
 16 30  1  0
 30 31  1  0
 31  4  1  0
 13  8  1  0
 29 18  1  0
 27 22  1  0
  1 32  1  0
  9 33  1  0
 10 34  1  0
 12 35  1  0
 14 36  1  0
 14 37  1  0
 15 38  1  0
 15 39  1  0
 17 40  1  0
 17 41  1  0
 19 42  1  0
 20 43  1  0
 22 44  1  0
 23 45  1  0
 23 46  1  0
 24 47  1  0
 24 48  1  0
 26 49  1  0
 26 50  1  0
 27 51  1  0
 27 52  1  0
 28 53  1  0
 29 54  1  0
 30 55  1  0
 30 56  1  0
 31 57  1  0
 31 58  1  0
M  CHG  3   1  -1   5  -1  13  -1
M  END
>  <UniqueID>  (38) 
38

>  <SMILES>  (38) 
[NH-]C(=O)C1([N-]C(=O)c2ccc(O)[n-]2)CCN(Cc2ccc(C3CCOCC3)cc2)CC1

>  <Energy>  (38) 
100.5460088134098

>  <Genealogy>  (38) 
[NH-]C(=O)C1([N-]C(=O)c2ccc(O)[n-]2)CCN(Cc2ccc(C3CCOCC3)cc2)CC1 (protonated)
[NH-]C(=O)C1([N-]C(=O)c2ccc(O)[n-]2)CCN(Cc2ccc(C3CCOCC3)cc2)CC1 (3D coordinates assigned)
[NH-]C(=O)C1([N-]C(=O)c2ccc(O)[n-]2)CCN(Cc2ccc(C3CCOCC3)cc2)CC1 (nonaromatic ring conformer: 100.5460088134098 kcal/mol)

>  <smiles>  (38) 
NC(=O)C1(NC(=O)c2ccc(O)[nH]2)CCN(Cc2ccc(C3CCOCC3)cc2)CC1

>  <score_type>  (38) 
oracle

>  <origin>  (38) 
adg

>  <m_score__min__energy>  (38) 
-14.15

>  <m_primary>  (38) 
energy

$$$$
38:0
     RDKit          3D

 32 34  0  0  0  0  0  0  0  0999 V2000
   58.6210   24.1650   46.3490 O   0  0  0  0  0  0  0  0  0  0  0  0
   57.8600   25.1490   46.1600 C   0  0  0  0  0  0  0  0  0  0  0  0
   56.5230   25.0770   46.3240 N   0  0  0  0  0  0  0  0  0  0  0  0
   56.1190   26.3220   46.0220 C   0  0  0  0  0  0  0  0  0  0  0  0
   54.7850   26.7070   46.0160 O   0  0  0  0  0  0  0  0  0  0  0  0
   57.2040   27.1120   45.6910 C   0  0  0  0  0  0  0  0  0  0  0  0
   57.2100   28.5370   45.2820 C   0  0  0  0  0  0  0  0  0  0  0  0
   58.1630   29.4120   45.8300 C   0  0  0  0  0  0  0  0  0  0  0  0
   58.1850   30.7590   45.4610 C   0  0  0  0  0  0  0  0  0  0  0  0
   57.2560   31.2640   44.5470 C   0  0  0  0  0  0  0  0  0  0  0  0
   57.3290   32.6240   44.2060 O   0  0  0  0  0  0  0  0  0  0  0  0
   57.0410   33.7120   45.0870 C   0  0  0  0  0  0  0  0  0  0  0  0
   58.1930   33.9610   46.0250 C   0  0  0  0  0  0  0  0  0  0  0  0
   59.3060   34.7090   45.6070 C   0  0  0  0  0  0  0  0  0  0  0  0
   60.3670   34.9440   46.4870 C   0  0  0  0  0  0  0  0  0  0  0  0
   60.3210   34.4420   47.7910 C   0  0  0  0  0  0  0  0  0  0  0  0
   59.2120   33.7070   48.2180 C   0  0  0  0  0  0  0  0  0  0  0  0
   58.1480   33.4700   47.3410 C   0  0  0  0  0  0  0  0  0  0  0  0
   56.2870   30.3970   44.0090 C   0  0  0  0  0  0  0  0  0  0  0  0
   56.2640   29.0470   44.3760 C   0  0  0  0  0  0  0  0  0  0  0  0
   58.3170   26.3580   45.7720 N   0  0  0  0  0  0  0  0  0  0  0  0
   58.8978   29.0331   46.5556 H   0  0  0  0  0  0  0  0  0  0  0  0
   58.9416   31.4296   45.8944 H   0  0  0  0  0  0  0  0  0  0  0  0
   56.8581   34.6189   44.4920 H   0  0  0  0  0  0  0  0  0  0  0  0
   56.1512   33.4578   45.6816 H   0  0  0  0  0  0  0  0  0  0  0  0
   59.3431   35.1113   44.5839 H   0  0  0  0  0  0  0  0  0  0  0  0
   61.2393   35.5248   46.1527 H   0  0  0  0  0  0  0  0  0  0  0  0
   61.1579   34.6256   48.4809 H   0  0  0  0  0  0  0  0  0  0  0  0
   59.1755   33.3143   49.2449 H   0  0  0  0  0  0  0  0  0  0  0  0
   57.2732   32.8974   47.6827 H   0  0  0  0  0  0  0  0  0  0  0  0
   55.5435   30.7827   43.2960 H   0  0  0  0  0  0  0  0  0  0  0  0
   55.4994   28.3794   43.9521 H   0  0  0  0  0  0  0  0  0  0  0  0
  1  2  2  0
  2  3  1  0
  3  4  1  0
  4  5  1  0
  4  6  2  0
  6  7  1  0
  7  8  2  0
  8  9  1  0
  9 10  2  0
 10 11  1  0
 11 12  1  0
 12 13  1  0
 13 14  2  0
 14 15  1  0
 15 16  2  0
 16 17  1  0
 17 18  2  0
 10 19  1  0
 19 20  2  0
  6 21  1  0
 21  2  1  0
 20  7  1  0
 18 13  1  0
  8 22  1  0
  9 23  1  0
 12 24  1  0
 12 25  1  0
 14 26  1  0
 15 27  1  0
 16 28  1  0
 17 29  1  0
 18 30  1  0
 19 31  1  0
 20 32  1  0
M  CHG  3   3  -1   5  -1  21  -1
M  END
>  <UniqueID>  (39) 
39

>  <SMILES>  (39) 
O=c1[n-]c([O-])c(-c2ccc(OCc3ccccc3)cc2)[n-]1

>  <Energy>  (39) 
67.25033454053631

>  <Genealogy>  (39) 
O=c1[n-]c([O-])c(-c2ccc(OCc3ccccc3)cc2)[n-]1 (protonated)
O=c1[n-]c([O-])c(-c2ccc(OCc3ccccc3)cc2)[n-]1 (3D coordinates assigned)
O=c1[n-]c([O-])c(-c2ccc(OCc3ccccc3)cc2)[n-]1 (optimized conformer: 67.25033454053631 kcal/mol)

>  <smiles>  (39) 
O=c1[nH]c(O)c(-c2ccc(OCc3ccccc3)cc2)[nH]1

>  <score_type>  (39) 
oracle

>  <origin>  (39) 
adg

>  <m_score__min__energy>  (39) 
-14.66

>  <m_primary>  (39) 
energy

$$$$
39:0
     RDKit          3D

 51 53  0  0  0  0  0  0  0  0999 V2000
   54.7750   26.6890   47.1600 H   0  0  0  0  0  0  0  0  0  0  0  0
   55.1320   26.6080   46.2150 O   0  0  0  0  0  0  0  0  0  0  0  0
   56.4400   26.9710   45.8950 C   0  0  0  0  0  0  0  0  0  0  0  0
   57.4990   26.1140   46.2130 C   0  0  0  0  0  0  0  0  0  0  0  0
   57.2999   25.1725   46.7459 H   0  0  0  0  0  0  0  0  0  0  0  0
   58.8050   26.4470   45.8580 C   0  0  0  0  0  0  0  0  0  0  0  0
   59.6314   25.7629   46.1012 H   0  0  0  0  0  0  0  0  0  0  0  0
   59.0660   27.6460   45.1950 C   0  0  0  0  0  0  0  0  0  0  0  0
   60.0992   27.8990   44.9149 H   0  0  0  0  0  0  0  0  0  0  0  0
   58.0240   28.5340   44.8810 C   0  0  0  0  0  0  0  0  0  0  0  0
   58.3820   29.8130   44.2210 C   0  0  0  0  0  0  0  0  0  0  0  0
   57.9762   30.0391   43.2239 H   0  0  0  0  0  0  0  0  0  0  0  0
   59.1660   30.6700   44.8000 N   0  0  0  0  0  0  0  0  0  0  0  0
   58.7850   31.8630   45.5050 C   0  0  0  0  0  0  0  0  0  0  0  0
   57.6120   32.5880   45.2100 C   0  0  0  0  0  0  0  0  0  0  0  0
   56.9556   32.2603   44.3904 H   0  0  0  0  0  0  0  0  0  0  0  0
   57.2820   33.7220   45.9570 C   0  0  0  0  0  0  0  0  0  0  0  0
   56.3700   34.2887   45.7179 H   0  0  0  0  0  0  0  0  0  0  0  0
   58.1040   34.1390   47.0050 C   0  0  0  0  0  0  0  0  0  0  0  0
   57.8371   35.0306   47.5913 H   0  0  0  0  0  0  0  0  0  0  0  0
   59.2690   33.4230   47.3110 C   0  0  0  0  0  0  0  0  0  0  0  0
   60.2710   33.9020   48.6790 S   0  0  0  0  0  0  0  0  0  0  0  0
   61.5790   34.4380   48.1680 O   0  0  0  0  0  0  0  0  0  0  0  0
   59.5840   34.9800   49.4700 O   0  0  0  0  0  0  0  0  0  0  0  0
   60.5770   32.5300   49.6900 N   0  0  0  0  0  0  0  0  0  0  0  0
   60.2030   31.2090   49.2860 C   0  0  0  0  0  0  0  0  0  0  0  0
   59.0090   30.6360   49.7780 C   0  0  0  0  0  0  0  0  0  0  0  0
   58.1130   31.3890   50.7250 C   0  0  0  0  0  0  0  0  0  0  0  0
   58.3942   31.1527   51.7619 H   0  0  0  0  0  0  0  0  0  0  0  0
   58.2229   32.4698   50.5525 H   0  0  0  0  0  0  0  0  0  0  0  0
   57.0672   31.0947   50.5525 H   0  0  0  0  0  0  0  0  0  0  0  0
   58.6840   29.3150   49.4360 C   0  0  0  0  0  0  0  0  0  0  0  0
   57.7686   28.8563   49.8381 H   0  0  0  0  0  0  0  0  0  0  0  0
   59.5130   28.5790   48.5900 C   0  0  0  0  0  0  0  0  0  0  0  0
   59.2516   27.5421   48.3319 H   0  0  0  0  0  0  0  0  0  0  0  0
   60.6730   29.1540   48.0700 C   0  0  0  0  0  0  0  0  0  0  0  0
   61.3206   28.5686   47.4007 H   0  0  0  0  0  0  0  0  0  0  0  0
   61.0190   30.4760   48.3960 C   0  0  0  0  0  0  0  0  0  0  0  0
   62.2750   31.0670   47.8170 C   0  0  0  0  0  0  0  0  0  0  0  0
   62.9425   31.3811   48.6330 H   0  0  0  0  0  0  0  0  0  0  0  0
   62.7830   30.3134   47.1973 H   0  0  0  0  0  0  0  0  0  0  0  0
   62.0182   31.9388   47.1973 H   0  0  0  0  0  0  0  0  0  0  0  0
   59.6020   32.2880   46.5600 C   0  0  0  0  0  0  0  0  0  0  0  0
   60.5153   31.7245   46.8018 H   0  0  0  0  0  0  0  0  0  0  0  0
   56.6910   28.1880   45.2300 C   0  0  0  0  0  0  0  0  0  0  0  0
   55.5880   29.0210   44.8490 N   0  0  0  0  0  0  0  0  0  0  0  0
   54.7060   28.9810   45.4110 H   0  0  0  0  0  0  0  0  0  0  0  0
   55.5670   29.7130   43.5670 C   0  0  0  0  0  0  0  0  0  0  0  0
   55.5340   30.7993   43.7372 H   0  0  0  0  0  0  0  0  0  0  0  0
   56.4733   29.4583   42.9980 H   0  0  0  0  0  0  0  0  0  0  0  0
   54.6778   29.4039   42.9980 H   0  0  0  0  0  0  0  0  0  0  0  0
  1  2  1  0
  2  3  1  0
  3  4  2  0
  4  5  1  0
  4  6  1  0
  6  7  1  0
  6  8  2  0
  8  9  1  0
  8 10  1  0
 10 11  1  0
 11 12  1  0
 11 13  2  0
 13 14  1  0
 14 15  2  0
 15 16  1  0
 15 17  1  0
 17 18  1  0
 17 19  2  0
 19 20  1  0
 19 21  1  0
 21 22  1  0
 22 23  2  0
 22 24  2  0
 22 25  1  0
 25 26  1  0
 26 27  2  0
 27 28  1  0
 28 29  1  0
 28 30  1  0
 28 31  1  0
 27 32  1  0
 32 33  1  0
 32 34  2  0
 34 35  1  0
 34 36  1  0
 36 37  1  0
 36 38  2  0
 38 39  1  0
 39 40  1  0
 39 41  1  0
 39 42  1  0
 21 43  2  0
 43 44  1  0
 10 45  2  0
 45 46  1  0
 46 47  1  0
 46 48  1  0
 48 49  1  0
 48 50  1  0
 48 51  1  0
 45  3  1  0
 43 14  1  0
 38 26  1  0
M  CHG  1  25  -1
M  END
>  <UniqueID>  (40) 
40

>  <SMILES>  (40) 
CNc1c(O)cccc1/C=N/c1cccc(S(=O)(=O)[N-]c2c(C)cccc2C)c1

>  <Energy>  (40) 
69.56624905281188

>  <Genealogy>  (40) 
CNc1c(O)cccc1C=Nc1cccc(S(=O)(=O)[N-]c2c(C)cccc2C)c1 (protonated)
CNc1c(O)cccc1/C=N/c1cccc(S(=O)(=O)[N-]c2c(C)cccc2C)c1 (cis-trans isomerization)
CNc1c(O)cccc1/C=N/c1cccc(S(=O)(=O)[N-]c2c(C)cccc2C)c1 (3D coordinates assigned)
CNc1c(O)cccc1/C=N/c1cccc(S(=O)(=O)[N-]c2c(C)cccc2C)c1 (optimized conformer: 69.56624905281188 kcal/mol)

>  <smiles>  (40) 
CNc1c(O)cccc1C=Nc1cccc(S(=O)(=O)Nc2c(C)cccc2C)c1

>  <score_type>  (40) 
oracle

>  <origin>  (40) 
adg

>  <m_score__min__energy>  (40) 
-11.470000000000001

>  <m_primary>  (40) 
energy

$$$$
40:0
     RDKit          3D

 57 61  0  0  0  0  0  0  0  0999 V2000
   58.1420   23.5030   47.1180 O   0  0  0  0  0  0  0  0  0  0  0  0
   57.7580   24.5280   46.4950 C   0  0  0  0  0  0  0  0  0  0  0  0
   58.6930   25.5190   46.0470 N   0  0  0  0  0  0  0  0  0  0  0  0
   59.1480   26.6710   46.7720 C   0  0  0  0  0  0  0  0  0  0  0  0
   58.3990   27.1040   47.8720 C   0  0  0  0  0  0  0  0  0  0  0  0
   58.8040   28.2170   48.6130 C   0  0  0  0  0  0  0  0  0  0  0  0
   59.9770   28.9120   48.2720 C   0  0  0  0  0  0  0  0  0  0  0  0
   60.4050   30.1030   49.0470 C   0  0  0  0  0  0  0  0  0  0  0  0
   60.9080   29.9590   50.1940 O   0  0  0  0  0  0  0  0  0  0  0  0
   60.2890   31.4270   48.4990 N   0  0  0  0  0  0  0  0  0  0  0  0
   59.0170   32.1290   48.7220 C   0  0  0  0  0  0  0  0  0  0  0  0
   58.8600   33.3220   47.7780 C   0  0  0  0  0  0  0  0  0  0  0  0
   60.0720   34.2450   47.8800 C   0  0  0  0  0  0  0  0  0  0  0  0
   61.3400   33.4850   47.6040 C   0  0  0  0  0  0  0  0  0  0  0  0
   62.4500   34.1560   47.0690 C   0  0  0  0  0  0  0  0  0  0  0  0
   63.6390   33.4660   46.8230 C   0  0  0  0  0  0  0  0  0  0  0  0
   63.7300   32.1050   47.1120 C   0  0  0  0  0  0  0  0  0  0  0  0
   62.6400   31.4290   47.6620 C   0  0  0  0  0  0  0  0  0  0  0  0
   61.4360   32.1130   47.9360 C   0  0  0  0  0  0  0  0  0  0  0  0
   60.7400   28.4630   47.1800 C   0  0  0  0  0  0  0  0  0  0  0  0
   60.3360   27.3460   46.4430 C   0  0  0  0  0  0  0  0  0  0  0  0
   56.3330   24.7100   46.2130 C   0  0  0  0  0  0  0  0  0  0  0  0
   55.5480   23.6020   46.2920 N   0  0  0  0  0  0  0  0  0  0  0  0
   54.2150   23.6420   46.0470 C   0  0  0  0  0  0  0  0  0  0  0  0
   53.6230   24.8510   45.7030 C   0  0  0  0  0  0  0  0  0  0  0  0
   54.3900   25.9670   45.6210 N   0  0  0  0  0  0  0  0  0  0  0  0
   55.7290   25.9550   45.8630 C   0  0  0  0  0  0  0  0  0  0  0  0
   56.3630   27.0930   45.7610 N   0  0  0  0  0  0  0  0  0  0  0  0
   57.2800   27.5690   44.7290 C   0  0  0  0  0  0  0  0  0  0  0  0
   57.2990   29.0700   44.7440 C   0  0  0  0  0  0  0  0  0  0  0  0
   56.9680   29.8000   43.5930 C   0  0  0  0  0  0  0  0  0  0  0  0
   57.0130   31.1940   43.6140 C   0  0  0  0  0  0  0  0  0  0  0  0
   57.4020   31.8480   44.7850 C   0  0  0  0  0  0  0  0  0  0  0  0
   57.4620   33.5970   44.8410 Cl  0  0  0  0  0  0  0  0  0  0  0  0
   57.7360   31.1270   45.8900 N   0  0  0  0  0  0  0  0  0  0  0  0
   57.6990   29.7680   45.8930 C   0  0  0  0  0  0  0  0  0  0  0  0
   57.4838   26.5636   48.1555 H   0  0  0  0  0  0  0  0  0  0  0  0
   58.2004   28.5518   49.4695 H   0  0  0  0  0  0  0  0  0  0  0  0
   58.1872   31.4273   48.5517 H   0  0  0  0  0  0  0  0  0  0  0  0
   59.0076   32.5045   49.7559 H   0  0  0  0  0  0  0  0  0  0  0  0
   58.7686   32.9567   46.7445 H   0  0  0  0  0  0  0  0  0  0  0  0
   57.9583   33.8847   48.0613 H   0  0  0  0  0  0  0  0  0  0  0  0
   59.9704   35.0577   47.1457 H   0  0  0  0  0  0  0  0  0  0  0  0
   60.1197   34.6569   48.8989 H   0  0  0  0  0  0  0  0  0  0  0  0
   62.3834   35.2303   46.8423 H   0  0  0  0  0  0  0  0  0  0  0  0
   64.5049   33.9969   46.4007 H   0  0  0  0  0  0  0  0  0  0  0  0
   64.6643   31.5622   46.9057 H   0  0  0  0  0  0  0  0  0  0  0  0
   62.7197   30.3545   47.8838 H   0  0  0  0  0  0  0  0  0  0  0  0
   61.6623   28.9949   46.9033 H   0  0  0  0  0  0  0  0  0  0  0  0
   60.9508   26.9937   45.6016 H   0  0  0  0  0  0  0  0  0  0  0  0
   53.6087   22.7270   46.1198 H   0  0  0  0  0  0  0  0  0  0  0  0
   52.5433   24.9028   45.4992 H   0  0  0  0  0  0  0  0  0  0  0  0
   58.2914   27.1857   44.9295 H   0  0  0  0  0  0  0  0  0  0  0  0
   56.9465   27.2122   43.7434 H   0  0  0  0  0  0  0  0  0  0  0  0
   56.6729   29.2731   42.6736 H   0  0  0  0  0  0  0  0  0  0  0  0
   56.7449   31.7722   42.7175 H   0  0  0  0  0  0  0  0  0  0  0  0
   57.9837   29.2139   46.7996 H   0  0  0  0  0  0  0  0  0  0  0  0
  1  2  2  0
  2  3  1  0
  3  4  1  0
  4  5  2  0
  5  6  1  0
  6  7  2  0
  7  8  1  0
  8  9  2  0
  8 10  1  0
 10 11  1  0
 11 12  1  0
 12 13  1  0
 13 14  1  0
 14 15  2  0
 15 16  1  0
 16 17  2  0
 17 18  1  0
 18 19  2  0
  7 20  1  0
 20 21  2  0
  2 22  1  0
 22 23  2  0
 23 24  1  0
 24 25  2  0
 25 26  1  0
 26 27  1  0
 27 28  2  3
 28 29  1  0
 29 30  1  0
 30 31  2  0
 31 32  1  0
 32 33  2  0
 33 34  1  0
 33 35  1  0
 35 36  2  0
 21  4  1  0
 27 22  1  0
 36 30  1  0
 19 10  1  0
 19 14  1  0
  5 37  1  0
  6 38  1  0
 11 39  1  0
 11 40  1  0
 12 41  1  0
 12 42  1  0
 13 43  1  0
 13 44  1  0
 15 45  1  0
 16 46  1  0
 17 47  1  0
 18 48  1  0
 20 49  1  0
 21 50  1  0
 24 51  1  0
 25 52  1  0
 29 53  1  0
 29 54  1  0
 31 55  1  0
 32 56  1  0
 36 57  1  0
M  CHG  2   3  -1  26  -1
M  END
>  <UniqueID>  (41) 
41

>  <SMILES>  (41) 
O=C([N-]c1ccc(C(=O)N2CCCc3ccccc32)cc1)c1ncc[n-]c1=NCc1ccc(Cl)nc1

>  <Energy>  (41) 
90.86643964302301

>  <Genealogy>  (41) 
O=C([N-]c1ccc(C(=O)N2CCCc3ccccc32)cc1)c1ncc[n-]c1=NCc1ccc(Cl)nc1 (protonated)
O=C([N-]c1ccc(C(=O)N2CCCc3ccccc32)cc1)c1ncc[n-]c1=NCc1ccc(Cl)nc1 (3D coordinates assigned)
O=C([N-]c1ccc(C(=O)N2CCCc3ccccc32)cc1)c1ncc[n-]c1=NCc1ccc(Cl)nc1 (nonaromatic ring conformer: 90.86643964302301 kcal/mol)

>  <smiles>  (41) 
O=C(Nc1ccc(C(=O)N2CCCc3ccccc32)cc1)c1ncc[nH]c1=NCc1ccc(Cl)nc1

>  <score_type>  (41) 
oracle

>  <origin>  (41) 
adg

>  <m_score__min__energy>  (41) 
-13.07

>  <m_primary>  (41) 
energy

$$$$
41:0
     RDKit          3D

 43 45  0  0  0  0  0  0  0  0999 V2000
   66.3700   31.3780   50.8630 C   0  0  0  0  0  0  0  0  0  0  0  0
   66.1090   32.6940   50.3850 O   0  0  0  0  0  0  0  0  0  0  0  0
   64.8390   33.1670   50.0220 C   0  0  0  0  0  0  0  0  0  0  0  0
   63.9730   33.7930   50.9400 C   0  0  0  0  0  0  0  0  0  0  0  0
   62.7100   34.2290   50.5320 C   0  0  0  0  0  0  0  0  0  0  0  0
   62.2870   34.0430   49.2090 C   0  0  0  0  0  0  0  0  0  0  0  0
   60.9620   34.4500   48.8430 N   0  0  0  0  0  0  0  0  0  0  0  0
   60.2160   34.0880   47.3190 S   0  0  0  0  0  0  0  0  0  0  0  0
   61.1710   34.4050   46.2020 O   0  0  0  0  0  0  0  0  0  0  0  0
   58.9730   34.9160   47.1570 O   0  0  0  0  0  0  0  0  0  0  0  0
   59.7790   32.3900   47.2860 C   0  0  0  0  0  0  0  0  0  0  0  0
   60.3390   31.4170   48.1030 C   0  0  0  0  0  0  0  0  0  0  0  0
   60.0230   30.1150   47.7050 C   0  0  0  0  0  0  0  0  0  0  0  0
   59.2000   30.0780   46.5810 C   0  0  0  0  0  0  0  0  0  0  0  0
   58.8870   28.9210   45.8000 N   0  0  0  0  0  0  0  0  0  0  0  0
   57.5680   28.5220   45.4150 C   0  0  0  0  0  0  0  0  0  0  0  0
   56.5870   29.2930   45.5910 O   0  0  0  0  0  0  0  0  0  0  0  0
   57.3590   27.1880   44.7660 C   0  0  0  0  0  0  0  0  0  0  0  0
   56.9900   26.1560   45.7970 C   0  0  0  0  0  0  0  0  0  0  0  0
   55.7130   25.7710   46.1510 C   0  0  0  0  0  0  0  0  0  0  0  0
   54.5360   26.3340   45.6730 O   0  0  0  0  0  0  0  0  0  0  0  0
   55.7490   24.7460   47.0250 N   0  0  0  0  0  0  0  0  0  0  0  0
   57.0720   24.5230   47.1780 C   0  0  0  0  0  0  0  0  0  0  0  0
   57.5280   23.6020   47.9070 O   0  0  0  0  0  0  0  0  0  0  0  0
   57.8540   25.3630   46.4640 N   0  0  0  0  0  0  0  0  0  0  0  0
   59.3070   25.2950   46.3170 C   0  0  0  0  0  0  0  0  0  0  0  0
   58.8980   31.6470   46.0620 S   0  0  0  0  0  0  0  0  0  0  0  0
   63.1640   33.4470   48.2880 C   0  0  0  0  0  0  0  0  0  0  0  0
   64.4250   33.0070   48.6960 C   0  0  0  0  0  0  0  0  0  0  0  0
   66.3695   31.3806   51.9630 H   0  0  0  0  0  0  0  0  0  0  0  0
   65.5901   30.6938   50.4976 H   0  0  0  0  0  0  0  0  0  0  0  0
   67.3520   31.0432   50.4976 H   0  0  0  0  0  0  0  0  0  0  0  0
   64.2926   33.9391   51.9824 H   0  0  0  0  0  0  0  0  0  0  0  0
   62.0428   34.7218   51.2544 H   0  0  0  0  0  0  0  0  0  0  0  0
   60.9679   31.6476   48.9755 H   0  0  0  0  0  0  0  0  0  0  0  0
   60.3854   29.2152   48.2238 H   0  0  0  0  0  0  0  0  0  0  0  0
   56.5486   27.2676   44.0264 H   0  0  0  0  0  0  0  0  0  0  0  0
   58.2925   26.8811   44.2717 H   0  0  0  0  0  0  0  0  0  0  0  0
   59.7756   25.2731   47.3120 H   0  0  0  0  0  0  0  0  0  0  0  0
   59.5773   24.3832   45.7642 H   0  0  0  0  0  0  0  0  0  0  0  0
   59.6613   26.1775   45.7642 H   0  0  0  0  0  0  0  0  0  0  0  0
   62.8558   33.3261   47.2390 H   0  0  0  0  0  0  0  0  0  0  0  0
   65.0982   32.5306   47.9682 H   0  0  0  0  0  0  0  0  0  0  0  0
  1  2  1  0
  2  3  1  0
  3  4  2  0
  4  5  1  0
  5  6  2  0
  6  7  1  0
  7  8  1  0
  8  9  2  0
  8 10  2  0
  8 11  1  0
 11 12  2  0
 12 13  1  0
 13 14  2  0
 14 15  1  0
 15 16  1  0
 16 17  2  0
 16 18  1  0
 18 19  1  0
 19 20  2  0
 20 21  1  0
 20 22  1  0
 22 23  1  0
 23 24  2  0
 23 25  1  0
 25 26  1  0
 14 27  1  0
  6 28  1  0
 28 29  2  0
 29  3  1  0
 27 11  1  0
 25 19  1  0
  1 30  1  0
  1 31  1  0
  1 32  1  0
  4 33  1  0
  5 34  1  0
 12 35  1  0
 13 36  1  0
 18 37  1  0
 18 38  1  0
 26 39  1  0
 26 40  1  0
 26 41  1  0
 28 42  1  0
 29 43  1  0
M  CHG  4   7  -1  15  -1  21  -1  22  -1
M  END
>  <UniqueID>  (42) 
42

>  <SMILES>  (42) 
COc1ccc([N-]S(=O)(=O)c2ccc([N-]C(=O)Cc3c([O-])[n-]c(=O)n3C)s2)cc1

>  <Energy>  (42) 
106.41425406845578

>  <Genealogy>  (42) 
COc1ccc([N-]S(=O)(=O)c2ccc([N-]C(=O)Cc3c([O-])[n-]c(=O)n3C)s2)cc1 (protonated)
COc1ccc([N-]S(=O)(=O)c2ccc([N-]C(=O)Cc3c([O-])[n-]c(=O)n3C)s2)cc1 (3D coordinates assigned)
COc1ccc([N-]S(=O)(=O)c2ccc([N-]C(=O)Cc3c([O-])[n-]c(=O)n3C)s2)cc1 (optimized conformer: 106.41425406845578 kcal/mol)

>  <smiles>  (42) 
COc1ccc(NS(=O)(=O)c2ccc(NC(=O)Cc3c(O)[nH]c(=O)n3C)s2)cc1

>  <score_type>  (42) 
oracle

>  <origin>  (42) 
adg

>  <m_score__min__energy>  (42) 
-16.210000000000001

>  <m_primary>  (42) 
energy

$$$$
42:0
     RDKit          3D

 47 49  0  0  0  0  0  0  0  0999 V2000
   63.2740   33.2770   47.0680 C   0  0  0  0  0  0  0  0  0  0  0  0
   61.9040   32.8220   47.4720 C   0  0  0  0  0  0  0  0  0  0  0  0
   61.0270   33.7100   48.1110 C   0  0  0  0  0  0  0  0  0  0  0  0
   59.7660   33.2760   48.5250 C   0  0  0  0  0  0  0  0  0  0  0  0
   59.3760   31.9510   48.3180 C   0  0  0  0  0  0  0  0  0  0  0  0
   60.2480   31.0400   47.6940 C   0  0  0  0  0  0  0  0  0  0  0  0
   59.8430   29.6280   47.4960 C   0  0  0  0  0  0  0  0  0  0  0  0
   59.9000   28.8140   48.4580 O   0  0  0  0  0  0  0  0  0  0  0  0
   59.4430   29.1690   46.1990 N   0  0  0  0  0  0  0  0  0  0  0  0
   58.2280   28.4650   45.9170 C   0  0  0  0  0  0  0  0  0  0  0  0
   57.0780   29.0190   45.3620 C   0  0  0  0  0  0  0  0  0  0  0  0
   56.8980   30.4150   44.9340 C   0  0  0  0  0  0  0  0  0  0  0  0
   55.8470   30.7580   44.3300 O   0  0  0  0  0  0  0  0  0  0  0  0
   57.9110   31.3460   45.2080 O   0  0  0  0  0  0  0  0  0  0  0  0
   57.9850   32.6920   44.7140 C   0  0  0  0  0  0  0  0  0  0  0  0
   56.8120   33.5350   45.2520 C   0  0  0  0  0  0  0  0  0  0  0  0
   59.3020   33.2930   45.2300 C   0  0  0  0  0  0  0  0  0  0  0  0
   58.0020   32.7030   43.1740 C   0  0  0  0  0  0  0  0  0  0  0  0
   56.1120   28.0760   45.2560 N   0  0  0  0  0  0  0  0  0  0  0  0
   56.6370   26.9450   45.7620 C   0  0  0  0  0  0  0  0  0  0  0  0
   55.9960   25.7160   45.9080 C   0  0  0  0  0  0  0  0  0  0  0  0
   56.7090   24.6700   46.5230 C   0  0  0  0  0  0  0  0  0  0  0  0
   58.0260   24.8790   46.9880 C   0  0  0  0  0  0  0  0  0  0  0  0
   58.6470   26.1310   46.8310 C   0  0  0  0  0  0  0  0  0  0  0  0
   57.9290   27.1410   46.1900 C   0  0  0  0  0  0  0  0  0  0  0  0
   61.5160   31.4870   47.2770 C   0  0  0  0  0  0  0  0  0  0  0  0
   63.8744   33.4764   47.9679 H   0  0  0  0  0  0  0  0  0  0  0  0
   63.7596   32.4919   46.4698 H   0  0  0  0  0  0  0  0  0  0  0  0
   63.1934   34.1966   46.4698 H   0  0  0  0  0  0  0  0  0  0  0  0
   61.3333   34.7518   48.2867 H   0  0  0  0  0  0  0  0  0  0  0  0
   59.0777   33.9799   49.0157 H   0  0  0  0  0  0  0  0  0  0  0  0
   58.3802   31.6173   48.6451 H   0  0  0  0  0  0  0  0  0  0  0  0
   56.8269   33.5243   46.3518 H   0  0  0  0  0  0  0  0  0  0  0  0
   56.9102   34.5705   44.8940 H   0  0  0  0  0  0  0  0  0  0  0  0
   55.8619   33.1118   44.8940 H   0  0  0  0  0  0  0  0  0  0  0  0
   59.2994   33.2918   46.3300 H   0  0  0  0  0  0  0  0  0  0  0  0
   60.1475   32.6916   44.8647 H   0  0  0  0  0  0  0  0  0  0  0  0
   59.4017   34.3258   44.8647 H   0  0  0  0  0  0  0  0  0  0  0  0
   58.8767   33.2689   42.8210 H   0  0  0  0  0  0  0  0  0  0  0  0
   58.0586   31.6699   42.8005 H   0  0  0  0  0  0  0  0  0  0  0  0
   57.0828   33.1780   42.8005 H   0  0  0  0  0  0  0  0  0  0  0  0
   55.1450   28.2030   44.8790 H   0  0  0  0  0  0  0  0  0  0  0  0
   54.9652   25.5682   45.5537 H   0  0  0  0  0  0  0  0  0  0  0  0
   56.2375   23.6834   46.6422 H   0  0  0  0  0  0  0  0  0  0  0  0
   58.5698   24.0569   47.4763 H   0  0  0  0  0  0  0  0  0  0  0  0
   59.6672   26.3085   47.2021 H   0  0  0  0  0  0  0  0  0  0  0  0
   62.2097   30.7833   46.7936 H   0  0  0  0  0  0  0  0  0  0  0  0
  1  2  1  0
  2  3  2  0
  3  4  1  0
  4  5  2  0
  5  6  1  0
  6  7  1  0
  7  8  2  0
  7  9  1  0
  9 10  1  0
 10 11  2  0
 11 12  1  0
 12 13  2  0
 12 14  1  0
 14 15  1  0
 15 16  1  0
 15 17  1  0
 15 18  1  0
 11 19  1  0
 19 20  1  0
 20 21  2  0
 21 22  1  0
 22 23  2  0
 23 24  1  0
 24 25  2  0
  6 26  2  0
 26  2  1  0
 25 10  1  0
 25 20  1  0
  1 27  1  0
  1 28  1  0
  1 29  1  0
  3 30  1  0
  4 31  1  0
  5 32  1  0
 16 33  1  0
 16 34  1  0
 16 35  1  0
 17 36  1  0
 17 37  1  0
 17 38  1  0
 18 39  1  0
 18 40  1  0
 18 41  1  0
 19 42  1  0
 21 43  1  0
 22 44  1  0
 23 45  1  0
 24 46  1  0
 26 47  1  0
M  CHG  1   9  -1
M  END
>  <UniqueID>  (43) 
43

>  <SMILES>  (43) 
Cc1cccc(C(=O)[N-]c2c(C(=O)OC(C)(C)C)[nH]c3ccccc23)c1

>  <Energy>  (43) 
82.72166192590912

>  <Genealogy>  (43) 
Cc1cccc(C(=O)[N-]c2c(C(=O)OC(C)(C)C)[nH]c3ccccc23)c1 (protonated)
Cc1cccc(C(=O)[N-]c2c(C(=O)OC(C)(C)C)[nH]c3ccccc23)c1 (3D coordinates assigned)
Cc1cccc(C(=O)[N-]c2c(C(=O)OC(C)(C)C)[nH]c3ccccc23)c1 (optimized conformer: 82.72166192590912 kcal/mol)

>  <smiles>  (43) 
Cc1cccc(C(=O)Nc2c(C(=O)OC(C)(C)C)[nH]c3ccccc23)c1

>  <score_type>  (43) 
oracle

>  <origin>  (43) 
adg

>  <m_score__min__energy>  (43) 
-10.23

>  <m_primary>  (43) 
energy

$$$$
43:0
     RDKit          3D

 67 70  0  0  0  0  0  0  0  0999 V2000
   59.0629   28.8138   43.2693 H   0  0  0  0  0  0  0  0  0  0  0  0
   58.8670   28.1640   44.1350 C   0  0  0  0  0  0  0  0  0  0  0  0
   58.0300   27.0550   43.9990 C   0  0  0  0  0  0  0  0  0  0  0  0
   57.5785   26.8266   43.0223 H   0  0  0  0  0  0  0  0  0  0  0  0
   57.7630   26.2340   45.0970 C   0  0  0  0  0  0  0  0  0  0  0  0
   56.9440   25.1220   44.9210 O   0  0  0  0  0  0  0  0  0  0  0  0
   58.3280   26.5270   46.3570 C   0  0  0  0  0  0  0  0  0  0  0  0
   58.0350   25.6370   47.5420 C   0  0  0  0  0  0  0  0  0  0  0  0
   58.2183   26.1937   48.4729 H   0  0  0  0  0  0  0  0  0  0  0  0
   56.9836   25.3155   47.5080 H   0  0  0  0  0  0  0  0  0  0  0  0
   58.6898   24.7538   47.5080 H   0  0  0  0  0  0  0  0  0  0  0  0
   59.1960   27.6410   46.4850 C   0  0  0  0  0  0  0  0  0  0  0  0
   59.8890   27.9350   47.7580 C   0  0  0  0  0  0  0  0  0  0  0  0
   60.9860   27.3670   48.0030 O   0  0  0  0  0  0  0  0  0  0  0  0
   59.3460   28.8280   48.7350 N   0  0  0  0  0  0  0  0  0  0  0  0
   59.5650   30.2720   48.7840 C   0  0  1  0  0  0  0  0  0  0  0  0
   59.5190   30.5655   49.8431 H   0  0  0  0  0  0  0  0  0  0  0  0
   60.9130   30.6220   48.1370 C   0  0  0  0  0  0  0  0  0  0  0  0
   61.3040   29.7491   47.5937 H   0  0  0  0  0  0  0  0  0  0  0  0
   61.6432   30.9098   48.9077 H   0  0  0  0  0  0  0  0  0  0  0  0
   60.6930   31.7360   47.2000 N   0  0  0  0  0  0  0  0  0  0  0  0
   60.9040   33.0400   47.8810 C   0  0  0  0  0  0  0  0  0  0  0  0
   60.0335   33.2624   48.5156 H   0  0  0  0  0  0  0  0  0  0  0  0
   61.0271   33.8243   47.1196 H   0  0  0  0  0  0  0  0  0  0  0  0
   62.1530   32.9910   48.7440 C   0  0  0  0  0  0  0  0  0  0  0  0
   61.9960   32.8180   50.1370 C   0  0  0  0  0  0  0  0  0  0  0  0
   60.6970   32.6830   50.6600 O   0  0  0  0  0  0  0  0  0  0  0  0
   59.8580   33.7650   51.0470 C   0  0  0  0  0  0  0  0  0  0  0  0
   59.8146   33.8209   52.1447 H   0  0  0  0  0  0  0  0  0  0  0  0
   60.2651   34.7057   50.6477 H   0  0  0  0  0  0  0  0  0  0  0  0
   58.8456   33.6049   50.6477 H   0  0  0  0  0  0  0  0  0  0  0  0
   63.1300   32.7850   50.9680 C   0  0  0  0  0  0  0  0  0  0  0  0
   63.0055   32.6631   52.0541 H   0  0  0  0  0  0  0  0  0  0  0  0
   64.4190   32.9060   50.4260 C   0  0  0  0  0  0  0  0  0  0  0  0
   65.5760   32.8730   51.2210 O   0  0  0  0  0  0  0  0  0  0  0  0
   66.8680   32.4950   50.7530 C   0  0  0  0  0  0  0  0  0  0  0  0
   67.5272   32.3021   51.6122 H   0  0  0  0  0  0  0  0  0  0  0  0
   66.7848   31.5836   50.1428 H   0  0  0  0  0  0  0  0  0  0  0  0
   67.2892   33.3076   50.1428 H   0  0  0  0  0  0  0  0  0  0  0  0
   64.5710   33.0630   49.0480 C   0  0  0  0  0  0  0  0  0  0  0  0
   65.5814   33.1539   48.6228 H   0  0  0  0  0  0  0  0  0  0  0  0
   63.4580   33.1070   48.1950 C   0  0  0  0  0  0  0  0  0  0  0  0
   63.6920   33.2540   46.7130 C   0  0  0  0  0  0  0  0  0  0  0  0
   64.6122   33.8321   46.5427 H   0  0  0  0  0  0  0  0  0  0  0  0
   63.7950   32.2581   46.2575 H   0  0  0  0  0  0  0  0  0  0  0  0
   62.8395   33.7791   46.2575 H   0  0  0  0  0  0  0  0  0  0  0  0
   59.3060   31.5210   46.7490 C   0  0  2  0  0  0  0  0  0  0  0  0
   59.2838   30.7618   45.9533 H   0  0  0  0  0  0  0  0  0  0  0  0
   58.6900   32.6960   46.0270 C   0  0  0  0  0  0  0  0  0  0  0  0
   58.6920   33.8490   46.5380 O   0  0  0  0  0  0  0  0  0  0  0  0
   58.1760   32.5050   44.7080 N   0  0  0  0  0  0  0  0  0  0  0  0
   57.3780   31.5610   44.2930 C   0  0  0  0  0  0  0  0  0  0  0  0
   56.7210   30.7740   45.1720 N   0  0  0  0  0  0  0  0  0  0  0  0
   55.9910   29.9660   44.3820 C   0  0  0  0  0  0  0  0  0  0  0  0
   55.1440   28.9760   44.8630 O   0  0  0  0  0  0  0  0  0  0  0  0
   56.1960   30.2610   43.0570 C   0  0  0  0  0  0  0  0  0  0  0  0
   55.7279   29.7549   42.1998 H   0  0  0  0  0  0  0  0  0  0  0  0
   57.0720   31.2800   42.9950 N   0  0  0  0  0  0  0  0  0  0  0  0
   57.5020   31.9240   41.7560 C   0  0  0  0  0  0  0  0  0  0  0  0
   58.0983   32.8170   41.9947 H   0  0  0  0  0  0  0  0  0  0  0  0
   58.1127   31.2212   41.1702 H   0  0  0  0  0  0  0  0  0  0  0  0
   56.6188   32.2187   41.1702 H   0  0  0  0  0  0  0  0  0  0  0  0
   58.5200   31.0090   47.9500 C   0  0  0  0  0  0  0  0  0  0  0  0
   57.7197   30.3249   47.6314 H   0  0  0  0  0  0  0  0  0  0  0  0
   58.0235   31.8164   48.5082 H   0  0  0  0  0  0  0  0  0  0  0  0
   59.4550   28.4490   45.3670 C   0  0  0  0  0  0  0  0  0  0  0  0
   60.1274   29.3142   45.4634 H   0  0  0  0  0  0  0  0  0  0  0  0
  1  2  1  0
  2  3  2  0
  3  4  1  0
  3  5  1  0
  5  6  1  0
  5  7  2  0
  7  8  1  0
  8  9  1  0
  8 10  1  0
  8 11  1  0
  7 12  1  0
 12 13  1  0
 13 14  2  0
 13 15  1  0
 15 16  1  0
 16 17  1  1
 16 18  1  0
 18 19  1  0
 18 20  1  0
 18 21  1  0
 21 22  1  0
 22 23  1  0
 22 24  1  0
 22 25  1  0
 25 26  2  0
 26 27  1  0
 27 28  1  0
 28 29  1  0
 28 30  1  0
 28 31  1  0
 26 32  1  0
 32 33  1  0
 32 34  2  0
 34 35  1  0
 35 36  1  0
 36 37  1  0
 36 38  1  0
 36 39  1  0
 34 40  1  0
 40 41  1  0
 40 42  2  0
 42 43  1  0
 43 44  1  0
 43 45  1  0
 43 46  1  0
 21 47  1  0
 47 48  1  6
 47 49  1  0
 49 50  2  0
 49 51  1  0
 51 52  2  0
 52 53  1  0
 53 54  1  0
 54 55  1  0
 54 56  2  0
 56 57  1  0
 56 58  1  0
 58 59  1  0
 59 60  1  0
 59 61  1  0
 59 62  1  0
 47 63  1  0
 63 64  1  0
 63 65  1  0
 12 66  2  0
 66 67  1  0
 66  2  1  0
 63 16  1  0
 42 25  1  0
 58 52  1  0
M  CHG  4   6  -1  15  -1  53  -1  55  -1
M  END
>  <UniqueID>  (44) 
44

>  <SMILES>  (44) 
COc1cc(C)c(CN2C[C@H]([N-]C(=O)c3cccc([O-])c3C)C[C@H]2C(=O)/N=c2/[n-]c([O-])cn2C)c(OC)c1

>  <Energy>  (44) 
128.9751317733938

>  <Genealogy>  (44) 
COc1cc(C)c(CN2CC([N-]C(=O)c3cccc([O-])c3C)CC2C(=O)N=c2[n-]c([O-])cn2C)c(OC)c1 (protonated)
COc1cc(C)c(CN2C[C@H]([N-]C(=O)c3cccc([O-])c3C)C[C@H]2C(=O)N=c2[n-]c([O-])cn2C)c(OC)c1 (chirality)
COc1cc(C)c(CN2C[C@H]([N-]C(=O)c3cccc([O-])c3C)C[C@H]2C(=O)/N=c2/[n-]c([O-])cn2C)c(OC)c1 (cis-trans isomerization)
COc1cc(C)c(CN2C[C@H]([N-]C(=O)c3cccc([O-])c3C)C[C@H]2C(=O)/N=c2/[n-]c([O-])cn2C)c(OC)c1 (3D coordinates assigned)
COc1cc(C)c(CN2C[C@H]([N-]C(=O)c3cccc([O-])c3C)C[C@H]2C(=O)/N=c2/[n-]c([O-])cn2C)c(OC)c1 (nonaromatic ring conformer: 128.9751317733938 kcal/mol)

>  <smiles>  (44) 
COc1cc(C)c(CN2CC(NC(=O)c3cccc(O)c3C)CC2C(=O)N=c2[nH]c(O)cn2C)c(OC)c1

>  <score_type>  (44) 
oracle

>  <origin>  (44) 
adg

>  <m_score__min__energy>  (44) 
-17.629999999999999

>  <m_primary>  (44) 
energy

$$$$
44:0
     RDKit          3D

 48 50  0  0  0  0  0  0  0  0999 V2000
   58.1190   32.5270   43.0440 C   0  0  0  0  0  0  0  0  0  0  0  0
   57.3720   31.5840   42.4620 C   0  0  0  0  0  0  0  0  0  0  0  0
   57.0120   30.3080   43.1740 C   0  0  0  0  0  0  0  0  0  0  0  0
   57.7730   30.1520   44.4990 C   0  0  0  0  0  0  0  0  0  0  0  0
   57.5490   28.7900   45.1160 C   0  0  0  0  0  0  0  0  0  0  0  0
   58.6510   28.0160   45.5120 C   0  0  0  0  0  0  0  0  0  0  0  0
   58.4760   26.7420   46.0620 C   0  0  0  0  0  0  0  0  0  0  0  0
   59.6220   26.0080   46.4050 O   0  0  0  0  0  0  0  0  0  0  0  0
   60.8640   26.5590   46.8470 C   0  0  0  0  0  0  0  0  0  0  0  0
   60.7510   27.1210   48.2360 C   0  0  0  0  0  0  0  0  0  0  0  0
   60.9060   26.3700   49.3410 N   0  0  0  0  0  0  0  0  0  0  0  0
   60.7030   27.2430   50.3480 C   0  0  0  0  0  0  0  0  0  0  0  0
   60.7710   26.9100   51.5590 O   0  0  0  0  0  0  0  0  0  0  0  0
   60.4190   28.4990   49.9520 N   0  0  0  0  0  0  0  0  0  0  0  0
   60.4470   28.4230   48.6090 C   0  0  0  0  0  0  0  0  0  0  0  0
   60.1710   29.5800   47.7410 C   0  0  0  0  0  0  0  0  0  0  0  0
   61.0220   29.9700   46.8960 O   0  0  0  0  0  0  0  0  0  0  0  0
   58.9210   30.2630   47.8710 N   0  0  0  0  0  0  0  0  0  0  0  0
   58.7600   31.5420   48.5540 C   0  0  0  0  0  0  0  0  0  0  0  0
   58.8950   32.6870   47.5840 C   0  0  0  0  0  0  0  0  0  0  0  0
   60.1400   33.3040   47.3800 C   0  0  0  0  0  0  0  0  0  0  0  0
   60.2730   34.3330   46.4410 C   0  0  0  0  0  0  0  0  0  0  0  0
   59.1640   34.7530   45.6980 C   0  0  0  0  0  0  0  0  0  0  0  0
   59.2960   35.7810   44.7710 O   0  0  0  0  0  0  0  0  0  0  0  0
   57.9240   34.1370   45.8870 C   0  0  0  0  0  0  0  0  0  0  0  0
   57.7900   33.1010   46.8180 C   0  0  0  0  0  0  0  0  0  0  0  0
   57.1720   26.2480   46.2450 C   0  0  0  0  0  0  0  0  0  0  0  0
   56.0680   27.0010   45.8350 C   0  0  0  0  0  0  0  0  0  0  0  0
   54.7860   26.4890   45.9990 O   0  0  0  0  0  0  0  0  0  0  0  0
   56.2510   28.2640   45.2600 C   0  0  0  0  0  0  0  0  0  0  0  0
   55.1420   28.9880   44.8360 O   0  0  0  0  0  0  0  0  0  0  0  0
   58.3651   33.4491   42.4970 H   0  0  0  0  0  0  0  0  0  0  0  0
   58.4878   32.3811   44.0700 H   0  0  0  0  0  0  0  0  0  0  0  0
   57.0108   31.7447   41.4355 H   0  0  0  0  0  0  0  0  0  0  0  0
   55.9321   30.3110   43.3833 H   0  0  0  0  0  0  0  0  0  0  0  0
   57.2896   29.4663   42.5225 H   0  0  0  0  0  0  0  0  0  0  0  0
   58.8484   30.2852   44.3102 H   0  0  0  0  0  0  0  0  0  0  0  0
   57.3987   30.9119   45.2007 H   0  0  0  0  0  0  0  0  0  0  0  0
   59.6676   28.4175   45.3879 H   0  0  0  0  0  0  0  0  0  0  0  0
   61.6284   25.7680   46.8420 H   0  0  0  0  0  0  0  0  0  0  0  0
   61.1428   27.3756   46.1647 H   0  0  0  0  0  0  0  0  0  0  0  0
   57.7641   31.5793   49.0197 H   0  0  0  0  0  0  0  0  0  0  0  0
   59.5443   31.6341   49.3197 H   0  0  0  0  0  0  0  0  0  0  0  0
   61.0148   32.9768   47.9611 H   0  0  0  0  0  0  0  0  0  0  0  0
   61.2509   34.8125   46.2867 H   0  0  0  0  0  0  0  0  0  0  0  0
   57.0521   34.4670   45.3031 H   0  0  0  0  0  0  0  0  0  0  0  0
   56.8159   32.6079   46.9516 H   0  0  0  0  0  0  0  0  0  0  0  0
   57.0201   25.2642   46.7131 H   0  0  0  0  0  0  0  0  0  0  0  0
  1  2  2  0
  2  3  1  0
  3  4  1  0
  4  5  1  0
  5  6  2  0
  6  7  1  0
  7  8  1  0
  8  9  1  0
  9 10  1  0
 10 11  1  0
 11 12  1  0
 12 13  2  0
 12 14  1  0
 14 15  1  0
 15 16  1  0
 16 17  2  0
 16 18  1  0
 18 19  1  0
 19 20  1  0
 20 21  2  0
 21 22  1  0
 22 23  2  0
 23 24  1  0
 23 25  1  0
 25 26  2  0
  7 27  2  0
 27 28  1  0
 28 29  1  0
 28 30  2  0
 30 31  1  0
 30  5  1  0
 15 10  2  0
 26 20  1  0
  1 32  1  0
  1 33  1  0
  2 34  1  0
  3 35  1  0
  3 36  1  0
  4 37  1  0
  4 38  1  0
  6 39  1  0
  9 40  1  0
  9 41  1  0
 19 42  1  0
 19 43  1  0
 21 44  1  0
 22 45  1  0
 25 46  1  0
 26 47  1  0
 27 48  1  0
M  CHG  6  11  -1  14  -1  18  -1  24  -1  29  -1  31  -1
M  END
>  <UniqueID>  (45) 
45

>  <SMILES>  (45) 
C=CCCc1cc(OCc2[n-]c(=O)[n-]c2C(=O)[N-]Cc2ccc([O-])cc2)cc([O-])c1[O-]

>  <Energy>  (45) 
69.71678847825434

>  <Genealogy>  (45) 
C=CCCc1cc(OCc2[n-]c(=O)[n-]c2C(=O)[N-]Cc2ccc([O-])cc2)cc([O-])c1[O-] (protonated)
C=CCCc1cc(OCc2[n-]c(=O)[n-]c2C(=O)[N-]Cc2ccc([O-])cc2)cc([O-])c1[O-] (3D coordinates assigned)
C=CCCc1cc(OCc2[n-]c(=O)[n-]c2C(=O)[N-]Cc2ccc([O-])cc2)cc([O-])c1[O-] (optimized conformer: 69.71678847825434 kcal/mol)

>  <smiles>  (45) 
C=CCCc1cc(OCc2[nH]c(=O)[nH]c2C(=O)NCc2ccc(O)cc2)cc(O)c1O

>  <score_type>  (45) 
oracle

>  <origin>  (45) 
adg

>  <m_score__min__energy>  (45) 
-18.98

>  <m_primary>  (45) 
energy

$$$$
45:0
     RDKit          3D

 71 76  0  0  0  0  0  0  0  0999 V2000
   62.5305   30.7104   49.2149 H   0  0  0  0  0  0  0  0  0  0  0  0
   61.4870   30.3940   49.0700 C   0  0  0  0  0  0  0  0  0  0  0  0
   60.6600   30.2710   50.1430 N   0  0  0  0  0  0  0  0  0  0  0  0
   59.3630   29.8800   50.0160 C   0  0  0  0  0  0  0  0  0  0  0  0
   58.6480   29.7400   51.0980 N   0  0  0  0  0  0  0  0  0  0  0  0
   57.5510   30.5690   51.5060 C   0  0  0  0  0  0  0  0  0  0  0  0
   56.5110   30.0320   51.9710 O   0  0  0  0  0  0  0  0  0  0  0  0
   57.5570   32.0470   51.2170 C   0  0  0  0  0  0  0  0  0  0  0  0
   57.9025   32.2162   50.1865 H   0  0  0  0  0  0  0  0  0  0  0  0
   56.5383   32.4445   51.3364 H   0  0  0  0  0  0  0  0  0  0  0  0
   58.4800   32.7500   52.1750 C   0  0  0  0  0  0  0  0  0  0  0  0
   58.1650   34.0320   52.6570 C   0  0  0  0  0  0  0  0  0  0  0  0
   57.2172   34.5090   52.3668 H   0  0  0  0  0  0  0  0  0  0  0  0
   59.0530   34.7040   53.5050 C   0  0  0  0  0  0  0  0  0  0  0  0
   58.7989   35.7048   53.8843 H   0  0  0  0  0  0  0  0  0  0  0  0
   60.2630   34.1050   53.8710 C   0  0  0  0  0  0  0  0  0  0  0  0
   60.9595   34.6338   54.5383 H   0  0  0  0  0  0  0  0  0  0  0  0
   60.5860   32.8340   53.3880 C   0  0  0  0  0  0  0  0  0  0  0  0
   61.5387   32.3641   53.6735 H   0  0  0  0  0  0  0  0  0  0  0  0
   59.7000   32.1580   52.5420 C   0  0  0  0  0  0  0  0  0  0  0  0
   59.9598   31.1587   52.1626 H   0  0  0  0  0  0  0  0  0  0  0  0
   58.8410   29.6440   48.7280 C   0  0  0  0  0  0  0  0  0  0  0  0
   57.7857   29.3599   48.6027 H   0  0  0  0  0  0  0  0  0  0  0  0
   59.6720   29.7730   47.6100 C   0  0  0  0  0  0  0  0  0  0  0  0
   59.1450   29.4490   46.2740 C   0  0  0  0  0  0  0  0  0  0  0  0
   58.5620   30.3190   45.3530 C   0  0  0  0  0  0  0  0  0  0  0  0
   58.4930   31.7930   45.4270 C   0  0  0  0  0  0  0  0  0  0  0  0
   57.4680   32.5010   44.7780 C   0  0  0  0  0  0  0  0  0  0  0  0
   56.7247   31.9571   44.1766 H   0  0  0  0  0  0  0  0  0  0  0  0
   57.3860   33.8910   44.8910 C   0  0  0  0  0  0  0  0  0  0  0  0
   56.5870   34.4384   44.3695 H   0  0  0  0  0  0  0  0  0  0  0  0
   58.3170   34.5860   45.6650 C   0  0  0  0  0  0  0  0  0  0  0  0
   58.2586   35.6819   45.7399 H   0  0  0  0  0  0  0  0  0  0  0  0
   59.3290   33.8900   46.3490 C   0  0  0  0  0  0  0  0  0  0  0  0
   60.3010   34.5810   47.1460 N   0  0  0  0  0  0  0  0  0  0  0  0
   60.5510   34.3350   48.5360 C   0  0  0  0  0  0  0  0  0  0  0  0
   59.6470   34.6000   49.3720 O   0  0  0  0  0  0  0  0  0  0  0  0
   61.8530   33.8080   49.0100 C   0  0  0  0  0  0  0  0  0  0  0  0
   62.8510   33.4350   48.0950 C   0  0  0  0  0  0  0  0  0  0  0  0
   62.6654   33.5352   47.0154 H   0  0  0  0  0  0  0  0  0  0  0  0
   64.0770   32.9380   48.5430 C   0  0  0  0  0  0  0  0  0  0  0  0
   64.8462   32.6486   47.8119 H   0  0  0  0  0  0  0  0  0  0  0  0
   64.3400   32.8030   49.9220 C   0  0  0  0  0  0  0  0  0  0  0  0
   65.6150   32.2880   50.3880 N   0  0  0  0  0  0  0  0  0  0  0  0
   65.6860   31.0110   51.1100 C   0  0  0  0  0  0  0  0  0  0  0  0
   65.6754   31.2012   52.1934 H   0  0  0  0  0  0  0  0  0  0  0  0
   64.8211   30.3878   50.8387 H   0  0  0  0  0  0  0  0  0  0  0  0
   66.6146   30.4875   50.8387 H   0  0  0  0  0  0  0  0  0  0  0  0
   66.8550   33.0360   50.1460 C   0  0  0  0  0  0  0  0  0  0  0  0
   67.3110   33.3111   51.1085 H   0  0  0  0  0  0  0  0  0  0  0  0
   67.5554   32.4096   49.5741 H   0  0  0  0  0  0  0  0  0  0  0  0
   66.6276   33.9477   49.5741 H   0  0  0  0  0  0  0  0  0  0  0  0
   63.3350   33.1860   50.8330 C   0  0  0  0  0  0  0  0  0  0  0  0
   63.5161   33.0872   51.9135 H   0  0  0  0  0  0  0  0  0  0  0  0
   62.1130   33.6890   50.3830 C   0  0  0  0  0  0  0  0  0  0  0  0
   61.3475   33.9946   51.1115 H   0  0  0  0  0  0  0  0  0  0  0  0
   59.4200   32.4960   46.2150 C   0  0  0  0  0  0  0  0  0  0  0  0
   60.2232   31.9494   46.7308 H   0  0  0  0  0  0  0  0  0  0  0  0
   57.9810   29.6090   44.3530 N   0  0  0  0  0  0  0  0  0  0  0  0
   58.2270   28.3270   44.6910 C   0  0  0  0  0  0  0  0  0  0  0  0
   57.8090   27.2030   43.9810 C   0  0  0  0  0  0  0  0  0  0  0  0
   57.2503   27.3012   43.0386 H   0  0  0  0  0  0  0  0  0  0  0  0
   58.1250   25.9410   44.5090 C   0  0  0  0  0  0  0  0  0  0  0  0
   57.8171   25.0310   43.9731 H   0  0  0  0  0  0  0  0  0  0  0  0
   58.8340   25.8340   45.7210 C   0  0  0  0  0  0  0  0  0  0  0  0
   59.0776   24.8447   46.1357 H   0  0  0  0  0  0  0  0  0  0  0  0
   59.2270   27.0000   46.3950 C   0  0  0  0  0  0  0  0  0  0  0  0
   59.7756   26.9442   47.3468 H   0  0  0  0  0  0  0  0  0  0  0  0
   58.9120   28.2000   45.8410 N   0  0  0  0  0  0  0  0  0  0  0  0
   61.0150   30.1200   47.7870 C   0  0  0  0  0  0  0  0  0  0  0  0
   61.6926   30.1763   46.9223 H   0  0  0  0  0  0  0  0  0  0  0  0
  1  2  1  0
  2  3  1  0
  3  4  1  0
  4  5  2  0
  5  6  1  0
  6  7  2  0
  6  8  1  0
  8  9  1  0
  8 10  1  0
  8 11  1  0
 11 12  2  0
 12 13  1  0
 12 14  1  0
 14 15  1  0
 14 16  2  0
 16 17  1  0
 16 18  1  0
 18 19  1  0
 18 20  2  0
 20 21  1  0
  4 22  1  0
 22 23  1  0
 22 24  2  0
 24 25  1  0
 25 26  2  0
 26 27  1  0
 27 28  2  0
 28 29  1  0
 28 30  1  0
 30 31  1  0
 30 32  2  0
 32 33  1  0
 32 34  1  0
 34 35  1  0
 35 36  1  0
 36 37  2  0
 36 38  1  0
 38 39  2  0
 39 40  1  0
 39 41  1  0
 41 42  1  0
 41 43  2  0
 43 44  1  0
 44 45  1  0
 45 46  1  0
 45 47  1  0
 45 48  1  0
 44 49  1  0
 49 50  1  0
 49 51  1  0
 49 52  1  0
 43 53  1  0
 53 54  1  0
 53 55  2  0
 55 56  1  0
 34 57  2  0
 57 58  1  0
 26 59  1  0
 59 60  2  0
 60 61  1  0
 61 62  1  0
 61 63  2  0
 63 64  1  0
 63 65  1  0
 65 66  1  0
 65 67  2  0
 67 68  1  0
 67 69  1  0
 24 70  1  0
 70 71  1  0
 70  2  2  0
 20 11  1  0
 69 25  1  0
 57 27  1  0
 69 60  1  0
 55 38  1  0
M  CHG  2   3  -1  35  -1
M  END
>  <UniqueID>  (46) 
46

>  <SMILES>  (46) 
CN(C)c1ccc(C(=O)[N-]c2cccc(-c3nc4ccccn4c3-c3cc[n-]/c(=N/C(=O)Cc4ccccc4)c3)c2)cc1

>  <Energy>  (46) 
144.32408073780073

>  <Genealogy>  (46) 
CN(C)c1ccc(C(=O)[N-]c2cccc(-c3nc4ccccn4c3-c3cc[n-]c(=NC(=O)Cc4ccccc4)c3)c2)cc1 (protonated)
CN(C)c1ccc(C(=O)[N-]c2cccc(-c3nc4ccccn4c3-c3cc[n-]/c(=N/C(=O)Cc4ccccc4)c3)c2)cc1 (cis-trans isomerization)
CN(C)c1ccc(C(=O)[N-]c2cccc(-c3nc4ccccn4c3-c3cc[n-]/c(=N/C(=O)Cc4ccccc4)c3)c2)cc1 (3D coordinates assigned)
CN(C)c1ccc(C(=O)[N-]c2cccc(-c3nc4ccccn4c3-c3cc[n-]/c(=N/C(=O)Cc4ccccc4)c3)c2)cc1 (optimized conformer: 144.32408073780073 kcal/mol)

>  <smiles>  (46) 
CN(C)c1ccc(C(=O)Nc2cccc(-c3nc4ccccn4c3-c3cc[nH]c(=NC(=O)Cc4ccccc4)c3)c2)cc1

>  <score_type>  (46) 
oracle

>  <origin>  (46) 
adg

>  <m_score__min__energy>  (46) 
-13.82

>  <m_primary>  (46) 
energy

$$$$
46:0
     RDKit          3D

 36 38  0  0  0  0  0  0  0  0999 V2000
   59.9353   28.0290   46.9568 H   0  0  0  0  0  0  0  0  0  0  0  0
   59.9540   26.9610   46.6940 C   0  0  0  0  0  0  0  0  0  0  0  0
   60.8721   26.3738   46.8433 H   0  0  0  0  0  0  0  0  0  0  0  0
   58.8540   26.3730   46.1900 C   0  0  0  0  0  0  0  0  0  0  0  0
   57.5860   27.0380   46.1030 C   0  0  0  0  0  0  0  0  0  0  0  0
   57.4160   28.3870   46.1530 C   0  0  0  0  0  0  0  0  0  0  0  0
   57.7291   28.8952   47.0769 H   0  0  0  0  0  0  0  0  0  0  0  0
   56.8500   29.2330   45.0820 C   0  0  0  0  0  0  0  0  0  0  0  0
   57.5590   29.8730   44.0800 C   0  0  0  0  0  0  0  0  0  0  0  0
   58.6526   29.9203   43.9717 H   0  0  0  0  0  0  0  0  0  0  0  0
   56.6180   30.4400   43.2440 C   0  0  0  0  0  0  0  0  0  0  0  0
   56.8157   31.0418   42.3447 H   0  0  0  0  0  0  0  0  0  0  0  0
   55.3810   30.1050   43.7560 C   0  0  0  0  0  0  0  0  0  0  0  0
   54.4164   30.4038   43.3198 H   0  0  0  0  0  0  0  0  0  0  0  0
   55.5270   29.3600   44.8660 N   0  0  0  0  0  0  0  0  0  0  0  0
   54.7570   28.9500   45.4410 H   0  0  0  0  0  0  0  0  0  0  0  0
   56.4350   26.2290   45.9260 C   0  0  0  0  0  0  0  0  0  0  0  0
   55.1620   26.7980   45.9350 O   0  0  0  0  0  0  0  0  0  0  0  0
   56.5600   24.8530   45.6770 C   0  0  0  0  0  0  0  0  0  0  0  0
   55.3650   24.0000   45.4710 C   0  0  0  0  0  0  0  0  0  0  0  0
   54.2700   24.3380   45.9950 O   0  0  0  0  0  0  0  0  0  0  0  0
   55.4300   22.7860   44.7040 N   0  0  0  0  0  0  0  0  0  0  0  0
   55.5820   22.8470   43.3560 O   0  0  0  0  0  0  0  0  0  0  0  0
   56.6150   21.9330   43.0870 C   0  0  0  0  0  0  0  0  0  0  0  0
   57.5892   22.4410   43.1401 H   0  0  0  0  0  0  0  0  0  0  0  0
   56.5039   21.5085   42.0783 H   0  0  0  0  0  0  0  0  0  0  0  0
   56.5420   20.8360   44.1420 C   0  0  0  0  0  0  0  0  0  0  0  0
   57.5473   20.4947   44.4301 H   0  0  0  0  0  0  0  0  0  0  0  0
   56.0174   19.9325   43.7977 H   0  0  0  0  0  0  0  0  0  0  0  0
   55.8540   21.5270   45.2880 C   0  0  0  0  0  0  0  0  0  0  0  0
   56.5493   21.6934   46.1240 H   0  0  0  0  0  0  0  0  0  0  0  0
   55.0224   20.9432   45.7095 H   0  0  0  0  0  0  0  0  0  0  0  0
   57.8350   24.2900   45.6260 C   0  0  0  0  0  0  0  0  0  0  0  0
   57.9510   23.2249   45.3767 H   0  0  0  0  0  0  0  0  0  0  0  0
   58.9330   25.0440   45.8810 N   0  0  0  0  0  0  0  0  0  0  0  0
   59.8550   24.5500   45.8990 H   0  0  0  0  0  0  0  0  0  0  0  0
  1  2  1  0
  2  3  1  0
  2  4  2  0
  4  5  1  0
  5  6  2  0
  6  7  1  0
  6  8  1  0
  8  9  2  0
  9 10  1  0
  9 11  1  0
 11 12  1  0
 11 13  2  0
 13 14  1  0
 13 15  1  0
 15 16  1  0
  5 17  1  0
 17 18  1  0
 17 19  2  0
 19 20  1  0
 20 21  2  0
 20 22  1  0
 22 23  1  0
 23 24  1  0
 24 25  1  0
 24 26  1  0
 24 27  1  0
 27 28  1  0
 27 29  1  0
 27 30  1  0
 30 31  1  0
 30 32  1  0
 19 33  1  0
 33 34  1  0
 33 35  2  0
 35 36  1  0
 35  4  1  0
 15  8  1  0
 30 22  1  0
M  CHG  2  18  -1  35   1
M  END
>  <UniqueID>  (47) 
47

>  <SMILES>  (47) 
C=c1[nH+]cc(C(=O)N2CCCO2)c([O-])/c1=C/c1ccc[nH]1

>  <Energy>  (47) 
98.10179062679504

>  <Genealogy>  (47) 
C=c1[nH+]cc(C(=O)N2CCCO2)c([O-])c1=Cc1ccc[nH]1 (protonated)
C=c1[nH+]cc(C(=O)N2CCCO2)c([O-])/c1=C/c1ccc[nH]1 (cis-trans isomerization)
C=c1[nH+]cc(C(=O)N2CCCO2)c([O-])/c1=C/c1ccc[nH]1 (3D coordinates assigned)
C=c1[nH+]cc(C(=O)N2CCCO2)c([O-])/c1=C/c1ccc[nH]1 (nonaromatic ring conformer: 98.10179062679504 kcal/mol)

>  <smiles>  (47) 
C=c1ncc(C(=O)N2CCCO2)c(O)c1=Cc1ccc[nH]1

>  <score_type>  (47) 
oracle

>  <origin>  (47) 
adg

>  <m_score__min__energy>  (47) 
-10.130000000000001

>  <m_primary>  (47) 
energy

$$$$
47:0
     RDKit          3D

 53 55  0  0  0  0  0  0  0  0999 V2000
   58.6520   34.6070   51.8630 N   0  0  0  0  0  0  0  0  0  0  0  0
   58.2370   33.2360   51.7820 C   0  0  0  0  0  0  0  0  0  0  0  0
   57.3700   32.7210   52.7580 C   0  0  0  0  0  0  0  0  0  0  0  0
   56.9380   31.3930   52.6920 C   0  0  0  0  0  0  0  0  0  0  0  0
   57.3590   30.5750   51.6420 C   0  0  0  0  0  0  0  0  0  0  0  0
   58.2200   31.0790   50.6650 C   0  0  0  0  0  0  0  0  0  0  0  0
   58.6890   32.4020   50.7380 C   0  0  0  0  0  0  0  0  0  0  0  0
   59.5350   32.9470   49.7110 N   0  0  0  0  0  0  0  0  0  0  0  0
   60.9360   33.2410   49.7870 C   0  0  0  0  0  0  0  0  0  0  0  0
   61.3100   34.1890   50.5290 O   0  0  0  0  0  0  0  0  0  0  0  0
   61.9770   32.3550   49.1550 C   0  0  0  0  0  0  0  0  0  0  0  0
   62.0130   32.5260   47.6560 C   0  0  0  0  0  0  0  0  0  0  0  0
   62.8100   33.3100   47.1640 O   0  0  0  0  0  0  0  0  0  0  0  0
   61.1010   31.7340   46.7480 C   0  0  0  0  0  0  0  0  0  0  0  0
   59.8050   32.4330   46.3600 C   0  0  0  0  0  0  0  0  0  0  0  0
   59.6230   33.8160   46.5810 C   0  0  0  0  0  0  0  0  0  0  0  0
   58.4220   34.4440   46.2410 C   0  0  0  0  0  0  0  0  0  0  0  0
   57.3780   33.7080   45.6850 C   0  0  0  0  0  0  0  0  0  0  0  0
   57.5250   32.3390   45.4730 C   0  0  0  0  0  0  0  0  0  0  0  0
   58.7210   31.6820   45.8170 C   0  0  0  0  0  0  0  0  0  0  0  0
   58.8230   30.1990   45.5270 C   0  0  0  0  0  0  0  0  0  0  0  0
   58.0210   29.3820   46.5560 C   0  0  0  0  0  0  0  0  0  0  0  0
   57.1180   28.3960   45.8740 C   0  0  0  0  0  0  0  0  0  0  0  0
   56.2280   28.8110   45.0810 O   0  0  0  0  0  0  0  0  0  0  0  0
   57.2060   26.9540   46.1850 C   0  0  0  0  0  0  0  0  0  0  0  0
   58.4600   26.3620   46.4380 C   0  0  0  0  0  0  0  0  0  0  0  0
   59.6240   27.1260   46.4060 O   0  0  0  0  0  0  0  0  0  0  0  0
   58.5470   24.9920   46.7080 C   0  0  0  0  0  0  0  0  0  0  0  0
   57.3940   24.2030   46.7340 C   0  0  0  0  0  0  0  0  0  0  0  0
   57.4880   22.8410   46.9920 O   0  0  0  0  0  0  0  0  0  0  0  0
   56.1440   24.7840   46.4960 C   0  0  0  0  0  0  0  0  0  0  0  0
   56.0450   26.1540   46.2220 C   0  0  0  0  0  0  0  0  0  0  0  0
   54.7880   26.7120   46.0050 O   0  0  0  0  0  0  0  0  0  0  0  0
   59.4330   34.9640   51.2650 H   0  0  0  0  0  0  0  0  0  0  0  0
   58.1910   35.2790   52.5150 H   0  0  0  0  0  0  0  0  0  0  0  0
   57.0280   33.3665   53.5804 H   0  0  0  0  0  0  0  0  0  0  0  0
   56.2671   30.9931   53.4666 H   0  0  0  0  0  0  0  0  0  0  0  0
   57.0122   29.5327   51.5842 H   0  0  0  0  0  0  0  0  0  0  0  0
   58.5341   30.4347   49.8306 H   0  0  0  0  0  0  0  0  0  0  0  0
   62.9636   32.6122   49.5678 H   0  0  0  0  0  0  0  0  0  0  0  0
   61.7202   31.3086   49.3768 H   0  0  0  0  0  0  0  0  0  0  0  0
   61.6542   31.5062   45.8249 H   0  0  0  0  0  0  0  0  0  0  0  0
   60.8067   30.8394   47.3164 H   0  0  0  0  0  0  0  0  0  0  0  0
   60.4372   34.4064   47.0265 H   0  0  0  0  0  0  0  0  0  0  0  0
   58.3004   35.5236   46.4130 H   0  0  0  0  0  0  0  0  0  0  0  0
   56.4368   34.2082   45.4132 H   0  0  0  0  0  0  0  0  0  0  0  0
   56.6968   31.7651   45.0317 H   0  0  0  0  0  0  0  0  0  0  0  0
   58.4254   30.0006   44.5207 H   0  0  0  0  0  0  0  0  0  0  0  0
   59.8800   29.9007   45.5880 H   0  0  0  0  0  0  0  0  0  0  0  0
   58.7207   28.8381   47.2076 H   0  0  0  0  0  0  0  0  0  0  0  0
   57.4023   30.0734   47.1469 H   0  0  0  0  0  0  0  0  0  0  0  0
   59.5282   24.5336   46.9008 H   0  0  0  0  0  0  0  0  0  0  0  0
   55.2363   24.1633   46.5241 H   0  0  0  0  0  0  0  0  0  0  0  0
  1  2  1  0
  2  3  2  0
  3  4  1  0
  4  5  2  0
  5  6  1  0
  6  7  2  0
  7  8  1  0
  8  9  1  0
  9 10  2  0
  9 11  1  0
 11 12  1  0
 12 13  2  0
 12 14  1  0
 14 15  1  0
 15 16  2  0
 16 17  1  0
 17 18  2  0
 18 19  1  0
 19 20  2  0
 20 21  1  0
 21 22  1  0
 22 23  1  0
 23 24  2  0
 23 25  1  0
 25 26  2  0
 26 27  1  0
 26 28  1  0
 28 29  2  0
 29 30  1  0
 29 31  1  0
 31 32  2  0
 32 33  1  0
  7  2  1  0
 20 15  1  0
 32 25  1  0
  1 34  1  0
  1 35  1  0
  3 36  1  0
  4 37  1  0
  5 38  1  0
  6 39  1  0
 11 40  1  0
 11 41  1  0
 14 42  1  0
 14 43  1  0
 16 44  1  0
 17 45  1  0
 18 46  1  0
 19 47  1  0
 21 48  1  0
 21 49  1  0
 22 50  1  0
 22 51  1  0
 28 52  1  0
 31 53  1  0
M  CHG  4   8  -1  27  -1  30  -1  33  -1
M  END
>  <UniqueID>  (48) 
48

>  <SMILES>  (48) 
Nc1ccccc1[N-]C(=O)CC(=O)Cc1ccccc1CCC(=O)c1c([O-])cc([O-])cc1[O-]

>  <Energy>  (48) 
61.64497473882434

>  <Genealogy>  (48) 
Nc1ccccc1[N-]C(=O)CC(=O)Cc1ccccc1CCC(=O)c1c([O-])cc([O-])cc1[O-] (protonated)
Nc1ccccc1[N-]C(=O)CC(=O)Cc1ccccc1CCC(=O)c1c([O-])cc([O-])cc1[O-] (3D coordinates assigned)
Nc1ccccc1[N-]C(=O)CC(=O)Cc1ccccc1CCC(=O)c1c([O-])cc([O-])cc1[O-] (optimized conformer: 61.64497473882434 kcal/mol)

>  <smiles>  (48) 
Nc1ccccc1NC(=O)CC(=O)Cc1ccccc1CCC(=O)c1c(O)cc(O)cc1O

>  <score_type>  (48) 
oracle

>  <origin>  (48) 
adg

>  <m_score__min__energy>  (48) 
-17.25

>  <m_primary>  (48) 
energy

$$$$
48:0
     RDKit          3D

 46 49  0  0  1  0  0  0  0  0999 V2000
   55.1430   29.7280   43.7880 C   0  0  0  0  0  0  0  0  0  0  0  0
   56.5630   29.8640   44.2550 C   0  0  0  0  0  0  0  0  0  0  0  0
   56.9120   31.0570   44.7500 N   0  0  0  0  0  0  0  0  0  0  0  0
   58.1580   31.3090   45.2030 C   0  0  0  0  0  0  0  0  0  0  0  0
   58.5560   32.6050   45.7470 C   0  0  0  0  0  0  0  0  0  0  0  0
   58.6370   33.7310   44.9330 C   0  0  0  0  0  0  0  0  0  0  0  0
   59.0120   34.9720   45.4280 C   0  0  0  0  0  0  0  0  0  0  0  0
   59.2980   35.0600   46.7240 N   0  0  0  0  0  0  0  0  0  0  0  0
   59.2430   34.0040   47.5810 C   0  0  0  0  0  0  0  0  0  0  0  0
   59.5500   34.2630   48.7930 N   0  0  0  0  0  0  0  0  0  0  0  0
   58.8710   32.7650   47.1020 C   0  0  0  0  0  0  0  0  0  0  0  0
   58.7940   31.5820   47.9910 C   0  0  0  0  0  0  0  0  0  0  0  0
   59.0480   30.2510   45.1190 C   0  0  0  0  0  0  0  0  0  0  0  0
   58.6590   29.0130   44.5970 C   0  0  0  0  0  0  0  0  0  0  0  0
   59.4990   28.0570   44.5330 N   0  0  0  0  0  0  0  0  0  0  0  0
   59.6620   27.1500   45.6260 C   0  0  1  0  0  0  0  0  0  0  0  0
   59.5750   27.8420   46.9700 C   0  0  0  0  0  0  0  0  0  0  0  0
   59.2990   26.6340   47.8680 C   0  0  0  0  0  0  0  0  0  0  0  0
   58.2610   25.9020   47.0580 C   0  0  0  0  0  0  0  0  0  0  0  0
   57.2210   25.0530   47.3750 C   0  0  0  0  0  0  0  0  0  0  0  0
   56.4500   24.5580   46.3370 C   0  0  0  0  0  0  0  0  0  0  0  0
   56.6600   24.8610   45.0200 C   0  0  0  0  0  0  0  0  0  0  0  0
   57.7000   25.7090   44.7030 C   0  0  0  0  0  0  0  0  0  0  0  0
   58.4830   26.2160   45.7340 C   0  0  0  0  0  0  0  0  0  0  0  0
   57.4190   28.8310   44.1690 N   0  0  0  0  0  0  0  0  0  0  0  0
   54.4749   29.6640   44.6595 H   0  0  0  0  0  0  0  0  0  0  0  0
   54.8711   30.6042   43.1811 H   0  0  0  0  0  0  0  0  0  0  0  0
   55.0423   28.8161   43.1811 H   0  0  0  0  0  0  0  0  0  0  0  0
   58.3963   33.6342   43.8640 H   0  0  0  0  0  0  0  0  0  0  0  0
   59.0707   35.8525   44.7713 H   0  0  0  0  0  0  0  0  0  0  0  0
   59.5820   36.0190   47.0750 H   0  0  0  0  0  0  0  0  0  0  0  0
   59.8230   33.6170   49.5380 H   0  0  0  0  0  0  0  0  0  0  0  0
   58.8154   31.9102   49.0407 H   0  0  0  0  0  0  0  0  0  0  0  0
   57.8585   31.0372   47.7961 H   0  0  0  0  0  0  0  0  0  0  0  0
   59.6510   30.9205   47.7961 H   0  0  0  0  0  0  0  0  0  0  0  0
   60.0816   30.3871   45.4699 H   0  0  0  0  0  0  0  0  0  0  0  0
   60.6316   26.6698   45.4280 H   0  0  0  0  0  0  0  0  0  0  0  0
   60.5187   28.3414   47.2348 H   0  0  0  0  0  0  0  0  0  0  0  0
   58.8281   28.6473   47.0311 H   0  0  0  0  0  0  0  0  0  0  0  0
   60.2026   26.0235   48.0123 H   0  0  0  0  0  0  0  0  0  0  0  0
   58.9778   26.8922   48.8879 H   0  0  0  0  0  0  0  0  0  0  0  0
   57.0109   24.7780   48.4192 H   0  0  0  0  0  0  0  0  0  0  0  0
   55.6196   23.8811   46.5863 H   0  0  0  0  0  0  0  0  0  0  0  0
   56.0161   24.4392   44.2342 H   0  0  0  0  0  0  0  0  0  0  0  0
   57.9058   25.9787   43.6566 H   0  0  0  0  0  0  0  0  0  0  0  0
   57.0350   27.9480   43.7650 H   0  0  0  0  0  0  0  0  0  0  0  0
  1  2  1  0
  2  3  2  0
  3  4  1  0
  4  5  1  0
  5  6  1  0
  6  7  2  0
  7  8  1  0
  8  9  1  0
  9 10  2  3
  9 11  1  0
 11 12  1  0
  4 13  2  0
 13 14  1  0
 14 15  2  0
 15 16  1  0
 16 17  1  0
 17 18  1  0
 18 19  1  0
 19 20  2  0
 20 21  1  0
 21 22  2  0
 22 23  1  0
 23 24  2  0
 14 25  1  0
 25  2  1  0
 11  5  2  0
 24 16  1  0
 24 19  1  0
  1 26  1  0
  1 27  1  0
  1 28  1  0
  6 29  1  0
  7 30  1  0
  8 31  1  0
 10 32  1  0
 12 33  1  0
 12 34  1  0
 12 35  1  0
 13 36  1  0
 16 37  1  6
 17 38  1  0
 17 39  1  0
 18 40  1  0
 18 41  1  0
 20 42  1  0
 21 43  1  0
 22 44  1  0
 23 45  1  0
 25 46  1  0
M  END
>  <smiles>  (49) 
Cc1nc(-c2cc[nH]c(=N)c2C)cc(=NC2CCc3ccccc32)[nH]1

>  <score_type>  (49) 
oracle

>  <origin>  (49) 
adg

>  <m_score__min__energy>  (49) 
-8.4299999999999997

>  <m_primary>  (49) 
energy

$$$$
49:0
     RDKit          3D

 38 40  0  0  0  0  0  0  0  0999 V2000
   55.5330   26.7090   45.9900 O   0  0  0  0  0  0  0  0  0  0  0  0
   56.6580   27.0590   45.5390 C   0  0  0  0  0  0  0  0  0  0  0  0
   57.6260   26.0580   45.1840 N   0  0  0  0  0  0  0  0  0  0  0  0
   57.2910   24.6680   45.0670 C   0  0  0  0  0  0  0  0  0  0  0  0
   57.0340   24.1350   43.7960 C   0  0  0  0  0  0  0  0  0  0  0  0
   56.7050   22.7840   43.6500 C   0  0  0  0  0  0  0  0  0  0  0  0
   56.6150   21.9610   44.7740 C   0  0  0  0  0  0  0  0  0  0  0  0
   56.8420   22.4880   46.0470 C   0  0  0  0  0  0  0  0  0  0  0  0
   57.1730   23.8400   46.2040 C   0  0  0  0  0  0  0  0  0  0  0  0
   57.3480   24.4770   47.8350 Cl  0  0  0  0  0  0  0  0  0  0  0  0
   56.9800   28.5010   45.4090 C   0  0  0  0  0  0  0  0  0  0  0  0
   56.0410   29.3990   44.8830 C   0  0  0  0  0  0  0  0  0  0  0  0
   54.7790   28.9680   44.4900 O   0  0  0  0  0  0  0  0  0  0  0  0
   56.3510   30.7120   44.7700 N   0  0  0  0  0  0  0  0  0  0  0  0
   57.5600   31.1960   45.1470 C   0  0  0  0  0  0  0  0  0  0  0  0
   57.7800   32.4300   45.0280 O   0  0  0  0  0  0  0  0  0  0  0  0
   58.5190   30.3510   45.6520 N   0  0  0  0  0  0  0  0  0  0  0  0
   59.8530   30.8650   46.0320 C   0  0  0  0  0  0  0  0  0  0  0  0
   59.7290   32.0510   46.9600 C   0  0  0  0  0  0  0  0  0  0  0  0
   60.1290   33.3280   46.5290 C   0  0  0  0  0  0  0  0  0  0  0  0
   59.9950   34.4340   47.3730 C   0  0  0  0  0  0  0  0  0  0  0  0
   59.4620   34.2770   48.6540 C   0  0  0  0  0  0  0  0  0  0  0  0
   59.0650   33.0120   49.0940 C   0  0  0  0  0  0  0  0  0  0  0  0
   59.1950   31.9010   48.2550 C   0  0  0  0  0  0  0  0  0  0  0  0
   58.8120   30.6830   48.7100 F   0  0  0  0  0  0  0  0  0  0  0  0
   58.2380   29.0130   45.7880 C   0  0  0  0  0  0  0  0  0  0  0  0
   59.1170   28.2260   46.2380 O   0  0  0  0  0  0  0  0  0  0  0  0
   58.6370   26.3200   45.2140 H   0  0  0  0  0  0  0  0  0  0  0  0
   57.0915   24.7831   42.9091 H   0  0  0  0  0  0  0  0  0  0  0  0
   56.5169   22.3693   42.6487 H   0  0  0  0  0  0  0  0  0  0  0  0
   56.3650   20.8962   44.6567 H   0  0  0  0  0  0  0  0  0  0  0  0
   56.7605   21.8383   46.9309 H   0  0  0  0  0  0  0  0  0  0  0  0
   60.4151   30.0674   46.5399 H   0  0  0  0  0  0  0  0  0  0  0  0
   60.3792   31.1851   45.1206 H   0  0  0  0  0  0  0  0  0  0  0  0
   60.5501   33.4576   45.5211 H   0  0  0  0  0  0  0  0  0  0  0  0
   60.3099   35.4297   47.0275 H   0  0  0  0  0  0  0  0  0  0  0  0
   59.3548   35.1488   49.3162 H   0  0  0  0  0  0  0  0  0  0  0  0
   58.6484   32.8894   50.1047 H   0  0  0  0  0  0  0  0  0  0  0  0
  1  2  2  0
  2  3  1  0
  3  4  1  0
  4  5  2  0
  5  6  1  0
  6  7  2  0
  7  8  1  0
  8  9  2  0
  9 10  1  0
  2 11  1  0
 11 12  2  0
 12 13  1  0
 12 14  1  0
 14 15  1  0
 15 16  2  0
 15 17  1  0
 17 18  1  0
 18 19  1  0
 19 20  2  0
 20 21  1  0
 21 22  2  0
 22 23  1  0
 23 24  2  0
 24 25  1  0
 17 26  1  0
 26 27  2  0
  9  4  1  0
 26 11  1  0
 24 19  1  0
  3 28  1  0
  5 29  1  0
  6 30  1  0
  7 31  1  0
  8 32  1  0
 18 33  1  0
 18 34  1  0
 20 35  1  0
 21 36  1  0
 22 37  1  0
 23 38  1  0
M  CHG  2  13  -1  14  -1
M  END
>  <UniqueID>  (50) 
49

>  <SMILES>  (50) 
O=C(Nc1ccccc1Cl)c1c([O-])[n-]c(=O)n(Cc2ccccc2F)c1=O

>  <Energy>  (50) 
57.31916374468132

>  <Genealogy>  (50) 
O=C(Nc1ccccc1Cl)c1c([O-])[n-]c(=O)n(Cc2ccccc2F)c1=O (protonated)
O=C(Nc1ccccc1Cl)c1c([O-])[n-]c(=O)n(Cc2ccccc2F)c1=O (3D coordinates assigned)
O=C(Nc1ccccc1Cl)c1c([O-])[n-]c(=O)n(Cc2ccccc2F)c1=O (optimized conformer: 57.31916374468132 kcal/mol)

>  <smiles>  (50) 
O=C(Nc1ccccc1Cl)c1c(O)[nH]c(=O)n(Cc2ccccc2F)c1=O

>  <score_type>  (50) 
oracle

>  <origin>  (50) 
adg

>  <m_score__min__energy>  (50) 
-12.710000000000001

>  <m_primary>  (50) 
energy

$$$$
50:0
     RDKit          3D

 54 58  0  0  0  0  0  0  0  0999 V2000
   55.7620   31.2150   51.3640 N   0  0  0  0  0  0  0  0  0  0  0  0
   56.6880   30.5540   52.2330 C   0  0  0  0  0  0  0  0  0  0  0  0
   56.2850   29.5850   52.9310 O   0  0  0  0  0  0  0  0  0  0  0  0
   58.1050   30.9720   52.3160 C   0  0  0  0  0  0  0  0  0  0  0  0
   58.8570   30.7220   53.4860 C   0  0  0  0  0  0  0  0  0  0  0  0
   60.2040   31.1330   53.5780 C   0  0  0  0  0  0  0  0  0  0  0  0
   60.8150   31.8190   52.5160 C   0  0  0  0  0  0  0  0  0  0  0  0
   60.0510   32.0690   51.3840 C   0  0  0  0  0  0  0  0  0  0  0  0
   60.4160   32.7460   50.2860 N   0  0  0  0  0  0  0  0  0  0  0  0
   59.2870   32.7220   49.5290 C   0  0  0  0  0  0  0  0  0  0  0  0
   59.2000   33.3490   48.1940 C   0  0  0  0  0  0  0  0  0  0  0  0
   59.7420   34.6260   47.9720 C   0  0  0  0  0  0  0  0  0  0  0  0
   59.6600   35.2190   46.7100 C   0  0  0  0  0  0  0  0  0  0  0  0
   59.0580   34.5360   45.6500 C   0  0  0  0  0  0  0  0  0  0  0  0
   58.5240   33.2500   45.8430 C   0  0  0  0  0  0  0  0  0  0  0  0
   57.9410   32.4970   44.7010 C   0  0  0  0  0  0  0  0  0  0  0  0
   58.2890   32.8170   43.3770 C   0  0  0  0  0  0  0  0  0  0  0  0
   57.7720   32.0780   42.3120 C   0  0  0  0  0  0  0  0  0  0  0  0
   56.9030   31.0110   42.5510 C   0  0  0  0  0  0  0  0  0  0  0  0
   56.5310   30.6800   43.8630 C   0  0  0  0  0  0  0  0  0  0  0  0
   55.6110   29.5520   44.1240 C   0  0  0  0  0  0  0  0  0  0  0  0
   54.6070   29.3650   43.3830 O   0  0  0  0  0  0  0  0  0  0  0  0
   55.8560   28.6750   45.2290 N   0  0  0  0  0  0  0  0  0  0  0  0
   57.0040   27.7800   45.3080 C   0  0  0  0  0  0  0  0  0  0  0  0
   58.1980   28.4850   45.9030 C   0  0  0  0  0  0  0  0  0  0  0  0
   58.2390   28.8440   47.2660 C   0  0  0  0  0  0  0  0  0  0  0  0
   59.3620   29.4910   47.7950 C   0  0  0  0  0  0  0  0  0  0  0  0
   60.4420   29.8050   46.9660 C   0  0  0  0  0  0  0  0  0  0  0  0
   61.5310   30.4250   47.4780 F   0  0  0  0  0  0  0  0  0  0  0  0
   60.3930   29.4930   45.6060 C   0  0  0  0  0  0  0  0  0  0  0  0
   59.2730   28.8400   45.0720 C   0  0  0  0  0  0  0  0  0  0  0  0
   57.0550   31.4280   44.9310 C   0  0  0  0  0  0  0  0  0  0  0  0
   58.5850   32.6710   47.1270 C   0  0  0  0  0  0  0  0  0  0  0  0
   58.2450   32.0680   50.1060 N   0  0  0  0  0  0  0  0  0  0  0  0
   58.7530   31.6590   51.2780 C   0  0  0  0  0  0  0  0  0  0  0  0
   56.0830   31.8890   50.6340 H   0  0  0  0  0  0  0  0  0  0  0  0
   54.7520   30.9480   51.3780 H   0  0  0  0  0  0  0  0  0  0  0  0
   58.3876   30.2016   54.3339 H   0  0  0  0  0  0  0  0  0  0  0  0
   60.7800   30.9141   54.4892 H   0  0  0  0  0  0  0  0  0  0  0  0
   61.8631   32.1471   52.5788 H   0  0  0  0  0  0  0  0  0  0  0  0
   60.2339   35.1621   48.7970 H   0  0  0  0  0  0  0  0  0  0  0  0
   60.0706   36.2269   46.5501 H   0  0  0  0  0  0  0  0  0  0  0  0
   59.0016   35.0078   44.6579 H   0  0  0  0  0  0  0  0  0  0  0  0
   58.9732   33.6553   43.1792 H   0  0  0  0  0  0  0  0  0  0  0  0
   58.0501   32.3370   41.2797 H   0  0  0  0  0  0  0  0  0  0  0  0
   56.5082   30.4271   41.7065 H   0  0  0  0  0  0  0  0  0  0  0  0
   56.7447   26.9168   45.9385 H   0  0  0  0  0  0  0  0  0  0  0  0
   57.2623   27.4499   44.2910 H   0  0  0  0  0  0  0  0  0  0  0  0
   57.3831   28.6142   47.9177 H   0  0  0  0  0  0  0  0  0  0  0  0
   59.3942   29.7521   48.8631 H   0  0  0  0  0  0  0  0  0  0  0  0
   61.2357   29.7603   44.9514 H   0  0  0  0  0  0  0  0  0  0  0  0
   59.2362   28.6049   43.9981 H   0  0  0  0  0  0  0  0  0  0  0  0
   56.7684   31.1742   45.9622 H   0  0  0  0  0  0  0  0  0  0  0  0
   58.1460   31.6766   47.2960 H   0  0  0  0  0  0  0  0  0  0  0  0
  1  2  1  0
  2  3  2  0
  2  4  1  0
  4  5  2  0
  5  6  1  0
  6  7  2  0
  7  8  1  0
  8  9  1  0
  9 10  1  0
 10 11  1  0
 11 12  2  0
 12 13  1  0
 13 14  2  0
 14 15  1  0
 15 16  1  0
 16 17  2  0
 17 18  1  0
 18 19  2  0
 19 20  1  0
 20 21  1  0
 21 22  2  0
 21 23  1  0
 23 24  1  0
 24 25  1  0
 25 26  2  0
 26 27  1  0
 27 28  2  0
 28 29  1  0
 28 30  1  0
 30 31  2  0
 20 32  2  0
 15 33  2  0
 10 34  2  0
 34 35  1  0
 35  4  1  0
 35  8  2  0
 33 11  1  0
 32 16  1  0
 31 25  1  0
  1 36  1  0
  1 37  1  0
  5 38  1  0
  6 39  1  0
  7 40  1  0
 12 41  1  0
 13 42  1  0
 14 43  1  0
 17 44  1  0
 18 45  1  0
 19 46  1  0
 24 47  1  0
 24 48  1  0
 26 49  1  0
 27 50  1  0
 30 51  1  0
 31 52  1  0
 32 53  1  0
 33 54  1  0
M  CHG  2   9  -1  23  -1
M  END
>  <UniqueID>  (51) 
50

>  <SMILES>  (51) 
NC(=O)c1cccc2[n-]c(-c3cccc(-c4cccc(C(=O)[N-]Cc5ccc(F)cc5)c4)c3)nc12

>  <Energy>  (51) 
103.97004489325958

>  <Genealogy>  (51) 
NC(=O)c1cccc2[n-]c(-c3cccc(-c4cccc(C(=O)[N-]Cc5ccc(F)cc5)c4)c3)nc12 (protonated)
NC(=O)c1cccc2[n-]c(-c3cccc(-c4cccc(C(=O)[N-]Cc5ccc(F)cc5)c4)c3)nc12 (3D coordinates assigned)
NC(=O)c1cccc2[n-]c(-c3cccc(-c4cccc(C(=O)[N-]Cc5ccc(F)cc5)c4)c3)nc12 (optimized conformer: 103.97004489325958 kcal/mol)

>  <smiles>  (51) 
NC(=O)c1cccc2[nH]c(-c3cccc(-c4cccc(C(=O)NCc5ccc(F)cc5)c4)c3)nc12

>  <score_type>  (51) 
oracle

>  <origin>  (51) 
adg

>  <m_score__min__energy>  (51) 
-13.130000000000001

>  <m_primary>  (51) 
energy

$$$$
51:0
     RDKit          3D

 57 61  0  0  0  0  0  0  0  0999 V2000
   58.1410   30.5050   49.9880 O   0  0  0  0  0  0  0  0  0  0  0  0
   59.1560   30.8510   49.3220 C   0  0  0  0  0  0  0  0  0  0  0  0
   60.3070   29.8970   49.1090 C   0  0  0  0  0  0  0  0  0  0  0  0
   59.9790   28.6170   48.3540 C   0  0  0  0  0  0  0  0  0  0  0  0
   60.7630   29.7260   47.6680 C   0  0  0  0  0  0  0  0  0  0  0  0
   59.2410   32.1930   48.8200 N   0  0  0  0  0  0  0  0  0  0  0  0
   60.0170   33.1530   49.6200 C   0  0  0  0  0  0  0  0  0  0  0  0
   59.7340   34.5940   49.1900 C   0  0  0  0  0  0  0  0  0  0  0  0
   59.8420   34.7160   47.7750 O   0  0  0  0  0  0  0  0  0  0  0  0
   59.2680   33.7660   46.9300 C   0  0  0  0  0  0  0  0  0  0  0  0
   59.0500   34.0680   45.5840 C   0  0  0  0  0  0  0  0  0  0  0  0
   58.4180   33.1420   44.7520 C   0  0  0  0  0  0  0  0  0  0  0  0
   57.9870   31.9100   45.2650 C   0  0  0  0  0  0  0  0  0  0  0  0
   57.1830   30.7410   44.2140 S   0  0  0  0  0  0  0  0  0  0  0  0
   55.8440   30.3890   44.8000 O   0  0  0  0  0  0  0  0  0  0  0  0
   56.9520   31.3630   42.8650 O   0  0  0  0  0  0  0  0  0  0  0  0
   58.1440   29.2940   44.0140 N   0  0  0  0  0  0  0  0  0  0  0  0
   58.7070   28.8340   45.3080 C   0  0  0  0  0  0  0  0  0  0  0  0
   57.9920   27.6020   45.8780 C   0  0  0  0  0  0  0  0  0  0  0  0
   57.9750   26.5280   44.8810 N   0  0  0  0  0  0  0  0  0  0  0  0
   57.7600   25.1730   45.3020 C   0  0  0  0  0  0  0  0  0  0  0  0
   58.8460   24.2830   45.3080 C   0  0  0  0  0  0  0  0  0  0  0  0
   58.6610   22.9390   45.6310 C   0  0  0  0  0  0  0  0  0  0  0  0
   57.3870   22.4660   45.9490 C   0  0  0  0  0  0  0  0  0  0  0  0
   56.2980   23.3400   45.9540 C   0  0  0  0  0  0  0  0  0  0  0  0
   56.4680   24.7020   45.6440 C   0  0  0  0  0  0  0  0  0  0  0  0
   55.3370   25.5920   45.7050 N   0  0  0  0  0  0  0  0  0  0  0  0
   54.1760   25.1430   45.6180 O   0  0  0  0  0  0  0  0  0  0  0  0
   55.5090   26.9270   45.9940 O   0  0  0  0  0  0  0  0  0  0  0  0
   57.9620   26.8670   43.4540 C   0  0  0  0  0  0  0  0  0  0  0  0
   57.3850   28.2710   43.2600 C   0  0  0  0  0  0  0  0  0  0  0  0
   58.2160   31.6050   46.6150 C   0  0  0  0  0  0  0  0  0  0  0  0
   58.9050   32.5090   47.4460 C   0  0  0  0  0  0  0  0  0  0  0  0
   60.8031   30.1325   50.0621 H   0  0  0  0  0  0  0  0  0  0  0  0
   60.4796   27.6754   48.6240 H   0  0  0  0  0  0  0  0  0  0  0  0
   59.0568   28.0617   48.1279 H   0  0  0  0  0  0  0  0  0  0  0  0
   61.8304   29.5861   47.4419 H   0  0  0  0  0  0  0  0  0  0  0  0
   60.6422   30.3045   46.7402 H   0  0  0  0  0  0  0  0  0  0  0  0
   59.7475   33.0362   50.6801 H   0  0  0  0  0  0  0  0  0  0  0  0
   61.0867   32.9487   49.4649 H   0  0  0  0  0  0  0  0  0  0  0  0
   58.7168   34.8730   49.5020 H   0  0  0  0  0  0  0  0  0  0  0  0
   60.4690   35.2608   49.6646 H   0  0  0  0  0  0  0  0  0  0  0  0
   59.3768   35.0370   45.1787 H   0  0  0  0  0  0  0  0  0  0  0  0
   58.2575   33.3796   43.6900 H   0  0  0  0  0  0  0  0  0  0  0  0
   59.7676   28.5837   45.1579 H   0  0  0  0  0  0  0  0  0  0  0  0
   58.5721   29.6521   46.0309 H   0  0  0  0  0  0  0  0  0  0  0  0
   58.5227   27.2562   46.7773 H   0  0  0  0  0  0  0  0  0  0  0  0
   56.9574   27.8717   46.1367 H   0  0  0  0  0  0  0  0  0  0  0  0
   59.8521   24.6493   45.0556 H   0  0  0  0  0  0  0  0  0  0  0  0
   59.5196   22.2514   45.6351 H   0  0  0  0  0  0  0  0  0  0  0  0
   57.2407   21.4041   46.1958 H   0  0  0  0  0  0  0  0  0  0  0  0
   55.2963   22.9597   46.2030 H   0  0  0  0  0  0  0  0  0  0  0  0
   58.9894   26.8371   43.0622 H   0  0  0  0  0  0  0  0  0  0  0  0
   57.3379   26.1400   42.9136 H   0  0  0  0  0  0  0  0  0  0  0  0
   57.4170   28.5229   42.1897 H   0  0  0  0  0  0  0  0  0  0  0  0
   56.3522   28.2681   43.6386 H   0  0  0  0  0  0  0  0  0  0  0  0
   57.8543   30.6517   47.0278 H   0  0  0  0  0  0  0  0  0  0  0  0
  1  2  2  0
  2  3  1  0
  3  4  1  0
  4  5  1  0
  2  6  1  0
  6  7  1  0
  7  8  1  0
  8  9  1  0
  9 10  1  0
 10 11  2  0
 11 12  1  0
 12 13  2  0
 13 14  1  0
 14 15  2  0
 14 16  2  0
 14 17  1  0
 17 18  1  0
 18 19  1  0
 19 20  1  0
 20 21  1  0
 21 22  2  0
 22 23  1  0
 23 24  2  0
 24 25  1  0
 25 26  2  0
 26 27  1  0
 27 28  2  0
 27 29  1  0
 20 30  1  0
 30 31  1  0
 13 32  1  0
 32 33  2  0
  5  3  1  0
 33  6  1  0
 33 10  1  0
 31 17  1  0
 26 21  1  0
  3 34  1  0
  4 35  1  0
  4 36  1  0
  5 37  1  0
  5 38  1  0
  7 39  1  0
  7 40  1  0
  8 41  1  0
  8 42  1  0
 11 43  1  0
 12 44  1  0
 18 45  1  0
 18 46  1  0
 19 47  1  0
 19 48  1  0
 22 49  1  0
 23 50  1  0
 24 51  1  0
 25 52  1  0
 30 53  1  0
 30 54  1  0
 31 55  1  0
 31 56  1  0
 32 57  1  0
M  CHG  2  27   1  29  -1
M  END
>  <UniqueID>  (52) 
51

>  <SMILES>  (52) 
O=C(C1CC1)N1CCOc2ccc(S(=O)(=O)N3CCN(c4ccccc4[N+](=O)[O-])CC3)cc21

>  <Energy>  (52) 
344.26432853188203

>  <Genealogy>  (52) 
O=C(C1CC1)N1CCOc2ccc(S(=O)(=O)N3CCN(c4ccccc4[N+](=O)[O-])CC3)cc21 (3D coordinates assigned)
O=C(C1CC1)N1CCOc2ccc(S(=O)(=O)N3CCN(c4ccccc4[N+](=O)[O-])CC3)cc21 (nonaromatic ring conformer: 344.26432853188203 kcal/mol)

>  <smiles>  (52) 
O=C(C1CC1)N1CCOc2ccc(S(=O)(=O)N3CCN(c4ccccc4[N+](=O)[O-])CC3)cc21

>  <score_type>  (52) 
oracle

>  <origin>  (52) 
adg

>  <m_score__min__energy>  (52) 
-9.9499999999999993

>  <m_primary>  (52) 
energy

$$$$
52:0
     RDKit          3D

 52 55  0  0  0  0  0  0  0  0999 V2000
   58.2040   22.4710   44.4780 C   0  0  0  0  0  0  0  0  0  0  0  0
   57.9510   23.4910   45.5470 C   0  0  0  0  0  0  0  0  0  0  0  0
   58.1420   23.1610   46.7510 O   0  0  0  0  0  0  0  0  0  0  0  0
   57.5010   24.8280   45.2320 N   0  0  0  0  0  0  0  0  0  0  0  0
   57.4800   25.3260   43.8480 C   0  0  0  0  0  0  0  0  0  0  0  0
   57.8510   26.8140   43.8070 C   0  0  0  0  0  0  0  0  0  0  0  0
   57.1010   27.5950   44.8020 N   0  0  0  0  0  0  0  0  0  0  0  0
   57.1130   29.0370   44.7520 C   0  0  0  0  0  0  0  0  0  0  0  0
   56.1430   29.6860   45.2320 O   0  0  0  0  0  0  0  0  0  0  0  0
   58.3020   29.7850   44.2010 C   0  0  0  0  0  0  0  0  0  0  0  0
   58.8210   30.7680   45.1790 N   0  0  0  0  0  0  0  0  0  0  0  0
   59.4860   30.3570   46.3160 C   0  0  0  0  0  0  0  0  0  0  0  0
   59.7310   28.9270   46.5980 C   0  0  0  0  0  0  0  0  0  0  0  0
   60.5490   28.1710   45.7450 C   0  0  0  0  0  0  0  0  0  0  0  0
   60.7780   26.8180   46.0140 C   0  0  0  0  0  0  0  0  0  0  0  0
   60.1930   26.2160   47.1320 C   0  0  0  0  0  0  0  0  0  0  0  0
   59.3890   26.9710   47.9920 C   0  0  0  0  0  0  0  0  0  0  0  0
   59.1600   28.3250   47.7290 C   0  0  0  0  0  0  0  0  0  0  0  0
   59.9220   31.2730   47.2270 N   0  0  0  0  0  0  0  0  0  0  0  0
   59.7180   32.6050   47.0490 C   0  0  0  0  0  0  0  0  0  0  0  0
   60.1800   33.5310   48.0000 C   0  0  0  0  0  0  0  0  0  0  0  0
   59.9610   34.8990   47.8130 C   0  0  0  0  0  0  0  0  0  0  0  0
   59.2800   35.3530   46.6810 C   0  0  0  0  0  0  0  0  0  0  0  0
   58.8130   34.4400   45.7310 C   0  0  0  0  0  0  0  0  0  0  0  0
   59.0300   33.0580   45.9080 C   0  0  0  0  0  0  0  0  0  0  0  0
   58.5750   32.1070   44.9810 C   0  0  0  0  0  0  0  0  0  0  0  0
   57.9310   32.4890   43.9620 O   0  0  0  0  0  0  0  0  0  0  0  0
   56.2440   26.9070   45.7780 C   0  0  0  0  0  0  0  0  0  0  0  0
   56.9540   25.6600   46.3170 C   0  0  0  0  0  0  0  0  0  0  0  0
   58.4439   21.5037   44.9436 H   0  0  0  0  0  0  0  0  0  0  0  0
   57.3051   22.3642   43.8530 H   0  0  0  0  0  0  0  0  0  0  0  0
   59.0486   22.7966   43.8530 H   0  0  0  0  0  0  0  0  0  0  0  0
   58.2036   24.7558   43.2470 H   0  0  0  0  0  0  0  0  0  0  0  0
   56.4662   25.2006   43.4400 H   0  0  0  0  0  0  0  0  0  0  0  0
   58.9269   26.9178   44.0113 H   0  0  0  0  0  0  0  0  0  0  0  0
   57.5971   27.2007   42.8090 H   0  0  0  0  0  0  0  0  0  0  0  0
   59.0979   29.0649   43.9603 H   0  0  0  0  0  0  0  0  0  0  0  0
   57.9824   30.3284   43.2996 H   0  0  0  0  0  0  0  0  0  0  0  0
   61.0102   28.6425   44.8647 H   0  0  0  0  0  0  0  0  0  0  0  0
   61.4197   26.2262   45.3447 H   0  0  0  0  0  0  0  0  0  0  0  0
   60.3650   25.1487   47.3352 H   0  0  0  0  0  0  0  0  0  0  0  0
   58.9362   26.4990   48.8764 H   0  0  0  0  0  0  0  0  0  0  0  0
   58.5317   28.9185   48.4094 H   0  0  0  0  0  0  0  0  0  0  0  0
   60.4260   30.9390   48.0820 H   0  0  0  0  0  0  0  0  0  0  0  0
   60.7154   33.1784   48.8939 H   0  0  0  0  0  0  0  0  0  0  0  0
   60.3260   35.6199   48.5594 H   0  0  0  0  0  0  0  0  0  0  0  0
   59.1110   36.4304   46.5369 H   0  0  0  0  0  0  0  0  0  0  0  0
   58.2744   34.8009   44.8424 H   0  0  0  0  0  0  0  0  0  0  0  0
   56.0231   27.5889   46.6124 H   0  0  0  0  0  0  0  0  0  0  0  0
   55.3089   26.6034   45.2846 H   0  0  0  0  0  0  0  0  0  0  0  0
   57.7784   25.9758   46.9733 H   0  0  0  0  0  0  0  0  0  0  0  0
   56.2161   25.0591   46.8688 H   0  0  0  0  0  0  0  0  0  0  0  0
  1  2  1  0
  2  3  2  0
  2  4  1  0
  4  5  1  0
  5  6  1  0
  6  7  1  0
  7  8  1  0
  8  9  2  0
  8 10  1  0
 10 11  1  0
 11 12  1  0
 12 13  1  0
 13 14  2  0
 14 15  1  0
 15 16  2  0
 16 17  1  0
 17 18  2  0
 12 19  2  0
 19 20  1  0
 20 21  2  0
 21 22  1  0
 22 23  2  0
 23 24  1  0
 24 25  2  0
 25 26  1  0
 26 27  2  0
  7 28  1  0
 28 29  1  0
 29  4  1  0
 26 11  1  0
 18 13  1  0
 25 20  1  0
  1 30  1  0
  1 31  1  0
  1 32  1  0
  5 33  1  0
  5 34  1  0
  6 35  1  0
  6 36  1  0
 10 37  1  0
 10 38  1  0
 14 39  1  0
 15 40  1  0
 16 41  1  0
 17 42  1  0
 18 43  1  0
 19 44  1  0
 21 45  1  0
 22 46  1  0
 23 47  1  0
 24 48  1  0
 28 49  1  0
 28 50  1  0
 29 51  1  0
 29 52  1  0
M  CHG  1  19   1
M  END
>  <UniqueID>  (53) 
52

>  <SMILES>  (53) 
CC(=O)N1CCN(C(=O)Cn2c(-c3ccccc3)[nH+]c3ccccc3c2=O)CC1

>  <Energy>  (53) 
71.61177600323752

>  <Genealogy>  (53) 
CC(=O)N1CCN(C(=O)Cn2c(-c3ccccc3)[nH+]c3ccccc3c2=O)CC1 (protonated)
CC(=O)N1CCN(C(=O)Cn2c(-c3ccccc3)[nH+]c3ccccc3c2=O)CC1 (3D coordinates assigned)
CC(=O)N1CCN(C(=O)Cn2c(-c3ccccc3)[nH+]c3ccccc3c2=O)CC1 (nonaromatic ring conformer: 71.61177600323752 kcal/mol)

>  <smiles>  (53) 
CC(=O)N1CCN(C(=O)Cn2c(-c3ccccc3)nc3ccccc3c2=O)CC1

>  <score_type>  (53) 
oracle

>  <origin>  (53) 
adg

>  <m_score__min__energy>  (53) 
-7.1500000000000004

>  <m_primary>  (53) 
energy

$$$$
53:0
     RDKit          3D

 41 43  0  0  0  0  0  0  0  0999 V2000
   66.4530   30.9120   51.1710 C   0  0  0  0  0  0  0  0  0  0  0  0
   67.1670   32.2310   50.8960 C   0  0  0  0  0  0  0  0  0  0  0  0
   66.2860   33.3370   51.1000 O   0  0  0  0  0  0  0  0  0  0  0  0
   65.0000   33.4720   50.5500 C   0  0  0  0  0  0  0  0  0  0  0  0
   63.9550   33.8270   51.4090 C   0  0  0  0  0  0  0  0  0  0  0  0
   62.6540   33.9790   50.9260 C   0  0  0  0  0  0  0  0  0  0  0  0
   62.3720   33.7720   49.5660 C   0  0  0  0  0  0  0  0  0  0  0  0
   63.4170   33.4080   48.6890 C   0  0  0  0  0  0  0  0  0  0  0  0
   64.7250   33.2570   49.1860 C   0  0  0  0  0  0  0  0  0  0  0  0
   63.1270   33.2100   47.3710 N   0  0  0  0  0  0  0  0  0  0  0  0
   64.1180   32.8580   46.4800 O   0  0  0  0  0  0  0  0  0  0  0  0
   61.8800   33.3590   46.9240 N   0  0  0  0  0  0  0  0  0  0  0  0
   60.8550   33.6970   47.7510 C   0  0  0  0  0  0  0  0  0  0  0  0
   59.5310   33.8760   47.2190 N   0  0  0  0  0  0  0  0  0  0  0  0
   58.8450   32.8900   46.4290 C   0  0  0  0  0  0  0  0  0  0  0  0
   58.1520   33.2890   45.2770 C   0  0  0  0  0  0  0  0  0  0  0  0
   57.4600   32.3510   44.5040 C   0  0  0  0  0  0  0  0  0  0  0  0
   57.4420   31.0020   44.8820 C   0  0  0  0  0  0  0  0  0  0  0  0
   56.5580   29.8250   43.9180 S   0  0  0  0  0  0  0  0  0  0  0  0
   55.1470   29.3240   44.7790 N   0  0  0  0  0  0  0  0  0  0  0  0
   56.1560   30.4390   42.6070 O   0  0  0  0  0  0  0  0  0  0  0  0
   57.4310   28.6320   43.6450 O   0  0  0  0  0  0  0  0  0  0  0  0
   58.1060   30.6030   46.0480 C   0  0  0  0  0  0  0  0  0  0  0  0
   58.7990   31.5400   46.8210 C   0  0  0  0  0  0  0  0  0  0  0  0
   61.1060   33.9140   49.0730 N   0  0  0  0  0  0  0  0  0  0  0  0
   60.0680   34.2600   49.9130 O   0  0  0  0  0  0  0  0  0  0  0  0
   66.3704   30.7593   52.2572 H   0  0  0  0  0  0  0  0  0  0  0  0
   65.4469   30.9401   50.7271 H   0  0  0  0  0  0  0  0  0  0  0  0
   67.0266   30.0850   50.7271 H   0  0  0  0  0  0  0  0  0  0  0  0
   68.0265   32.3244   51.5761 H   0  0  0  0  0  0  0  0  0  0  0  0
   67.5045   32.2376   49.8491 H   0  0  0  0  0  0  0  0  0  0  0  0
   64.1605   33.9883   52.4775 H   0  0  0  0  0  0  0  0  0  0  0  0
   61.8448   34.2627   51.6150 H   0  0  0  0  0  0  0  0  0  0  0  0
   65.5384   32.9689   48.5038 H   0  0  0  0  0  0  0  0  0  0  0  0
   64.8170   32.1660   46.7250 H   0  0  0  0  0  0  0  0  0  0  0  0
   59.0720   34.8080   47.3350 H   0  0  0  0  0  0  0  0  0  0  0  0
   58.1527   34.3479   44.9790 H   0  0  0  0  0  0  0  0  0  0  0  0
   56.9283   32.6734   43.5966 H   0  0  0  0  0  0  0  0  0  0  0  0
   54.5860   28.7300   44.1270 H   0  0  0  0  0  0  0  0  0  0  0  0
   58.0826   29.5477   46.3576 H   0  0  0  0  0  0  0  0  0  0  0  0
   59.3108   31.2195   47.7404 H   0  0  0  0  0  0  0  0  0  0  0  0
  1  2  1  0
  2  3  1  0
  3  4  1  0
  4  5  2  0
  5  6  1  0
  6  7  2  0
  7  8  1  0
  8  9  2  0
  8 10  1  0
 10 11  1  0
 10 12  2  0
 12 13  1  0
 13 14  1  0
 14 15  1  0
 15 16  2  0
 16 17  1  0
 17 18  2  0
 18 19  1  0
 19 20  1  0
 19 21  2  0
 19 22  2  0
 18 23  1  0
 23 24  2  0
 13 25  2  0
 25 26  1  0
  9  4  1  0
 24 15  1  0
 25  7  1  0
  1 27  1  0
  1 28  1  0
  1 29  1  0
  2 30  1  0
  2 31  1  0
  5 32  1  0
  6 33  1  0
  9 34  1  0
 11 35  1  0
 14 36  1  0
 16 37  1  0
 17 38  1  0
 20 39  1  0
 23 40  1  0
 24 41  1  0
M  CHG  4  10   1  20  -1  25   1  26  -1
M  END
>  <UniqueID>  (54) 
53

>  <SMILES>  (54) 
CCOc1ccc2c(c1)[n+](O)nc(Nc1ccc(S([NH-])(=O)=O)cc1)[n+]2[O-]

>  <Energy>  (54) 
51.023977660607535

>  <Genealogy>  (54) 
CCOc1ccc2c(c1)[n+](O)nc(Nc1ccc(S([NH-])(=O)=O)cc1)[n+]2[O-] (protonated)
CCOc1ccc2c(c1)[n+](O)nc(Nc1ccc(S([NH-])(=O)=O)cc1)[n+]2[O-] (3D coordinates assigned)
CCOc1ccc2c(c1)[n+](O)nc(Nc1ccc(S([NH-])(=O)=O)cc1)[n+]2[O-] (optimized conformer: 51.023977660607535 kcal/mol)

>  <smiles>  (54) 
CCOc1ccc2c(c1)[n+]([O-])nc(Nc1ccc(S(N)(=O)=O)cc1)[n+]2[O-]

>  <score_type>  (54) 
oracle

>  <origin>  (54) 
adg

>  <m_score__min__energy>  (54) 
-9.2799999999999994

>  <m_primary>  (54) 
energy

$$$$
54:0
     RDKit          3D

 42 44  0  0  0  0  0  0  0  0999 V2000
   59.2730   33.4040   49.9070 C   0  0  0  0  0  0  0  0  0  0  0  0
   58.9100   32.7670   48.6000 C   0  0  0  0  0  0  0  0  0  0  0  0
   58.4620   31.5880   48.6100 O   0  0  0  0  0  0  0  0  0  0  0  0
   59.0200   33.5110   47.3170 C   0  0  0  0  0  0  0  0  0  0  0  0
   59.9060   34.6010   47.2170 C   0  0  0  0  0  0  0  0  0  0  0  0
   60.0040   35.3330   46.0330 C   0  0  0  0  0  0  0  0  0  0  0  0
   59.2400   34.9750   44.9240 C   0  0  0  0  0  0  0  0  0  0  0  0
   58.3760   33.8830   44.9950 C   0  0  0  0  0  0  0  0  0  0  0  0
   58.2350   33.1570   46.1920 C   0  0  0  0  0  0  0  0  0  0  0  0
   57.4070   31.9840   46.2370 N   0  0  0  0  0  0  0  0  0  0  0  0
   57.4140   30.8810   45.3190 C   0  0  0  0  0  0  0  0  0  0  0  0
   56.5400   30.8450   44.4120 O   0  0  0  0  0  0  0  0  0  0  0  0
   58.4490   29.7900   45.3720 C   0  0  0  0  0  0  0  0  0  0  0  0
   59.1660   29.8200   46.6460 N   0  0  0  0  0  0  0  0  0  0  0  0
   59.5530   28.6260   47.3420 C   0  0  0  0  0  0  0  0  0  0  0  0
   59.1100   27.5030   46.9790 O   0  0  0  0  0  0  0  0  0  0  0  0
   60.4580   28.7120   48.5290 C   0  0  0  0  0  0  0  0  0  0  0  0
   61.1850   30.0170   48.5280 C   0  0  0  0  0  0  0  0  0  0  0  0
   61.4690   30.7000   49.6680 N   0  0  0  0  0  0  0  0  0  0  0  0
   62.1320   31.7690   49.2060 C   0  0  0  0  0  0  0  0  0  0  0  0
   62.6720   32.8220   49.9410 C   0  0  0  0  0  0  0  0  0  0  0  0
   63.3420   33.8370   49.2320 C   0  0  0  0  0  0  0  0  0  0  0  0
   63.4510   33.7730   47.8250 C   0  0  0  0  0  0  0  0  0  0  0  0
   62.8910   32.6940   47.1150 C   0  0  0  0  0  0  0  0  0  0  0  0
   62.2360   31.7090   47.8500 C   0  0  0  0  0  0  0  0  0  0  0  0
   61.6480   30.5960   47.3890 N   0  0  0  0  0  0  0  0  0  0  0  0
   58.9140   32.7740   50.7342 H   0  0  0  0  0  0  0  0  0  0  0  0
   60.3661   33.5081   49.9731 H   0  0  0  0  0  0  0  0  0  0  0  0
   58.8054   34.3975   49.9731 H   0  0  0  0  0  0  0  0  0  0  0  0
   60.5274   34.8783   48.0813 H   0  0  0  0  0  0  0  0  0  0  0  0
   60.6857   36.1943   45.9750 H   0  0  0  0  0  0  0  0  0  0  0  0
   59.3186   35.5542   43.9921 H   0  0  0  0  0  0  0  0  0  0  0  0
   57.7991   33.5862   44.1067 H   0  0  0  0  0  0  0  0  0  0  0  0
   57.9521   28.8150   45.2600 H   0  0  0  0  0  0  0  0  0  0  0  0
   59.1702   29.9464   44.5563 H   0  0  0  0  0  0  0  0  0  0  0  0
   59.5560   30.7330   46.9720 H   0  0  0  0  0  0  0  0  0  0  0  0
   59.8603   28.6294   49.4487 H   0  0  0  0  0  0  0  0  0  0  0  0
   61.1902   27.8924   48.4831 H   0  0  0  0  0  0  0  0  0  0  0  0
   62.5782   32.8591   51.0364 H   0  0  0  0  0  0  0  0  0  0  0  0
   63.7832   34.6848   49.7767 H   0  0  0  0  0  0  0  0  0  0  0  0
   63.9768   34.5713   47.2807 H   0  0  0  0  0  0  0  0  0  0  0  0
   62.9680   32.6312   46.0195 H   0  0  0  0  0  0  0  0  0  0  0  0
  1  2  1  0
  2  3  2  0
  2  4  1  0
  4  5  2  0
  5  6  1  0
  6  7  2  0
  7  8  1  0
  8  9  2  0
  9 10  1  0
 10 11  1  0
 11 12  2  0
 11 13  1  0
 13 14  1  0
 14 15  1  0
 15 16  2  0
 15 17  1  0
 17 18  1  0
 18 19  2  0
 19 20  1  0
 20 21  2  0
 21 22  1  0
 22 23  2  0
 23 24  1  0
 24 25  2  0
 25 26  1  0
  9  4  1  0
 26 18  1  0
 25 20  1  0
  1 27  1  0
  1 28  1  0
  1 29  1  0
  5 30  1  0
  6 31  1  0
  7 32  1  0
  8 33  1  0
 13 34  1  0
 13 35  1  0
 14 36  1  0
 17 37  1  0
 17 38  1  0
 21 39  1  0
 22 40  1  0
 23 41  1  0
 24 42  1  0
M  CHG  2  10  -1  26  -1
M  END
>  <UniqueID>  (55) 
54

>  <SMILES>  (55) 
CC(=O)c1ccccc1[N-]C(=O)CNC(=O)Cc1nc2ccccc2[n-]1

>  <Energy>  (55) 
75.36257352393838

>  <Genealogy>  (55) 
CC(=O)c1ccccc1[N-]C(=O)CNC(=O)Cc1nc2ccccc2[n-]1 (protonated)
CC(=O)c1ccccc1[N-]C(=O)CNC(=O)Cc1nc2ccccc2[n-]1 (3D coordinates assigned)
CC(=O)c1ccccc1[N-]C(=O)CNC(=O)Cc1nc2ccccc2[n-]1 (optimized conformer: 75.36257352393838 kcal/mol)

>  <smiles>  (55) 
CC(=O)c1ccccc1NC(=O)CNC(=O)Cc1nc2ccccc2[nH]1

>  <score_type>  (55) 
oracle

>  <origin>  (55) 
adg

>  <m_score__min__energy>  (55) 
-11.49

>  <m_primary>  (55) 
energy

$$$$
55:0
     RDKit          3D

 55 58  0  0  0  0  0  0  0  0999 V2000
   58.4600   30.5680   47.5790 C   0  0  0  0  0  0  0  0  0  0  0  0
   58.2780   30.6040   46.2490 C   0  0  0  0  0  0  0  0  0  0  0  0
   58.3550   29.5140   45.3630 C   0  0  0  0  0  0  0  0  0  0  0  0
   58.4770   28.1890   45.5810 C   0  0  0  0  0  0  0  0  0  0  0  0
   57.3820   27.2430   45.8180 C   0  0  0  0  0  0  0  0  0  0  0  0
   57.5160   26.0530   46.4290 N   0  0  0  0  0  0  0  0  0  0  0  0
   56.2420   25.6150   46.5410 C   0  0  0  0  0  0  0  0  0  0  0  0
   55.9470   24.5060   47.0570 O   0  0  0  0  0  0  0  0  0  0  0  0
   55.3090   26.4640   46.0640 N   0  0  0  0  0  0  0  0  0  0  0  0
   56.0500   27.4950   45.6240 C   0  0  0  0  0  0  0  0  0  0  0  0
   55.5150   28.6480   45.0670 O   0  0  0  0  0  0  0  0  0  0  0  0
   58.3030   30.0470   44.0910 C   0  0  0  0  0  0  0  0  0  0  0  0
   58.1470   31.4080   44.2280 C   0  0  0  0  0  0  0  0  0  0  0  0
   58.0850   32.3670   43.0800 C   0  0  0  0  0  0  0  0  0  0  0  0
   58.1290   31.7570   45.5350 N   0  0  0  0  0  0  0  0  0  0  0  0
   58.0910   33.1400   46.0380 C   0  0  0  0  0  0  0  0  0  0  0  0
   59.4340   33.5490   46.5730 C   0  0  0  0  0  0  0  0  0  0  0  0
   59.7180   34.7740   46.6570 O   0  0  0  0  0  0  0  0  0  0  0  0
   60.4080   32.5510   46.9240 N   0  0  0  0  0  0  0  0  0  0  0  0
   61.6010   32.8230   47.6930 C   0  0  0  0  0  0  0  0  0  0  0  0
   62.8730   32.6970   47.1010 C   0  0  0  0  0  0  0  0  0  0  0  0
   64.0190   33.0680   47.7980 C   0  0  0  0  0  0  0  0  0  0  0  0
   63.9120   33.6130   49.0780 C   0  0  0  0  0  0  0  0  0  0  0  0
   62.6580   33.7510   49.6810 C   0  0  0  0  0  0  0  0  0  0  0  0
   61.5030   33.3410   49.0050 C   0  0  0  0  0  0  0  0  0  0  0  0
   60.2020   33.4090   49.7040 C   0  0  0  0  0  0  0  0  0  0  0  0
   59.6650   34.5410   49.8780 O   0  0  0  0  0  0  0  0  0  0  0  0
   59.5500   32.2160   50.1910 N   0  0  0  0  0  0  0  0  0  0  0  0
   60.3040   30.9670   50.3530 C   0  0  0  0  0  0  0  0  0  0  0  0
   59.6360   30.0850   51.4090 C   0  0  0  0  0  0  0  0  0  0  0  0
   58.2660   29.9010   51.1050 O   0  0  0  0  0  0  0  0  0  0  0  0
   57.5880   31.1380   51.2280 C   0  0  0  0  0  0  0  0  0  0  0  0
   58.0820   32.1380   50.1780 C   0  0  0  0  0  0  0  0  0  0  0  0
   58.3739   31.4910   48.1711 H   0  0  0  0  0  0  0  0  0  0  0  0
   58.6952   29.6155   48.0764 H   0  0  0  0  0  0  0  0  0  0  0  0
   59.4972   27.7777   45.5811 H   0  0  0  0  0  0  0  0  0  0  0  0
   58.3730   29.4892   43.1455 H   0  0  0  0  0  0  0  0  0  0  0  0
   58.0185   33.3954   43.4645 H   0  0  0  0  0  0  0  0  0  0  0  0
   58.9917   32.2630   42.4660 H   0  0  0  0  0  0  0  0  0  0  0  0
   57.1992   32.1471   42.4660 H   0  0  0  0  0  0  0  0  0  0  0  0
   57.8090   33.8151   45.2166 H   0  0  0  0  0  0  0  0  0  0  0  0
   57.3536   33.1995   46.8521 H   0  0  0  0  0  0  0  0  0  0  0  0
   60.2730   31.5910   46.5360 H   0  0  0  0  0  0  0  0  0  0  0  0
   62.9613   32.3017   46.0783 H   0  0  0  0  0  0  0  0  0  0  0  0
   65.0096   32.9315   47.3396 H   0  0  0  0  0  0  0  0  0  0  0  0
   64.8168   33.9350   49.6143 H   0  0  0  0  0  0  0  0  0  0  0  0
   62.5790   34.1830   50.6895 H   0  0  0  0  0  0  0  0  0  0  0  0
   60.3296   30.4300   49.3933 H   0  0  0  0  0  0  0  0  0  0  0  0
   61.3286   31.2034   50.6761 H   0  0  0  0  0  0  0  0  0  0  0  0
   60.1365   29.1058   51.4324 H   0  0  0  0  0  0  0  0  0  0  0  0
   59.7205   30.5769   52.3893 H   0  0  0  0  0  0  0  0  0  0  0  0
   56.5094   30.9730   51.0890 H   0  0  0  0  0  0  0  0  0  0  0  0
   57.7875   31.5506   52.2280 H   0  0  0  0  0  0  0  0  0  0  0  0
   57.7457   31.8131   49.1824 H   0  0  0  0  0  0  0  0  0  0  0  0
   57.6711   33.1312   50.4119 H   0  0  0  0  0  0  0  0  0  0  0  0
  1  2  2  0
  2  3  1  0
  3  4  2  3
  4  5  1  0
  5  6  1  0
  6  7  1  0
  7  8  2  0
  7  9  1  0
  9 10  1  0
 10 11  1  0
  3 12  1  0
 12 13  2  0
 13 14  1  0
 13 15  1  0
 15 16  1  0
 16 17  1  0
 17 18  2  0
 17 19  1  0
 19 20  1  0
 20 21  2  0
 21 22  1  0
 22 23  2  0
 23 24  1  0
 24 25  2  0
 25 26  1  0
 26 27  2  0
 26 28  1  0
 28 29  1  0
 29 30  1  0
 30 31  1  0
 31 32  1  0
 32 33  1  0
 15  2  1  0
 25 20  1  0
 33 28  1  0
 10  5  2  0
  1 34  1  0
  1 35  1  0
  4 36  1  0
 12 37  1  0
 14 38  1  0
 14 39  1  0
 14 40  1  0
 16 41  1  0
 16 42  1  0
 19 43  1  0
 21 44  1  0
 22 45  1  0
 23 46  1  0
 24 47  1  0
 29 48  1  0
 29 49  1  0
 30 50  1  0
 30 51  1  0
 32 52  1  0
 32 53  1  0
 33 54  1  0
 33 55  1  0
M  CHG  3   6  -1   9  -1  11  -1
M  END
>  <UniqueID>  (56) 
55

>  <SMILES>  (56) 
C=c1c(=Cc2[n-]c(=O)[n-]c2[O-])cc(C)n1CC(=O)Nc1ccccc1C(=O)N1CCOCC1

>  <Energy>  (56) 
133.75854051876348

>  <Genealogy>  (56) 
C=c1c(=Cc2[n-]c(=O)[n-]c2[O-])cc(C)n1CC(=O)Nc1ccccc1C(=O)N1CCOCC1 (protonated)
C=c1c(=Cc2[n-]c(=O)[n-]c2[O-])cc(C)n1CC(=O)Nc1ccccc1C(=O)N1CCOCC1 (3D coordinates assigned)
C=c1c(=Cc2[n-]c(=O)[n-]c2[O-])cc(C)n1CC(=O)Nc1ccccc1C(=O)N1CCOCC1 (nonaromatic ring conformer: 133.75854051876348 kcal/mol)

>  <smiles>  (56) 
C=c1c(=Cc2[nH]c(=O)[nH]c2O)cc(C)n1CC(=O)Nc1ccccc1C(=O)N1CCOCC1

>  <score_type>  (56) 
oracle

>  <origin>  (56) 
adg

>  <m_score__min__energy>  (56) 
-17.219999999999999

>  <m_primary>  (56) 
energy

$$$$
56:0
     RDKit          3D

 63 66  0  0  0  0  0  0  0  0999 V2000
   67.7250   30.4100   53.8010 C   0  0  0  0  0  0  0  0  0  0  0  0
   67.5090   31.8630   53.5000 C   0  0  0  0  0  0  0  0  0  0  0  0
   68.1370   32.7180   54.1810 O   0  0  0  0  0  0  0  0  0  0  0  0
   66.6200   32.3000   52.4480 N   0  0  0  0  0  0  0  0  0  0  0  0
   66.0730   31.3530   51.4600 C   0  0  0  0  0  0  0  0  0  0  0  0
   66.0170   32.0040   50.0730 C   0  0  0  0  0  0  0  0  0  0  0  0
   65.3070   33.3880   50.0690 C   0  0  0  0  0  0  0  0  0  0  0  0
   64.0430   33.3720   49.2270 C   0  0  0  0  0  0  0  0  0  0  0  0
   62.7870   33.2300   49.8400 C   0  0  0  0  0  0  0  0  0  0  0  0
   61.6200   33.2000   49.0710 C   0  0  0  0  0  0  0  0  0  0  0  0
   61.6880   33.3190   47.6730 C   0  0  0  0  0  0  0  0  0  0  0  0
   60.5070   33.2630   46.8560 N   0  0  0  0  0  0  0  0  0  0  0  0
   59.3460   34.0880   47.0630 C   0  0  0  0  0  0  0  0  0  0  0  0
   59.3080   34.9120   48.0150 O   0  0  0  0  0  0  0  0  0  0  0  0
   58.1990   33.9690   46.2120 N   0  0  0  0  0  0  0  0  0  0  0  0
   58.0550   33.0550   45.1190 C   0  0  0  0  0  0  0  0  0  0  0  0
   58.2110   33.4740   43.7860 C   0  0  0  0  0  0  0  0  0  0  0  0
   58.0350   32.5640   42.7400 C   0  0  0  0  0  0  0  0  0  0  0  0
   57.6840   31.2400   43.0120 C   0  0  0  0  0  0  0  0  0  0  0  0
   57.4900   30.8200   44.3360 C   0  0  0  0  0  0  0  0  0  0  0  0
   57.0160   29.1530   44.6800 S   0  0  0  0  0  0  0  0  0  0  0  0
   55.5260   29.0910   44.8640 O   0  0  0  0  0  0  0  0  0  0  0  0
   57.3780   28.2840   43.5070 O   0  0  0  0  0  0  0  0  0  0  0  0
   57.8010   28.5430   46.1190 N   0  0  0  0  0  0  0  0  0  0  0  0
   59.2020   29.0090   46.2190 C   0  0  0  0  0  0  0  0  0  0  0  0
   60.2060   27.8940   45.8770 C   0  0  0  0  0  0  0  0  0  0  0  0
   60.0800   26.7490   46.7110 O   0  0  0  0  0  0  0  0  0  0  0  0
   58.7440   26.4850   47.1240 C   0  0  0  0  0  0  0  0  0  0  0  0
   57.6720   27.0750   46.1940 C   0  0  0  0  0  0  0  0  0  0  0  0
   57.6740   31.7330   45.3840 C   0  0  0  0  0  0  0  0  0  0  0  0
   62.9420   33.4280   47.0570 C   0  0  0  0  0  0  0  0  0  0  0  0
   64.1090   33.4610   47.8250 C   0  0  0  0  0  0  0  0  0  0  0  0
   65.0010   33.9200   51.4840 C   0  0  0  0  0  0  0  0  0  0  0  0
   66.1910   33.7070   52.4250 C   0  0  0  0  0  0  0  0  0  0  0  0
   67.7472   30.2606   54.8906 H   0  0  0  0  0  0  0  0  0  0  0  0
   66.9047   29.8197   53.3666 H   0  0  0  0  0  0  0  0  0  0  0  0
   68.6815   30.0838   53.3666 H   0  0  0  0  0  0  0  0  0  0  0  0
   66.7163   30.4618   51.4168 H   0  0  0  0  0  0  0  0  0  0  0  0
   65.0546   31.0684   51.7630 H   0  0  0  0  0  0  0  0  0  0  0  0
   67.0463   32.1390   49.7093 H   0  0  0  0  0  0  0  0  0  0  0  0
   65.4312   31.3364   49.4241 H   0  0  0  0  0  0  0  0  0  0  0  0
   66.0259   34.0834   49.6112 H   0  0  0  0  0  0  0  0  0  0  0  0
   62.7213   33.1417   50.9345 H   0  0  0  0  0  0  0  0  0  0  0  0
   60.6433   33.0826   49.5632 H   0  0  0  0  0  0  0  0  0  0  0  0
   60.5260   32.6220   46.0320 H   0  0  0  0  0  0  0  0  0  0  0  0
   58.4720   34.5197   43.5660 H   0  0  0  0  0  0  0  0  0  0  0  0
   58.1734   32.8917   41.6991 H   0  0  0  0  0  0  0  0  0  0  0  0
   57.5594   30.5247   42.1857 H   0  0  0  0  0  0  0  0  0  0  0  0
   59.3487   29.8457   45.5201 H   0  0  0  0  0  0  0  0  0  0  0  0
   59.3827   29.3221   47.2579 H   0  0  0  0  0  0  0  0  0  0  0  0
   60.0435   27.5857   44.8337 H   0  0  0  0  0  0  0  0  0  0  0  0
   61.2145   28.3035   46.0356 H   0  0  0  0  0  0  0  0  0  0  0  0
   58.6040   25.3947   47.1647 H   0  0  0  0  0  0  0  0  0  0  0  0
   58.6138   26.9667   48.1043 H   0  0  0  0  0  0  0  0  0  0  0  0
   57.7931   26.6495   45.1869 H   0  0  0  0  0  0  0  0  0  0  0  0
   56.6784   26.8262   46.5951 H   0  0  0  0  0  0  0  0  0  0  0  0
   57.5179   31.4086   46.4234 H   0  0  0  0  0  0  0  0  0  0  0  0
   63.0082   33.4880   45.9606 H   0  0  0  0  0  0  0  0  0  0  0  0
   65.0863   33.5573   47.3294 H   0  0  0  0  0  0  0  0  0  0  0  0
   64.7799   34.9958   51.4229 H   0  0  0  0  0  0  0  0  0  0  0  0
   64.1373   33.3688   51.8842 H   0  0  0  0  0  0  0  0  0  0  0  0
   67.0309   34.3305   52.0847 H   0  0  0  0  0  0  0  0  0  0  0  0
   65.8792   33.9876   53.4419 H   0  0  0  0  0  0  0  0  0  0  0  0
  1  2  1  0
  2  3  2  0
  2  4  1  0
  4  5  1  0
  5  6  1  0
  6  7  1  0
  7  8  1  0
  8  9  2  0
  9 10  1  0
 10 11  2  0
 11 12  1  0
 12 13  1  0
 13 14  2  0
 13 15  1  0
 15 16  1  0
 16 17  2  0
 17 18  1  0
 18 19  2  0
 19 20  1  0
 20 21  1  0
 21 22  2  0
 21 23  2  0
 21 24  1  0
 24 25  1  0
 25 26  1  0
 26 27  1  0
 27 28  1  0
 28 29  1  0
 20 30  2  0
 11 31  1  0
 31 32  2  0
  7 33  1  0
 33 34  1  0
 34  4  1  0
 32  8  1  0
 30 16  1  0
 29 24  1  0
  1 35  1  0
  1 36  1  0
  1 37  1  0
  5 38  1  0
  5 39  1  0
  6 40  1  0
  6 41  1  0
  7 42  1  0
  9 43  1  0
 10 44  1  0
 12 45  1  0
 17 46  1  0
 18 47  1  0
 19 48  1  0
 25 49  1  0
 25 50  1  0
 26 51  1  0
 26 52  1  0
 28 53  1  0
 28 54  1  0
 29 55  1  0
 29 56  1  0
 30 57  1  0
 31 58  1  0
 32 59  1  0
 33 60  1  0
 33 61  1  0
 34 62  1  0
 34 63  1  0
M  CHG  1  15  -1
M  END
>  <UniqueID>  (57) 
56

>  <SMILES>  (57) 
CC(=O)N1CCC(c2ccc(NC(=O)[N-]c3cccc(S(=O)(=O)N4CCOCC4)c3)cc2)CC1

>  <Energy>  (57) 
87.32385830631938

>  <Genealogy>  (57) 
CC(=O)N1CCC(c2ccc(NC(=O)[N-]c3cccc(S(=O)(=O)N4CCOCC4)c3)cc2)CC1 (protonated)
CC(=O)N1CCC(c2ccc(NC(=O)[N-]c3cccc(S(=O)(=O)N4CCOCC4)c3)cc2)CC1 (3D coordinates assigned)
CC(=O)N1CCC(c2ccc(NC(=O)[N-]c3cccc(S(=O)(=O)N4CCOCC4)c3)cc2)CC1 (nonaromatic ring conformer: 87.32385830631938 kcal/mol)

>  <smiles>  (57) 
CC(=O)N1CCC(c2ccc(NC(=O)Nc3cccc(S(=O)(=O)N4CCOCC4)c3)cc2)CC1

>  <score_type>  (57) 
oracle

>  <origin>  (57) 
adg

>  <m_score__min__energy>  (57) 
-10.890000000000001

>  <m_primary>  (57) 
energy

$$$$
57:0
     RDKit          3D

 42 44  0  0  0  0  0  0  0  0999 V2000
   65.2280   33.3280   50.4730 C   0  0  0  0  0  0  0  0  0  0  0  0
   63.9870   33.3550   49.9960 C   0  0  0  0  0  0  0  0  0  0  0  0
   62.8150   33.4870   50.7920 N   0  0  0  0  0  0  0  0  0  0  0  0
   61.7170   33.4690   49.8770 C   0  0  0  0  0  0  0  0  0  0  0  0
   60.3540   33.6640   50.2990 C   0  0  0  0  0  0  0  0  0  0  0  0
   59.2580   33.8200   50.6380 N   0  0  0  0  0  0  0  0  0  0  0  0
   62.1240   33.3360   48.6090 C   0  0  0  0  0  0  0  0  0  0  0  0
   61.2870   33.3150   47.4390 N   0  0  0  0  0  0  0  0  0  0  0  0
   60.9540   34.5500   46.7210 C   0  0  0  0  0  0  0  0  0  0  0  0
   59.4660   34.5640   46.3600 C   0  0  0  0  0  0  0  0  0  0  0  0
   59.0770   33.2810   45.7620 N   0  0  0  0  0  0  0  0  0  0  0  0
   58.1060   33.2560   44.7000 C   0  0  0  0  0  0  0  0  0  0  0  0
   57.2100   34.1430   44.6520 O   0  0  0  0  0  0  0  0  0  0  0  0
   58.1310   32.1750   43.6530 C   0  0  0  0  0  0  0  0  0  0  0  0
   57.4500   30.9280   44.1510 C   0  0  0  0  0  0  0  0  0  0  0  0
   56.0510   30.8130   44.0790 C   0  0  0  0  0  0  0  0  0  0  0  0
   55.4120   29.6680   44.5670 C   0  0  0  0  0  0  0  0  0  0  0  0
   56.1640   28.6350   45.1370 C   0  0  0  0  0  0  0  0  0  0  0  0
   55.5280   27.5000   45.6210 O   0  0  0  0  0  0  0  0  0  0  0  0
   57.5550   28.7490   45.2210 C   0  0  0  0  0  0  0  0  0  0  0  0
   58.1970   29.8910   44.7350 C   0  0  0  0  0  0  0  0  0  0  0  0
   59.4060   32.0560   46.5040 C   0  0  0  0  0  0  0  0  0  0  0  0
   60.8960   32.0360   46.8360 C   0  0  0  0  0  0  0  0  0  0  0  0
   63.5820   33.2570   48.6070 C   0  0  0  0  0  0  0  0  0  0  0  0
   64.3310   33.1030   47.6070 O   0  0  0  0  0  0  0  0  0  0  0  0
   66.0796   33.2227   49.7848 H   0  0  0  0  0  0  0  0  0  0  0  0
   65.4029   33.4110   51.5558 H   0  0  0  0  0  0  0  0  0  0  0  0
   62.7660   33.6010   51.8290 H   0  0  0  0  0  0  0  0  0  0  0  0
   61.1813   35.4154   47.3609 H   0  0  0  0  0  0  0  0  0  0  0  0
   61.5490   34.6010   45.7972 H   0  0  0  0  0  0  0  0  0  0  0  0
   58.8729   34.7351   47.2705 H   0  0  0  0  0  0  0  0  0  0  0  0
   59.2805   35.3692   45.6339 H   0  0  0  0  0  0  0  0  0  0  0  0
   57.6112   32.5339   42.7525 H   0  0  0  0  0  0  0  0  0  0  0  0
   59.1791   31.9343   43.4218 H   0  0  0  0  0  0  0  0  0  0  0  0
   55.4563   31.6262   43.6373 H   0  0  0  0  0  0  0  0  0  0  0  0
   54.3174   29.5799   44.5025 H   0  0  0  0  0  0  0  0  0  0  0  0
   58.1456   27.9374   45.6709 H   0  0  0  0  0  0  0  0  0  0  0  0
   59.2910   29.9785   44.8098 H   0  0  0  0  0  0  0  0  0  0  0  0
   58.8237   32.0267   47.4368 H   0  0  0  0  0  0  0  0  0  0  0  0
   59.1602   31.1801   45.8856 H   0  0  0  0  0  0  0  0  0  0  0  0
   61.1015   31.2200   47.5445 H   0  0  0  0  0  0  0  0  0  0  0  0
   61.4722   31.8782   45.9124 H   0  0  0  0  0  0  0  0  0  0  0  0
  1  2  2  0
  2  3  1  0
  3  4  1  0
  4  5  1  0
  5  6  3  0
  4  7  2  0
  7  8  1  0
  8  9  1  0
  9 10  1  0
 10 11  1  0
 11 12  1  0
 12 13  2  0
 12 14  1  0
 14 15  1  0
 15 16  2  0
 16 17  1  0
 17 18  2  0
 18 19  1  0
 18 20  1  0
 20 21  2  0
 11 22  1  0
 22 23  1  0
  7 24  1  0
 24 25  2  0
 24  2  1  0
 23  8  1  0
 21 15  1  0
  1 26  1  0
  1 27  1  0
  3 28  1  0
  9 29  1  0
  9 30  1  0
 10 31  1  0
 10 32  1  0
 14 33  1  0
 14 34  1  0
 16 35  1  0
 17 36  1  0
 20 37  1  0
 21 38  1  0
 22 39  1  0
 22 40  1  0
 23 41  1  0
 23 42  1  0
M  CHG  1  19  -1
M  END
>  <UniqueID>  (58) 
57

>  <SMILES>  (58) 
C=C1NC(C#N)=C(N2CCN(C(=O)Cc3ccc([O-])cc3)CC2)C1=O

>  <Energy>  (58) 
72.9005562338224

>  <Genealogy>  (58) 
C=C1NC(C#N)=C(N2CCN(C(=O)Cc3ccc([O-])cc3)CC2)C1=O (protonated)
C=C1NC(C#N)=C(N2CCN(C(=O)Cc3ccc([O-])cc3)CC2)C1=O (3D coordinates assigned)
C=C1NC(C#N)=C(N2CCN(C(=O)Cc3ccc([O-])cc3)CC2)C1=O (nonaromatic ring conformer: 72.9005562338224 kcal/mol)

>  <smiles>  (58) 
C=C1NC(C#N)=C(N2CCN(C(=O)Cc3ccc(O)cc3)CC2)C1=O

>  <score_type>  (58) 
oracle

>  <origin>  (58) 
adg

>  <m_score__min__energy>  (58) 
-11.17

>  <m_primary>  (58) 
energy

$$$$
58:0
     RDKit          3D

 56 58  0  0  0  0  0  0  0  0999 V2000
   60.0500   34.3090   48.5430 C   0  0  0  0  0  0  0  0  0  0  0  0
   59.1570   34.5150   47.5710 C   0  0  0  0  0  0  0  0  0  0  0  0
   59.5780   34.9710   46.2060 C   0  0  0  0  0  0  0  0  0  0  0  0
   58.5630   34.5990   45.2280 N   0  0  0  0  0  0  0  0  0  0  0  0
   57.7710   33.4080   45.2930 C   0  0  0  0  0  0  0  0  0  0  0  0
   56.7760   33.3880   46.0680 O   0  0  0  0  0  0  0  0  0  0  0  0
   58.0480   32.2230   44.4040 C   0  0  0  0  0  0  0  0  0  0  0  0
   58.2510   30.9640   45.2060 C   0  0  0  0  0  0  0  0  0  0  0  0
   57.4830   29.7930   45.1800 C   0  0  0  0  0  0  0  0  0  0  0  0
   56.2830   29.5820   44.3380 C   0  0  0  0  0  0  0  0  0  0  0  0
   56.2730   29.9390   43.1320 O   0  0  0  0  0  0  0  0  0  0  0  0
   55.1530   28.9720   44.8660 O   0  0  0  0  0  0  0  0  0  0  0  0
   58.0020   28.8760   46.0490 N   0  0  0  0  0  0  0  0  0  0  0  0
   57.5140   27.5200   46.3260 C   0  0  0  0  0  0  0  0  0  0  0  0
   57.7690   26.6090   45.1230 C   0  0  0  0  0  0  0  0  0  0  0  0
   56.8980   25.3840   45.1940 C   0  0  0  0  0  0  0  0  0  0  0  0
   56.0350   25.1930   46.2800 C   0  0  0  0  0  0  0  0  0  0  0  0
   55.2010   24.0750   46.3300 C   0  0  0  0  0  0  0  0  0  0  0  0
   55.2090   23.1330   45.2840 C   0  0  0  0  0  0  0  0  0  0  0  0
   54.3860   21.9950   45.3010 O   0  0  0  0  0  0  0  0  0  0  0  0
   54.6030   20.8550   46.1250 C   0  0  0  0  0  0  0  0  0  0  0  0
   56.0600   23.3250   44.1850 C   0  0  0  0  0  0  0  0  0  0  0  0
   56.0410   22.3720   43.1530 O   0  0  0  0  0  0  0  0  0  0  0  0
   56.9800   21.3100   43.0170 C   0  0  0  0  0  0  0  0  0  0  0  0
   56.8990   24.4550   44.1420 C   0  0  0  0  0  0  0  0  0  0  0  0
   59.0740   29.4660   46.6210 C   0  0  0  0  0  0  0  0  0  0  0  0
   59.9320   28.9380   47.5930 C   0  0  0  0  0  0  0  0  0  0  0  0
   61.0000   29.7350   48.0400 C   0  0  0  0  0  0  0  0  0  0  0  0
   61.1970   31.0310   47.5180 C   0  0  0  0  0  0  0  0  0  0  0  0
   62.2660   31.7980   47.9740 O   0  0  0  0  0  0  0  0  0  0  0  0
   60.3160   31.5420   46.5430 C   0  0  0  0  0  0  0  0  0  0  0  0
   59.2610   30.7310   46.1210 C   0  0  0  0  0  0  0  0  0  0  0  0
   59.7149   33.9744   49.5359 H   0  0  0  0  0  0  0  0  0  0  0  0
   61.1204   34.4739   48.3505 H   0  0  0  0  0  0  0  0  0  0  0  0
   58.0896   34.3464   47.7765 H   0  0  0  0  0  0  0  0  0  0  0  0
   59.7008   36.0641   46.2076 H   0  0  0  0  0  0  0  0  0  0  0  0
   60.5320   34.4921   45.9405 H   0  0  0  0  0  0  0  0  0  0  0  0
   57.1952   32.0796   43.7241 H   0  0  0  0  0  0  0  0  0  0  0  0
   58.9706   32.4242   43.8397 H   0  0  0  0  0  0  0  0  0  0  0  0
   58.0397   27.1173   47.2043 H   0  0  0  0  0  0  0  0  0  0  0  0
   56.4323   27.5614   46.5212 H   0  0  0  0  0  0  0  0  0  0  0  0
   57.5438   27.1599   44.1979 H   0  0  0  0  0  0  0  0  0  0  0  0
   58.8235   26.2961   45.1316 H   0  0  0  0  0  0  0  0  0  0  0  0
   56.0142   25.9280   47.0981 H   0  0  0  0  0  0  0  0  0  0  0  0
   54.5334   23.9291   47.1920 H   0  0  0  0  0  0  0  0  0  0  0  0
   54.5466   21.1511   47.1829 H   0  0  0  0  0  0  0  0  0  0  0  0
   53.8327   20.0984   45.9145 H   0  0  0  0  0  0  0  0  0  0  0  0
   55.5973   20.4343   45.9145 H   0  0  0  0  0  0  0  0  0  0  0  0
   57.2874   20.9624   44.0143 H   0  0  0  0  0  0  0  0  0  0  0  0
   56.5161   20.4787   42.4658 H   0  0  0  0  0  0  0  0  0  0  0  0
   57.8618   21.6686   42.4658 H   0  0  0  0  0  0  0  0  0  0  0  0
   57.5605   24.6109   43.2770 H   0  0  0  0  0  0  0  0  0  0  0  0
   59.7746   27.9267   47.9961 H   0  0  0  0  0  0  0  0  0  0  0  0
   61.6886   29.3448   48.8039 H   0  0  0  0  0  0  0  0  0  0  0  0
   62.1200   32.6180   48.5520 H   0  0  0  0  0  0  0  0  0  0  0  0
   60.4559   32.5506   46.1269 H   0  0  0  0  0  0  0  0  0  0  0  0
  1  2  2  0
  2  3  1  0
  3  4  1  0
  4  5  1  0
  5  6  2  0
  5  7  1  0
  7  8  1  0
  8  9  2  0
  9 10  1  0
 10 11  2  0
 10 12  1  0
  9 13  1  0
 13 14  1  0
 14 15  1  0
 15 16  1  0
 16 17  2  0
 17 18  1  0
 18 19  2  0
 19 20  1  0
 20 21  1  0
 19 22  1  0
 22 23  1  0
 23 24  1  0
 22 25  2  0
 13 26  1  0
 26 27  2  0
 27 28  1  0
 28 29  2  0
 29 30  1  0
 29 31  1  0
 31 32  2  0
 32  8  1  0
 25 16  1  0
 32 26  1  0
  1 33  1  0
  1 34  1  0
  2 35  1  0
  3 36  1  0
  3 37  1  0
  7 38  1  0
  7 39  1  0
 14 40  1  0
 14 41  1  0
 15 42  1  0
 15 43  1  0
 17 44  1  0
 18 45  1  0
 21 46  1  0
 21 47  1  0
 21 48  1  0
 24 49  1  0
 24 50  1  0
 24 51  1  0
 25 52  1  0
 27 53  1  0
 28 54  1  0
 30 55  1  0
 31 56  1  0
M  CHG  2   4  -1  12  -1
M  END
>  <UniqueID>  (59) 
58

>  <SMILES>  (59) 
C=CC[N-]C(=O)Cc1c(C(=O)[O-])n(CCc2ccc(OC)c(OC)c2)c2ccc(O)cc12

>  <Energy>  (59) 
84.39053506296592

>  <Genealogy>  (59) 
C=CC[N-]C(=O)Cc1c(C(=O)[O-])n(CCc2ccc(OC)c(OC)c2)c2ccc(O)cc12 (protonated)
C=CC[N-]C(=O)Cc1c(C(=O)[O-])n(CCc2ccc(OC)c(OC)c2)c2ccc(O)cc12 (3D coordinates assigned)
C=CC[N-]C(=O)Cc1c(C(=O)[O-])n(CCc2ccc(OC)c(OC)c2)c2ccc(O)cc12 (optimized conformer: 84.39053506296592 kcal/mol)

>  <smiles>  (59) 
C=CCNC(=O)Cc1c(C(=O)O)n(CCc2ccc(OC)c(OC)c2)c2ccc(O)cc12

>  <score_type>  (59) 
oracle

>  <origin>  (59) 
adg

>  <m_score__min__energy>  (59) 
-11.91

>  <m_primary>  (59) 
energy

$$$$
59:0
     RDKit          3D

 43 46  0  0  0  0  0  0  0  0999 V2000
   53.2750   23.8980   44.8770 C   0  0  0  0  0  0  0  0  0  0  0  0
   54.3750   24.6710   45.5240 C   0  0  0  0  0  0  0  0  0  0  0  0
   55.5590   24.1510   46.0040 C   0  0  0  0  0  0  0  0  0  0  0  0
   56.2100   25.2680   46.4800 C   0  0  0  0  0  0  0  0  0  0  0  0
   57.3770   25.2530   47.0510 N   0  0  0  0  0  0  0  0  0  0  0  0
   58.6330   25.5040   46.3980 C   0  0  0  0  0  0  0  0  0  0  0  0
   59.4240   24.5390   46.2260 O   0  0  0  0  0  0  0  0  0  0  0  0
   58.9980   26.8410   45.8680 C   0  0  0  0  0  0  0  0  0  0  0  0
   60.3470   27.2330   45.8000 C   0  0  0  0  0  0  0  0  0  0  0  0
   60.6930   28.4800   45.2790 C   0  0  0  0  0  0  0  0  0  0  0  0
   59.7010   29.3470   44.8140 C   0  0  0  0  0  0  0  0  0  0  0  0
   58.3550   28.9620   44.8570 C   0  0  0  0  0  0  0  0  0  0  0  0
   57.1010   30.0380   44.2500 S   0  0  0  0  0  0  0  0  0  0  0  0
   56.9220   29.8040   42.7760 O   0  0  0  0  0  0  0  0  0  0  0  0
   55.7980   29.7780   44.9530 O   0  0  0  0  0  0  0  0  0  0  0  0
   57.5690   31.6860   44.5240 N   0  0  0  0  0  0  0  0  0  0  0  0
   57.8190   32.6480   43.4510 C   0  0  0  0  0  0  0  0  0  0  0  0
   58.5410   33.8460   44.1140 C   0  0  0  0  0  0  0  0  0  0  0  0
   58.6970   33.4140   45.5330 C   0  0  0  0  0  0  0  0  0  0  0  0
   59.3410   34.0860   46.5740 C   0  0  0  0  0  0  0  0  0  0  0  0
   59.3960   33.4700   47.8350 C   0  0  0  0  0  0  0  0  0  0  0  0
   58.8180   32.2010   48.0320 C   0  0  0  0  0  0  0  0  0  0  0  0
   58.1800   31.5420   46.9680 C   0  0  0  0  0  0  0  0  0  0  0  0
   58.1300   32.1840   45.7250 C   0  0  0  0  0  0  0  0  0  0  0  0
   58.0080   27.7110   45.3810 C   0  0  0  0  0  0  0  0  0  0  0  0
   55.4520   26.3700   46.3040 N   0  0  0  0  0  0  0  0  0  0  0  0
   54.3580   25.9710   45.7220 O   0  0  0  0  0  0  0  0  0  0  0  0
   52.6367   23.4495   45.6525 H   0  0  0  0  0  0  0  0  0  0  0  0
   52.6723   24.5722   44.2507 H   0  0  0  0  0  0  0  0  0  0  0  0
   53.7050   23.1025   44.2507 H   0  0  0  0  0  0  0  0  0  0  0  0
   55.8988   23.1048   46.0062 H   0  0  0  0  0  0  0  0  0  0  0  0
   61.1333   26.5529   46.1595 H   0  0  0  0  0  0  0  0  0  0  0  0
   61.7499   28.7815   45.2342 H   0  0  0  0  0  0  0  0  0  0  0  0
   59.9775   30.3335   44.4135 H   0  0  0  0  0  0  0  0  0  0  0  0
   58.4566   32.1987   42.6754 H   0  0  0  0  0  0  0  0  0  0  0  0
   56.8840   32.9602   42.9629 H   0  0  0  0  0  0  0  0  0  0  0  0
   59.5209   34.0227   43.6464 H   0  0  0  0  0  0  0  0  0  0  0  0
   57.9874   34.7910   44.0114 H   0  0  0  0  0  0  0  0  0  0  0  0
   59.7946   35.0746   46.4102 H   0  0  0  0  0  0  0  0  0  0  0  0
   59.8929   33.9812   48.6727 H   0  0  0  0  0  0  0  0  0  0  0  0
   58.8663   31.7243   49.0222 H   0  0  0  0  0  0  0  0  0  0  0  0
   57.7314   30.5474   47.1079 H   0  0  0  0  0  0  0  0  0  0  0  0
   56.9514   27.4066   45.4117 H   0  0  0  0  0  0  0  0  0  0  0  0
  1  2  1  0
  2  3  2  0
  3  4  1  0
  4  5  2  3
  5  6  1  0
  6  7  2  0
  6  8  1  0
  8  9  2  0
  9 10  1  0
 10 11  2  0
 11 12  1  0
 12 13  1  0
 13 14  2  0
 13 15  2  0
 13 16  1  0
 16 17  1  0
 17 18  1  0
 18 19  1  0
 19 20  2  0
 20 21  1  0
 21 22  2  0
 22 23  1  0
 23 24  2  0
 12 25  2  0
  4 26  1  0
 26 27  1  0
 27  2  1  0
 25  8  1  0
 24 16  1  0
 24 19  1  0
  1 28  1  0
  1 29  1  0
  1 30  1  0
  3 31  1  0
  9 32  1  0
 10 33  1  0
 11 34  1  0
 17 35  1  0
 17 36  1  0
 18 37  1  0
 18 38  1  0
 20 39  1  0
 21 40  1  0
 22 41  1  0
 23 42  1  0
 25 43  1  0
M  CHG  1  26  -1
M  END
>  <UniqueID>  (60) 
59

>  <SMILES>  (60) 
Cc1cc(=NC(=O)c2cccc(S(=O)(=O)N3CCc4ccccc43)c2)[n-]o1

>  <Energy>  (60) 
98.3578998058764

>  <Genealogy>  (60) 
Cc1cc(=NC(=O)c2cccc(S(=O)(=O)N3CCc4ccccc43)c2)[n-]o1 (protonated)
Cc1cc(=NC(=O)c2cccc(S(=O)(=O)N3CCc4ccccc43)c2)[n-]o1 (3D coordinates assigned)
Cc1cc(=NC(=O)c2cccc(S(=O)(=O)N3CCc4ccccc43)c2)[n-]o1 (nonaromatic ring conformer: 98.3578998058764 kcal/mol)

>  <smiles>  (60) 
Cc1cc(=NC(=O)c2cccc(S(=O)(=O)N3CCc4ccccc43)c2)[nH]o1

>  <score_type>  (60) 
oracle

>  <origin>  (60) 
adg

>  <m_score__min__energy>  (60) 
-12.57

>  <m_primary>  (60) 
energy

$$$$
60:0
     RDKit          3D

 41 43  0  0  0  0  0  0  0  0999 V2000
   60.3990   26.7320   48.8860 C   0  0  0  0  0  0  0  0  0  0  0  0
   59.3070   26.2440   48.1170 O   0  0  0  0  0  0  0  0  0  0  0  0
   59.2100   26.4420   46.7360 C   0  0  0  0  0  0  0  0  0  0  0  0
   59.8080   25.6700   45.9360 O   0  0  0  0  0  0  0  0  0  0  0  0
   58.3570   27.5340   46.2130 C   0  0  0  0  0  0  0  0  0  0  0  0
   57.1620   27.2160   45.5270 C   0  0  0  0  0  0  0  0  0  0  0  0
   56.7460   25.8230   45.2450 C   0  0  0  0  0  0  0  0  0  0  0  0
   55.7250   25.2330   46.0070 C   0  0  0  0  0  0  0  0  0  0  0  0
   55.3150   23.9220   45.7420 C   0  0  0  0  0  0  0  0  0  0  0  0
   55.9110   23.1960   44.7060 C   0  0  0  0  0  0  0  0  0  0  0  0
   55.5050   21.8930   44.4460 O   0  0  0  0  0  0  0  0  0  0  0  0
   56.9150   23.7840   43.9300 C   0  0  0  0  0  0  0  0  0  0  0  0
   57.3260   25.0950   44.1910 C   0  0  0  0  0  0  0  0  0  0  0  0
   56.3560   28.2120   45.0830 N   0  0  0  0  0  0  0  0  0  0  0  0
   56.6440   29.5260   45.2420 C   0  0  0  0  0  0  0  0  0  0  0  0
   55.8340   30.3750   44.7860 O   0  0  0  0  0  0  0  0  0  0  0  0
   57.8270   29.9190   45.9100 C   0  0  0  0  0  0  0  0  0  0  0  0
   58.1620   31.2860   46.0970 C   0  0  0  0  0  0  0  0  0  0  0  0
   57.3260   32.2890   45.5760 O   0  0  0  0  0  0  0  0  0  0  0  0
   57.7490   33.6000   45.2150 C   0  0  0  0  0  0  0  0  0  0  0  0
   59.3290   31.6190   46.8050 C   0  0  0  0  0  0  0  0  0  0  0  0
   60.1580   30.6350   47.3360 C   0  0  0  0  0  0  0  0  0  0  0  0
   61.2970   31.0430   48.0480 O   0  0  0  0  0  0  0  0  0  0  0  0
   62.3660   31.8040   47.4970 C   0  0  0  0  0  0  0  0  0  0  0  0
   59.8320   29.2830   47.1490 C   0  0  0  0  0  0  0  0  0  0  0  0
   58.6860   28.9040   46.4170 C   0  0  0  0  0  0  0  0  0  0  0  0
   60.1685   26.6290   49.9566 H   0  0  0  0  0  0  0  0  0  0  0  0
   61.3031   26.1523   48.6481 H   0  0  0  0  0  0  0  0  0  0  0  0
   60.5702   27.7922   48.6481 H   0  0  0  0  0  0  0  0  0  0  0  0
   55.2455   25.8040   46.8157 H   0  0  0  0  0  0  0  0  0  0  0  0
   54.5223   23.4613   46.3497 H   0  0  0  0  0  0  0  0  0  0  0  0
   57.3821   23.2144   43.1131 H   0  0  0  0  0  0  0  0  0  0  0  0
   58.1061   25.5586   43.5693 H   0  0  0  0  0  0  0  0  0  0  0  0
   57.9386   34.1877   46.1253 H   0  0  0  0  0  0  0  0  0  0  0  0
   58.6723   33.5367   44.6204 H   0  0  0  0  0  0  0  0  0  0  0  0
   56.9628   34.0882   44.6204 H   0  0  0  0  0  0  0  0  0  0  0  0
   59.5927   32.6781   46.9424 H   0  0  0  0  0  0  0  0  0  0  0  0
   62.9685   32.2329   48.3113 H   0  0  0  0  0  0  0  0  0  0  0  0
   62.9987   31.1520   46.8769 H   0  0  0  0  0  0  0  0  0  0  0  0
   61.9570   32.6153   46.8769 H   0  0  0  0  0  0  0  0  0  0  0  0
   60.4801   28.5057   47.5799 H   0  0  0  0  0  0  0  0  0  0  0  0
  1  2  1  0
  2  3  1  0
  3  4  2  0
  3  5  1  0
  5  6  2  0
  6  7  1  0
  7  8  2  0
  8  9  1  0
  9 10  2  0
 10 11  1  0
 10 12  1  0
 12 13  2  0
  6 14  1  0
 14 15  1  0
 15 16  2  0
 15 17  1  0
 17 18  2  0
 18 19  1  0
 19 20  1  0
 18 21  1  0
 21 22  2  0
 22 23  1  0
 23 24  1  0
 22 25  1  0
 25 26  2  0
 26  5  1  0
 13  7  1  0
 26 17  1  0
  1 27  1  0
  1 28  1  0
  1 29  1  0
  8 30  1  0
  9 31  1  0
 12 32  1  0
 13 33  1  0
 20 34  1  0
 20 35  1  0
 20 36  1  0
 21 37  1  0
 24 38  1  0
 24 39  1  0
 24 40  1  0
 25 41  1  0
M  CHG  2  11  -1  14  -1
M  END
>  <UniqueID>  (61) 
60

>  <SMILES>  (61) 
COC(=O)c1c(-c2ccc([O-])cc2)[n-]c(=O)c2c(OC)cc(OC)cc12

>  <Energy>  (61) 
62.58997323757823

>  <Genealogy>  (61) 
COC(=O)c1c(-c2ccc([O-])cc2)[n-]c(=O)c2c(OC)cc(OC)cc12 (protonated)
COC(=O)c1c(-c2ccc([O-])cc2)[n-]c(=O)c2c(OC)cc(OC)cc12 (3D coordinates assigned)
COC(=O)c1c(-c2ccc([O-])cc2)[n-]c(=O)c2c(OC)cc(OC)cc12 (optimized conformer: 62.58997323757823 kcal/mol)

>  <smiles>  (61) 
COC(=O)c1c(-c2ccc(O)cc2)[nH]c(=O)c2c(OC)cc(OC)cc12

>  <score_type>  (61) 
oracle

>  <origin>  (61) 
adg

>  <m_score__min__energy>  (61) 
-9.9499999999999993

>  <m_primary>  (61) 
energy

$$$$
61:0
     RDKit          3D

 64 67  0  0  0  0  0  0  0  0999 V2000
   60.0540   27.6600   45.7870 C   0  0  0  0  0  0  0  0  0  0  0  0
   59.0120   28.3190   45.2550 C   0  0  0  0  0  0  0  0  0  0  0  0
   57.9120   27.7330   44.6150 C   0  0  0  0  0  0  0  0  0  0  0  0
   57.6500   26.4180   44.4840 C   0  0  0  0  0  0  0  0  0  0  0  0
   57.1520   25.5580   45.5770 C   0  0  0  0  0  0  0  0  0  0  0  0
   57.8260   24.5480   46.1540 N   0  0  0  0  0  0  0  0  0  0  0  0
   57.0300   24.1410   47.1610 C   0  0  0  0  0  0  0  0  0  0  0  0
   57.3360   23.1990   47.9400 O   0  0  0  0  0  0  0  0  0  0  0  0
   55.8820   24.8430   47.2760 N   0  0  0  0  0  0  0  0  0  0  0  0
   55.9810   25.7400   46.2780 C   0  0  0  0  0  0  0  0  0  0  0  0
   55.0220   26.7110   46.0150 O   0  0  0  0  0  0  0  0  0  0  0  0
   57.1090   28.7800   44.1840 C   0  0  0  0  0  0  0  0  0  0  0  0
   57.7450   29.9460   44.5570 C   0  0  0  0  0  0  0  0  0  0  0  0
   57.1960   31.3210   44.3200 C   0  0  0  0  0  0  0  0  0  0  0  0
   58.8920   29.6740   45.2200 N   0  0  0  0  0  0  0  0  0  0  0  0
   59.8060   30.6900   45.7790 C   0  0  0  0  0  0  0  0  0  0  0  0
   59.4460   31.0720   47.2090 C   0  0  0  0  0  0  0  0  0  0  0  0
   59.0380   30.0370   48.0680 C   0  0  0  0  0  0  0  0  0  0  0  0
   58.8460   30.2480   49.4250 C   0  0  0  0  0  0  0  0  0  0  0  0
   59.0680   31.5090   50.0010 C   0  0  0  0  0  0  0  0  0  0  0  0
   58.9400   31.7140   51.4480 N   0  0  0  0  0  0  0  0  0  0  0  0
   58.5710   33.0610   51.9520 C   0  0  0  0  0  0  0  0  0  0  0  0
   58.5070   33.2110   53.4800 C   0  0  0  0  0  0  0  0  0  0  0  0
   58.0350   31.9460   54.1700 C   0  0  0  0  0  0  0  0  0  0  0  0
   56.7510   31.6180   53.7640 F   0  0  0  0  0  0  0  0  0  0  0  0
   59.0080   30.8310   53.8320 C   0  0  0  0  0  0  0  0  0  0  0  0
   59.0030   30.5250   52.3350 C   0  0  0  0  0  0  0  0  0  0  0  0
   59.3880   32.5720   49.1270 C   0  0  0  0  0  0  0  0  0  0  0  0
   59.4880   32.4160   47.7160 C   0  0  0  0  0  0  0  0  0  0  0  0
   59.6820   33.6920   46.8290 C   0  0  0  0  0  0  0  0  0  0  0  0
   58.7580   33.6910   45.5780 C   0  0  0  0  0  0  0  0  0  0  0  0
   61.1620   33.8060   46.4050 C   0  0  0  0  0  0  0  0  0  0  0  0
   59.3270   34.9980   47.6030 C   0  0  0  0  0  0  0  0  0  0  0  0
   60.8698   28.2185   46.2692 H   0  0  0  0  0  0  0  0  0  0  0  0
   60.0918   26.5616   45.7406 H   0  0  0  0  0  0  0  0  0  0  0  0
   57.8176   25.9551   43.5003 H   0  0  0  0  0  0  0  0  0  0  0  0
   58.7810   24.1940   45.9240 H   0  0  0  0  0  0  0  0  0  0  0  0
   56.1515   28.6963   43.6490 H   0  0  0  0  0  0  0  0  0  0  0  0
   57.0010   31.8095   45.2861 H   0  0  0  0  0  0  0  0  0  0  0  0
   57.9263   31.9142   43.7500 H   0  0  0  0  0  0  0  0  0  0  0  0
   56.2580   31.2481   43.7500 H   0  0  0  0  0  0  0  0  0  0  0  0
   60.8299   30.2882   45.7680 H   0  0  0  0  0  0  0  0  0  0  0  0
   59.7209   31.5946   45.1590 H   0  0  0  0  0  0  0  0  0  0  0  0
   58.8664   29.0329   47.6528 H   0  0  0  0  0  0  0  0  0  0  0  0
   58.5143   29.4137   50.0606 H   0  0  0  0  0  0  0  0  0  0  0  0
   59.3147   33.7779   51.5737 H   0  0  0  0  0  0  0  0  0  0  0  0
   57.5479   33.2440   51.5916 H   0  0  0  0  0  0  0  0  0  0  0  0
   59.5114   33.4616   53.8519 H   0  0  0  0  0  0  0  0  0  0  0  0
   57.7809   34.0055   53.7070 H   0  0  0  0  0  0  0  0  0  0  0  0
   58.0060   32.0996   55.2588 H   0  0  0  0  0  0  0  0  0  0  0  0
   60.0213   31.1364   54.1320 H   0  0  0  0  0  0  0  0  0  0  0  0
   58.6988   29.9244   54.3728 H   0  0  0  0  0  0  0  0  0  0  0  0
   59.9234   29.9714   52.0975 H   0  0  0  0  0  0  0  0  0  0  0  0
   58.0841   29.9515   52.1432 H   0  0  0  0  0  0  0  0  0  0  0  0
   59.5685   33.5679   49.5578 H   0  0  0  0  0  0  0  0  0  0  0  0
   57.7059   33.6899   45.8992 H   0  0  0  0  0  0  0  0  0  0  0  0
   58.9563   34.5894   44.9750 H   0  0  0  0  0  0  0  0  0  0  0  0
   58.9582   32.7931   44.9750 H   0  0  0  0  0  0  0  0  0  0  0  0
   61.7975   33.8550   47.3015 H   0  0  0  0  0  0  0  0  0  0  0  0
   61.4405   32.9266   45.8057 H   0  0  0  0  0  0  0  0  0  0  0  0
   61.3025   34.7176   45.8057 H   0  0  0  0  0  0  0  0  0  0  0  0
   59.3786   34.8083   48.6853 H   0  0  0  0  0  0  0  0  0  0  0  0
   60.0427   35.7892   47.3349 H   0  0  0  0  0  0  0  0  0  0  0  0
   58.3093   35.3180   47.3349 H   0  0  0  0  0  0  0  0  0  0  0  0
  1  2  2  0
  2  3  1  0
  3  4  2  3
  4  5  1  0
  5  6  1  0
  6  7  1  0
  7  8  2  0
  7  9  1  0
  9 10  1  0
 10 11  1  0
  3 12  1  0
 12 13  2  0
 13 14  1  0
 13 15  1  0
 15 16  1  0
 16 17  1  0
 17 18  2  0
 18 19  1  0
 19 20  2  0
 20 21  1  0
 21 22  1  0
 22 23  1  0
 23 24  1  0
 24 25  1  0
 24 26  1  0
 26 27  1  0
 20 28  1  0
 28 29  2  0
 29 30  1  0
 30 31  1  0
 30 32  1  0
 30 33  1  0
 15  2  1  0
 29 17  1  0
 10  5  2  0
 27 21  1  0
  1 34  1  0
  1 35  1  0
  4 36  1  0
  6 37  1  0
 12 38  1  0
 14 39  1  0
 14 40  1  0
 14 41  1  0
 16 42  1  0
 16 43  1  0
 18 44  1  0
 19 45  1  0
 22 46  1  0
 22 47  1  0
 23 48  1  0
 23 49  1  0
 24 50  1  0
 26 51  1  0
 26 52  1  0
 27 53  1  0
 27 54  1  0
 28 55  1  0
 31 56  1  0
 31 57  1  0
 31 58  1  0
 32 59  1  0
 32 60  1  0
 32 61  1  0
 33 62  1  0
 33 63  1  0
 33 64  1  0
M  CHG  2   9  -1  11  -1
M  END
>  <UniqueID>  (62) 
61

>  <SMILES>  (62) 
C=c1c(=Cc2[nH]c(=O)[n-]c2[O-])cc(C)n1Cc1ccc(N2CCC(F)CC2)cc1C(C)(C)C

>  <Energy>  (62) 
152.85802992219163

>  <Genealogy>  (62) 
C=c1c(=Cc2[nH]c(=O)[n-]c2[O-])cc(C)n1Cc1ccc(N2CCC(F)CC2)cc1C(C)(C)C (protonated)
C=c1c(=Cc2[nH]c(=O)[n-]c2[O-])cc(C)n1Cc1ccc(N2CCC(F)CC2)cc1C(C)(C)C (3D coordinates assigned)
C=c1c(=Cc2[nH]c(=O)[n-]c2[O-])cc(C)n1Cc1ccc(N2CCC(F)CC2)cc1C(C)(C)C (nonaromatic ring conformer: 152.85802992219163 kcal/mol)

>  <smiles>  (62) 
C=c1c(=Cc2[nH]c(=O)[nH]c2O)cc(C)n1Cc1ccc(N2CCC(F)CC2)cc1C(C)(C)C

>  <score_type>  (62) 
oracle

>  <origin>  (62) 
adg

>  <m_score__min__energy>  (62) 
-14.949999999999999

>  <m_primary>  (62) 
energy

$$$$
62:0
     RDKit          3D

 57 60  0  0  0  0  0  0  0  0999 V2000
   58.8080   33.2140   52.5600 C   0  0  0  0  0  0  0  0  0  0  0  0
   59.2670   32.4480   51.3540 C   0  0  0  0  0  0  0  0  0  0  0  0
   58.4390   32.3410   50.2310 C   0  0  0  0  0  0  0  0  0  0  0  0
   58.8780   31.6600   49.0930 C   0  0  0  0  0  0  0  0  0  0  0  0
   60.1540   31.0720   49.0640 C   0  0  0  0  0  0  0  0  0  0  0  0
   60.6320   30.3790   47.9000 N   0  0  0  0  0  0  0  0  0  0  0  0
   60.0570   29.2200   47.2860 C   0  0  0  0  0  0  0  0  0  0  0  0
   59.5650   28.2940   47.9840 O   0  0  0  0  0  0  0  0  0  0  0  0
   60.0730   29.0930   45.7930 C   0  0  0  0  0  0  0  0  0  0  0  0
   58.8400   29.6560   45.2130 N   0  0  0  0  0  0  0  0  0  0  0  0
   57.9020   28.7840   44.5450 C   0  0  0  0  0  0  0  0  0  0  0  0
   58.0500   27.5330   44.5730 O   0  0  0  0  0  0  0  0  0  0  0  0
   56.7710   29.3720   43.7600 C   0  0  0  0  0  0  0  0  0  0  0  0
   56.3230   30.5910   44.3460 O   0  0  0  0  0  0  0  0  0  0  0  0
   57.1910   31.4770   44.9910 C   0  0  0  0  0  0  0  0  0  0  0  0
   56.7720   32.7880   45.2310 C   0  0  0  0  0  0  0  0  0  0  0  0
   57.6200   33.6900   45.8740 C   0  0  0  0  0  0  0  0  0  0  0  0
   58.8900   33.2830   46.2950 C   0  0  0  0  0  0  0  0  0  0  0  0
   59.9630   34.4330   47.0900 S   0  0  0  0  0  0  0  0  0  0  0  0
   60.2910   35.5400   46.1270 O   0  0  0  0  0  0  0  0  0  0  0  0
   59.2700   35.0310   48.2840 O   0  0  0  0  0  0  0  0  0  0  0  0
   61.4300   33.6270   47.5840 N   0  0  0  0  0  0  0  0  0  0  0  0
   61.9110   34.1780   48.8680 C   0  0  0  0  0  0  0  0  0  0  0  0
   63.3660   33.7550   49.1540 C   0  0  0  0  0  0  0  0  0  0  0  0
   63.7490   32.6690   48.3340 O   0  0  0  0  0  0  0  0  0  0  0  0
   63.7760   33.0810   46.9780 C   0  0  0  0  0  0  0  0  0  0  0  0
   62.4590   33.7610   46.5380 C   0  0  0  0  0  0  0  0  0  0  0  0
   59.3130   31.9660   46.0620 C   0  0  0  0  0  0  0  0  0  0  0  0
   58.4660   31.0440   45.4110 C   0  0  0  0  0  0  0  0  0  0  0  0
   61.0080   31.2130   50.1760 C   0  0  0  0  0  0  0  0  0  0  0  0
   62.3900   30.6200   50.1530 C   0  0  0  0  0  0  0  0  0  0  0  0
   60.5580   31.9010   51.3150 C   0  0  0  0  0  0  0  0  0  0  0  0
   59.1243   32.6862   53.4718 H   0  0  0  0  0  0  0  0  0  0  0  0
   59.2521   34.2203   52.5461 H   0  0  0  0  0  0  0  0  0  0  0  0
   57.7112   33.2970   52.5461 H   0  0  0  0  0  0  0  0  0  0  0  0
   57.4373   32.7954   50.2444 H   0  0  0  0  0  0  0  0  0  0  0  0
   58.2208   31.5836   48.2142 H   0  0  0  0  0  0  0  0  0  0  0  0
   60.9419   29.6361   45.3929 H   0  0  0  0  0  0  0  0  0  0  0  0
   60.1364   28.0274   45.5275 H   0  0  0  0  0  0  0  0  0  0  0  0
   57.1107   29.5701   42.7327 H   0  0  0  0  0  0  0  0  0  0  0  0
   55.9359   28.6561   43.7581 H   0  0  0  0  0  0  0  0  0  0  0  0
   55.7698   33.1101   44.9118 H   0  0  0  0  0  0  0  0  0  0  0  0
   57.2889   34.7240   46.0503 H   0  0  0  0  0  0  0  0  0  0  0  0
   61.2020   32.6120   47.7100 H   0  0  0  0  0  0  0  0  0  0  0  0
   61.8592   35.2760   48.8277 H   0  0  0  0  0  0  0  0  0  0  0  0
   61.2725   33.7855   49.6732 H   0  0  0  0  0  0  0  0  0  0  0  0
   64.0334   34.6070   48.9573 H   0  0  0  0  0  0  0  0  0  0  0  0
   63.4394   33.4423   50.2061 H   0  0  0  0  0  0  0  0  0  0  0  0
   64.6030   33.7935   46.8425 H   0  0  0  0  0  0  0  0  0  0  0  0
   63.9103   32.1819   46.3587 H   0  0  0  0  0  0  0  0  0  0  0  0
   62.6482   34.8285   46.3520 H   0  0  0  0  0  0  0  0  0  0  0  0
   62.0975   33.2726   45.6211 H   0  0  0  0  0  0  0  0  0  0  0  0
   60.3141   31.6491   46.3897 H   0  0  0  0  0  0  0  0  0  0  0  0
   62.7415   30.4692   51.1844 H   0  0  0  0  0  0  0  0  0  0  0  0
   62.3655   29.6532   49.6289 H   0  0  0  0  0  0  0  0  0  0  0  0
   63.0738   31.3039   49.6289 H   0  0  0  0  0  0  0  0  0  0  0  0
   61.2237   32.0117   52.1837 H   0  0  0  0  0  0  0  0  0  0  0  0
  1  2  1  0
  2  3  2  0
  3  4  1  0
  4  5  2  0
  5  6  1  0
  6  7  1  0
  7  8  2  0
  7  9  1  0
  9 10  1  0
 10 11  1  0
 11 12  2  0
 11 13  1  0
 13 14  1  0
 14 15  1  0
 15 16  2  0
 16 17  1  0
 17 18  2  0
 18 19  1  0
 19 20  2  0
 19 21  2  0
 19 22  1  0
 22 23  1  0
 23 24  1  0
 24 25  1  0
 25 26  1  0
 26 27  1  0
 18 28  1  0
 28 29  2  0
  5 30  1  0
 30 31  1  0
 30 32  2  0
 32  2  1  0
 29 10  1  0
 29 15  1  0
 27 22  1  0
  1 33  1  0
  1 34  1  0
  1 35  1  0
  3 36  1  0
  4 37  1  0
  9 38  1  0
  9 39  1  0
 13 40  1  0
 13 41  1  0
 16 42  1  0
 17 43  1  0
 22 44  1  0
 23 45  1  0
 23 46  1  0
 24 47  1  0
 24 48  1  0
 26 49  1  0
 26 50  1  0
 27 51  1  0
 27 52  1  0
 28 53  1  0
 31 54  1  0
 31 55  1  0
 31 56  1  0
 32 57  1  0
M  CHG  2   6  -1  22   1
M  END
>  <UniqueID>  (63) 
62

>  <SMILES>  (63) 
Cc1ccc([N-]C(=O)CN2C(=O)COc3ccc(S(=O)(=O)[NH+]4CCOCC4)cc32)c(C)c1

>  <Energy>  (63) 
72.09375223266403

>  <Genealogy>  (63) 
Cc1ccc([N-]C(=O)CN2C(=O)COc3ccc(S(=O)(=O)[NH+]4CCOCC4)cc32)c(C)c1 (protonated)
Cc1ccc([N-]C(=O)CN2C(=O)COc3ccc(S(=O)(=O)[NH+]4CCOCC4)cc32)c(C)c1 (3D coordinates assigned)
Cc1ccc([N-]C(=O)CN2C(=O)COc3ccc(S(=O)(=O)[NH+]4CCOCC4)cc32)c(C)c1 (nonaromatic ring conformer: 72.09375223266403 kcal/mol)

>  <smiles>  (63) 
Cc1ccc(NC(=O)CN2C(=O)COc3ccc(S(=O)(=O)N4CCOCC4)cc32)c(C)c1

>  <score_type>  (63) 
oracle

>  <origin>  (63) 
adg

>  <m_score__min__energy>  (63) 
-9.8499999999999996

>  <m_primary>  (63) 
energy

$$$$
63:0
     RDKit          3D

 42 44  0  0  0  0  0  0  0  0999 V2000
   59.6230   35.6860   49.4610 H   0  0  0  0  0  0  0  0  0  0  0  0
   60.0910   34.9860   48.8970 O   0  0  0  0  0  0  0  0  0  0  0  0
   59.4320   34.3190   47.8660 C   0  0  0  0  0  0  0  0  0  0  0  0
   58.8050   33.0970   48.1250 C   0  0  0  0  0  0  0  0  0  0  0  0
   58.8286   32.6724   49.1395 H   0  0  0  0  0  0  0  0  0  0  0  0
   58.1480   32.4130   47.0980 C   0  0  0  0  0  0  0  0  0  0  0  0
   57.6800   31.4386   47.3018 H   0  0  0  0  0  0  0  0  0  0  0  0
   58.0820   32.9640   45.8050 C   0  0  0  0  0  0  0  0  0  0  0  0
   57.4450   32.2310   44.6880 C   0  0  0  0  0  0  0  0  0  0  0  0
   57.8167   32.4236   43.6708 H   0  0  0  0  0  0  0  0  0  0  0  0
   56.4750   31.3740   44.8270 N   0  0  0  0  0  0  0  0  0  0  0  0
   56.2210   30.2080   44.0290 C   0  0  0  0  0  0  0  0  0  0  0  0
   56.3950   30.2320   42.7810 O   0  0  0  0  0  0  0  0  0  0  0  0
   55.7860   28.9910   44.6440 N   0  0  0  0  0  0  0  0  0  0  0  0
   56.6550   28.0660   45.3070 C   0  0  0  0  0  0  0  0  0  0  0  0
   58.0340   28.3100   45.2950 C   0  0  0  0  0  0  0  0  0  0  0  0
   58.4247   29.2170   44.8106 H   0  0  0  0  0  0  0  0  0  0  0  0
   58.9150   27.4090   45.8940 C   0  0  0  0  0  0  0  0  0  0  0  0
   59.9988   27.5933   45.8559 H   0  0  0  0  0  0  0  0  0  0  0  0
   58.4240   26.2750   46.5410 C   0  0  0  0  0  0  0  0  0  0  0  0
   59.1249   25.5542   46.9874 H   0  0  0  0  0  0  0  0  0  0  0  0
   57.0450   26.0480   46.6260 C   0  0  0  0  0  0  0  0  0  0  0  0
   56.5840   24.8830   47.3220 N   0  0  0  0  0  0  0  0  0  0  0  0
   56.8660   23.5300   46.9400 C   0  0  0  0  0  0  0  0  0  0  0  0
   57.2160   22.6940   47.8200 O   0  0  0  0  0  0  0  0  0  0  0  0
   56.7980   23.1300   45.5120 C   0  0  0  0  0  0  0  0  0  0  0  0
   55.8320   23.7080   44.6630 C   0  0  0  0  0  0  0  0  0  0  0  0
   55.1355   24.4598   45.0626 H   0  0  0  0  0  0  0  0  0  0  0  0
   55.7510   23.3350   43.3190 C   0  0  0  0  0  0  0  0  0  0  0  0
   54.9919   23.7921   42.6673 H   0  0  0  0  0  0  0  0  0  0  0  0
   56.6310   22.3840   42.8020 C   0  0  0  0  0  0  0  0  0  0  0  0
   56.5636   22.0901   41.7441 H   0  0  0  0  0  0  0  0  0  0  0  0
   57.5960   21.8060   43.6260 C   0  0  0  0  0  0  0  0  0  0  0  0
   58.2908   21.0591   43.2144 H   0  0  0  0  0  0  0  0  0  0  0  0
   57.6850   22.1710   44.9730 C   0  0  0  0  0  0  0  0  0  0  0  0
   58.6450   21.5920   45.7390 F   0  0  0  0  0  0  0  0  0  0  0  0
   56.1540   26.9400   45.9920 C   0  0  0  0  0  0  0  0  0  0  0  0
   54.7820   26.7070   46.0360 O   0  0  0  0  0  0  0  0  0  0  0  0
   58.7410   34.1750   45.5450 C   0  0  0  0  0  0  0  0  0  0  0  0
   58.7363   34.5923   44.5272 H   0  0  0  0  0  0  0  0  0  0  0  0
   59.4040   34.8550   46.5720 C   0  0  0  0  0  0  0  0  0  0  0  0
   59.9042   35.8122   46.3632 H   0  0  0  0  0  0  0  0  0  0  0  0
  1  2  1  0
  2  3  1  0
  3  4  2  0
  4  5  1  0
  4  6  1  0
  6  7  1  0
  6  8  2  0
  8  9  1  0
  9 10  1  0
  9 11  2  0
 11 12  1  0
 12 13  2  0
 12 14  1  0
 14 15  1  0
 15 16  2  0
 16 17  1  0
 16 18  1  0
 18 19  1  0
 18 20  2  0
 20 21  1  0
 20 22  1  0
 22 23  1  0
 23 24  1  0
 24 25  2  0
 24 26  1  0
 26 27  2  0
 27 28  1  0
 27 29  1  0
 29 30  1  0
 29 31  2  0
 31 32  1  0
 31 33  1  0
 33 34  1  0
 33 35  2  0
 35 36  1  0
 22 37  2  0
 37 38  1  0
  8 39  1  0
 39 40  1  0
 39 41  2  0
 41 42  1  0
 41  3  1  0
 37 15  1  0
 35 26  1  0
M  CHG  3  14  -1  23  -1  38  -1
M  END
>  <UniqueID>  (64) 
63

>  <SMILES>  (64) 
O=C(/N=C\c1ccc(O)cc1)[N-]c1cccc([N-]C(=O)c2ccccc2F)c1[O-]

>  <Energy>  (64) 
68.06089815464011

>  <Genealogy>  (64) 
O=C(N=Cc1ccc(O)cc1)[N-]c1cccc([N-]C(=O)c2ccccc2F)c1[O-] (protonated)
O=C(/N=C\c1ccc(O)cc1)[N-]c1cccc([N-]C(=O)c2ccccc2F)c1[O-] (cis-trans isomerization)
O=C(/N=C\c1ccc(O)cc1)[N-]c1cccc([N-]C(=O)c2ccccc2F)c1[O-] (3D coordinates assigned)
O=C(/N=C\c1ccc(O)cc1)[N-]c1cccc([N-]C(=O)c2ccccc2F)c1[O-] (optimized conformer: 68.06089815464011 kcal/mol)

>  <smiles>  (64) 
O=C(N=Cc1ccc(O)cc1)Nc1cccc(NC(=O)c2ccccc2F)c1O

>  <score_type>  (64) 
oracle

>  <origin>  (64) 
adg

>  <m_score__min__energy>  (64) 
-16.559999999999999

>  <m_primary>  (64) 
energy

$$$$
64:0
     RDKit          3D

 34 36  0  0  0  0  0  0  0  0999 V2000
   57.0320   24.2900   48.2850 O   0  0  0  0  0  0  0  0  0  0  0  0
   57.3660   25.1590   47.4370 C   0  0  0  0  0  0  0  0  0  0  0  0
   58.6090   25.7060   47.4950 N   0  0  0  0  0  0  0  0  0  0  0  0
   59.0220   26.6520   46.6110 C   0  0  0  0  0  0  0  0  0  0  0  0
   60.3060   27.1930   46.7190 C   0  0  0  0  0  0  0  0  0  0  0  0
   60.7290   28.1800   45.8250 C   0  0  0  0  0  0  0  0  0  0  0  0
   59.8690   28.6360   44.8230 C   0  0  0  0  0  0  0  0  0  0  0  0
   58.5790   28.1020   44.6990 C   0  0  0  0  0  0  0  0  0  0  0  0
   57.7020   28.6290   43.7020 N   0  0  0  0  0  0  0  0  0  0  0  0
   56.6190   29.9190   44.0940 S   0  0  0  0  0  0  0  0  0  0  0  0
   55.6060   29.4300   45.0910 O   0  0  0  0  0  0  0  0  0  0  0  0
   55.8970   30.3710   42.8550 O   0  0  0  0  0  0  0  0  0  0  0  0
   57.5340   31.2550   44.7850 C   0  0  0  0  0  0  0  0  0  0  0  0
   58.1410   31.1260   46.0410 C   0  0  0  0  0  0  0  0  0  0  0  0
   58.9360   32.1570   46.5480 C   0  0  0  0  0  0  0  0  0  0  0  0
   59.1390   33.3350   45.8030 C   0  0  0  0  0  0  0  0  0  0  0  0
   59.9650   34.3950   46.3170 N   0  0  0  0  0  0  0  0  0  0  0  0
   59.4550   35.4600   46.7250 O   0  0  0  0  0  0  0  0  0  0  0  0
   61.3320   34.2510   46.3750 O   0  0  0  0  0  0  0  0  0  0  0  0
   58.5250   33.4570   44.5460 C   0  0  0  0  0  0  0  0  0  0  0  0
   57.7300   32.4240   44.0410 C   0  0  0  0  0  0  0  0  0  0  0  0
   58.1490   27.0960   45.5900 C   0  0  0  0  0  0  0  0  0  0  0  0
   56.8660   26.5300   45.5130 C   0  0  0  0  0  0  0  0  0  0  0  0
   56.4660   25.5650   46.4400 C   0  0  0  0  0  0  0  0  0  0  0  0
   55.1820   25.0270   46.3530 O   0  0  0  0  0  0  0  0  0  0  0  0
   60.9851   26.8411   47.5095 H   0  0  0  0  0  0  0  0  0  0  0  0
   61.7424   28.5993   45.9105 H   0  0  0  0  0  0  0  0  0  0  0  0
   60.2061   29.4186   44.1274 H   0  0  0  0  0  0  0  0  0  0  0  0
   57.9911   30.2094   46.6304 H   0  0  0  0  0  0  0  0  0  0  0  0
   59.4068   32.0480   47.5362 H   0  0  0  0  0  0  0  0  0  0  0  0
   58.6708   34.3726   43.9541 H   0  0  0  0  0  0  0  0  0  0  0  0
   57.2562   32.5305   43.0540 H   0  0  0  0  0  0  0  0  0  0  0  0
   56.1736   26.8479   44.7196 H   0  0  0  0  0  0  0  0  0  0  0  0
   54.7700   24.4950   47.1110 H   0  0  0  0  0  0  0  0  0  0  0  0
  1  2  2  0
  2  3  1  0
  3  4  1  0
  4  5  2  0
  5  6  1  0
  6  7  2  0
  7  8  1  0
  8  9  1  0
  9 10  1  0
 10 11  2  0
 10 12  2  0
 10 13  1  0
 13 14  2  0
 14 15  1  0
 15 16  2  0
 16 17  1  0
 17 18  2  0
 17 19  1  0
 16 20  1  0
 20 21  2  0
  8 22  2  0
 22 23  1  0
 23 24  2  0
 24 25  1  0
 24  2  1  0
 22  4  1  0
 21 13  1  0
  5 26  1  0
  6 27  1  0
  7 28  1  0
 14 29  1  0
 15 30  1  0
 20 31  1  0
 21 32  1  0
 23 33  1  0
 25 34  1  0
M  CHG  4   3  -1   9  -1  17   1  19  -1
M  END
>  <UniqueID>  (65) 
64

>  <SMILES>  (65) 
O=c1[n-]c2cccc([N-]S(=O)(=O)c3ccc([N+](=O)[O-])cc3)c2cc1O

>  <Energy>  (65) 
50.24343726917579

>  <Genealogy>  (65) 
O=c1[n-]c2cccc([N-]S(=O)(=O)c3ccc([N+](=O)[O-])cc3)c2cc1O (protonated)
O=c1[n-]c2cccc([N-]S(=O)(=O)c3ccc([N+](=O)[O-])cc3)c2cc1O (3D coordinates assigned)
O=c1[n-]c2cccc([N-]S(=O)(=O)c3ccc([N+](=O)[O-])cc3)c2cc1O (optimized conformer: 50.24343726917579 kcal/mol)

>  <smiles>  (65) 
O=c1[nH]c2cccc(NS(=O)(=O)c3ccc([N+](=O)[O-])cc3)c2cc1O

>  <score_type>  (65) 
oracle

>  <origin>  (65) 
adg

>  <m_score__min__energy>  (65) 
-11.66

>  <m_primary>  (65) 
energy

$$$$
65:0
     RDKit          3D

 53 56  0  0  0  0  0  0  0  0999 V2000
   50.1640   33.1340   52.3730 N   0  0  0  0  0  0  0  0  0  0  0  0
   51.0760   32.2870   51.6760 C   0  0  0  0  0  0  0  0  0  0  0  0
   51.4110   32.5850   50.4960 O   0  0  0  0  0  0  0  0  0  0  0  0
   51.6230   31.0720   52.3250 C   0  0  0  0  0  0  0  0  0  0  0  0
   50.7640   30.1560   52.9570 C   0  0  0  0  0  0  0  0  0  0  0  0
   51.2780   29.0100   53.5660 C   0  0  0  0  0  0  0  0  0  0  0  0
   52.6520   28.7630   53.5570 C   0  0  0  0  0  0  0  0  0  0  0  0
   53.5350   29.6690   52.9410 C   0  0  0  0  0  0  0  0  0  0  0  0
   55.0000   29.4220   52.9130 C   0  0  0  0  0  0  0  0  0  0  0  0
   55.5790   28.3350   53.5880 C   0  0  0  0  0  0  0  0  0  0  0  0
   56.9600   28.1510   53.5400 C   0  0  0  0  0  0  0  0  0  0  0  0
   57.7740   29.0510   52.8390 C   0  0  0  0  0  0  0  0  0  0  0  0
   59.2420   28.8350   52.8160 C   0  0  0  0  0  0  0  0  0  0  0  0
   59.7260   27.8950   53.5090 O   0  0  0  0  0  0  0  0  0  0  0  0
   60.1230   29.6960   52.0540 N   0  0  0  0  0  0  0  0  0  0  0  0
   61.4660   29.7530   52.6890 C   0  0  0  0  0  0  0  0  0  0  0  0
   62.5740   30.2140   51.7180 C   0  0  0  0  0  0  0  0  0  0  0  0
   62.0060   30.9230   50.5650 N   0  0  0  0  0  0  0  0  0  0  0  0
   62.3860   32.2850   50.2870 C   0  0  0  0  0  0  0  0  0  0  0  0
   62.6410   33.0660   51.2440 O   0  0  0  0  0  0  0  0  0  0  0  0
   62.4640   32.7970   48.9010 C   0  0  0  0  0  0  0  0  0  0  0  0
   63.6730   32.7480   48.1860 C   0  0  0  0  0  0  0  0  0  0  0  0
   63.7410   33.2460   46.8810 C   0  0  0  0  0  0  0  0  0  0  0  0
   62.6100   33.8060   46.2840 C   0  0  0  0  0  0  0  0  0  0  0  0
   61.4080   33.8760   46.9940 C   0  0  0  0  0  0  0  0  0  0  0  0
   61.3350   33.3780   48.2990 C   0  0  0  0  0  0  0  0  0  0  0  0
   60.9320   30.2780   49.7960 C   0  0  0  0  0  0  0  0  0  0  0  0
   60.2020   29.2340   50.6530 C   0  0  0  0  0  0  0  0  0  0  0  0
   57.1560   30.1210   52.1620 C   0  0  0  0  0  0  0  0  0  0  0  0
   57.8320   30.9300   51.4710 O   0  0  0  0  0  0  0  0  0  0  0  0
   55.8070   30.2770   52.2250 N   0  0  0  0  0  0  0  0  0  0  0  0
   53.0080   30.8160   52.3200 C   0  0  0  0  0  0  0  0  0  0  0  0
   49.9660   34.1020   52.0360 H   0  0  0  0  0  0  0  0  0  0  0  0
   49.6802   30.3435   52.9717 H   0  0  0  0  0  0  0  0  0  0  0  0
   50.5971   28.2980   54.0554 H   0  0  0  0  0  0  0  0  0  0  0  0
   53.0469   27.8542   54.0346 H   0  0  0  0  0  0  0  0  0  0  0  0
   54.9465   27.6330   54.1512 H   0  0  0  0  0  0  0  0  0  0  0  0
   57.4144   27.2926   54.0564 H   0  0  0  0  0  0  0  0  0  0  0  0
   59.7390   30.6700   52.0610 H   0  0  0  0  0  0  0  0  0  0  0  0
   61.4248   30.4569   53.5333 H   0  0  0  0  0  0  0  0  0  0  0  0
   61.7186   28.7335   53.0159 H   0  0  0  0  0  0  0  0  0  0  0  0
   63.2611   30.8877   52.2510 H   0  0  0  0  0  0  0  0  0  0  0  0
   63.1094   29.3254   51.3522 H   0  0  0  0  0  0  0  0  0  0  0  0
   64.5695   32.3161   48.6548 H   0  0  0  0  0  0  0  0  0  0  0  0
   64.6880   33.1964   46.3235 H   0  0  0  0  0  0  0  0  0  0  0  0
   62.6648   34.1919   45.2554 H   0  0  0  0  0  0  0  0  0  0  0  0
   60.5186   34.3232   46.5260 H   0  0  0  0  0  0  0  0  0  0  0  0
   60.3891   33.4415   48.8569 H   0  0  0  0  0  0  0  0  0  0  0  0
   60.2127   31.0432   49.4687 H   0  0  0  0  0  0  0  0  0  0  0  0
   61.3751   29.7730   48.9250 H   0  0  0  0  0  0  0  0  0  0  0  0
   59.1852   29.0868   50.2601 H   0  0  0  0  0  0  0  0  0  0  0  0
   60.7571   28.2850   50.6166 H   0  0  0  0  0  0  0  0  0  0  0  0
   53.6879   31.5236   51.8230 H   0  0  0  0  0  0  0  0  0  0  0  0
  1  2  1  0
  2  3  2  0
  2  4  1  0
  4  5  2  0
  5  6  1  0
  6  7  2  0
  7  8  1  0
  8  9  1  0
  9 10  2  0
 10 11  1  0
 11 12  2  0
 12 13  1  0
 13 14  2  0
 13 15  1  0
 15 16  1  0
 16 17  1  0
 17 18  1  0
 18 19  1  0
 19 20  2  0
 19 21  1  0
 21 22  2  0
 22 23  1  0
 23 24  2  0
 24 25  1  0
 25 26  2  0
 18 27  1  0
 27 28  1  0
 12 29  1  0
 29 30  2  0
 29 31  1  0
  8 32  2  0
 32  4  1  0
 31  9  1  0
 28 15  1  0
 26 21  1  0
  1 33  1  0
  5 34  1  0
  6 35  1  0
  7 36  1  0
 10 37  1  0
 11 38  1  0
 15 39  1  0
 16 40  1  0
 16 41  1  0
 17 42  1  0
 17 43  1  0
 22 44  1  0
 23 45  1  0
 24 46  1  0
 25 47  1  0
 26 48  1  0
 27 49  1  0
 27 50  1  0
 28 51  1  0
 28 52  1  0
 32 53  1  0
M  CHG  3   1  -1  15   1  31  -1
M  END
>  <UniqueID>  (66) 
65

>  <SMILES>  (66) 
[NH-]C(=O)c1cccc(-c2ccc(C(=O)[NH+]3CCN(C(=O)c4ccccc4)CC3)c(=O)[n-]2)c1

>  <Energy>  (66) 
80.92595904932244

>  <Genealogy>  (66) 
[NH-]C(=O)c1cccc(-c2ccc(C(=O)[NH+]3CCN(C(=O)c4ccccc4)CC3)c(=O)[n-]2)c1 (protonated)
[NH-]C(=O)c1cccc(-c2ccc(C(=O)[NH+]3CCN(C(=O)c4ccccc4)CC3)c(=O)[n-]2)c1 (3D coordinates assigned)
[NH-]C(=O)c1cccc(-c2ccc(C(=O)[NH+]3CCN(C(=O)c4ccccc4)CC3)c(=O)[n-]2)c1 (nonaromatic ring conformer: 80.92595904932244 kcal/mol)

>  <smiles>  (66) 
NC(=O)c1cccc(-c2ccc(C(=O)N3CCN(C(=O)c4ccccc4)CC3)c(=O)[nH]2)c1

>  <score_type>  (66) 
oracle

>  <origin>  (66) 
adg

>  <m_score__min__energy>  (66) 
-12.02

>  <m_primary>  (66) 
energy

$$$$
66:0
     RDKit          3D

 37 39  0  0  0  0  0  0  0  0999 V2000
   55.9060   31.7090   51.0940 H   0  0  0  0  0  0  0  0  0  0  0  0
   55.4350   30.8720   51.4020 O   0  0  0  0  0  0  0  0  0  0  0  0
   55.9610   29.9480   52.3140 C   0  0  0  0  0  0  0  0  0  0  0  0
   57.3460   29.7430   52.2930 C   0  0  0  0  0  0  0  0  0  0  0  0
   58.3960   30.7120   51.1950 S   0  0  0  0  0  0  0  0  0  0  0  0
   58.5960   32.0370   52.3890 C   0  0  0  0  0  0  0  0  0  0  0  0
   58.8320   31.7390   53.7370 C   0  0  0  0  0  0  0  0  0  0  0  0
   58.8994   30.6911   54.0646 H   0  0  0  0  0  0  0  0  0  0  0  0
   58.9820   32.7730   54.6670 C   0  0  0  0  0  0  0  0  0  0  0  0
   59.1623   32.5372   55.7262 H   0  0  0  0  0  0  0  0  0  0  0  0
   58.9030   34.1060   54.2520 C   0  0  0  0  0  0  0  0  0  0  0  0
   59.0185   34.9185   54.9845 H   0  0  0  0  0  0  0  0  0  0  0  0
   58.6770   34.4050   52.9050 C   0  0  0  0  0  0  0  0  0  0  0  0
   58.6179   35.4534   52.5774 H   0  0  0  0  0  0  0  0  0  0  0  0
   58.5260   33.3730   51.9740 C   0  0  0  0  0  0  0  0  0  0  0  0
   58.3520   33.6105   50.9141 H   0  0  0  0  0  0  0  0  0  0  0  0
   57.9000   28.7730   53.1260 C   0  0  0  0  0  0  0  0  0  0  0  0
   59.1440   28.5790   53.1410 O   0  0  0  0  0  0  0  0  0  0  0  0
   57.1190   28.0180   53.8830 O   0  0  0  0  0  0  0  0  0  0  0  0
   55.7990   28.1580   53.9490 C   0  0  0  0  0  0  0  0  0  0  0  0
   55.1380   27.2000   54.6140 C   0  0  0  0  0  0  0  0  0  0  0  0
   54.0433   27.2514   54.7085 H   0  0  0  0  0  0  0  0  0  0  0  0
   55.6903   26.3625   55.0652 H   0  0  0  0  0  0  0  0  0  0  0  0
   55.1610   29.2410   53.2580 C   0  0  0  0  0  0  0  0  0  0  0  0
   53.8850   29.6560   53.5030 C   0  0  0  0  0  0  0  0  0  0  0  0
   53.4819   29.4622   54.5080 H   0  0  0  0  0  0  0  0  0  0  0  0
   52.9930   30.3420   52.5440 C   0  0  0  0  0  0  0  0  0  0  0  0
   52.4080   31.5820   52.8560 C   0  0  0  0  0  0  0  0  0  0  0  0
   52.5839   32.0387   53.8411 H   0  0  0  0  0  0  0  0  0  0  0  0
   51.6040   32.2360   51.9190 C   0  0  0  0  0  0  0  0  0  0  0  0
   51.1339   33.1968   52.1755 H   0  0  0  0  0  0  0  0  0  0  0  0
   51.3950   31.6730   50.6560 C   0  0  0  0  0  0  0  0  0  0  0  0
   50.5930   32.3330   49.7320 O   0  0  0  0  0  0  0  0  0  0  0  0
   52.0000   30.4520   50.3260 C   0  0  0  0  0  0  0  0  0  0  0  0
   51.7620   29.7370   48.7400 Cl  0  0  0  0  0  0  0  0  0  0  0  0
   52.8050   29.7960   51.2660 C   0  0  0  0  0  0  0  0  0  0  0  0
   53.2928   28.8466   51.0001 H   0  0  0  0  0  0  0  0  0  0  0  0
  1  2  1  0
  2  3  1  0
  3  4  2  0
  4  5  1  0
  5  6  1  0
  6  7  2  0
  7  8  1  0
  7  9  1  0
  9 10  1  0
  9 11  2  0
 11 12  1  0
 11 13  1  0
 13 14  1  0
 13 15  2  0
 15 16  1  0
  4 17  1  0
 17 18  2  0
 17 19  1  0
 19 20  1  0
 20 21  2  0
 21 22  1  0
 21 23  1  0
 20 24  1  0
 24 25  2  0
 25 26  1  0
 25 27  1  0
 27 28  2  0
 28 29  1  0
 28 30  1  0
 30 31  1  0
 30 32  2  0
 32 33  1  0
 32 34  1  0
 34 35  1  0
 34 36  2  0
 36 37  1  0
 24  3  1  0
 36 27  1  0
 15  6  1  0
M  CHG  1  33  -1
M  END
>  <UniqueID>  (67) 
66

>  <SMILES>  (67) 
C=c1oc(=O)c(Sc2ccccc2)c(O)/c1=C/c1ccc([O-])c(Cl)c1

>  <Energy>  (67) 
63.87626128374216

>  <Genealogy>  (67) 
C=c1oc(=O)c(Sc2ccccc2)c(O)c1=Cc1ccc([O-])c(Cl)c1 (protonated)
C=c1oc(=O)c(Sc2ccccc2)c(O)/c1=C/c1ccc([O-])c(Cl)c1 (cis-trans isomerization)
C=c1oc(=O)c(Sc2ccccc2)c(O)/c1=C/c1ccc([O-])c(Cl)c1 (3D coordinates assigned)
C=c1oc(=O)c(Sc2ccccc2)c(O)/c1=C/c1ccc([O-])c(Cl)c1 (optimized conformer: 63.87626128374216 kcal/mol)

>  <smiles>  (67) 
C=c1oc(=O)c(Sc2ccccc2)c(O)c1=Cc1ccc(O)c(Cl)c1

>  <score_type>  (67) 
oracle

>  <origin>  (67) 
adg

>  <m_score__min__energy>  (67) 
-10.779999999999999

>  <m_primary>  (67) 
energy

$$$$
67:0
     RDKit          3D

 61 64  0  0  0  0  0  0  0  0999 V2000
   64.9440   36.0870   52.7200 C   0  0  0  0  0  0  0  0  0  0  0  0
   65.0980   34.7290   52.3200 O   0  0  0  0  0  0  0  0  0  0  0  0
   64.4580   34.1480   51.2140 C   0  0  0  0  0  0  0  0  0  0  0  0
   63.1600   34.5250   50.8190 C   0  0  0  0  0  0  0  0  0  0  0  0
   62.5590   33.9270   49.7090 C   0  0  0  0  0  0  0  0  0  0  0  0
   61.3180   34.3060   49.3300 N   0  0  0  0  0  0  0  0  0  0  0  0
   60.6940   33.7710   48.2450 C   0  0  0  0  0  0  0  0  0  0  0  0
   59.2930   34.2530   47.9130 C   0  0  0  0  0  0  0  0  0  0  0  0
   58.3000   33.1330   47.8180 C   0  0  0  0  0  0  0  0  0  0  0  0
   58.2440   32.2630   48.7290 O   0  0  0  0  0  0  0  0  0  0  0  0
   57.3890   33.0840   46.7160 N   0  0  0  0  0  0  0  0  0  0  0  0
   57.8140   33.1110   45.3210 C   0  0  0  0  0  0  0  0  0  0  0  0
   57.3430   31.8810   44.6110 C   0  0  0  0  0  0  0  0  0  0  0  0
   57.4680   31.6320   43.2590 C   0  0  0  0  0  0  0  0  0  0  0  0
   56.8750   30.4060   43.0540 C   0  0  0  0  0  0  0  0  0  0  0  0
   56.4250   29.9850   44.2900 C   0  0  0  0  0  0  0  0  0  0  0  0
   56.7180   30.8870   45.1970 O   0  0  0  0  0  0  0  0  0  0  0  0
   61.3130   32.7670   47.5270 N   0  0  0  0  0  0  0  0  0  0  0  0
   60.6350   32.1270   46.3770 C   0  0  0  0  0  0  0  0  0  0  0  0
   60.2520   30.7040   46.6740 C   0  0  0  0  0  0  0  0  0  0  0  0
   61.1410   29.8120   46.6190 O   0  0  0  0  0  0  0  0  0  0  0  0
   58.8950   30.3450   46.9780 N   0  0  0  0  0  0  0  0  0  0  0  0
   58.5290   29.0090   47.4440 C   0  0  0  0  0  0  0  0  0  0  0  0
   58.3080   28.0910   46.2710 C   0  0  0  0  0  0  0  0  0  0  0  0
   58.9870   28.3160   45.0630 C   0  0  0  0  0  0  0  0  0  0  0  0
   58.7750   27.4700   43.9680 C   0  0  0  0  0  0  0  0  0  0  0  0
   57.8780   26.4030   44.0710 C   0  0  0  0  0  0  0  0  0  0  0  0
   57.1900   26.1810   45.2660 C   0  0  0  0  0  0  0  0  0  0  0  0
   57.4020   27.0200   46.3640 C   0  0  0  0  0  0  0  0  0  0  0  0
   62.5840   32.3660   47.8760 C   0  0  0  0  0  0  0  0  0  0  0  0
   63.1780   31.4760   47.2010 O   0  0  0  0  0  0  0  0  0  0  0  0
   63.2360   32.9420   48.9790 C   0  0  0  0  0  0  0  0  0  0  0  0
   64.5320   32.5600   49.3730 C   0  0  0  0  0  0  0  0  0  0  0  0
   65.1460   33.1640   50.4890 C   0  0  0  0  0  0  0  0  0  0  0  0
   66.4380   32.8110   50.9090 O   0  0  0  0  0  0  0  0  0  0  0  0
   67.6280   33.4920   50.5230 C   0  0  0  0  0  0  0  0  0  0  0  0
   64.9372   36.1472   53.8183 H   0  0  0  0  0  0  0  0  0  0  0  0
   65.7804   36.6826   52.3253 H   0  0  0  0  0  0  0  0  0  0  0  0
   63.9955   36.4802   52.3253 H   0  0  0  0  0  0  0  0  0  0  0  0
   62.6167   35.2942   51.3874 H   0  0  0  0  0  0  0  0  0  0  0  0
   58.9647   34.9479   48.7000 H   0  0  0  0  0  0  0  0  0  0  0  0
   59.3357   34.7420   46.9286 H   0  0  0  0  0  0  0  0  0  0  0  0
   57.3895   33.9988   44.8294 H   0  0  0  0  0  0  0  0  0  0  0  0
   58.9127   33.1481   45.2822 H   0  0  0  0  0  0  0  0  0  0  0  0
   57.9416   32.2770   42.5042 H   0  0  0  0  0  0  0  0  0  0  0  0
   56.7791   29.8700   42.0982 H   0  0  0  0  0  0  0  0  0  0  0  0
   55.9008   29.0377   44.4846 H   0  0  0  0  0  0  0  0  0  0  0  0
   59.7256   32.6976   46.1376 H   0  0  0  0  0  0  0  0  0  0  0  0
   61.3345   32.1220   45.5281 H   0  0  0  0  0  0  0  0  0  0  0  0
   58.1350   31.0530   46.8770 H   0  0  0  0  0  0  0  0  0  0  0  0
   59.3391   28.6085   48.0712 H   0  0  0  0  0  0  0  0  0  0  0  0
   57.5992   29.0750   48.0280 H   0  0  0  0  0  0  0  0  0  0  0  0
   59.6877   29.1596   44.9767 H   0  0  0  0  0  0  0  0  0  0  0  0
   59.3148   27.6451   43.0257 H   0  0  0  0  0  0  0  0  0  0  0  0
   57.7139   25.7378   43.2104 H   0  0  0  0  0  0  0  0  0  0  0  0
   56.4800   25.3444   45.3434 H   0  0  0  0  0  0  0  0  0  0  0  0
   56.8583   26.8416   47.3035 H   0  0  0  0  0  0  0  0  0  0  0  0
   65.0693   31.7851   48.8065 H   0  0  0  0  0  0  0  0  0  0  0  0
   68.1783   33.8069   51.4219 H   0  0  0  0  0  0  0  0  0  0  0  0
   68.2585   32.8180   49.9245 H   0  0  0  0  0  0  0  0  0  0  0  0
   67.3663   34.3770   49.9245 H   0  0  0  0  0  0  0  0  0  0  0  0
  1  2  1  0
  2  3  1  0
  3  4  2  0
  4  5  1  0
  5  6  1  0
  6  7  2  0
  7  8  1  0
  8  9  1  0
  9 10  2  0
  9 11  1  0
 11 12  1  0
 12 13  1  0
 13 14  2  0
 14 15  1  0
 15 16  2  0
 16 17  1  0
  7 18  1  0
 18 19  1  0
 19 20  1  0
 20 21  2  0
 20 22  1  0
 22 23  1  0
 23 24  1  0
 24 25  2  0
 25 26  1  0
 26 27  2  0
 27 28  1  0
 28 29  2  0
 18 30  1  0
 30 31  2  0
 30 32  1  0
 32 33  1  0
 33 34  2  0
 34 35  1  0
 35 36  1  0
 34  3  1  0
 32  5  2  0
 17 13  1  0
 29 24  1  0
  1 37  1  0
  1 38  1  0
  1 39  1  0
  4 40  1  0
  8 41  1  0
  8 42  1  0
 12 43  1  0
 12 44  1  0
 14 45  1  0
 15 46  1  0
 16 47  1  0
 19 48  1  0
 19 49  1  0
 22 50  1  0
 23 51  1  0
 23 52  1  0
 25 53  1  0
 26 54  1  0
 27 55  1  0
 28 56  1  0
 29 57  1  0
 33 58  1  0
 36 59  1  0
 36 60  1  0
 36 61  1  0
M  CHG  1  11  -1
M  END
>  <UniqueID>  (68) 
67

>  <SMILES>  (68) 
COc1cc2nc(CC(=O)[N-]Cc3ccco3)n(CC(=O)NCc3ccccc3)c(=O)c2cc1OC

>  <Energy>  (68) 
89.15716695138322

>  <Genealogy>  (68) 
COc1cc2nc(CC(=O)[N-]Cc3ccco3)n(CC(=O)NCc3ccccc3)c(=O)c2cc1OC (protonated)
COc1cc2nc(CC(=O)[N-]Cc3ccco3)n(CC(=O)NCc3ccccc3)c(=O)c2cc1OC (3D coordinates assigned)
COc1cc2nc(CC(=O)[N-]Cc3ccco3)n(CC(=O)NCc3ccccc3)c(=O)c2cc1OC (optimized conformer: 89.15716695138322 kcal/mol)

>  <smiles>  (68) 
COc1cc2nc(CC(=O)NCc3ccco3)n(CC(=O)NCc3ccccc3)c(=O)c2cc1OC

>  <score_type>  (68) 
oracle

>  <origin>  (68) 
adg

>  <m_score__min__energy>  (68) 
-11.23

>  <m_primary>  (68) 
energy

$$$$
68:0
     RDKit          3D

 51 54  0  0  0  0  0  0  0  0999 V2000
   58.6440   32.6110   43.4400 O   0  0  0  0  0  0  0  0  0  0  0  0
   57.9330   31.8810   44.1830 C   0  0  0  0  0  0  0  0  0  0  0  0
   57.1790   30.7340   43.5880 C   0  0  0  0  0  0  0  0  0  0  0  0
   57.4350   29.5120   44.3500 N   0  0  0  0  0  0  0  0  0  0  0  0
   56.5150   28.7280   44.9560 C   0  0  0  0  0  0  0  0  0  0  0  0
   55.1440   28.9560   44.9160 O   0  0  0  0  0  0  0  0  0  0  0  0
   57.1340   27.6860   45.6200 C   0  0  0  0  0  0  0  0  0  0  0  0
   58.4830   27.8460   45.4240 C   0  0  0  0  0  0  0  0  0  0  0  0
   58.6380   28.9770   44.6490 C   0  0  0  0  0  0  0  0  0  0  0  0
   59.8550   29.5070   44.2350 O   0  0  0  0  0  0  0  0  0  0  0  0
   59.5260   26.9540   46.0150 C   0  0  0  0  0  0  0  0  0  0  0  0
   58.9080   25.7740   46.7410 C   0  0  0  0  0  0  0  0  0  0  0  0
   57.5780   25.6160   46.9330 C   0  0  0  0  0  0  0  0  0  0  0  0
   56.5300   26.5980   46.4480 C   0  0  0  0  0  0  0  0  0  0  0  0
   57.8830   32.0990   45.5980 N   0  0  0  0  0  0  0  0  0  0  0  0
   58.7220   32.9770   46.3640 C   0  0  0  0  0  0  0  0  0  0  0  0
   58.1940   34.0170   47.1490 C   0  0  0  0  0  0  0  0  0  0  0  0
   59.0470   34.8380   47.8900 C   0  0  0  0  0  0  0  0  0  0  0  0
   60.4260   34.6180   47.8750 C   0  0  0  0  0  0  0  0  0  0  0  0
   60.9670   33.5550   47.1310 C   0  0  0  0  0  0  0  0  0  0  0  0
   62.4270   33.3070   47.1210 C   0  0  0  0  0  0  0  0  0  0  0  0
   63.1210   33.7280   46.1560 O   0  0  0  0  0  0  0  0  0  0  0  0
   63.0740   32.6120   48.2030 N   0  0  0  0  0  0  0  0  0  0  0  0
   64.3760   33.1010   48.6830 C   0  0  0  0  0  0  0  0  0  0  0  0
   64.8790   32.2840   49.8810 C   0  0  0  0  0  0  0  0  0  0  0  0
   63.7250   31.9970   50.8450 C   0  0  0  0  0  0  0  0  0  0  0  0
   62.6020   31.1770   50.1770 C   0  0  0  0  0  0  0  0  0  0  0  0
   62.5770   31.2990   48.6410 C   0  0  0  0  0  0  0  0  0  0  0  0
   60.1040   32.7450   46.3720 C   0  0  0  0  0  0  0  0  0  0  0  0
   56.1020   30.9568   43.6095 H   0  0  0  0  0  0  0  0  0  0  0  0
   57.5110   30.5860   42.5498 H   0  0  0  0  0  0  0  0  0  0  0  0
   60.1723   26.5777   45.2083 H   0  0  0  0  0  0  0  0  0  0  0  0
   60.1060   27.5397   46.7434 H   0  0  0  0  0  0  0  0  0  0  0  0
   59.5823   24.9996   47.1354 H   0  0  0  0  0  0  0  0  0  0  0  0
   57.2366   24.7209   47.4737 H   0  0  0  0  0  0  0  0  0  0  0  0
   55.7888   26.0576   45.8409 H   0  0  0  0  0  0  0  0  0  0  0  0
   56.0578   27.0586   47.3283 H   0  0  0  0  0  0  0  0  0  0  0  0
   57.1072   34.1844   47.1796 H   0  0  0  0  0  0  0  0  0  0  0  0
   58.6306   35.6618   48.4883 H   0  0  0  0  0  0  0  0  0  0  0  0
   61.0921   35.2797   48.4481 H   0  0  0  0  0  0  0  0  0  0  0  0
   65.1090   33.0255   47.8663 H   0  0  0  0  0  0  0  0  0  0  0  0
   64.2539   34.1455   49.0055 H   0  0  0  0  0  0  0  0  0  0  0  0
   65.2981   31.3325   49.5220 H   0  0  0  0  0  0  0  0  0  0  0  0
   65.6538   32.8594   50.4088 H   0  0  0  0  0  0  0  0  0  0  0  0
   64.1134   31.4319   51.7051 H   0  0  0  0  0  0  0  0  0  0  0  0
   63.2992   32.9609   51.1606 H   0  0  0  0  0  0  0  0  0  0  0  0
   62.7420   30.1179   50.4392 H   0  0  0  0  0  0  0  0  0  0  0  0
   61.6469   31.5778   50.5473 H   0  0  0  0  0  0  0  0  0  0  0  0
   63.2126   30.5123   48.2083 H   0  0  0  0  0  0  0  0  0  0  0  0
   61.5370   31.1891   48.3000 H   0  0  0  0  0  0  0  0  0  0  0  0
   60.5191   31.9184   45.7767 H   0  0  0  0  0  0  0  0  0  0  0  0
  1  2  2  0
  2  3  1  0
  3  4  1  0
  4  5  1  0
  5  6  1  0
  5  7  2  0
  7  8  1  0
  8  9  2  0
  9 10  1  0
  8 11  1  0
 11 12  1  0
 12 13  2  0
 13 14  1  0
  2 15  1  0
 15 16  1  0
 16 17  2  0
 17 18  1  0
 18 19  2  0
 19 20  1  0
 20 21  1  0
 21 22  2  0
 21 23  1  0
 23 24  1  0
 24 25  1  0
 25 26  1  0
 26 27  1  0
 27 28  1  0
 20 29  2  0
  9  4  1  0
 29 16  1  0
 14  7  1  0
 28 23  1  0
  3 30  1  0
  3 31  1  0
 11 32  1  0
 11 33  1  0
 12 34  1  0
 13 35  1  0
 14 36  1  0
 14 37  1  0
 17 38  1  0
 18 39  1  0
 19 40  1  0
 24 41  1  0
 24 42  1  0
 25 43  1  0
 25 44  1  0
 26 45  1  0
 26 46  1  0
 27 47  1  0
 27 48  1  0
 28 49  1  0
 28 50  1  0
 29 51  1  0
M  CHG  3   6  -1  10  -1  15  -1
M  END
>  <UniqueID>  (69) 
68

>  <SMILES>  (69) 
O=C(Cn1c([O-])c2c(c1[O-])CC=CC2)[N-]c1cccc(C(=O)N2CCCCC2)c1

>  <Energy>  (69) 
93.54106186663915

>  <Genealogy>  (69) 
O=C(Cn1c([O-])c2c(c1[O-])CC=CC2)[N-]c1cccc(C(=O)N2CCCCC2)c1 (protonated)
O=C(Cn1c([O-])c2c(c1[O-])CC=CC2)[N-]c1cccc(C(=O)N2CCCCC2)c1 (3D coordinates assigned)
O=C(Cn1c([O-])c2c(c1[O-])CC=CC2)[N-]c1cccc(C(=O)N2CCCCC2)c1 (nonaromatic ring conformer: 93.54106186663915 kcal/mol)

>  <smiles>  (69) 
O=C(Cn1c(O)c2c(c1O)CC=CC2)Nc1cccc(C(=O)N2CCCCC2)c1

>  <score_type>  (69) 
oracle

>  <origin>  (69) 
adg

>  <m_score__min__energy>  (69) 
-15.44

>  <m_primary>  (69) 
energy

$$$$
69:0
     RDKit          3D

 53 56  0  0  0  0  0  0  0  0999 V2000
   55.5640   29.7170   45.9050 H   0  0  0  0  0  0  0  0  0  0  0  0
   55.6100   28.9470   45.2500 O   0  0  0  0  0  0  0  0  0  0  0  0
   56.1420   27.7070   45.6160 C   0  0  0  0  0  0  0  0  0  0  0  0
   55.3830   26.6590   45.9810 N   0  0  0  0  0  0  0  0  0  0  0  0
   56.2950   25.7220   46.3070 C   0  0  0  0  0  0  0  0  0  0  0  0
   55.9760   24.5780   46.7290 O   0  0  0  0  0  0  0  0  0  0  0  0
   57.5780   26.1160   46.1760 N   0  0  0  0  0  0  0  0  0  0  0  0
   57.4780   27.3710   45.7040 C   0  0  0  0  0  0  0  0  0  0  0  0
   58.6470   28.2210   45.4070 C   0  0  0  0  0  0  0  0  0  0  0  0
   59.5419   27.7422   44.9829 H   0  0  0  0  0  0  0  0  0  0  0  0
   58.6810   29.5470   45.6250 C   0  0  0  0  0  0  0  0  0  0  0  0
   58.4220   30.5370   44.6900 C   0  0  0  0  0  0  0  0  0  0  0  0
   58.1555   30.3898   43.6330 H   0  0  0  0  0  0  0  0  0  0  0  0
   58.5640   31.7440   45.3450 C   0  0  0  0  0  0  0  0  0  0  0  0
   58.2710   33.0820   44.7410 C   0  0  0  0  0  0  0  0  0  0  0  0
   58.1097   33.8185   45.5420 H   0  0  0  0  0  0  0  0  0  0  0  0
   59.1213   33.3975   44.1186 H   0  0  0  0  0  0  0  0  0  0  0  0
   57.3666   33.0132   44.1186 H   0  0  0  0  0  0  0  0  0  0  0  0
   58.8960   31.5440   46.6350 N   0  0  0  0  0  0  0  0  0  0  0  0
   59.0530   32.5760   47.6190 C   0  0  0  0  0  0  0  0  0  0  0  0
   58.1150   32.7890   48.4350 O   0  0  0  0  0  0  0  0  0  0  0  0
   60.2930   33.3030   47.7400 N   0  0  0  0  0  0  0  0  0  0  0  0
   60.4790   34.2010   48.8890 C   0  0  0  0  0  0  0  0  0  0  0  0
   59.8830   35.1117   48.7297 H   0  0  0  0  0  0  0  0  0  0  0  0
   60.1530   33.6699   49.7954 H   0  0  0  0  0  0  0  0  0  0  0  0
   61.9500   34.5950   49.0690 C   0  0  0  0  0  0  0  0  0  0  0  0
   62.2129   35.3727   48.3368 H   0  0  0  0  0  0  0  0  0  0  0  0
   62.1026   34.9814   50.0875 H   0  0  0  0  0  0  0  0  0  0  0  0
   62.8070   33.4150   48.8600 N   0  0  0  0  0  0  0  0  0  0  0  0
   63.8250   33.0700   49.8210 C   0  0  0  0  0  0  0  0  0  0  0  0
   64.1780   33.9170   50.6870 O   0  0  0  0  0  0  0  0  0  0  0  0
   64.4540   31.6920   49.8570 C   0  0  1  0  0  0  0  0  0  0  0  0
   64.0961   31.1386   48.9763 H   0  0  0  0  0  0  0  0  0  0  0  0
   65.8660   31.7950   49.8170 O   0  0  0  0  0  0  0  0  0  0  0  0
   66.3740   31.2270   51.0020 C   0  0  0  0  0  0  0  0  0  0  0  0
   67.1356   31.8947   51.4311 H   0  0  0  0  0  0  0  0  0  0  0  0
   66.8271   30.2507   50.7749 H   0  0  0  0  0  0  0  0  0  0  0  0
   65.2510   31.0410   51.9950 C   0  0  0  0  0  0  0  0  0  0  0  0
   65.1740   31.9048   52.6716 H   0  0  0  0  0  0  0  0  0  0  0  0
   65.3904   30.1682   52.6498 H   0  0  0  0  0  0  0  0  0  0  0  0
   64.0460   30.9350   51.1200 C   0  0  0  0  0  0  0  0  0  0  0  0
   63.1725   31.4053   51.5952 H   0  0  0  0  0  0  0  0  0  0  0  0
   63.7527   29.8940   50.9194 H   0  0  0  0  0  0  0  0  0  0  0  0
   62.6450   32.6240   47.6250 C   0  0  0  0  0  0  0  0  0  0  0  0
   63.5433   32.7474   47.0022 H   0  0  0  0  0  0  0  0  0  0  0  0
   62.5036   31.5706   47.9085 H   0  0  0  0  0  0  0  0  0  0  0  0
   61.4200   33.0710   46.8230 C   0  0  0  0  0  0  0  0  0  0  0  0
   61.6532   34.0019   46.2853 H   0  0  0  0  0  0  0  0  0  0  0  0
   61.1493   32.2882   46.0992 H   0  0  0  0  0  0  0  0  0  0  0  0
   58.9830   30.2070   46.8220 C   0  0  0  0  0  0  0  0  0  0  0  0
   59.2850   29.6400   47.9960 C   0  0  0  0  0  0  0  0  0  0  0  0
   59.5050   30.2699   48.8706 H   0  0  0  0  0  0  0  0  0  0  0  0
   59.3133   28.5441   48.0864 H   0  0  0  0  0  0  0  0  0  0  0  0
  1  2  1  0
  2  3  1  0
  3  4  1  0
  4  5  1  0
  5  6  2  0
  5  7  1  0
  7  8  1  0
  8  9  1  0
  9 10  1  0
  9 11  2  0
 11 12  1  0
 12 13  1  0
 12 14  2  0
 14 15  1  0
 15 16  1  0
 15 17  1  0
 15 18  1  0
 14 19  1  0
 19 20  1  0
 20 21  2  0
 20 22  1  0
 22 23  1  0
 23 24  1  0
 23 25  1  0
 23 26  1  0
 26 27  1  0
 26 28  1  0
 26 29  1  0
 29 30  1  0
 30 31  2  0
 30 32  1  0
 32 33  1  6
 32 34  1  0
 34 35  1  0
 35 36  1  0
 35 37  1  0
 35 38  1  0
 38 39  1  0
 38 40  1  0
 38 41  1  0
 41 42  1  0
 41 43  1  0
 29 44  1  0
 44 45  1  0
 44 46  1  0
 44 47  1  0
 47 48  1  0
 47 49  1  0
 19 50  1  0
 50 51  2  0
 51 52  1  0
 51 53  1  0
  8  3  2  0
 50 11  1  0
 47 22  1  0
 41 32  1  0
M  CHG  2   4  -1   7  -1
M  END
>  <UniqueID>  (70) 
69

>  <SMILES>  (70) 
C=c1/c(=C/c2[n-]c(=O)[n-]c2O)cc(C)n1C(=O)N1CCN(C(=O)[C@@H]2CCCO2)CC1

>  <Energy>  (70) 
126.95994039738862

>  <Genealogy>  (70) 
C=c1c(=Cc2[n-]c(=O)[n-]c2O)cc(C)n1C(=O)N1CCN(C(=O)C2CCCO2)CC1 (protonated)
C=c1c(=Cc2[n-]c(=O)[n-]c2O)cc(C)n1C(=O)N1CCN(C(=O)[C@@H]2CCCO2)CC1 (chirality)
C=c1/c(=C/c2[n-]c(=O)[n-]c2O)cc(C)n1C(=O)N1CCN(C(=O)[C@@H]2CCCO2)CC1 (cis-trans isomerization)
C=c1/c(=C/c2[n-]c(=O)[n-]c2O)cc(C)n1C(=O)N1CCN(C(=O)[C@@H]2CCCO2)CC1 (3D coordinates assigned)
C=c1/c(=C/c2[n-]c(=O)[n-]c2O)cc(C)n1C(=O)N1CCN(C(=O)[C@@H]2CCCO2)CC1 (nonaromatic ring conformer: 126.95994039738862 kcal/mol)

>  <smiles>  (70) 
C=c1c(=Cc2[nH]c(=O)[nH]c2O)cc(C)n1C(=O)N1CCN(C(=O)C2CCCO2)CC1

>  <score_type>  (70) 
oracle

>  <origin>  (70) 
adg

>  <m_score__min__energy>  (70) 
-13.210000000000001

>  <m_primary>  (70) 
energy

$$$$
70:0
     RDKit          3D

 58 61  0  0  0  0  0  0  0  0999 V2000
   60.0760   29.9310   47.3860 C   0  0  0  0  0  0  0  0  0  0  0  0
   59.2010   30.2970   46.4350 C   0  0  0  0  0  0  0  0  0  0  0  0
   58.6640   29.4720   45.4350 C   0  0  0  0  0  0  0  0  0  0  0  0
   58.6570   28.1320   45.3020 C   0  0  0  0  0  0  0  0  0  0  0  0
   57.5640   27.2350   45.7130 C   0  0  0  0  0  0  0  0  0  0  0  0
   57.7260   26.0930   46.4080 N   0  0  0  0  0  0  0  0  0  0  0  0
   56.4600   25.7020   46.6650 C   0  0  0  0  0  0  0  0  0  0  0  0
   56.1920   24.6460   47.2960 O   0  0  0  0  0  0  0  0  0  0  0  0
   55.5050   26.5360   46.2040 N   0  0  0  0  0  0  0  0  0  0  0  0
   56.2210   27.5080   45.6160 C   0  0  0  0  0  0  0  0  0  0  0  0
   55.6630   28.6260   45.0060 O   0  0  0  0  0  0  0  0  0  0  0  0
   58.0670   30.3170   44.5150 C   0  0  0  0  0  0  0  0  0  0  0  0
   58.1850   31.5980   45.0120 C   0  0  0  0  0  0  0  0  0  0  0  0
   57.6260   32.8170   44.3410 C   0  0  0  0  0  0  0  0  0  0  0  0
   58.8670   31.5910   46.1810 N   0  0  0  0  0  0  0  0  0  0  0  0
   59.1770   32.7520   46.9770 C   0  0  0  0  0  0  0  0  0  0  0  0
   58.4010   33.1010   47.9070 O   0  0  0  0  0  0  0  0  0  0  0  0
   60.3860   33.4820   46.7310 N   0  0  0  0  0  0  0  0  0  0  0  0
   61.6490   33.2960   47.3850 C   0  0  0  0  0  0  0  0  0  0  0  0
   62.8680   33.6080   46.7590 C   0  0  0  0  0  0  0  0  0  0  0  0
   64.0770   33.3870   47.4230 C   0  0  0  0  0  0  0  0  0  0  0  0
   64.0830   32.8440   48.7100 C   0  0  0  0  0  0  0  0  0  0  0  0
   62.8750   32.5140   49.3450 C   0  0  0  0  0  0  0  0  0  0  0  0
   62.8760   31.9100   50.6980 C   0  0  0  0  0  0  0  0  0  0  0  0
   63.9460   31.8990   51.3670 O   0  0  0  0  0  0  0  0  0  0  0  0
   61.6780   31.3560   51.2730 N   0  0  0  0  0  0  0  0  0  0  0  0
   60.8450   30.4240   50.5050 C   0  0  0  0  0  0  0  0  0  0  0  0
   59.3630   30.7010   50.7770 C   0  0  0  0  0  0  0  0  0  0  0  0
   59.0910   30.8530   52.2170 N   0  0  0  0  0  0  0  0  0  0  0  0
   57.7270   30.9570   52.6840 C   0  0  0  0  0  0  0  0  0  0  0  0
   56.5930   31.2090   51.7360 C   0  0  0  0  0  0  0  0  0  0  0  0
   57.4660   30.8220   53.9110 O   0  0  0  0  0  0  0  0  0  0  0  0
   60.1970   30.7640   53.1840 C   0  0  0  0  0  0  0  0  0  0  0  0
   61.4040   31.5790   52.7000 C   0  0  0  0  0  0  0  0  0  0  0  0
   61.6630   32.7260   48.6660 C   0  0  0  0  0  0  0  0  0  0  0  0
   60.4295   30.6687   48.1215 H   0  0  0  0  0  0  0  0  0  0  0  0
   60.4391   28.8936   47.4294 H   0  0  0  0  0  0  0  0  0  0  0  0
   59.5443   27.6674   44.8471 H   0  0  0  0  0  0  0  0  0  0  0  0
   54.7530   28.5720   44.5650 H   0  0  0  0  0  0  0  0  0  0  0  0
   57.5898   30.0228   43.5686 H   0  0  0  0  0  0  0  0  0  0  0  0
   57.2959   33.5369   45.1044 H   0  0  0  0  0  0  0  0  0  0  0  0
   58.4024   33.2785   43.7132 H   0  0  0  0  0  0  0  0  0  0  0  0
   56.7696   32.5298   43.7132 H   0  0  0  0  0  0  0  0  0  0  0  0
   62.8701   34.0278   45.7423 H   0  0  0  0  0  0  0  0  0  0  0  0
   65.0273   33.6414   46.9308 H   0  0  0  0  0  0  0  0  0  0  0  0
   65.0383   32.6742   49.2283 H   0  0  0  0  0  0  0  0  0  0  0  0
   61.0488   30.5526   49.4317 H   0  0  0  0  0  0  0  0  0  0  0  0
   61.0817   29.3935   50.8084 H   0  0  0  0  0  0  0  0  0  0  0  0
   59.0731   31.6276   50.2600 H   0  0  0  0  0  0  0  0  0  0  0  0
   58.7811   29.8438   50.4073 H   0  0  0  0  0  0  0  0  0  0  0  0
   55.6756   31.4129   52.3077 H   0  0  0  0  0  0  0  0  0  0  0  0
   56.8306   32.0763   51.1024 H   0  0  0  0  0  0  0  0  0  0  0  0
   56.4409   30.3227   51.1024 H   0  0  0  0  0  0  0  0  0  0  0  0
   59.8610   31.1572   54.1548 H   0  0  0  0  0  0  0  0  0  0  0  0
   60.4972   29.7105   53.2837 H   0  0  0  0  0  0  0  0  0  0  0  0
   61.1990   32.6478   52.8602 H   0  0  0  0  0  0  0  0  0  0  0  0
   62.2861   31.2550   53.2717 H   0  0  0  0  0  0  0  0  0  0  0  0
   60.7145   32.4415   49.1449 H   0  0  0  0  0  0  0  0  0  0  0  0
  1  2  2  0
  2  3  1  0
  3  4  2  3
  4  5  1  0
  5  6  1  0
  6  7  1  0
  7  8  2  0
  7  9  1  0
  9 10  1  0
 10 11  1  0
  3 12  1  0
 12 13  2  0
 13 14  1  0
 13 15  1  0
 15 16  1  0
 16 17  2  0
 16 18  1  0
 18 19  1  0
 19 20  2  0
 20 21  1  0
 21 22  2  0
 22 23  1  0
 23 24  1  0
 24 25  2  0
 24 26  1  0
 26 27  1  0
 27 28  1  0
 28 29  1  0
 29 30  1  0
 30 31  1  0
 30 32  2  0
 29 33  1  0
 33 34  1  0
 23 35  2  0
 15  2  1  0
 35 19  1  0
 10  5  2  0
 34 26  1  0
  1 36  1  0
  1 37  1  0
  4 38  1  0
 11 39  1  0
 12 40  1  0
 14 41  1  0
 14 42  1  0
 14 43  1  0
 20 44  1  0
 21 45  1  0
 22 46  1  0
 27 47  1  0
 27 48  1  0
 28 49  1  0
 28 50  1  0
 31 51  1  0
 31 52  1  0
 31 53  1  0
 33 54  1  0
 33 55  1  0
 34 56  1  0
 34 57  1  0
 35 58  1  0
M  CHG  3   6  -1   9  -1  18  -1
M  END
>  <UniqueID>  (71) 
70

>  <SMILES>  (71) 
C=c1c(=Cc2[n-]c(=O)[n-]c2O)cc(C)n1C(=O)[N-]c1cccc(C(=O)N2CCN(C(C)=O)CC2)c1

>  <Energy>  (71) 
140.64011765607725

>  <Genealogy>  (71) 
C=c1c(=Cc2[n-]c(=O)[n-]c2O)cc(C)n1C(=O)[N-]c1cccc(C(=O)N2CCN(C(C)=O)CC2)c1 (protonated)
C=c1c(=Cc2[n-]c(=O)[n-]c2O)cc(C)n1C(=O)[N-]c1cccc(C(=O)N2CCN(C(C)=O)CC2)c1 (3D coordinates assigned)
C=c1c(=Cc2[n-]c(=O)[n-]c2O)cc(C)n1C(=O)[N-]c1cccc(C(=O)N2CCN(C(C)=O)CC2)c1 (nonaromatic ring conformer: 140.64011765607725 kcal/mol)

>  <smiles>  (71) 
C=c1c(=Cc2[nH]c(=O)[nH]c2O)cc(C)n1C(=O)Nc1cccc(C(=O)N2CCN(C(C)=O)CC2)c1

>  <score_type>  (71) 
oracle

>  <origin>  (71) 
adg

>  <m_score__min__energy>  (71) 
-15.49

>  <m_primary>  (71) 
energy

$$$$
71:0
     RDKit          3D

 13 13  0  0  0  0  0  0  0  0999 V2000
   51.7620   29.3880   48.6170 C   0  0  0  0  0  0  0  0  0  0  0  0
   51.7780   30.1140   49.7320 C   0  0  0  0  0  0  0  0  0  0  0  0
   51.1600   31.3130   49.8390 N   0  0  0  0  0  0  0  0  0  0  0  0
   51.4270   31.6830   51.1060 C   0  0  0  0  0  0  0  0  0  0  0  0
   51.0240   32.7630   51.6170 O   0  0  0  0  0  0  0  0  0  0  0  0
   52.1870   30.7240   51.7370 C   0  0  0  0  0  0  0  0  0  0  0  0
   52.6390   30.7490   52.9900 C   0  0  0  0  0  0  0  0  0  0  0  0
   52.4090   29.7270   50.8640 N   0  0  0  0  0  0  0  0  0  0  0  0
   52.2814   28.4189   48.5842 H   0  0  0  0  0  0  0  0  0  0  0  0
   51.2293   29.7569   47.7281 H   0  0  0  0  0  0  0  0  0  0  0  0
   53.2405   29.9121   53.3745 H   0  0  0  0  0  0  0  0  0  0  0  0
   52.4107   31.6065   53.6400 H   0  0  0  0  0  0  0  0  0  0  0  0
   52.9510   28.8480   51.0250 H   0  0  0  0  0  0  0  0  0  0  0  0
  1  2  2  0
  2  3  1  0
  3  4  1  0
  4  5  2  0
  4  6  1  0
  6  7  2  0
  6  8  1  0
  8  2  1  0
  1  9  1  0
  1 10  1  0
  7 11  1  0
  7 12  1  0
  8 13  1  0
M  CHG  1   3  -1
M  END
>  <UniqueID>  (72) 
71

>  <SMILES>  (72) 
C=c1[n-]c(=O)c(=C)[nH]1

>  <Energy>  (72) 
41.33011223698047

>  <Genealogy>  (72) 
C=c1[n-]c(=O)c(=C)[nH]1 (protonated)
C=c1[n-]c(=O)c(=C)[nH]1 (3D coordinates assigned)
C=c1[n-]c(=O)c(=C)[nH]1 (optimized conformer: 41.33011223698047 kcal/mol)

>  <smiles>  (72) 
C=c1[nH]c(=C)c(=O)[nH]1

>  <score_type>  (72) 
oracle

>  <origin>  (72) 
adg

>  <m_score__min__energy>  (72) 
-6.3499999999999996

>  <m_primary>  (72) 
energy

$$$$
72:0
     RDKit          3D

 62 65  0  0  0  0  0  0  0  0999 V2000
   59.2727   34.0922   51.6483 H   0  0  0  0  0  0  0  0  0  0  0  0
   59.1910   33.0840   51.2160 C   0  0  0  0  0  0  0  0  0  0  0  0
   59.5754   32.8865   50.2044 H   0  0  0  0  0  0  0  0  0  0  0  0
   58.6270   32.1030   51.9170 C   0  0  0  0  0  0  0  0  0  0  0  0
   58.2487   32.3204   52.9268 H   0  0  0  0  0  0  0  0  0  0  0  0
   58.4920   30.7280   51.3820 C   0  0  0  0  0  0  0  0  0  0  0  0
   57.4180   30.0920   51.5590 O   0  0  0  0  0  0  0  0  0  0  0  0
   59.5790   30.0540   50.7260 N   0  0  0  0  0  0  0  0  0  0  0  0
   59.5140   29.3060   49.6640 C   0  0  0  0  0  0  0  0  0  0  0  0
   60.5120   28.4400   49.3430 N   0  0  0  0  0  0  0  0  0  0  0  0
   60.0380   27.8600   48.2300 C   0  0  0  0  0  0  0  0  0  0  0  0
   60.6520   26.8880   47.4540 C   0  0  0  0  0  0  0  0  0  0  0  0
   61.6389   26.4846   47.7248 H   0  0  0  0  0  0  0  0  0  0  0  0
   59.9710   26.4350   46.3090 C   0  0  0  0  0  0  0  0  0  0  0  0
   60.4357   25.6661   45.6743 H   0  0  0  0  0  0  0  0  0  0  0  0
   58.6900   26.9530   45.9550 C   0  0  0  0  0  0  0  0  0  0  0  0
   58.0320   26.5280   44.7300 N   0  0  0  0  0  0  0  0  0  0  0  0
   58.1260   27.4100   43.5460 C   0  0  0  0  0  0  0  0  0  0  0  0
   59.1603   27.3844   43.1725 H   0  0  0  0  0  0  0  0  0  0  0  0
   57.4080   27.0351   42.8018 H   0  0  0  0  0  0  0  0  0  0  0  0
   57.7590   28.8400   43.8400 C   0  0  0  0  0  0  0  0  0  0  0  0
   56.5270   29.3550   43.4050 C   0  0  0  0  0  0  0  0  0  0  0  0
   55.8494   28.7255   42.8094 H   0  0  0  0  0  0  0  0  0  0  0  0
   56.1600   30.6600   43.7250 C   0  0  0  0  0  0  0  0  0  0  0  0
   55.1866   31.0523   43.3954 H   0  0  0  0  0  0  0  0  0  0  0  0
   57.0240   31.4720   44.4630 C   0  0  0  0  0  0  0  0  0  0  0  0
   56.7204   32.4968   44.7229 H   0  0  0  0  0  0  0  0  0  0  0  0
   58.2800   30.9900   44.8770 C   0  0  0  0  0  0  0  0  0  0  0  0
   59.2120   31.8590   45.6390 C   0  0  0  0  0  0  0  0  0  0  0  0
   59.4180   33.0430   45.2540 O   0  0  0  0  0  0  0  0  0  0  0  0
   59.8540   31.3770   46.8320 N   0  0  0  0  0  0  0  0  0  0  0  0
   59.3370   30.6770   47.4140 H   0  0  0  0  0  0  0  0  0  0  0  0
   60.9840   32.0280   47.4370 C   0  0  0  0  0  0  0  0  0  0  0  0
   62.2320   31.3850   47.4070 C   0  0  0  0  0  0  0  0  0  0  0  0
   62.3220   30.3901   46.9464 H   0  0  0  0  0  0  0  0  0  0  0  0
   63.3600   31.9980   47.9570 C   0  0  0  0  0  0  0  0  0  0  0  0
   64.3305   31.4805   47.9377 H   0  0  0  0  0  0  0  0  0  0  0  0
   63.2580   33.2660   48.5310 C   0  0  0  0  0  0  0  0  0  0  0  0
   64.1456   33.7427   48.9725 H   0  0  0  0  0  0  0  0  0  0  0  0
   62.0310   33.9290   48.5450 C   0  0  0  0  0  0  0  0  0  0  0  0
   61.9562   34.9311   48.9926 H   0  0  0  0  0  0  0  0  0  0  0  0
   60.8920   33.3260   47.9920 C   0  0  0  0  0  0  0  0  0  0  0  0
   59.2810   34.3620   47.9190 Br  0  0  0  0  0  0  0  0  0  0  0  0
   58.6310   29.6610   44.5720 C   0  0  0  0  0  0  0  0  0  0  0  0
   59.5985   29.2620   44.9108 H   0  0  0  0  0  0  0  0  0  0  0  0
   57.7710   25.0810   44.5480 C   0  0  0  0  0  0  0  0  0  0  0  0
   57.4464   24.9168   43.5099 H   0  0  0  0  0  0  0  0  0  0  0  0
   58.7081   24.5578   44.7891 H   0  0  0  0  0  0  0  0  0  0  0  0
   56.6830   24.5070   45.4950 C   0  0  0  0  0  0  0  0  0  0  0  0
   56.1298   23.7586   44.9087 H   0  0  0  0  0  0  0  0  0  0  0  0
   57.3420   23.8520   46.7150 C   0  0  0  0  0  0  0  0  0  0  0  0
   56.9144   24.2770   47.6351 H   0  0  0  0  0  0  0  0  0  0  0  0
   57.1590   22.7676   46.6925 H   0  0  0  0  0  0  0  0  0  0  0  0
   58.4253   24.0416   46.6925 H   0  0  0  0  0  0  0  0  0  0  0  0
   55.6510   25.5440   45.9540 C   0  0  0  0  0  0  0  0  0  0  0  0
   55.6232   25.5719   47.0533 H   0  0  0  0  0  0  0  0  0  0  0  0
   55.9313   26.5356   45.5690 H   0  0  0  0  0  0  0  0  0  0  0  0
   54.6581   25.2685   45.5690 H   0  0  0  0  0  0  0  0  0  0  0  0
   58.1040   27.9440   46.7940 C   0  0  0  0  0  0  0  0  0  0  0  0
   57.1165   28.3685   46.5602 H   0  0  0  0  0  0  0  0  0  0  0  0
   58.8130   28.3620   47.9180 C   0  0  0  0  0  0  0  0  0  0  0  0
   58.4450   29.2850   48.8190 N   0  0  0  0  0  0  0  0  0  0  0  0
  1  2  1  0
  2  3  1  0
  2  4  2  0
  4  5  1  0
  4  6  1  0
  6  7  2  0
  6  8  1  0
  8  9  2  0
  9 10  1  0
 10 11  1  0
 11 12  2  0
 12 13  1  0
 12 14  1  0
 14 15  1  0
 14 16  2  0
 16 17  1  0
 17 18  1  0
 18 19  1  0
 18 20  1  0
 18 21  1  0
 21 22  2  0
 22 23  1  0
 22 24  1  0
 24 25  1  0
 24 26  2  0
 26 27  1  0
 26 28  1  0
 28 29  1  0
 29 30  2  0
 29 31  1  0
 31 32  1  0
 31 33  1  0
 33 34  2  0
 34 35  1  0
 34 36  1  0
 36 37  1  0
 36 38  2  0
 38 39  1  0
 38 40  1  0
 40 41  1  0
 40 42  2  0
 42 43  1  0
 28 44  2  0
 44 45  1  0
 17 46  1  0
 46 47  1  0
 46 48  1  0
 46 49  1  0
 49 50  1  0
 49 51  1  0
 51 52  1  0
 51 53  1  0
 51 54  1  0
 49 55  1  0
 55 56  1  0
 55 57  1  0
 55 58  1  0
 16 59  1  0
 59 60  1  0
 59 61  2  0
 61 62  1  0
 62  9  1  0
 61 11  1  0
 44 21  1  0
 42 33  1  0
M  CHG  2  10  -1  62  -1
M  END
>  <UniqueID>  (73) 
72

>  <SMILES>  (73) 
C=CC(=O)/N=c1/[n-]c2ccc(N(Cc3cccc(C(=O)Nc4ccccc4Br)c3)CC(C)C)cc2[n-]1

>  <Energy>  (73) 
114.63618882176249

>  <Genealogy>  (73) 
C=CC(=O)N=c1[n-]c2ccc(N(Cc3cccc(C(=O)Nc4ccccc4Br)c3)CC(C)C)cc2[n-]1 (protonated)
C=CC(=O)/N=c1/[n-]c2ccc(N(Cc3cccc(C(=O)Nc4ccccc4Br)c3)CC(C)C)cc2[n-]1 (cis-trans isomerization)
C=CC(=O)/N=c1/[n-]c2ccc(N(Cc3cccc(C(=O)Nc4ccccc4Br)c3)CC(C)C)cc2[n-]1 (3D coordinates assigned)
C=CC(=O)/N=c1/[n-]c2ccc(N(Cc3cccc(C(=O)Nc4ccccc4Br)c3)CC(C)C)cc2[n-]1 (optimized conformer: 114.63618882176249 kcal/mol)

>  <smiles>  (73) 
C=CC(=O)N=c1[nH]c2ccc(N(Cc3cccc(C(=O)Nc4ccccc4Br)c3)CC(C)C)cc2[nH]1

>  <score_type>  (73) 
oracle

>  <origin>  (73) 
adg

>  <m_score__min__energy>  (73) 
-13.51

>  <m_primary>  (73) 
energy

$$$$
73:0
     RDKit          3D

 42 45  0  0  0  0  0  0  0  0999 V2000
   57.8410   31.9220   42.2980 C   0  0  0  0  0  0  0  0  0  0  0  0
   57.9960   32.6740   43.5780 C   0  0  0  0  0  0  0  0  0  0  0  0
   58.7970   33.7450   43.7440 N   0  0  0  0  0  0  0  0  0  0  0  0
   58.7270   34.0460   45.0600 C   0  0  0  0  0  0  0  0  0  0  0  0
   59.5450   35.1280   45.6930 C   0  0  0  0  0  0  0  0  0  0  0  0
   57.9240   33.1900   45.7370 N   0  0  0  0  0  0  0  0  0  0  0  0
   57.6760   33.1390   47.1800 C   0  0  0  0  0  0  0  0  0  0  0  0
   58.9710   33.0210   47.9310 C   0  0  0  0  0  0  0  0  0  0  0  0
   59.1840   33.7930   48.9050 O   0  0  0  0  0  0  0  0  0  0  0  0
   60.0020   32.1100   47.5200 N   0  0  0  0  0  0  0  0  0  0  0  0
   61.3740   32.5110   47.6930 C   0  0  0  0  0  0  0  0  0  0  0  0
   61.9100   33.5660   46.9390 C   0  0  0  0  0  0  0  0  0  0  0  0
   63.2770   33.8500   47.0020 C   0  0  0  0  0  0  0  0  0  0  0  0
   64.1180   33.0760   47.8090 C   0  0  0  0  0  0  0  0  0  0  0  0
   63.5900   32.0300   48.5720 C   0  0  0  0  0  0  0  0  0  0  0  0
   62.2180   31.7590   48.5280 C   0  0  0  0  0  0  0  0  0  0  0  0
   61.5000   30.5180   49.6100 S   0  0  0  0  0  0  0  0  0  0  0  0
   60.4690   29.8270   48.3110 C   0  0  0  0  0  0  0  0  0  0  0  0
   60.3700   28.4410   48.1580 C   0  0  0  0  0  0  0  0  0  0  0  0
   59.5240   27.9050   47.1830 C   0  0  0  0  0  0  0  0  0  0  0  0
   59.3890   26.1650   46.9980 Cl  0  0  0  0  0  0  0  0  0  0  0  0
   58.7910   28.7560   46.3500 C   0  0  0  0  0  0  0  0  0  0  0  0
   58.9070   30.1430   46.4840 C   0  0  0  0  0  0  0  0  0  0  0  0
   59.7370   30.6930   47.4740 C   0  0  0  0  0  0  0  0  0  0  0  0
   57.4780   32.3270   44.8050 C   0  0  0  0  0  0  0  0  0  0  0  0
   56.6440   31.2440   45.0600 O   0  0  0  0  0  0  0  0  0  0  0  0
   57.6234   30.8662   42.5170 H   0  0  0  0  0  0  0  0  0  0  0  0
   57.0130   32.3541   41.7168 H   0  0  0  0  0  0  0  0  0  0  0  0
   58.7723   31.9915   41.7168 H   0  0  0  0  0  0  0  0  0  0  0  0
   59.3770   34.2170   43.0150 H   0  0  0  0  0  0  0  0  0  0  0  0
   59.4809   35.0432   46.7879 H   0  0  0  0  0  0  0  0  0  0  0  0
   60.5941   35.0263   45.3782 H   0  0  0  0  0  0  0  0  0  0  0  0
   59.1612   36.1096   45.3782 H   0  0  0  0  0  0  0  0  0  0  0  0
   57.1591   34.0587   47.4914 H   0  0  0  0  0  0  0  0  0  0  0  0
   57.0530   32.2604   47.4037 H   0  0  0  0  0  0  0  0  0  0  0  0
   61.2528   34.1709   46.2969 H   0  0  0  0  0  0  0  0  0  0  0  0
   63.6923   34.6833   46.4162 H   0  0  0  0  0  0  0  0  0  0  0  0
   65.1963   33.2907   47.8433 H   0  0  0  0  0  0  0  0  0  0  0  0
   64.2519   31.4214   49.2056 H   0  0  0  0  0  0  0  0  0  0  0  0
   60.9576   27.7726   48.8046 H   0  0  0  0  0  0  0  0  0  0  0  0
   58.1211   28.3330   45.5869 H   0  0  0  0  0  0  0  0  0  0  0  0
   58.3451   30.8067   45.8103 H   0  0  0  0  0  0  0  0  0  0  0  0
  1  2  1  0
  2  3  1  0
  3  4  2  0
  4  5  1  0
  4  6  1  0
  6  7  1  0
  7  8  1  0
  8  9  2  0
  8 10  1  0
 10 11  1  0
 11 12  2  0
 12 13  1  0
 13 14  2  0
 14 15  1  0
 15 16  2  0
 16 17  1  0
 17 18  1  0
 18 19  2  0
 19 20  1  0
 20 21  1  0
 20 22  2  0
 22 23  1  0
 23 24  2  0
  6 25  1  0
 25 26  1  0
 25  2  2  0
 24 10  1  0
 16 11  1  0
 24 18  1  0
  1 27  1  0
  1 28  1  0
  1 29  1  0
  3 30  1  0
  5 31  1  0
  5 32  1  0
  5 33  1  0
  7 34  1  0
  7 35  1  0
 12 36  1  0
 13 37  1  0
 14 38  1  0
 15 39  1  0
 19 40  1  0
 22 41  1  0
 23 42  1  0
M  CHG  2   3   1  26  -1
M  END
>  <UniqueID>  (74) 
73

>  <SMILES>  (74) 
Cc1[nH+]c(C)n(CC(=O)N2c3ccccc3Sc3cc(Cl)ccc32)c1[O-]

>  <Energy>  (74) 
100.64509647283334

>  <Genealogy>  (74) 
Cc1[nH+]c(C)n(CC(=O)N2c3ccccc3Sc3cc(Cl)ccc32)c1[O-] (protonated)
Cc1[nH+]c(C)n(CC(=O)N2c3ccccc3Sc3cc(Cl)ccc32)c1[O-] (3D coordinates assigned)
Cc1[nH+]c(C)n(CC(=O)N2c3ccccc3Sc3cc(Cl)ccc32)c1[O-] (nonaromatic ring conformer: 100.64509647283334 kcal/mol)

>  <smiles>  (74) 
Cc1nc(C)n(CC(=O)N2c3ccccc3Sc3cc(Cl)ccc32)c1O

>  <score_type>  (74) 
oracle

>  <origin>  (74) 
adg

>  <m_score__min__energy>  (74) 
-9.3900000000000006

>  <m_primary>  (74) 
energy

$$$$
74:0
     RDKit          3D

 54 57  0  0  0  0  0  0  0  0999 V2000
   56.9130   26.8760   46.7770 O   0  0  0  0  0  0  0  0  0  0  0  0
   57.1950   27.0900   45.5660 C   0  0  0  0  0  0  0  0  0  0  0  0
   57.1860   25.9970   44.6340 N   0  0  0  0  0  0  0  0  0  0  0  0
   57.2360   24.6260   45.0580 C   0  0  0  0  0  0  0  0  0  0  0  0
   58.4890   24.0270   45.2570 C   0  0  0  0  0  0  0  0  0  0  0  0
   58.5820   22.6840   45.6310 C   0  0  0  0  0  0  0  0  0  0  0  0
   57.4250   21.9300   45.8240 C   0  0  0  0  0  0  0  0  0  0  0  0
   56.1690   22.5200   45.6590 C   0  0  0  0  0  0  0  0  0  0  0  0
   56.0570   23.8700   45.2800 C   0  0  0  0  0  0  0  0  0  0  0  0
   54.7110   24.4900   45.2190 C   0  0  0  0  0  0  0  0  0  0  0  0
   54.4690   25.5000   45.9310 O   0  0  0  0  0  0  0  0  0  0  0  0
   53.6420   23.9310   44.4380 N   0  0  0  0  0  0  0  0  0  0  0  0
   52.5020   23.4850   44.8850 C   0  0  0  0  0  0  0  0  0  0  0  0
   51.3270   24.1860   44.5880 C   0  0  0  0  0  0  0  0  0  0  0  0
   50.1020   23.7010   45.0490 C   0  0  0  0  0  0  0  0  0  0  0  0
   50.0570   22.5200   45.7940 C   0  0  0  0  0  0  0  0  0  0  0  0
   51.2460   21.8400   46.0660 C   0  0  0  0  0  0  0  0  0  0  0  0
   52.4290   22.3300   45.6080 N   0  0  0  0  0  0  0  0  0  0  0  0
   57.5180   28.4650   45.1220 C   0  0  0  0  0  0  0  0  0  0  0  0
   58.6480   29.1400   45.6220 C   0  0  0  0  0  0  0  0  0  0  0  0
   58.9230   30.4510   45.2270 C   0  0  0  0  0  0  0  0  0  0  0  0
   58.0770   31.1130   44.3250 C   0  0  0  0  0  0  0  0  0  0  0  0
   58.3210   32.5560   43.9800 C   0  0  0  0  0  0  0  0  0  0  0  0
   57.8300   33.6060   45.3390 S   0  0  0  0  0  0  0  0  0  0  0  0
   56.6410   33.0030   46.0330 O   0  0  0  0  0  0  0  0  0  0  0  0
   57.4420   34.9610   44.8150 O   0  0  0  0  0  0  0  0  0  0  0  0
   59.1630   33.7700   46.4800 C   0  0  0  0  0  0  0  0  0  0  0  0
   60.4900   33.7560   46.0220 C   0  0  0  0  0  0  0  0  0  0  0  0
   61.5480   33.8350   46.9330 C   0  0  0  0  0  0  0  0  0  0  0  0
   61.2860   33.9280   48.3040 C   0  0  0  0  0  0  0  0  0  0  0  0
   59.9670   33.9360   48.7650 C   0  0  0  0  0  0  0  0  0  0  0  0
   58.9060   33.8530   47.8560 C   0  0  0  0  0  0  0  0  0  0  0  0
   56.9470   30.4480   43.8280 C   0  0  0  0  0  0  0  0  0  0  0  0
   56.6700   29.1360   44.2230 C   0  0  0  0  0  0  0  0  0  0  0  0
   56.9300   26.1920   43.6400 H   0  0  0  0  0  0  0  0  0  0  0  0
   59.4053   24.6193   45.1175 H   0  0  0  0  0  0  0  0  0  0  0  0
   59.5695   22.2207   45.7734 H   0  0  0  0  0  0  0  0  0  0  0  0
   57.5010   20.8696   46.1064 H   0  0  0  0  0  0  0  0  0  0  0  0
   55.2601   21.9236   45.8269 H   0  0  0  0  0  0  0  0  0  0  0  0
   51.3689   25.1120   43.9958 H   0  0  0  0  0  0  0  0  0  0  0  0
   49.1738   24.2476   44.8261 H   0  0  0  0  0  0  0  0  0  0  0  0
   49.0964   22.1304   46.1620 H   0  0  0  0  0  0  0  0  0  0  0  0
   51.2257   20.9084   46.6505 H   0  0  0  0  0  0  0  0  0  0  0  0
   59.3193   28.6308   46.3292 H   0  0  0  0  0  0  0  0  0  0  0  0
   59.8085   30.9677   45.6257 H   0  0  0  0  0  0  0  0  0  0  0  0
   59.3913   32.7045   43.7742 H   0  0  0  0  0  0  0  0  0  0  0  0
   57.7281   32.8180   43.0913 H   0  0  0  0  0  0  0  0  0  0  0  0
   60.6980   33.6827   44.9443 H   0  0  0  0  0  0  0  0  0  0  0  0
   62.5868   33.8240   46.5714 H   0  0  0  0  0  0  0  0  0  0  0  0
   62.1188   33.9949   49.0195 H   0  0  0  0  0  0  0  0  0  0  0  0
   59.7623   34.0076   49.8434 H   0  0  0  0  0  0  0  0  0  0  0  0
   57.8686   33.8529   48.2217 H   0  0  0  0  0  0  0  0  0  0  0  0
   56.2754   30.9611   43.1240 H   0  0  0  0  0  0  0  0  0  0  0  0
   55.7807   28.6238   43.8270 H   0  0  0  0  0  0  0  0  0  0  0  0
  1  2  2  0
  2  3  1  0
  3  4  1  0
  4  5  2  0
  5  6  1  0
  6  7  2  0
  7  8  1  0
  8  9  2  0
  9 10  1  0
 10 11  2  0
 10 12  1  0
 12 13  2  3
 13 14  1  0
 14 15  2  0
 15 16  1  0
 16 17  2  0
 17 18  1  0
  2 19  1  0
 19 20  2  0
 20 21  1  0
 21 22  2  0
 22 23  1  0
 23 24  1  0
 24 25  2  0
 24 26  2  0
 24 27  1  0
 27 28  2  0
 28 29  1  0
 29 30  2  0
 30 31  1  0
 31 32  2  0
 22 33  1  0
 33 34  2  0
  9  4  1  0
 18 13  1  0
 34 19  1  0
 32 27  1  0
  3 35  1  0
  5 36  1  0
  6 37  1  0
  7 38  1  0
  8 39  1  0
 14 40  1  0
 15 41  1  0
 16 42  1  0
 17 43  1  0
 20 44  1  0
 21 45  1  0
 23 46  1  0
 23 47  1  0
 28 48  1  0
 29 49  1  0
 30 50  1  0
 31 51  1  0
 32 52  1  0
 33 53  1  0
 34 54  1  0
M  CHG  1  18  -1
M  END
>  <UniqueID>  (75) 
74

>  <SMILES>  (75) 
O=C(Nc1ccccc1C(=O)N=c1cccc[n-]1)c1ccc(CS(=O)(=O)c2ccccc2)cc1

>  <Energy>  (75) 
70.45582269437112

>  <Genealogy>  (75) 
O=C(Nc1ccccc1C(=O)N=c1cccc[n-]1)c1ccc(CS(=O)(=O)c2ccccc2)cc1 (protonated)
O=C(Nc1ccccc1C(=O)N=c1cccc[n-]1)c1ccc(CS(=O)(=O)c2ccccc2)cc1 (3D coordinates assigned)
O=C(Nc1ccccc1C(=O)N=c1cccc[n-]1)c1ccc(CS(=O)(=O)c2ccccc2)cc1 (optimized conformer: 70.45582269437112 kcal/mol)

>  <smiles>  (75) 
O=C(Nc1ccccc1C(=O)N=c1cccc[nH]1)c1ccc(CS(=O)(=O)c2ccccc2)cc1

>  <score_type>  (75) 
oracle

>  <origin>  (75) 
adg

>  <m_score__min__energy>  (75) 
-12.43

>  <m_primary>  (75) 
energy

$$$$
75:0
     RDKit          3D

 41 44  0  0  0  0  0  0  0  0999 V2000
   59.4478   34.4992   48.5906 H   0  0  0  0  0  0  0  0  0  0  0  0
   59.2410   34.3620   47.5190 C   0  0  0  0  0  0  0  0  0  0  0  0
   59.5640   35.3390   46.6350 N   0  0  0  0  0  0  0  0  0  0  0  0
   59.3090   35.1690   45.3130 C   0  0  0  0  0  0  0  0  0  0  0  0
   59.5702   35.9613   44.5960 H   0  0  0  0  0  0  0  0  0  0  0  0
   58.7320   34.0220   44.8760 N   0  0  0  0  0  0  0  0  0  0  0  0
   58.4050   33.0390   45.7570 C   0  0  0  0  0  0  0  0  0  0  0  0
   57.7760   31.7960   45.2700 C   0  0  0  0  0  0  0  0  0  0  0  0
   57.9280   30.6470   45.9830 N   0  0  0  0  0  0  0  0  0  0  0  0
   57.3730   29.4750   45.5740 C   0  0  0  0  0  0  0  0  0  0  0  0
   57.5290   28.4110   46.3070 N   0  0  0  0  0  0  0  0  0  0  0  0
   57.3480   27.0460   45.8980 C   0  0  0  0  0  0  0  0  0  0  0  0
   57.5870   26.7160   44.6010 N   0  0  0  0  0  0  0  0  0  0  0  0
   57.4070   25.4550   44.1260 C   0  0  0  0  0  0  0  0  0  0  0  0
   57.6274   25.2311   43.0718 H   0  0  0  0  0  0  0  0  0  0  0  0
   56.9410   24.4360   44.9740 C   0  0  0  0  0  0  0  0  0  0  0  0
   56.7470   23.0920   44.4800 N   0  0  0  0  0  0  0  0  0  0  0  0
   56.2770   22.8650   43.1070 C   0  0  0  0  0  0  0  0  0  0  0  0
   55.1787   22.9212   43.0852 H   0  0  0  0  0  0  0  0  0  0  0  0
   56.7062   23.6353   42.4493 H   0  0  0  0  0  0  0  0  0  0  0  0
   56.7230   21.4830   42.6150 C   0  0  0  0  0  0  0  0  0  0  0  0
   56.3188   21.3200   41.6050 H   0  0  0  0  0  0  0  0  0  0  0  0
   57.8229   21.4650   42.6163 H   0  0  0  0  0  0  0  0  0  0  0  0
   56.2540   20.3960   43.4940 N   0  0  0  0  0  0  0  0  0  0  0  0
   56.9090   19.5870   43.3820 H   0  0  0  0  0  0  0  0  0  0  0  0
   56.1700   20.7420   44.9270 C   0  0  0  0  0  0  0  0  0  0  0  0
   55.1257   20.9935   45.1639 H   0  0  0  0  0  0  0  0  0  0  0  0
   56.5270   19.8686   45.4925 H   0  0  0  0  0  0  0  0  0  0  0  0
   57.0570   21.9290   45.3220 C   0  0  0  0  0  0  0  0  0  0  0  0
   56.8752   22.1842   46.3764 H   0  0  0  0  0  0  0  0  0  0  0  0
   58.1124   21.6529   45.1808 H   0  0  0  0  0  0  0  0  0  0  0  0
   56.6590   24.7630   46.3110 C   0  0  0  0  0  0  0  0  0  0  0  0
   56.2852   23.9885   46.9969 H   0  0  0  0  0  0  0  0  0  0  0  0
   56.8510   26.0660   46.7730 C   0  0  0  0  0  0  0  0  0  0  0  0
   56.6146   26.3239   47.8159 H   0  0  0  0  0  0  0  0  0  0  0  0
   56.6310   29.4470   44.4330 N   0  0  0  0  0  0  0  0  0  0  0  0
   56.4510   30.5660   43.6860 C   0  0  0  0  0  0  0  0  0  0  0  0
   55.8532   30.5211   42.7637 H   0  0  0  0  0  0  0  0  0  0  0  0
   57.0230   31.7710   44.0870 C   0  0  0  0  0  0  0  0  0  0  0  0
   56.8870   32.6838   43.4885 H   0  0  0  0  0  0  0  0  0  0  0  0
   58.6630   33.2160   47.0810 N   0  0  0  0  0  0  0  0  0  0  0  0
  1  2  1  0
  2  3  2  0
  3  4  1  0
  4  5  1  0
  4  6  2  0
  6  7  1  0
  7  8  1  0
  8  9  2  0
  9 10  1  0
 10 11  2  0
 11 12  1  0
 12 13  2  0
 13 14  1  0
 14 15  1  0
 14 16  2  0
 16 17  1  0
 17 18  1  0
 18 19  1  0
 18 20  1  0
 18 21  1  0
 21 22  1  0
 21 23  1  0
 21 24  1  0
 24 25  1  0
 24 26  1  0
 26 27  1  0
 26 28  1  0
 26 29  1  0
 29 30  1  0
 29 31  1  0
 16 32  1  0
 32 33  1  0
 32 34  2  0
 34 35  1  0
 10 36  1  0
 36 37  1  0
 37 38  1  0
 37 39  2  0
 39 40  1  0
  7 41  2  0
 41  2  1  0
 39  8  1  0
 34 12  1  0
 29 17  1  0
M  CHG  1  36  -1
M  END
>  <UniqueID>  (76) 
75

>  <SMILES>  (76) 
c1ncnc(-c2cc[n-]/c(=N\c3ccc(N4CCNCC4)cn3)n2)n1

>  <Energy>  (76) 
62.107872818884516

>  <Genealogy>  (76) 
c1ncnc(-c2cc[n-]c(=Nc3ccc(N4CCNCC4)cn3)n2)n1 (protonated)
c1ncnc(-c2cc[n-]/c(=N\c3ccc(N4CCNCC4)cn3)n2)n1 (cis-trans isomerization)
c1ncnc(-c2cc[n-]/c(=N\c3ccc(N4CCNCC4)cn3)n2)n1 (3D coordinates assigned)
c1ncnc(-c2cc[n-]/c(=N\c3ccc(N4CCNCC4)cn3)n2)n1 (nonaromatic ring conformer: 62.107872818884516 kcal/mol)

>  <smiles>  (76) 
c1ncnc(-c2cc[nH]c(=Nc3ccc(N4CCNCC4)cn3)n2)n1

>  <score_type>  (76) 
oracle

>  <origin>  (76) 
adg

>  <m_score__min__energy>  (76) 
-9.7100000000000009

>  <m_primary>  (76) 
energy

$$$$
76:0
     RDKit          3D

 50 52  0  0  0  0  0  0  0  0999 V2000
   60.1027   31.5382   52.5949 H   0  0  0  0  0  0  0  0  0  0  0  0
   59.7560   31.5260   51.5510 C   0  0  0  0  0  0  0  0  0  0  0  0
   59.1807   32.3747   51.1526 H   0  0  0  0  0  0  0  0  0  0  0  0
   60.0330   30.4830   50.7690 C   0  0  0  0  0  0  0  0  0  0  0  0
   60.6100   29.6485   51.1940 H   0  0  0  0  0  0  0  0  0  0  0  0
   59.6030   30.3940   49.3610 C   0  0  0  0  0  0  0  0  0  0  0  0
   58.5210   30.9470   49.0260 O   0  0  0  0  0  0  0  0  0  0  0  0
   60.4160   29.7440   48.3670 N   0  0  0  0  0  0  0  0  0  0  0  0
   61.4510   29.7310   48.5100 H   0  0  0  0  0  0  0  0  0  0  0  0
   59.9040   29.2680   47.1110 C   0  0  0  0  0  0  0  0  0  0  0  0
   60.7640   29.1730   46.0060 C   0  0  0  0  0  0  0  0  0  0  0  0
   61.8187   29.4682   46.1080 H   0  0  0  0  0  0  0  0  0  0  0  0
   60.2900   28.7060   44.7770 C   0  0  0  0  0  0  0  0  0  0  0  0
   60.9692   28.6446   43.9139 H   0  0  0  0  0  0  0  0  0  0  0  0
   58.9550   28.3170   44.6430 C   0  0  0  0  0  0  0  0  0  0  0  0
   58.5828   27.9615   43.6708 H   0  0  0  0  0  0  0  0  0  0  0  0
   58.0870   28.3780   45.7440 C   0  0  0  0  0  0  0  0  0  0  0  0
   56.6450   27.9730   45.5890 C   0  0  0  0  0  0  0  0  0  0  0  0
   56.5921   27.0352   45.0164 H   0  0  0  0  0  0  0  0  0  0  0  0
   56.2059   27.8334   46.5878 H   0  0  0  0  0  0  0  0  0  0  0  0
   55.8930   29.0110   44.8830 N   0  0  0  0  0  0  0  0  0  0  0  0
   56.4200   30.0580   44.3210 C   0  0  0  0  0  0  0  0  0  0  0  0
   56.8820   31.0700   45.0990 N   0  0  0  0  0  0  0  0  0  0  0  0
   57.4390   32.1950   44.5670 C   0  0  0  0  0  0  0  0  0  0  0  0
   57.9210   33.2380   45.4520 N   0  0  0  0  0  0  0  0  0  0  0  0
   58.3090   34.5280   44.8700 C   0  0  0  0  0  0  0  0  0  0  0  0
   58.5244   35.2442   45.6766 H   0  0  0  0  0  0  0  0  0  0  0  0
   59.2068   34.3947   44.2486 H   0  0  0  0  0  0  0  0  0  0  0  0
   57.4866   34.9121   44.2486 H   0  0  0  0  0  0  0  0  0  0  0  0
   58.0270   33.0440   46.9100 C   0  0  0  0  0  0  0  0  0  0  0  0
   57.3598   33.7566   47.4171 H   0  0  0  0  0  0  0  0  0  0  0  0
   57.7384   32.0095   47.1476 H   0  0  0  0  0  0  0  0  0  0  0  0
   59.4400   33.2690   47.3840 C   0  0  0  0  0  0  0  0  0  0  0  0
   59.6920   34.0390   48.5320 C   0  0  0  0  0  0  0  0  0  0  0  0
   58.8544   34.4943   49.0807 H   0  0  0  0  0  0  0  0  0  0  0  0
   61.0030   34.2290   48.9800 C   0  0  0  0  0  0  0  0  0  0  0  0
   61.1944   34.8403   49.8743 H   0  0  0  0  0  0  0  0  0  0  0  0
   62.0700   33.6440   48.2940 C   0  0  0  0  0  0  0  0  0  0  0  0
   63.1006   33.7984   48.6461 H   0  0  0  0  0  0  0  0  0  0  0  0
   61.8290   32.8630   47.1610 C   0  0  0  0  0  0  0  0  0  0  0  0
   62.6699   32.4001   46.6237 H   0  0  0  0  0  0  0  0  0  0  0  0
   60.5190   32.6690   46.7090 C   0  0  0  0  0  0  0  0  0  0  0  0
   60.3320   32.0450   45.8226 H   0  0  0  0  0  0  0  0  0  0  0  0
   57.5240   32.3030   43.1680 C   0  0  0  0  0  0  0  0  0  0  0  0
   57.9538   33.2018   42.7017 H   0  0  0  0  0  0  0  0  0  0  0  0
   57.0550   31.2530   42.3820 C   0  0  0  0  0  0  0  0  0  0  0  0
   57.1225   31.3141   41.2858 H   0  0  0  0  0  0  0  0  0  0  0  0
   56.5150   30.1550   42.9680 N   0  0  0  0  0  0  0  0  0  0  0  0
   58.5670   28.8490   46.9770 C   0  0  0  0  0  0  0  0  0  0  0  0
   57.8926   28.8908   47.8450 H   0  0  0  0  0  0  0  0  0  0  0  0
  1  2  1  0
  2  3  1  0
  2  4  2  0
  4  5  1  0
  4  6  1  0
  6  7  2  0
  6  8  1  0
  8  9  1  0
  8 10  1  0
 10 11  2  0
 11 12  1  0
 11 13  1  0
 13 14  1  0
 13 15  2  0
 15 16  1  0
 15 17  1  0
 17 18  1  0
 18 19  1  0
 18 20  1  0
 18 21  1  0
 21 22  2  0
 22 23  1  0
 23 24  2  0
 24 25  1  0
 25 26  1  0
 26 27  1  0
 26 28  1  0
 26 29  1  0
 25 30  1  0
 30 31  1  0
 30 32  1  0
 30 33  1  0
 33 34  2  0
 34 35  1  0
 34 36  1  0
 36 37  1  0
 36 38  2  0
 38 39  1  0
 38 40  1  0
 40 41  1  0
 40 42  2  0
 42 43  1  0
 24 44  1  0
 44 45  1  0
 44 46  2  0
 46 47  1  0
 46 48  1  0
 17 49  2  0
 49 50  1  0
 49 10  1  0
 48 22  1  0
 42 33  1  0
M  CHG  1  48  -1
M  END
>  <UniqueID>  (77) 
76

>  <SMILES>  (77) 
C=CC(=O)Nc1cccc(C/N=c2/nc(N(C)Cc3ccccc3)cc[n-]2)c1

>  <Energy>  (77) 
54.029309821012376

>  <Genealogy>  (77) 
C=CC(=O)Nc1cccc(CN=c2nc(N(C)Cc3ccccc3)cc[n-]2)c1 (protonated)
C=CC(=O)Nc1cccc(C/N=c2/nc(N(C)Cc3ccccc3)cc[n-]2)c1 (cis-trans isomerization)
C=CC(=O)Nc1cccc(C/N=c2/nc(N(C)Cc3ccccc3)cc[n-]2)c1 (3D coordinates assigned)
C=CC(=O)Nc1cccc(C/N=c2/nc(N(C)Cc3ccccc3)cc[n-]2)c1 (optimized conformer: 54.029309821012376 kcal/mol)

>  <smiles>  (77) 
C=CC(=O)Nc1cccc(CN=c2nc(N(C)Cc3ccccc3)cc[nH]2)c1

>  <score_type>  (77) 
oracle

>  <origin>  (77) 
adg

>  <m_score__min__energy>  (77) 
-10.279999999999999

>  <m_primary>  (77) 
energy

$$$$
77:0
     RDKit          3D

 62 65  0  0  0  0  0  0  0  0999 V2000
   59.2800   34.2890   53.9240 C   0  0  0  0  0  0  0  0  0  0  0  0
   58.5070   34.1160   52.6220 C   0  0  0  0  0  0  0  0  0  0  0  0
   59.3720   33.6690   51.5780 O   0  0  0  0  0  0  0  0  0  0  0  0
   59.2820   32.4000   50.9910 C   0  0  0  0  0  0  0  0  0  0  0  0
   59.2430   31.3670   51.7180 O   0  0  0  0  0  0  0  0  0  0  0  0
   59.2470   32.2690   49.5580 N   0  0  0  0  0  0  0  0  0  0  0  0
   59.1660   33.4620   48.7060 C   0  0  0  0  0  0  0  0  0  0  0  0
   58.2520   33.1940   47.5050 C   0  0  0  0  0  0  0  0  0  0  0  0
   58.5780   31.9240   46.8350 N   0  0  0  0  0  0  0  0  0  0  0  0
   57.9730   31.6460   45.5540 C   0  0  0  0  0  0  0  0  0  0  0  0
   56.9390   32.2840   45.2080 O   0  0  0  0  0  0  0  0  0  0  0  0
   58.5380   30.5910   44.6300 C   0  0  0  0  0  0  0  0  0  0  0  0
   57.9530   29.2120   44.8950 C   0  0  0  0  0  0  0  0  0  0  0  0
   58.7640   28.0510   45.0050 C   0  0  0  0  0  0  0  0  0  0  0  0
   60.2780   28.1380   44.9420 C   0  0  0  0  0  0  0  0  0  0  0  0
   58.1290   26.7920   45.1610 C   0  0  0  0  0  0  0  0  0  0  0  0
   58.8380   25.5710   45.1760 C   0  0  0  0  0  0  0  0  0  0  0  0
   58.1650   24.3530   45.3600 C   0  0  0  0  0  0  0  0  0  0  0  0
   56.7660   24.3440   45.4940 C   0  0  0  0  0  0  0  0  0  0  0  0
   56.0560   25.5450   45.4720 C   0  0  0  0  0  0  0  0  0  0  0  0
   56.7230   26.7610   45.2980 C   0  0  0  0  0  0  0  0  0  0  0  0
   56.0160   27.8810   45.2580 O   0  0  0  0  0  0  0  0  0  0  0  0
   56.5600   29.0740   45.0660 C   0  0  0  0  0  0  0  0  0  0  0  0
   55.8070   30.0840   45.0390 O   0  0  0  0  0  0  0  0  0  0  0  0
   56.0730   23.1390   45.6660 O   0  0  0  0  0  0  0  0  0  0  0  0
   56.6870   21.8550   45.5130 C   0  0  0  0  0  0  0  0  0  0  0  0
   55.9030   20.8430   46.3600 C   0  0  0  0  0  0  0  0  0  0  0  0
   56.6150   21.4380   44.0320 C   0  0  0  0  0  0  0  0  0  0  0  0
   58.1540   21.9140   46.0070 C   0  0  0  0  0  0  0  0  0  0  0  0
   58.9370   23.0580   45.3450 C   0  0  0  0  0  0  0  0  0  0  0  0
   59.5730   31.0170   47.4310 C   0  0  0  0  0  0  0  0  0  0  0  0
   59.3880   30.9370   48.9510 C   0  0  0  0  0  0  0  0  0  0  0  0
   58.6014   34.1371   54.7763 H   0  0  0  0  0  0  0  0  0  0  0  0
   60.0944   33.5509   53.9677 H   0  0  0  0  0  0  0  0  0  0  0  0
   59.7021   35.3038   53.9677 H   0  0  0  0  0  0  0  0  0  0  0  0
   57.7085   33.3745   52.7718 H   0  0  0  0  0  0  0  0  0  0  0  0
   58.0769   35.0866   52.3341 H   0  0  0  0  0  0  0  0  0  0  0  0
   58.7600   34.2999   49.2917 H   0  0  0  0  0  0  0  0  0  0  0  0
   60.1734   33.7118   48.3416 H   0  0  0  0  0  0  0  0  0  0  0  0
   57.2097   33.1537   47.8542 H   0  0  0  0  0  0  0  0  0  0  0  0
   58.3979   34.0077   46.7793 H   0  0  0  0  0  0  0  0  0  0  0  0
   58.3146   30.8754   43.5912 H   0  0  0  0  0  0  0  0  0  0  0  0
   59.6218   30.5348   44.8094 H   0  0  0  0  0  0  0  0  0  0  0  0
   60.6867   28.1615   45.9630 H   0  0  0  0  0  0  0  0  0  0  0  0
   60.6738   27.2611   44.4087 H   0  0  0  0  0  0  0  0  0  0  0  0
   60.5707   29.0544   44.4087 H   0  0  0  0  0  0  0  0  0  0  0  0
   59.9298   25.5743   45.0420 H   0  0  0  0  0  0  0  0  0  0  0  0
   54.9627   25.5348   45.5925 H   0  0  0  0  0  0  0  0  0  0  0  0
   56.0662   21.0537   47.4272 H   0  0  0  0  0  0  0  0  0  0  0  0
   54.8305   20.9251   46.1299 H   0  0  0  0  0  0  0  0  0  0  0  0
   56.2505   19.8250   46.1299 H   0  0  0  0  0  0  0  0  0  0  0  0
   56.4282   20.3561   43.9644 H   0  0  0  0  0  0  0  0  0  0  0  0
   55.7976   21.9829   43.5370 H   0  0  0  0  0  0  0  0  0  0  0  0
   57.5677   21.6772   43.5370 H   0  0  0  0  0  0  0  0  0  0  0  0
   58.1563   22.0656   47.0965 H   0  0  0  0  0  0  0  0  0  0  0  0
   58.6425   20.9662   45.7369 H   0  0  0  0  0  0  0  0  0  0  0  0
   59.8827   23.2019   45.8880 H   0  0  0  0  0  0  0  0  0  0  0  0
   59.1189   22.7828   44.2956 H   0  0  0  0  0  0  0  0  0  0  0  0
   59.4516   30.0128   46.9987 H   0  0  0  0  0  0  0  0  0  0  0  0
   60.5798   31.4045   47.2161 H   0  0  0  0  0  0  0  0  0  0  0  0
   58.4837   30.3497   49.1686 H   0  0  0  0  0  0  0  0  0  0  0  0
   60.2829   30.4611   49.3784 H   0  0  0  0  0  0  0  0  0  0  0  0
  1  2  1  0
  2  3  1  0
  3  4  1  0
  4  5  2  0
  4  6  1  0
  6  7  1  0
  7  8  1  0
  8  9  1  0
  9 10  1  0
 10 11  2  0
 10 12  1  0
 12 13  1  0
 13 14  2  0
 14 15  1  0
 14 16  1  0
 16 17  2  0
 17 18  1  0
 18 19  2  0
 19 20  1  0
 20 21  2  0
 21 22  1  0
 22 23  1  0
 23 24  2  0
 19 25  1  0
 25 26  1  0
 26 27  1  0
 26 28  1  0
 26 29  1  0
 29 30  1  0
  9 31  1  0
 31 32  1  0
 32  6  1  0
 23 13  1  0
 21 16  1  0
 30 18  1  0
  1 33  1  0
  1 34  1  0
  1 35  1  0
  2 36  1  0
  2 37  1  0
  7 38  1  0
  7 39  1  0
  8 40  1  0
  8 41  1  0
 12 42  1  0
 12 43  1  0
 15 44  1  0
 15 45  1  0
 15 46  1  0
 17 47  1  0
 20 48  1  0
 27 49  1  0
 27 50  1  0
 27 51  1  0
 28 52  1  0
 28 53  1  0
 28 54  1  0
 29 55  1  0
 29 56  1  0
 30 57  1  0
 30 58  1  0
 31 59  1  0
 31 60  1  0
 32 61  1  0
 32 62  1  0
M  END
>  <UniqueID>  (78) 
77

>  <SMILES>  (78) 
CCOC(=O)N1CCN(C(=O)Cc2c(C)c3cc4c(cc3oc2=O)OC(C)(C)CC4)CC1

>  <Energy>  (78) 
67.36680554223078

>  <Genealogy>  (78) 
CCOC(=O)N1CCN(C(=O)Cc2c(C)c3cc4c(cc3oc2=O)OC(C)(C)CC4)CC1 (3D coordinates assigned)
CCOC(=O)N1CCN(C(=O)Cc2c(C)c3cc4c(cc3oc2=O)OC(C)(C)CC4)CC1 (nonaromatic ring conformer: 67.36680554223078 kcal/mol)

>  <smiles>  (78) 
CCOC(=O)N1CCN(C(=O)Cc2c(C)c3cc4c(cc3oc2=O)OC(C)(C)CC4)CC1

>  <score_type>  (78) 
oracle

>  <origin>  (78) 
adg

>  <m_score__min__energy>  (78) 
-8.6699999999999999

>  <m_primary>  (78) 
energy

$$$$
78:0
     RDKit          3D

 49 51  0  0  0  0  0  0  0  0999 V2000
   57.6860   26.6260   47.7610 O   0  0  0  0  0  0  0  0  0  0  0  0
   57.3380   26.7910   46.5590 C   0  0  0  0  0  0  0  0  0  0  0  0
   57.4200   28.0960   45.9780 N   0  0  0  0  0  0  0  0  0  0  0  0
   57.9760   28.3380   44.6520 C   0  0  0  0  0  0  0  0  0  0  0  0
   58.3890   29.8000   44.5100 C   0  0  0  0  0  0  0  0  0  0  0  0
   56.9790   30.9000   44.3950 S   0  0  0  0  0  0  0  0  0  0  0  0
   55.6940   30.1220   44.4540 O   0  0  0  0  0  0  0  0  0  0  0  0
   57.0380   31.5980   43.0660 O   0  0  0  0  0  0  0  0  0  0  0  0
   57.0180   32.1140   45.6410 N   0  0  0  0  0  0  0  0  0  0  0  0
   57.9570   33.1950   45.7790 C   0  0  0  0  0  0  0  0  0  0  0  0
   58.2710   34.0600   44.7210 C   0  0  0  0  0  0  0  0  0  0  0  0
   59.1840   35.0920   44.9120 C   0  0  0  0  0  0  0  0  0  0  0  0
   59.8000   35.2450   46.1510 C   0  0  0  0  0  0  0  0  0  0  0  0
   59.5060   34.4010   47.1900 N   0  0  0  0  0  0  0  0  0  0  0  0
   60.2160   34.5770   48.4700 C   0  0  0  0  0  0  0  0  0  0  0  0
   61.5680   33.8980   48.4460 C   0  0  0  0  0  0  0  0  0  0  0  0
   62.2320   33.7540   47.2130 C   0  0  0  0  0  0  0  0  0  0  0  0
   63.4570   33.0900   47.1400 C   0  0  0  0  0  0  0  0  0  0  0  0
   64.0360   32.5590   48.2930 C   0  0  0  0  0  0  0  0  0  0  0  0
   63.4000   32.7080   49.5250 C   0  0  0  0  0  0  0  0  0  0  0  0
   62.1710   33.3710   49.6150 C   0  0  0  0  0  0  0  0  0  0  0  0
   61.4140   33.4680   51.2010 Cl  0  0  0  0  0  0  0  0  0  0  0  0
   58.5840   33.3950   47.0210 C   0  0  0  0  0  0  0  0  0  0  0  0
   58.3010   32.6220   47.9770 O   0  0  0  0  0  0  0  0  0  0  0  0
   56.8390   25.6320   45.7700 C   0  0  0  0  0  0  0  0  0  0  0  0
   57.7640   24.6950   45.2670 C   0  0  0  0  0  0  0  0  0  0  0  0
   57.3280   23.5580   44.5780 C   0  0  0  0  0  0  0  0  0  0  0  0
   55.9670   23.3360   44.3790 C   0  0  0  0  0  0  0  0  0  0  0  0
   55.5470   22.1710   43.7370 O   0  0  0  0  0  0  0  0  0  0  0  0
   55.0360   24.2730   44.8400 C   0  0  0  0  0  0  0  0  0  0  0  0
   55.4610   25.4170   45.5300 C   0  0  0  0  0  0  0  0  0  0  0  0
   54.4980   26.3170   45.9770 O   0  0  0  0  0  0  0  0  0  0  0  0
   58.8571   27.6961   44.5052 H   0  0  0  0  0  0  0  0  0  0  0  0
   57.2114   28.1070   43.8957 H   0  0  0  0  0  0  0  0  0  0  0  0
   58.9884   30.0846   45.3873 H   0  0  0  0  0  0  0  0  0  0  0  0
   58.9665   29.8965   43.5788 H   0  0  0  0  0  0  0  0  0  0  0  0
   57.7949   33.9224   43.7390 H   0  0  0  0  0  0  0  0  0  0  0  0
   59.4179   35.7831   44.0888 H   0  0  0  0  0  0  0  0  0  0  0  0
   60.5316   36.0532   46.2979 H   0  0  0  0  0  0  0  0  0  0  0  0
   60.3579   35.6518   48.6563 H   0  0  0  0  0  0  0  0  0  0  0  0
   59.6120   34.1204   49.2680 H   0  0  0  0  0  0  0  0  0  0  0  0
   61.7812   34.1685   46.2993 H   0  0  0  0  0  0  0  0  0  0  0  0
   63.9674   32.9849   46.1713 H   0  0  0  0  0  0  0  0  0  0  0  0
   64.9944   32.0227   48.2302 H   0  0  0  0  0  0  0  0  0  0  0  0
   63.8682   32.3011   50.4334 H   0  0  0  0  0  0  0  0  0  0  0  0
   58.8411   24.8595   45.4179 H   0  0  0  0  0  0  0  0  0  0  0  0
   58.0628   22.8363   44.1918 H   0  0  0  0  0  0  0  0  0  0  0  0
   55.0590   22.2050   42.8500 H   0  0  0  0  0  0  0  0  0  0  0  0
   53.9630   24.1110   44.6598 H   0  0  0  0  0  0  0  0  0  0  0  0
  1  2  2  0
  2  3  1  0
  3  4  1  0
  4  5  1  0
  5  6  1  0
  6  7  2  0
  6  8  2  0
  6  9  1  0
  9 10  1  0
 10 11  2  0
 11 12  1  0
 12 13  2  0
 13 14  1  0
 14 15  1  0
 15 16  1  0
 16 17  2  0
 17 18  1  0
 18 19  2  0
 19 20  1  0
 20 21  2  0
 21 22  1  0
 14 23  1  0
 23 24  2  0
  2 25  1  0
 25 26  2  0
 26 27  1  0
 27 28  2  0
 28 29  1  0
 28 30  1  0
 30 31  2  0
 31 32  1  0
 23 10  1  0
 31 25  1  0
 21 16  1  0
  4 33  1  0
  4 34  1  0
  5 35  1  0
  5 36  1  0
 11 37  1  0
 12 38  1  0
 13 39  1  0
 15 40  1  0
 15 41  1  0
 17 42  1  0
 18 43  1  0
 19 44  1  0
 20 45  1  0
 26 46  1  0
 27 47  1  0
 29 48  1  0
 30 49  1  0
M  CHG  3   3  -1   9  -1  32  -1
M  END
>  <UniqueID>  (79) 
78

>  <SMILES>  (79) 
O=C([N-]CCS(=O)(=O)[N-]c1cccn(Cc2ccccc2Cl)c1=O)c1ccc(O)cc1[O-]

>  <Energy>  (79) 
49.22818671741423

>  <Genealogy>  (79) 
O=C([N-]CCS(=O)(=O)[N-]c1cccn(Cc2ccccc2Cl)c1=O)c1ccc(O)cc1[O-] (protonated)
O=C([N-]CCS(=O)(=O)[N-]c1cccn(Cc2ccccc2Cl)c1=O)c1ccc(O)cc1[O-] (3D coordinates assigned)
O=C([N-]CCS(=O)(=O)[N-]c1cccn(Cc2ccccc2Cl)c1=O)c1ccc(O)cc1[O-] (optimized conformer: 49.22818671741423 kcal/mol)

>  <smiles>  (79) 
O=C(NCCS(=O)(=O)Nc1cccn(Cc2ccccc2Cl)c1=O)c1ccc(O)cc1O

>  <score_type>  (79) 
oracle

>  <origin>  (79) 
adg

>  <m_score__min__energy>  (79) 
-16.890000000000001

>  <m_primary>  (79) 
energy

$$$$
79:0
     RDKit          3D

 57 60  0  0  0  0  0  0  0  0999 V2000
   60.7700   27.4250   45.8800 C   0  0  0  0  0  0  0  0  0  0  0  0
   59.3810   27.8100   45.5530 N   0  0  0  0  0  0  0  0  0  0  0  0
   59.1370   28.9950   44.8970 C   0  0  0  0  0  0  0  0  0  0  0  0
   60.1000   29.7550   44.5950 O   0  0  0  0  0  0  0  0  0  0  0  0
   57.8580   29.3700   44.5670 N   0  0  0  0  0  0  0  0  0  0  0  0
   57.6210   30.6560   43.8790 C   0  0  0  0  0  0  0  0  0  0  0  0
   56.9880   31.6640   44.8410 C   0  0  0  0  0  0  0  0  0  0  0  0
   57.9600   33.1650   44.9270 S   0  0  0  0  0  0  0  0  0  0  0  0
   58.6590   33.3700   43.6120 O   0  0  0  0  0  0  0  0  0  0  0  0
   57.0490   34.3360   45.1750 O   0  0  0  0  0  0  0  0  0  0  0  0
   59.1570   33.0860   46.1970 N   0  0  0  0  0  0  0  0  0  0  0  0
   58.9350   31.9020   47.0420 C   0  0  0  0  0  0  0  0  0  0  0  0
   60.1610   31.6960   47.9360 C   0  0  0  0  0  0  0  0  0  0  0  0
   60.6840   32.9860   48.4070 N   0  0  0  0  0  0  0  0  0  0  0  0
   62.0180   33.0730   48.9450 C   0  0  0  0  0  0  0  0  0  0  0  0
   63.0360   32.2340   48.4620 C   0  0  0  0  0  0  0  0  0  0  0  0
   64.3270   32.3060   48.9920 C   0  0  0  0  0  0  0  0  0  0  0  0
   64.6300   33.2290   50.0080 C   0  0  0  0  0  0  0  0  0  0  0  0
   66.0100   33.2710   50.6130 C   0  0  0  0  0  0  0  0  0  0  0  0
   66.2200   34.5150   51.1780 F   0  0  0  0  0  0  0  0  0  0  0  0
   66.1440   32.3020   51.5920 F   0  0  0  0  0  0  0  0  0  0  0  0
   66.9750   33.0470   49.6460 F   0  0  0  0  0  0  0  0  0  0  0  0
   63.6030   34.0420   50.5170 C   0  0  0  0  0  0  0  0  0  0  0  0
   62.3110   33.9690   49.9870 C   0  0  0  0  0  0  0  0  0  0  0  0
   59.8040   34.1610   48.3800 C   0  0  0  0  0  0  0  0  0  0  0  0
   59.1600   34.3360   46.9890 C   0  0  0  0  0  0  0  0  0  0  0  0
   56.7950   28.5860   44.9260 C   0  0  0  0  0  0  0  0  0  0  0  0
   55.6160   28.9550   44.6570 O   0  0  0  0  0  0  0  0  0  0  0  0
   57.0060   27.3740   45.5960 C   0  0  0  0  0  0  0  0  0  0  0  0
   55.9250   26.5460   45.9610 C   0  0  0  0  0  0  0  0  0  0  0  0
   56.1510   25.3420   46.6260 C   0  0  0  0  0  0  0  0  0  0  0  0
   57.4500   24.9490   46.9340 C   0  0  0  0  0  0  0  0  0  0  0  0
   57.6650   23.7770   47.5820 F   0  0  0  0  0  0  0  0  0  0  0  0
   58.5320   25.7590   46.5820 C   0  0  0  0  0  0  0  0  0  0  0  0
   58.3300   26.9890   45.9050 C   0  0  0  0  0  0  0  0  0  0  0  0
   60.8935   27.3908   46.9725 H   0  0  0  0  0  0  0  0  0  0  0  0
   60.9852   26.4333   45.4554 H   0  0  0  0  0  0  0  0  0  0  0  0
   61.4650   28.1644   45.4554 H   0  0  0  0  0  0  0  0  0  0  0  0
   58.5793   31.0546   43.5145 H   0  0  0  0  0  0  0  0  0  0  0  0
   56.9366   30.4891   43.0341 H   0  0  0  0  0  0  0  0  0  0  0  0
   55.9755   31.9106   44.4889 H   0  0  0  0  0  0  0  0  0  0  0  0
   56.9478   31.2141   45.8440 H   0  0  0  0  0  0  0  0  0  0  0  0
   58.0433   32.0562   47.6674 H   0  0  0  0  0  0  0  0  0  0  0  0
   58.7808   31.0154   46.4095 H   0  0  0  0  0  0  0  0  0  0  0  0
   59.8759   31.0835   48.8041 H   0  0  0  0  0  0  0  0  0  0  0  0
   60.9434   31.1897   47.3516 H   0  0  0  0  0  0  0  0  0  0  0  0
   62.8150   31.5144   47.6599 H   0  0  0  0  0  0  0  0  0  0  0  0
   65.1117   31.6356   48.6114 H   0  0  0  0  0  0  0  0  0  0  0  0
   63.8171   34.7412   51.3387 H   0  0  0  0  0  0  0  0  0  0  0  0
   61.5185   34.6176   50.3886 H   0  0  0  0  0  0  0  0  0  0  0  0
   59.0102   34.0335   49.1307 H   0  0  0  0  0  0  0  0  0  0  0  0
   60.4050   35.0548   48.6035 H   0  0  0  0  0  0  0  0  0  0  0  0
   58.1205   34.6699   47.1225 H   0  0  0  0  0  0  0  0  0  0  0  0
   59.7587   35.0759   46.4376 H   0  0  0  0  0  0  0  0  0  0  0  0
   54.8964   26.8521   45.7194 H   0  0  0  0  0  0  0  0  0  0  0  0
   55.3019   24.7019   46.9076 H   0  0  0  0  0  0  0  0  0  0  0  0
   59.5540   25.4390   46.8330 H   0  0  0  0  0  0  0  0  0  0  0  0
  1  2  1  0
  2  3  1  0
  3  4  2  0
  3  5  1  0
  5  6  1  0
  6  7  1  0
  7  8  1  0
  8  9  2  0
  8 10  2  0
  8 11  1  0
 11 12  1  0
 12 13  1  0
 13 14  1  0
 14 15  1  0
 15 16  2  0
 16 17  1  0
 17 18  2  0
 18 19  1  0
 19 20  1  0
 19 21  1  0
 19 22  1  0
 18 23  1  0
 23 24  2  0
 14 25  1  0
 25 26  1  0
  5 27  1  0
 27 28  2  0
 27 29  1  0
 29 30  2  0
 30 31  1  0
 31 32  2  0
 32 33  1  0
 32 34  1  0
 34 35  2  0
 35  2  1  0
 26 11  1  0
 35 29  1  0
 24 15  1  0
  1 36  1  0
  1 37  1  0
  1 38  1  0
  6 39  1  0
  6 40  1  0
  7 41  1  0
  7 42  1  0
 12 43  1  0
 12 44  1  0
 13 45  1  0
 13 46  1  0
 16 47  1  0
 17 48  1  0
 23 49  1  0
 24 50  1  0
 25 51  1  0
 25 52  1  0
 26 53  1  0
 26 54  1  0
 30 55  1  0
 31 56  1  0
 34 57  1  0
M  END
>  <UniqueID>  (80) 
79

>  <SMILES>  (80) 
Cn1c(=O)n(CCS(=O)(=O)N2CCN(c3ccc(C(F)(F)F)cc3)CC2)c(=O)c2ccc(F)cc21

>  <Energy>  (80) 
77.4324666577067

>  <Genealogy>  (80) 
Cn1c(=O)n(CCS(=O)(=O)N2CCN(c3ccc(C(F)(F)F)cc3)CC2)c(=O)c2ccc(F)cc21 (3D coordinates assigned)
Cn1c(=O)n(CCS(=O)(=O)N2CCN(c3ccc(C(F)(F)F)cc3)CC2)c(=O)c2ccc(F)cc21 (nonaromatic ring conformer: 77.4324666577067 kcal/mol)

>  <smiles>  (80) 
Cn1c(=O)n(CCS(=O)(=O)N2CCN(c3ccc(C(F)(F)F)cc3)CC2)c(=O)c2ccc(F)cc21

>  <score_type>  (80) 
oracle

>  <origin>  (80) 
adg

>  <m_score__min__energy>  (80) 
-8.6600000000000001

>  <m_primary>  (80) 
energy

$$$$
80:0
     RDKit          3D

 28 30  0  0  0  0  0  0  0  0999 V2000
   60.3150   27.9380   49.6550 H   0  0  0  0  0  0  0  0  0  0  0  0
   60.5450   28.8300   49.2330 O   0  0  0  0  0  0  0  0  0  0  0  0
   59.7420   29.3930   48.2440 C   0  0  0  0  0  0  0  0  0  0  0  0
   59.5500   30.7920   48.1880 C   0  0  0  0  0  0  0  0  0  0  0  0
   60.0515   31.4423   48.9198 H   0  0  0  0  0  0  0  0  0  0  0  0
   58.7230   31.3570   47.2040 C   0  0  0  0  0  0  0  0  0  0  0  0
   58.5589   32.4437   47.1586 H   0  0  0  0  0  0  0  0  0  0  0  0
   58.1170   30.5030   46.2880 C   0  0  0  0  0  0  0  0  0  0  0  0
   57.2920   30.8410   45.3300 O   0  0  0  0  0  0  0  0  0  0  0  0
   56.9280   29.7420   44.6980 C   0  0  0  0  0  0  0  0  0  0  0  0
   56.0830   29.7650   43.6650 C   0  0  0  0  0  0  0  0  0  0  0  0
   55.8026   28.8274   43.1628 H   0  0  0  0  0  0  0  0  0  0  0  0
   55.6670   30.7216   43.3159 H   0  0  0  0  0  0  0  0  0  0  0  0
   57.5580   28.6180   45.2630 C   0  0  0  0  0  0  0  0  0  0  0  0
   57.4250   27.3380   44.8600 C   0  0  0  0  0  0  0  0  0  0  0  0
   57.4736   27.1336   43.7803 H   0  0  0  0  0  0  0  0  0  0  0  0
   57.2190   26.1940   45.7660 C   0  0  0  0  0  0  0  0  0  0  0  0
   55.9560   25.9260   46.3190 C   0  0  0  0  0  0  0  0  0  0  0  0
   54.8590   26.7160   45.9950 O   0  0  0  0  0  0  0  0  0  0  0  0
   55.7990   24.8880   47.1790 N   0  0  0  0  0  0  0  0  0  0  0  0
   56.8510   24.1050   47.5300 C   0  0  0  0  0  0  0  0  0  0  0  0
   56.6320   22.8620   48.5650 S   0  0  0  0  0  0  0  0  0  0  0  0
   58.0870   24.3600   47.0280 N   0  0  0  0  0  0  0  0  0  0  0  0
   58.2950   25.3870   46.1640 C   0  0  0  0  0  0  0  0  0  0  0  0
   59.4560   25.5980   45.7210 O   0  0  0  0  0  0  0  0  0  0  0  0
   58.3210   29.1420   46.3090 C   0  0  0  0  0  0  0  0  0  0  0  0
   59.1170   28.5540   47.3020 C   0  0  0  0  0  0  0  0  0  0  0  0
   59.2501   27.4629   47.3441 H   0  0  0  0  0  0  0  0  0  0  0  0
  1  2  1  0
  2  3  1  0
  3  4  2  0
  4  5  1  0
  4  6  1  0
  6  7  1  0
  6  8  2  0
  8  9  1  0
  9 10  1  0
 10 11  2  0
 11 12  1  0
 11 13  1  0
 10 14  1  0
 14 15  2  0
 15 16  1  0
 15 17  1  0
 17 18  2  0
 18 19  1  0
 18 20  1  0
 20 21  1  0
 21 22  2  0
 21 23  1  0
 23 24  1  0
 24 25  2  0
 14 26  1  0
 26 27  2  0
 27 28  1  0
 27  3  1  0
 26  8  1  0
 24 17  1  0
M  CHG  3  19  -1  20  -1  23  -1
M  END
>  <UniqueID>  (81) 
80

>  <SMILES>  (81) 
C=c1oc2ccc(O)cc2/c1=C\c1c([O-])[n-]c(=S)[n-]c1=O

>  <Energy>  (81) 
79.03697904964962

>  <Genealogy>  (81) 
C=c1oc2ccc(O)cc2c1=Cc1c([O-])[n-]c(=S)[n-]c1=O (protonated)
C=c1oc2ccc(O)cc2/c1=C\c1c([O-])[n-]c(=S)[n-]c1=O (cis-trans isomerization)
C=c1oc2ccc(O)cc2/c1=C\c1c([O-])[n-]c(=S)[n-]c1=O (3D coordinates assigned)
C=c1oc2ccc(O)cc2/c1=C\c1c([O-])[n-]c(=S)[n-]c1=O (optimized conformer: 79.03697904964962 kcal/mol)

>  <smiles>  (81) 
C=c1oc2ccc(O)cc2c1=Cc1c(O)[nH]c(=S)[nH]c1=O

>  <score_type>  (81) 
oracle

>  <origin>  (81) 
adg

>  <m_score__min__energy>  (81) 
-13.43

>  <m_primary>  (81) 
energy

$$$$
81:0
     RDKit          3D

 44 46  0  0  0  0  0  0  0  0999 V2000
   64.0241   32.4820   46.7638 H   0  0  0  0  0  0  0  0  0  0  0  0
   63.5370   32.6540   47.7350 C   0  0  0  0  0  0  0  0  0  0  0  0
   63.9930   33.4750   48.7030 N   0  0  0  0  0  0  0  0  0  0  0  0
   63.1310   33.4250   49.7070 N   0  0  0  0  0  0  0  0  0  0  0  0
   63.3180   34.1230   50.9720 C   0  0  0  0  0  0  0  0  0  0  0  0
   63.1320   33.4288   51.8048 H   0  0  0  0  0  0  0  0  0  0  0  0
   64.3491   34.5012   51.0332 H   0  0  0  0  0  0  0  0  0  0  0  0
   62.6140   34.9660   51.0332 H   0  0  0  0  0  0  0  0  0  0  0  0
   62.1340   32.5670   49.4220 C   0  0  0  0  0  0  0  0  0  0  0  0
   61.2899   32.3132   50.0801 H   0  0  0  0  0  0  0  0  0  0  0  0
   62.3590   32.0620   48.1570 C   0  0  0  0  0  0  0  0  0  0  0  0
   61.5510   31.0780   47.4170 C   0  0  0  0  0  0  0  0  0  0  0  0
   62.0580   30.4910   46.4220 O   0  0  0  0  0  0  0  0  0  0  0  0
   60.1900   30.8140   47.7960 N   0  0  0  0  0  0  0  0  0  0  0  0
   59.6830   31.5400   48.3490 H   0  0  0  0  0  0  0  0  0  0  0  0
   59.4440   29.6670   47.3540 C   0  0  0  0  0  0  0  0  0  0  0  0
   59.7080   28.3790   47.8560 C   0  0  0  0  0  0  0  0  0  0  0  0
   60.5164   28.2320   48.5873 H   0  0  0  0  0  0  0  0  0  0  0  0
   58.9480   27.2850   47.4300 C   0  0  0  0  0  0  0  0  0  0  0  0
   59.1682   26.2795   47.8180 H   0  0  0  0  0  0  0  0  0  0  0  0
   57.9100   27.4660   46.5130 C   0  0  0  0  0  0  0  0  0  0  0  0
   57.3190   26.6025   46.1737 H   0  0  0  0  0  0  0  0  0  0  0  0
   57.6220   28.7460   46.0260 C   0  0  0  0  0  0  0  0  0  0  0  0
   56.2730   28.9840   44.8710 S   0  0  0  0  0  0  0  0  0  0  0  0
   56.8910   30.5810   44.3480 C   0  0  0  0  0  0  0  0  0  0  0  0
   56.9530   31.6040   45.2390 N   0  0  0  0  0  0  0  0  0  0  0  0
   57.4040   32.8330   44.8720 C   0  0  0  0  0  0  0  0  0  0  0  0
   57.4430   33.7840   45.7580 N   0  0  0  0  0  0  0  0  0  0  0  0
   58.2460   33.8230   46.9500 C   0  0  0  0  0  0  0  0  0  0  0  0
   58.0980   32.9720   47.8680 O   0  0  0  0  0  0  0  0  0  0  0  0
   59.3130   34.8650   47.0770 C   0  0  0  0  0  0  0  0  0  0  0  0
   59.5279   35.0340   48.1425 H   0  0  0  0  0  0  0  0  0  0  0  0
   58.9579   35.7943   46.6076 H   0  0  0  0  0  0  0  0  0  0  0  0
   60.5890   34.4170   46.3740 C   0  0  0  0  0  0  0  0  0  0  0  0
   61.3473   34.1508   47.1251 H   0  0  0  0  0  0  0  0  0  0  0  0
   60.3728   33.5410   45.7448 H   0  0  0  0  0  0  0  0  0  0  0  0
   60.9678   35.2359   45.7448 H   0  0  0  0  0  0  0  0  0  0  0  0
   57.8050   33.0420   43.5860 N   0  0  0  0  0  0  0  0  0  0  0  0
   57.7610   32.0460   42.6650 C   0  0  0  0  0  0  0  0  0  0  0  0
   58.0882   32.2364   41.6322 H   0  0  0  0  0  0  0  0  0  0  0  0
   57.3010   30.7820   43.0290 C   0  0  0  0  0  0  0  0  0  0  0  0
   57.2620   29.9633   42.2954 H   0  0  0  0  0  0  0  0  0  0  0  0
   58.3840   29.8420   46.4490 C   0  0  0  0  0  0  0  0  0  0  0  0
   58.1507   30.8478   46.0697 H   0  0  0  0  0  0  0  0  0  0  0  0
  1  2  1  0
  2  3  2  0
  3  4  1  0
  4  5  1  0
  5  6  1  0
  5  7  1  0
  5  8  1  0
  4  9  1  0
  9 10  1  0
  9 11  2  0
 11 12  1  0
 12 13  2  0
 12 14  1  0
 14 15  1  0
 14 16  1  0
 16 17  2  0
 17 18  1  0
 17 19  1  0
 19 20  1  0
 19 21  2  0
 21 22  1  0
 21 23  1  0
 23 24  1  0
 24 25  1  0
 25 26  2  0
 26 27  1  0
 27 28  2  0
 28 29  1  0
 29 30  2  0
 29 31  1  0
 31 32  1  0
 31 33  1  0
 31 34  1  0
 34 35  1  0
 34 36  1  0
 34 37  1  0
 27 38  1  0
 38 39  1  0
 39 40  1  0
 39 41  2  0
 41 42  1  0
 23 43  2  0
 43 44  1  0
 11  2  1  0
 43 16  1  0
 41 25  1  0
M  CHG  1  38  -1
M  END
>  <UniqueID>  (82) 
81

>  <SMILES>  (82) 
CCC(=O)/N=c1/nc(Sc2cccc(NC(=O)c3cnn(C)c3)c2)cc[n-]1

>  <Energy>  (82) 
72.75701435933557

>  <Genealogy>  (82) 
CCC(=O)N=c1nc(Sc2cccc(NC(=O)c3cnn(C)c3)c2)cc[n-]1 (protonated)
CCC(=O)/N=c1/nc(Sc2cccc(NC(=O)c3cnn(C)c3)c2)cc[n-]1 (cis-trans isomerization)
CCC(=O)/N=c1/nc(Sc2cccc(NC(=O)c3cnn(C)c3)c2)cc[n-]1 (3D coordinates assigned)
CCC(=O)/N=c1/nc(Sc2cccc(NC(=O)c3cnn(C)c3)c2)cc[n-]1 (optimized conformer: 72.75701435933557 kcal/mol)

>  <smiles>  (82) 
CCC(=O)N=c1nc(Sc2cccc(NC(=O)c3cnn(C)c3)c2)cc[nH]1

>  <score_type>  (82) 
oracle

>  <origin>  (82) 
adg

>  <m_score__min__energy>  (82) 
-9.5199999999999996

>  <m_primary>  (82) 
energy

$$$$
82:0
     RDKit          3D

 41 42  0  0  0  0  0  0  0  0999 V2000
   62.2150   31.0120   49.9550 C   0  0  0  0  0  0  0  0  0  0  0  0
   61.4210   30.7730   48.7070 C   0  0  0  0  0  0  0  0  0  0  0  0
   61.1000   29.5910   48.4150 O   0  0  0  0  0  0  0  0  0  0  0  0
   61.0750   31.8910   47.7860 C   0  0  0  0  0  0  0  0  0  0  0  0
   59.7240   32.0960   47.4390 C   0  0  0  0  0  0  0  0  0  0  0  0
   59.3430   33.1570   46.6040 C   0  0  0  0  0  0  0  0  0  0  0  0
   57.9010   33.3460   46.2210 C   0  0  0  0  0  0  0  0  0  0  0  0
   57.4640   32.2290   45.3140 C   0  0  0  0  0  0  0  0  0  0  0  0
   56.2840   32.2210   44.8710 O   0  0  0  0  0  0  0  0  0  0  0  0
   58.3050   31.0930   45.0810 N   0  0  0  0  0  0  0  0  0  0  0  0
   58.0580   29.8760   45.4650 C   0  0  0  0  0  0  0  0  0  0  0  0
   58.8270   29.1600   46.3200 N   0  0  0  0  0  0  0  0  0  0  0  0
   58.3430   27.9000   46.5210 C   0  0  0  0  0  0  0  0  0  0  0  0
   59.0420   26.9300   47.4260 C   0  0  0  0  0  0  0  0  0  0  0  0
   57.1750   27.6040   45.7960 C   0  0  0  0  0  0  0  0  0  0  0  0
   56.4150   26.3340   45.7820 C   0  0  0  0  0  0  0  0  0  0  0  0
   57.1070   25.0340   45.5180 C   0  0  0  0  0  0  0  0  0  0  0  0
   55.1730   26.3310   45.9980 O   0  0  0  0  0  0  0  0  0  0  0  0
   56.7640   28.9740   44.8960 S   0  0  0  0  0  0  0  0  0  0  0  0
   60.3240   34.0150   46.0910 C   0  0  0  0  0  0  0  0  0  0  0  0
   61.6670   33.8250   46.4190 C   0  0  0  0  0  0  0  0  0  0  0  0
   62.0620   32.7640   47.2510 C   0  0  0  0  0  0  0  0  0  0  0  0
   63.5310   32.5850   47.5420 C   0  0  0  0  0  0  0  0  0  0  0  0
   61.5822   30.8215   50.8343 H   0  0  0  0  0  0  0  0  0  0  0  0
   63.0818   30.3349   49.9734 H   0  0  0  0  0  0  0  0  0  0  0  0
   62.5640   32.0550   49.9734 H   0  0  0  0  0  0  0  0  0  0  0  0
   58.9557   31.4125   47.8296 H   0  0  0  0  0  0  0  0  0  0  0  0
   57.2790   33.3442   47.1282 H   0  0  0  0  0  0  0  0  0  0  0  0
   57.7877   34.3058   45.6956 H   0  0  0  0  0  0  0  0  0  0  0  0
   59.7140   29.5040   46.7510 H   0  0  0  0  0  0  0  0  0  0  0  0
   58.8470   27.2006   48.4742 H   0  0  0  0  0  0  0  0  0  0  0  0
   58.6672   25.9138   47.2338 H   0  0  0  0  0  0  0  0  0  0  0  0
   60.1246   26.9640   47.2338 H   0  0  0  0  0  0  0  0  0  0  0  0
   57.3626   24.5539   46.4741 H   0  0  0  0  0  0  0  0  0  0  0  0
   56.4408   24.3742   44.9429 H   0  0  0  0  0  0  0  0  0  0  0  0
   58.0264   25.2182   44.9429 H   0  0  0  0  0  0  0  0  0  0  0  0
   60.0345   34.8424   45.4265 H   0  0  0  0  0  0  0  0  0  0  0  0
   62.4260   34.5147   46.0211 H   0  0  0  0  0  0  0  0  0  0  0  0
   63.6895   32.5657   48.6303 H   0  0  0  0  0  0  0  0  0  0  0  0
   63.8788   31.6378   47.1039 H   0  0  0  0  0  0  0  0  0  0  0  0
   64.0961   33.4209   47.1039 H   0  0  0  0  0  0  0  0  0  0  0  0
  1  2  1  0
  2  3  2  0
  2  4  1  0
  4  5  2  0
  5  6  1  0
  6  7  1  0
  7  8  1  0
  8  9  2  0
  8 10  1  0
 10 11  2  3
 11 12  1  0
 12 13  1  0
 13 14  1  0
 13 15  2  0
 15 16  1  0
 16 17  1  0
 16 18  2  0
 15 19  1  0
  6 20  2  0
 20 21  1  0
 21 22  2  0
 22 23  1  0
 22  4  1  0
 19 11  1  0
  1 24  1  0
  1 25  1  0
  1 26  1  0
  5 27  1  0
  7 28  1  0
  7 29  1  0
 12 30  1  0
 14 31  1  0
 14 32  1  0
 14 33  1  0
 17 34  1  0
 17 35  1  0
 17 36  1  0
 20 37  1  0
 21 38  1  0
 23 39  1  0
 23 40  1  0
 23 41  1  0
M  END
>  <UniqueID>  (83) 
82

>  <SMILES>  (83) 
CC(=O)c1cc(CC(=O)N=c2[nH]c(C)c(C(C)=O)s2)ccc1C

>  <Energy>  (83) 
78.84952180415961

>  <Genealogy>  (83) 
CC(=O)c1cc(CC(=O)N=c2[nH]c(C)c(C(C)=O)s2)ccc1C (3D coordinates assigned)
CC(=O)c1cc(CC(=O)N=c2[nH]c(C)c(C(C)=O)s2)ccc1C (optimized conformer: 78.84952180415961 kcal/mol)

>  <smiles>  (83) 
CC(=O)c1cc(CC(=O)N=c2[nH]c(C)c(C(C)=O)s2)ccc1C

>  <score_type>  (83) 
oracle

>  <origin>  (83) 
adg

>  <m_score__min__energy>  (83) 
-8.4600000000000009

>  <m_primary>  (83) 
energy

$$$$
83:0
     RDKit          3D

 49 52  0  0  0  0  0  0  0  0999 V2000
   58.0330   30.3140   43.9240 C   0  0  0  0  0  0  0  0  0  0  0  0
   58.1900   29.1440   44.5470 C   0  0  0  0  0  0  0  0  0  0  0  0
   57.6670   27.6770   43.9090 S   0  0  0  0  0  0  0  0  0  0  0  0
   58.1520   26.7790   45.2530 C   0  0  0  0  0  0  0  0  0  0  0  0
   58.0390   25.4500   45.4060 C   0  0  0  0  0  0  0  0  0  0  0  0
   56.7430   24.7460   45.3630 C   0  0  0  0  0  0  0  0  0  0  0  0
   56.7410   23.3700   45.0880 C   0  0  0  0  0  0  0  0  0  0  0  0
   55.5360   22.6650   45.0170 C   0  0  0  0  0  0  0  0  0  0  0  0
   54.3250   23.3240   45.2320 C   0  0  0  0  0  0  0  0  0  0  0  0
   53.1280   22.6230   45.1550 O   0  0  0  0  0  0  0  0  0  0  0  0
   54.3160   24.6910   45.5310 C   0  0  0  0  0  0  0  0  0  0  0  0
   55.5170   25.4060   45.6160 C   0  0  0  0  0  0  0  0  0  0  0  0
   55.4620   26.7540   45.9740 O   0  0  0  0  0  0  0  0  0  0  0  0
   58.7240   27.6620   46.1700 C   0  0  0  0  0  0  0  0  0  0  0  0
   59.2020   27.2820   47.2750 O   0  0  0  0  0  0  0  0  0  0  0  0
   58.7470   28.9720   45.7800 N   0  0  0  0  0  0  0  0  0  0  0  0
   59.3130   30.0210   46.5880 C   0  0  0  0  0  0  0  0  0  0  0  0
   60.6040   30.5010   46.3240 C   0  0  0  0  0  0  0  0  0  0  0  0
   61.1570   31.5100   47.1190 C   0  0  0  0  0  0  0  0  0  0  0  0
   60.4350   32.0400   48.2000 C   0  0  0  0  0  0  0  0  0  0  0  0
   61.0240   33.1140   49.0310 C   0  0  0  0  0  0  0  0  0  0  0  0
   60.4620   34.2430   49.0560 O   0  0  0  0  0  0  0  0  0  0  0  0
   62.2240   32.9060   49.8000 N   0  0  0  0  0  0  0  0  0  0  0  0
   62.3650   33.4930   51.1350 C   0  0  0  0  0  0  0  0  0  0  0  0
   63.7960   34.0100   51.3200 C   0  0  0  0  0  0  0  0  0  0  0  0
   64.7400   33.0000   51.0140 O   0  0  0  0  0  0  0  0  0  0  0  0
   64.6550   32.6620   49.6410 C   0  0  0  0  0  0  0  0  0  0  0  0
   63.2990   32.0280   49.3210 C   0  0  0  0  0  0  0  0  0  0  0  0
   59.1380   31.5630   48.4560 C   0  0  0  0  0  0  0  0  0  0  0  0
   58.5850   30.5550   47.6600 C   0  0  0  0  0  0  0  0  0  0  0  0
   58.3968   31.2401   44.3931 H   0  0  0  0  0  0  0  0  0  0  0  0
   57.5398   30.3521   42.9415 H   0  0  0  0  0  0  0  0  0  0  0  0
   58.9527   24.8600   45.5706 H   0  0  0  0  0  0  0  0  0  0  0  0
   57.6931   22.8431   44.9274 H   0  0  0  0  0  0  0  0  0  0  0  0
   55.5425   21.5885   44.7912 H   0  0  0  0  0  0  0  0  0  0  0  0
   53.3595   25.2071   45.7003 H   0  0  0  0  0  0  0  0  0  0  0  0
   55.1390   27.4770   45.3420 H   0  0  0  0  0  0  0  0  0  0  0  0
   61.1839   30.0822   45.4884 H   0  0  0  0  0  0  0  0  0  0  0  0
   62.1645   31.8909   46.8957 H   0  0  0  0  0  0  0  0  0  0  0  0
   61.6570   34.3277   51.2447 H   0  0  0  0  0  0  0  0  0  0  0  0
   62.1517   32.7274   51.8954 H   0  0  0  0  0  0  0  0  0  0  0  0
   63.9580   34.8690   50.6523 H   0  0  0  0  0  0  0  0  0  0  0  0
   63.9291   34.3100   52.3699 H   0  0  0  0  0  0  0  0  0  0  0  0
   64.7789   33.5729   49.0369 H   0  0  0  0  0  0  0  0  0  0  0  0
   65.4479   31.9366   49.4064 H   0  0  0  0  0  0  0  0  0  0  0  0
   63.2049   31.8926   48.2334 H   0  0  0  0  0  0  0  0  0  0  0  0
   63.2241   31.0504   49.8196 H   0  0  0  0  0  0  0  0  0  0  0  0
   58.5544   31.9851   49.2874 H   0  0  0  0  0  0  0  0  0  0  0  0
   57.5739   30.1795   47.8762 H   0  0  0  0  0  0  0  0  0  0  0  0
  1  2  2  0
  2  3  1  0
  3  4  1  0
  4  5  2  3
  5  6  1  0
  6  7  2  0
  7  8  1  0
  8  9  2  0
  9 10  1  0
  9 11  1  0
 11 12  2  0
 12 13  1  0
  4 14  1  0
 14 15  2  0
 14 16  1  0
 16 17  1  0
 17 18  2  0
 18 19  1  0
 19 20  2  0
 20 21  1  0
 21 22  2  0
 21 23  1  0
 23 24  1  0
 24 25  1  0
 25 26  1  0
 26 27  1  0
 27 28  1  0
 20 29  1  0
 29 30  2  0
 16  2  1  0
 30 17  1  0
 12  6  1  0
 28 23  1  0
  1 31  1  0
  1 32  1  0
  5 33  1  0
  7 34  1  0
  8 35  1  0
 11 36  1  0
 13 37  1  0
 18 38  1  0
 19 39  1  0
 24 40  1  0
 24 41  1  0
 25 42  1  0
 25 43  1  0
 27 44  1  0
 27 45  1  0
 28 46  1  0
 28 47  1  0
 29 48  1  0
 30 49  1  0
M  CHG  1  10  -1
M  END
>  <UniqueID>  (84) 
83

>  <SMILES>  (84) 
C=c1sc(=Cc2ccc([O-])cc2O)c(=O)n1-c1ccc(C(=O)N2CCOCC2)cc1

>  <Energy>  (84) 
106.67201481384721

>  <Genealogy>  (84) 
C=c1sc(=Cc2ccc([O-])cc2O)c(=O)n1-c1ccc(C(=O)N2CCOCC2)cc1 (protonated)
C=c1sc(=Cc2ccc([O-])cc2O)c(=O)n1-c1ccc(C(=O)N2CCOCC2)cc1 (3D coordinates assigned)
C=c1sc(=Cc2ccc([O-])cc2O)c(=O)n1-c1ccc(C(=O)N2CCOCC2)cc1 (nonaromatic ring conformer: 106.67201481384721 kcal/mol)

>  <smiles>  (84) 
C=c1sc(=Cc2ccc(O)cc2O)c(=O)n1-c1ccc(C(=O)N2CCOCC2)cc1

>  <score_type>  (84) 
oracle

>  <origin>  (84) 
adg

>  <m_score__min__energy>  (84) 
-11.76

>  <m_primary>  (84) 
energy

$$$$
84:0
     RDKit          3D

 61 64  0  0  0  0  0  0  0  0999 V2000
   63.6190   32.2570   46.9640 H   0  0  0  0  0  0  0  0  0  0  0  0
   63.0740   31.6570   47.5360 O   0  0  0  0  0  0  0  0  0  0  0  0
   61.7200   32.0640   47.5110 C   0  0  2  0  0  0  0  0  0  0  0  0
   61.7320   33.5850   47.2550 C   0  0  0  0  0  0  0  0  0  0  0  0
   61.7362   34.1187   48.2169 H   0  0  0  0  0  0  0  0  0  0  0  0
   62.6323   33.8534   46.6828 H   0  0  0  0  0  0  0  0  0  0  0  0
   60.8361   33.8676   46.6828 H   0  0  0  0  0  0  0  0  0  0  0  0
   60.9980   31.7090   48.8390 C   0  0  0  0  0  0  0  0  0  0  0  0
   60.3154   32.5213   49.1293 H   0  0  0  0  0  0  0  0  0  0  0  0
   61.7184   31.5718   49.6589 H   0  0  0  0  0  0  0  0  0  0  0  0
   60.2050   30.4180   48.5740 C   0  0  0  0  0  0  0  0  0  0  0  0
   59.1240   30.6208   48.5925 H   0  0  0  0  0  0  0  0  0  0  0  0
   60.4024   29.6546   49.3410 H   0  0  0  0  0  0  0  0  0  0  0  0
   60.6380   29.9460   47.1780 C   0  0  1  0  0  0  0  0  0  0  0  0
   61.5066   29.2756   47.2563 H   0  0  0  0  0  0  0  0  0  0  0  0
   59.6900   28.9550   46.4180 C   0  0  0  0  0  0  0  0  0  0  0  0
   59.3190   27.8310   47.4220 C   0  0  0  0  0  0  0  0  0  0  0  0
   59.4416   28.2025   48.4501 H   0  0  0  0  0  0  0  0  0  0  0  0
   58.2733   27.5285   47.2637 H   0  0  0  0  0  0  0  0  0  0  0  0
   59.9791   26.9654   47.2637 H   0  0  0  0  0  0  0  0  0  0  0  0
   60.4970   28.3250   45.2570 C   0  0  0  0  0  0  0  0  0  0  0  0
   61.3013   27.6971   45.6679 H   0  0  0  0  0  0  0  0  0  0  0  0
   59.8289   27.7071   44.6390 H   0  0  0  0  0  0  0  0  0  0  0  0
   60.9343   29.1231   44.6390 H   0  0  0  0  0  0  0  0  0  0  0  0
   58.4560   29.6620   45.8020 C   0  0  0  0  0  0  0  0  0  0  0  0
   57.2830   28.9530   45.3600 C   0  0  0  0  0  0  0  0  0  0  0  0
   57.0920   27.4920   45.4980 C   0  0  0  0  0  0  0  0  0  0  0  0
   56.2740   27.0910   46.3670 O   0  0  0  0  0  0  0  0  0  0  0  0
   57.6870   26.5420   44.5110 C   0  0  0  0  0  0  0  0  0  0  0  0
   57.7740   25.2040   44.6980 C   0  0  0  0  0  0  0  0  0  0  0  0
   58.3966   24.8680   45.5403 H   0  0  0  0  0  0  0  0  0  0  0  0
   57.1130   24.1230   43.8810 C   0  0  0  0  0  0  0  0  0  0  0  0
   56.1635   24.5017   43.4747 H   0  0  0  0  0  0  0  0  0  0  0  0
   57.7802   23.8327   43.0561 H   0  0  0  0  0  0  0  0  0  0  0  0
   56.8420   22.9210   44.7470 C   0  0  0  0  0  0  0  0  0  0  0  0
   57.2210   22.9340   46.1010 C   0  0  0  0  0  0  0  0  0  0  0  0
   57.6867   23.8339   46.5292 H   0  0  0  0  0  0  0  0  0  0  0  0
   57.0100   21.8110   46.9070 C   0  0  0  0  0  0  0  0  0  0  0  0
   57.3840   21.8340   48.2450 O   0  0  0  0  0  0  0  0  0  0  0  0
   56.4260   20.6620   46.3660 C   0  0  0  0  0  0  0  0  0  0  0  0
   56.2568   19.7804   47.0017 H   0  0  0  0  0  0  0  0  0  0  0  0
   56.0570   20.6320   45.0190 C   0  0  0  0  0  0  0  0  0  0  0  0
   55.6002   19.7253   44.5956 H   0  0  0  0  0  0  0  0  0  0  0  0
   56.2670   21.7530   44.2060 C   0  0  0  0  0  0  0  0  0  0  0  0
   55.9040   21.6940   42.8650 O   0  0  0  0  0  0  0  0  0  0  0  0
   58.1600   27.1010   43.1890 C   0  0  0  0  0  0  0  0  0  0  0  0
   58.8608   27.9292   43.3708 H   0  0  0  0  0  0  0  0  0  0  0  0
   58.6674   26.3102   42.6170 H   0  0  0  0  0  0  0  0  0  0  0  0
   57.2961   27.4705   42.6170 H   0  0  0  0  0  0  0  0  0  0  0  0
   56.2230   29.6470   44.7460 C   0  0  0  0  0  0  0  0  0  0  0  0
   55.0640   28.9780   44.3620 O   0  0  0  0  0  0  0  0  0  0  0  0
   56.3170   31.0060   44.5010 C   0  0  0  0  0  0  0  0  0  0  0  0
   55.4845   31.5322   44.0111 H   0  0  0  0  0  0  0  0  0  0  0  0
   57.4530   31.7070   44.8690 C   0  0  0  0  0  0  0  0  0  0  0  0
   57.4980   33.0750   44.6160 O   0  0  0  0  0  0  0  0  0  0  0  0
   58.5320   31.0560   45.5010 C   0  0  0  0  0  0  0  0  0  0  0  0
   59.6530   31.9440   45.9850 C   0  0  0  0  0  0  0  0  0  0  0  0
   59.2732   32.5237   46.8392 H   0  0  0  0  0  0  0  0  0  0  0  0
   59.9411   32.5462   45.1107 H   0  0  0  0  0  0  0  0  0  0  0  0
   60.9530   31.2410   46.4380 C   0  0  1  0  0  0  0  0  0  0  0  0
   61.5332   31.1000   45.5142 H   0  0  0  0  0  0  0  0  0  0  0  0
  1  2  1  0
  3  2  1  1
  3  4  1  0
  4  5  1  0
  4  6  1  0
  4  7  1  0
  3  8  1  0
  8  9  1  0
  8 10  1  0
  8 11  1  0
 11 12  1  0
 11 13  1  0
 11 14  1  0
 14 15  1  1
 14 16  1  0
 16 17  1  0
 17 18  1  0
 17 19  1  0
 17 20  1  0
 16 21  1  0
 21 22  1  0
 21 23  1  0
 21 24  1  0
 16 25  1  0
 25 26  2  0
 26 27  1  0
 27 28  2  0
 27 29  1  0
 29 30  2  0
 30 31  1  0
 30 32  1  0
 32 33  1  0
 32 34  1  0
 32 35  1  0
 35 36  2  0
 36 37  1  0
 36 38  1  0
 38 39  1  0
 38 40  2  0
 40 41  1  0
 40 42  1  0
 42 43  1  0
 42 44  2  0
 44 45  1  0
 29 46  1  0
 46 47  1  0
 46 48  1  0
 46 49  1  0
 26 50  1  0
 50 51  1  0
 50 52  2  0
 52 53  1  0
 52 54  1  0
 54 55  1  0
 54 56  2  0
 56 57  1  0
 57 58  1  0
 57 59  1  0
 57 60  1  0
 60 61  1  6
 60  3  1  0
 60 14  1  0
 56 25  1  0
 44 35  1  0
M  CHG  4  39  -1  45  -1  51  -1  55  -1
M  END
>  <UniqueID>  (85) 
84

>  <SMILES>  (85) 
C/C(=C/Cc1cc([O-])ccc1[O-])C(=O)c1c([O-])cc([O-])c2c1C(C)(C)[C@@H]1CC[C@@](C)(O)C1C2

>  <Energy>  (85) 
103.5143858352601

>  <Genealogy>  (85) 
CC(=CCc1cc([O-])ccc1[O-])C(=O)c1c([O-])cc([O-])c2c1C(C)(C)C1CCC(C)(O)C1C2 (protonated)
CC(=CCc1cc([O-])ccc1[O-])C(=O)c1c([O-])cc([O-])c2c1C(C)(C)[C@@H]1CC[C@@](C)(O)C1C2 (chirality)
C/C(=C/Cc1cc([O-])ccc1[O-])C(=O)c1c([O-])cc([O-])c2c1C(C)(C)[C@@H]1CC[C@@](C)(O)C1C2 (cis-trans isomerization)
C/C(=C/Cc1cc([O-])ccc1[O-])C(=O)c1c([O-])cc([O-])c2c1C(C)(C)[C@@H]1CC[C@@](C)(O)C1C2 (3D coordinates assigned)
C/C(=C/Cc1cc([O-])ccc1[O-])C(=O)c1c([O-])cc([O-])c2c1C(C)(C)[C@@H]1CC[C@@](C)(O)C1C2 (nonaromatic ring conformer: 103.5143858352601 kcal/mol)

>  <smiles>  (85) 
CC(=CCc1cc(O)ccc1O)C(=O)c1c(O)cc(O)c2c1C(C)(C)C1CCC(C)(O)C1C2

>  <score_type>  (85) 
oracle

>  <origin>  (85) 
adg

>  <m_score__min__energy>  (85) 
-17.98

>  <m_primary>  (85) 
energy

$$$$
85:0
     RDKit          3D

 77 81  0  0  0  0  0  0  0  0999 V2000
   57.6660   32.7150   45.2110 C   0  0  0  0  0  0  0  0  0  0  0  0
   57.8440   33.7690   46.2980 C   0  0  0  0  0  0  0  0  0  0  0  0
   59.0630   33.4950   47.0880 N   0  0  0  0  0  0  0  0  0  0  0  0
   58.9460   32.9610   48.3470 C   0  0  0  0  0  0  0  0  0  0  0  0
   57.8110   32.7150   48.8450 O   0  0  0  0  0  0  0  0  0  0  0  0
   60.1060   32.6750   49.0570 C   0  0  0  0  0  0  0  0  0  0  0  0
   61.3370   32.9040   48.5060 C   0  0  0  0  0  0  0  0  0  0  0  0
   61.4680   33.4740   47.2610 N   0  0  0  0  0  0  0  0  0  0  0  0
   62.7720   33.8280   46.6780 C   0  0  0  0  0  0  0  0  0  0  0  0
   60.3120   33.7220   46.5410 C   0  0  0  0  0  0  0  0  0  0  0  0
   60.3960   34.1570   45.3570 O   0  0  0  0  0  0  0  0  0  0  0  0
   62.2950   32.4550   49.3760 N   0  0  0  0  0  0  0  0  0  0  0  0
   63.7580   32.3220   49.2820 C   0  0  0  0  0  0  0  0  0  0  0  0
   64.4660   33.1520   50.3370 C   0  0  0  0  0  0  0  0  0  0  0  0
   63.7690   34.2160   50.9370 C   0  0  0  0  0  0  0  0  0  0  0  0
   64.3690   34.9880   51.9330 C   0  0  0  0  0  0  0  0  0  0  0  0
   65.6680   34.7040   52.3500 C   0  0  0  0  0  0  0  0  0  0  0  0
   66.3710   33.6410   51.7790 C   0  0  0  0  0  0  0  0  0  0  0  0
   65.7780   32.8500   50.7750 C   0  0  0  0  0  0  0  0  0  0  0  0
   66.4630   31.7690   50.1960 O   0  0  0  0  0  0  0  0  0  0  0  0
   67.0540   30.6950   50.9190 C   0  0  0  0  0  0  0  0  0  0  0  0
   61.5760   31.9780   50.4260 C   0  0  0  0  0  0  0  0  0  0  0  0
   62.1040   31.4340   51.4360 O   0  0  0  0  0  0  0  0  0  0  0  0
   60.2390   32.1090   50.2740 N   0  0  0  0  0  0  0  0  0  0  0  0
   59.2020   31.5670   51.1600 C   0  0  0  0  0  0  0  0  0  0  0  0
   58.5560   30.3600   50.5480 C   0  0  0  0  0  0  0  0  0  0  0  0
   57.3590   30.0970   50.8320 O   0  0  0  0  0  0  0  0  0  0  0  0
   59.3310   29.5020   49.6980 N   0  0  0  0  0  0  0  0  0  0  0  0
   59.6470   29.6100   48.3000 C   0  0  0  0  0  0  0  0  0  0  0  0
   60.9320   29.9240   47.8150 C   0  0  0  0  0  0  0  0  0  0  0  0
   61.1580   30.0190   46.4370 C   0  0  0  0  0  0  0  0  0  0  0  0
   60.1130   29.8070   45.5340 C   0  0  0  0  0  0  0  0  0  0  0  0
   58.8360   29.4880   46.0050 C   0  0  0  0  0  0  0  0  0  0  0  0
   57.5120   29.1770   44.8860 S   0  0  0  0  0  0  0  0  0  0  0  0
   57.7560   29.8970   43.5860 O   0  0  0  0  0  0  0  0  0  0  0  0
   56.2380   29.7020   45.4910 O   0  0  0  0  0  0  0  0  0  0  0  0
   57.3760   27.4600   44.6050 N   0  0  0  0  0  0  0  0  0  0  0  0
   58.0150   27.1080   43.3250 C   0  0  0  0  0  0  0  0  0  0  0  0
   57.7620   25.6300   42.9620 C   0  0  0  0  0  0  0  0  0  0  0  0
   57.5540   24.7410   44.2010 C   0  0  0  0  0  0  0  0  0  0  0  0
   58.3600   25.2630   45.3900 C   0  0  0  0  0  0  0  0  0  0  0  0
   57.9620   26.7110   45.7480 C   0  0  0  0  0  0  0  0  0  0  0  0
   58.6120   29.3820   47.3840 C   0  0  0  0  0  0  0  0  0  0  0  0
   57.5001   31.7324   45.6767 H   0  0  0  0  0  0  0  0  0  0  0  0
   56.7992   32.9756   44.5860 H   0  0  0  0  0  0  0  0  0  0  0  0
   58.5704   32.6765   44.5860 H   0  0  0  0  0  0  0  0  0  0  0  0
   57.9308   34.7608   45.8302 H   0  0  0  0  0  0  0  0  0  0  0  0
   56.9717   33.7414   46.9675 H   0  0  0  0  0  0  0  0  0  0  0  0
   63.4934   34.0238   47.4850 H   0  0  0  0  0  0  0  0  0  0  0  0
   63.1340   32.9956   46.0566 H   0  0  0  0  0  0  0  0  0  0  0  0
   62.6633   34.7292   46.0566 H   0  0  0  0  0  0  0  0  0  0  0  0
   64.0294   31.2648   49.4188 H   0  0  0  0  0  0  0  0  0  0  0  0
   64.0724   32.6848   48.2923 H   0  0  0  0  0  0  0  0  0  0  0  0
   62.7408   34.4420   50.6182 H   0  0  0  0  0  0  0  0  0  0  0  0
   63.8157   35.8219   52.3895 H   0  0  0  0  0  0  0  0  0  0  0  0
   66.1406   35.3184   53.1305 H   0  0  0  0  0  0  0  0  0  0  0  0
   67.3947   33.4197   52.1153 H   0  0  0  0  0  0  0  0  0  0  0  0
   66.9523   30.8799   51.9986 H   0  0  0  0  0  0  0  0  0  0  0  0
   66.5464   29.7545   50.6586 H   0  0  0  0  0  0  0  0  0  0  0  0
   68.1201   30.6205   50.6586 H   0  0  0  0  0  0  0  0  0  0  0  0
   59.6594   31.2837   52.1194 H   0  0  0  0  0  0  0  0  0  0  0  0
   58.4328   32.3379   51.3152 H   0  0  0  0  0  0  0  0  0  0  0  0
   61.7587   30.0947   48.5203 H   0  0  0  0  0  0  0  0  0  0  0  0
   62.1635   30.2618   46.0629 H   0  0  0  0  0  0  0  0  0  0  0  0
   60.2951   29.8911   44.4525 H   0  0  0  0  0  0  0  0  0  0  0  0
   56.3500   27.2460   44.5440 H   0  0  0  0  0  0  0  0  0  0  0  0
   57.6033   27.7479   42.5307 H   0  0  0  0  0  0  0  0  0  0  0  0
   59.0998   27.2612   43.4239 H   0  0  0  0  0  0  0  0  0  0  0  0
   56.8623   25.5715   42.3319 H   0  0  0  0  0  0  0  0  0  0  0  0
   58.6534   25.2604   42.4339 H   0  0  0  0  0  0  0  0  0  0  0  0
   56.4861   24.7354   44.4648 H   0  0  0  0  0  0  0  0  0  0  0  0
   57.8973   23.7231   43.9641 H   0  0  0  0  0  0  0  0  0  0  0  0
   58.1749   24.6155   46.2598 H   0  0  0  0  0  0  0  0  0  0  0  0
   59.4255   25.2543   45.1166 H   0  0  0  0  0  0  0  0  0  0  0  0
   57.2213   26.6787   46.5606 H   0  0  0  0  0  0  0  0  0  0  0  0
   58.8811   27.2373   46.0453 H   0  0  0  0  0  0  0  0  0  0  0  0
   57.6101   29.1162   47.7522 H   0  0  0  0  0  0  0  0  0  0  0  0
  1  2  1  0
  2  3  1  0
  3  4  1  0
  4  5  2  0
  4  6  1  0
  6  7  2  0
  7  8  1  0
  8  9  1  0
  8 10  1  0
 10 11  2  0
  7 12  1  0
 12 13  1  0
 13 14  1  0
 14 15  2  0
 15 16  1  0
 16 17  2  0
 17 18  1  0
 18 19  2  0
 19 20  1  0
 20 21  1  0
 12 22  1  0
 22 23  2  0
 22 24  1  0
 24 25  1  0
 25 26  1  0
 26 27  2  0
 26 28  1  0
 28 29  1  0
 29 30  2  0
 30 31  1  0
 31 32  2  0
 32 33  1  0
 33 34  1  0
 34 35  2  0
 34 36  2  0
 34 37  1  0
 37 38  1  0
 38 39  1  0
 39 40  1  0
 40 41  1  0
 41 42  1  0
 33 43  2  0
 10  3  1  0
 19 14  1  0
 43 29  1  0
 24  6  1  0
 42 37  1  0
  1 44  1  0
  1 45  1  0
  1 46  1  0
  2 47  1  0
  2 48  1  0
  9 49  1  0
  9 50  1  0
  9 51  1  0
 13 52  1  0
 13 53  1  0
 15 54  1  0
 16 55  1  0
 17 56  1  0
 18 57  1  0
 21 58  1  0
 21 59  1  0
 21 60  1  0
 25 61  1  0
 25 62  1  0
 30 63  1  0
 31 64  1  0
 32 65  1  0
 37 66  1  0
 38 67  1  0
 38 68  1  0
 39 69  1  0
 39 70  1  0
 40 71  1  0
 40 72  1  0
 41 73  1  0
 41 74  1  0
 42 75  1  0
 42 76  1  0
 43 77  1  0
M  CHG  2  28  -1  37   1
M  END
>  <UniqueID>  (86) 
85

>  <SMILES>  (86) 
CCn1c(=O)c2c(n(C)c1=O)n(Cc1ccccc1OC)c(=O)n2CC(=O)[N-]c1cccc(S(=O)(=O)[NH+]2CCCCC2)c1

>  <Energy>  (86) 
142.73393764240143

>  <Genealogy>  (86) 
CCn1c(=O)c2c(n(C)c1=O)n(Cc1ccccc1OC)c(=O)n2CC(=O)[N-]c1cccc(S(=O)(=O)[NH+]2CCCCC2)c1 (protonated)
CCn1c(=O)c2c(n(C)c1=O)n(Cc1ccccc1OC)c(=O)n2CC(=O)[N-]c1cccc(S(=O)(=O)[NH+]2CCCCC2)c1 (3D coordinates assigned)
CCn1c(=O)c2c(n(C)c1=O)n(Cc1ccccc1OC)c(=O)n2CC(=O)[N-]c1cccc(S(=O)(=O)[NH+]2CCCCC2)c1 (nonaromatic ring conformer: 142.73393764240143 kcal/mol)

>  <smiles>  (86) 
CCn1c(=O)c2c(n(C)c1=O)n(Cc1ccccc1OC)c(=O)n2CC(=O)Nc1cccc(S(=O)(=O)N2CCCCC2)c1

>  <score_type>  (86) 
oracle

>  <origin>  (86) 
adg

>  <m_score__min__energy>  (86) 
-10.119999999999999

>  <m_primary>  (86) 
energy

$$$$
86:0
     RDKit          3D

 64 68  0  0  0  0  0  0  0  0999 V2000
   55.1519   30.0493   55.2405 H   0  0  0  0  0  0  0  0  0  0  0  0
   54.8260   30.0360   54.1900 C   0  0  0  0  0  0  0  0  0  0  0  0
   55.8740   30.1880   53.1620 C   0  0  0  0  0  0  0  0  0  0  0  0
   55.7420   29.5740   52.0680 O   0  0  0  0  0  0  0  0  0  0  0  0
   57.0250   31.0130   53.3930 N   0  0  0  0  0  0  0  0  0  0  0  0
   57.8620   31.6200   52.4020 C   0  0  0  0  0  0  0  0  0  0  0  0
   57.6270   31.3220   51.0570 C   0  0  0  0  0  0  0  0  0  0  0  0
   56.8188   30.6273   50.7845 H   0  0  0  0  0  0  0  0  0  0  0  0
   58.4110   31.9000   50.0570 C   0  0  0  0  0  0  0  0  0  0  0  0
   58.2332   31.6358   49.0041 H   0  0  0  0  0  0  0  0  0  0  0  0
   59.4250   32.8160   50.3830 C   0  0  0  0  0  0  0  0  0  0  0  0
   60.2340   33.4160   49.2970 C   0  0  0  0  0  0  0  0  0  0  0  0
   61.3140   32.8570   48.9640 O   0  0  0  0  0  0  0  0  0  0  0  0
   59.8040   34.6510   48.5990 C   0  0  0  0  0  0  0  0  0  0  0  0
   59.5812   35.5359   49.2133 H   0  0  0  0  0  0  0  0  0  0  0  0
   59.6680   34.7630   47.2680 C   0  0  0  0  0  0  0  0  0  0  0  0
   60.1822   35.6013   46.7753 H   0  0  0  0  0  0  0  0  0  0  0  0
   58.8820   33.8490   46.4120 C   0  0  0  0  0  0  0  0  0  0  0  0
   57.5670   34.1890   46.0690 C   0  0  0  0  0  0  0  0  0  0  0  0
   57.1377   35.1381   46.4225 H   0  0  0  0  0  0  0  0  0  0  0  0
   56.7970   33.3290   45.2800 C   0  0  0  0  0  0  0  0  0  0  0  0
   55.7699   33.6109   45.0049 H   0  0  0  0  0  0  0  0  0  0  0  0
   57.3300   32.1040   44.8360 C   0  0  0  0  0  0  0  0  0  0  0  0
   56.6090   31.2100   44.0270 O   0  0  0  0  0  0  0  0  0  0  0  0
   56.0880   29.9520   44.4560 C   0  0  0  0  0  0  0  0  0  0  0  0
   55.2998   30.1229   45.2040 H   0  0  0  0  0  0  0  0  0  0  0  0
   55.6759   29.4222   43.5846 H   0  0  0  0  0  0  0  0  0  0  0  0
   57.1730   29.1130   45.0650 C   0  0  0  0  0  0  0  0  0  0  0  0
   57.5550   29.3450   46.3510 N   0  0  0  0  0  0  0  0  0  0  0  0
   58.5280   28.6110   46.9560 C   0  0  0  0  0  0  0  0  0  0  0  0
   58.8950   28.8830   48.2780 C   0  0  0  0  0  0  0  0  0  0  0  0
   58.3956   29.6925   48.8306 H   0  0  0  0  0  0  0  0  0  0  0  0
   59.8970   28.1270   48.9000 C   0  0  0  0  0  0  0  0  0  0  0  0
   60.1853   28.3463   49.9387 H   0  0  0  0  0  0  0  0  0  0  0  0
   60.5320   27.0930   48.2020 C   0  0  0  0  0  0  0  0  0  0  0  0
   61.3136   26.4968   48.6955 H   0  0  0  0  0  0  0  0  0  0  0  0
   60.1740   26.8160   46.8760 C   0  0  0  0  0  0  0  0  0  0  0  0
   60.6779   26.0061   46.3282 H   0  0  0  0  0  0  0  0  0  0  0  0
   59.1720   27.5720   46.2460 C   0  0  0  0  0  0  0  0  0  0  0  0
   58.7810   27.3100   44.9260 C   0  0  0  0  0  0  0  0  0  0  0  0
   59.2628   26.5003   44.3584 H   0  0  0  0  0  0  0  0  0  0  0  0
   57.7790   28.0790   44.3340 C   0  0  0  0  0  0  0  0  0  0  0  0
   57.4652   27.8762   43.2994 H   0  0  0  0  0  0  0  0  0  0  0  0
   58.6310   31.7490   45.2140 C   0  0  0  0  0  0  0  0  0  0  0  0
   59.0512   30.7868   44.8860 H   0  0  0  0  0  0  0  0  0  0  0  0
   59.3990   32.6070   46.0040 C   0  0  0  0  0  0  0  0  0  0  0  0
   60.4133   32.3096   46.3085 H   0  0  0  0  0  0  0  0  0  0  0  0
   59.6430   33.1350   51.7350 C   0  0  0  0  0  0  0  0  0  0  0  0
   60.4288   33.8553   52.0066 H   0  0  0  0  0  0  0  0  0  0  0  0
   58.8680   32.5430   52.7360 C   0  0  0  0  0  0  0  0  0  0  0  0
   59.0462   32.8007   53.7904 H   0  0  0  0  0  0  0  0  0  0  0  0
   53.5120   29.8830   53.9620 C   0  0  0  0  0  0  0  0  0  0  0  0
   52.9547   29.2258   54.6457 H   0  0  0  0  0  0  0  0  0  0  0  0
   52.7520   30.5240   52.8690 C   0  0  0  0  0  0  0  0  0  0  0  0
   51.8570   31.5770   53.1270 C   0  0  0  0  0  0  0  0  0  0  0  0
   51.7071   31.9302   54.1579 H   0  0  0  0  0  0  0  0  0  0  0  0
   51.1570   32.1760   52.0750 C   0  0  0  0  0  0  0  0  0  0  0  0
   50.4412   32.9850   52.2830 H   0  0  0  0  0  0  0  0  0  0  0  0
   51.3640   31.7500   50.7600 C   0  0  0  0  0  0  0  0  0  0  0  0
   50.6650   32.3430   49.7170 O   0  0  0  0  0  0  0  0  0  0  0  0
   52.2820   30.7270   50.4960 C   0  0  0  0  0  0  0  0  0  0  0  0
   52.4546   30.3984   49.4605 H   0  0  0  0  0  0  0  0  0  0  0  0
   52.9800   30.1220   51.5450 C   0  0  0  0  0  0  0  0  0  0  0  0
   53.7106   29.3279   51.3313 H   0  0  0  0  0  0  0  0  0  0  0  0
  1  2  1  0
  2  3  1  0
  3  4  2  0
  3  5  1  0
  5  6  1  0
  6  7  2  0
  7  8  1  0
  7  9  1  0
  9 10  1  0
  9 11  2  0
 11 12  1  0
 12 13  2  0
 12 14  1  0
 14 15  1  0
 14 16  2  0
 16 17  1  0
 16 18  1  0
 18 19  2  0
 19 20  1  0
 19 21  1  0
 21 22  1  0
 21 23  2  0
 23 24  1  0
 24 25  1  0
 25 26  1  0
 25 27  1  0
 25 28  1  0
 28 29  2  0
 29 30  1  0
 30 31  2  0
 31 32  1  0
 31 33  1  0
 33 34  1  0
 33 35  2  0
 35 36  1  0
 35 37  1  0
 37 38  1  0
 37 39  2  0
 39 40  1  0
 40 41  1  0
 40 42  2  0
 42 43  1  0
 23 44  1  0
 44 45  1  0
 44 46  2  0
 46 47  1  0
 11 48  1  0
 48 49  1  0
 48 50  2  0
 50 51  1  0
  2 52  2  3
 52 53  1  0
 52 54  1  0
 54 55  2  0
 55 56  1  0
 55 57  1  0
 57 58  1  0
 57 59  2  0
 59 60  1  0
 59 61  1  0
 61 62  1  0
 61 63  2  0
 63 64  1  0
 50  6  1  0
 63 54  1  0
 46 18  1  0
 42 28  1  0
 39 30  1  0
M  CHG  2   5  -1  60  -1
M  END
>  <UniqueID>  (87) 
86

>  <SMILES>  (87) 
O=C(C=Cc1ccc([O-])cc1)[N-]c1ccc(C(=O)/C=C\c2ccc(OCc3ccc4ccccc4n3)cc2)cc1

>  <Energy>  (87) 
95.92624546261166

>  <Genealogy>  (87) 
O=C(C=Cc1ccc([O-])cc1)[N-]c1ccc(C(=O)C=Cc2ccc(OCc3ccc4ccccc4n3)cc2)cc1 (protonated)
O=C(C=Cc1ccc([O-])cc1)[N-]c1ccc(C(=O)/C=C\c2ccc(OCc3ccc4ccccc4n3)cc2)cc1 (cis-trans isomerization)
O=C(C=Cc1ccc([O-])cc1)[N-]c1ccc(C(=O)/C=C\c2ccc(OCc3ccc4ccccc4n3)cc2)cc1 (3D coordinates assigned)
O=C(C=Cc1ccc([O-])cc1)[N-]c1ccc(C(=O)/C=C\c2ccc(OCc3ccc4ccccc4n3)cc2)cc1 (optimized conformer: 95.92624546261166 kcal/mol)

>  <smiles>  (87) 
O=C(C=Cc1ccc(O)cc1)Nc1ccc(C(=O)C=Cc2ccc(OCc3ccc4ccccc4n3)cc2)cc1

>  <score_type>  (87) 
oracle

>  <origin>  (87) 
adg

>  <m_score__min__energy>  (87) 
-15.75

>  <m_primary>  (87) 
energy

$$$$
87:0
     RDKit          3D

 40 42  0  0  0  0  0  0  0  0999 V2000
   58.6850   30.4280   46.8310 C   0  0  0  0  0  0  0  0  0  0  0  0
   57.9130   29.8110   45.9200 C   0  0  0  0  0  0  0  0  0  0  0  0
   57.5930   28.4430   45.8860 C   0  0  0  0  0  0  0  0  0  0  0  0
   57.7360   27.4790   46.8160 C   0  0  0  0  0  0  0  0  0  0  0  0
   57.3010   26.0790   46.6720 C   0  0  0  0  0  0  0  0  0  0  0  0
   58.0530   25.0120   47.0010 N   0  0  0  0  0  0  0  0  0  0  0  0
   57.2100   23.9720   46.8310 C   0  0  0  0  0  0  0  0  0  0  0  0
   57.5560   22.7780   47.0300 O   0  0  0  0  0  0  0  0  0  0  0  0
   55.9630   24.3110   46.4410 N   0  0  0  0  0  0  0  0  0  0  0  0
   56.0320   25.6500   46.3560 C   0  0  0  0  0  0  0  0  0  0  0  0
   54.9530   26.4520   45.9980 O   0  0  0  0  0  0  0  0  0  0  0  0
   57.0390   28.2080   44.6400 C   0  0  0  0  0  0  0  0  0  0  0  0
   56.9670   29.4240   43.9960 C   0  0  0  0  0  0  0  0  0  0  0  0
   56.3860   29.6210   42.6270 C   0  0  0  0  0  0  0  0  0  0  0  0
   57.4890   30.4030   44.7720 N   0  0  0  0  0  0  0  0  0  0  0  0
   57.5860   31.7960   44.4190 C   0  0  0  0  0  0  0  0  0  0  0  0
   58.2870   32.1480   43.4320 O   0  0  0  0  0  0  0  0  0  0  0  0
   56.9010   32.7830   45.1980 N   0  0  0  0  0  0  0  0  0  0  0  0
   57.4080   34.1320   45.4190 C   0  0  0  0  0  0  0  0  0  0  0  0
   58.6680   34.0860   46.2410 C   0  0  0  0  0  0  0  0  0  0  0  0
   59.9170   34.2560   45.6220 C   0  0  0  0  0  0  0  0  0  0  0  0
   61.0920   34.1880   46.3760 C   0  0  0  0  0  0  0  0  0  0  0  0
   61.0290   33.9440   47.7520 C   0  0  0  0  0  0  0  0  0  0  0  0
   62.1980   33.8750   48.4990 O   0  0  0  0  0  0  0  0  0  0  0  0
   59.7900   33.7680   48.3740 C   0  0  0  0  0  0  0  0  0  0  0  0
   58.6130   33.8360   47.6230 C   0  0  0  0  0  0  0  0  0  0  0  0
   58.8665   31.5103   46.7556 H   0  0  0  0  0  0  0  0  0  0  0  0
   59.1353   29.8506   47.6519 H   0  0  0  0  0  0  0  0  0  0  0  0
   58.2186   27.7612   47.7634 H   0  0  0  0  0  0  0  0  0  0  0  0
   54.0310   26.3020   46.3880 H   0  0  0  0  0  0  0  0  0  0  0  0
   56.7172   27.2353   44.2397 H   0  0  0  0  0  0  0  0  0  0  0  0
   55.3477   29.9731   42.7165 H   0  0  0  0  0  0  0  0  0  0  0  0
   56.9805   30.3678   42.0803 H   0  0  0  0  0  0  0  0  0  0  0  0
   56.4037   28.6666   42.0803 H   0  0  0  0  0  0  0  0  0  0  0  0
   57.6244   34.6023   44.4484 H   0  0  0  0  0  0  0  0  0  0  0  0
   56.6486   34.7167   45.9589 H   0  0  0  0  0  0  0  0  0  0  0  0
   59.9709   34.4434   44.5394 H   0  0  0  0  0  0  0  0  0  0  0  0
   62.0674   34.3265   45.8868 H   0  0  0  0  0  0  0  0  0  0  0  0
   59.7409   33.5757   49.4560 H   0  0  0  0  0  0  0  0  0  0  0  0
   57.6399   33.6933   48.1156 H   0  0  0  0  0  0  0  0  0  0  0  0
  1  2  2  0
  2  3  1  0
  3  4  2  3
  4  5  1  0
  5  6  1  0
  6  7  1  0
  7  8  2  0
  7  9  1  0
  9 10  1  0
 10 11  1  0
  3 12  1  0
 12 13  2  0
 13 14  1  0
 13 15  1  0
 15 16  1  0
 16 17  2  0
 16 18  1  0
 18 19  1  0
 19 20  1  0
 20 21  2  0
 21 22  1  0
 22 23  2  0
 23 24  1  0
 23 25  1  0
 25 26  2  0
 15  2  1  0
 26 20  1  0
 10  5  2  0
  1 27  1  0
  1 28  1  0
  4 29  1  0
 11 30  1  0
 12 31  1  0
 14 32  1  0
 14 33  1  0
 14 34  1  0
 19 35  1  0
 19 36  1  0
 21 37  1  0
 22 38  1  0
 25 39  1  0
 26 40  1  0
M  CHG  4   6  -1   9  -1  18  -1  24  -1
M  END
>  <UniqueID>  (88) 
87

>  <SMILES>  (88) 
C=c1c(=Cc2[n-]c(=O)[n-]c2O)cc(C)n1C(=O)[N-]Cc1ccc([O-])cc1

>  <Energy>  (88) 
112.310320630307

>  <Genealogy>  (88) 
C=c1c(=Cc2[n-]c(=O)[n-]c2O)cc(C)n1C(=O)[N-]Cc1ccc([O-])cc1 (protonated)
C=c1c(=Cc2[n-]c(=O)[n-]c2O)cc(C)n1C(=O)[N-]Cc1ccc([O-])cc1 (3D coordinates assigned)
C=c1c(=Cc2[n-]c(=O)[n-]c2O)cc(C)n1C(=O)[N-]Cc1ccc([O-])cc1 (optimized conformer: 112.310320630307 kcal/mol)

>  <smiles>  (88) 
C=c1c(=Cc2[nH]c(=O)[nH]c2O)cc(C)n1C(=O)NCc1ccc(O)cc1

>  <score_type>  (88) 
oracle

>  <origin>  (88) 
adg

>  <m_score__min__energy>  (88) 
-14.550000000000001

>  <m_primary>  (88) 
energy

$$$$
88:0
     RDKit          3D

 54 57  0  0  0  0  0  0  0  0999 V2000
   64.6470   32.8370   49.4710 C   0  0  0  0  0  0  0  0  0  0  0  0
   63.7550   33.9190   48.8430 C   0  0  1  0  0  0  0  0  0  0  0  0
   63.7740   33.8500   47.2930 C   0  0  0  0  0  0  0  0  0  0  0  0
   62.4490   33.3580   46.6910 C   0  0  0  0  0  0  0  0  0  0  0  0
   61.8550   32.2190   47.5290 C   0  0  0  0  0  0  0  0  0  0  0  0
   61.6380   32.5930   48.9520 N   0  0  0  0  0  0  0  0  0  0  0  0
   60.2220   32.5310   49.3800 C   0  0  0  0  0  0  0  0  0  0  0  0
   59.5750   31.2030   49.0780 C   0  0  0  0  0  0  0  0  0  0  0  0
   58.4950   31.1740   48.4300 O   0  0  0  0  0  0  0  0  0  0  0  0
   60.1730   29.9860   49.5400 N   0  0  0  0  0  0  0  0  0  0  0  0
   60.1780   28.7580   48.7950 C   0  0  0  0  0  0  0  0  0  0  0  0
   60.5960   27.5270   49.3090 C   0  0  0  0  0  0  0  0  0  0  0  0
   60.3000   26.3570   48.1400 S   0  0  0  0  0  0  0  0  0  0  0  0
   59.6760   27.4560   47.0330 C   0  0  0  0  0  0  0  0  0  0  0  0
   59.0230   27.0810   45.7430 C   0  0  0  0  0  0  0  0  0  0  0  0
   58.0710   28.1620   45.3420 C   0  0  0  0  0  0  0  0  0  0  0  0
   56.6830   28.0950   45.4390 C   0  0  0  0  0  0  0  0  0  0  0  0
   56.0380   29.2560   45.1500 N   0  0  0  0  0  0  0  0  0  0  0  0
   56.9090   30.2420   44.8370 C   0  0  0  0  0  0  0  0  0  0  0  0
   56.5550   31.4500   44.5160 N   0  0  0  0  0  0  0  0  0  0  0  0
   57.4650   32.5030   44.1700 C   0  0  0  0  0  0  0  0  0  0  0  0
   57.7670   32.6660   42.9580 O   0  0  0  0  0  0  0  0  0  0  0  0
   58.1000   33.3620   45.2000 C   0  0  0  0  0  0  0  0  0  0  0  0
   59.0710   34.3160   44.8530 C   0  0  0  0  0  0  0  0  0  0  0  0
   59.6470   35.1200   45.8380 C   0  0  0  0  0  0  0  0  0  0  0  0
   59.2400   34.9740   47.1640 C   0  0  0  0  0  0  0  0  0  0  0  0
   58.2880   34.0600   47.4870 N   0  0  0  0  0  0  0  0  0  0  0  0
   57.7130   33.2630   46.5470 C   0  0  0  0  0  0  0  0  0  0  0  0
   58.5080   29.7270   44.8960 S   0  0  0  0  0  0  0  0  0  0  0  0
   59.6530   28.7070   47.5400 N   0  0  0  0  0  0  0  0  0  0  0  0
   62.3170   33.8340   49.3930 C   0  0  0  0  0  0  0  0  0  0  0  0
   64.5902   32.9059   50.5674 H   0  0  0  0  0  0  0  0  0  0  0  0
   64.3017   31.8439   49.1476 H   0  0  0  0  0  0  0  0  0  0  0  0
   65.6877   32.9866   49.1476 H   0  0  0  0  0  0  0  0  0  0  0  0
   64.1688   34.8978   49.1273 H   0  0  0  0  0  0  0  0  0  0  0  0
   63.9833   34.8563   46.9011 H   0  0  0  0  0  0  0  0  0  0  0  0
   64.5506   33.1249   47.0084 H   0  0  0  0  0  0  0  0  0  0  0  0
   61.7345   34.1939   46.6620 H   0  0  0  0  0  0  0  0  0  0  0  0
   62.6431   32.9821   45.6756 H   0  0  0  0  0  0  0  0  0  0  0  0
   60.8879   31.9302   47.0916 H   0  0  0  0  0  0  0  0  0  0  0  0
   62.5778   31.3899   47.5145 H   0  0  0  0  0  0  0  0  0  0  0  0
   60.1754   32.7053   50.4651 H   0  0  0  0  0  0  0  0  0  0  0  0
   59.6733   33.3008   48.8176 H   0  0  0  0  0  0  0  0  0  0  0  0
   60.7250   30.0140   50.4260 H   0  0  0  0  0  0  0  0  0  0  0  0
   61.0392   27.3552   50.3010 H   0  0  0  0  0  0  0  0  0  0  0  0
   59.7901   26.9586   44.9642 H   0  0  0  0  0  0  0  0  0  0  0  0
   58.4767   26.1343   45.8666 H   0  0  0  0  0  0  0  0  0  0  0  0
   56.1514   27.1759   45.7265 H   0  0  0  0  0  0  0  0  0  0  0  0
   59.3781   34.4297   43.8029 H   0  0  0  0  0  0  0  0  0  0  0  0
   60.4144   35.8615   45.5710 H   0  0  0  0  0  0  0  0  0  0  0  0
   59.6902   35.5994   47.9490 H   0  0  0  0  0  0  0  0  0  0  0  0
   56.9411   32.5372   46.8427 H   0  0  0  0  0  0  0  0  0  0  0  0
   61.7449   34.7016   49.0326 H   0  0  0  0  0  0  0  0  0  0  0  0
   62.3682   33.8269   50.4918 H   0  0  0  0  0  0  0  0  0  0  0  0
  1  2  1  0
  2  3  1  0
  3  4  1  0
  4  5  1  0
  5  6  1  0
  6  7  1  0
  7  8  1  0
  8  9  2  0
  8 10  1  0
 10 11  1  0
 11 12  2  0
 12 13  1  0
 13 14  1  0
 14 15  1  0
 15 16  1  0
 16 17  2  0
 17 18  1  0
 18 19  1  0
 19 20  2  3
 20 21  1  0
 21 22  2  0
 21 23  1  0
 23 24  2  0
 24 25  1  0
 25 26  2  0
 26 27  1  0
 27 28  2  0
 19 29  1  0
 14 30  2  0
  6 31  1  0
 31  2  1  0
 30 11  1  0
 29 16  1  0
 28 23  1  0
  1 32  1  0
  1 33  1  0
  1 34  1  0
  2 35  1  6
  3 36  1  0
  3 37  1  0
  4 38  1  0
  4 39  1  0
  5 40  1  0
  5 41  1  0
  7 42  1  0
  7 43  1  0
 10 44  1  0
 12 45  1  0
 15 46  1  0
 15 47  1  0
 17 48  1  0
 24 49  1  0
 25 50  1  0
 26 51  1  0
 28 52  1  0
 31 53  1  0
 31 54  1  0
M  CHG  1  18  -1
M  END
>  <UniqueID>  (89) 
88

>  <SMILES>  (89) 
C[C@H]1CCCN(CC(=O)Nc2csc(Cc3c[n-]c(=NC(=O)c4cccnc4)s3)n2)C1

>  <Energy>  (89) 
130.24029203601248

>  <Genealogy>  (89) 
CC1CCCN(CC(=O)Nc2csc(Cc3c[n-]c(=NC(=O)c4cccnc4)s3)n2)C1 (protonated)
C[C@H]1CCCN(CC(=O)Nc2csc(Cc3c[n-]c(=NC(=O)c4cccnc4)s3)n2)C1 (chirality)
C[C@H]1CCCN(CC(=O)Nc2csc(Cc3c[n-]c(=NC(=O)c4cccnc4)s3)n2)C1 (3D coordinates assigned)
C[C@H]1CCCN(CC(=O)Nc2csc(Cc3c[n-]c(=NC(=O)c4cccnc4)s3)n2)C1 (nonaromatic ring conformer: 130.24029203601248 kcal/mol)

>  <smiles>  (89) 
CC1CCCN(CC(=O)Nc2csc(Cc3c[nH]c(=NC(=O)c4cccnc4)s3)n2)C1

>  <score_type>  (89) 
oracle

>  <origin>  (89) 
adg

>  <m_score__min__energy>  (89) 
-12.029999999999999

>  <m_primary>  (89) 
energy

$$$$
89:0
     RDKit          3D

 37 38  0  0  0  0  0  0  0  0999 V2000
   55.1670   29.1790   44.8460 N   0  0  0  0  0  0  0  0  0  0  0  0
   56.4590   29.7520   45.0400 C   0  0  0  0  0  0  0  0  0  0  0  0
   56.7410   30.8380   44.4680 O   0  0  0  0  0  0  0  0  0  0  0  0
   57.4660   29.0570   45.8810 C   0  0  0  0  0  0  0  0  0  0  0  0
   57.3810   27.6600   46.0310 C   0  0  0  0  0  0  0  0  0  0  0  0
   58.3540   26.9450   46.7370 C   0  0  0  0  0  0  0  0  0  0  0  0
   58.2050   25.5510   46.8420 O   0  0  0  0  0  0  0  0  0  0  0  0
   57.7940   24.6850   45.7870 C   0  0  0  0  0  0  0  0  0  0  0  0
   58.0990   25.2470   44.5610 F   0  0  0  0  0  0  0  0  0  0  0  0
   56.4340   24.4430   45.8710 F   0  0  0  0  0  0  0  0  0  0  0  0
   58.4660   23.4840   45.9060 F   0  0  0  0  0  0  0  0  0  0  0  0
   59.4360   27.6370   47.3060 C   0  0  0  0  0  0  0  0  0  0  0  0
   59.5270   29.0230   47.1800 C   0  0  0  0  0  0  0  0  0  0  0  0
   58.5420   29.7460   46.4960 C   0  0  0  0  0  0  0  0  0  0  0  0
   58.6500   31.1770   46.4590 N   0  0  0  0  0  0  0  0  0  0  0  0
   59.9160   31.8480   46.4570 C   0  0  0  0  0  0  0  0  0  0  0  0
   60.9890   31.1880   46.5340 O   0  0  0  0  0  0  0  0  0  0  0  0
   59.9530   33.2760   46.3560 N   0  0  0  0  0  0  0  0  0  0  0  0
   60.2690   34.1560   47.4760 C   0  0  0  0  0  0  0  0  0  0  0  0
   61.5890   33.7710   48.0890 C   0  0  0  0  0  0  0  0  0  0  0  0
   61.7230   33.7050   49.4840 C   0  0  0  0  0  0  0  0  0  0  0  0
   62.9530   33.3700   50.0590 C   0  0  0  0  0  0  0  0  0  0  0  0
   64.0590   33.1040   49.2450 C   0  0  0  0  0  0  0  0  0  0  0  0
   65.6010   32.6860   49.9680 Cl  0  0  0  0  0  0  0  0  0  0  0  0
   63.9330   33.1740   47.8540 C   0  0  0  0  0  0  0  0  0  0  0  0
   62.7040   33.5080   47.2760 C   0  0  0  0  0  0  0  0  0  0  0  0
   54.3940   29.3570   45.5250 H   0  0  0  0  0  0  0  0  0  0  0  0
   56.5330   27.1202   45.5844 H   0  0  0  0  0  0  0  0  0  0  0  0
   60.2140   27.0839   47.8527 H   0  0  0  0  0  0  0  0  0  0  0  0
   60.3823   29.5543   47.6230 H   0  0  0  0  0  0  0  0  0  0  0  0
   57.8030   31.7310   46.2000 H   0  0  0  0  0  0  0  0  0  0  0  0
   60.3252   35.1942   47.1167 H   0  0  0  0  0  0  0  0  0  0  0  0
   59.4807   34.0619   48.2374 H   0  0  0  0  0  0  0  0  0  0  0  0
   60.8570   33.9176   50.1281 H   0  0  0  0  0  0  0  0  0  0  0  0
   63.0509   33.3156   51.1533 H   0  0  0  0  0  0  0  0  0  0  0  0
   64.8024   32.9659   47.2130 H   0  0  0  0  0  0  0  0  0  0  0  0
   62.6102   33.5649   46.1815 H   0  0  0  0  0  0  0  0  0  0  0  0
  1  2  1  0
  2  3  2  0
  2  4  1  0
  4  5  2  0
  5  6  1  0
  6  7  1  0
  7  8  1  0
  8  9  1  0
  8 10  1  0
  8 11  1  0
  6 12  2  0
 12 13  1  0
 13 14  2  0
 14 15  1  0
 15 16  1  0
 16 17  2  0
 16 18  1  0
 18 19  1  0
 19 20  1  0
 20 21  2  0
 21 22  1  0
 22 23  2  0
 23 24  1  0
 23 25  1  0
 25 26  2  0
 14  4  1  0
 26 20  1  0
  1 27  1  0
  5 28  1  0
 12 29  1  0
 13 30  1  0
 15 31  1  0
 19 32  1  0
 19 33  1  0
 21 34  1  0
 22 35  1  0
 25 36  1  0
 26 37  1  0
M  CHG  2   1  -1  18  -1
M  END
>  <UniqueID>  (90) 
89

>  <SMILES>  (90) 
[NH-]C(=O)c1cc(OC(F)(F)F)ccc1NC(=O)[N-]Cc1ccc(Cl)cc1

>  <Energy>  (90) 
43.468170852199215

>  <Genealogy>  (90) 
[NH-]C(=O)c1cc(OC(F)(F)F)ccc1NC(=O)[N-]Cc1ccc(Cl)cc1 (protonated)
[NH-]C(=O)c1cc(OC(F)(F)F)ccc1NC(=O)[N-]Cc1ccc(Cl)cc1 (3D coordinates assigned)
[NH-]C(=O)c1cc(OC(F)(F)F)ccc1NC(=O)[N-]Cc1ccc(Cl)cc1 (optimized conformer: 43.468170852199215 kcal/mol)

>  <smiles>  (90) 
NC(=O)c1cc(OC(F)(F)F)ccc1NC(=O)NCc1ccc(Cl)cc1

>  <score_type>  (90) 
oracle

>  <origin>  (90) 
adg

>  <m_score__min__energy>  (90) 
-11.41

>  <m_primary>  (90) 
energy

$$$$
90:0
     RDKit          3D

 48 50  0  0  0  0  0  0  0  0999 V2000
   55.8940   27.7310   44.9740 H   0  0  0  0  0  0  0  0  0  0  0  0
   55.5410   27.0810   45.6670 O   0  0  0  0  0  0  0  0  0  0  0  0
   56.2490   25.9260   45.9840 C   0  0  0  0  0  0  0  0  0  0  0  0
   55.9290   25.1040   46.9970 N   0  0  0  0  0  0  0  0  0  0  0  0
   56.8840   24.1510   46.9130 C   0  0  0  0  0  0  0  0  0  0  0  0
   56.9390   23.1760   47.7080 O   0  0  0  0  0  0  0  0  0  0  0  0
   57.7780   24.3270   45.9150 N   0  0  0  0  0  0  0  0  0  0  0  0
   57.3560   25.4570   45.3200 C   0  0  0  0  0  0  0  0  0  0  0  0
   58.0490   26.1100   44.1690 C   0  0  0  0  0  0  0  0  0  0  0  0
   57.5481   25.8296   43.2307 H   0  0  0  0  0  0  0  0  0  0  0  0
   59.0978   25.7801   44.1332 H   0  0  0  0  0  0  0  0  0  0  0  0
   57.9970   27.5240   44.3330 O   0  0  0  0  0  0  0  0  0  0  0  0
   58.6580   28.2350   45.3470 C   0  0  0  0  0  0  0  0  0  0  0  0
   59.7070   27.6630   46.0940 C   0  0  0  0  0  0  0  0  0  0  0  0
   60.0063   26.6213   45.9062 H   0  0  0  0  0  0  0  0  0  0  0  0
   60.3700   28.4100   47.0720 C   0  0  0  0  0  0  0  0  0  0  0  0
   61.1888   27.9557   47.6492 H   0  0  0  0  0  0  0  0  0  0  0  0
   59.9940   29.7320   47.3170 C   0  0  0  0  0  0  0  0  0  0  0  0
   60.5166   30.3181   48.0873 H   0  0  0  0  0  0  0  0  0  0  0  0
   58.9550   30.3110   46.5850 C   0  0  0  0  0  0  0  0  0  0  0  0
   58.6651   31.3543   46.7786 H   0  0  0  0  0  0  0  0  0  0  0  0
   58.2780   29.5690   45.6030 C   0  0  0  0  0  0  0  0  0  0  0  0
   57.1930   30.1970   44.8230 C   0  0  0  0  0  0  0  0  0  0  0  0
   56.0270   29.7170   44.8770 O   0  0  0  0  0  0  0  0  0  0  0  0
   57.4830   31.3150   43.8670 C   0  0  0  0  0  0  0  0  0  0  0  0
   56.7190   31.3286   43.0757 H   0  0  0  0  0  0  0  0  0  0  0  0
   58.4748   31.1643   43.4156 H   0  0  0  0  0  0  0  0  0  0  0  0
   57.4620   32.6200   44.6050 C   0  0  0  0  0  0  0  0  0  0  0  0
   56.6770   32.7680   45.5820 O   0  0  0  0  0  0  0  0  0  0  0  0
   59.1520   34.6190   46.2790 C   0  0  0  0  0  0  0  0  0  0  0  0
   58.5628   35.5316   46.4521 H   0  0  0  0  0  0  0  0  0  0  0  0
   59.6430   33.9760   47.3500 C   0  0  0  0  0  0  0  0  0  0  0  0
   58.9774   33.8484   48.2164 H   0  0  0  0  0  0  0  0  0  0  0  0
   58.3240   33.7340   44.1550 C   0  0  0  0  0  0  0  0  0  0  0  0
   58.1117   34.2122   43.1874 H   0  0  0  0  0  0  0  0  0  0  0  0
   59.3520   34.1800   44.8830 C   0  0  0  0  0  0  0  0  0  0  0  0
   60.3572   34.2206   44.4382 H   0  0  0  0  0  0  0  0  0  0  0  0
   61.0130   33.4260   47.4520 C   0  0  0  0  0  0  0  0  0  0  0  0
   61.3100   32.5110   48.4760 C   0  0  0  0  0  0  0  0  0  0  0  0
   60.5197   32.1912   49.1711 H   0  0  0  0  0  0  0  0  0  0  0  0
   62.6070   32.0050   48.6150 C   0  0  0  0  0  0  0  0  0  0  0  0
   62.8297   31.2748   49.4070 H   0  0  0  0  0  0  0  0  0  0  0  0
   63.6200   32.4260   47.7490 C   0  0  0  0  0  0  0  0  0  0  0  0
   64.6376   32.0224   47.8564 H   0  0  0  0  0  0  0  0  0  0  0  0
   63.3410   33.3600   46.7460 C   0  0  0  0  0  0  0  0  0  0  0  0
   64.1407   33.6954   46.0693 H   0  0  0  0  0  0  0  0  0  0  0  0
   62.0450   33.8680   46.6030 C   0  0  0  0  0  0  0  0  0  0  0  0
   61.8320   34.6153   45.8244 H   0  0  0  0  0  0  0  0  0  0  0  0
  1  2  1  0
  2  3  1  0
  3  4  1  0
  4  5  1  0
  5  6  2  0
  5  7  1  0
  7  8  1  0
  8  9  1  0
  9 10  1  0
  9 11  1  0
  9 12  1  0
 12 13  1  0
 13 14  2  0
 14 15  1  0
 14 16  1  0
 16 17  1  0
 16 18  2  0
 18 19  1  0
 18 20  1  0
 20 21  1  0
 20 22  2  0
 22 23  1  0
 23 24  2  0
 23 25  1  0
 25 26  1  0
 25 27  1  0
 25 28  1  0
 28 29  2  0
 28 30  1  0
 30 31  1  0
 30 32  2  0
 32 33  1  0
 32 34  1  0
 34 35  1  0
 34 36  2  0
 36 37  1  0
 36 38  1  0
 38 39  2  0
 39 40  1  0
 39 41  1  0
 41 42  1  0
 41 43  2  0
 43 44  1  0
 43 45  1  0
 45 46  1  0
 45 47  2  0
 47 48  1  0
  8  3  2  0
 22 13  1  0
 47 38  1  0
M  CHG  2   4  -1   7  -1
M  END
>  <UniqueID>  (91) 
90

>  <SMILES>  (91) 
O=C(C=C/C=C\c1ccccc1)CC(=O)c1ccccc1OCc1[n-]c(=O)[n-]c1O

>  <Energy>  (91) 
81.74185859172921

>  <Genealogy>  (91) 
O=C(C=CC=Cc1ccccc1)CC(=O)c1ccccc1OCc1[n-]c(=O)[n-]c1O (protonated)
O=C(C=C/C=C\c1ccccc1)CC(=O)c1ccccc1OCc1[n-]c(=O)[n-]c1O (cis-trans isomerization)
O=C(C=C/C=C\c1ccccc1)CC(=O)c1ccccc1OCc1[n-]c(=O)[n-]c1O (3D coordinates assigned)
O=C(C=C/C=C\c1ccccc1)CC(=O)c1ccccc1OCc1[n-]c(=O)[n-]c1O (optimized conformer: 81.74185859172921 kcal/mol)

>  <smiles>  (91) 
O=C(C=CC=Cc1ccccc1)CC(=O)c1ccccc1OCc1[nH]c(=O)[nH]c1O

>  <score_type>  (91) 
oracle

>  <origin>  (91) 
adg

>  <m_score__min__energy>  (91) 
-13.279999999999999

>  <m_primary>  (91) 
energy

$$$$
91:0
     RDKit          3D

 67 70  0  0  0  0  0  0  0  0999 V2000
   57.4690   27.5850   46.9740 O   0  0  0  0  0  0  0  0  0  0  0  0
   58.5760   26.9990   46.8420 C   0  0  0  0  0  0  0  0  0  0  0  0
   59.6390   27.2130   47.8860 C   0  0  0  0  0  0  0  0  0  0  0  0
   59.7460   28.6740   48.2300 C   0  0  0  0  0  0  0  0  0  0  0  0
   60.6910   29.4860   47.5810 C   0  0  0  0  0  0  0  0  0  0  0  0
   60.8090   30.8380   47.9200 C   0  0  0  0  0  0  0  0  0  0  0  0
   59.9880   31.3860   48.9110 C   0  0  0  0  0  0  0  0  0  0  0  0
   59.0530   30.5820   49.5690 C   0  0  0  0  0  0  0  0  0  0  0  0
   58.9330   29.2290   49.2340 C   0  0  0  0  0  0  0  0  0  0  0  0
   58.7720   26.1470   45.7040 N   0  0  0  0  0  0  0  0  0  0  0  0
   57.8930   26.0520   44.5400 C   0  0  0  0  0  0  0  0  0  0  0  0
   57.8070   27.3650   43.7980 C   0  0  0  0  0  0  0  0  0  0  0  0
   57.8110   27.3730   42.5720 O   0  0  0  0  0  0  0  0  0  0  0  0
   57.7430   28.6150   44.5320 N   0  0  1  0  0  0  0  0  0  0  0  0
   59.0660   29.2900   44.4810 C   0  0  0  0  0  0  0  0  0  0  0  0
   58.9640   30.7670   44.8910 C   0  0  0  0  0  0  0  0  0  0  0  0
   57.9820   31.5910   44.0030 C   0  0  2  0  0  0  0  0  0  0  0  0
   57.2410   32.5560   44.8770 N   0  0  0  0  0  0  0  0  0  0  0  0
   57.3440   33.9940   44.5530 C   0  0  0  0  0  0  0  0  0  0  0  0
   58.7590   34.5510   44.8020 C   0  0  0  0  0  0  0  0  0  0  0  0
   59.4490   33.9010   46.0250 C   0  0  0  0  0  0  0  0  0  0  0  0
   60.4030   34.9060   46.7070 C   0  0  0  0  0  0  0  0  0  0  0  0
   61.5070   34.2120   47.4660 C   0  0  0  0  0  0  0  0  0  0  0  0
   62.5570   33.5800   46.7810 C   0  0  0  0  0  0  0  0  0  0  0  0
   63.5930   32.9670   47.4910 C   0  0  0  0  0  0  0  0  0  0  0  0
   63.5960   32.9790   48.8900 C   0  0  0  0  0  0  0  0  0  0  0  0
   64.9190   32.1990   49.7450 Cl  0  0  0  0  0  0  0  0  0  0  0  0
   62.5500   33.6100   49.5840 C   0  0  0  0  0  0  0  0  0  0  0  0
   62.5150   33.6490   51.3410 Cl  0  0  0  0  0  0  0  0  0  0  0  0
   61.5110   34.2240   48.8710 C   0  0  0  0  0  0  0  0  0  0  0  0
   58.4000   33.3490   47.0080 C   0  0  0  0  0  0  0  0  0  0  0  0
   57.4770   32.3110   46.3280 C   0  0  0  0  0  0  0  0  0  0  0  0
   57.0800   30.6280   43.1790 C   0  0  0  0  0  0  0  0  0  0  0  0
   56.6100   29.4540   44.0450 C   0  0  0  0  0  0  0  0  0  0  0  0
   59.3782   26.6451   48.7913 H   0  0  0  0  0  0  0  0  0  0  0  0
   60.6049   26.8669   47.4895 H   0  0  0  0  0  0  0  0  0  0  0  0
   61.3404   29.0572   46.8036 H   0  0  0  0  0  0  0  0  0  0  0  0
   61.5481   31.4707   47.4068 H   0  0  0  0  0  0  0  0  0  0  0  0
   60.0783   32.4506   49.1727 H   0  0  0  0  0  0  0  0  0  0  0  0
   58.4109   31.0135   50.3510 H   0  0  0  0  0  0  0  0  0  0  0  0
   58.2003   28.5974   49.7577 H   0  0  0  0  0  0  0  0  0  0  0  0
   58.2849   25.2823   43.8589 H   0  0  0  0  0  0  0  0  0  0  0  0
   56.8844   25.7895   44.8917 H   0  0  0  0  0  0  0  0  0  0  0  0
   57.5530   28.3920   45.5400 H   0  0  0  0  0  0  0  0  0  0  0  0
   59.4576   29.2307   43.4548 H   0  0  0  0  0  0  0  0  0  0  0  0
   59.7385   28.7825   45.1883 H   0  0  0  0  0  0  0  0  0  0  0  0
   59.9640   31.2191   44.8166 H   0  0  0  0  0  0  0  0  0  0  0  0
   58.5711   30.7920   45.9181 H   0  0  0  0  0  0  0  0  0  0  0  0
   58.5160   32.1952   43.2548 H   0  0  0  0  0  0  0  0  0  0  0  0
   57.0896   34.1365   43.4924 H   0  0  0  0  0  0  0  0  0  0  0  0
   56.6488   34.5371   45.2101 H   0  0  0  0  0  0  0  0  0  0  0  0
   59.3737   34.3624   43.9095 H   0  0  0  0  0  0  0  0  0  0  0  0
   58.6614   35.6271   45.0082 H   0  0  0  0  0  0  0  0  0  0  0  0
   60.0565   33.0515   45.6797 H   0  0  0  0  0  0  0  0  0  0  0  0
   60.8521   35.5488   45.9356 H   0  0  0  0  0  0  0  0  0  0  0  0
   59.8164   35.4971   47.4256 H   0  0  0  0  0  0  0  0  0  0  0  0
   62.5643   33.5673   45.6811 H   0  0  0  0  0  0  0  0  0  0  0  0
   64.4108   32.4722   46.9467 H   0  0  0  0  0  0  0  0  0  0  0  0
   60.6930   34.7187   49.4153 H   0  0  0  0  0  0  0  0  0  0  0  0
   58.9181   32.8686   47.8511 H   0  0  0  0  0  0  0  0  0  0  0  0
   57.7788   34.1873   47.3565 H   0  0  0  0  0  0  0  0  0  0  0  0
   57.9356   31.3174   46.4392 H   0  0  0  0  0  0  0  0  0  0  0  0
   56.4979   32.3885   46.8234 H   0  0  0  0  0  0  0  0  0  0  0  0
   57.6527   30.2397   42.3239 H   0  0  0  0  0  0  0  0  0  0  0  0
   56.1983   31.1833   42.8265 H   0  0  0  0  0  0  0  0  0  0  0  0
   55.9349   28.8232   43.4481 H   0  0  0  0  0  0  0  0  0  0  0  0
   56.0998   29.8711   44.9258 H   0  0  0  0  0  0  0  0  0  0  0  0
  1  2  2  0
  2  3  1  0
  3  4  1  0
  4  5  2  0
  5  6  1  0
  6  7  2  0
  7  8  1  0
  8  9  2  0
  2 10  1  0
 10 11  1  0
 11 12  1  0
 12 13  2  0
 12 14  1  0
 14 15  1  0
 15 16  1  0
 16 17  1  0
 17 18  1  0
 18 19  1  0
 19 20  1  0
 20 21  1  0
 21 22  1  0
 22 23  1  0
 23 24  2  0
 24 25  1  0
 25 26  2  0
 26 27  1  0
 26 28  1  0
 28 29  1  0
 28 30  2  0
 21 31  1  0
 31 32  1  0
 17 33  1  0
 33 34  1  0
  9  4  1  0
 34 14  1  0
 32 18  1  0
 30 23  1  0
  3 35  1  0
  3 36  1  0
  5 37  1  0
  6 38  1  0
  7 39  1  0
  8 40  1  0
  9 41  1  0
 11 42  1  0
 11 43  1  0
 14 44  1  1
 15 45  1  0
 15 46  1  0
 16 47  1  0
 16 48  1  0
 17 49  1  6
 19 50  1  0
 19 51  1  0
 20 52  1  0
 20 53  1  0
 21 54  1  0
 22 55  1  0
 22 56  1  0
 24 57  1  0
 25 58  1  0
 30 59  1  0
 31 60  1  0
 31 61  1  0
 32 62  1  0
 32 63  1  0
 33 64  1  0
 33 65  1  0
 34 66  1  0
 34 67  1  0
M  CHG  2  10  -1  14   1
M  END
>  <UniqueID>  (92) 
91

>  <SMILES>  (92) 
O=C(Cc1ccccc1)[N-]CC(=O)[NH+]1CCC(N2CCC(Cc3ccc(Cl)c(Cl)c3)CC2)CC1

>  <Energy>  (92) 
92.19113331494475

>  <Genealogy>  (92) 
O=C(Cc1ccccc1)[N-]CC(=O)[NH+]1CCC(N2CCC(Cc3ccc(Cl)c(Cl)c3)CC2)CC1 (protonated)
O=C(Cc1ccccc1)[N-]CC(=O)[NH+]1CCC(N2CCC(Cc3ccc(Cl)c(Cl)c3)CC2)CC1 (3D coordinates assigned)
O=C(Cc1ccccc1)[N-]CC(=O)[NH+]1CCC(N2CCC(Cc3ccc(Cl)c(Cl)c3)CC2)CC1 (nonaromatic ring conformer: 92.19113331494475 kcal/mol)

>  <smiles>  (92) 
O=C(Cc1ccccc1)NCC(=O)N1CCC(N2CCC(Cc3ccc(Cl)c(Cl)c3)CC2)CC1

>  <score_type>  (92) 
oracle

>  <origin>  (92) 
adg

>  <m_score__min__energy>  (92) 
-11.359999999999999

>  <m_primary>  (92) 
energy

$$$$
92:0
     RDKit          3D

 48 50  0  0  0  0  0  0  0  0999 V2000
   61.8928   29.9686   45.4962 H   0  0  0  0  0  0  0  0  0  0  0  0
   60.9690   29.3800   45.3950 C   0  0  0  0  0  0  0  0  0  0  0  0
   60.6491   29.0246   44.4044 H   0  0  0  0  0  0  0  0  0  0  0  0
   60.2310   29.0950   46.4820 C   0  0  0  0  0  0  0  0  0  0  0  0
   59.0340   28.3590   46.5190 C   0  0  0  0  0  0  0  0  0  0  0  0
   58.4360   27.5960   45.5830 C   0  0  0  0  0  0  0  0  0  0  0  0
   58.8979   27.5684   44.5850 H   0  0  0  0  0  0  0  0  0  0  0  0
   57.2160   26.7960   45.7840 C   0  0  0  0  0  0  0  0  0  0  0  0
   57.1920   25.5380   46.2670 N   0  0  0  0  0  0  0  0  0  0  0  0
   55.8690   25.2670   46.3570 C   0  0  0  0  0  0  0  0  0  0  0  0
   55.4310   24.1570   46.7600 O   0  0  0  0  0  0  0  0  0  0  0  0
   55.0550   26.2810   45.9900 N   0  0  0  0  0  0  0  0  0  0  0  0
   55.9250   27.2440   45.6440 C   0  0  0  0  0  0  0  0  0  0  0  0
   55.5440   28.5090   45.2110 O   0  0  0  0  0  0  0  0  0  0  0  0
   58.5070   28.5370   47.7870 C   0  0  0  0  0  0  0  0  0  0  0  0
   57.5511   28.1411   48.1605 H   0  0  0  0  0  0  0  0  0  0  0  0
   59.4100   29.3060   48.4930 C   0  0  0  0  0  0  0  0  0  0  0  0
   59.2420   29.7110   49.9290 C   0  0  0  0  0  0  0  0  0  0  0  0
   59.5810   28.8937   50.5825 H   0  0  0  0  0  0  0  0  0  0  0  0
   59.8406   30.6121   50.1283 H   0  0  0  0  0  0  0  0  0  0  0  0
   58.1813   29.9239   50.1283 H   0  0  0  0  0  0  0  0  0  0  0  0
   60.4680   29.6290   47.7110 N   0  0  0  0  0  0  0  0  0  0  0  0
   61.5890   30.4940   48.1070 C   0  0  0  0  0  0  0  0  0  0  0  0
   62.2007   29.9731   48.8583 H   0  0  0  0  0  0  0  0  0  0  0  0
   62.1950   30.7218   47.2177 H   0  0  0  0  0  0  0  0  0  0  0  0
   61.0670   31.8080   48.7030 C   0  0  0  0  0  0  0  0  0  0  0  0
   60.0098   31.6834   48.9803 H   0  0  0  0  0  0  0  0  0  0  0  0
   61.6687   32.0565   49.5897 H   0  0  0  0  0  0  0  0  0  0  0  0
   61.1840   32.9020   47.7340 N   0  0  0  0  0  0  0  0  0  0  0  0
   59.6400   33.6340   47.3930 S   0  0  0  0  0  0  0  0  0  0  0  0
   59.8460   35.0980   47.1130 O   0  0  0  0  0  0  0  0  0  0  0  0
   58.7310   33.4990   48.5880 O   0  0  0  0  0  0  0  0  0  0  0  0
   58.9110   32.8880   45.9740 C   0  0  0  0  0  0  0  0  0  0  0  0
   58.3410   31.6150   46.0840 C   0  0  0  0  0  0  0  0  0  0  0  0
   58.3835   31.0779   47.0430 H   0  0  0  0  0  0  0  0  0  0  0  0
   57.7170   31.0210   44.9810 C   0  0  0  0  0  0  0  0  0  0  0  0
   57.2635   30.0240   45.0822 H   0  0  0  0  0  0  0  0  0  0  0  0
   57.6650   31.6910   43.7400 C   0  0  0  0  0  0  0  0  0  0  0  0
   57.0060   31.0740   42.5580 C   0  0  0  0  0  0  0  0  0  0  0  0
   57.0360   31.6630   41.4400 O   0  0  0  0  0  0  0  0  0  0  0  0
   56.2940   29.7570   42.6490 C   0  0  0  0  0  0  0  0  0  0  0  0
   56.1499   29.4904   43.7064 H   0  0  0  0  0  0  0  0  0  0  0  0
   55.3149   29.8345   42.1537 H   0  0  0  0  0  0  0  0  0  0  0  0
   56.8951   28.9802   42.1537 H   0  0  0  0  0  0  0  0  0  0  0  0
   58.2520   32.9670   43.6380 C   0  0  0  0  0  0  0  0  0  0  0  0
   58.2275   33.5014   42.6768 H   0  0  0  0  0  0  0  0  0  0  0  0
   58.8660   33.5630   44.7450 C   0  0  0  0  0  0  0  0  0  0  0  0
   59.3144   34.5631   44.6514 H   0  0  0  0  0  0  0  0  0  0  0  0
  1  2  1  0
  2  3  1  0
  2  4  2  0
  4  5  1  0
  5  6  2  0
  6  7  1  0
  6  8  1  0
  8  9  1  0
  9 10  1  0
 10 11  2  0
 10 12  1  0
 12 13  1  0
 13 14  1  0
  5 15  1  0
 15 16  1  0
 15 17  2  0
 17 18  1  0
 18 19  1  0
 18 20  1  0
 18 21  1  0
 17 22  1  0
 22 23  1  0
 23 24  1  0
 23 25  1  0
 23 26  1  0
 26 27  1  0
 26 28  1  0
 26 29  1  0
 29 30  1  0
 30 31  2  0
 30 32  2  0
 30 33  1  0
 33 34  2  0
 34 35  1  0
 34 36  1  0
 36 37  1  0
 36 38  2  0
 38 39  1  0
 39 40  2  0
 39 41  1  0
 41 42  1  0
 41 43  1  0
 41 44  1  0
 38 45  1  0
 45 46  1  0
 45 47  2  0
 47 48  1  0
 22  4  1  0
 47 33  1  0
 13  8  2  0
M  CHG  4   9  -1  12  -1  14  -1  29  -1
M  END
>  <UniqueID>  (93) 
92

>  <SMILES>  (93) 
C=c1/c(=C\c2[n-]c(=O)[n-]c2[O-])cc(C)n1CC[N-]S(=O)(=O)c1ccc(C(C)=O)cc1

>  <Energy>  (93) 
115.08248911984862

>  <Genealogy>  (93) 
C=c1c(=Cc2[n-]c(=O)[n-]c2[O-])cc(C)n1CC[N-]S(=O)(=O)c1ccc(C(C)=O)cc1 (protonated)
C=c1/c(=C\c2[n-]c(=O)[n-]c2[O-])cc(C)n1CC[N-]S(=O)(=O)c1ccc(C(C)=O)cc1 (cis-trans isomerization)
C=c1/c(=C\c2[n-]c(=O)[n-]c2[O-])cc(C)n1CC[N-]S(=O)(=O)c1ccc(C(C)=O)cc1 (3D coordinates assigned)
C=c1/c(=C\c2[n-]c(=O)[n-]c2[O-])cc(C)n1CC[N-]S(=O)(=O)c1ccc(C(C)=O)cc1 (optimized conformer: 115.08248911984862 kcal/mol)

>  <smiles>  (93) 
C=c1c(=Cc2[nH]c(=O)[nH]c2O)cc(C)n1CCNS(=O)(=O)c1ccc(C(C)=O)cc1

>  <score_type>  (93) 
oracle

>  <origin>  (93) 
adg

>  <m_score__min__energy>  (93) 
-18.350000000000001

>  <m_primary>  (93) 
energy

$$$$
