0:0
     RDKit          3D

 31 33  0  0  0  0  0  0  0  0999 V2000
   60.9860   28.5680   44.3660 O   0  0  0  0  0  0  0  0  0  0  0  0
   59.7520   28.6010   44.6090 C   0  0  0  0  0  0  0  0  0  0  0  0
   59.1060   27.4480   45.2520 C   0  0  0  0  0  0  0  0  0  0  0  0
   57.8130   27.4720   45.6170 C   0  0  0  0  0  0  0  0  0  0  0  0
   57.2200   26.2670   46.2450 C   0  0  0  0  0  0  0  0  0  0  0  0
   57.9150   25.2750   46.7490 O   0  0  0  0  0  0  0  0  0  0  0  0
   57.0520   24.3990   47.2100 C   0  0  0  0  0  0  0  0  0  0  0  0
   57.3920   23.3210   47.7630 O   0  0  0  0  0  0  0  0  0  0  0  0
   55.7640   24.7590   47.0320 N   0  0  0  0  0  0  0  0  0  0  0  0
   55.8850   25.9490   46.4150 C   0  0  0  0  0  0  0  0  0  0  0  0
   54.7970   26.7090   46.0060 O   0  0  0  0  0  0  0  0  0  0  0  0
   56.9470   28.6920   45.3550 C   0  0  0  0  0  0  0  0  0  0  0  0
   57.7320   30.0030   45.1010 C   0  0  1  0  0  0  0  0  0  0  0  0
   58.1310   30.7410   46.3750 C   0  0  0  0  0  0  0  0  0  0  0  0
   58.0740   32.1480   46.3950 C   0  0  0  0  0  0  0  0  0  0  0  0
   58.4650   32.8610   47.5320 C   0  0  0  0  0  0  0  0  0  0  0  0
   58.9300   32.1830   48.6610 C   0  0  0  0  0  0  0  0  0  0  0  0
   59.4210   33.0800   50.0860 Cl  0  0  0  0  0  0  0  0  0  0  0  0
   59.0080   30.7890   48.6490 C   0  0  0  0  0  0  0  0  0  0  0  0
   58.6190   30.0700   47.5150 C   0  0  0  0  0  0  0  0  0  0  0  0
   58.9370   29.7790   44.1730 C   0  0  0  0  0  0  0  0  0  0  0  0
   59.6976   26.5399   45.4397 H   0  0  0  0  0  0  0  0  0  0  0  0
   56.3266   28.4876   44.4700 H   0  0  0  0  0  0  0  0  0  0  0  0
   56.3579   28.8559   46.2694 H   0  0  0  0  0  0  0  0  0  0  0  0
   57.0263   30.6689   44.5828 H   0  0  0  0  0  0  0  0  0  0  0  0
   57.7183   32.6913   45.5071 H   0  0  0  0  0  0  0  0  0  0  0  0
   58.4063   33.9594   47.5375 H   0  0  0  0  0  0  0  0  0  0  0  0
   59.3774   30.2539   49.5362 H   0  0  0  0  0  0  0  0  0  0  0  0
   58.6942   28.9726   47.5121 H   0  0  0  0  0  0  0  0  0  0  0  0
   58.5729   29.6031   43.1500 H   0  0  0  0  0  0  0  0  0  0  0  0
   59.5748   30.6743   44.2123 H   0  0  0  0  0  0  0  0  0  0  0  0
  1  2  2  0
  2  3  1  0
  3  4  2  0
  4  5  1  0
  5  6  1  0
  6  7  1  0
  7  8  2  0
  7  9  1  0
  9 10  1  0
 10 11  1  0
  4 12  1  0
 12 13  1  0
 13 14  1  0
 14 15  2  0
 15 16  1  0
 16 17  2  0
 17 18  1  0
 17 19  1  0
 19 20  2  0
 13 21  1  0
 21  2  1  0
 10  5  2  0
 20 14  1  0
  3 22  1  0
 12 23  1  0
 12 24  1  0
 13 25  1  6
 15 26  1  0
 16 27  1  0
 19 28  1  0
 20 29  1  0
 21 30  1  0
 21 31  1  0
M  CHG  2   9  -1  11  -1
M  END
>  <UniqueID>  (1) 
1

>  <SMILES>  (1) 
O=C1C=C(c2oc(=O)[n-]c2[O-])C[C@@H](c2ccc(Cl)cc2)C1

>  <Energy>  (1) 
68.43909516931195

>  <Genealogy>  (1) 
O=C1C=C(c2oc(=O)[n-]c2[O-])CC(c2ccc(Cl)cc2)C1 (protonated)
O=C1C=C(c2oc(=O)[n-]c2[O-])C[C@@H](c2ccc(Cl)cc2)C1 (chirality)
O=C1C=C(c2oc(=O)[n-]c2[O-])C[C@@H](c2ccc(Cl)cc2)C1 (3D coordinates assigned)
O=C1C=C(c2oc(=O)[n-]c2[O-])C[C@@H](c2ccc(Cl)cc2)C1 (nonaromatic ring conformer: 68.43909516931195 kcal/mol)

>  <smiles>  (1) 
O=C1C=C(c2oc(=O)[nH]c2O)CC(c2ccc(Cl)cc2)C1

>  <score_type>  (1) 
oracle

>  <origin>  (1) 
adg

>  <m_score__min__energy>  (1) 
-14.359999999999999

>  <m_primary>  (1) 
energy

$$$$
1:0
     RDKit          3D

 50 53  0  0  1  0  0  0  0  0999 V2000
   55.1440   26.2720   46.0170 O   0  0  0  0  0  0  0  0  0  0  0  0
   56.3850   26.0870   46.1630 C   0  0  0  0  0  0  0  0  0  0  0  0
   56.8580   24.6690   46.2730 C   0  0  0  0  0  0  0  0  0  0  0  0
   56.7600   24.0620   44.9160 C   0  0  0  0  0  0  0  0  0  0  0  0
   56.9790   24.6180   43.6830 C   0  0  0  0  0  0  0  0  0  0  0  0
   56.7480   23.6250   42.7860 N   0  0  0  0  0  0  0  0  0  0  0  0
   56.3990   22.4950   43.4210 C   0  0  0  0  0  0  0  0  0  0  0  0
   56.4080   22.7680   44.7400 N   0  0  0  0  0  0  0  0  0  0  0  0
   57.3170   27.1670   46.2250 N   0  0  0  0  0  0  0  0  0  0  0  0
   57.0430   28.2440   45.6240 C   0  0  0  0  0  0  0  0  0  0  0  0
   55.9950   28.6770   44.9470 N   0  0  0  0  0  0  0  0  0  0  0  0
   55.9580   29.8470   44.4160 C   0  0  0  0  0  0  0  0  0  0  0  0
   57.0680   30.6920   44.5620 C   0  0  0  0  0  0  0  0  0  0  0  0
   57.3940   32.3200   43.9970 S   0  0  0  0  0  0  0  0  0  0  0  0
   58.2770   33.3240   45.1840 C   0  0  0  0  0  0  0  0  0  0  0  0
   58.9810   34.4300   44.7390 C   0  0  0  0  0  0  0  0  0  0  0  0
   59.6400   35.1670   45.6850 C   0  0  0  0  0  0  0  0  0  0  0  0
   59.6170   34.8400   47.0240 C   0  0  0  0  0  0  0  0  0  0  0  0
   58.9200   33.7390   47.4930 C   0  0  0  0  0  0  0  0  0  0  0  0
   58.9470   33.4770   48.8630 N   0  0  0  0  0  0  0  0  0  0  0  0
   60.0090   33.7400   49.7580 C   0  0  0  0  0  0  0  0  0  0  0  0
   61.0790   34.2560   49.3960 O   0  0  0  0  0  0  0  0  0  0  0  0
   59.8810   33.3980   51.2070 C   0  0  0  0  0  0  0  0  0  0  0  0
   58.8100   32.4180   51.4220 C   0  0  0  0  0  0  0  0  0  0  0  0
   57.6360   32.7240   52.0770 C   0  0  0  0  0  0  0  0  0  0  0  0
   56.6480   31.7590   52.2570 C   0  0  0  0  0  0  0  0  0  0  0  0
   56.8650   30.4950   51.7690 C   0  0  0  0  0  0  0  0  0  0  0  0
   58.0180   30.1480   51.1110 C   0  0  0  0  0  0  0  0  0  0  0  0
   58.9750   31.1320   50.9520 C   0  0  0  0  0  0  0  0  0  0  0  0
   58.2570   32.9990   46.5420 C   0  0  0  0  0  0  0  0  0  0  0  0
   58.2680   29.6670   45.5700 S   0  0  0  0  0  0  0  0  0  0  0  0
   57.9013   24.6462   46.6210 H   0  0  0  0  0  0  0  0  0  0  0  0
   56.2451   24.1092   46.9949 H   0  0  0  0  0  0  0  0  0  0  0  0
   57.2795   25.6535   43.4650 H   0  0  0  0  0  0  0  0  0  0  0  0
   56.8250   23.7110   41.7410 H   0  0  0  0  0  0  0  0  0  0  0  0
   56.1527   21.5303   42.9535 H   0  0  0  0  0  0  0  0  0  0  0  0
   55.1450   27.9930   44.8520 H   0  0  0  0  0  0  0  0  0  0  0  0
   55.0712   30.1798   43.8568 H   0  0  0  0  0  0  0  0  0  0  0  0
   59.0093   34.7037   43.6740 H   0  0  0  0  0  0  0  0  0  0  0  0
   60.2088   36.0526   45.3654 H   0  0  0  0  0  0  0  0  0  0  0  0
   60.1667   35.4701   47.7387 H   0  0  0  0  0  0  0  0  0  0  0  0
   58.0890   33.0340   49.3050 H   0  0  0  0  0  0  0  0  0  0  0  0
   60.8323   32.9754   51.5625 H   0  0  0  0  0  0  0  0  0  0  0  0
   59.6353   34.3144   51.7636 H   0  0  0  0  0  0  0  0  0  0  0  0
   57.4778   33.7422   52.4619 H   0  0  0  0  0  0  0  0  0  0  0  0
   55.7122   32.0053   52.7800 H   0  0  0  0  0  0  0  0  0  0  0  0
   56.0858   29.7316   51.9105 H   0  0  0  0  0  0  0  0  0  0  0  0
   58.1739   29.1293   50.7263 H   0  0  0  0  0  0  0  0  0  0  0  0
   59.9085   30.8787   50.4281 H   0  0  0  0  0  0  0  0  0  0  0  0
   57.6876   32.1148   46.8643 H   0  0  0  0  0  0  0  0  0  0  0  0
  1  2  2  0
  2  3  1  0
  3  4  1  0
  4  5  2  0
  5  6  1  0
  6  7  1  0
  7  8  2  0
  2  9  1  0
  9 10  2  0
 10 11  1  0
 11 12  1  0
 12 13  2  0
 13 14  1  0
 14 15  1  0
 15 16  2  0
 16 17  1  0
 17 18  2  0
 18 19  1  0
 19 20  1  0
 20 21  1  0
 21 22  2  0
 21 23  1  0
 23 24  1  0
 24 25  2  0
 25 26  1  0
 26 27  2  0
 27 28  1  0
 28 29  2  0
 19 30  2  0
 13 31  1  0
  8  4  1  0
 31 10  1  0
 30 15  1  0
 29 24  1  0
  3 32  1  0
  3 33  1  0
  5 34  1  0
  6 35  1  0
  7 36  1  0
 11 37  1  0
 12 38  1  0
 16 39  1  0
 17 40  1  0
 18 41  1  0
 20 42  1  0
 23 43  1  0
 23 44  1  0
 25 45  1  0
 26 46  1  0
 27 47  1  0
 28 48  1  0
 29 49  1  0
 30 50  1  0
M  END
>  <smiles>  (2) 
O=C(Cc1c[nH]cn1)N=c1[nH]cc(Sc2cccc(NC(=O)Cc3ccccc3)c2)s1

>  <score_type>  (2) 
oracle

>  <origin>  (2) 
adg

>  <m_score__min__energy>  (2) 
-10.289999999999999

>  <m_primary>  (2) 
energy

$$$$
2:0
     RDKit          3D

 32 33  0  0  0  0  0  0  0  0999 V2000
   61.2700   33.5680   46.6860 C   0  0  0  0  0  0  0  0  0  0  0  0
   59.6800   34.3100   46.9700 S   0  0  0  0  0  0  0  0  0  0  0  0
   59.4250   35.3710   45.9370 O   0  0  0  0  0  0  0  0  0  0  0  0
   59.6690   34.9340   48.3370 O   0  0  0  0  0  0  0  0  0  0  0  0
   58.4520   33.0940   46.8590 N   0  0  0  0  0  0  0  0  0  0  0  0
   58.1060   32.4860   45.6130 C   0  0  0  0  0  0  0  0  0  0  0  0
   58.1310   33.2690   44.4560 C   0  0  0  0  0  0  0  0  0  0  0  0
   57.7670   32.7210   43.2280 C   0  0  0  0  0  0  0  0  0  0  0  0
   57.3850   31.3820   43.1440 C   0  0  0  0  0  0  0  0  0  0  0  0
   57.3800   30.5600   44.2890 C   0  0  0  0  0  0  0  0  0  0  0  0
   56.9810   29.1330   44.1530 C   0  0  0  0  0  0  0  0  0  0  0  0
   57.3070   28.4890   43.1170 O   0  0  0  0  0  0  0  0  0  0  0  0
   56.3390   28.4450   45.2360 N   0  0  0  0  0  0  0  0  0  0  0  0
   56.7160   27.3630   45.8610 C   0  0  0  0  0  0  0  0  0  0  0  0
   58.0170   27.2840   46.2550 N   0  0  0  0  0  0  0  0  0  0  0  0
   58.5240   26.2050   46.9050 C   0  0  0  0  0  0  0  0  0  0  0  0
   57.7010   25.1200   47.2000 C   0  0  0  0  0  0  0  0  0  0  0  0
   56.3560   25.1690   46.8400 C   0  0  0  0  0  0  0  0  0  0  0  0
   55.8420   26.2920   46.1860 C   0  0  0  0  0  0  0  0  0  0  0  0
   54.4770   26.3370   45.9280 O   0  0  0  0  0  0  0  0  0  0  0  0
   57.7510   31.1210   45.5360 C   0  0  0  0  0  0  0  0  0  0  0  0
   57.7740   30.3220   46.6820 O   0  0  0  0  0  0  0  0  0  0  0  0
   61.7482   33.3449   47.6512 H   0  0  0  0  0  0  0  0  0  0  0  0
   61.1431   32.6361   46.1155 H   0  0  0  0  0  0  0  0  0  0  0  0
   61.9027   34.2639   46.1155 H   0  0  0  0  0  0  0  0  0  0  0  0
   58.4396   34.3232   44.5151 H   0  0  0  0  0  0  0  0  0  0  0  0
   57.7808   33.3456   42.3226 H   0  0  0  0  0  0  0  0  0  0  0  0
   57.0841   30.9626   42.1726 H   0  0  0  0  0  0  0  0  0  0  0  0
   59.5840   26.1874   47.1985 H   0  0  0  0  0  0  0  0  0  0  0  0
   58.1084   24.2352   47.7111 H   0  0  0  0  0  0  0  0  0  0  0  0
   55.6958   24.3201   47.0715 H   0  0  0  0  0  0  0  0  0  0  0  0
   57.7120   29.3140   46.6490 H   0  0  0  0  0  0  0  0  0  0  0  0
  1  2  1  0
  2  3  2  0
  2  4  2  0
  2  5  1  0
  5  6  1  0
  6  7  2  0
  7  8  1  0
  8  9  2  0
  9 10  1  0
 10 11  1  0
 11 12  2  0
 11 13  1  0
 13 14  2  3
 14 15  1  0
 15 16  1  0
 16 17  2  0
 17 18  1  0
 18 19  2  0
 19 20  1  0
 10 21  2  0
 21 22  1  0
 21  6  1  0
 19 14  1  0
  1 23  1  0
  1 24  1  0
  1 25  1  0
  7 26  1  0
  8 27  1  0
  9 28  1  0
 16 29  1  0
 17 30  1  0
 18 31  1  0
 22 32  1  0
M  CHG  3   5  -1  15  -1  20  -1
M  END
>  <UniqueID>  (3) 
2

>  <SMILES>  (3) 
CS(=O)(=O)[N-]c1cccc(C(=O)N=c2[n-]cccc2[O-])c1O

>  <Energy>  (3) 
54.18467069057442

>  <Genealogy>  (3) 
CS(=O)(=O)[N-]c1cccc(C(=O)N=c2[n-]cccc2[O-])c1O (protonated)
CS(=O)(=O)[N-]c1cccc(C(=O)N=c2[n-]cccc2[O-])c1O (3D coordinates assigned)
CS(=O)(=O)[N-]c1cccc(C(=O)N=c2[n-]cccc2[O-])c1O (optimized conformer: 54.18467069057442 kcal/mol)

>  <smiles>  (3) 
CS(=O)(=O)Nc1cccc(C(=O)N=c2[nH]cccc2O)c1O

>  <score_type>  (3) 
oracle

>  <origin>  (3) 
adg

>  <m_score__min__energy>  (3) 
-13.390000000000001

>  <m_primary>  (3) 
energy

$$$$
3:0
     RDKit          3D

 58 61  0  0  0  0  0  0  0  0999 V2000
   55.5190   29.7080   45.9770 H   0  0  0  0  0  0  0  0  0  0  0  0
   55.6040   28.9840   45.2730 O   0  0  0  0  0  0  0  0  0  0  0  0
   56.2410   27.7780   45.5590 C   0  0  0  0  0  0  0  0  0  0  0  0
   55.5070   26.7220   46.0000 N   0  0  0  0  0  0  0  0  0  0  0  0
   56.0980   25.5430   46.3240 C   0  0  0  0  0  0  0  0  0  0  0  0
   55.3970   24.5770   46.7240 O   0  0  0  0  0  0  0  0  0  0  0  0
   57.4450   25.4080   46.2240 N   0  0  0  0  0  0  0  0  0  0  0  0
   58.2220   26.4310   45.7850 C   0  0  0  0  0  0  0  0  0  0  0  0
   59.4700   26.2690   45.7060 O   0  0  0  0  0  0  0  0  0  0  0  0
   57.6350   27.6510   45.4120 C   0  0  0  0  0  0  0  0  0  0  0  0
   58.4750   28.7770   44.9440 C   0  0  0  0  0  0  0  0  0  0  0  0
   58.9808   28.6802   43.9720 H   0  0  0  0  0  0  0  0  0  0  0  0
   58.6530   29.9140   45.6450 C   0  0  0  0  0  0  0  0  0  0  0  0
   58.6960   31.1950   45.1210 C   0  0  0  0  0  0  0  0  0  0  0  0
   58.5729   31.4757   44.0646 H   0  0  0  0  0  0  0  0  0  0  0  0
   58.9230   32.0520   46.1790 C   0  0  0  0  0  0  0  0  0  0  0  0
   58.9630   33.5450   46.0400 C   0  0  0  0  0  0  0  0  0  0  0  0
   58.9754   34.0060   47.0387 H   0  0  0  0  0  0  0  0  0  0  0  0
   59.8693   33.8379   45.4897 H   0  0  0  0  0  0  0  0  0  0  0  0
   58.0737   33.8860   45.4897 H   0  0  0  0  0  0  0  0  0  0  0  0
   59.0180   31.3610   47.3430 N   0  0  0  0  0  0  0  0  0  0  0  0
   59.1660   31.9520   48.6850 C   0  0  0  0  0  0  0  0  0  0  0  0
   58.7116   32.9537   48.6905 H   0  0  0  0  0  0  0  0  0  0  0  0
   58.6636   31.3009   49.4155 H   0  0  0  0  0  0  0  0  0  0  0  0
   60.6220   32.0670   49.0590 C   0  0  0  0  0  0  0  0  0  0  0  0
   61.0010   32.7120   50.2470 C   0  0  0  0  0  0  0  0  0  0  0  0
   60.2309   33.1308   50.9115 H   0  0  0  0  0  0  0  0  0  0  0  0
   62.3500   32.8250   50.5900 C   0  0  0  0  0  0  0  0  0  0  0  0
   62.6341   33.3333   51.5232 H   0  0  0  0  0  0  0  0  0  0  0  0
   63.3470   32.2960   49.7550 C   0  0  0  0  0  0  0  0  0  0  0  0
   64.7760   32.4190   50.1290 C   0  0  0  0  0  0  0  0  0  0  0  0
   65.4130   33.4490   49.7760 O   0  0  0  0  0  0  0  0  0  0  0  0
   65.4560   31.3880   50.8710 N   0  0  0  0  0  0  0  0  0  0  0  0
   66.8550   31.0800   50.5560 C   0  0  0  0  0  0  0  0  0  0  0  0
   66.8988   30.5673   49.5838 H   0  0  0  0  0  0  0  0  0  0  0  0
   67.4194   32.0237   50.5245 H   0  0  0  0  0  0  0  0  0  0  0  0
   67.4840   30.1740   51.6290 C   0  0  0  0  0  0  0  0  0  0  0  0
   68.4598   29.8217   51.2634 H   0  0  0  0  0  0  0  0  0  0  0  0
   67.5832   30.7697   52.5484 H   0  0  0  0  0  0  0  0  0  0  0  0
   66.6450   28.9950   51.9500 N   0  0  0  0  0  0  0  0  0  0  0  0
   66.9290   27.8720   51.0430 C   0  0  0  0  0  0  0  0  0  0  0  0
   67.1565   26.9723   51.6335 H   0  0  0  0  0  0  0  0  0  0  0  0
   66.0507   27.6818   50.4087 H   0  0  0  0  0  0  0  0  0  0  0  0
   67.7921   28.1222   50.4087 H   0  0  0  0  0  0  0  0  0  0  0  0
   65.1830   29.2620   52.0450 C   0  0  0  0  0  0  0  0  0  0  0  0
   64.6851   28.7865   51.1871 H   0  0  0  0  0  0  0  0  0  0  0  0
   64.8392   28.8504   53.0054 H   0  0  0  0  0  0  0  0  0  0  0  0
   64.8360   30.7550   52.0420 C   0  0  0  0  0  0  0  0  0  0  0  0
   63.7442   30.8797   51.9937 H   0  0  0  0  0  0  0  0  0  0  0  0
   65.2130   31.2258   52.9619 H   0  0  0  0  0  0  0  0  0  0  0  0
   62.9680   31.6800   48.5500 C   0  0  0  0  0  0  0  0  0  0  0  0
   63.7395   31.2944   47.8674 H   0  0  0  0  0  0  0  0  0  0  0  0
   61.6170   31.5540   48.2130 C   0  0  0  0  0  0  0  0  0  0  0  0
   61.3321   31.0492   47.2781 H   0  0  0  0  0  0  0  0  0  0  0  0
   58.8640   30.0450   47.0220 C   0  0  0  0  0  0  0  0  0  0  0  0
   58.9100   29.0340   47.9070 C   0  0  0  0  0  0  0  0  0  0  0  0
   59.0822   29.2436   48.9730 H   0  0  0  0  0  0  0  0  0  0  0  0
   58.7754   27.9972   47.5651 H   0  0  0  0  0  0  0  0  0  0  0  0
  1  2  1  0
  2  3  1  0
  3  4  1  0
  4  5  1  0
  5  6  2  0
  5  7  1  0
  7  8  1  0
  8  9  2  0
  8 10  1  0
 10 11  1  0
 11 12  1  0
 11 13  2  0
 13 14  1  0
 14 15  1  0
 14 16  2  0
 16 17  1  0
 17 18  1  0
 17 19  1  0
 17 20  1  0
 16 21  1  0
 21 22  1  0
 22 23  1  0
 22 24  1  0
 22 25  1  0
 25 26  2  0
 26 27  1  0
 26 28  1  0
 28 29  1  0
 28 30  2  0
 30 31  1  0
 31 32  2  0
 31 33  1  0
 33 34  1  0
 34 35  1  0
 34 36  1  0
 34 37  1  0
 37 38  1  0
 37 39  1  0
 37 40  1  0
 40 41  1  0
 41 42  1  0
 41 43  1  0
 41 44  1  0
 40 45  1  0
 45 46  1  0
 45 47  1  0
 45 48  1  0
 48 49  1  0
 48 50  1  0
 30 51  1  0
 51 52  1  0
 51 53  2  0
 53 54  1  0
 21 55  1  0
 55 56  2  0
 56 57  1  0
 56 58  1  0
 10  3  2  0
 55 13  1  0
 53 25  1  0
 48 33  1  0
M  CHG  2   4  -1   7  -1
M  END
>  <UniqueID>  (4) 
3

>  <SMILES>  (4) 
C=c1/c(=C/c2c(O)[n-]c(=O)[n-]c2=O)cc(C)n1Cc1ccc(C(=O)N2CCN(C)CC2)cc1

>  <Energy>  (4) 
111.18055428968576

>  <Genealogy>  (4) 
C=c1c(=Cc2c(O)[n-]c(=O)[n-]c2=O)cc(C)n1Cc1ccc(C(=O)N2CCN(C)CC2)cc1 (protonated)
C=c1/c(=C/c2c(O)[n-]c(=O)[n-]c2=O)cc(C)n1Cc1ccc(C(=O)N2CCN(C)CC2)cc1 (cis-trans isomerization)
C=c1/c(=C/c2c(O)[n-]c(=O)[n-]c2=O)cc(C)n1Cc1ccc(C(=O)N2CCN(C)CC2)cc1 (3D coordinates assigned)
C=c1/c(=C/c2c(O)[n-]c(=O)[n-]c2=O)cc(C)n1Cc1ccc(C(=O)N2CCN(C)CC2)cc1 (nonaromatic ring conformer: 111.18055428968576 kcal/mol)

>  <smiles>  (4) 
C=c1c(=Cc2c(O)[nH]c(=O)[nH]c2=O)cc(C)n1Cc1ccc(C(=O)N2CCN(C)CC2)cc1

>  <score_type>  (4) 
oracle

>  <origin>  (4) 
adg

>  <m_score__min__energy>  (4) 
-13.5

>  <m_primary>  (4) 
energy

$$$$
4:0
     RDKit          3D

 44 46  0  0  0  0  0  0  0  0999 V2000
   60.5610   27.8120   49.8760 O   0  0  0  0  0  0  0  0  0  0  0  0
   59.8630   27.7440   48.8290 C   0  0  0  0  0  0  0  0  0  0  0  0
   60.0230   26.5680   47.9140 C   0  0  0  0  0  0  0  0  0  0  0  0
   58.4110   25.9210   47.3490 S   0  0  0  0  0  0  0  0  0  0  0  0
   58.0560   27.3000   46.2640 C   0  0  0  0  0  0  0  0  0  0  0  0
   59.0770   28.0240   45.7400 N   0  0  0  0  0  0  0  0  0  0  0  0
   58.8390   29.0750   44.9160 C   0  0  0  0  0  0  0  0  0  0  0  0
   59.8140   29.7120   44.4350 O   0  0  0  0  0  0  0  0  0  0  0  0
   57.5180   29.4380   44.6010 C   0  0  0  0  0  0  0  0  0  0  0  0
   57.2260   30.6510   43.7470 C   0  0  0  0  0  0  0  0  0  0  0  0
   57.6190   31.9090   44.4760 C   0  0  0  0  0  0  0  0  0  0  0  0
   57.3950   32.0260   45.8580 C   0  0  0  0  0  0  0  0  0  0  0  0
   57.7990   33.1760   46.5430 C   0  0  0  0  0  0  0  0  0  0  0  0
   58.4290   34.2170   45.8560 C   0  0  0  0  0  0  0  0  0  0  0  0
   58.6570   34.1080   44.4810 C   0  0  0  0  0  0  0  0  0  0  0  0
   58.2580   32.9580   43.7930 C   0  0  0  0  0  0  0  0  0  0  0  0
   56.4800   28.6700   45.1570 C   0  0  0  0  0  0  0  0  0  0  0  0
   55.1480   28.9710   44.8930 O   0  0  0  0  0  0  0  0  0  0  0  0
   56.7710   27.6190   45.9650 N   0  0  0  0  0  0  0  0  0  0  0  0
   58.9350   28.7900   48.5070 N   0  0  0  0  0  0  0  0  0  0  0  0
   58.8330   30.0150   49.2960 C   0  0  0  0  0  0  0  0  0  0  0  0
   59.6820   31.1050   48.7000 C   0  0  0  0  0  0  0  0  0  0  0  0
   59.6590   32.4030   49.2350 C   0  0  0  0  0  0  0  0  0  0  0  0
   60.4560   33.4090   48.6790 C   0  0  0  0  0  0  0  0  0  0  0  0
   61.2790   33.1260   47.5850 C   0  0  0  0  0  0  0  0  0  0  0  0
   62.0490   34.1030   47.0480 F   0  0  0  0  0  0  0  0  0  0  0  0
   61.2990   31.8390   47.0410 C   0  0  0  0  0  0  0  0  0  0  0  0
   60.5000   30.8310   47.5910 C   0  0  0  0  0  0  0  0  0  0  0  0
   60.6095   26.8774   47.0363 H   0  0  0  0  0  0  0  0  0  0  0  0
   60.5347   25.7694   48.4712 H   0  0  0  0  0  0  0  0  0  0  0  0
   57.7973   30.5811   42.8096 H   0  0  0  0  0  0  0  0  0  0  0  0
   56.1483   30.6849   43.5293 H   0  0  0  0  0  0  0  0  0  0  0  0
   56.8996   31.2093   46.4035 H   0  0  0  0  0  0  0  0  0  0  0  0
   57.6205   33.2614   47.6251 H   0  0  0  0  0  0  0  0  0  0  0  0
   58.7452   35.1213   46.3965 H   0  0  0  0  0  0  0  0  0  0  0  0
   59.1511   34.9282   43.9395 H   0  0  0  0  0  0  0  0  0  0  0  0
   58.4451   32.8739   42.7123 H   0  0  0  0  0  0  0  0  0  0  0  0
   58.3610   28.7080   47.6390 H   0  0  0  0  0  0  0  0  0  0  0  0
   57.7839   30.3450   49.3161 H   0  0  0  0  0  0  0  0  0  0  0  0
   59.1884   29.8085   50.3163 H   0  0  0  0  0  0  0  0  0  0  0  0
   59.0115   32.6296   50.0949 H   0  0  0  0  0  0  0  0  0  0  0  0
   60.4352   34.4238   49.1030 H   0  0  0  0  0  0  0  0  0  0  0  0
   61.9446   31.6180   46.1782 H   0  0  0  0  0  0  0  0  0  0  0  0
   60.5122   29.8215   47.1542 H   0  0  0  0  0  0  0  0  0  0  0  0
  1  2  2  0
  2  3  1  0
  3  4  1  0
  4  5  1  0
  5  6  2  0
  6  7  1  0
  7  8  2  0
  7  9  1  0
  9 10  1  0
 10 11  1  0
 11 12  2  0
 12 13  1  0
 13 14  2  0
 14 15  1  0
 15 16  2  0
  9 17  2  0
 17 18  1  0
 17 19  1  0
  2 20  1  0
 20 21  1  0
 21 22  1  0
 22 23  2  0
 23 24  1  0
 24 25  2  0
 25 26  1  0
 25 27  1  0
 27 28  2  0
 19  5  1  0
 28 22  1  0
 16 11  1  0
  3 29  1  0
  3 30  1  0
 10 31  1  0
 10 32  1  0
 12 33  1  0
 13 34  1  0
 14 35  1  0
 15 36  1  0
 16 37  1  0
 20 38  1  0
 21 39  1  0
 21 40  1  0
 23 41  1  0
 24 42  1  0
 27 43  1  0
 28 44  1  0
M  CHG  2  18  -1  19  -1
M  END
>  <UniqueID>  (5) 
4

>  <SMILES>  (5) 
O=C(CSc1nc(=O)c(Cc2ccccc2)c([O-])[n-]1)NCc1ccc(F)cc1

>  <Energy>  (5) 
36.78413727665892

>  <Genealogy>  (5) 
O=C(CSc1nc(=O)c(Cc2ccccc2)c([O-])[n-]1)NCc1ccc(F)cc1 (protonated)
O=C(CSc1nc(=O)c(Cc2ccccc2)c([O-])[n-]1)NCc1ccc(F)cc1 (3D coordinates assigned)
O=C(CSc1nc(=O)c(Cc2ccccc2)c([O-])[n-]1)NCc1ccc(F)cc1 (optimized conformer: 36.78413727665892 kcal/mol)

>  <smiles>  (5) 
O=C(CSc1nc(=O)c(Cc2ccccc2)c(O)[nH]1)NCc1ccc(F)cc1

>  <score_type>  (5) 
oracle

>  <origin>  (5) 
adg

>  <m_score__min__energy>  (5) 
-12.85

>  <m_primary>  (5) 
energy

$$$$
5:0
     RDKit          3D

 57 60  0  0  0  0  0  0  0  0999 V2000
   59.1447   32.3036   47.8785 H   0  0  0  0  0  0  0  0  0  0  0  0
   58.6810   32.4870   46.8980 C   0  0  0  0  0  0  0  0  0  0  0  0
   57.6620   31.7280   46.4150 N   0  0  0  0  0  0  0  0  0  0  0  0
   57.2710   32.1430   45.1890 C   0  0  0  0  0  0  0  0  0  0  0  0
   56.3220   31.5900   44.4950 N   0  0  0  0  0  0  0  0  0  0  0  0
   56.2680   30.2140   44.0960 C   0  0  0  0  0  0  0  0  0  0  0  0
   56.3810   29.9320   42.8730 O   0  0  0  0  0  0  0  0  0  0  0  0
   56.0350   29.2030   45.0390 O   0  0  0  0  0  0  0  0  0  0  0  0
   57.0070   28.3090   45.5100 C   0  0  0  0  0  0  0  0  0  0  0  0
   58.3550   28.6790   45.4150 C   0  0  0  0  0  0  0  0  0  0  0  0
   58.6253   29.6521   44.9790 H   0  0  0  0  0  0  0  0  0  0  0  0
   59.3590   27.8190   45.8710 C   0  0  0  0  0  0  0  0  0  0  0  0
   60.4143   28.1220   45.8042 H   0  0  0  0  0  0  0  0  0  0  0  0
   59.0230   26.5760   46.4110 C   0  0  0  0  0  0  0  0  0  0  0  0
   59.8132   25.9034   46.7760 H   0  0  0  0  0  0  0  0  0  0  0  0
   57.6830   26.1860   46.4880 C   0  0  0  0  0  0  0  0  0  0  0  0
   57.4211   25.2030   46.9065 H   0  0  0  0  0  0  0  0  0  0  0  0
   56.6730   27.0430   46.0340 C   0  0  0  0  0  0  0  0  0  0  0  0
   55.3870   26.6130   46.0550 F   0  0  0  0  0  0  0  0  0  0  0  0
   58.1680   33.4560   44.6460 S   0  0  0  0  0  0  0  0  0  0  0  0
   59.0910   33.5140   46.0540 C   0  0  0  0  0  0  0  0  0  0  0  0
   60.2340   34.4460   46.3000 C   0  0  0  0  0  0  0  0  0  0  0  0
   59.9144   35.2392   46.9918 H   0  0  0  0  0  0  0  0  0  0  0  0
   60.5502   34.8887   45.3439 H   0  0  0  0  0  0  0  0  0  0  0  0
   61.3900   33.6970   46.9020 C   0  0  0  0  0  0  0  0  0  0  0  0
   62.6850   33.8730   46.3950 C   0  0  0  0  0  0  0  0  0  0  0  0
   62.8516   34.5365   45.5336 H   0  0  0  0  0  0  0  0  0  0  0  0
   63.7640   33.2080   46.9810 C   0  0  0  0  0  0  0  0  0  0  0  0
   64.7778   33.3468   46.5773 H   0  0  0  0  0  0  0  0  0  0  0  0
   63.5610   32.3670   48.0780 C   0  0  0  0  0  0  0  0  0  0  0  0
   64.4170   31.8472   48.5331 H   0  0  0  0  0  0  0  0  0  0  0  0
   62.2700   32.1800   48.6050 C   0  0  0  0  0  0  0  0  0  0  0  0
   62.0280   31.3010   49.7830 C   0  0  0  0  0  0  0  0  0  0  0  0
   63.0070   30.6780   50.2840 O   0  0  0  0  0  0  0  0  0  0  0  0
   60.7040   31.1220   50.3470 N   0  0  0  0  0  0  0  0  0  0  0  0
   59.9920   31.4390   49.6470 H   0  0  0  0  0  0  0  0  0  0  0  0
   60.5340   31.9640   51.5460 C   0  0  0  0  0  0  0  0  0  0  0  0
   60.8434   32.9943   51.3162 H   0  0  0  0  0  0  0  0  0  0  0  0
   61.1545   31.5653   52.3621 H   0  0  0  0  0  0  0  0  0  0  0  0
   59.0640   31.9580   51.9770 C   0  0  0  0  0  0  0  0  0  0  0  0
   58.4964   32.6376   51.3244 H   0  0  0  0  0  0  0  0  0  0  0  0
   59.0079   32.2878   53.0249 H   0  0  0  0  0  0  0  0  0  0  0  0
   58.4850   30.6080   51.8830 N   0  0  0  0  0  0  0  0  0  0  0  0
   57.0850   30.4060   52.1800 C   0  0  0  0  0  0  0  0  0  0  0  0
   56.6280   29.2380   52.3120 O   0  0  0  0  0  0  0  0  0  0  0  0
   56.1420   31.5620   52.3370 C   0  0  0  0  0  0  0  0  0  0  0  0
   55.9801   31.7605   53.4068 H   0  0  0  0  0  0  0  0  0  0  0  0
   56.5731   32.4543   51.8597 H   0  0  0  0  0  0  0  0  0  0  0  0
   55.1812   31.3189   51.8597 H   0  0  0  0  0  0  0  0  0  0  0  0
   59.3770   29.4480   51.7190 C   0  0  0  0  0  0  0  0  0  0  0  0
   58.7742   28.5792   51.4159 H   0  0  0  0  0  0  0  0  0  0  0  0
   59.8805   29.2740   52.6814 H   0  0  0  0  0  0  0  0  0  0  0  0
   60.4710   29.6900   50.6520 C   0  0  0  0  0  0  0  0  0  0  0  0
   60.1685   29.1827   49.7240 H   0  0  0  0  0  0  0  0  0  0  0  0
   61.4114   29.2930   51.0620 H   0  0  0  0  0  0  0  0  0  0  0  0
   61.1900   32.8630   48.0140 C   0  0  0  0  0  0  0  0  0  0  0  0
   60.1781   32.7420   48.4280 H   0  0  0  0  0  0  0  0  0  0  0  0
  1  2  1  0
  2  3  1  0
  3  4  1  0
  4  5  2  0
  5  6  1  0
  6  7  2  0
  6  8  1  0
  8  9  1  0
  9 10  2  0
 10 11  1  0
 10 12  1  0
 12 13  1  0
 12 14  2  0
 14 15  1  0
 14 16  1  0
 16 17  1  0
 16 18  2  0
 18 19  1  0
  4 20  1  0
 20 21  1  0
 21 22  1  0
 22 23  1  0
 22 24  1  0
 22 25  1  0
 25 26  2  0
 26 27  1  0
 26 28  1  0
 28 29  1  0
 28 30  2  0
 30 31  1  0
 30 32  1  0
 32 33  1  0
 33 34  2  0
 33 35  1  0
 35 36  1  0
 35 37  1  0
 37 38  1  0
 37 39  1  0
 37 40  1  0
 40 41  1  0
 40 42  1  0
 40 43  1  0
 43 44  1  0
 44 45  2  0
 44 46  1  0
 46 47  1  0
 46 48  1  0
 46 49  1  0
 43 50  1  0
 50 51  1  0
 50 52  1  0
 50 53  1  0
 53 54  1  0
 53 55  1  0
 32 56  2  0
 56 57  1  0
 21  2  2  0
 56 25  1  0
 18  9  1  0
 53 35  1  0
M  CHG  2   3  -1  35   1
M  END
>  <UniqueID>  (6) 
5

>  <SMILES>  (6) 
CC(=O)N1CC[NH+](C(=O)c2cccc(Cc3c[n-]/c(=N\C(=O)Oc4ccccc4F)s3)c2)CC1

>  <Energy>  (6) 
105.19984782308319

>  <Genealogy>  (6) 
CC(=O)N1CC[NH+](C(=O)c2cccc(Cc3c[n-]c(=NC(=O)Oc4ccccc4F)s3)c2)CC1 (protonated)
CC(=O)N1CC[NH+](C(=O)c2cccc(Cc3c[n-]/c(=N\C(=O)Oc4ccccc4F)s3)c2)CC1 (cis-trans isomerization)
CC(=O)N1CC[NH+](C(=O)c2cccc(Cc3c[n-]/c(=N\C(=O)Oc4ccccc4F)s3)c2)CC1 (3D coordinates assigned)
CC(=O)N1CC[NH+](C(=O)c2cccc(Cc3c[n-]/c(=N\C(=O)Oc4ccccc4F)s3)c2)CC1 (nonaromatic ring conformer: 105.19984782308319 kcal/mol)

>  <smiles>  (6) 
CC(=O)N1CCN(C(=O)c2cccc(Cc3c[nH]c(=NC(=O)Oc4ccccc4F)s3)c2)CC1

>  <score_type>  (6) 
oracle

>  <origin>  (6) 
adg

>  <m_score__min__energy>  (6) 
-10.73

>  <m_primary>  (6) 
energy

$$$$
6:0
     RDKit          3D

 50 52  0  0  0  0  0  0  0  0999 V2000
   57.1120   32.6810   49.3030 H   0  0  0  0  0  0  0  0  0  0  0  0
   58.1240   32.4230   49.3200 N   0  0  0  0  0  0  0  0  0  0  0  0
   58.7600   31.8660   48.1700 C   0  0  0  0  0  0  0  0  0  0  0  0
   59.2460   30.7070   48.2440 O   0  0  0  0  0  0  0  0  0  0  0  0
   58.8650   32.6600   46.9150 C   0  0  0  0  0  0  0  0  0  0  0  0
   58.3770   32.0990   45.7190 C   0  0  0  0  0  0  0  0  0  0  0  0
   57.9518   31.0846   45.7316 H   0  0  0  0  0  0  0  0  0  0  0  0
   58.4240   32.8120   44.5120 C   0  0  0  0  0  0  0  0  0  0  0  0
   57.8690   32.2170   43.2470 C   0  0  0  0  0  0  0  0  0  0  0  0
   56.9436   32.7448   42.9728 H   0  0  0  0  0  0  0  0  0  0  0  0
   58.6137   32.3223   42.4443 H   0  0  0  0  0  0  0  0  0  0  0  0
   57.5760   30.7990   43.4420 N   0  0  0  0  0  0  0  0  0  0  0  0
   58.1810   30.1060   42.9500 H   0  0  0  0  0  0  0  0  0  0  0  0
   56.4210   30.3470   44.1670 C   0  0  0  0  0  0  0  0  0  0  0  0
   55.5340   31.1720   44.5130 O   0  0  0  0  0  0  0  0  0  0  0  0
   56.2150   28.9570   44.4560 N   0  0  0  0  0  0  0  0  0  0  0  0
   56.8870   28.2440   45.3100 C   0  0  0  0  0  0  0  0  0  0  0  0
   56.4080   27.1400   45.9300 N   0  0  0  0  0  0  0  0  0  0  0  0
   57.3450   26.5750   46.7360 C   0  0  0  0  0  0  0  0  0  0  0  0
   57.1484   25.6730   47.3341 H   0  0  0  0  0  0  0  0  0  0  0  0
   58.5710   27.2280   46.7440 C   0  0  0  0  0  0  0  0  0  0  0  0
   59.9800   26.7500   47.6660 Cl  0  0  0  0  0  0  0  0  0  0  0  0
   58.4890   28.5550   45.7130 S   0  0  0  0  0  0  0  0  0  0  0  0
   58.9680   34.1010   44.4970 C   0  0  0  0  0  0  0  0  0  0  0  0
   59.0036   34.6686   43.5554 H   0  0  0  0  0  0  0  0  0  0  0  0
   59.4650   34.6700   45.6680 C   0  0  0  0  0  0  0  0  0  0  0  0
   59.9051   35.6777   45.6391 H   0  0  0  0  0  0  0  0  0  0  0  0
   59.4100   33.9710   46.8840 C   0  0  0  0  0  0  0  0  0  0  0  0
   60.0170   34.5900   48.0830 C   0  0  0  0  0  0  0  0  0  0  0  0
   59.4880   35.4299   48.5571 H   0  0  0  0  0  0  0  0  0  0  0  0
   61.1800   34.1840   48.6270 C   0  0  0  0  0  0  0  0  0  0  0  0
   62.3840   33.8460   47.7760 C   0  0  0  0  0  0  0  0  0  0  0  0
   62.5139   34.6289   47.0143 H   0  0  0  0  0  0  0  0  0  0  0  0
   62.2097   32.8665   47.3069 H   0  0  0  0  0  0  0  0  0  0  0  0
   63.6610   33.7540   48.6170 C   0  0  0  0  0  0  0  0  0  0  0  0
   63.9426   34.7613   48.9575 H   0  0  0  0  0  0  0  0  0  0  0  0
   64.4619   33.3228   47.9984 H   0  0  0  0  0  0  0  0  0  0  0  0
   63.4500   32.8890   49.7890 N   0  0  0  0  0  0  0  0  0  0  0  0
   64.4980   31.9930   50.2220 C   0  0  0  0  0  0  0  0  0  0  0  0
   65.6500   32.0750   49.7150 O   0  0  0  0  0  0  0  0  0  0  0  0
   64.2570   30.9660   51.2890 C   0  0  0  0  0  0  0  0  0  0  0  0
   64.3666   31.4330   52.2789 H   0  0  0  0  0  0  0  0  0  0  0  0
   63.2395   30.5612   51.1852 H   0  0  0  0  0  0  0  0  0  0  0  0
   64.9883   30.1508   51.1852 H   0  0  0  0  0  0  0  0  0  0  0  0
   62.2120   33.0090   50.5800 C   0  0  0  0  0  0  0  0  0  0  0  0
   62.4812   33.1564   51.6363 H   0  0  0  0  0  0  0  0  0  0  0  0
   61.6322   32.0854   50.4354 H   0  0  0  0  0  0  0  0  0  0  0  0
   61.3370   34.1840   50.1270 C   0  0  0  0  0  0  0  0  0  0  0  0
   61.8081   35.1272   50.4408 H   0  0  0  0  0  0  0  0  0  0  0  0
   60.3429   34.0827   50.5868 H   0  0  0  0  0  0  0  0  0  0  0  0
  1  2  1  0
  2  3  1  0
  3  4  2  0
  3  5  1  0
  5  6  2  0
  6  7  1  0
  6  8  1  0
  8  9  1  0
  9 10  1  0
  9 11  1  0
  9 12  1  0
 12 13  1  0
 12 14  1  0
 14 15  2  0
 14 16  1  0
 16 17  2  0
 17 18  1  0
 18 19  1  0
 19 20  1  0
 19 21  2  0
 21 22  1  0
 21 23  1  0
  8 24  2  0
 24 25  1  0
 24 26  1  0
 26 27  1  0
 26 28  2  0
 28 29  1  0
 29 30  1  0
 29 31  2  3
 31 32  1  0
 32 33  1  0
 32 34  1  0
 32 35  1  0
 35 36  1  0
 35 37  1  0
 35 38  1  0
 38 39  1  0
 39 40  2  0
 39 41  1  0
 41 42  1  0
 41 43  1  0
 41 44  1  0
 38 45  1  0
 45 46  1  0
 45 47  1  0
 45 48  1  0
 48 49  1  0
 48 50  1  0
 28  5  1  0
 48 31  1  0
 23 17  1  0
M  CHG  2   2  -1  18  -1
M  END
>  <UniqueID>  (7) 
6

>  <SMILES>  (7) 
CC(=O)N1CCC(=Cc2ccc(CNC(=O)/N=c3\[n-]cc(Cl)s3)cc2C([NH-])=O)CC1

>  <Energy>  (7) 
92.02812083709304

>  <Genealogy>  (7) 
CC(=O)N1CCC(=Cc2ccc(CNC(=O)N=c3[n-]cc(Cl)s3)cc2C([NH-])=O)CC1 (protonated)
CC(=O)N1CCC(=Cc2ccc(CNC(=O)/N=c3\[n-]cc(Cl)s3)cc2C([NH-])=O)CC1 (cis-trans isomerization)
CC(=O)N1CCC(=Cc2ccc(CNC(=O)/N=c3\[n-]cc(Cl)s3)cc2C([NH-])=O)CC1 (3D coordinates assigned)
CC(=O)N1CCC(=Cc2ccc(CNC(=O)/N=c3\[n-]cc(Cl)s3)cc2C([NH-])=O)CC1 (nonaromatic ring conformer: 92.02812083709304 kcal/mol)

>  <smiles>  (7) 
CC(=O)N1CCC(=Cc2ccc(CNC(=O)N=c3[nH]cc(Cl)s3)cc2C(N)=O)CC1

>  <score_type>  (7) 
oracle

>  <origin>  (7) 
adg

>  <m_score__min__energy>  (7) 
-13.08

>  <m_primary>  (7) 
energy

$$$$
7:0
     RDKit          3D

 23 24  0  0  0  0  0  0  0  0999 V2000
   55.5690   29.7690   44.7900 O   0  0  0  0  0  0  0  0  0  0  0  0
   56.6320   29.2750   45.2510 C   0  0  0  0  0  0  0  0  0  0  0  0
   57.7990   30.1060   45.3250 N   0  0  0  0  0  0  0  0  0  0  0  0
   57.8150   31.5350   45.4510 C   0  0  0  0  0  0  0  0  0  0  0  0
   57.5610   32.3780   44.3500 C   0  0  0  0  0  0  0  0  0  0  0  0
   57.3160   31.8640   43.1190 F   0  0  0  0  0  0  0  0  0  0  0  0
   57.5990   33.7670   44.5080 C   0  0  0  0  0  0  0  0  0  0  0  0
   57.9080   34.3240   45.7520 C   0  0  0  0  0  0  0  0  0  0  0  0
   58.1910   33.4920   46.8390 C   0  0  0  0  0  0  0  0  0  0  0  0
   58.1540   32.1030   46.6870 C   0  0  0  0  0  0  0  0  0  0  0  0
   58.4320   31.3070   47.7500 F   0  0  0  0  0  0  0  0  0  0  0  0
   56.6680   27.8450   45.6350 C   0  0  0  0  0  0  0  0  0  0  0  0
   57.8700   27.2320   46.0180 C   0  0  0  0  0  0  0  0  0  0  0  0
   57.8480   25.8840   46.3800 C   0  0  0  0  0  0  0  0  0  0  0  0
   58.9120   25.3030   46.7230 O   0  0  0  0  0  0  0  0  0  0  0  0
   56.6780   25.1950   46.3610 N   0  0  0  0  0  0  0  0  0  0  0  0
   55.5190   25.8020   45.9940 C   0  0  0  0  0  0  0  0  0  0  0  0
   54.4440   25.1500   45.9840 O   0  0  0  0  0  0  0  0  0  0  0  0
   55.5210   27.1130   45.6400 N   0  0  0  0  0  0  0  0  0  0  0  0
   57.3852   34.4227   43.6511 H   0  0  0  0  0  0  0  0  0  0  0  0
   57.9285   35.4168   45.8757 H   0  0  0  0  0  0  0  0  0  0  0  0
   58.4432   33.9310   47.8155 H   0  0  0  0  0  0  0  0  0  0  0  0
   58.8108   27.8018   46.0328 H   0  0  0  0  0  0  0  0  0  0  0  0
  1  2  2  0
  2  3  1  0
  3  4  1  0
  4  5  2  0
  5  6  1  0
  5  7  1  0
  7  8  2  0
  8  9  1  0
  9 10  2  0
 10 11  1  0
  2 12  1  0
 12 13  2  0
 13 14  1  0
 14 15  2  0
 14 16  1  0
 16 17  1  0
 17 18  2  0
 17 19  1  0
 10  4  1  0
 19 12  1  0
  7 20  1  0
  8 21  1  0
  9 22  1  0
 13 23  1  0
M  CHG  3   3  -1  16  -1  19  -1
M  END
>  <UniqueID>  (8) 
7

>  <SMILES>  (8) 
O=C([N-]c1c(F)cccc1F)c1cc(=O)[n-]c(=O)[n-]1

>  <Energy>  (8) 
32.286445688759706

>  <Genealogy>  (8) 
O=C([N-]c1c(F)cccc1F)c1cc(=O)[n-]c(=O)[n-]1 (protonated)
O=C([N-]c1c(F)cccc1F)c1cc(=O)[n-]c(=O)[n-]1 (3D coordinates assigned)
O=C([N-]c1c(F)cccc1F)c1cc(=O)[n-]c(=O)[n-]1 (optimized conformer: 32.286445688759706 kcal/mol)

>  <smiles>  (8) 
O=C(Nc1c(F)cccc1F)c1cc(=O)[nH]c(=O)[nH]1

>  <score_type>  (8) 
oracle

>  <origin>  (8) 
adg

>  <m_score__min__energy>  (8) 
-11.949999999999999

>  <m_primary>  (8) 
energy

$$$$
8:0
     RDKit          3D

 34 36  0  0  0  0  0  0  0  0999 V2000
   55.7097   21.7354   44.5155 H   0  0  0  0  0  0  0  0  0  0  0  0
   55.5170   22.7690   44.8390 C   0  0  0  0  0  0  0  0  0  0  0  0
   56.5360   23.6670   44.8850 N   0  0  0  0  0  0  0  0  0  0  0  0
   56.3620   24.9570   45.2850 C   0  0  0  0  0  0  0  0  0  0  0  0
   57.4070   25.7380   45.2790 N   0  0  0  0  0  0  0  0  0  0  0  0
   57.8910   26.5840   46.3290 C   0  0  0  0  0  0  0  0  0  0  0  0
   57.5990   26.3400   47.5310 O   0  0  0  0  0  0  0  0  0  0  0  0
   58.7590   27.7580   45.9930 C   0  0  0  0  0  0  0  0  0  0  0  0
   59.1061   28.2317   46.9231 H   0  0  0  0  0  0  0  0  0  0  0  0
   59.6214   27.4111   45.4048 H   0  0  0  0  0  0  0  0  0  0  0  0
   57.9850   28.7580   45.1860 C   0  0  0  0  0  0  0  0  0  0  0  0
   57.7730   30.0250   45.6310 N   0  0  0  0  0  0  0  0  0  0  0  0
   57.0440   30.7490   44.7560 C   0  0  0  0  0  0  0  0  0  0  0  0
   56.7670   32.0100   44.9060 N   0  0  0  0  0  0  0  0  0  0  0  0
   57.6680   33.0150   45.4030 C   0  0  0  0  0  0  0  0  0  0  0  0
   58.3360   33.8340   44.4850 C   0  0  0  0  0  0  0  0  0  0  0  0
   58.1686   33.6966   43.4065 H   0  0  0  0  0  0  0  0  0  0  0  0
   59.2160   34.8270   44.9320 C   0  0  0  0  0  0  0  0  0  0  0  0
   59.7520   35.4543   44.2045 H   0  0  0  0  0  0  0  0  0  0  0  0
   59.4140   35.0220   46.3020 C   0  0  0  0  0  0  0  0  0  0  0  0
   60.1096   35.7987   46.6526 H   0  0  0  0  0  0  0  0  0  0  0  0
   58.7280   34.2300   47.2250 C   0  0  0  0  0  0  0  0  0  0  0  0
   58.8764   34.3909   48.3030 H   0  0  0  0  0  0  0  0  0  0  0  0
   57.8530   33.2330   46.7830 C   0  0  0  0  0  0  0  0  0  0  0  0
   57.3079   32.6176   47.5139 H   0  0  0  0  0  0  0  0  0  0  0  0
   56.6270   29.8540   43.4000 S   0  0  0  0  0  0  0  0  0  0  0  0
   57.4040   28.4640   43.9530 C   0  0  0  0  0  0  0  0  0  0  0  0
   57.4454   27.4957   43.4328 H   0  0  0  0  0  0  0  0  0  0  0  0
   55.0560   25.3890   45.6400 C   0  0  0  0  0  0  0  0  0  0  0  0
   54.7730   26.7030   45.9930 O   0  0  0  0  0  0  0  0  0  0  0  0
   54.0010   24.4710   45.5990 C   0  0  0  0  0  0  0  0  0  0  0  0
   52.9869   24.7893   45.8824 H   0  0  0  0  0  0  0  0  0  0  0  0
   54.2290   23.1560   45.2010 C   0  0  0  0  0  0  0  0  0  0  0  0
   53.4017   22.4316   45.1729 H   0  0  0  0  0  0  0  0  0  0  0  0
  1  2  1  0
  2  3  1  0
  3  4  1  0
  4  5  2  0
  5  6  1  0
  6  7  2  0
  6  8  1  0
  8  9  1  0
  8 10  1  0
  8 11  1  0
 11 12  1  0
 12 13  1  0
 13 14  2  3
 14 15  1  0
 15 16  2  0
 16 17  1  0
 16 18  1  0
 18 19  1  0
 18 20  2  0
 20 21  1  0
 20 22  1  0
 22 23  1  0
 22 24  2  0
 24 25  1  0
 13 26  1  0
 26 27  1  0
 27 28  1  0
  4 29  1  0
 29 30  1  0
 29 31  2  0
 31 32  1  0
 31 33  1  0
 33 34  1  0
 33  2  2  0
 27 11  2  0
 24 15  1  0
M  CHG  3   3  -1  12  -1  30  -1
M  END
>  <UniqueID>  (9) 
8

>  <SMILES>  (9) 
O=C(Cc1csc(=Nc2ccccc2)[n-]1)/N=c1/[n-]cccc1[O-]

>  <Energy>  (9) 
79.0024835952437

>  <Genealogy>  (9) 
O=C(Cc1csc(=Nc2ccccc2)[n-]1)N=c1[n-]cccc1[O-] (protonated)
O=C(Cc1csc(=Nc2ccccc2)[n-]1)/N=c1/[n-]cccc1[O-] (cis-trans isomerization)
O=C(Cc1csc(=Nc2ccccc2)[n-]1)/N=c1/[n-]cccc1[O-] (3D coordinates assigned)
O=C(Cc1csc(=Nc2ccccc2)[n-]1)/N=c1/[n-]cccc1[O-] (optimized conformer: 79.0024835952437 kcal/mol)

>  <smiles>  (9) 
O=C(Cc1csc(=Nc2ccccc2)[nH]1)N=c1[nH]cccc1O

>  <score_type>  (9) 
oracle

>  <origin>  (9) 
adg

>  <m_score__min__energy>  (9) 
-14.69

>  <m_primary>  (9) 
energy

$$$$
9:0
     RDKit          3D

 51 54  0  0  0  0  0  0  0  0999 V2000
   59.4060   34.8440   49.1460 O   0  0  0  0  0  0  0  0  0  0  0  0
   59.6900   33.8600   48.4140 C   0  0  0  0  0  0  0  0  0  0  0  0
   58.6300   32.9850   47.9980 N   0  0  0  0  0  0  0  0  0  0  0  0
   58.2880   32.6510   46.6450 C   0  0  0  0  0  0  0  0  0  0  0  0
   58.1060   33.6830   45.7170 C   0  0  0  0  0  0  0  0  0  0  0  0
   57.7460   33.3900   44.3990 C   0  0  0  0  0  0  0  0  0  0  0  0
   57.5870   32.0620   43.9930 C   0  0  0  0  0  0  0  0  0  0  0  0
   57.8160   31.0150   44.9010 C   0  0  0  0  0  0  0  0  0  0  0  0
   57.6560   29.6400   44.5240 N   0  0  0  0  0  0  0  0  0  0  0  0
   56.7170   28.7080   45.0770 C   0  0  0  0  0  0  0  0  0  0  0  0
   55.5020   29.0370   45.1250 O   0  0  0  0  0  0  0  0  0  0  0  0
   57.1470   27.4120   45.6600 C   0  0  0  0  0  0  0  0  0  0  0  0
   58.5170   27.1250   45.7980 C   0  0  0  0  0  0  0  0  0  0  0  0
   58.9330   25.9150   46.3590 C   0  0  0  0  0  0  0  0  0  0  0  0
   57.9900   24.9840   46.7990 C   0  0  0  0  0  0  0  0  0  0  0  0
   56.6260   25.2600   46.6800 C   0  0  0  0  0  0  0  0  0  0  0  0
   55.6940   24.3310   47.1280 O   0  0  0  0  0  0  0  0  0  0  0  0
   56.1990   26.4680   46.1110 C   0  0  0  0  0  0  0  0  0  0  0  0
   54.8360   26.7140   45.9850 O   0  0  0  0  0  0  0  0  0  0  0  0
   58.1580   31.3150   46.2250 C   0  0  0  0  0  0  0  0  0  0  0  0
   61.1060   33.6120   48.0490 C   0  0  0  0  0  0  0  0  0  0  0  0
   61.5520   33.8850   46.7510 C   0  0  0  0  0  0  0  0  0  0  0  0
   62.8770   33.6400   46.3990 C   0  0  0  0  0  0  0  0  0  0  0  0
   63.7730   33.1190   47.3340 C   0  0  0  0  0  0  0  0  0  0  0  0
   63.3600   32.8360   48.6570 C   0  0  0  0  0  0  0  0  0  0  0  0
   64.2860   32.2710   49.6370 N   0  0  0  0  0  0  0  0  0  0  0  0
   65.6400   32.8500   49.7770 C   0  0  0  0  0  0  0  0  0  0  0  0
   66.5230   32.1340   50.8090 C   0  0  0  0  0  0  0  0  0  0  0  0
   65.7670   31.6430   51.8910 O   0  0  0  0  0  0  0  0  0  0  0  0
   64.9210   30.6240   51.4160 C   0  0  0  0  0  0  0  0  0  0  0  0
   63.8080   31.2200   50.5570 C   0  0  0  0  0  0  0  0  0  0  0  0
   62.0170   33.1170   48.9990 C   0  0  0  0  0  0  0  0  0  0  0  0
   58.2470   34.7291   46.0266 H   0  0  0  0  0  0  0  0  0  0  0  0
   57.5873   34.2065   43.6792 H   0  0  0  0  0  0  0  0  0  0  0  0
   57.2820   31.8364   42.9605 H   0  0  0  0  0  0  0  0  0  0  0  0
   59.2655   27.8578   45.4622 H   0  0  0  0  0  0  0  0  0  0  0  0
   60.0066   25.6951   46.4543 H   0  0  0  0  0  0  0  0  0  0  0  0
   58.3216   24.0323   47.2398 H   0  0  0  0  0  0  0  0  0  0  0  0
   58.3265   30.4988   46.9430 H   0  0  0  0  0  0  0  0  0  0  0  0
   60.8537   34.2945   46.0062 H   0  0  0  0  0  0  0  0  0  0  0  0
   63.2199   33.8586   45.3769 H   0  0  0  0  0  0  0  0  0  0  0  0
   64.8146   32.9258   47.0379 H   0  0  0  0  0  0  0  0  0  0  0  0
   66.1406   32.7989   48.7989 H   0  0  0  0  0  0  0  0  0  0  0  0
   65.5088   33.8825   50.1329 H   0  0  0  0  0  0  0  0  0  0  0  0
   67.0324   31.2913   50.3187 H   0  0  0  0  0  0  0  0  0  0  0  0
   67.2501   32.8606   51.2007 H   0  0  0  0  0  0  0  0  0  0  0  0
   65.5078   29.9171   50.8111 H   0  0  0  0  0  0  0  0  0  0  0  0
   64.4718   30.1017   52.2736 H   0  0  0  0  0  0  0  0  0  0  0  0
   63.3551   30.4133   49.9619 H   0  0  0  0  0  0  0  0  0  0  0  0
   63.0817   31.6865   51.2388 H   0  0  0  0  0  0  0  0  0  0  0  0
   61.6774   32.9446   50.0310 H   0  0  0  0  0  0  0  0  0  0  0  0
  1  2  2  0
  2  3  1  0
  3  4  1  0
  4  5  2  0
  5  6  1  0
  6  7  2  0
  7  8  1  0
  8  9  1  0
  9 10  1  0
 10 11  2  0
 10 12  1  0
 12 13  2  0
 13 14  1  0
 14 15  2  0
 15 16  1  0
 16 17  1  0
 16 18  2  0
 18 19  1  0
  8 20  2  0
  2 21  1  0
 21 22  2  0
 22 23  1  0
 23 24  2  0
 24 25  1  0
 25 26  1  0
 26 27  1  0
 27 28  1  0
 28 29  1  0
 29 30  1  0
 30 31  1  0
 25 32  2  0
 20  4  1  0
 32 21  1  0
 18 12  1  0
 31 26  1  0
  5 33  1  0
  6 34  1  0
  7 35  1  0
 13 36  1  0
 14 37  1  0
 15 38  1  0
 20 39  1  0
 22 40  1  0
 23 41  1  0
 24 42  1  0
 27 43  1  0
 27 44  1  0
 28 45  1  0
 28 46  1  0
 30 47  1  0
 30 48  1  0
 31 49  1  0
 31 50  1  0
 32 51  1  0
M  CHG  4   3  -1   9  -1  17  -1  19  -1
M  END
>  <UniqueID>  (10) 
9

>  <SMILES>  (10) 
O=C([N-]c1cccc([N-]C(=O)c2cccc([O-])c2[O-])c1)c1cccc(N2CCOCC2)c1

>  <Energy>  (10) 
77.13883442307103

>  <Genealogy>  (10) 
O=C([N-]c1cccc([N-]C(=O)c2cccc([O-])c2[O-])c1)c1cccc(N2CCOCC2)c1 (protonated)
O=C([N-]c1cccc([N-]C(=O)c2cccc([O-])c2[O-])c1)c1cccc(N2CCOCC2)c1 (3D coordinates assigned)
O=C([N-]c1cccc([N-]C(=O)c2cccc([O-])c2[O-])c1)c1cccc(N2CCOCC2)c1 (nonaromatic ring conformer: 77.13883442307103 kcal/mol)

>  <smiles>  (10) 
O=C(Nc1cccc(NC(=O)c2cccc(O)c2O)c1)c1cccc(N2CCOCC2)c1

>  <score_type>  (10) 
oracle

>  <origin>  (10) 
adg

>  <m_score__min__energy>  (10) 
-19.41

>  <m_primary>  (10) 
energy

$$$$
10:0
     RDKit          3D

 50 54  0  0  0  0  0  0  0  0999 V2000
   55.2273   22.0214   41.7686 H   0  0  0  0  0  0  0  0  0  0  0  0
   56.0200   22.2660   42.4910 C   0  0  0  0  0  0  0  0  0  0  0  0
   56.7140   21.2690   43.1020 N   0  0  0  0  0  0  0  0  0  0  0  0
   57.7040   21.5300   43.9960 C   0  0  0  0  0  0  0  0  0  0  0  0
   58.2394   20.6985   44.4777 H   0  0  0  0  0  0  0  0  0  0  0  0
   58.0470   22.8560   44.3080 C   0  0  0  0  0  0  0  0  0  0  0  0
   59.1160   23.1440   45.2950 C   0  0  0  0  0  0  0  0  0  0  0  0
   60.2070   22.5190   45.2210 O   0  0  0  0  0  0  0  0  0  0  0  0
   58.9280   24.0680   46.3770 N   0  0  0  0  0  0  0  0  0  0  0  0
   58.4970   25.2930   46.2710 C   0  0  0  0  0  0  0  0  0  0  0  0
   59.0510   26.1530   45.3700 N   0  0  0  0  0  0  0  0  0  0  0  0
   58.6280   27.4360   45.2390 C   0  0  0  0  0  0  0  0  0  0  0  0
   59.0878   28.0920   44.4852 H   0  0  0  0  0  0  0  0  0  0  0  0
   57.6050   27.9260   46.0640 C   0  0  0  0  0  0  0  0  0  0  0  0
   57.1320   29.2430   45.9660 O   0  0  0  0  0  0  0  0  0  0  0  0
   57.1880   30.0310   44.8080 C   0  0  0  0  0  0  0  0  0  0  0  0
   56.5660   29.5840   43.6290 C   0  0  0  0  0  0  0  0  0  0  0  0
   56.0423   28.6168   43.6158 H   0  0  0  0  0  0  0  0  0  0  0  0
   56.6140   30.3780   42.4610 C   0  0  0  0  0  0  0  0  0  0  0  0
   56.1370   30.0188   41.5372 H   0  0  0  0  0  0  0  0  0  0  0  0
   57.2480   31.5880   42.4700 N   0  0  0  0  0  0  0  0  0  0  0  0
   57.2720   32.1770   41.6060 H   0  0  0  0  0  0  0  0  0  0  0  0
   57.8290   32.0220   43.6160 C   0  0  0  0  0  0  0  0  0  0  0  0
   57.8090   31.2850   44.7690 C   0  0  0  0  0  0  0  0  0  0  0  0
   58.4260   32.0470   45.7410 C   0  0  0  0  0  0  0  0  0  0  0  0
   58.5820   31.7822   46.7972 H   0  0  0  0  0  0  0  0  0  0  0  0
   58.8090   33.2230   45.0990 C   0  0  0  0  0  0  0  0  0  0  0  0
   59.3397   34.0551   45.5847 H   0  0  0  0  0  0  0  0  0  0  0  0
   58.4400   33.2030   43.7980 N   0  0  0  0  0  0  0  0  0  0  0  0
   58.5830   33.9570   43.0910 H   0  0  0  0  0  0  0  0  0  0  0  0
   57.0160   27.0630   46.9900 C   0  0  0  0  0  0  0  0  0  0  0  0
   56.2034   27.4267   47.6360 H   0  0  0  0  0  0  0  0  0  0  0  0
   57.4550   25.7320   47.1020 C   0  0  0  0  0  0  0  0  0  0  0  0
   56.9000   24.8360   48.0280 O   0  0  0  0  0  0  0  0  0  0  0  0
   56.0160   23.7560   47.7140 C   0  0  0  0  0  0  0  0  0  0  0  0
   55.1060   23.8476   48.3251 H   0  0  0  0  0  0  0  0  0  0  0  0
   56.5326   22.8088   47.9283 H   0  0  0  0  0  0  0  0  0  0  0  0
   55.6260   23.7730   46.2280 C   0  0  2  0  0  0  0  0  0  0  0  0
   56.5718   23.9303   45.6889 H   0  0  0  0  0  0  0  0  0  0  0  0
   54.6620   24.7900   45.9880 O   0  0  0  0  0  0  0  0  0  0  0  0
   53.5050   24.2170   45.5150 C   0  0  0  0  0  0  0  0  0  0  0  0
   52.4660   24.8750   45.2470 O   0  0  0  0  0  0  0  0  0  0  0  0
   53.5930   22.8170   45.3680 N   0  0  0  0  0  0  0  0  0  0  0  0
   54.9540   22.4570   45.7460 C   0  0  0  0  0  0  0  0  0  0  0  0
   54.9417   21.7144   46.5575 H   0  0  0  0  0  0  0  0  0  0  0  0
   55.5016   22.0097   44.9034 H   0  0  0  0  0  0  0  0  0  0  0  0
   57.3250   23.8930   43.6950 C   0  0  0  0  0  0  0  0  0  0  0  0
   57.5579   24.9405   43.9369 H   0  0  0  0  0  0  0  0  0  0  0  0
   56.3130   23.5990   42.7800 C   0  0  0  0  0  0  0  0  0  0  0  0
   55.7523   24.4098   42.2918 H   0  0  0  0  0  0  0  0  0  0  0  0
  1  2  1  0
  2  3  2  0
  3  4  1  0
  4  5  1  0
  4  6  2  0
  6  7  1  0
  7  8  2  0
  7  9  1  0
  9 10  2  0
 10 11  1  0
 11 12  1  0
 12 13  1  0
 12 14  2  0
 14 15  1  0
 15 16  1  0
 16 17  2  0
 17 18  1  0
 17 19  1  0
 19 20  1  0
 19 21  2  0
 21 22  1  0
 21 23  1  0
 23 24  2  0
 24 25  1  0
 25 26  1  0
 25 27  2  0
 27 28  1  0
 27 29  1  0
 29 30  1  0
 14 31  1  0
 31 32  1  0
 31 33  2  0
 33 34  1  0
 34 35  1  0
 35 36  1  0
 35 37  1  0
 35 38  1  0
 38 39  1  6
 38 40  1  0
 40 41  1  0
 41 42  2  0
 41 43  1  0
 43 44  1  0
 44 45  1  0
 44 46  1  0
  6 47  1  0
 47 48  1  0
 47 49  2  0
 49 50  1  0
 49  2  1  0
 33 10  1  0
 44 38  1  0
 24 16  1  0
 29 23  1  0
M  CHG  3  11  -1  21   1  43  -1
M  END
>  <UniqueID>  (11) 
10

>  <SMILES>  (11) 
O=C1[N-]C[C@H](COc2cc(Oc3cc[nH+]c4[nH]ccc34)c[n-]/c2=N\C(=O)c2cccnc2)O1

>  <Energy>  (11) 
121.92995279393095

>  <Genealogy>  (11) 
O=C1[N-]CC(COc2cc(Oc3cc[nH+]c4[nH]ccc34)c[n-]c2=NC(=O)c2cccnc2)O1 (protonated)
O=C1[N-]C[C@H](COc2cc(Oc3cc[nH+]c4[nH]ccc34)c[n-]c2=NC(=O)c2cccnc2)O1 (chirality)
O=C1[N-]C[C@H](COc2cc(Oc3cc[nH+]c4[nH]ccc34)c[n-]/c2=N\C(=O)c2cccnc2)O1 (cis-trans isomerization)
O=C1[N-]C[C@H](COc2cc(Oc3cc[nH+]c4[nH]ccc34)c[n-]/c2=N\C(=O)c2cccnc2)O1 (3D coordinates assigned)
O=C1[N-]C[C@H](COc2cc(Oc3cc[nH+]c4[nH]ccc34)c[n-]/c2=N\C(=O)c2cccnc2)O1 (nonaromatic ring conformer: 121.92995279393095 kcal/mol)

>  <smiles>  (11) 
O=C1NCC(COc2cc(Oc3ccnc4[nH]ccc34)c[nH]c2=NC(=O)c2cccnc2)O1

>  <score_type>  (11) 
oracle

>  <origin>  (11) 
adg

>  <m_score__min__energy>  (11) 
-10.48

>  <m_primary>  (11) 
energy

$$$$
11:0
     RDKit          3D

 49 52  0  0  0  0  0  0  0  0999 V2000
   60.0912   21.0490   44.0442 H   0  0  0  0  0  0  0  0  0  0  0  0
   59.3740   21.8300   44.3370 C   0  0  0  0  0  0  0  0  0  0  0  0
   58.1230   21.8360   43.8060 N   0  0  0  0  0  0  0  0  0  0  0  0
   57.2020   22.7840   44.1360 C   0  0  0  0  0  0  0  0  0  0  0  0
   55.8640   22.7370   43.5170 C   0  0  0  0  0  0  0  0  0  0  0  0
   55.7240   22.2170   42.3760 O   0  0  0  0  0  0  0  0  0  0  0  0
   54.7270   23.2730   44.2020 N   0  0  0  0  0  0  0  0  0  0  0  0
   54.4010   22.9280   45.5760 C   0  0  0  0  0  0  0  0  0  0  0  0
   54.9920   23.5535   46.2612 H   0  0  0  0  0  0  0  0  0  0  0  0
   53.3293   23.1016   45.7533 H   0  0  0  0  0  0  0  0  0  0  0  0
   54.6350   21.8679   45.7533 H   0  0  0  0  0  0  0  0  0  0  0  0
   57.5480   23.7910   45.0530 C   0  0  0  0  0  0  0  0  0  0  0  0
   56.8206   24.5728   45.3170 H   0  0  0  0  0  0  0  0  0  0  0  0
   58.8300   23.7930   45.6310 C   0  0  0  0  0  0  0  0  0  0  0  0
   59.2320   24.7810   46.5410 O   0  0  0  0  0  0  0  0  0  0  0  0
   58.9760   26.1550   46.4150 C   0  0  0  0  0  0  0  0  0  0  0  0
   57.6880   26.6510   46.1520 C   0  0  0  0  0  0  0  0  0  0  0  0
   56.8477   25.9527   46.0243 H   0  0  0  0  0  0  0  0  0  0  0  0
   57.4700   28.0280   46.0520 C   0  0  0  0  0  0  0  0  0  0  0  0
   56.4573   28.4067   45.8493 H   0  0  0  0  0  0  0  0  0  0  0  0
   58.5320   28.9310   46.2080 C   0  0  0  0  0  0  0  0  0  0  0  0
   58.2780   30.3430   46.1250 N   0  0  0  0  0  0  0  0  0  0  0  0
   58.6860   30.9630   46.8610 H   0  0  0  0  0  0  0  0  0  0  0  0
   57.3870   30.9390   45.1670 C   0  0  0  0  0  0  0  0  0  0  0  0
   56.4040   30.2840   44.7330 O   0  0  0  0  0  0  0  0  0  0  0  0
   57.5450   32.3040   44.7510 N   0  0  0  0  0  0  0  0  0  0  0  0
   58.3920   33.1570   45.2460 C   0  0  0  0  0  0  0  0  0  0  0  0
   59.4160   32.8280   46.0600 N   0  0  0  0  0  0  0  0  0  0  0  0
   60.1710   33.9100   46.4020 C   0  0  0  0  0  0  0  0  0  0  0  0
   61.3530   33.7730   47.2940 C   0  0  0  0  0  0  0  0  0  0  0  0
   61.2640   33.9840   48.6860 C   0  0  0  0  0  0  0  0  0  0  0  0
   60.2962   34.2501   49.1361 H   0  0  0  0  0  0  0  0  0  0  0  0
   62.3950   33.8580   49.4990 C   0  0  0  0  0  0  0  0  0  0  0  0
   62.3124   34.0250   50.5831 H   0  0  0  0  0  0  0  0  0  0  0  0
   63.6280   33.5210   48.9390 C   0  0  0  0  0  0  0  0  0  0  0  0
   64.5167   33.4266   49.5803 H   0  0  0  0  0  0  0  0  0  0  0  0
   63.7320   33.3040   47.5650 C   0  0  0  0  0  0  0  0  0  0  0  0
   64.7032   33.0346   47.1243 H   0  0  0  0  0  0  0  0  0  0  0  0
   62.6050   33.4280   46.7460 C   0  0  0  0  0  0  0  0  0  0  0  0
   62.6966   33.2546   45.6636 H   0  0  0  0  0  0  0  0  0  0  0  0
   59.7350   35.1140   45.8320 C   0  0  0  0  0  0  0  0  0  0  0  0
   60.2008   36.1001   45.9754 H   0  0  0  0  0  0  0  0  0  0  0  0
   58.3760   34.7930   44.8900 S   0  0  0  0  0  0  0  0  0  0  0  0
   59.8130   28.4330   46.5100 C   0  0  0  0  0  0  0  0  0  0  0  0
   60.6487   29.1310   46.6659 H   0  0  0  0  0  0  0  0  0  0  0  0
   60.0290   27.0550   46.6130 C   0  0  0  0  0  0  0  0  0  0  0  0
   61.0338   26.6760   46.8513 H   0  0  0  0  0  0  0  0  0  0  0  0
   59.7500   22.8130   45.2530 C   0  0  0  0  0  0  0  0  0  0  0  0
   60.7658   22.8159   45.6751 H   0  0  0  0  0  0  0  0  0  0  0  0
  1  2  1  0
  2  3  2  0
  3  4  1  0
  4  5  1  0
  5  6  2  0
  5  7  1  0
  7  8  1  0
  8  9  1  0
  8 10  1  0
  8 11  1  0
  4 12  2  0
 12 13  1  0
 12 14  1  0
 14 15  1  0
 15 16  1  0
 16 17  2  0
 17 18  1  0
 17 19  1  0
 19 20  1  0
 19 21  2  0
 21 22  1  0
 22 23  1  0
 22 24  1  0
 24 25  2  0
 24 26  1  0
 26 27  2  0
 27 28  1  0
 28 29  1  0
 29 30  1  0
 30 31  2  0
 31 32  1  0
 31 33  1  0
 33 34  1  0
 33 35  2  0
 35 36  1  0
 35 37  1  0
 37 38  1  0
 37 39  2  0
 39 40  1  0
 29 41  2  0
 41 42  1  0
 41 43  1  0
 21 44  1  0
 44 45  1  0
 44 46  2  0
 46 47  1  0
 14 48  2  0
 48 49  1  0
 48  2  1  0
 46 16  1  0
 43 27  1  0
 39 30  1  0
M  CHG  2   7  -1  28  -1
M  END
>  <UniqueID>  (12) 
11

>  <SMILES>  (12) 
C[N-]C(=O)c1cc(Oc2ccc(NC(=O)/N=c3\[n-]c(-c4ccccc4)cs3)cc2)ccn1

>  <Energy>  (12) 
96.5049711324041

>  <Genealogy>  (12) 
C[N-]C(=O)c1cc(Oc2ccc(NC(=O)N=c3[n-]c(-c4ccccc4)cs3)cc2)ccn1 (protonated)
C[N-]C(=O)c1cc(Oc2ccc(NC(=O)/N=c3\[n-]c(-c4ccccc4)cs3)cc2)ccn1 (cis-trans isomerization)
C[N-]C(=O)c1cc(Oc2ccc(NC(=O)/N=c3\[n-]c(-c4ccccc4)cs3)cc2)ccn1 (3D coordinates assigned)
C[N-]C(=O)c1cc(Oc2ccc(NC(=O)/N=c3\[n-]c(-c4ccccc4)cs3)cc2)ccn1 (optimized conformer: 96.5049711324041 kcal/mol)

>  <smiles>  (12) 
CNC(=O)c1cc(Oc2ccc(NC(=O)N=c3[nH]c(-c4ccccc4)cs3)cc2)ccn1

>  <score_type>  (12) 
oracle

>  <origin>  (12) 
adg

>  <m_score__min__energy>  (12) 
-12.16

>  <m_primary>  (12) 
energy

$$$$
12:0
     RDKit          3D

 66 69  0  0  0  0  0  0  0  0999 V2000
   54.3360   22.9590   47.3020 C   0  0  0  0  0  0  0  0  0  0  0  0
   55.7160   23.2620   47.6950 N   0  0  0  0  0  0  0  0  0  0  0  0
   56.3380   22.5680   48.8230 C   0  0  0  0  0  0  0  0  0  0  0  0
   56.4530   24.2750   46.9850 C   0  0  0  0  0  0  0  0  0  0  0  0
   55.8460   25.4390   46.6340 N   0  0  0  0  0  0  0  0  0  0  0  0
   56.5100   26.3990   45.9430 C   0  0  0  0  0  0  0  0  0  0  0  0
   57.8510   26.2120   45.5910 C   0  0  0  0  0  0  0  0  0  0  0  0
   58.5850   27.2390   44.7700 C   0  0  0  0  0  0  0  0  0  0  0  0
   57.6510   28.1890   44.1600 N   0  0  0  0  0  0  0  0  0  0  0  0
   57.6740   29.6130   44.3830 C   0  0  0  0  0  0  0  0  0  0  0  0
   57.3590   30.4770   43.3220 C   0  0  0  0  0  0  0  0  0  0  0  0
   57.4030   31.8610   43.4930 C   0  0  0  0  0  0  0  0  0  0  0  0
   57.7570   32.4080   44.7350 C   0  0  0  0  0  0  0  0  0  0  0  0
   57.7310   33.8980   44.9340 C   0  0  0  0  0  0  0  0  0  0  0  0
   58.6250   34.2510   46.0780 C   0  0  0  0  0  0  0  0  0  0  0  0
   58.1570   34.2890   47.2480 O   0  0  0  0  0  0  0  0  0  0  0  0
   60.0280   34.4560   45.8440 N   0  0  0  0  0  0  0  0  0  0  0  0
   61.0320   34.1200   46.8130 C   0  0  0  0  0  0  0  0  0  0  0  0
   62.3360   33.8360   46.3870 C   0  0  0  0  0  0  0  0  0  0  0  0
   63.3170   33.4800   47.3160 C   0  0  0  0  0  0  0  0  0  0  0  0
   62.9980   33.3670   48.6700 C   0  0  0  0  0  0  0  0  0  0  0  0
   61.6820   33.5950   49.1060 C   0  0  0  0  0  0  0  0  0  0  0  0
   61.3130   33.4070   50.5590 C   0  0  0  0  0  0  0  0  0  0  0  0
   60.6490   32.1130   50.8350 N   0  0  0  0  0  0  0  0  0  0  0  0
   59.2590   32.2030   51.3320 C   0  0  0  0  0  0  0  0  0  0  0  0
   58.2050   32.0870   50.2050 C   0  0  0  0  0  0  0  0  0  0  0  0
   58.7880   31.9020   48.9310 O   0  0  0  0  0  0  0  0  0  0  0  0
   59.6350   30.7770   48.9630 C   0  0  0  0  0  0  0  0  0  0  0  0
   60.8790   31.0570   49.8250 C   0  0  0  0  0  0  0  0  0  0  0  0
   60.7080   33.9890   48.1750 C   0  0  0  0  0  0  0  0  0  0  0  0
   58.0500   31.5500   45.8060 C   0  0  0  0  0  0  0  0  0  0  0  0
   58.0120   30.1650   45.6330 C   0  0  0  0  0  0  0  0  0  0  0  0
   58.4580   25.0040   45.9490 C   0  0  0  0  0  0  0  0  0  0  0  0
   57.7540   24.0680   46.6350 N   0  0  0  0  0  0  0  0  0  0  0  0
   53.7195   22.8236   48.2029 H   0  0  0  0  0  0  0  0  0  0  0  0
   53.9341   23.7903   46.7042 H   0  0  0  0  0  0  0  0  0  0  0  0
   54.3193   22.0358   46.7042 H   0  0  0  0  0  0  0  0  0  0  0  0
   55.9603   22.9895   49.7662 H   0  0  0  0  0  0  0  0  0  0  0  0
   56.0919   21.4970   48.7754 H   0  0  0  0  0  0  0  0  0  0  0  0
   57.4295   22.6958   48.7754 H   0  0  0  0  0  0  0  0  0  0  0  0
   55.9926   27.3271   45.6586 H   0  0  0  0  0  0  0  0  0  0  0  0
   59.2826   27.7875   45.4200 H   0  0  0  0  0  0  0  0  0  0  0  0
   59.1316   26.7211   43.9681 H   0  0  0  0  0  0  0  0  0  0  0  0
   56.9390   27.8040   43.4960 H   0  0  0  0  0  0  0  0  0  0  0  0
   57.0745   30.0582   42.3454 H   0  0  0  0  0  0  0  0  0  0  0  0
   57.1592   32.5254   42.6509 H   0  0  0  0  0  0  0  0  0  0  0  0
   58.0854   34.3984   44.0208 H   0  0  0  0  0  0  0  0  0  0  0  0
   56.7036   34.2265   45.1497 H   0  0  0  0  0  0  0  0  0  0  0  0
   60.3270   34.8480   44.9210 H   0  0  0  0  0  0  0  0  0  0  0  0
   62.5883   33.8934   45.3179 H   0  0  0  0  0  0  0  0  0  0  0  0
   64.3461   33.2878   46.9785 H   0  0  0  0  0  0  0  0  0  0  0  0
   63.7785   33.0989   49.3973 H   0  0  0  0  0  0  0  0  0  0  0  0
   62.2313   33.4631   51.1619 H   0  0  0  0  0  0  0  0  0  0  0  0
   60.5966   34.2008   50.8171 H   0  0  0  0  0  0  0  0  0  0  0  0
   59.0915   31.3899   52.0536 H   0  0  0  0  0  0  0  0  0  0  0  0
   59.1385   33.1938   51.7944 H   0  0  0  0  0  0  0  0  0  0  0  0
   57.5515   31.2290   50.4211 H   0  0  0  0  0  0  0  0  0  0  0  0
   57.6409   33.0310   50.1787 H   0  0  0  0  0  0  0  0  0  0  0  0
   59.0860   29.9236   49.3877 H   0  0  0  0  0  0  0  0  0  0  0  0
   59.9596   30.5494   47.9369 H   0  0  0  0  0  0  0  0  0  0  0  0
   61.1632   30.1297   50.3441 H   0  0  0  0  0  0  0  0  0  0  0  0
   61.6760   31.4084   49.1532 H   0  0  0  0  0  0  0  0  0  0  0  0
   59.6824   34.1971   48.5139 H   0  0  0  0  0  0  0  0  0  0  0  0
   58.3113   31.9712   46.7880 H   0  0  0  0  0  0  0  0  0  0  0  0
   58.2475   29.5016   46.4782 H   0  0  0  0  0  0  0  0  0  0  0  0
   59.5059   24.8124   45.6747 H   0  0  0  0  0  0  0  0  0  0  0  0
  1  2  1  0
  2  3  1  0
  2  4  1  0
  4  5  2  0
  5  6  1  0
  6  7  2  0
  7  8  1  0
  8  9  1  0
  9 10  1  0
 10 11  2  0
 11 12  1  0
 12 13  2  0
 13 14  1  0
 14 15  1  0
 15 16  2  0
 15 17  1  0
 17 18  1  0
 18 19  2  0
 19 20  1  0
 20 21  2  0
 21 22  1  0
 22 23  1  0
 23 24  1  0
 24 25  1  0
 25 26  1  0
 26 27  1  0
 27 28  1  0
 28 29  1  0
 22 30  2  0
 13 31  1  0
 31 32  2  0
  7 33  1  0
 33 34  2  0
 34  4  1  0
 32 10  1  0
 30 18  1  0
 29 24  1  0
  1 35  1  0
  1 36  1  0
  1 37  1  0
  3 38  1  0
  3 39  1  0
  3 40  1  0
  6 41  1  0
  8 42  1  0
  8 43  1  0
  9 44  1  0
 11 45  1  0
 12 46  1  0
 14 47  1  0
 14 48  1  0
 17 49  1  0
 19 50  1  0
 20 51  1  0
 21 52  1  0
 23 53  1  0
 23 54  1  0
 25 55  1  0
 25 56  1  0
 26 57  1  0
 26 58  1  0
 28 59  1  0
 28 60  1  0
 29 61  1  0
 29 62  1  0
 30 63  1  0
 31 64  1  0
 32 65  1  0
 33 66  1  0
M  END
>  <UniqueID>  (13) 
12

>  <SMILES>  (13) 
CN(C)c1ncc(CNc2ccc(CC(=O)Nc3cccc(CN4CCOCC4)c3)cc2)cn1

>  <Energy>  (13) 
78.75989967929405

>  <Genealogy>  (13) 
CN(C)c1ncc(CNc2ccc(CC(=O)Nc3cccc(CN4CCOCC4)c3)cc2)cn1 (3D coordinates assigned)
CN(C)c1ncc(CNc2ccc(CC(=O)Nc3cccc(CN4CCOCC4)c3)cc2)cn1 (nonaromatic ring conformer: 78.75989967929405 kcal/mol)

>  <smiles>  (13) 
CN(C)c1ncc(CNc2ccc(CC(=O)Nc3cccc(CN4CCOCC4)c3)cc2)cn1

>  <score_type>  (13) 
oracle

>  <origin>  (13) 
adg

>  <m_score__min__energy>  (13) 
-8.9299999999999997

>  <m_primary>  (13) 
energy

$$$$
13:0
     RDKit          3D

 50 53  0  0  0  0  0  0  0  0999 V2000
   59.3450   29.4390   47.8840 O   0  0  0  0  0  0  0  0  0  0  0  0
   60.0720   30.2500   47.2490 C   0  0  0  0  0  0  0  0  0  0  0  0
   59.9560   30.3470   45.7610 C   0  0  0  0  0  0  0  0  0  0  0  0
   58.5170   30.1580   45.3500 C   0  0  0  0  0  0  0  0  0  0  0  0
   57.8640   28.9490   45.6510 C   0  0  0  0  0  0  0  0  0  0  0  0
   56.5470   28.7290   45.2380 C   0  0  0  0  0  0  0  0  0  0  0  0
   55.9200   27.5250   45.5520 O   0  0  0  0  0  0  0  0  0  0  0  0
   55.8750   29.7130   44.5070 C   0  0  0  0  0  0  0  0  0  0  0  0
   56.5160   30.9130   44.1900 C   0  0  0  0  0  0  0  0  0  0  0  0
   57.8270   31.1540   44.6250 C   0  0  0  0  0  0  0  0  0  0  0  0
   58.4900   32.3750   44.2790 N   0  0  0  0  0  0  0  0  0  0  0  0
   58.2880   33.8620   45.1520 S   0  0  0  0  0  0  0  0  0  0  0  0
   56.8480   34.2880   45.0600 O   0  0  0  0  0  0  0  0  0  0  0  0
   59.1450   34.9230   44.5190 O   0  0  0  0  0  0  0  0  0  0  0  0
   58.7390   33.6950   46.8470 C   0  0  0  0  0  0  0  0  0  0  0  0
   58.1430   32.7000   47.6330 C   0  0  0  0  0  0  0  0  0  0  0  0
   58.4640   32.5850   48.9890 C   0  0  0  0  0  0  0  0  0  0  0  0
   59.3930   33.4620   49.5760 C   0  0  0  0  0  0  0  0  0  0  0  0
   59.7200   33.3570   51.0170 C   0  0  0  0  0  0  0  0  0  0  0  0
   61.0580   33.4490   51.4440 C   0  0  0  0  0  0  0  0  0  0  0  0
   61.3750   33.3670   52.8020 C   0  0  0  0  0  0  0  0  0  0  0  0
   60.3650   33.1840   53.7480 C   0  0  0  0  0  0  0  0  0  0  0  0
   59.0340   33.0830   53.3370 C   0  0  0  0  0  0  0  0  0  0  0  0
   58.7080   33.1680   51.9800 C   0  0  0  0  0  0  0  0  0  0  0  0
   57.4090   33.0330   51.6050 F   0  0  0  0  0  0  0  0  0  0  0  0
   59.9880   34.4590   48.7830 C   0  0  0  0  0  0  0  0  0  0  0  0
   59.6650   34.5730   47.4280 C   0  0  0  0  0  0  0  0  0  0  0  0
   61.0590   31.0270   47.9320 N   0  0  0  0  0  0  0  0  0  0  0  0
   61.8700   32.0270   47.2540 C   0  0  0  0  0  0  0  0  0  0  0  0
   63.3510   31.6980   47.2660 C   0  0  0  0  0  0  0  0  0  0  0  0
   62.8030   32.7800   48.1860 C   0  0  0  0  0  0  0  0  0  0  0  0
   60.3036   31.3371   45.4309 H   0  0  0  0  0  0  0  0  0  0  0  0
   60.5736   29.5647   45.2956 H   0  0  0  0  0  0  0  0  0  0  0  0
   58.3949   28.1693   46.2168 H   0  0  0  0  0  0  0  0  0  0  0  0
   55.9950   26.7140   44.9480 H   0  0  0  0  0  0  0  0  0  0  0  0
   54.8386   29.5419   44.1805 H   0  0  0  0  0  0  0  0  0  0  0  0
   55.9889   31.6737   43.5954 H   0  0  0  0  0  0  0  0  0  0  0  0
   57.4191   32.0059   47.1811 H   0  0  0  0  0  0  0  0  0  0  0  0
   57.9872   31.8042   49.5998 H   0  0  0  0  0  0  0  0  0  0  0  0
   61.8595   33.5864   50.7033 H   0  0  0  0  0  0  0  0  0  0  0  0
   62.4230   33.4468   53.1266 H   0  0  0  0  0  0  0  0  0  0  0  0
   60.6173   33.1194   54.8167 H   0  0  0  0  0  0  0  0  0  0  0  0
   58.2395   32.9361   54.0834 H   0  0  0  0  0  0  0  0  0  0  0  0
   60.7127   35.1541   49.2321 H   0  0  0  0  0  0  0  0  0  0  0  0
   60.1388   35.3541   46.8153 H   0  0  0  0  0  0  0  0  0  0  0  0
   61.1389   32.3158   46.4845 H   0  0  0  0  0  0  0  0  0  0  0  0
   63.6990   30.7429   47.6863 H   0  0  0  0  0  0  0  0  0  0  0  0
   64.1440   31.6519   46.5051 H   0  0  0  0  0  0  0  0  0  0  0  0
   62.7544   32.6070   49.2712 H   0  0  0  0  0  0  0  0  0  0  0  0
   63.0351   33.8401   48.3659 H   0  0  0  0  0  0  0  0  0  0  0  0
  1  2  2  0
  2  3  1  0
  3  4  1  0
  4  5  2  0
  5  6  1  0
  6  7  1  0
  6  8  2  0
  8  9  1  0
  9 10  2  0
 10 11  1  0
 11 12  1  0
 12 13  2  0
 12 14  2  0
 12 15  1  0
 15 16  2  0
 16 17  1  0
 17 18  2  0
 18 19  1  0
 19 20  2  0
 20 21  1  0
 21 22  2  0
 22 23  1  0
 23 24  2  0
 24 25  1  0
 18 26  1  0
 26 27  2  0
  2 28  1  0
 28 29  1  0
 29 30  1  0
 30 31  1  0
 10  4  1  0
 27 15  1  0
 31 29  1  0
 24 19  1  0
  3 32  1  0
  3 33  1  0
  5 34  1  0
  7 35  1  0
  8 36  1  0
  9 37  1  0
 16 38  1  0
 17 39  1  0
 20 40  1  0
 21 41  1  0
 22 42  1  0
 23 43  1  0
 26 44  1  0
 27 45  1  0
 29 46  1  0
 30 47  1  0
 30 48  1  0
 31 49  1  0
 31 50  1  0
M  CHG  2  11  -1  28  -1
M  END
>  <UniqueID>  (14) 
13

>  <SMILES>  (14) 
O=C(Cc1cc(O)ccc1[N-]S(=O)(=O)c1ccc(-c2ccccc2F)cc1)[N-]C1CC1

>  <Energy>  (14) 
328.56483453543

>  <Genealogy>  (14) 
O=C(Cc1cc(O)ccc1[N-]S(=O)(=O)c1ccc(-c2ccccc2F)cc1)[N-]C1CC1 (protonated)
O=C(Cc1cc(O)ccc1[N-]S(=O)(=O)c1ccc(-c2ccccc2F)cc1)[N-]C1CC1 (3D coordinates assigned)
O=C(Cc1cc(O)ccc1[N-]S(=O)(=O)c1ccc(-c2ccccc2F)cc1)[N-]C1CC1 (nonaromatic ring conformer: 328.56483453543 kcal/mol)

>  <smiles>  (14) 
O=C(Cc1cc(O)ccc1NS(=O)(=O)c1ccc(-c2ccccc2F)cc1)NC1CC1

>  <score_type>  (14) 
oracle

>  <origin>  (14) 
adg

>  <m_score__min__energy>  (14) 
-12.199999999999999

>  <m_primary>  (14) 
energy

$$$$
14:0
     RDKit          3D

 61 64  0  0  0  0  0  0  0  0999 V2000
   51.4930   32.9660   49.2550 H   0  0  0  0  0  0  0  0  0  0  0  0
   51.0230   32.2730   49.8770 N   0  0  0  0  0  0  0  0  0  0  0  0
   51.3480   32.1910   51.2630 C   0  0  0  0  0  0  0  0  0  0  0  0
   50.7560   32.9510   52.0790 O   0  0  0  0  0  0  0  0  0  0  0  0
   52.3640   31.2190   51.7410 C   0  0  0  0  0  0  0  0  0  0  0  0
   52.0010   29.8920   52.0260 C   0  0  0  0  0  0  0  0  0  0  0  0
   50.9566   29.5711   51.8983 H   0  0  0  0  0  0  0  0  0  0  0  0
   52.9600   28.9770   52.4710 C   0  0  0  0  0  0  0  0  0  0  0  0
   52.5960   27.6990   52.7420 F   0  0  0  0  0  0  0  0  0  0  0  0
   54.2880   29.3730   52.6390 C   0  0  0  0  0  0  0  0  0  0  0  0
   55.0364   28.6420   52.9791 H   0  0  0  0  0  0  0  0  0  0  0  0
   54.6770   30.6990   52.3770 C   0  0  0  0  0  0  0  0  0  0  0  0
   56.0950   31.1020   52.5600 C   0  0  0  0  0  0  0  0  0  0  0  0
   56.5630   31.1840   53.7340 O   0  0  0  0  0  0  0  0  0  0  0  0
   56.9360   31.4030   51.4300 N   0  0  0  0  0  0  0  0  0  0  0  0
   56.5160   31.4560   50.4770 H   0  0  0  0  0  0  0  0  0  0  0  0
   58.3360   31.7120   51.5480 C   0  0  0  0  0  0  0  0  0  0  0  0
   58.7880   32.2140   52.6110 O   0  0  0  0  0  0  0  0  0  0  0  0
   59.2280   31.5260   50.4400 N   0  0  0  0  0  0  0  0  0  0  0  0
   58.8830   31.3400   49.2000 C   0  0  0  0  0  0  0  0  0  0  0  0
   58.5260   30.0950   48.7380 N   0  0  0  0  0  0  0  0  0  0  0  0
   58.1930   29.8620   47.4350 C   0  0  0  0  0  0  0  0  0  0  0  0
   57.9017   28.8582   47.0921 H   0  0  0  0  0  0  0  0  0  0  0  0
   58.2350   30.9350   46.5600 C   0  0  0  0  0  0  0  0  0  0  0  0
   57.9950   31.0700   45.2190 C   0  0  0  0  0  0  0  0  0  0  0  0
   57.6140   30.0420   44.3540 O   0  0  0  0  0  0  0  0  0  0  0  0
   57.3500   28.7030   44.7730 C   0  0  0  0  0  0  0  0  0  0  0  0
   56.4872   28.3176   44.2099 H   0  0  0  0  0  0  0  0  0  0  0  0
   57.1434   28.7180   45.8533 H   0  0  0  0  0  0  0  0  0  0  0  0
   58.5680   27.7690   44.5280 C   0  0  0  0  0  0  0  0  0  0  0  0
   58.6550   26.6880   45.6200 C   0  0  0  0  0  0  0  0  0  0  0  0
   59.7810   26.4330   46.1290 O   0  0  0  0  0  0  0  0  0  0  0  0
   57.5060   25.9630   46.1210 N   0  0  0  0  0  0  0  0  0  0  0  0
   56.4100   25.5180   45.2460 C   0  0  0  0  0  0  0  0  0  0  0  0
   55.7709   26.3787   44.9996 H   0  0  0  0  0  0  0  0  0  0  0  0
   56.8384   25.0897   44.3278 H   0  0  0  0  0  0  0  0  0  0  0  0
   55.5680   24.4490   45.9460 C   0  0  0  0  0  0  0  0  0  0  0  0
   54.9616   24.9159   46.7361 H   0  0  0  0  0  0  0  0  0  0  0  0
   54.9007   23.9653   45.2175 H   0  0  0  0  0  0  0  0  0  0  0  0
   56.4300   23.4860   46.5170 O   0  0  0  0  0  0  0  0  0  0  0  0
   57.1480   24.0200   47.6250 C   0  0  0  0  0  0  0  0  0  0  0  0
   56.5471   23.8575   48.5319 H   0  0  0  0  0  0  0  0  0  0  0  0
   58.1165   23.4988   47.6451 H   0  0  0  0  0  0  0  0  0  0  0  0
   57.4700   25.5300   47.5260 C   0  0  0  0  0  0  0  0  0  0  0  0
   56.6954   26.1001   48.0598 H   0  0  0  0  0  0  0  0  0  0  0  0
   58.4566   25.7115   47.9773 H   0  0  0  0  0  0  0  0  0  0  0  0
   59.8620   28.6280   44.5250 C   0  0  0  0  0  0  0  0  0  0  0  0
   60.1691   28.8319   45.5614 H   0  0  0  0  0  0  0  0  0  0  0  0
   60.6634   28.0820   44.0057 H   0  0  0  0  0  0  0  0  0  0  0  0
   59.6699   29.5785   44.0057 H   0  0  0  0  0  0  0  0  0  0  0  0
   58.4530   27.1300   43.1240 C   0  0  0  0  0  0  0  0  0  0  0  0
   58.2590   26.0521   43.2265 H   0  0  0  0  0  0  0  0  0  0  0  0
   57.6252   27.6008   42.5735 H   0  0  0  0  0  0  0  0  0  0  0  0
   59.3930   27.2827   42.5735 H   0  0  0  0  0  0  0  0  0  0  0  0
   58.2110   32.3560   44.8620 N   0  0  0  0  0  0  0  0  0  0  0  0
   58.5740   33.0410   45.9440 N   0  0  0  0  0  0  0  0  0  0  0  0
   58.5880   32.1790   46.9780 C   0  0  0  0  0  0  0  0  0  0  0  0
   58.9250   32.4310   48.3050 C   0  0  0  0  0  0  0  0  0  0  0  0
   59.2120   33.4380   48.6421 H   0  0  0  0  0  0  0  0  0  0  0  0
   53.7070   31.6120   51.9150 C   0  0  0  0  0  0  0  0  0  0  0  0
   54.0024   32.6467   51.6868 H   0  0  0  0  0  0  0  0  0  0  0  0
  1  2  1  0
  2  3  1  0
  3  4  2  0
  3  5  1  0
  5  6  2  0
  6  7  1  0
  6  8  1  0
  8  9  1  0
  8 10  2  0
 10 11  1  0
 10 12  1  0
 12 13  1  0
 13 14  2  0
 13 15  1  0
 15 16  1  0
 15 17  1  0
 17 18  2  0
 17 19  1  0
 19 20  2  0
 20 21  1  0
 21 22  1  0
 22 23  1  0
 22 24  2  0
 24 25  1  0
 25 26  1  0
 26 27  1  0
 27 28  1  0
 27 29  1  0
 27 30  1  0
 30 31  1  0
 31 32  2  0
 31 33  1  0
 33 34  1  0
 34 35  1  0
 34 36  1  0
 34 37  1  0
 37 38  1  0
 37 39  1  0
 37 40  1  0
 40 41  1  0
 41 42  1  0
 41 43  1  0
 41 44  1  0
 44 45  1  0
 44 46  1  0
 30 47  1  0
 47 48  1  0
 47 49  1  0
 47 50  1  0
 30 51  1  0
 51 52  1  0
 51 53  1  0
 51 54  1  0
 25 55  2  0
 55 56  1  0
 56 57  1  0
 57 58  2  0
 58 59  1  0
 12 60  2  0
 60 61  1  0
 60  5  1  0
 58 20  1  0
 57 24  1  0
 44 33  1  0
M  CHG  3   2  -1  21  -1  56  -1
M  END
>  <UniqueID>  (15) 
14

>  <SMILES>  (15) 
CC(C)(COc1n[n-]c2c/c(=N/C(=O)NC(=O)c3cc(F)cc(C([NH-])=O)c3)[n-]cc12)C(=O)N1CCOCC1

>  <Energy>  (15) 
123.9973913507306

>  <Genealogy>  (15) 
CC(C)(COc1n[n-]c2cc(=NC(=O)NC(=O)c3cc(F)cc(C([NH-])=O)c3)[n-]cc12)C(=O)N1CCOCC1 (protonated)
CC(C)(COc1n[n-]c2c/c(=N/C(=O)NC(=O)c3cc(F)cc(C([NH-])=O)c3)[n-]cc12)C(=O)N1CCOCC1 (cis-trans isomerization)
CC(C)(COc1n[n-]c2c/c(=N/C(=O)NC(=O)c3cc(F)cc(C([NH-])=O)c3)[n-]cc12)C(=O)N1CCOCC1 (3D coordinates assigned)
CC(C)(COc1n[n-]c2c/c(=N/C(=O)NC(=O)c3cc(F)cc(C([NH-])=O)c3)[n-]cc12)C(=O)N1CCOCC1 (nonaromatic ring conformer: 123.9973913507306 kcal/mol)

>  <smiles>  (15) 
CC(C)(COc1n[nH]c2cc(=NC(=O)NC(=O)c3cc(F)cc(C(N)=O)c3)[nH]cc12)C(=O)N1CCOCC1

>  <score_type>  (15) 
oracle

>  <origin>  (15) 
adg

>  <m_score__min__energy>  (15) 
-14.619999999999999

>  <m_primary>  (15) 
energy

$$$$
15:0
     RDKit          3D

 39 41  0  0  0  0  0  0  0  0999 V2000
   58.2478   24.5358   47.4390 H   0  0  0  0  0  0  0  0  0  0  0  0
   58.0230   24.8750   46.4170 C   0  0  0  0  0  0  0  0  0  0  0  0
   57.8340   23.9350   45.4790 C   0  0  0  0  0  0  0  0  0  0  0  0
   56.3600   23.9420   44.4450 S   0  0  0  0  0  0  0  0  0  0  0  0
   56.9520   22.4180   43.7030 C   0  0  0  0  0  0  0  0  0  0  0  0
   56.2800   21.7790   42.8530 O   0  0  0  0  0  0  0  0  0  0  0  0
   58.2270   21.9690   44.1380 N   0  0  0  0  0  0  0  0  0  0  0  0
   58.7190   21.1240   43.7700 H   0  0  0  0  0  0  0  0  0  0  0  0
   58.7450   22.8370   45.1270 C   0  0  0  0  0  0  0  0  0  0  0  0
   59.9050   22.6910   45.5950 O   0  0  0  0  0  0  0  0  0  0  0  0
   57.9520   26.3300   46.1810 C   0  0  0  0  0  0  0  0  0  0  0  0
   58.9910   27.1780   46.5870 C   0  0  0  0  0  0  0  0  0  0  0  0
   59.8921   26.7540   47.0542 H   0  0  0  0  0  0  0  0  0  0  0  0
   58.8890   28.5570   46.4020 C   0  0  0  0  0  0  0  0  0  0  0  0
   59.7191   29.2122   46.7049 H   0  0  0  0  0  0  0  0  0  0  0  0
   57.7300   29.1150   45.8300 C   0  0  0  0  0  0  0  0  0  0  0  0
   57.5850   30.4980   45.6290 O   0  0  0  0  0  0  0  0  0  0  0  0
   58.5410   31.3490   44.9930 C   0  0  0  0  0  0  0  0  0  0  0  0
   59.3796   30.7379   44.6278 H   0  0  0  0  0  0  0  0  0  0  0  0
   58.0476   31.8662   44.1569 H   0  0  0  0  0  0  0  0  0  0  0  0
   59.0700   32.3890   45.9580 C   0  0  0  0  0  0  0  0  0  0  0  0
   60.1730   32.0700   46.7760 C   0  0  0  0  0  0  0  0  0  0  0  0
   60.7600   30.8470   46.7020 F   0  0  0  0  0  0  0  0  0  0  0  0
   60.6800   33.0070   47.6800 C   0  0  0  0  0  0  0  0  0  0  0  0
   61.5495   32.7528   48.3040 H   0  0  0  0  0  0  0  0  0  0  0  0
   60.0860   34.2640   47.7930 C   0  0  0  0  0  0  0  0  0  0  0  0
   60.4925   35.0021   48.5001 H   0  0  0  0  0  0  0  0  0  0  0  0
   58.9780   34.5860   47.0110 C   0  0  0  0  0  0  0  0  0  0  0  0
   58.5087   35.5759   47.1101 H   0  0  0  0  0  0  0  0  0  0  0  0
   58.4580   33.6580   46.1000 C   0  0  0  0  0  0  0  0  0  0  0  0
   57.0340   34.1290   45.1740 Cl  0  0  0  0  0  0  0  0  0  0  0  0
   56.6730   28.2750   45.4480 C   0  0  0  0  0  0  0  0  0  0  0  0
   55.5260   28.8610   44.8890 O   0  0  0  0  0  0  0  0  0  0  0  0
   55.5300   29.7170   43.7510 C   0  0  0  0  0  0  0  0  0  0  0  0
   55.5349   30.7662   44.0814 H   0  0  0  0  0  0  0  0  0  0  0  0
   56.4272   29.5188   43.1463 H   0  0  0  0  0  0  0  0  0  0  0  0
   54.6310   29.5272   43.1463 H   0  0  0  0  0  0  0  0  0  0  0  0
   56.7860   26.8820   45.6370 C   0  0  0  0  0  0  0  0  0  0  0  0
   55.9511   26.2237   45.3547 H   0  0  0  0  0  0  0  0  0  0  0  0
  1  2  1  0
  2  3  2  0
  3  4  1  0
  4  5  1  0
  5  6  2  0
  5  7  1  0
  7  8  1  0
  7  9  1  0
  9 10  2  0
  2 11  1  0
 11 12  2  0
 12 13  1  0
 12 14  1  0
 14 15  1  0
 14 16  2  0
 16 17  1  0
 17 18  1  0
 18 19  1  0
 18 20  1  0
 18 21  1  0
 21 22  2  0
 22 23  1  0
 22 24  1  0
 24 25  1  0
 24 26  2  0
 26 27  1  0
 26 28  1  0
 28 29  1  0
 28 30  2  0
 30 31  1  0
 16 32  1  0
 32 33  1  0
 33 34  1  0
 34 35  1  0
 34 36  1  0
 34 37  1  0
 32 38  2  0
 38 39  1  0
  9  3  1  0
 38 11  1  0
 30 21  1  0
M  END
>  <UniqueID>  (16) 
15

>  <SMILES>  (16) 
COc1cc(/C=C2/SC(=O)NC2=O)ccc1OCc1c(F)cccc1Cl

>  <Energy>  (16) 
69.58142014580771

>  <Genealogy>  (16) 
COc1cc(/C=C2/SC(=O)NC2=O)ccc1OCc1c(F)cccc1Cl (cis-trans isomerization)
COc1cc(/C=C2/SC(=O)NC2=O)ccc1OCc1c(F)cccc1Cl (3D coordinates assigned)
COc1cc(/C=C2/SC(=O)NC2=O)ccc1OCc1c(F)cccc1Cl (nonaromatic ring conformer: 69.58142014580771 kcal/mol)

>  <smiles>  (16) 
COc1cc(C=C2SC(=O)NC2=O)ccc1OCc1c(F)cccc1Cl

>  <score_type>  (16) 
oracle

>  <origin>  (16) 
adg

>  <m_score__min__energy>  (16) 
-9.5

>  <m_primary>  (16) 
energy

$$$$
16:0
     RDKit          3D

 44 45  0  0  0  0  0  0  0  0999 V2000
   64.1180   33.4250   47.7200 N   0  0  0  0  0  0  0  0  0  0  0  0
   62.8700   32.7640   47.5200 C   0  0  0  0  0  0  0  0  0  0  0  0
   62.8590   31.5020   47.4840 O   0  0  0  0  0  0  0  0  0  0  0  0
   61.5960   33.5290   47.3700 C   0  0  0  0  0  0  0  0  0  0  0  0
   61.1420   33.8370   46.0700 C   0  0  0  0  0  0  0  0  0  0  0  0
   59.9530   34.5420   45.8720 C   0  0  0  0  0  0  0  0  0  0  0  0
   59.2000   34.9640   46.9650 C   0  0  0  0  0  0  0  0  0  0  0  0
   59.6290   34.6770   48.2600 C   0  0  0  0  0  0  0  0  0  0  0  0
   60.8130   33.9440   48.4810 C   0  0  0  0  0  0  0  0  0  0  0  0
   61.2640   33.6980   49.8220 N   0  0  0  0  0  0  0  0  0  0  0  0
   60.9510   32.5490   50.6200 C   0  0  0  0  0  0  0  0  0  0  0  0
   60.9880   32.6070   51.8780 O   0  0  0  0  0  0  0  0  0  0  0  0
   60.5580   31.2700   49.9500 C   0  0  0  0  0  0  0  0  0  0  0  0
   59.0500   31.2470   49.6890 C   0  0  0  0  0  0  0  0  0  0  0  0
   58.7370   31.6080   48.2340 C   0  0  0  0  0  0  0  0  0  0  0  0
   58.6630   30.4020   47.4120 N   0  0  0  0  0  0  0  0  0  0  0  0
   58.1080   30.3050   46.0910 C   0  0  0  0  0  0  0  0  0  0  0  0
   57.3590   31.2340   45.6840 O   0  0  0  0  0  0  0  0  0  0  0  0
   58.3800   29.1400   45.1740 C   0  0  0  0  0  0  0  0  0  0  0  0
   57.7330   27.8860   45.7080 C   0  0  0  0  0  0  0  0  0  0  0  0
   58.5270   26.8830   46.2880 C   0  0  0  0  0  0  0  0  0  0  0  0
   57.9400   25.7110   46.7730 C   0  0  0  0  0  0  0  0  0  0  0  0
   56.5590   25.5200   46.6790 C   0  0  0  0  0  0  0  0  0  0  0  0
   56.0010   24.3420   47.1770 O   0  0  0  0  0  0  0  0  0  0  0  0
   55.7580   26.5110   46.0880 C   0  0  0  0  0  0  0  0  0  0  0  0
   54.3840   26.3280   45.9770 O   0  0  0  0  0  0  0  0  0  0  0  0
   56.3430   27.6880   45.6000 C   0  0  0  0  0  0  0  0  0  0  0  0
   55.5360   28.6570   45.0070 O   0  0  0  0  0  0  0  0  0  0  0  0
   65.0040   33.0320   47.3270 H   0  0  0  0  0  0  0  0  0  0  0  0
   61.7335   33.5170   45.1995 H   0  0  0  0  0  0  0  0  0  0  0  0
   59.6104   34.7645   44.8507 H   0  0  0  0  0  0  0  0  0  0  0  0
   58.2665   35.5239   46.8064 H   0  0  0  0  0  0  0  0  0  0  0  0
   59.0372   35.0263   49.1189 H   0  0  0  0  0  0  0  0  0  0  0  0
   61.0930   31.1827   48.9929 H   0  0  0  0  0  0  0  0  0  0  0  0
   60.8197   30.4275   50.6070 H   0  0  0  0  0  0  0  0  0  0  0  0
   58.6642   30.2387   49.9000 H   0  0  0  0  0  0  0  0  0  0  0  0
   58.5706   31.9892   50.3441 H   0  0  0  0  0  0  0  0  0  0  0  0
   57.7724   32.1350   48.1912 H   0  0  0  0  0  0  0  0  0  0  0  0
   59.5393   32.2535   47.8471 H   0  0  0  0  0  0  0  0  0  0  0  0
   57.9723   29.3613   44.1766 H   0  0  0  0  0  0  0  0  0  0  0  0
   59.4668   28.9815   45.1124 H   0  0  0  0  0  0  0  0  0  0  0  0
   59.6159   27.0206   46.3609 H   0  0  0  0  0  0  0  0  0  0  0  0
   58.5692   24.9340   47.2316 H   0  0  0  0  0  0  0  0  0  0  0  0
   55.0010   24.1920   47.2010 H   0  0  0  0  0  0  0  0  0  0  0  0
  1  2  1  0
  2  3  2  0
  2  4  1  0
  4  5  2  0
  5  6  1  0
  6  7  2  0
  7  8  1  0
  8  9  2  0
  9 10  1  0
 10 11  1  0
 11 12  2  0
 11 13  1  0
 13 14  1  0
 14 15  1  0
 15 16  1  0
 16 17  1  0
 17 18  2  0
 17 19  1  0
 19 20  1  0
 20 21  2  0
 21 22  1  0
 22 23  2  0
 23 24  1  0
 23 25  1  0
 25 26  1  0
 25 27  2  0
 27 28  1  0
  9  4  1  0
 27 20  1  0
  1 29  1  0
  5 30  1  0
  6 31  1  0
  7 32  1  0
  8 33  1  0
 13 34  1  0
 13 35  1  0
 14 36  1  0
 14 37  1  0
 15 38  1  0
 15 39  1  0
 19 40  1  0
 19 41  1  0
 21 42  1  0
 22 43  1  0
 24 44  1  0
M  CHG  5   1  -1  10  -1  16  -1  26  -1  28  -1
M  END
>  <UniqueID>  (17) 
16

>  <SMILES>  (17) 
[NH-]C(=O)c1ccccc1[N-]C(=O)CCC[N-]C(=O)Cc1ccc(O)c([O-])c1[O-]

>  <Energy>  (17) 
45.25666115201186

>  <Genealogy>  (17) 
[NH-]C(=O)c1ccccc1[N-]C(=O)CCC[N-]C(=O)Cc1ccc(O)c([O-])c1[O-] (protonated)
[NH-]C(=O)c1ccccc1[N-]C(=O)CCC[N-]C(=O)Cc1ccc(O)c([O-])c1[O-] (3D coordinates assigned)
[NH-]C(=O)c1ccccc1[N-]C(=O)CCC[N-]C(=O)Cc1ccc(O)c([O-])c1[O-] (optimized conformer: 45.25666115201186 kcal/mol)

>  <smiles>  (17) 
NC(=O)c1ccccc1NC(=O)CCCNC(=O)Cc1ccc(O)c(O)c1O

>  <score_type>  (17) 
oracle

>  <origin>  (17) 
adg

>  <m_score__min__energy>  (17) 
-18.280000000000001

>  <m_primary>  (17) 
energy

$$$$
17:0
     RDKit          3D

 40 43  0  0  0  0  0  0  0  0999 V2000
   57.3310   30.4750   45.3250 O   0  0  0  0  0  0  0  0  0  0  0  0
   57.4190   29.3980   45.9700 C   0  0  0  0  0  0  0  0  0  0  0  0
   56.5080   28.3370   45.6630 N   0  0  0  0  0  0  0  0  0  0  0  0
   56.7990   26.9350   45.7560 C   0  0  0  0  0  0  0  0  0  0  0  0
   58.1400   26.5280   45.7850 C   0  0  0  0  0  0  0  0  0  0  0  0
   58.4660   25.1700   45.8640 C   0  0  0  0  0  0  0  0  0  0  0  0
   57.4530   24.2100   45.9360 C   0  0  0  0  0  0  0  0  0  0  0  0
   56.1130   24.6080   45.9440 C   0  0  0  0  0  0  0  0  0  0  0  0
   55.7810   25.9660   45.8690 C   0  0  0  0  0  0  0  0  0  0  0  0
   54.4430   26.3400   45.9360 O   0  0  0  0  0  0  0  0  0  0  0  0
   58.3630   29.2660   47.0450 N   0  0  0  0  0  0  0  0  0  0  0  0
   59.4900   30.1300   47.2550 C   0  0  0  0  0  0  0  0  0  0  0  0
   59.3780   31.4760   47.6100 C   0  0  0  0  0  0  0  0  0  0  0  0
   60.6260   32.0820   47.7950 C   0  0  0  0  0  0  0  0  0  0  0  0
   60.8870   33.4070   48.1700 C   0  0  0  0  0  0  0  0  0  0  0  0
   59.5650   34.5700   48.5250 S   0  0  0  0  0  0  0  0  0  0  0  0
   58.7760   34.2980   46.9370 C   0  0  0  0  0  0  0  0  0  0  0  0
   57.4660   33.8050   46.8810 C   0  0  0  0  0  0  0  0  0  0  0  0
   56.8600   33.5650   45.6440 C   0  0  0  0  0  0  0  0  0  0  0  0
   57.5590   33.8240   44.4600 C   0  0  0  0  0  0  0  0  0  0  0  0
   58.8600   34.3340   44.5120 C   0  0  0  0  0  0  0  0  0  0  0  0
   59.4670   34.5730   45.7490 C   0  0  0  0  0  0  0  0  0  0  0  0
   62.2280   33.8120   48.2870 C   0  0  0  0  0  0  0  0  0  0  0  0
   63.2650   32.8890   48.0500 C   0  0  0  0  0  0  0  0  0  0  0  0
   62.9780   31.6020   47.7030 N   0  0  0  0  0  0  0  0  0  0  0  0
   61.6840   31.2160   47.5800 C   0  0  0  0  0  0  0  0  0  0  0  0
   61.1260   29.6880   47.1740 S   0  0  0  0  0  0  0  0  0  0  0  0
   58.9408   27.2811   45.7454 H   0  0  0  0  0  0  0  0  0  0  0  0
   59.5207   24.8575   45.8695 H   0  0  0  0  0  0  0  0  0  0  0  0
   57.7100   23.1416   45.9864 H   0  0  0  0  0  0  0  0  0  0  0  0
   55.3169   23.8518   46.0094 H   0  0  0  0  0  0  0  0  0  0  0  0
   58.2310   28.4800   47.7210 H   0  0  0  0  0  0  0  0  0  0  0  0
   58.4184   32.0001   47.7305 H   0  0  0  0  0  0  0  0  0  0  0  0
   56.9135   33.6065   47.8112 H   0  0  0  0  0  0  0  0  0  0  0  0
   55.8333   33.1724   45.6017 H   0  0  0  0  0  0  0  0  0  0  0  0
   57.0847   33.6263   43.4874 H   0  0  0  0  0  0  0  0  0  0  0  0
   59.4054   34.5470   43.5808 H   0  0  0  0  0  0  0  0  0  0  0  0
   60.4890   34.9777   45.7897 H   0  0  0  0  0  0  0  0  0  0  0  0
   62.4673   34.8494   48.5636 H   0  0  0  0  0  0  0  0  0  0  0  0
   64.3133   33.2084   48.1454 H   0  0  0  0  0  0  0  0  0  0  0  0
  1  2  2  0
  2  3  1  0
  3  4  1  0
  4  5  2  0
  5  6  1  0
  6  7  2  0
  7  8  1  0
  8  9  2  0
  9 10  1  0
  2 11  1  0
 11 12  1  0
 12 13  2  0
 13 14  1  0
 14 15  2  0
 15 16  1  0
 16 17  1  0
 17 18  2  0
 18 19  1  0
 19 20  2  0
 20 21  1  0
 21 22  2  0
 15 23  1  0
 23 24  2  0
 24 25  1  0
 25 26  2  0
 26 27  1  0
  9  4  1  0
 27 12  1  0
 26 14  1  0
 22 17  1  0
  5 28  1  0
  6 29  1  0
  7 30  1  0
  8 31  1  0
 11 32  1  0
 13 33  1  0
 18 34  1  0
 19 35  1  0
 20 36  1  0
 21 37  1  0
 22 38  1  0
 23 39  1  0
 24 40  1  0
M  CHG  2   3  -1  10  -1
M  END
>  <UniqueID>  (18) 
17

>  <SMILES>  (18) 
O=C([N-]c1ccccc1[O-])Nc1cc2c(Sc3ccccc3)ccnc2s1

>  <Energy>  (18) 
80.20127725787431

>  <Genealogy>  (18) 
O=C([N-]c1ccccc1[O-])Nc1cc2c(Sc3ccccc3)ccnc2s1 (protonated)
O=C([N-]c1ccccc1[O-])Nc1cc2c(Sc3ccccc3)ccnc2s1 (3D coordinates assigned)
O=C([N-]c1ccccc1[O-])Nc1cc2c(Sc3ccccc3)ccnc2s1 (optimized conformer: 80.20127725787431 kcal/mol)

>  <smiles>  (18) 
O=C(Nc1cc2c(Sc3ccccc3)ccnc2s1)Nc1ccccc1O

>  <score_type>  (18) 
oracle

>  <origin>  (18) 
adg

>  <m_score__min__energy>  (18) 
-14.630000000000001

>  <m_primary>  (18) 
energy

$$$$
18:0
     RDKit          3D

 38 40  0  0  0  0  0  0  0  0999 V2000
   54.9480   27.0840   46.5840 H   0  0  0  0  0  0  0  0  0  0  0  0
   54.6470   26.2870   45.9810 N   0  0  0  0  0  0  0  0  0  0  0  0
   55.5590   25.2490   45.6310 C   0  0  0  0  0  0  0  0  0  0  0  0
   55.1640   24.2700   44.9430 O   0  0  0  0  0  0  0  0  0  0  0  0
   56.9650   25.2960   46.1270 C   0  0  0  0  0  0  0  0  0  0  0  0
   57.1667   24.4084   46.7447 H   0  0  0  0  0  0  0  0  0  0  0  0
   57.6572   25.3100   45.2722 H   0  0  0  0  0  0  0  0  0  0  0  0
   57.1530   26.5000   46.9280 N   0  0  0  0  0  0  0  0  0  0  0  0
   58.3120   26.9870   47.2640 C   0  0  0  0  0  0  0  0  0  0  0  0
   59.0570   26.3750   48.2300 N   0  0  0  0  0  0  0  0  0  0  0  0
   60.2510   26.8690   48.6470 C   0  0  0  0  0  0  0  0  0  0  0  0
   60.9510   26.2200   49.6090 F   0  0  0  0  0  0  0  0  0  0  0  0
   60.7490   28.0470   48.0940 C   0  0  0  0  0  0  0  0  0  0  0  0
   61.7104   28.4579   48.4359 H   0  0  0  0  0  0  0  0  0  0  0  0
   60.0170   28.7000   47.1030 C   0  0  0  0  0  0  0  0  0  0  0  0
   60.3989   29.6353   46.6678 H   0  0  0  0  0  0  0  0  0  0  0  0
   58.7940   28.1700   46.6570 C   0  0  0  0  0  0  0  0  0  0  0  0
   58.0450   28.8900   45.5970 C   0  0  0  0  0  0  0  0  0  0  0  0
   57.7590   30.2100   45.7670 N   0  0  0  0  0  0  0  0  0  0  0  0
   57.0810   30.9390   44.8350 C   0  0  0  0  0  0  0  0  0  0  0  0
   56.8360   32.2040   45.0190 N   0  0  0  0  0  0  0  0  0  0  0  0
   57.7880   33.1880   45.4560 C   0  0  0  0  0  0  0  0  0  0  0  0
   57.8570   33.6050   46.8010 C   0  0  0  0  0  0  0  0  0  0  0  0
   57.0010   33.1080   47.7290 F   0  0  0  0  0  0  0  0  0  0  0  0
   58.7830   34.5800   47.1850 C   0  0  0  0  0  0  0  0  0  0  0  0
   58.8459   34.8918   48.2380 H   0  0  0  0  0  0  0  0  0  0  0  0
   59.6280   35.1590   46.2360 C   0  0  0  0  0  0  0  0  0  0  0  0
   60.3632   35.9170   46.5441 H   0  0  0  0  0  0  0  0  0  0  0  0
   59.5400   34.7760   44.8960 C   0  0  0  0  0  0  0  0  0  0  0  0
   60.1973   35.2423   44.1473 H   0  0  0  0  0  0  0  0  0  0  0  0
   58.6170   33.8000   44.5040 C   0  0  0  0  0  0  0  0  0  0  0  0
   58.5400   33.4380   43.1990 F   0  0  0  0  0  0  0  0  0  0  0  0
   56.6810   30.3280   43.6420 C   0  0  0  0  0  0  0  0  0  0  0  0
   56.1395   30.9047   42.8776 H   0  0  0  0  0  0  0  0  0  0  0  0
   56.9750   28.9800   43.4300 C   0  0  0  0  0  0  0  0  0  0  0  0
   56.6645   28.4894   42.4957 H   0  0  0  0  0  0  0  0  0  0  0  0
   57.6630   28.2550   44.4040 C   0  0  0  0  0  0  0  0  0  0  0  0
   57.9042   27.1946   44.2386 H   0  0  0  0  0  0  0  0  0  0  0  0
  1  2  1  0
  2  3  1  0
  3  4  2  0
  3  5  1  0
  5  6  1  0
  5  7  1  0
  5  8  1  0
  8  9  2  0
  9 10  1  0
 10 11  1  0
 11 12  1  0
 11 13  2  0
 13 14  1  0
 13 15  1  0
 15 16  1  0
 15 17  2  0
 17 18  1  0
 18 19  1  0
 19 20  1  0
 20 21  2  0
 21 22  1  0
 22 23  2  0
 23 24  1  0
 23 25  1  0
 25 26  1  0
 25 27  2  0
 27 28  1  0
 27 29  1  0
 29 30  1  0
 29 31  2  0
 31 32  1  0
 20 33  1  0
 33 34  1  0
 33 35  2  0
 35 36  1  0
 35 37  1  0
 37 38  1  0
 17  9  1  0
 37 18  2  0
 31 22  1  0
M  CHG  3   2  -1  10  -1  19  -1
M  END
>  <UniqueID>  (19) 
18

>  <SMILES>  (19) 
[NH-]C(=O)C/N=c1\[n-]c(F)ccc1-c1ccc/c(=N/c2c(F)cccc2F)[n-]1

>  <Energy>  (19) 
52.806730153246676

>  <Genealogy>  (19) 
[NH-]C(=O)CN=c1[n-]c(F)ccc1-c1cccc(=Nc2c(F)cccc2F)[n-]1 (protonated)
[NH-]C(=O)C/N=c1\[n-]c(F)ccc1-c1ccc/c(=N/c2c(F)cccc2F)[n-]1 (cis-trans isomerization)
[NH-]C(=O)C/N=c1\[n-]c(F)ccc1-c1ccc/c(=N/c2c(F)cccc2F)[n-]1 (3D coordinates assigned)
[NH-]C(=O)C/N=c1\[n-]c(F)ccc1-c1ccc/c(=N/c2c(F)cccc2F)[n-]1 (optimized conformer: 52.806730153246676 kcal/mol)

>  <smiles>  (19) 
NC(=O)CN=c1[nH]c(F)ccc1-c1cccc(=Nc2c(F)cccc2F)[nH]1

>  <score_type>  (19) 
oracle

>  <origin>  (19) 
adg

>  <m_score__min__energy>  (19) 
-13.640000000000001

>  <m_primary>  (19) 
energy

$$$$
19:0
     RDKit          3D

 41 43  0  0  0  0  0  0  0  0999 V2000
   57.7480   32.7140   42.5840 O   0  0  0  0  0  0  0  0  0  0  0  0
   57.5820   32.3340   43.7730 C   0  0  0  0  0  0  0  0  0  0  0  0
   57.3400   33.3250   44.7810 N   0  0  0  0  0  0  0  0  0  0  0  0
   58.1770   33.6090   45.9120 C   0  0  0  0  0  0  0  0  0  0  0  0
   59.1140   34.6450   45.8180 C   0  0  0  0  0  0  0  0  0  0  0  0
   59.9350   34.9560   46.9070 C   0  0  0  0  0  0  0  0  0  0  0  0
   59.8140   34.2420   48.1020 C   0  0  0  0  0  0  0  0  0  0  0  0
   58.8650   33.2210   48.2120 C   0  0  0  0  0  0  0  0  0  0  0  0
   58.7360   32.5390   49.3770 F   0  0  0  0  0  0  0  0  0  0  0  0
   58.0410   32.9090   47.1260 C   0  0  0  0  0  0  0  0  0  0  0  0
   57.6990   30.8920   44.0990 C   0  0  0  0  0  0  0  0  0  0  0  0
   56.5410   30.1140   44.2710 C   0  0  0  0  0  0  0  0  0  0  0  0
   56.6410   28.7540   44.5720 C   0  0  0  0  0  0  0  0  0  0  0  0
   57.8990   28.1450   44.6920 C   0  0  0  0  0  0  0  0  0  0  0  0
   58.0000   26.6740   45.0010 C   0  0  0  0  0  0  0  0  0  0  0  0
   57.5250   26.3810   46.3550 N   0  0  0  0  0  0  0  0  0  0  0  0
   56.0670   25.4290   46.3290 S   0  0  0  0  0  0  0  0  0  0  0  0
   54.8950   26.3120   46.0000 O   0  0  0  0  0  0  0  0  0  0  0  0
   55.8470   24.8380   47.6920 O   0  0  0  0  0  0  0  0  0  0  0  0
   56.1890   24.1160   45.1600 C   0  0  0  0  0  0  0  0  0  0  0  0
   57.4120   23.4640   44.9670 C   0  0  0  0  0  0  0  0  0  0  0  0
   57.5130   22.4370   44.0260 C   0  0  0  0  0  0  0  0  0  0  0  0
   56.3850   22.0740   43.2860 C   0  0  0  0  0  0  0  0  0  0  0  0
   56.4580   21.1520   42.4320 O   0  0  0  0  0  0  0  0  0  0  0  0
   55.2050   22.7200   43.4860 N   0  0  0  0  0  0  0  0  0  0  0  0
   55.0830   23.7220   44.3970 C   0  0  0  0  0  0  0  0  0  0  0  0
   59.0560   28.9170   44.5110 C   0  0  0  0  0  0  0  0  0  0  0  0
   58.9570   30.2770   44.2090 C   0  0  0  0  0  0  0  0  0  0  0  0
   59.2050   35.2173   44.8830 H   0  0  0  0  0  0  0  0  0  0  0  0
   60.6769   35.7638   46.8225 H   0  0  0  0  0  0  0  0  0  0  0  0
   60.4648   34.4829   48.9555 H   0  0  0  0  0  0  0  0  0  0  0  0
   57.2853   32.1153   47.2204 H   0  0  0  0  0  0  0  0  0  0  0  0
   55.5497   30.5794   44.1678 H   0  0  0  0  0  0  0  0  0  0  0  0
   55.7283   28.1570   44.7158 H   0  0  0  0  0  0  0  0  0  0  0  0
   57.3896   26.1132   44.2779 H   0  0  0  0  0  0  0  0  0  0  0  0
   59.0567   26.3764   44.9317 H   0  0  0  0  0  0  0  0  0  0  0  0
   58.2928   23.7600   45.5557 H   0  0  0  0  0  0  0  0  0  0  0  0
   58.4708   21.9193   43.8691 H   0  0  0  0  0  0  0  0  0  0  0  0
   54.1139   24.2239   44.5348 H   0  0  0  0  0  0  0  0  0  0  0  0
   60.0467   28.4488   44.6074 H   0  0  0  0  0  0  0  0  0  0  0  0
   59.8704   30.8705   44.0562 H   0  0  0  0  0  0  0  0  0  0  0  0
  1  2  2  0
  2  3  1  0
  3  4  1  0
  4  5  2  0
  5  6  1  0
  6  7  2  0
  7  8  1  0
  8  9  1  0
  8 10  2  0
  2 11  1  0
 11 12  2  0
 12 13  1  0
 13 14  2  0
 14 15  1  0
 15 16  1  0
 16 17  1  0
 17 18  2  0
 17 19  2  0
 17 20  1  0
 20 21  1  0
 21 22  2  0
 22 23  1  0
 23 24  2  0
 23 25  1  0
 25 26  1  0
 14 27  1  0
 27 28  2  0
 10  4  1  0
 28 11  1  0
 26 20  2  0
  5 29  1  0
  6 30  1  0
  7 31  1  0
 10 32  1  0
 12 33  1  0
 13 34  1  0
 15 35  1  0
 15 36  1  0
 21 37  1  0
 22 38  1  0
 26 39  1  0
 27 40  1  0
 28 41  1  0
M  CHG  3   3  -1  16  -1  25  -1
M  END
>  <UniqueID>  (20) 
19

>  <SMILES>  (20) 
O=C([N-]c1cccc(F)c1)c1ccc(C[N-]S(=O)(=O)c2ccc(=O)[n-]c2)cc1

>  <Energy>  (20) 
50.20275372033093

>  <Genealogy>  (20) 
O=C([N-]c1cccc(F)c1)c1ccc(C[N-]S(=O)(=O)c2ccc(=O)[n-]c2)cc1 (protonated)
O=C([N-]c1cccc(F)c1)c1ccc(C[N-]S(=O)(=O)c2ccc(=O)[n-]c2)cc1 (3D coordinates assigned)
O=C([N-]c1cccc(F)c1)c1ccc(C[N-]S(=O)(=O)c2ccc(=O)[n-]c2)cc1 (optimized conformer: 50.20275372033093 kcal/mol)

>  <smiles>  (20) 
O=C(Nc1cccc(F)c1)c1ccc(CNS(=O)(=O)c2ccc(=O)[nH]c2)cc1

>  <score_type>  (20) 
oracle

>  <origin>  (20) 
adg

>  <m_score__min__energy>  (20) 
-13.34

>  <m_primary>  (20) 
energy

$$$$
20:0
     RDKit          3D

 44 47  0  0  0  0  0  0  0  0999 V2000
   55.1480   29.2680   44.7960 O   0  0  0  0  0  0  0  0  0  0  0  0
   56.3170   29.7260   44.8730 C   0  0  0  0  0  0  0  0  0  0  0  0
   57.3720   28.8990   45.2620 C   0  0  0  0  0  0  0  0  0  0  0  0
   58.6590   29.4480   45.3340 C   0  0  0  0  0  0  0  0  0  0  0  0
   59.8390   28.5880   45.6700 C   0  0  0  0  0  0  0  0  0  0  0  0
   60.2020   28.7580   47.1200 C   0  0  0  0  0  0  0  0  0  0  0  0
   60.0410   27.6930   48.0230 C   0  0  0  0  0  0  0  0  0  0  0  0
   60.4230   27.8400   49.3610 C   0  0  0  0  0  0  0  0  0  0  0  0
   60.9780   29.0440   49.8020 C   0  0  0  0  0  0  0  0  0  0  0  0
   61.1520   30.1040   48.9070 C   0  0  0  0  0  0  0  0  0  0  0  0
   60.7670   29.9620   47.5700 C   0  0  0  0  0  0  0  0  0  0  0  0
   58.8500   30.7550   45.0110 N   0  0  0  0  0  0  0  0  0  0  0  0
   57.8110   31.5430   44.6320 C   0  0  0  0  0  0  0  0  0  0  0  0
   58.1050   33.2420   44.1470 S   0  0  0  0  0  0  0  0  0  0  0  0
   57.4770   33.9640   45.7060 C   0  0  0  0  0  0  0  0  0  0  0  0
   58.4510   33.7560   46.8260 C   0  0  0  0  0  0  0  0  0  0  0  0
   58.0400   33.1210   47.9560 N   0  0  0  0  0  0  0  0  0  0  0  0
   58.8970   32.8440   48.9740 C   0  0  0  0  0  0  0  0  0  0  0  0
   58.4090   32.1160   50.1700 C   0  0  0  0  0  0  0  0  0  0  0  0
   58.1550   30.7350   50.1270 C   0  0  0  0  0  0  0  0  0  0  0  0
   57.7200   30.0980   51.2470 N   0  0  0  0  0  0  0  0  0  0  0  0
   57.5240   30.7700   52.4100 C   0  0  0  0  0  0  0  0  0  0  0  0
   57.7740   32.1410   52.4600 C   0  0  0  0  0  0  0  0  0  0  0  0
   58.2100   32.7810   51.3430 N   0  0  0  0  0  0  0  0  0  0  0  0
   60.2380   33.2340   48.8550 C   0  0  0  0  0  0  0  0  0  0  0  0
   60.6470   33.8820   47.6890 C   0  0  0  0  0  0  0  0  0  0  0  0
   59.7550   34.1250   46.6940 N   0  0  0  0  0  0  0  0  0  0  0  0
   56.5550   31.0280   44.5660 N   0  0  0  0  0  0  0  0  0  0  0  0
   57.1970   27.8408   45.5063 H   0  0  0  0  0  0  0  0  0  0  0  0
   59.5884   27.5342   45.4781 H   0  0  0  0  0  0  0  0  0  0  0  0
   60.6939   28.8873   45.0458 H   0  0  0  0  0  0  0  0  0  0  0  0
   59.6132   26.7406   47.6766 H   0  0  0  0  0  0  0  0  0  0  0  0
   60.2863   27.0070   50.0663 H   0  0  0  0  0  0  0  0  0  0  0  0
   61.2783   29.1580   50.8541 H   0  0  0  0  0  0  0  0  0  0  0  0
   61.5920   31.0503   49.2547 H   0  0  0  0  0  0  0  0  0  0  0  0
   60.9074   30.7971   46.8680 H   0  0  0  0  0  0  0  0  0  0  0  0
   57.3176   35.0431   45.5639 H   0  0  0  0  0  0  0  0  0  0  0  0
   56.5319   33.4654   45.9669 H   0  0  0  0  0  0  0  0  0  0  0  0
   58.3069   30.1728   49.1938 H   0  0  0  0  0  0  0  0  0  0  0  0
   57.1709   30.2376   53.3055 H   0  0  0  0  0  0  0  0  0  0  0  0
   57.6197   32.6995   53.3950 H   0  0  0  0  0  0  0  0  0  0  0  0
   60.9542   33.0331   49.6653 H   0  0  0  0  0  0  0  0  0  0  0  0
   61.6948   34.1969   47.5753 H   0  0  0  0  0  0  0  0  0  0  0  0
   60.0820   34.5950   45.8200 H   0  0  0  0  0  0  0  0  0  0  0  0
  1  2  2  0
  2  3  1  0
  3  4  2  0
  4  5  1  0
  5  6  1  0
  6  7  2  0
  7  8  1  0
  8  9  2  0
  9 10  1  0
 10 11  2  0
  4 12  1  0
 12 13  2  0
 13 14  1  0
 14 15  1  0
 15 16  1  0
 16 17  2  0
 17 18  1  0
 18 19  1  0
 19 20  2  0
 20 21  1  0
 21 22  2  0
 22 23  1  0
 23 24  2  0
 18 25  2  0
 25 26  1  0
 26 27  2  0
 13 28  1  0
 28  2  1  0
 11  6  1  0
 27 16  1  0
 24 19  1  0
  3 29  1  0
  5 30  1  0
  5 31  1  0
  7 32  1  0
  8 33  1  0
  9 34  1  0
 10 35  1  0
 11 36  1  0
 15 37  1  0
 15 38  1  0
 20 39  1  0
 22 40  1  0
 23 41  1  0
 25 42  1  0
 26 43  1  0
 27 44  1  0
M  CHG  2  27   1  28  -1
M  END
>  <UniqueID>  (21) 
20

>  <SMILES>  (21) 
O=c1cc(Cc2ccccc2)nc(SCc2nc(-c3cnccn3)cc[nH+]2)[n-]1

>  <Energy>  (21) 
42.197360569346785

>  <Genealogy>  (21) 
O=c1cc(Cc2ccccc2)nc(SCc2nc(-c3cnccn3)cc[nH+]2)[n-]1 (protonated)
O=c1cc(Cc2ccccc2)nc(SCc2nc(-c3cnccn3)cc[nH+]2)[n-]1 (3D coordinates assigned)
O=c1cc(Cc2ccccc2)nc(SCc2nc(-c3cnccn3)cc[nH+]2)[n-]1 (optimized conformer: 42.197360569346785 kcal/mol)

>  <smiles>  (21) 
O=c1cc(Cc2ccccc2)nc(SCc2nccc(-c3cnccn3)n2)[nH]1

>  <score_type>  (21) 
oracle

>  <origin>  (21) 
adg

>  <m_score__min__energy>  (21) 
-8.2599999999999998

>  <m_primary>  (21) 
energy

$$$$
21:0
     RDKit          3D

 32 34  0  0  0  0  0  0  0  0999 V2000
   55.8204   30.7484   44.4985 H   0  0  0  0  0  0  0  0  0  0  0  0
   56.1460   29.7010   44.5820 C   0  0  0  0  0  0  0  0  0  0  0  0
   55.4329   28.8862   44.3878 H   0  0  0  0  0  0  0  0  0  0  0  0
   57.4140   29.4170   44.9210 C   0  0  0  0  0  0  0  0  0  0  0  0
   57.9870   28.1430   45.0700 C   0  0  0  0  0  0  0  0  0  0  0  0
   57.5380   26.9250   44.7150 C   0  0  0  0  0  0  0  0  0  0  0  0
   57.5214   26.6877   43.6410 H   0  0  0  0  0  0  0  0  0  0  0  0
   57.0670   25.8830   45.6430 C   0  0  0  0  0  0  0  0  0  0  0  0
   57.8420   24.9130   46.1640 N   0  0  0  0  0  0  0  0  0  0  0  0
   57.0230   24.3010   47.0460 C   0  0  0  0  0  0  0  0  0  0  0  0
   57.3860   23.3120   47.7360 O   0  0  0  0  0  0  0  0  0  0  0  0
   55.7860   24.8350   47.1370 N   0  0  0  0  0  0  0  0  0  0  0  0
   55.8380   25.8450   46.2530 C   0  0  0  0  0  0  0  0  0  0  0  0
   54.7840   26.7160   46.0130 O   0  0  0  0  0  0  0  0  0  0  0  0
   59.2150   28.3410   45.6840 C   0  0  0  0  0  0  0  0  0  0  0  0
   59.9202   27.5607   46.0062 H   0  0  0  0  0  0  0  0  0  0  0  0
   59.3820   29.7040   45.8130 C   0  0  0  0  0  0  0  0  0  0  0  0
   60.5750   30.3630   46.4350 C   0  0  0  0  0  0  0  0  0  0  0  0
   60.4901   30.3161   47.5307 H   0  0  0  0  0  0  0  0  0  0  0  0
   61.4897   29.8422   46.1155 H   0  0  0  0  0  0  0  0  0  0  0  0
   60.6212   31.4146   46.1155 H   0  0  0  0  0  0  0  0  0  0  0  0
   58.2950   30.3570   45.3470 N   0  0  0  0  0  0  0  0  0  0  0  0
   58.0920   31.7800   45.3930 C   0  0  0  0  0  0  0  0  0  0  0  0
   57.8360   32.5150   44.2210 C   0  0  0  0  0  0  0  0  0  0  0  0
   57.7850   31.7320   42.6500 Cl  0  0  0  0  0  0  0  0  0  0  0  0
   57.6450   33.8590   44.2930 N   0  0  0  0  0  0  0  0  0  0  0  0
   57.6950   34.5300   45.4740 C   0  0  0  0  0  0  0  0  0  0  0  0
   57.5337   35.6179   45.4954 H   0  0  0  0  0  0  0  0  0  0  0  0
   57.9510   33.8390   46.6600 C   0  0  0  0  0  0  0  0  0  0  0  0
   57.9936   34.3768   47.6186 H   0  0  0  0  0  0  0  0  0  0  0  0
   58.1520   32.4600   46.6160 C   0  0  0  0  0  0  0  0  0  0  0  0
   58.3580   31.9052   47.5432 H   0  0  0  0  0  0  0  0  0  0  0  0
  1  2  1  0
  2  3  1  0
  2  4  2  0
  4  5  1  0
  5  6  2  0
  6  7  1  0
  6  8  1  0
  8  9  1  0
  9 10  1  0
 10 11  2  0
 10 12  1  0
 12 13  1  0
 13 14  1  0
  5 15  1  0
 15 16  1  0
 15 17  2  0
 17 18  1  0
 18 19  1  0
 18 20  1  0
 18 21  1  0
 17 22  1  0
 22 23  1  0
 23 24  2  0
 24 25  1  0
 24 26  1  0
 26 27  2  0
 27 28  1  0
 27 29  1  0
 29 30  1  0
 29 31  2  0
 31 32  1  0
 22  4  1  0
 31 23  1  0
 13  8  2  0
M  CHG  3   9  -1  12  -1  14  -1
M  END
>  <UniqueID>  (22) 
21

>  <SMILES>  (22) 
C=c1/c(=C\c2[n-]c(=O)[n-]c2[O-])cc(C)n1-c1cccnc1Cl

>  <Energy>  (22) 
110.21856494642985

>  <Genealogy>  (22) 
C=c1c(=Cc2[n-]c(=O)[n-]c2[O-])cc(C)n1-c1cccnc1Cl (protonated)
C=c1/c(=C\c2[n-]c(=O)[n-]c2[O-])cc(C)n1-c1cccnc1Cl (cis-trans isomerization)
C=c1/c(=C\c2[n-]c(=O)[n-]c2[O-])cc(C)n1-c1cccnc1Cl (3D coordinates assigned)
C=c1/c(=C\c2[n-]c(=O)[n-]c2[O-])cc(C)n1-c1cccnc1Cl (optimized conformer: 110.21856494642985 kcal/mol)

>  <smiles>  (22) 
C=c1c(=Cc2[nH]c(=O)[nH]c2O)cc(C)n1-c1cccnc1Cl

>  <score_type>  (22) 
oracle

>  <origin>  (22) 
adg

>  <m_score__min__energy>  (22) 
-15.16

>  <m_primary>  (22) 
energy

$$$$
22:0
     RDKit          3D

 58 60  0  0  0  0  0  0  0  0999 V2000
   51.6760   23.5110   45.1430 C   0  0  0  0  0  0  0  0  0  0  0  0
   52.8460   22.7070   45.2410 O   0  0  0  0  0  0  0  0  0  0  0  0
   54.1510   23.2120   45.3200 C   0  0  0  0  0  0  0  0  0  0  0  0
   54.8140   23.4090   46.5470 C   0  0  0  0  0  0  0  0  0  0  0  0
   56.1050   23.9430   46.5730 C   0  0  0  0  0  0  0  0  0  0  0  0
   56.7430   24.2980   45.3790 C   0  0  0  0  0  0  0  0  0  0  0  0
   58.3660   25.0700   45.4200 S   0  0  0  0  0  0  0  0  0  0  0  0
   57.9410   26.2820   46.7180 C   0  0  0  0  0  0  0  0  0  0  0  0
   56.8850   27.2410   46.2470 C   0  0  0  0  0  0  0  0  0  0  0  0
   55.7110   26.8190   46.0650 O   0  0  0  0  0  0  0  0  0  0  0  0
   57.1950   28.6690   45.9850 C   0  0  0  0  0  0  0  0  0  0  0  0
   56.3380   29.4690   45.2000 C   0  0  0  0  0  0  0  0  0  0  0  0
   55.1470   28.9610   44.6960 O   0  0  0  0  0  0  0  0  0  0  0  0
   56.6520   30.7670   44.9510 N   0  0  0  0  0  0  0  0  0  0  0  0
   57.7780   31.3430   45.4410 C   0  0  0  0  0  0  0  0  0  0  0  0
   58.6600   30.6050   46.2370 C   0  0  0  0  0  0  0  0  0  0  0  0
   59.8760   31.2570   46.7760 C   0  0  0  0  0  0  0  0  0  0  0  0
   61.1020   30.5830   46.6520 C   0  0  0  0  0  0  0  0  0  0  0  0
   62.2810   31.1600   47.1280 C   0  0  0  0  0  0  0  0  0  0  0  0
   62.2500   32.4130   47.7370 C   0  0  0  0  0  0  0  0  0  0  0  0
   61.0390   33.0900   47.8810 C   0  0  0  0  0  0  0  0  0  0  0  0
   59.8400   32.5250   47.4160 C   0  0  0  0  0  0  0  0  0  0  0  0
   58.5580   33.2940   47.6390 C   0  0  0  0  0  0  0  0  0  0  0  0
   57.7950   32.7050   48.6900 O   0  0  0  0  0  0  0  0  0  0  0  0
   58.3740   32.0380   49.7750 C   0  0  0  0  0  0  0  0  0  0  0  0
   58.4860   32.6130   50.8930 O   0  0  0  0  0  0  0  0  0  0  0  0
   58.8370   30.6940   49.6030 N   0  0  0  0  0  0  0  0  0  0  0  0
   59.4480   29.9270   50.6940 C   0  0  0  0  0  0  0  0  0  0  0  0
   58.3950   29.5790   51.7500 C   0  0  0  0  0  0  0  0  0  0  0  0
   60.0950   28.6520   50.1430 C   0  0  0  0  0  0  0  0  0  0  0  0
   58.3550   29.2620   46.5270 C   0  0  0  0  0  0  0  0  0  0  0  0
   59.1270   28.5870   47.2640 O   0  0  0  0  0  0  0  0  0  0  0  0
   56.0920   24.0970   44.1570 C   0  0  0  0  0  0  0  0  0  0  0  0
   54.8090   23.5440   44.1300 C   0  0  0  0  0  0  0  0  0  0  0  0
   51.3157   23.7586   46.1524 H   0  0  0  0  0  0  0  0  0  0  0  0
   51.9126   24.4382   44.6004 H   0  0  0  0  0  0  0  0  0  0  0  0
   50.8953   22.9577   44.6004 H   0  0  0  0  0  0  0  0  0  0  0  0
   54.3132   23.1413   47.4891 H   0  0  0  0  0  0  0  0  0  0  0  0
   56.6210   24.0847   47.5341 H   0  0  0  0  0  0  0  0  0  0  0  0
   57.5675   25.7440   47.6017 H   0  0  0  0  0  0  0  0  0  0  0  0
   58.8458   26.8568   46.9649 H   0  0  0  0  0  0  0  0  0  0  0  0
   57.9986   32.3959   45.2112 H   0  0  0  0  0  0  0  0  0  0  0  0
   61.1336   29.5920   46.1757 H   0  0  0  0  0  0  0  0  0  0  0  0
   63.2360   30.6245   47.0221 H   0  0  0  0  0  0  0  0  0  0  0  0
   63.1813   32.8686   48.1045 H   0  0  0  0  0  0  0  0  0  0  0  0
   61.0227   34.0780   48.3644 H   0  0  0  0  0  0  0  0  0  0  0  0
   58.8016   34.3325   47.9075 H   0  0  0  0  0  0  0  0  0  0  0  0
   57.9643   33.2692   46.7133 H   0  0  0  0  0  0  0  0  0  0  0  0
   58.6920   30.2470   48.6690 H   0  0  0  0  0  0  0  0  0  0  0  0
   60.2283   30.5409   51.1675 H   0  0  0  0  0  0  0  0  0  0  0  0
   58.8219   29.7201   52.7539 H   0  0  0  0  0  0  0  0  0  0  0  0
   57.5215   30.2363   51.6273 H   0  0  0  0  0  0  0  0  0  0  0  0
   58.0852   28.5307   51.6273 H   0  0  0  0  0  0  0  0  0  0  0  0
   60.4186   28.0143   50.9789 H   0  0  0  0  0  0  0  0  0  0  0  0
   59.3645   28.1067   49.5273 H   0  0  0  0  0  0  0  0  0  0  0  0
   60.9664   28.9196   49.5273 H   0  0  0  0  0  0  0  0  0  0  0  0
   56.5906   24.3746   43.2166 H   0  0  0  0  0  0  0  0  0  0  0  0
   54.3116   23.3680   43.1648 H   0  0  0  0  0  0  0  0  0  0  0  0
  1  2  1  0
  2  3  1  0
  3  4  2  0
  4  5  1  0
  5  6  2  0
  6  7  1  0
  7  8  1  0
  8  9  1  0
  9 10  2  0
  9 11  1  0
 11 12  2  0
 12 13  1  0
 12 14  1  0
 14 15  1  0
 15 16  2  0
 16 17  1  0
 17 18  2  0
 18 19  1  0
 19 20  2  0
 20 21  1  0
 21 22  2  0
 22 23  1  0
 23 24  1  0
 24 25  1  0
 25 26  2  0
 25 27  1  0
 27 28  1  0
 28 29  1  0
 28 30  1  0
 16 31  1  0
 31 32  2  0
  6 33  1  0
 33 34  2  0
 34  3  1  0
 31 11  1  0
 22 17  1  0
  1 35  1  0
  1 36  1  0
  1 37  1  0
  4 38  1  0
  5 39  1  0
  8 40  1  0
  8 41  1  0
 15 42  1  0
 18 43  1  0
 19 44  1  0
 20 45  1  0
 21 46  1  0
 23 47  1  0
 23 48  1  0
 27 49  1  0
 28 50  1  0
 29 51  1  0
 29 52  1  0
 29 53  1  0
 30 54  1  0
 30 55  1  0
 30 56  1  0
 33 57  1  0
 34 58  1  0
M  CHG  2  13  -1  14  -1
M  END
>  <UniqueID>  (23) 
22

>  <SMILES>  (23) 
COc1ccc(SCC(=O)c2c([O-])[n-]cc(-c3ccccc3COC(=O)NC(C)C)c2=O)cc1

>  <Energy>  (23) 
59.61653819537096

>  <Genealogy>  (23) 
COc1ccc(SCC(=O)c2c([O-])[n-]cc(-c3ccccc3COC(=O)NC(C)C)c2=O)cc1 (protonated)
COc1ccc(SCC(=O)c2c([O-])[n-]cc(-c3ccccc3COC(=O)NC(C)C)c2=O)cc1 (3D coordinates assigned)
COc1ccc(SCC(=O)c2c([O-])[n-]cc(-c3ccccc3COC(=O)NC(C)C)c2=O)cc1 (optimized conformer: 59.61653819537096 kcal/mol)

>  <smiles>  (23) 
COc1ccc(SCC(=O)c2c(O)[nH]cc(-c3ccccc3COC(=O)NC(C)C)c2=O)cc1

>  <score_type>  (23) 
oracle

>  <origin>  (23) 
adg

>  <m_score__min__energy>  (23) 
-13.199999999999999

>  <m_primary>  (23) 
energy

$$$$
23:0
     RDKit          3D

 50 51  0  0  0  0  0  0  0  0999 V2000
   64.9555   33.2124   47.9719 H   0  0  0  0  0  0  0  0  0  0  0  0
   63.8890   33.4810   47.9540 C   0  0  0  0  0  0  0  0  0  0  0  0
   63.1850   33.4650   46.7470 C   0  0  0  0  0  0  0  0  0  0  0  0
   63.6968   33.1801   45.8159 H   0  0  0  0  0  0  0  0  0  0  0  0
   61.8300   33.8110   46.7220 C   0  0  0  0  0  0  0  0  0  0  0  0
   61.2772   33.7896   45.7712 H   0  0  0  0  0  0  0  0  0  0  0  0
   61.1710   34.1860   47.9060 C   0  0  0  0  0  0  0  0  0  0  0  0
   59.7180   34.5910   47.8840 C   0  0  0  0  0  0  0  0  0  0  0  0
   59.5310   35.2147   46.9974 H   0  0  0  0  0  0  0  0  0  0  0  0
   59.4954   35.1538   48.8025 H   0  0  0  0  0  0  0  0  0  0  0  0
   58.8170   33.3690   47.8320 C   0  0  0  0  0  0  0  0  0  0  0  0
   58.5250   32.6830   48.9030 N   0  0  0  0  0  0  0  0  0  0  0  0
   59.4480   32.0590   49.8070 C   0  0  0  0  0  0  0  0  0  0  0  0
   59.6880   32.5910   50.9260 O   0  0  0  0  0  0  0  0  0  0  0  0
   60.0290   30.7000   49.4630 C   0  0  0  0  0  0  0  0  0  0  0  0
   58.9060   29.6810   49.1720 C   0  0  0  0  0  0  0  0  0  0  0  0
   58.4946   29.3077   50.1214 H   0  0  0  0  0  0  0  0  0  0  0  0
   58.1082   30.1698   48.5936 H   0  0  0  0  0  0  0  0  0  0  0  0
   59.3152   28.8396   48.5936 H   0  0  0  0  0  0  0  0  0  0  0  0
   60.8680   30.1830   50.6490 C   0  0  0  0  0  0  0  0  0  0  0  0
   60.3884   30.4785   51.5938 H   0  0  0  0  0  0  0  0  0  0  0  0
   60.9359   29.0862   50.5996 H   0  0  0  0  0  0  0  0  0  0  0  0
   61.8782   30.6155   50.5996 H   0  0  0  0  0  0  0  0  0  0  0  0
   60.9240   30.8420   48.2210 C   0  0  0  0  0  0  0  0  0  0  0  0
   61.9649   31.0071   48.5361 H   0  0  0  0  0  0  0  0  0  0  0  0
   60.8645   29.9232   47.6192 H   0  0  0  0  0  0  0  0  0  0  0  0
   60.5830   31.6973   47.6192 H   0  0  0  0  0  0  0  0  0  0  0  0
   58.3920   32.8260   46.5200 C   0  0  0  0  0  0  0  0  0  0  0  0
   58.1630   31.4500   46.3690 C   0  0  0  0  0  0  0  0  0  0  0  0
   58.3026   30.7764   47.2274 H   0  0  0  0  0  0  0  0  0  0  0  0
   57.7590   30.9280   45.1370 C   0  0  0  0  0  0  0  0  0  0  0  0
   57.5901   29.8458   45.0356 H   0  0  0  0  0  0  0  0  0  0  0  0
   57.5650   31.7690   44.0230 C   0  0  0  0  0  0  0  0  0  0  0  0
   57.1450   31.2270   42.7420 N   0  0  0  0  0  0  0  0  0  0  0  0
   57.3730   31.9810   41.5030 C   0  0  0  0  0  0  0  0  0  0  0  0
   57.6833   33.0070   41.7500 H   0  0  0  0  0  0  0  0  0  0  0  0
   58.1630   31.4905   40.9154 H   0  0  0  0  0  0  0  0  0  0  0  0
   56.4436   32.0104   40.9154 H   0  0  0  0  0  0  0  0  0  0  0  0
   56.4850   29.9180   42.6650 C   0  0  0  0  0  0  0  0  0  0  0  0
   56.2957   29.5425   43.6814 H   0  0  0  0  0  0  0  0  0  0  0  0
   55.5304   30.0197   42.1279 H   0  0  0  0  0  0  0  0  0  0  0  0
   57.1344   29.2110   42.1279 H   0  0  0  0  0  0  0  0  0  0  0  0
   57.7850   33.1530   44.1880 C   0  0  0  0  0  0  0  0  0  0  0  0
   57.6349   33.8317   43.3355 H   0  0  0  0  0  0  0  0  0  0  0  0
   58.1910   33.6730   45.4200 C   0  0  0  0  0  0  0  0  0  0  0  0
   58.3543   34.7554   45.5280 H   0  0  0  0  0  0  0  0  0  0  0  0
   61.8860   34.1860   49.1170 C   0  0  0  0  0  0  0  0  0  0  0  0
   61.3774   34.4614   50.0526 H   0  0  0  0  0  0  0  0  0  0  0  0
   63.2390   33.8380   49.1380 C   0  0  0  0  0  0  0  0  0  0  0  0
   63.7932   33.8451   50.0881 H   0  0  0  0  0  0  0  0  0  0  0  0
  1  2  1  0
  2  3  2  0
  3  4  1  0
  3  5  1  0
  5  6  1  0
  5  7  2  0
  7  8  1  0
  8  9  1  0
  8 10  1  0
  8 11  1  0
 11 12  2  0
 12 13  1  0
 13 14  2  0
 13 15  1  0
 15 16  1  0
 16 17  1  0
 16 18  1  0
 16 19  1  0
 15 20  1  0
 20 21  1  0
 20 22  1  0
 20 23  1  0
 15 24  1  0
 24 25  1  0
 24 26  1  0
 24 27  1  0
 11 28  1  0
 28 29  2  0
 29 30  1  0
 29 31  1  0
 31 32  1  0
 31 33  2  0
 33 34  1  0
 34 35  1  0
 35 36  1  0
 35 37  1  0
 35 38  1  0
 34 39  1  0
 39 40  1  0
 39 41  1  0
 39 42  1  0
 33 43  1  0
 43 44  1  0
 43 45  2  0
 45 46  1  0
  7 47  1  0
 47 48  1  0
 47 49  2  0
 49 50  1  0
 49  2  1  0
 45 28  1  0
M  END
>  <UniqueID>  (24) 
23

>  <SMILES>  (24) 
CN(C)c1ccc(/C(Cc2ccccc2)=N/C(=O)C(C)(C)C)cc1

>  <Energy>  (24) 
53.47529054052575

>  <Genealogy>  (24) 
CN(C)c1ccc(/C(Cc2ccccc2)=N/C(=O)C(C)(C)C)cc1 (cis-trans isomerization)
CN(C)c1ccc(/C(Cc2ccccc2)=N/C(=O)C(C)(C)C)cc1 (3D coordinates assigned)
CN(C)c1ccc(/C(Cc2ccccc2)=N/C(=O)C(C)(C)C)cc1 (optimized conformer: 53.47529054052575 kcal/mol)

>  <smiles>  (24) 
CN(C)c1ccc(C(Cc2ccccc2)=NC(=O)C(C)(C)C)cc1

>  <score_type>  (24) 
oracle

>  <origin>  (24) 
adg

>  <m_score__min__energy>  (24) 
-7.21

>  <m_primary>  (24) 
energy

$$$$
24:0
     RDKit          3D

 67 71  0  0  0  0  0  0  0  0999 V2000
   65.8270   31.9470   50.2030 C   0  0  0  0  0  0  0  0  0  0  0  0
   65.8950   33.4620   50.4230 C   0  0  0  0  0  0  0  0  0  0  0  0
   65.1000   33.8950   51.5960 N   0  0  0  0  0  0  0  0  0  0  0  0
   63.9140   34.7070   51.2450 C   0  0  0  0  0  0  0  0  0  0  0  0
   62.8390   33.8640   50.5520 C   0  0  0  0  0  0  0  0  0  0  0  0
   62.6340   32.5990   51.2620 N   0  0  0  0  0  0  0  0  0  0  0  0
   61.6120   31.7010   50.8040 C   0  0  0  0  0  0  0  0  0  0  0  0
   60.3300   32.1780   50.5000 C   0  0  0  0  0  0  0  0  0  0  0  0
   59.3520   31.3080   50.0120 C   0  0  0  0  0  0  0  0  0  0  0  0
   59.6440   29.9540   49.8130 C   0  0  0  0  0  0  0  0  0  0  0  0
   58.6350   29.0950   49.2610 N   0  0  0  0  0  0  0  0  0  0  0  0
   58.6540   28.6280   48.0450 C   0  0  0  0  0  0  0  0  0  0  0  0
   57.8200   29.1570   47.1130 N   0  0  0  0  0  0  0  0  0  0  0  0
   57.8060   28.6910   45.8340 C   0  0  0  0  0  0  0  0  0  0  0  0
   56.9210   29.2560   44.9060 O   0  0  0  0  0  0  0  0  0  0  0  0
   57.2220   30.4070   44.1690 C   0  0  0  0  0  0  0  0  0  0  0  0
   56.9580   30.4380   42.7990 C   0  0  0  0  0  0  0  0  0  0  0  0
   57.2240   31.5950   42.0600 C   0  0  0  0  0  0  0  0  0  0  0  0
   57.7870   32.7120   42.6810 C   0  0  0  0  0  0  0  0  0  0  0  0
   58.1120   32.6720   44.0500 C   0  0  0  0  0  0  0  0  0  0  0  0
   58.7680   33.7560   44.7170 N   0  0  0  0  0  0  0  0  0  0  0  0
   59.0650   33.8760   46.4220 S   0  0  0  0  0  0  0  0  0  0  0  0
   57.9470   33.1920   47.1570 O   0  0  0  0  0  0  0  0  0  0  0  0
   59.1000   35.3260   46.8160 O   0  0  0  0  0  0  0  0  0  0  0  0
   60.5770   33.0760   46.8400 C   0  0  0  0  0  0  0  0  0  0  0  0
   61.7460   33.8230   47.0450 C   0  0  0  0  0  0  0  0  0  0  0  0
   62.9560   33.1760   47.3160 C   0  0  0  0  0  0  0  0  0  0  0  0
   63.0040   31.7800   47.3890 C   0  0  0  0  0  0  0  0  0  0  0  0
   61.8390   31.0310   47.1950 C   0  0  0  0  0  0  0  0  0  0  0  0
   60.6270   31.6760   46.9260 C   0  0  0  0  0  0  0  0  0  0  0  0
   57.8050   31.5230   44.7900 C   0  0  0  0  0  0  0  0  0  0  0  0
   58.6930   27.6690   45.4640 C   0  0  0  0  0  0  0  0  0  0  0  0
   59.5600   27.1550   46.4240 C   0  0  0  0  0  0  0  0  0  0  0  0
   59.5240   27.6370   47.6910 N   0  0  0  0  0  0  0  0  0  0  0  0
   60.9110   29.4580   50.1700 C   0  0  0  0  0  0  0  0  0  0  0  0
   61.1840   28.0960   50.0630 O   0  0  0  0  0  0  0  0  0  0  0  0
   61.8910   30.3360   50.6500 C   0  0  0  0  0  0  0  0  0  0  0  0
   63.2770   32.3900   52.5610 C   0  0  0  0  0  0  0  0  0  0  0  0
   64.7770   32.7520   52.4950 C   0  0  0  0  0  0  0  0  0  0  0  0
   65.8041   31.4358   51.1767 H   0  0  0  0  0  0  0  0  0  0  0  0
   64.9168   31.6991   49.6372 H   0  0  0  0  0  0  0  0  0  0  0  0
   66.7113   31.6186   49.6372 H   0  0  0  0  0  0  0  0  0  0  0  0
   66.9448   33.7499   50.5811 H   0  0  0  0  0  0  0  0  0  0  0  0
   65.4747   33.9512   49.5319 H   0  0  0  0  0  0  0  0  0  0  0  0
   63.4917   35.1383   52.1646 H   0  0  0  0  0  0  0  0  0  0  0  0
   64.2319   35.4983   50.5502 H   0  0  0  0  0  0  0  0  0  0  0  0
   61.8938   34.4264   50.5364 H   0  0  0  0  0  0  0  0  0  0  0  0
   63.1696   33.6438   49.5262 H   0  0  0  0  0  0  0  0  0  0  0  0
   60.0927   33.2421   50.6462 H   0  0  0  0  0  0  0  0  0  0  0  0
   58.3461   31.6897   49.7828 H   0  0  0  0  0  0  0  0  0  0  0  0
   56.5402   29.5513   42.2999 H   0  0  0  0  0  0  0  0  0  0  0  0
   56.9890   31.6254   40.9858 H   0  0  0  0  0  0  0  0  0  0  0  0
   57.9770   33.6257   42.0987 H   0  0  0  0  0  0  0  0  0  0  0  0
   61.7112   34.9212   46.9925 H   0  0  0  0  0  0  0  0  0  0  0  0
   63.8713   33.7659   47.4720 H   0  0  0  0  0  0  0  0  0  0  0  0
   63.9568   31.2719   47.5987 H   0  0  0  0  0  0  0  0  0  0  0  0
   61.8757   29.9332   47.2540 H   0  0  0  0  0  0  0  0  0  0  0  0
   59.7109   31.0844   46.7815 H   0  0  0  0  0  0  0  0  0  0  0  0
   58.0228   31.4948   45.8679 H   0  0  0  0  0  0  0  0  0  0  0  0
   58.7031   27.2812   44.4347 H   0  0  0  0  0  0  0  0  0  0  0  0
   60.2720   26.3605   46.1558 H   0  0  0  0  0  0  0  0  0  0  0  0
   60.5540   27.4710   49.5670 H   0  0  0  0  0  0  0  0  0  0  0  0
   62.8885   29.9509   50.9084 H   0  0  0  0  0  0  0  0  0  0  0  0
   62.7856   33.0248   53.3130 H   0  0  0  0  0  0  0  0  0  0  0  0
   63.1821   31.3288   52.8347 H   0  0  0  0  0  0  0  0  0  0  0  0
   65.1131   33.0086   53.5105 H   0  0  0  0  0  0  0  0  0  0  0  0
   65.2918   31.8733   52.0793 H   0  0  0  0  0  0  0  0  0  0  0  0
  1  2  1  0
  2  3  1  0
  3  4  1  0
  4  5  1  0
  5  6  1  0
  6  7  1  0
  7  8  2  0
  8  9  1  0
  9 10  2  0
 10 11  1  0
 11 12  2  3
 12 13  1  0
 13 14  2  0
 14 15  1  0
 15 16  1  0
 16 17  2  0
 17 18  1  0
 18 19  2  0
 19 20  1  0
 20 21  1  0
 21 22  1  0
 22 23  2  0
 22 24  2  0
 22 25  1  0
 25 26  2  0
 26 27  1  0
 27 28  2  0
 28 29  1  0
 29 30  2  0
 20 31  2  0
 14 32  1  0
 32 33  2  0
 33 34  1  0
 10 35  1  0
 35 36  1  0
 35 37  2  0
  6 38  1  0
 38 39  1  0
 39  3  1  0
 37  7  1  0
 34 12  1  0
 31 16  1  0
 30 25  1  0
  1 40  1  0
  1 41  1  0
  1 42  1  0
  2 43  1  0
  2 44  1  0
  4 45  1  0
  4 46  1  0
  5 47  1  0
  5 48  1  0
  8 49  1  0
  9 50  1  0
 17 51  1  0
 18 52  1  0
 19 53  1  0
 26 54  1  0
 27 55  1  0
 28 56  1  0
 29 57  1  0
 30 58  1  0
 31 59  1  0
 32 60  1  0
 33 61  1  0
 36 62  1  0
 37 63  1  0
 38 64  1  0
 38 65  1  0
 39 66  1  0
 39 67  1  0
M  CHG  2  21  -1  34  -1
M  END
>  <UniqueID>  (25) 
24

>  <SMILES>  (25) 
CCN1CCN(c2ccc(N=c3nc(Oc4cccc([N-]S(=O)(=O)c5ccccc5)c4)cc[n-]3)c(O)c2)CC1

>  <Energy>  (25) 
104.79869068881938

>  <Genealogy>  (25) 
CCN1CCN(c2ccc(N=c3nc(Oc4cccc([N-]S(=O)(=O)c5ccccc5)c4)cc[n-]3)c(O)c2)CC1 (protonated)
CCN1CCN(c2ccc(N=c3nc(Oc4cccc([N-]S(=O)(=O)c5ccccc5)c4)cc[n-]3)c(O)c2)CC1 (3D coordinates assigned)
CCN1CCN(c2ccc(N=c3nc(Oc4cccc([N-]S(=O)(=O)c5ccccc5)c4)cc[n-]3)c(O)c2)CC1 (nonaromatic ring conformer: 104.79869068881938 kcal/mol)

>  <smiles>  (25) 
CCN1CCN(c2ccc(N=c3nc(Oc4cccc(NS(=O)(=O)c5ccccc5)c4)cc[nH]3)c(O)c2)CC1

>  <score_type>  (25) 
oracle

>  <origin>  (25) 
adg

>  <m_score__min__energy>  (25) 
-13.32

>  <m_primary>  (25) 
energy

$$$$
25:0
     RDKit          3D

 56 59  0  0  0  0  0  0  0  0999 V2000
   64.6530   32.2960   51.8180 C   0  0  0  0  0  0  0  0  0  0  0  0
   63.6940   32.7010   50.7730 N   0  0  0  0  0  0  0  0  0  0  0  0
   62.3880   32.9480   51.1060 C   0  0  0  0  0  0  0  0  0  0  0  0
   62.0150   32.7920   52.3000 O   0  0  0  0  0  0  0  0  0  0  0  0
   61.4750   33.3840   50.1230 C   0  0  0  0  0  0  0  0  0  0  0  0
   60.1070   33.6810   50.3690 C   0  0  0  0  0  0  0  0  0  0  0  0
   59.3150   33.5410   51.9840 S   0  0  0  0  0  0  0  0  0  0  0  0
   57.9910   32.4140   51.4140 C   0  0  0  0  0  0  0  0  0  0  0  0
   58.5490   31.0820   51.0140 C   0  0  0  0  0  0  0  0  0  0  0  0
   57.7830   30.2140   50.5150 O   0  0  0  0  0  0  0  0  0  0  0  0
   59.9480   30.8050   51.1800 N   0  0  0  0  0  0  0  0  0  0  0  0
   60.5720   29.5830   50.6810 C   0  0  0  0  0  0  0  0  0  0  0  0
   60.5020   29.5440   49.1810 C   0  0  0  0  0  0  0  0  0  0  0  0
   59.7830   28.5280   48.5260 C   0  0  0  0  0  0  0  0  0  0  0  0
   59.7480   28.4810   47.1290 C   0  0  0  0  0  0  0  0  0  0  0  0
   60.4340   29.4420   46.3780 C   0  0  0  0  0  0  0  0  0  0  0  0
   61.1590   30.4480   47.0230 C   0  0  0  0  0  0  0  0  0  0  0  0
   61.1980   30.4970   48.4190 C   0  0  0  0  0  0  0  0  0  0  0  0
   59.3230   34.1140   49.3490 N   0  0  0  0  0  0  0  0  0  0  0  0
   59.8070   34.2790   48.0970 C   0  0  0  0  0  0  0  0  0  0  0  0
   58.9150   34.8020   47.0140 C   0  0  0  0  0  0  0  0  0  0  0  0
   58.4490   33.6830   46.1250 C   0  0  0  0  0  0  0  0  0  0  0  0
   58.2420   33.9070   44.7540 C   0  0  0  0  0  0  0  0  0  0  0  0
   57.8320   32.8580   43.9250 C   0  0  0  0  0  0  0  0  0  0  0  0
   57.6400   31.5790   44.4550 C   0  0  0  0  0  0  0  0  0  0  0  0
   57.8630   31.3450   45.8140 C   0  0  0  0  0  0  0  0  0  0  0  0
   58.2690   32.3900   46.6470 C   0  0  0  0  0  0  0  0  0  0  0  0
   61.1060   33.9980   47.8380 N   0  0  0  0  0  0  0  0  0  0  0  0
   61.9540   33.5510   48.8060 C   0  0  0  0  0  0  0  0  0  0  0  0
   63.2650   33.2920   48.5040 N   0  0  0  0  0  0  0  0  0  0  0  0
   63.7600   33.5070   47.1320 C   0  0  0  0  0  0  0  0  0  0  0  0
   64.1360   32.9150   49.4930 C   0  0  0  0  0  0  0  0  0  0  0  0
   65.3620   32.7660   49.2220 O   0  0  0  0  0  0  0  0  0  0  0  0
   64.2145   32.4812   52.8097 H   0  0  0  0  0  0  0  0  0  0  0  0
   64.8804   31.2250   51.7118 H   0  0  0  0  0  0  0  0  0  0  0  0
   65.5792   32.8798   51.7118 H   0  0  0  0  0  0  0  0  0  0  0  0
   57.2669   32.2696   52.2293 H   0  0  0  0  0  0  0  0  0  0  0  0
   57.5028   32.8649   50.5374 H   0  0  0  0  0  0  0  0  0  0  0  0
   60.5480   31.5010   51.6760 H   0  0  0  0  0  0  0  0  0  0  0  0
   61.6253   29.5569   50.9970 H   0  0  0  0  0  0  0  0  0  0  0  0
   60.0375   28.7127   51.0895 H   0  0  0  0  0  0  0  0  0  0  0  0
   59.2470   27.7686   49.1142 H   0  0  0  0  0  0  0  0  0  0  0  0
   59.1807   27.6879   46.6199 H   0  0  0  0  0  0  0  0  0  0  0  0
   60.4027   29.4057   45.2790 H   0  0  0  0  0  0  0  0  0  0  0  0
   61.6992   31.2017   46.4313 H   0  0  0  0  0  0  0  0  0  0  0  0
   61.7762   31.2852   48.9234 H   0  0  0  0  0  0  0  0  0  0  0  0
   58.0406   35.2894   47.4699 H   0  0  0  0  0  0  0  0  0  0  0  0
   59.4805   35.5245   46.4072 H   0  0  0  0  0  0  0  0  0  0  0  0
   58.4027   34.9098   44.3314 H   0  0  0  0  0  0  0  0  0  0  0  0
   57.6603   33.0398   42.8538 H   0  0  0  0  0  0  0  0  0  0  0  0
   57.3132   30.7565   43.8018 H   0  0  0  0  0  0  0  0  0  0  0  0
   57.7187   30.3364   46.2286 H   0  0  0  0  0  0  0  0  0  0  0  0
   58.4486   32.2007   47.7156 H   0  0  0  0  0  0  0  0  0  0  0  0
   64.7683   33.9450   47.1704 H   0  0  0  0  0  0  0  0  0  0  0  0
   63.7983   32.5444   46.6010 H   0  0  0  0  0  0  0  0  0  0  0  0
   63.0827   34.1920   46.6010 H   0  0  0  0  0  0  0  0  0  0  0  0
  1  2  1  0
  2  3  1  0
  3  4  2  0
  3  5  1  0
  5  6  2  0
  6  7  1  0
  7  8  1  0
  8  9  1  0
  9 10  2  0
  9 11  1  0
 11 12  1  0
 12 13  1  0
 13 14  2  0
 14 15  1  0
 15 16  2  0
 16 17  1  0
 17 18  2  0
  6 19  1  0
 19 20  2  0
 20 21  1  0
 21 22  1  0
 22 23  2  0
 23 24  1  0
 24 25  2  0
 25 26  1  0
 26 27  2  0
 20 28  1  0
 28 29  2  0
 29 30  1  0
 30 31  1  0
 30 32  1  0
 32 33  2  0
 32  2  1  0
 29  5  1  0
 18 13  1  0
 27 22  1  0
  1 34  1  0
  1 35  1  0
  1 36  1  0
  8 37  1  0
  8 38  1  0
 11 39  1  0
 12 40  1  0
 12 41  1  0
 14 42  1  0
 15 43  1  0
 16 44  1  0
 17 45  1  0
 18 46  1  0
 21 47  1  0
 21 48  1  0
 23 49  1  0
 24 50  1  0
 25 51  1  0
 26 52  1  0
 27 53  1  0
 31 54  1  0
 31 55  1  0
 31 56  1  0
M  END
>  <UniqueID>  (26) 
25

>  <SMILES>  (26) 
Cn1c(=O)c2c(SCC(=O)NCc3ccccc3)nc(Cc3ccccc3)nc2n(C)c1=O

>  <Energy>  (26) 
66.2646770310736

>  <Genealogy>  (26) 
Cn1c(=O)c2c(SCC(=O)NCc3ccccc3)nc(Cc3ccccc3)nc2n(C)c1=O (3D coordinates assigned)
Cn1c(=O)c2c(SCC(=O)NCc3ccccc3)nc(Cc3ccccc3)nc2n(C)c1=O (optimized conformer: 66.2646770310736 kcal/mol)

>  <smiles>  (26) 
Cn1c(=O)c2c(SCC(=O)NCc3ccccc3)nc(Cc3ccccc3)nc2n(C)c1=O

>  <score_type>  (26) 
oracle

>  <origin>  (26) 
adg

>  <m_score__min__energy>  (26) 
-8.6500000000000004

>  <m_primary>  (26) 
energy

$$$$
26:0
     RDKit          3D

 43 46  0  0  0  0  0  0  0  0999 V2000
   58.8350   25.5100   45.7660 C   0  0  0  0  0  0  0  0  0  0  0  0
   57.5260   25.7600   45.8440 C   0  0  0  0  0  0  0  0  0  0  0  0
   56.5890   24.8520   45.5170 N   0  0  0  0  0  0  0  0  0  0  0  0
   55.4270   25.5000   45.7350 C   0  0  0  0  0  0  0  0  0  0  0  0
   53.9690   24.8110   45.4790 S   0  0  0  0  0  0  0  0  0  0  0  0
   55.5690   26.7650   46.1810 N   0  0  0  0  0  0  0  0  0  0  0  0
   56.9030   26.9310   46.2570 C   0  0  0  0  0  0  0  0  0  0  0  0
   57.4930   28.0770   46.6340 C   0  0  0  0  0  0  0  0  0  0  0  0
   57.3450   29.3390   45.8870 C   0  0  0  0  0  0  0  0  0  0  0  0
   56.3320   29.7290   45.0090 C   0  0  0  0  0  0  0  0  0  0  0  0
   55.2220   28.9640   44.6560 O   0  0  0  0  0  0  0  0  0  0  0  0
   56.5080   30.9950   44.5620 N   0  0  0  0  0  0  0  0  0  0  0  0
   57.6280   31.4130   45.1820 C   0  0  0  0  0  0  0  0  0  0  0  0
   58.2130   32.6730   45.0810 C   0  0  0  0  0  0  0  0  0  0  0  0
   59.3660   32.9310   45.8460 C   0  0  0  0  0  0  0  0  0  0  0  0
   59.9130   31.9290   46.6810 C   0  0  0  0  0  0  0  0  0  0  0  0
   61.3270   32.2840   47.6730 S   0  0  0  0  0  0  0  0  0  0  0  0
   62.5390   32.3310   46.7850 O   0  0  0  0  0  0  0  0  0  0  0  0
   61.5260   31.1860   48.6810 O   0  0  0  0  0  0  0  0  0  0  0  0
   61.1810   33.8080   48.5070 N   0  0  0  0  0  0  0  0  0  0  0  0
   59.8170   34.0490   48.9870 C   0  0  0  0  0  0  0  0  0  0  0  0
   59.3960   33.0500   50.0400 C   0  0  0  0  0  0  0  0  0  0  0  0
   58.4220   32.0790   49.7470 C   0  0  0  0  0  0  0  0  0  0  0  0
   58.0360   31.1490   50.7160 C   0  0  0  0  0  0  0  0  0  0  0  0
   58.6320   31.1640   51.9780 C   0  0  0  0  0  0  0  0  0  0  0  0
   59.6250   32.1010   52.2700 C   0  0  0  0  0  0  0  0  0  0  0  0
   60.0180   33.0330   51.3050 C   0  0  0  0  0  0  0  0  0  0  0  0
   61.0030   33.9180   51.6080 F   0  0  0  0  0  0  0  0  0  0  0  0
   59.3050   30.6590   46.7490 C   0  0  0  0  0  0  0  0  0  0  0  0
   58.1550   30.4440   45.9960 C   0  0  0  0  0  0  0  0  0  0  0  0
   59.5611   26.2876   46.0455 H   0  0  0  0  0  0  0  0  0  0  0  0
   59.1876   24.5264   45.4223 H   0  0  0  0  0  0  0  0  0  0  0  0
   58.1149   28.0737   47.5413 H   0  0  0  0  0  0  0  0  0  0  0  0
   55.1400   27.9890   44.9130 H   0  0  0  0  0  0  0  0  0  0  0  0
   57.7864   33.4440   44.4226 H   0  0  0  0  0  0  0  0  0  0  0  0
   59.8454   33.9197   45.7940 H   0  0  0  0  0  0  0  0  0  0  0  0
   59.7668   35.0598   49.4179 H   0  0  0  0  0  0  0  0  0  0  0  0
   59.1348   33.9437   48.1306 H   0  0  0  0  0  0  0  0  0  0  0  0
   57.9610   32.0513   48.7487 H   0  0  0  0  0  0  0  0  0  0  0  0
   57.2610   30.4037   50.4837 H   0  0  0  0  0  0  0  0  0  0  0  0
   58.3194   30.4376   52.7426 H   0  0  0  0  0  0  0  0  0  0  0  0
   60.0995   32.1059   53.2624 H   0  0  0  0  0  0  0  0  0  0  0  0
   59.7271   29.8618   47.3786 H   0  0  0  0  0  0  0  0  0  0  0  0
  1  2  2  0
  2  3  1  0
  3  4  1  0
  4  5  2  0
  4  6  1  0
  6  7  1  0
  7  8  2  3
  8  9  1  0
  9 10  2  0
 10 11  1  0
 10 12  1  0
 12 13  1  0
 13 14  2  0
 14 15  1  0
 15 16  2  0
 16 17  1  0
 17 18  2  0
 17 19  2  0
 17 20  1  0
 20 21  1  0
 21 22  1  0
 22 23  2  0
 23 24  1  0
 24 25  2  0
 25 26  1  0
 26 27  2  0
 27 28  1  0
 16 29  1  0
 29 30  2  0
  7  2  1  0
 30  9  1  0
 30 13  1  0
 27 22  1  0
  1 31  1  0
  1 32  1  0
  8 33  1  0
 11 34  1  0
 14 35  1  0
 15 36  1  0
 21 37  1  0
 21 38  1  0
 23 39  1  0
 24 40  1  0
 25 41  1  0
 26 42  1  0
 29 43  1  0
M  CHG  4   3  -1   6  -1  12  -1  20  -1
M  END
>  <UniqueID>  (27) 
26

>  <SMILES>  (27) 
C=c1[n-]c(=S)[n-]c1=Cc1c(O)[n-]c2ccc(S(=O)(=O)[N-]Cc3ccccc3F)cc12

>  <Energy>  (27) 
112.96906352318234

>  <Genealogy>  (27) 
C=c1[n-]c(=S)[n-]c1=Cc1c(O)[n-]c2ccc(S(=O)(=O)[N-]Cc3ccccc3F)cc12 (protonated)
C=c1[n-]c(=S)[n-]c1=Cc1c(O)[n-]c2ccc(S(=O)(=O)[N-]Cc3ccccc3F)cc12 (3D coordinates assigned)
C=c1[n-]c(=S)[n-]c1=Cc1c(O)[n-]c2ccc(S(=O)(=O)[N-]Cc3ccccc3F)cc12 (optimized conformer: 112.96906352318234 kcal/mol)

>  <smiles>  (27) 
C=c1[nH]c(=S)[nH]c1=Cc1c(O)[nH]c2ccc(S(=O)(=O)NCc3ccccc3F)cc12

>  <score_type>  (27) 
oracle

>  <origin>  (27) 
adg

>  <m_score__min__energy>  (27) 
-15.09

>  <m_primary>  (27) 
energy

$$$$
27:0
     RDKit          3D

 79 84  0  0  0  0  0  0  0  0999 V2000
   56.7690   34.3840   44.8690 O   0  0  0  0  0  0  0  0  0  0  0  0
   57.7240   33.6290   45.1960 C   0  0  0  0  0  0  0  0  0  0  0  0
   59.1390   34.1050   45.0620 C   0  0  0  0  0  0  0  0  0  0  0  0
   59.8890   33.9790   46.3630 C   0  0  0  0  0  0  0  0  0  0  0  0
   59.2540   34.2670   47.5830 C   0  0  0  0  0  0  0  0  0  0  0  0
   59.9600   34.1750   48.7860 C   0  0  0  0  0  0  0  0  0  0  0  0
   61.3090   33.8010   48.7800 C   0  0  0  0  0  0  0  0  0  0  0  0
   61.9500   33.5150   47.5710 C   0  0  0  0  0  0  0  0  0  0  0  0
   61.2460   33.6070   46.3640 C   0  0  0  0  0  0  0  0  0  0  0  0
   57.4770   32.3520   45.7990 N   0  0  0  0  0  0  0  0  0  0  0  0
   57.4380   31.0780   45.1400 C   0  0  0  0  0  0  0  0  0  0  0  0
   57.0790   30.9720   43.7850 C   0  0  0  0  0  0  0  0  0  0  0  0
   56.9480   29.7200   43.1870 C   0  0  0  0  0  0  0  0  0  0  0  0
   57.1810   28.5620   43.9260 C   0  0  0  0  0  0  0  0  0  0  0  0
   57.6060   28.6390   45.2640 C   0  0  0  0  0  0  0  0  0  0  0  0
   57.8210   27.3610   46.0530 C   0  0  0  0  0  0  0  0  0  0  0  0
   56.7270   26.3490   45.8040 C   0  0  0  0  0  0  0  0  0  0  0  0
   55.4440   26.7100   46.0770 N   0  0  0  0  0  0  0  0  0  0  0  0
   54.4120   25.9110   45.8110 N   0  0  0  0  0  0  0  0  0  0  0  0
   54.5820   24.6930   45.2410 C   0  0  0  0  0  0  0  0  0  0  0  0
   53.5750   23.9800   44.9870 O   0  0  0  0  0  0  0  0  0  0  0  0
   55.8760   24.2460   44.9430 C   0  0  0  0  0  0  0  0  0  0  0  0
   56.9700   25.0750   45.2410 C   0  0  0  0  0  0  0  0  0  0  0  0
   58.3470   24.5790   44.8670 C   0  0  0  0  0  0  0  0  0  0  0  0
   58.5230   23.0980   45.2410 C   0  0  0  0  0  0  0  0  0  0  0  0
   57.3180   22.1940   44.8780 C   0  0  0  0  0  0  0  0  0  0  0  0
   56.1340   22.9370   44.2390 C   0  0  0  0  0  0  0  0  0  0  0  0
   57.7430   29.9090   45.8740 C   0  0  0  0  0  0  0  0  0  0  0  0
   58.1210   29.9840   47.2230 O   0  0  0  0  0  0  0  0  0  0  0  0
   59.4230   30.3770   47.6620 C   0  0  0  0  0  0  0  0  0  0  0  0
   59.8950   29.4140   48.7110 C   0  0  0  0  0  0  0  0  0  0  0  0
   60.1870   28.0820   48.3800 C   0  0  0  0  0  0  0  0  0  0  0  0
   60.6610   27.1990   49.3540 C   0  0  0  0  0  0  0  0  0  0  0  0
   60.8580   27.6340   50.6750 C   0  0  0  0  0  0  0  0  0  0  0  0
   61.3890   26.7110   51.7050 C   0  0  0  0  0  0  0  0  0  0  0  0
   60.6050   26.2090   52.5530 O   0  0  0  0  0  0  0  0  0  0  0  0
   62.7840   26.3700   51.7380 N   0  0  0  0  0  0  0  0  0  0  0  0
   63.4120   25.7720   52.9140 C   0  0  0  0  0  0  0  0  0  0  0  0
   64.9030   25.8800   52.8060 C   0  0  0  0  0  0  0  0  0  0  0  0
   65.7210   25.5770   53.9070 C   0  0  0  0  0  0  0  0  0  0  0  0
   67.1090   25.6690   53.7740 C   0  0  0  0  0  0  0  0  0  0  0  0
   67.6650   26.0500   52.5520 C   0  0  0  0  0  0  0  0  0  0  0  0
   66.8220   26.3310   51.4750 C   0  0  0  0  0  0  0  0  0  0  0  0
   65.4720   26.2400   51.6220 N   0  0  0  0  0  0  0  0  0  0  0  0
   60.5730   28.9720   51.0020 C   0  0  0  0  0  0  0  0  0  0  0  0
   60.0900   29.8520   50.0300 C   0  0  0  0  0  0  0  0  0  0  0  0
   59.6481   33.5018   44.2959 H   0  0  0  0  0  0  0  0  0  0  0  0
   59.1205   35.1669   44.7754 H   0  0  0  0  0  0  0  0  0  0  0  0
   58.1956   34.5665   47.5914 H   0  0  0  0  0  0  0  0  0  0  0  0
   59.4553   34.3966   49.7379 H   0  0  0  0  0  0  0  0  0  0  0  0
   61.8648   33.7321   49.7268 H   0  0  0  0  0  0  0  0  0  0  0  0
   63.0089   33.2173   47.5678 H   0  0  0  0  0  0  0  0  0  0  0  0
   61.7553   33.3878   45.4140 H   0  0  0  0  0  0  0  0  0  0  0  0
   56.9005   31.8821   43.1935 H   0  0  0  0  0  0  0  0  0  0  0  0
   56.6597   29.6458   42.1281 H   0  0  0  0  0  0  0  0  0  0  0  0
   57.0310   27.5779   43.4580 H   0  0  0  0  0  0  0  0  0  0  0  0
   58.7852   26.9206   45.7592 H   0  0  0  0  0  0  0  0  0  0  0  0
   57.8088   27.6170   47.1227 H   0  0  0  0  0  0  0  0  0  0  0  0
   58.4881   24.6947   43.7822 H   0  0  0  0  0  0  0  0  0  0  0  0
   59.0928   25.1696   45.4193 H   0  0  0  0  0  0  0  0  0  0  0  0
   59.4102   22.7145   44.7159 H   0  0  0  0  0  0  0  0  0  0  0  0
   58.6211   23.0623   46.3360 H   0  0  0  0  0  0  0  0  0  0  0  0
   57.6649   21.4269   44.1700 H   0  0  0  0  0  0  0  0  0  0  0  0
   56.9483   21.7706   45.8235 H   0  0  0  0  0  0  0  0  0  0  0  0
   56.3621   23.1358   43.1814 H   0  0  0  0  0  0  0  0  0  0  0  0
   55.2359   22.3080   44.3269 H   0  0  0  0  0  0  0  0  0  0  0  0
   60.1189   30.3649   46.8102 H   0  0  0  0  0  0  0  0  0  0  0  0
   59.3834   31.3934   48.0808 H   0  0  0  0  0  0  0  0  0  0  0  0
   60.0419   27.7308   47.3477 H   0  0  0  0  0  0  0  0  0  0  0  0
   60.8814   26.1556   49.0842 H   0  0  0  0  0  0  0  0  0  0  0  0
   63.3790   26.5470   50.8990 H   0  0  0  0  0  0  0  0  0  0  0  0
   63.0724   26.3002   53.8172 H   0  0  0  0  0  0  0  0  0  0  0  0
   63.1291   24.7108   52.9756 H   0  0  0  0  0  0  0  0  0  0  0  0
   65.2736   25.2705   54.8640 H   0  0  0  0  0  0  0  0  0  0  0  0
   67.7614   25.4418   54.6300 H   0  0  0  0  0  0  0  0  0  0  0  0
   68.7563   26.1281   52.4384 H   0  0  0  0  0  0  0  0  0  0  0  0
   67.2499   26.6265   50.5057 H   0  0  0  0  0  0  0  0  0  0  0  0
   60.7315   29.3283   52.0306 H   0  0  0  0  0  0  0  0  0  0  0  0
   59.8614   30.8935   50.3001 H   0  0  0  0  0  0  0  0  0  0  0  0
  1  2  2  0
  2  3  1  0
  3  4  1  0
  4  5  2  0
  5  6  1  0
  6  7  2  0
  7  8  1  0
  8  9  2  0
  2 10  1  0
 10 11  1  0
 11 12  2  0
 12 13  1  0
 13 14  2  0
 14 15  1  0
 15 16  1  0
 16 17  1  0
 17 18  2  0
 18 19  1  0
 19 20  1  0
 20 21  2  0
 20 22  1  0
 22 23  2  0
 23 24  1  0
 24 25  1  0
 25 26  1  0
 26 27  1  0
 15 28  2  0
 28 29  1  0
 29 30  1  0
 30 31  1  0
 31 32  2  0
 32 33  1  0
 33 34  2  0
 34 35  1  0
 35 36  2  0
 35 37  1  0
 37 38  1  0
 38 39  1  0
 39 40  2  0
 40 41  1  0
 41 42  2  0
 42 43  1  0
 43 44  2  0
 34 45  1  0
 45 46  2  0
  9  4  1  0
 28 11  1  0
 46 31  1  0
 23 17  1  0
 44 39  1  0
 27 22  1  0
  3 47  1  0
  3 48  1  0
  5 49  1  0
  6 50  1  0
  7 51  1  0
  8 52  1  0
  9 53  1  0
 12 54  1  0
 13 55  1  0
 14 56  1  0
 16 57  1  0
 16 58  1  0
 24 59  1  0
 24 60  1  0
 25 61  1  0
 25 62  1  0
 26 63  1  0
 26 64  1  0
 27 65  1  0
 27 66  1  0
 30 67  1  0
 30 68  1  0
 32 69  1  0
 33 70  1  0
 37 71  1  0
 38 72  1  0
 38 73  1  0
 40 74  1  0
 41 75  1  0
 42 76  1  0
 43 77  1  0
 45 78  1  0
 46 79  1  0
M  CHG  2  10  -1  19  -1
M  END
>  <UniqueID>  (28) 
27

>  <SMILES>  (28) 
O=C(Cc1ccccc1)[N-]c1cccc(Cc2n[n-]c(=O)c3c2CCCC3)c1OCc1ccc(C(=O)NCc2ccccn2)cc1

>  <Energy>  (28) 
102.97407911288015

>  <Genealogy>  (28) 
O=C(Cc1ccccc1)[N-]c1cccc(Cc2n[n-]c(=O)c3c2CCCC3)c1OCc1ccc(C(=O)NCc2ccccn2)cc1 (protonated)
O=C(Cc1ccccc1)[N-]c1cccc(Cc2n[n-]c(=O)c3c2CCCC3)c1OCc1ccc(C(=O)NCc2ccccn2)cc1 (3D coordinates assigned)
O=C(Cc1ccccc1)[N-]c1cccc(Cc2n[n-]c(=O)c3c2CCCC3)c1OCc1ccc(C(=O)NCc2ccccn2)cc1 (nonaromatic ring conformer: 102.97407911288015 kcal/mol)

>  <smiles>  (28) 
O=C(Cc1ccccc1)Nc1cccc(Cc2n[nH]c(=O)c3c2CCCC3)c1OCc1ccc(C(=O)NCc2ccccn2)cc1

>  <score_type>  (28) 
oracle

>  <origin>  (28) 
adg

>  <m_score__min__energy>  (28) 
-15.109999999999999

>  <m_primary>  (28) 
energy

$$$$
28:0
     RDKit          3D

 51 53  0  0  0  0  0  0  0  0999 V2000
   59.2280   34.8560   45.3230 C   0  0  0  0  0  0  0  0  0  0  0  0
   58.2860   33.7800   45.6090 N   0  0  0  0  0  0  0  0  0  0  0  0
   57.8630   32.8130   44.6330 C   0  0  0  0  0  0  0  0  0  0  0  0
   58.1460   32.9600   43.2660 C   0  0  0  0  0  0  0  0  0  0  0  0
   57.6850   31.9850   42.3790 C   0  0  0  0  0  0  0  0  0  0  0  0
   57.9040   32.0980   41.1450 O   0  0  0  0  0  0  0  0  0  0  0  0
   56.9970   30.9120   42.8480 N   0  0  0  0  0  0  0  0  0  0  0  0
   56.7360   30.7780   44.1730 C   0  0  0  0  0  0  0  0  0  0  0  0
   55.8560   29.3390   44.7740 S   0  0  0  0  0  0  0  0  0  0  0  0
   57.3030   28.2270   44.6960 C   0  0  0  0  0  0  0  0  0  0  0  0
   58.2050   28.4530   45.8710 C   0  0  0  0  0  0  0  0  0  0  0  0
   58.4710   27.4920   46.6420 O   0  0  0  0  0  0  0  0  0  0  0  0
   58.7470   29.7590   46.1200 N   0  0  0  0  0  0  0  0  0  0  0  0
   59.1440   30.2400   47.4170 C   0  0  0  0  0  0  0  0  0  0  0  0
   59.3070   29.3660   48.5090 C   0  0  0  0  0  0  0  0  0  0  0  0
   59.6480   29.8660   49.7670 C   0  0  0  0  0  0  0  0  0  0  0  0
   59.8200   31.2380   49.9540 C   0  0  0  0  0  0  0  0  0  0  0  0
   59.6410   32.1210   48.8830 C   0  0  0  0  0  0  0  0  0  0  0  0
   59.9040   33.8480   49.1200 S   0  0  0  0  0  0  0  0  0  0  0  0
   59.0150   34.6350   48.1960 O   0  0  0  0  0  0  0  0  0  0  0  0
   59.5520   34.2000   50.5400 O   0  0  0  0  0  0  0  0  0  0  0  0
   61.5790   34.2360   48.8130 N   0  0  0  0  0  0  0  0  0  0  0  0
   62.4310   33.6690   49.8830 C   0  0  0  0  0  0  0  0  0  0  0  0
   63.8970   33.5800   49.4470 C   0  0  0  0  0  0  0  0  0  0  0  0
   64.0590   32.6410   48.2380 C   0  0  0  0  0  0  0  0  0  0  0  0
   62.7790   32.5380   47.3900 C   0  0  0  0  0  0  0  0  0  0  0  0
   61.9750   33.8450   47.4360 C   0  0  0  0  0  0  0  0  0  0  0  0
   59.3000   31.6190   47.6180 C   0  0  0  0  0  0  0  0  0  0  0  0
   57.1570   31.7270   45.0480 N   0  0  0  0  0  0  0  0  0  0  0  0
   59.5988   35.2795   46.2681 H   0  0  0  0  0  0  0  0  0  0  0  0
   60.0736   34.4584   44.7426 H   0  0  0  0  0  0  0  0  0  0  0  0
   58.7221   35.6416   44.7426 H   0  0  0  0  0  0  0  0  0  0  0  0
   57.9200   33.6890   46.5840 H   0  0  0  0  0  0  0  0  0  0  0  0
   58.7190   33.8252   42.9011 H   0  0  0  0  0  0  0  0  0  0  0  0
   56.9573   27.1828   44.7011 H   0  0  0  0  0  0  0  0  0  0  0  0
   57.8631   28.4376   43.7730 H   0  0  0  0  0  0  0  0  0  0  0  0
   58.8500   30.4050   45.3040 H   0  0  0  0  0  0  0  0  0  0  0  0
   59.1650   28.2841   48.3701 H   0  0  0  0  0  0  0  0  0  0  0  0
   59.7815   29.1763   50.6134 H   0  0  0  0  0  0  0  0  0  0  0  0
   60.0968   31.6264   50.9452 H   0  0  0  0  0  0  0  0  0  0  0  0
   62.3614   34.3115   50.7732 H   0  0  0  0  0  0  0  0  0  0  0  0
   62.0750   32.6521   50.1045 H   0  0  0  0  0  0  0  0  0  0  0  0
   64.2518   34.5843   49.1721 H   0  0  0  0  0  0  0  0  0  0  0  0
   64.4868   33.1775   50.2838 H   0  0  0  0  0  0  0  0  0  0  0  0
   64.8721   33.0223   47.6028 H   0  0  0  0  0  0  0  0  0  0  0  0
   64.2824   31.6361   48.6255 H   0  0  0  0  0  0  0  0  0  0  0  0
   63.0559   32.3238   46.3472 H   0  0  0  0  0  0  0  0  0  0  0  0
   62.1543   31.7305   47.7995 H   0  0  0  0  0  0  0  0  0  0  0  0
   62.5898   34.6497   47.0065 H   0  0  0  0  0  0  0  0  0  0  0  0
   61.0508   33.6825   46.8621 H   0  0  0  0  0  0  0  0  0  0  0  0
   59.1538   32.3128   46.7770 H   0  0  0  0  0  0  0  0  0  0  0  0
  1  2  1  0
  2  3  1  0
  3  4  2  0
  4  5  1  0
  5  6  2  0
  5  7  1  0
  7  8  2  0
  8  9  1  0
  9 10  1  0
 10 11  1  0
 11 12  2  0
 11 13  1  0
 13 14  1  0
 14 15  2  0
 15 16  1  0
 16 17  2  0
 17 18  1  0
 18 19  1  0
 19 20  2  0
 19 21  2  0
 19 22  1  0
 22 23  1  0
 23 24  1  0
 24 25  1  0
 25 26  1  0
 26 27  1  0
 18 28  2  0
  8 29  1  0
 29  3  1  0
 28 14  1  0
 27 22  1  0
  1 30  1  0
  1 31  1  0
  1 32  1  0
  2 33  1  0
  4 34  1  0
 10 35  1  0
 10 36  1  0
 13 37  1  0
 15 38  1  0
 16 39  1  0
 17 40  1  0
 23 41  1  0
 23 42  1  0
 24 43  1  0
 24 44  1  0
 25 45  1  0
 25 46  1  0
 26 47  1  0
 26 48  1  0
 27 49  1  0
 27 50  1  0
 28 51  1  0
M  CHG  1  29  -1
M  END
>  <UniqueID>  (29) 
28

>  <SMILES>  (29) 
CNc1cc(=O)nc(SCC(=O)Nc2cccc(S(=O)(=O)N3CCCCC3)c2)[n-]1

>  <Energy>  (29) 
51.574394816706715

>  <Genealogy>  (29) 
CNc1cc(=O)nc(SCC(=O)Nc2cccc(S(=O)(=O)N3CCCCC3)c2)[n-]1 (protonated)
CNc1cc(=O)nc(SCC(=O)Nc2cccc(S(=O)(=O)N3CCCCC3)c2)[n-]1 (3D coordinates assigned)
CNc1cc(=O)nc(SCC(=O)Nc2cccc(S(=O)(=O)N3CCCCC3)c2)[n-]1 (nonaromatic ring conformer: 51.574394816706715 kcal/mol)

>  <smiles>  (29) 
CNc1cc(=O)nc(SCC(=O)Nc2cccc(S(=O)(=O)N3CCCCC3)c2)[nH]1

>  <score_type>  (29) 
oracle

>  <origin>  (29) 
adg

>  <m_score__min__energy>  (29) 
-10.5

>  <m_primary>  (29) 
energy

$$$$
29:0
     RDKit          3D

 36 38  0  0  0  0  0  0  0  0999 V2000
   57.7670   27.8800   43.8990 C   0  0  0  0  0  0  0  0  0  0  0  0
   57.8150   27.8120   45.2380 C   0  0  0  0  0  0  0  0  0  0  0  0
   57.8460   26.6540   46.0320 C   0  0  0  0  0  0  0  0  0  0  0  0
   57.6340   25.3620   45.7150 C   0  0  0  0  0  0  0  0  0  0  0  0
   56.3270   24.6840   45.7270 C   0  0  0  0  0  0  0  0  0  0  0  0
   56.1300   23.3780   45.4820 N   0  0  0  0  0  0  0  0  0  0  0  0
   54.7900   23.2360   45.4510 C   0  0  0  0  0  0  0  0  0  0  0  0
   54.2210   22.1330   45.2480 O   0  0  0  0  0  0  0  0  0  0  0  0
   54.1100   24.3880   45.6420 N   0  0  0  0  0  0  0  0  0  0  0  0
   55.0950   25.2930   45.7990 C   0  0  0  0  0  0  0  0  0  0  0  0
   54.8730   26.6490   45.9980 O   0  0  0  0  0  0  0  0  0  0  0  0
   58.1450   27.0730   47.3190 C   0  0  0  0  0  0  0  0  0  0  0  0
   58.2100   28.4500   47.2860 C   0  0  0  0  0  0  0  0  0  0  0  0
   58.5270   29.3210   48.4630 C   0  0  0  0  0  0  0  0  0  0  0  0
   58.0020   28.8990   46.0290 N   0  0  0  0  0  0  0  0  0  0  0  0
   58.0960   30.2720   45.6070 C   0  0  0  0  0  0  0  0  0  0  0  0
   59.1820   31.0410   46.0520 C   0  0  0  0  0  0  0  0  0  0  0  0
   59.3440   32.3580   45.6230 C   0  0  0  0  0  0  0  0  0  0  0  0
   58.4230   32.9200   44.7410 C   0  0  0  0  0  0  0  0  0  0  0  0
   57.3320   32.1710   44.2920 C   0  0  0  0  0  0  0  0  0  0  0  0
   57.1450   30.8430   44.7220 C   0  0  0  0  0  0  0  0  0  0  0  0
   55.9510   30.0940   44.2530 C   0  0  0  0  0  0  0  0  0  0  0  0
   55.6390   30.0990   43.0330 O   0  0  0  0  0  0  0  0  0  0  0  0
   55.1410   29.4030   45.1460 O   0  0  0  0  0  0  0  0  0  0  0  0
   57.7469   28.8593   43.3984 H   0  0  0  0  0  0  0  0  0  0  0  0
   57.7478   26.9565   43.3017 H   0  0  0  0  0  0  0  0  0  0  0  0
   58.5098   24.7640   45.4230 H   0  0  0  0  0  0  0  0  0  0  0  0
   56.8500   22.6400   45.3120 H   0  0  0  0  0  0  0  0  0  0  0  0
   58.3006   26.4303   48.1981 H   0  0  0  0  0  0  0  0  0  0  0  0
   58.3259   28.7685   49.3927 H   0  0  0  0  0  0  0  0  0  0  0  0
   59.5879   29.6098   48.4303 H   0  0  0  0  0  0  0  0  0  0  0  0
   57.8999   30.2242   48.4303 H   0  0  0  0  0  0  0  0  0  0  0  0
   59.9129   30.6006   46.7462 H   0  0  0  0  0  0  0  0  0  0  0  0
   60.1977   32.9525   45.9804 H   0  0  0  0  0  0  0  0  0  0  0  0
   58.5552   33.9565   44.3971 H   0  0  0  0  0  0  0  0  0  0  0  0
   56.6113   32.6237   43.5950 H   0  0  0  0  0  0  0  0  0  0  0  0
  1  2  2  0
  2  3  1  0
  3  4  2  3
  4  5  1  0
  5  6  1  0
  6  7  1  0
  7  8  2  0
  7  9  1  0
  9 10  1  0
 10 11  1  0
  3 12  1  0
 12 13  2  0
 13 14  1  0
 13 15  1  0
 15 16  1  0
 16 17  2  0
 17 18  1  0
 18 19  2  0
 19 20  1  0
 20 21  2  0
 21 22  1  0
 22 23  2  0
 22 24  1  0
 15  2  1  0
 21 16  1  0
 10  5  2  0
  1 25  1  0
  1 26  1  0
  4 27  1  0
  6 28  1  0
 12 29  1  0
 14 30  1  0
 14 31  1  0
 14 32  1  0
 17 33  1  0
 18 34  1  0
 19 35  1  0
 20 36  1  0
M  CHG  3   9  -1  11  -1  24  -1
M  END
>  <UniqueID>  (30) 
29

>  <SMILES>  (30) 
C=c1c(=Cc2[nH]c(=O)[n-]c2[O-])cc(C)n1-c1ccccc1C(=O)[O-]

>  <Energy>  (30) 
117.37533559443985

>  <Genealogy>  (30) 
C=c1c(=Cc2[nH]c(=O)[n-]c2[O-])cc(C)n1-c1ccccc1C(=O)[O-] (protonated)
C=c1c(=Cc2[nH]c(=O)[n-]c2[O-])cc(C)n1-c1ccccc1C(=O)[O-] (3D coordinates assigned)
C=c1c(=Cc2[nH]c(=O)[n-]c2[O-])cc(C)n1-c1ccccc1C(=O)[O-] (optimized conformer: 117.37533559443985 kcal/mol)

>  <smiles>  (30) 
C=c1c(=Cc2[nH]c(=O)[nH]c2O)cc(C)n1-c1ccccc1C(=O)O

>  <score_type>  (30) 
oracle

>  <origin>  (30) 
adg

>  <m_score__min__energy>  (30) 
-15.289999999999999

>  <m_primary>  (30) 
energy

$$$$
30:0
     RDKit          3D

 31 33  0  0  0  0  0  0  0  0999 V2000
   55.6220   21.9995   47.2434 H   0  0  0  0  0  0  0  0  0  0  0  0
   56.5730   22.5500   47.2950 C   0  0  0  0  0  0  0  0  0  0  0  0
   57.4721   22.0583   47.6948 H   0  0  0  0  0  0  0  0  0  0  0  0
   56.6360   23.8160   46.8720 C   0  0  0  0  0  0  0  0  0  0  0  0
   57.8460   24.5270   46.9340 C   0  0  0  0  0  0  0  0  0  0  0  0
   58.7469   24.0384   47.3336 H   0  0  0  0  0  0  0  0  0  0  0  0
   57.9130   25.8520   46.4910 C   0  0  0  0  0  0  0  0  0  0  0  0
   58.8679   26.3954   46.5447 H   0  0  0  0  0  0  0  0  0  0  0  0
   56.7700   26.5000   45.9760 C   0  0  0  0  0  0  0  0  0  0  0  0
   56.8350   27.7800   45.5490 C   0  0  0  0  0  0  0  0  0  0  0  0
   55.7400   28.5210   45.2410 N   0  0  0  0  0  0  0  0  0  0  0  0
   56.2580   29.7020   44.8720 C   0  0  0  0  0  0  0  0  0  0  0  0
   55.5600   30.6820   44.4990 O   0  0  0  0  0  0  0  0  0  0  0  0
   57.6300   29.6740   44.9610 C   0  0  0  0  0  0  0  0  0  0  0  0
   58.4680   30.6720   44.6430 C   0  0  0  0  0  0  0  0  0  0  0  0
   59.2404   30.4737   43.8854 H   0  0  0  0  0  0  0  0  0  0  0  0
   58.4200   32.0250   45.2470 C   0  0  0  0  0  0  0  0  0  0  0  0
   59.0920   32.3390   46.4430 C   0  0  0  0  0  0  0  0  0  0  0  0
   59.6943   31.5747   46.9559 H   0  0  0  0  0  0  0  0  0  0  0  0
   58.9900   33.6260   46.9750 C   0  0  0  0  0  0  0  0  0  0  0  0
   59.5255   33.8813   47.9013 H   0  0  0  0  0  0  0  0  0  0  0  0
   58.2300   34.5640   46.3500 N   0  0  0  0  0  0  0  0  0  0  0  0
   57.5520   34.2850   45.2060 C   0  0  0  0  0  0  0  0  0  0  0  0
   56.9433   35.0644   44.7243 H   0  0  0  0  0  0  0  0  0  0  0  0
   57.6270   33.0100   44.6410 C   0  0  0  0  0  0  0  0  0  0  0  0
   57.0658   32.7792   43.7235 H   0  0  0  0  0  0  0  0  0  0  0  0
   58.0020   28.4520   45.3850 N   0  0  0  0  0  0  0  0  0  0  0  0
   55.5590   25.7780   45.9190 C   0  0  0  0  0  0  0  0  0  0  0  0
   54.6552   26.2633   45.5218 H   0  0  0  0  0  0  0  0  0  0  0  0
   55.4940   24.4540   46.3610 C   0  0  0  0  0  0  0  0  0  0  0  0
   54.5410   23.9072   46.3083 H   0  0  0  0  0  0  0  0  0  0  0  0
  1  2  1  0
  2  3  1  0
  2  4  2  0
  4  5  1  0
  5  6  1  0
  5  7  2  0
  7  8  1  0
  7  9  1  0
  9 10  2  3
 10 11  1  0
 11 12  1  0
 12 13  2  0
 12 14  1  0
 14 15  2  0
 15 16  1  0
 15 17  1  0
 17 18  2  0
 18 19  1  0
 18 20  1  0
 20 21  1  0
 20 22  2  0
 22 23  1  0
 23 24  1  0
 23 25  2  0
 25 26  1  0
 14 27  1  0
  9 28  1  0
 28 29  1  0
 28 30  2  0
 30 31  1  0
 30  4  1  0
 27 10  1  0
 25 17  1  0
M  CHG  2  11  -1  27  -1
M  END
>  <UniqueID>  (31) 
30

>  <SMILES>  (31) 
C=c1ccc(=c2[n-]c(=O)/c(=C/c3ccncc3)[n-]2)cc1

>  <Energy>  (31) 
73.38302584293704

>  <Genealogy>  (31) 
C=c1ccc(=c2[n-]c(=O)c(=Cc3ccncc3)[n-]2)cc1 (protonated)
C=c1ccc(=c2[n-]c(=O)/c(=C/c3ccncc3)[n-]2)cc1 (cis-trans isomerization)
C=c1ccc(=c2[n-]c(=O)/c(=C/c3ccncc3)[n-]2)cc1 (3D coordinates assigned)
C=c1ccc(=c2[n-]c(=O)/c(=C/c3ccncc3)[n-]2)cc1 (optimized conformer: 73.38302584293704 kcal/mol)

>  <smiles>  (31) 
C=c1ccc(=c2[nH]c(=O)c(=Cc3ccncc3)[nH]2)cc1

>  <score_type>  (31) 
oracle

>  <origin>  (31) 
adg

>  <m_score__min__energy>  (31) 
-10.960000000000001

>  <m_primary>  (31) 
energy

$$$$
31:0
     RDKit          3D

 38 40  0  0  0  0  0  0  0  0999 V2000
   60.7000   29.8690   50.6960 C   0  0  0  0  0  0  0  0  0  0  0  0
   60.7850   29.0500   49.4120 C   0  0  0  0  0  0  0  0  0  0  0  0
   59.9280   29.6520   48.3330 C   0  0  0  0  0  0  0  0  0  0  0  0
   58.5770   28.8850   47.6820 S   0  0  0  0  0  0  0  0  0  0  0  0
   58.3140   30.0960   46.5380 C   0  0  0  0  0  0  0  0  0  0  0  0
   57.3880   30.1030   45.6250 N   0  0  0  0  0  0  0  0  0  0  0  0
   56.6900   28.9520   45.1260 C   0  0  0  0  0  0  0  0  0  0  0  0
   55.4360   28.9990   45.0310 O   0  0  0  0  0  0  0  0  0  0  0  0
   57.3950   27.6870   44.8260 C   0  0  0  0  0  0  0  0  0  0  0  0
   58.0730   27.6000   43.7680 O   0  0  0  0  0  0  0  0  0  0  0  0
   57.3580   26.5370   45.7630 C   0  0  0  0  0  0  0  0  0  0  0  0
   56.1470   26.0840   46.3200 C   0  0  0  0  0  0  0  0  0  0  0  0
   54.9390   26.6930   45.9890 O   0  0  0  0  0  0  0  0  0  0  0  0
   56.1480   25.0260   47.1720 N   0  0  0  0  0  0  0  0  0  0  0  0
   57.2980   24.3820   47.4940 C   0  0  0  0  0  0  0  0  0  0  0  0
   57.2710   23.4050   48.2860 O   0  0  0  0  0  0  0  0  0  0  0  0
   58.4760   24.7870   46.9580 N   0  0  0  0  0  0  0  0  0  0  0  0
   58.5340   25.8410   46.1030 C   0  0  0  0  0  0  0  0  0  0  0  0
   59.6500   26.1910   45.6340 O   0  0  0  0  0  0  0  0  0  0  0  0
   59.2460   31.0680   46.6180 N   0  0  0  0  0  0  0  0  0  0  0  0
   60.1420   30.8430   47.6200 C   0  0  0  0  0  0  0  0  0  0  0  0
   61.2470   31.7930   47.8630 C   0  0  0  0  0  0  0  0  0  0  0  0
   62.5480   31.4680   47.4400 C   0  0  0  0  0  0  0  0  0  0  0  0
   63.6000   32.3660   47.6410 C   0  0  0  0  0  0  0  0  0  0  0  0
   63.3610   33.6010   48.2500 C   0  0  0  0  0  0  0  0  0  0  0  0
   62.0670   33.9420   48.6530 C   0  0  0  0  0  0  0  0  0  0  0  0
   61.0120   33.0460   48.4550 C   0  0  0  0  0  0  0  0  0  0  0  0
   60.7697   29.1975   51.5645 H   0  0  0  0  0  0  0  0  0  0  0  0
   61.5279   30.5928   50.7247 H   0  0  0  0  0  0  0  0  0  0  0  0
   59.7412   30.4073   50.7247 H   0  0  0  0  0  0  0  0  0  0  0  0
   61.8300   29.0248   49.0696 H   0  0  0  0  0  0  0  0  0  0  0  0
   60.4239   28.0321   49.6202 H   0  0  0  0  0  0  0  0  0  0  0  0
   54.7870   27.0840   45.0670 H   0  0  0  0  0  0  0  0  0  0  0  0
   62.7387   30.5025   46.9486 H   0  0  0  0  0  0  0  0  0  0  0  0
   64.6178   32.1003   47.3193 H   0  0  0  0  0  0  0  0  0  0  0  0
   64.1911   34.3044   48.4121 H   0  0  0  0  0  0  0  0  0  0  0  0
   61.8782   34.9167   49.1266 H   0  0  0  0  0  0  0  0  0  0  0  0
   59.9933   33.3230   48.7640 H   0  0  0  0  0  0  0  0  0  0  0  0
  1  2  1  0
  2  3  1  0
  3  4  1  0
  4  5  1  0
  5  6  2  3
  6  7  1  0
  7  8  2  0
  7  9  1  0
  9 10  2  0
  9 11  1  0
 11 12  2  0
 12 13  1  0
 12 14  1  0
 14 15  1  0
 15 16  2  0
 15 17  1  0
 17 18  1  0
 18 19  2  0
  5 20  1  0
 20 21  1  0
 21 22  1  0
 22 23  2  0
 23 24  1  0
 24 25  2  0
 25 26  1  0
 26 27  2  0
 21  3  2  0
 27 22  1  0
 18 11  1  0
  1 28  1  0
  1 29  1  0
  1 30  1  0
  2 31  1  0
  2 32  1  0
 13 33  1  0
 23 34  1  0
 24 35  1  0
 25 36  1  0
 26 37  1  0
 27 38  1  0
M  CHG  3  14  -1  17  -1  20  -1
M  END
>  <UniqueID>  (32) 
31

>  <SMILES>  (32) 
CCc1sc(=NC(=O)C(=O)c2c(O)[n-]c(=O)[n-]c2=O)[n-]c1-c1ccccc1

>  <Energy>  (32) 
86.63171607723893

>  <Genealogy>  (32) 
CCc1sc(=NC(=O)C(=O)c2c(O)[n-]c(=O)[n-]c2=O)[n-]c1-c1ccccc1 (protonated)
CCc1sc(=NC(=O)C(=O)c2c(O)[n-]c(=O)[n-]c2=O)[n-]c1-c1ccccc1 (3D coordinates assigned)
CCc1sc(=NC(=O)C(=O)c2c(O)[n-]c(=O)[n-]c2=O)[n-]c1-c1ccccc1 (optimized conformer: 86.63171607723893 kcal/mol)

>  <smiles>  (32) 
CCc1sc(=NC(=O)C(=O)c2c(O)[nH]c(=O)[nH]c2=O)[nH]c1-c1ccccc1

>  <score_type>  (32) 
oracle

>  <origin>  (32) 
adg

>  <m_score__min__energy>  (32) 
-13.74

>  <m_primary>  (32) 
energy

$$$$
32:0
     RDKit          3D

 48 50  0  0  0  0  0  0  0  0999 V2000
   55.1670   26.7080   45.9880 N   0  0  0  0  0  0  0  0  0  0  0  0
   56.3720   26.1910   46.5480 C   0  0  0  0  0  0  0  0  0  0  0  0
   56.3660   25.0190   47.0150 O   0  0  0  0  0  0  0  0  0  0  0  0
   57.6190   27.0050   46.5960 C   0  0  0  0  0  0  0  0  0  0  0  0
   58.5520   26.7610   47.6250 C   0  0  0  0  0  0  0  0  0  0  0  0
   59.7340   27.4970   47.7120 C   0  0  0  0  0  0  0  0  0  0  0  0
   60.0040   28.4930   46.7780 C   0  0  0  0  0  0  0  0  0  0  0  0
   59.0990   28.7540   45.7510 C   0  0  0  0  0  0  0  0  0  0  0  0
   57.9010   28.0140   45.6390 C   0  0  0  0  0  0  0  0  0  0  0  0
   56.9890   28.2570   44.5960 O   0  0  0  0  0  0  0  0  0  0  0  0
   56.0900   29.3640   44.5120 C   0  0  0  0  0  0  0  0  0  0  0  0
   56.8380   30.6310   44.2440 C   0  0  0  0  0  0  0  0  0  0  0  0
   57.5970   30.7090   43.2410 O   0  0  0  0  0  0  0  0  0  0  0  0
   56.6370   31.7630   45.0980 N   0  0  0  0  0  0  0  0  0  0  0  0
   57.6370   32.7210   45.4720 C   0  0  0  0  0  0  0  0  0  0  0  0
   58.0280   33.7610   44.6090 C   0  0  0  0  0  0  0  0  0  0  0  0
   59.0350   34.6510   44.9920 C   0  0  0  0  0  0  0  0  0  0  0  0
   59.6670   34.5060   46.2290 C   0  0  0  0  0  0  0  0  0  0  0  0
   59.2960   33.4630   47.0890 C   0  0  0  0  0  0  0  0  0  0  0  0
   60.0980   33.2520   48.6450 S   0  0  0  0  0  0  0  0  0  0  0  0
   60.5270   34.5860   49.1890 O   0  0  0  0  0  0  0  0  0  0  0  0
   59.1110   32.6430   49.6020 O   0  0  0  0  0  0  0  0  0  0  0  0
   61.4790   32.1860   48.4770 N   0  0  0  0  0  0  0  0  0  0  0  0
   62.0480   32.2350   47.1170 C   0  0  0  0  0  0  0  0  0  0  0  0
   62.8470   33.5350   46.8590 C   0  0  0  0  0  0  0  0  0  0  0  0
   63.2250   34.2140   48.0450 O   0  0  0  0  0  0  0  0  0  0  0  0
   63.6740   33.2920   49.0120 C   0  0  0  0  0  0  0  0  0  0  0  0
   62.4980   32.4380   49.5210 C   0  0  0  0  0  0  0  0  0  0  0  0
   58.2910   32.5680   46.7010 C   0  0  0  0  0  0  0  0  0  0  0  0
   55.1630   27.1600   45.0460 H   0  0  0  0  0  0  0  0  0  0  0  0
   58.3447   25.9788   48.3701 H   0  0  0  0  0  0  0  0  0  0  0  0
   60.4526   27.2902   48.5188 H   0  0  0  0  0  0  0  0  0  0  0  0
   60.9342   29.0756   46.8507 H   0  0  0  0  0  0  0  0  0  0  0  0
   59.3200   29.5451   45.0194 H   0  0  0  0  0  0  0  0  0  0  0  0
   55.3743   29.1872   43.6956 H   0  0  0  0  0  0  0  0  0  0  0  0
   55.5582   29.4622   45.4699 H   0  0  0  0  0  0  0  0  0  0  0  0
   57.5396   33.8739   43.6299 H   0  0  0  0  0  0  0  0  0  0  0  0
   59.3307   35.4680   44.3174 H   0  0  0  0  0  0  0  0  0  0  0  0
   60.4566   35.2108   46.5287 H   0  0  0  0  0  0  0  0  0  0  0  0
   62.7204   31.3747   46.9841 H   0  0  0  0  0  0  0  0  0  0  0  0
   61.2123   32.2072   46.4023 H   0  0  0  0  0  0  0  0  0  0  0  0
   63.7588   33.2776   46.3000 H   0  0  0  0  0  0  0  0  0  0  0  0
   62.1880   34.2122   46.2958 H   0  0  0  0  0  0  0  0  0  0  0  0
   64.4323   32.6343   48.5621 H   0  0  0  0  0  0  0  0  0  0  0  0
   64.1089   33.8437   49.8584 H   0  0  0  0  0  0  0  0  0  0  0  0
   62.8905   31.4714   49.8698 H   0  0  0  0  0  0  0  0  0  0  0  0
   62.0096   32.9966   50.3330 H   0  0  0  0  0  0  0  0  0  0  0  0
   58.0130   31.7379   47.3671 H   0  0  0  0  0  0  0  0  0  0  0  0
  1  2  1  0
  2  3  2  0
  2  4  1  0
  4  5  2  0
  5  6  1  0
  6  7  2  0
  7  8  1  0
  8  9  2  0
  9 10  1  0
 10 11  1  0
 11 12  1  0
 12 13  2  0
 12 14  1  0
 14 15  1  0
 15 16  2  0
 16 17  1  0
 17 18  2  0
 18 19  1  0
 19 20  1  0
 20 21  2  0
 20 22  2  0
 20 23  1  0
 23 24  1  0
 24 25  1  0
 25 26  1  0
 26 27  1  0
 27 28  1  0
 19 29  2  0
  9  4  1  0
 29 15  1  0
 28 23  1  0
  1 30  1  0
  5 31  1  0
  6 32  1  0
  7 33  1  0
  8 34  1  0
 11 35  1  0
 11 36  1  0
 16 37  1  0
 17 38  1  0
 18 39  1  0
 24 40  1  0
 24 41  1  0
 25 42  1  0
 25 43  1  0
 27 44  1  0
 27 45  1  0
 28 46  1  0
 28 47  1  0
 29 48  1  0
M  CHG  2   1  -1  14  -1
M  END
>  <UniqueID>  (33) 
32

>  <SMILES>  (33) 
[NH-]C(=O)c1ccccc1OCC(=O)[N-]c1cccc(S(=O)(=O)N2CCOCC2)c1

>  <Energy>  (33) 
65.05813587203971

>  <Genealogy>  (33) 
[NH-]C(=O)c1ccccc1OCC(=O)[N-]c1cccc(S(=O)(=O)N2CCOCC2)c1 (protonated)
[NH-]C(=O)c1ccccc1OCC(=O)[N-]c1cccc(S(=O)(=O)N2CCOCC2)c1 (3D coordinates assigned)
[NH-]C(=O)c1ccccc1OCC(=O)[N-]c1cccc(S(=O)(=O)N2CCOCC2)c1 (nonaromatic ring conformer: 65.05813587203971 kcal/mol)

>  <smiles>  (33) 
NC(=O)c1ccccc1OCC(=O)Nc1cccc(S(=O)(=O)N2CCOCC2)c1

>  <score_type>  (33) 
oracle

>  <origin>  (33) 
adg

>  <m_score__min__energy>  (33) 
-13.92

>  <m_primary>  (33) 
energy

$$$$
33:0
     RDKit          3D

 33 33  0  0  0  0  0  0  0  0999 V2000
   52.0940   22.7400   45.8000 H   0  0  0  0  0  0  0  0  0  0  0  0
   53.0580   22.4170   45.5600 N   0  0  0  0  0  0  0  0  0  0  0  0
   54.0160   23.2570   45.3380 C   0  0  0  0  0  0  0  0  0  0  0  0
   53.9420   24.5130   45.8460 N   0  0  0  0  0  0  0  0  0  0  0  0
   54.9320   25.4180   45.6320 C   0  0  0  0  0  0  0  0  0  0  0  0
   54.8080   26.6970   46.1620 O   0  0  0  0  0  0  0  0  0  0  0  0
   56.0650   25.0570   44.8810 C   0  0  0  0  0  0  0  0  0  0  0  0
   57.1170   26.0140   44.6170 N   0  0  0  0  0  0  0  0  0  0  0  0
   56.7100   26.9710   44.4940 H   0  0  0  0  0  0  0  0  0  0  0  0
   57.5970   25.7600   43.7230 H   0  0  0  0  0  0  0  0  0  0  0  0
   58.0840   26.0180   45.7260 C   0  0  0  0  0  0  0  0  0  0  0  0
   57.5582   26.2884   46.6536 H   0  0  0  0  0  0  0  0  0  0  0  0
   58.5241   25.0122   45.7940 H   0  0  0  0  0  0  0  0  0  0  0  0
   59.2300   27.0210   45.4950 C   0  0  0  0  0  0  0  0  0  0  0  0
   59.4570   27.5064   46.4557 H   0  0  0  0  0  0  0  0  0  0  0  0
   60.0703   26.4383   45.0896 H   0  0  0  0  0  0  0  0  0  0  0  0
   58.9340   28.1240   44.4610 C   0  0  0  0  0  0  0  0  0  0  0  0
   59.8946   28.4944   44.0736 H   0  0  0  0  0  0  0  0  0  0  0  0
   58.3005   27.6596   43.6909 H   0  0  0  0  0  0  0  0  0  0  0  0
   58.1410   29.3280   44.9990 C   0  0  0  0  0  0  0  0  0  0  0  0
   57.4730   28.9791   45.8003 H   0  0  0  0  0  0  0  0  0  0  0  0
   58.8688   30.0662   45.3668 H   0  0  0  0  0  0  0  0  0  0  0  0
   57.2930   30.0140   43.9170 C   0  0  0  0  0  0  0  0  0  0  0  0
   57.4237   31.1031   44.0000 H   0  0  0  0  0  0  0  0  0  0  0  0
   57.6304   29.6480   42.9361 H   0  0  0  0  0  0  0  0  0  0  0  0
   55.8040   29.6810   44.0620 C   0  0  0  0  0  0  0  0  0  0  0  0
   55.2321   30.6160   44.1552 H   0  0  0  0  0  0  0  0  0  0  0  0
   55.4781   29.1218   43.1726 H   0  0  0  0  0  0  0  0  0  0  0  0
   55.5820   28.8900   45.1990 O   0  0  0  0  0  0  0  0  0  0  0  0
   55.1440   28.0540   44.8880 H   0  0  0  0  0  0  0  0  0  0  0  0
   56.1090   23.7550   44.3490 C   0  0  0  0  0  0  0  0  0  0  0  0
   57.0820   23.3800   43.6440 O   0  0  0  0  0  0  0  0  0  0  0  0
   55.0910   22.8890   44.5930 N   0  0  0  0  0  0  0  0  0  0  0  0
  1  2  1  0
  2  3  2  0
  3  4  1  0
  4  5  1  0
  5  6  1  0
  5  7  2  0
  7  8  1  0
  8  9  1  0
  8 10  1  0
  8 11  1  0
 11 12  1  0
 11 13  1  0
 11 14  1  0
 14 15  1  0
 14 16  1  0
 14 17  1  0
 17 18  1  0
 17 19  1  0
 17 20  1  0
 20 21  1  0
 20 22  1  0
 20 23  1  0
 23 24  1  0
 23 25  1  0
 23 26  1  0
 26 27  1  0
 26 28  1  0
 26 29  1  0
 29 30  1  0
  7 31  1  0
 31 32  2  0
 31 33  1  0
 33  3  1  0
M  CHG  4   4  -1   6  -1   8   1  33  -1
M  END
>  <UniqueID>  (34) 
33

>  <SMILES>  (34) 
[H]/N=c1/[n-]c([O-])c([NH2+]CCCCCCO)c(=O)[n-]1

>  <Energy>  (34) 
26.018822240301837

>  <Genealogy>  (34) 
N=c1[n-]c([O-])c([NH2+]CCCCCCO)c(=O)[n-]1 (protonated)
[H]/N=c1/[n-]c([O-])c([NH2+]CCCCCCO)c(=O)[n-]1 (cis-trans isomerization)
[H]/N=c1/[n-]c([O-])c([NH2+]CCCCCCO)c(=O)[n-]1 (3D coordinates assigned)
[H]/N=c1/[n-]c([O-])c([NH2+]CCCCCCO)c(=O)[n-]1 (optimized conformer: 26.018822240301837 kcal/mol)

>  <smiles>  (34) 
N=c1[nH]c(O)c(NCCCCCCO)c(=O)[nH]1

>  <score_type>  (34) 
oracle

>  <origin>  (34) 
adg

>  <m_score__min__energy>  (34) 
-11.57

>  <m_primary>  (34) 
energy

$$$$
34:0
     RDKit          3D

 46 48  0  0  0  0  0  0  0  0999 V2000
   56.1100   28.8710   45.1820 O   0  0  0  0  0  0  0  0  0  0  0  0
   57.2490   28.3410   45.2770 C   0  0  0  0  0  0  0  0  0  0  0  0
   57.4590   27.0540   44.6750 N   0  0  0  0  0  0  0  0  0  0  0  0
   57.2810   25.9020   45.2580 C   0  0  0  0  0  0  0  0  0  0  0  0
   58.2430   24.9350   45.2090 N   0  0  0  0  0  0  0  0  0  0  0  0
   58.0730   23.7200   45.7940 C   0  0  0  0  0  0  0  0  0  0  0  0
   56.8850   23.4260   46.4640 C   0  0  0  0  0  0  0  0  0  0  0  0
   55.8790   24.3910   46.5230 C   0  0  0  0  0  0  0  0  0  0  0  0
   56.0690   25.6380   45.9150 C   0  0  0  0  0  0  0  0  0  0  0  0
   55.0680   26.6090   45.9640 O   0  0  0  0  0  0  0  0  0  0  0  0
   58.3080   29.0310   46.0520 C   0  0  0  0  0  0  0  0  0  0  0  0
   58.2660   30.4260   46.2200 C   0  0  0  0  0  0  0  0  0  0  0  0
   59.2540   31.0780   46.9640 C   0  0  0  0  0  0  0  0  0  0  0  0
   60.2920   30.3480   47.5550 C   0  0  0  0  0  0  0  0  0  0  0  0
   61.5190   31.1780   48.5100 S   0  0  0  0  0  0  0  0  0  0  0  0
   62.7890   31.2340   47.7070 O   0  0  0  0  0  0  0  0  0  0  0  0
   61.7850   30.4070   49.7740 O   0  0  0  0  0  0  0  0  0  0  0  0
   60.9910   32.8010   48.8940 N   0  0  0  0  0  0  0  0  0  0  0  0
   61.8740   33.3870   49.9250 C   0  0  0  0  0  0  0  0  0  0  0  0
   62.8980   34.3900   49.3620 C   0  0  0  0  0  0  0  0  0  0  0  0
   63.7320   33.7820   48.2250 C   0  0  0  0  0  0  0  0  0  0  0  0
   63.1620   34.0760   46.8320 C   0  0  0  0  0  0  0  0  0  0  0  0
   61.8380   33.3510   46.5500 C   0  0  0  0  0  0  0  0  0  0  0  0
   60.7940   33.5980   47.6590 C   0  0  0  0  0  0  0  0  0  0  0  0
   60.3290   28.9550   47.4070 C   0  0  0  0  0  0  0  0  0  0  0  0
   59.3420   28.3010   46.6640 C   0  0  0  0  0  0  0  0  0  0  0  0
   58.8733   22.9673   45.7391 H   0  0  0  0  0  0  0  0  0  0  0  0
   56.7431   22.4447   46.9403 H   0  0  0  0  0  0  0  0  0  0  0  0
   54.9369   24.1723   47.0470 H   0  0  0  0  0  0  0  0  0  0  0  0
   55.1480   27.4790   45.4500 H   0  0  0  0  0  0  0  0  0  0  0  0
   57.4515   31.0077   45.7637 H   0  0  0  0  0  0  0  0  0  0  0  0
   59.2155   32.1706   47.0856 H   0  0  0  0  0  0  0  0  0  0  0  0
   61.2476   33.9076   50.6643 H   0  0  0  0  0  0  0  0  0  0  0  0
   62.4449   32.5585   50.3696 H   0  0  0  0  0  0  0  0  0  0  0  0
   62.3599   35.2689   48.9772 H   0  0  0  0  0  0  0  0  0  0  0  0
   63.5839   34.6687   50.1755 H   0  0  0  0  0  0  0  0  0  0  0  0
   64.7504   34.1941   48.2798 H   0  0  0  0  0  0  0  0  0  0  0  0
   63.7195   32.6903   48.3589 H   0  0  0  0  0  0  0  0  0  0  0  0
   62.9915   35.1593   46.7464 H   0  0  0  0  0  0  0  0  0  0  0  0
   63.8950   33.7114   46.0973 H   0  0  0  0  0  0  0  0  0  0  0  0
   61.4321   33.7127   45.5937 H   0  0  0  0  0  0  0  0  0  0  0  0
   62.0441   32.2711   46.5129 H   0  0  0  0  0  0  0  0  0  0  0  0
   60.8305   34.6632   47.9309 H   0  0  0  0  0  0  0  0  0  0  0  0
   59.8244   33.2863   47.2434 H   0  0  0  0  0  0  0  0  0  0  0  0
   61.1368   28.3747   47.8767 H   0  0  0  0  0  0  0  0  0  0  0  0
   59.3746   27.2067   46.5573 H   0  0  0  0  0  0  0  0  0  0  0  0
  1  2  2  0
  2  3  1  0
  3  4  2  3
  4  5  1  0
  5  6  1  0
  6  7  2  0
  7  8  1  0
  8  9  2  0
  9 10  1  0
  2 11  1  0
 11 12  2  0
 12 13  1  0
 13 14  2  0
 14 15  1  0
 15 16  2  0
 15 17  2  0
 15 18  1  0
 18 19  1  0
 19 20  1  0
 20 21  1  0
 21 22  1  0
 22 23  1  0
 23 24  1  0
 14 25  1  0
 25 26  2  0
  9  4  1  0
 26 11  1  0
 24 18  1  0
  6 27  1  0
  7 28  1  0
  8 29  1  0
 10 30  1  0
 12 31  1  0
 13 32  1  0
 19 33  1  0
 19 34  1  0
 20 35  1  0
 20 36  1  0
 21 37  1  0
 21 38  1  0
 22 39  1  0
 22 40  1  0
 23 41  1  0
 23 42  1  0
 24 43  1  0
 24 44  1  0
 25 45  1  0
 26 46  1  0
M  CHG  1   5  -1
M  END
>  <UniqueID>  (35) 
34

>  <SMILES>  (35) 
O=C(N=c1[n-]cccc1O)c1ccc(S(=O)(=O)N2CCCCCC2)cc1

>  <Energy>  (35) 
61.41056909746096

>  <Genealogy>  (35) 
O=C(N=c1[n-]cccc1O)c1ccc(S(=O)(=O)N2CCCCCC2)cc1 (protonated)
O=C(N=c1[n-]cccc1O)c1ccc(S(=O)(=O)N2CCCCCC2)cc1 (3D coordinates assigned)
O=C(N=c1[n-]cccc1O)c1ccc(S(=O)(=O)N2CCCCCC2)cc1 (nonaromatic ring conformer: 61.41056909746096 kcal/mol)

>  <smiles>  (35) 
O=C(N=c1[nH]cccc1O)c1ccc(S(=O)(=O)N2CCCCCC2)cc1

>  <score_type>  (35) 
oracle

>  <origin>  (35) 
adg

>  <m_score__min__energy>  (35) 
-9.4100000000000001

>  <m_primary>  (35) 
energy

$$$$
35:0
     RDKit          3D

 52 54  0  0  0  0  0  0  0  0999 V2000
   61.9665   35.0152   46.6135 H   0  0  0  0  0  0  0  0  0  0  0  0
   61.2280   34.2060   46.7130 C   0  0  0  0  0  0  0  0  0  0  0  0
   61.6500   32.9150   47.0310 C   0  0  0  0  0  0  0  0  0  0  0  0
   62.7205   32.7117   47.1816 H   0  0  0  0  0  0  0  0  0  0  0  0
   60.7180   31.8740   47.1600 C   0  0  0  0  0  0  0  0  0  0  0  0
   61.2020   30.4900   47.5010 C   0  0  0  0  0  0  0  0  0  0  0  0
   61.2423   30.3747   48.5942 H   0  0  0  0  0  0  0  0  0  0  0  0
   60.5109   29.7455   47.0790 H   0  0  0  0  0  0  0  0  0  0  0  0
   62.2065   30.3385   47.0790 H   0  0  0  0  0  0  0  0  0  0  0  0
   59.3480   32.1340   46.9250 C   0  0  0  0  0  0  0  0  0  0  0  0
   58.3810   31.0740   47.0120 N   0  0  0  0  0  0  0  0  0  0  0  0
   57.9470   30.3470   46.0170 C   0  0  0  0  0  0  0  0  0  0  0  0
   57.5510   30.9130   44.7970 C   0  0  0  0  0  0  0  0  0  0  0  0
   57.6200   31.9998   44.6418 H   0  0  0  0  0  0  0  0  0  0  0  0
   57.0700   30.0890   43.7840 C   0  0  0  0  0  0  0  0  0  0  0  0
   56.6690   30.6770   42.4630 C   0  0  0  0  0  0  0  0  0  0  0  0
   56.0566   31.5750   42.6321 H   0  0  0  0  0  0  0  0  0  0  0  0
   57.5702   30.9496   41.8942 H   0  0  0  0  0  0  0  0  0  0  0  0
   56.0862   29.9375   41.8942 H   0  0  0  0  0  0  0  0  0  0  0  0
   57.0210   28.7410   43.9820 N   0  0  0  0  0  0  0  0  0  0  0  0
   56.6630   28.1460   43.1990 H   0  0  0  0  0  0  0  0  0  0  0  0
   57.4000   28.1720   45.1370 N   0  0  0  0  0  0  0  0  0  0  0  0
   57.2620   26.7010   45.2710 C   0  0  2  0  0  0  0  0  0  0  0  0
   56.7635   26.2721   44.3892 H   0  0  0  0  0  0  0  0  0  0  0  0
   56.3210   26.3640   46.4470 C   0  0  0  0  0  0  0  0  0  0  0  0
   56.6383   25.4142   46.9022 H   0  0  0  0  0  0  0  0  0  0  0  0
   56.3730   27.1780   47.1850 H   0  0  0  0  0  0  0  0  0  0  0  0
   54.9860   26.2410   46.0010 O   0  0  0  0  0  0  0  0  0  0  0  0
   54.7410   24.9090   45.6150 C   0  0  0  0  0  0  0  0  0  0  0  0
   54.6258   24.2826   46.5119 H   0  0  0  0  0  0  0  0  0  0  0  0
   53.8196   24.8644   45.0158 H   0  0  0  0  0  0  0  0  0  0  0  0
   55.5862   24.5395   45.0158 H   0  0  0  0  0  0  0  0  0  0  0  0
   58.6530   26.0020   45.2630 C   0  0  0  0  0  0  0  0  0  0  0  0
   58.9061   26.3889   44.2649 H   0  0  0  0  0  0  0  0  0  0  0  0
   58.6820   24.6740   46.0130 C   0  0  0  0  0  0  0  0  0  0  0  0
   57.7864   24.3262   46.5488 H   0  0  0  0  0  0  0  0  0  0  0  0
   58.9254   23.6357   45.7434 H   0  0  0  0  0  0  0  0  0  0  0  0
   59.4720   25.8550   46.5450 C   0  0  0  0  0  0  0  0  0  0  0  0
   59.1483   26.3631   47.4654 H   0  0  0  0  0  0  0  0  0  0  0  0
   60.5233   26.0265   46.8195 H   0  0  0  0  0  0  0  0  0  0  0  0
   57.8500   28.9580   46.1750 C   0  0  0  0  0  0  0  0  0  0  0  0
   58.1830   28.4410   47.2780 O   0  0  0  0  0  0  0  0  0  0  0  0
   58.9200   33.4510   46.6390 C   0  0  0  0  0  0  0  0  0  0  0  0
   57.4650   33.7680   46.3900 C   0  0  0  0  0  0  0  0  0  0  0  0
   57.1487   34.5690   47.0744 H   0  0  0  0  0  0  0  0  0  0  0  0
   56.8722   32.8578   46.5638 H   0  0  0  0  0  0  0  0  0  0  0  0
   57.2460   34.2250   44.9510 C   0  0  0  0  0  0  0  0  0  0  0  0
   56.7706   35.2170   44.9496 H   0  0  0  0  0  0  0  0  0  0  0  0
   58.2147   34.2819   44.4329 H   0  0  0  0  0  0  0  0  0  0  0  0
   56.5948   33.5056   44.4329 H   0  0  0  0  0  0  0  0  0  0  0  0
   59.8740   34.4740   46.5210 C   0  0  0  0  0  0  0  0  0  0  0  0
   59.5500   35.4960   46.2749 H   0  0  0  0  0  0  0  0  0  0  0  0
  1  2  1  0
  2  3  2  0
  3  4  1  0
  3  5  1  0
  5  6  1  0
  6  7  1  0
  6  8  1  0
  6  9  1  0
  5 10  2  0
 10 11  1  0
 11 12  2  0
 12 13  1  0
 13 14  1  0
 13 15  2  0
 15 16  1  0
 16 17  1  0
 16 18  1  0
 16 19  1  0
 15 20  1  0
 20 21  1  0
 20 22  1  0
 22 23  1  0
 23 24  1  6
 23 25  1  0
 25 26  1  0
 25 27  1  0
 25 28  1  0
 28 29  1  0
 29 30  1  0
 29 31  1  0
 29 32  1  0
 23 33  1  0
 33 34  1  0
 33 35  1  0
 35 36  1  0
 35 37  1  0
 35 38  1  0
 38 39  1  0
 38 40  1  0
 22 41  1  0
 41 42  2  0
 10 43  1  0
 43 44  1  0
 44 45  1  0
 44 46  1  0
 44 47  1  0
 47 48  1  0
 47 49  1  0
 47 50  1  0
 43 51  2  0
 51 52  1  0
 51  2  1  0
 41 12  1  0
 38 33  1  0
M  END
>  <UniqueID>  (36) 
35

>  <SMILES>  (36) 
CCc1cccc(C)c1/N=c1\cc(C)[nH]n([C@H](COC)C2CC2)c1=O

>  <Energy>  (36) 
331.39579925462573

>  <Genealogy>  (36) 
CCc1cccc(C)c1N=c1cc(C)[nH]n([C@H](COC)C2CC2)c1=O (chirality)
CCc1cccc(C)c1/N=c1\cc(C)[nH]n([C@H](COC)C2CC2)c1=O (cis-trans isomerization)
CCc1cccc(C)c1/N=c1\cc(C)[nH]n([C@H](COC)C2CC2)c1=O (3D coordinates assigned)
CCc1cccc(C)c1/N=c1\cc(C)[nH]n([C@H](COC)C2CC2)c1=O (nonaromatic ring conformer: 331.39579925462573 kcal/mol)

>  <smiles>  (36) 
CCc1cccc(C)c1N=c1cc(C)[nH]n(C(COC)C2CC2)c1=O

>  <score_type>  (36) 
oracle

>  <origin>  (36) 
adg

>  <m_score__min__energy>  (36) 
-8.25

>  <m_primary>  (36) 
energy

$$$$
36:0
     RDKit          3D

 52 55  0  0  0  0  0  0  0  0999 V2000
   57.1140   20.8800   46.5160 C   0  0  0  0  0  0  0  0  0  0  0  0
   56.6380   21.8520   47.2990 C   0  0  0  0  0  0  0  0  0  0  0  0
   56.6420   23.2760   46.9180 C   0  0  0  0  0  0  0  0  0  0  0  0
   57.7250   24.1650   46.9590 C   0  0  0  0  0  0  0  0  0  0  0  0
   57.3750   25.4460   46.5180 C   0  0  0  0  0  0  0  0  0  0  0  0
   58.1830   26.5760   46.4260 C   0  0  0  0  0  0  0  0  0  0  0  0
   59.3970   26.5380   46.7580 O   0  0  0  0  0  0  0  0  0  0  0  0
   57.6370   27.7390   45.9720 N   0  0  0  0  0  0  0  0  0  0  0  0
   56.3140   27.8200   45.6120 C   0  0  0  0  0  0  0  0  0  0  0  0
   55.7930   28.9420   45.2110 N   0  0  0  0  0  0  0  0  0  0  0  0
   56.3840   29.8790   44.2970 C   0  0  0  0  0  0  0  0  0  0  0  0
   55.9380   29.9730   43.1210 O   0  0  0  0  0  0  0  0  0  0  0  0
   57.4980   30.8150   44.7380 C   0  0  1  0  0  0  0  0  0  0  0  0
   57.0430   32.2940   44.9200 C   0  0  0  0  0  0  0  0  0  0  0  0
   58.0090   33.2010   45.6570 C   0  0  0  0  0  0  0  0  0  0  0  0
   58.0650   33.1750   47.0650 C   0  0  0  0  0  0  0  0  0  0  0  0
   58.9390   34.0180   47.7570 C   0  0  0  0  0  0  0  0  0  0  0  0
   59.7500   34.9130   47.0570 C   0  0  0  0  0  0  0  0  0  0  0  0
   59.6750   34.9760   45.6640 C   0  0  0  0  0  0  0  0  0  0  0  0
   58.8010   34.1360   44.9670 C   0  0  0  0  0  0  0  0  0  0  0  0
   58.1880   30.3000   45.9470 N   0  0  0  0  0  0  0  0  0  0  0  0
   59.6680   30.2510   45.8140 C   0  0  0  0  0  0  0  0  0  0  0  0
   60.3620   30.5730   47.1180 C   0  0  0  0  0  0  0  0  0  0  0  0
   59.9400   29.9830   48.3230 C   0  0  0  0  0  0  0  0  0  0  0  0
   60.5910   30.2880   49.5230 C   0  0  0  0  0  0  0  0  0  0  0  0
   61.6690   31.1780   49.5300 C   0  0  0  0  0  0  0  0  0  0  0  0
   62.0960   31.7670   48.3360 C   0  0  0  0  0  0  0  0  0  0  0  0
   61.4490   31.4660   47.1330 C   0  0  0  0  0  0  0  0  0  0  0  0
   55.5160   26.7180   45.7080 N   0  0  0  0  0  0  0  0  0  0  0  0
   56.0510   25.5550   46.1480 C   0  0  0  0  0  0  0  0  0  0  0  0
   55.2680   24.0880   46.3430 S   0  0  0  0  0  0  0  0  0  0  0  0
   57.0831   19.8345   46.8567 H   0  0  0  0  0  0  0  0  0  0  0  0
   57.5369   21.1251   45.5305 H   0  0  0  0  0  0  0  0  0  0  0  0
   56.2215   21.5755   48.2788 H   0  0  0  0  0  0  0  0  0  0  0  0
   58.7338   23.8876   47.2987 H   0  0  0  0  0  0  0  0  0  0  0  0
   58.2213   30.8323   43.9094 H   0  0  0  0  0  0  0  0  0  0  0  0
   56.8774   32.7206   43.9197 H   0  0  0  0  0  0  0  0  0  0  0  0
   56.1398   32.2513   45.5465 H   0  0  0  0  0  0  0  0  0  0  0  0
   57.4154   32.4854   47.6240 H   0  0  0  0  0  0  0  0  0  0  0  0
   58.9879   33.9762   48.8551 H   0  0  0  0  0  0  0  0  0  0  0  0
   60.4467   35.5673   47.6016 H   0  0  0  0  0  0  0  0  0  0  0  0
   60.3058   35.6891   45.1130 H   0  0  0  0  0  0  0  0  0  0  0  0
   58.7325   34.2071   43.8714 H   0  0  0  0  0  0  0  0  0  0  0  0
   57.9800   30.9380   46.7510 H   0  0  0  0  0  0  0  0  0  0  0  0
   57.7960   29.3610   46.1920 H   0  0  0  0  0  0  0  0  0  0  0  0
   59.9631   29.2408   45.4941 H   0  0  0  0  0  0  0  0  0  0  0  0
   59.9689   31.0055   45.0722 H   0  0  0  0  0  0  0  0  0  0  0  0
   59.0948   29.2790   48.3218 H   0  0  0  0  0  0  0  0  0  0  0  0
   60.2540   29.8266   50.4630 H   0  0  0  0  0  0  0  0  0  0  0  0
   62.1810   31.4148   50.4743 H   0  0  0  0  0  0  0  0  0  0  0  0
   62.9429   32.4689   48.3427 H   0  0  0  0  0  0  0  0  0  0  0  0
   61.7912   31.9290   46.1957 H   0  0  0  0  0  0  0  0  0  0  0  0
  1  2  2  0
  2  3  1  0
  3  4  2  0
  4  5  1  0
  5  6  1  0
  6  7  2  0
  6  8  1  0
  8  9  1  0
  9 10  2  3
 10 11  1  0
 11 12  2  0
 11 13  1  0
 13 14  1  0
 14 15  1  0
 15 16  2  0
 16 17  1  0
 17 18  2  0
 18 19  1  0
 19 20  2  0
 13 21  1  0
 21 22  1  0
 22 23  1  0
 23 24  2  0
 24 25  1  0
 25 26  2  0
 26 27  1  0
 27 28  2  0
  9 29  1  0
 29 30  1  0
 30 31  1  0
 31  3  1  0
 30  5  2  0
 20 15  1  0
 28 23  1  0
  1 32  1  0
  1 33  1  0
  2 34  1  0
  4 35  1  0
 13 36  1  6
 14 37  1  0
 14 38  1  0
 16 39  1  0
 17 40  1  0
 18 41  1  0
 19 42  1  0
 20 43  1  0
 21 44  1  0
 21 45  1  0
 22 46  1  0
 22 47  1  0
 24 48  1  0
 25 49  1  0
 26 50  1  0
 27 51  1  0
 28 52  1  0
M  CHG  3   8  -1  21   1  29  -1
M  END
>  <UniqueID>  (37) 
36

>  <SMILES>  (37) 
C=Cc1cc2c(=O)[n-]c(=NC(=O)[C@@H](Cc3ccccc3)[NH2+]Cc3ccccc3)[n-]c2s1

>  <Energy>  (37) 
99.6485950818209

>  <Genealogy>  (37) 
C=Cc1cc2c(=O)[n-]c(=NC(=O)C(Cc3ccccc3)[NH2+]Cc3ccccc3)[n-]c2s1 (protonated)
C=Cc1cc2c(=O)[n-]c(=NC(=O)[C@@H](Cc3ccccc3)[NH2+]Cc3ccccc3)[n-]c2s1 (chirality)
C=Cc1cc2c(=O)[n-]c(=NC(=O)[C@@H](Cc3ccccc3)[NH2+]Cc3ccccc3)[n-]c2s1 (3D coordinates assigned)
C=Cc1cc2c(=O)[n-]c(=NC(=O)[C@@H](Cc3ccccc3)[NH2+]Cc3ccccc3)[n-]c2s1 (optimized conformer: 99.6485950818209 kcal/mol)

>  <smiles>  (37) 
C=Cc1cc2c(=O)[nH]c(=NC(=O)C(Cc3ccccc3)NCc3ccccc3)[nH]c2s1

>  <score_type>  (37) 
oracle

>  <origin>  (37) 
adg

>  <m_score__min__energy>  (37) 
-10.73

>  <m_primary>  (37) 
energy

$$$$
37:0
     RDKit          3D

 45 47  0  0  0  0  0  0  0  0999 V2000
   59.9110   27.6640   46.3250 C   0  0  0  0  0  0  0  0  0  0  0  0
   58.9830   28.3540   45.6440 C   0  0  0  0  0  0  0  0  0  0  0  0
   57.9660   27.8100   44.8530 C   0  0  0  0  0  0  0  0  0  0  0  0
   57.7420   26.5090   44.5860 C   0  0  0  0  0  0  0  0  0  0  0  0
   57.2540   25.5420   45.5950 C   0  0  0  0  0  0  0  0  0  0  0  0
   55.9870   25.6750   46.1920 C   0  0  0  0  0  0  0  0  0  0  0  0
   55.1460   26.7280   45.8520 O   0  0  0  0  0  0  0  0  0  0  0  0
   55.5840   24.7790   47.1300 N   0  0  0  0  0  0  0  0  0  0  0  0
   56.3890   23.7580   47.5180 C   0  0  0  0  0  0  0  0  0  0  0  0
   55.8750   22.6980   48.6470 S   0  0  0  0  0  0  0  0  0  0  0  0
   57.6280   23.6270   46.9780 N   0  0  0  0  0  0  0  0  0  0  0  0
   58.0780   24.4940   46.0360 C   0  0  0  0  0  0  0  0  0  0  0  0
   59.2350   24.3420   45.5580 O   0  0  0  0  0  0  0  0  0  0  0  0
   57.2420   28.8830   44.3570 C   0  0  0  0  0  0  0  0  0  0  0  0
   57.8350   30.0270   44.8550 C   0  0  0  0  0  0  0  0  0  0  0  0
   57.3460   31.4170   44.5830 C   0  0  0  0  0  0  0  0  0  0  0  0
   58.8920   29.7100   45.6400 N   0  0  0  0  0  0  0  0  0  0  0  0
   59.7830   30.6620   46.3230 C   0  0  0  0  0  0  0  0  0  0  0  0
   59.3170   30.9190   47.7340 C   0  0  0  0  0  0  0  0  0  0  0  0
   58.9750   32.2180   48.1420 C   0  0  0  0  0  0  0  0  0  0  0  0
   58.5540   32.4580   49.4520 C   0  0  0  0  0  0  0  0  0  0  0  0
   58.4730   31.4110   50.3780 C   0  0  0  0  0  0  0  0  0  0  0  0
   58.0300   31.7070   51.7100 N   0  0  0  0  0  0  0  0  0  0  0  0
   56.7500   30.9000   52.5560 S   0  0  0  0  0  0  0  0  0  0  0  0
   57.1050   30.8490   54.3000 C   0  0  0  0  0  0  0  0  0  0  0  0
   56.6460   29.4910   52.0440 O   0  0  0  0  0  0  0  0  0  0  0  0
   55.4450   31.6010   52.3060 O   0  0  0  0  0  0  0  0  0  0  0  0
   58.8310   30.1120   49.9760 C   0  0  0  0  0  0  0  0  0  0  0  0
   59.2530   29.8710   48.6650 C   0  0  0  0  0  0  0  0  0  0  0  0
   60.6680   28.1979   46.9182 H   0  0  0  0  0  0  0  0  0  0  0  0
   59.9146   26.5646   46.2900 H   0  0  0  0  0  0  0  0  0  0  0  0
   57.9316   26.1461   43.5650 H   0  0  0  0  0  0  0  0  0  0  0  0
   56.3650   28.8332   43.6949 H   0  0  0  0  0  0  0  0  0  0  0  0
   57.1639   31.9347   45.5363 H   0  0  0  0  0  0  0  0  0  0  0  0
   58.1048   31.9664   44.0065 H   0  0  0  0  0  0  0  0  0  0  0  0
   56.4103   31.3703   44.0065 H   0  0  0  0  0  0  0  0  0  0  0  0
   60.8011   30.2463   46.3502 H   0  0  0  0  0  0  0  0  0  0  0  0
   59.7705   31.6130   45.7704 H   0  0  0  0  0  0  0  0  0  0  0  0
   59.0389   33.0510   47.4264 H   0  0  0  0  0  0  0  0  0  0  0  0
   58.2836   33.4791   49.7590 H   0  0  0  0  0  0  0  0  0  0  0  0
   56.1726   30.9829   54.8680 H   0  0  0  0  0  0  0  0  0  0  0  0
   57.5531   29.8773   54.5547 H   0  0  0  0  0  0  0  0  0  0  0  0
   57.8086   31.6553   54.5547 H   0  0  0  0  0  0  0  0  0  0  0  0
   58.7788   29.2820   50.6959 H   0  0  0  0  0  0  0  0  0  0  0  0
   59.5369   28.8526   48.3612 H   0  0  0  0  0  0  0  0  0  0  0  0
  1  2  2  0
  2  3  1  0
  3  4  2  3
  4  5  1  0
  5  6  2  0
  6  7  1  0
  6  8  1  0
  8  9  1  0
  9 10  2  0
  9 11  1  0
 11 12  1  0
 12 13  2  0
  3 14  1  0
 14 15  2  0
 15 16  1  0
 15 17  1  0
 17 18  1  0
 18 19  1  0
 19 20  2  0
 20 21  1  0
 21 22  2  0
 22 23  1  0
 23 24  1  0
 24 25  1  0
 24 26  2  0
 24 27  2  0
 22 28  1  0
 28 29  2  0
 17  2  1  0
 29 19  1  0
 12  5  1  0
  1 30  1  0
  1 31  1  0
  4 32  1  0
 14 33  1  0
 16 34  1  0
 16 35  1  0
 16 36  1  0
 18 37  1  0
 18 38  1  0
 20 39  1  0
 21 40  1  0
 25 41  1  0
 25 42  1  0
 25 43  1  0
 28 44  1  0
 29 45  1  0
M  CHG  4   7  -1   8  -1  11  -1  23  -1
M  END
>  <UniqueID>  (38) 
37

>  <SMILES>  (38) 
C=c1c(=Cc2c([O-])[n-]c(=S)[n-]c2=O)cc(C)n1Cc1ccc([N-]S(C)(=O)=O)cc1

>  <Energy>  (38) 
83.88254964247689

>  <Genealogy>  (38) 
C=c1c(=Cc2c([O-])[n-]c(=S)[n-]c2=O)cc(C)n1Cc1ccc([N-]S(C)(=O)=O)cc1 (protonated)
C=c1c(=Cc2c([O-])[n-]c(=S)[n-]c2=O)cc(C)n1Cc1ccc([N-]S(C)(=O)=O)cc1 (3D coordinates assigned)
C=c1c(=Cc2c([O-])[n-]c(=S)[n-]c2=O)cc(C)n1Cc1ccc([N-]S(C)(=O)=O)cc1 (optimized conformer: 83.88254964247689 kcal/mol)

>  <smiles>  (38) 
C=c1c(=Cc2c(O)[nH]c(=S)[nH]c2=O)cc(C)n1Cc1ccc(NS(C)(=O)=O)cc1

>  <score_type>  (38) 
oracle

>  <origin>  (38) 
adg

>  <m_score__min__energy>  (38) 
-16.350000000000001

>  <m_primary>  (38) 
energy

$$$$
38:0
     RDKit          3D

 66 70  0  0  0  0  0  0  0  0999 V2000
   56.6590   30.9470   51.5500 C   0  0  0  0  0  0  0  0  0  0  0  0
   57.8740   31.8130   51.7530 C   0  0  0  0  0  0  0  0  0  0  0  0
   57.7530   32.9720   52.5300 C   0  0  0  0  0  0  0  0  0  0  0  0
   58.8430   33.8140   52.7060 C   0  0  0  0  0  0  0  0  0  0  0  0
   60.0620   33.5010   52.1070 C   0  0  0  0  0  0  0  0  0  0  0  0
   60.2060   32.3610   51.3560 N   0  0  0  0  0  0  0  0  0  0  0  0
   61.4180   32.0710   50.7790 C   0  0  0  0  0  0  0  0  0  0  0  0
   62.4000   32.8570   50.8910 O   0  0  0  0  0  0  0  0  0  0  0  0
   61.5890   30.8930   50.0580 C   0  0  0  0  0  0  0  0  0  0  0  0
   60.5140   30.0170   49.9230 C   0  0  0  0  0  0  0  0  0  0  0  0
   60.7050   28.7160   49.1930 C   0  0  0  0  0  0  0  0  0  0  0  0
   59.4490   28.2430   48.7100 O   0  0  0  0  0  0  0  0  0  0  0  0
   59.1240   28.1600   47.3510 C   0  0  0  0  0  0  0  0  0  0  0  0
   60.0940   27.8740   46.3730 C   0  0  0  0  0  0  0  0  0  0  0  0
   59.7370   27.8510   45.0190 C   0  0  0  0  0  0  0  0  0  0  0  0
   58.4140   28.0950   44.6360 C   0  0  0  0  0  0  0  0  0  0  0  0
   57.4350   28.3480   45.6090 C   0  0  0  0  0  0  0  0  0  0  0  0
   56.0670   28.5230   45.2190 N   0  0  0  0  0  0  0  0  0  0  0  0
   55.6560   29.4650   44.2130 C   0  0  0  0  0  0  0  0  0  0  0  0
   54.5170   29.3440   43.6850 O   0  0  0  0  0  0  0  0  0  0  0  0
   56.5410   30.5800   43.8080 C   0  0  0  0  0  0  0  0  0  0  0  0
   56.7950   30.8330   42.4520 C   0  0  0  0  0  0  0  0  0  0  0  0
   57.6030   31.9120   42.0760 C   0  0  0  0  0  0  0  0  0  0  0  0
   58.1370   32.7620   43.0500 C   0  0  0  0  0  0  0  0  0  0  0  0
   57.8880   32.5240   44.4070 C   0  0  0  0  0  0  0  0  0  0  0  0
   58.5190   33.6160   45.6410 S   0  0  0  0  0  0  0  0  0  0  0  0
   59.5690   34.4950   45.0200 O   0  0  0  0  0  0  0  0  0  0  0  0
   57.3990   34.4930   46.1230 O   0  0  0  0  0  0  0  0  0  0  0  0
   59.1550   32.7160   47.0060 N   0  0  0  0  0  0  0  0  0  0  0  0
   60.4710   32.0960   46.7510 C   0  0  0  0  0  0  0  0  0  0  0  0
   61.6250   33.1090   46.8010 C   0  0  0  0  0  0  0  0  0  0  0  0
   61.6150   33.8690   48.1280 C   0  0  0  0  0  0  0  0  0  0  0  0
   60.2530   34.5180   48.3790 C   0  0  0  0  0  0  0  0  0  0  0  0
   59.1170   33.4860   48.2670 C   0  0  0  0  0  0  0  0  0  0  0  0
   57.1010   31.4240   44.7810 C   0  0  0  0  0  0  0  0  0  0  0  0
   57.8010   28.4050   46.9620 C   0  0  0  0  0  0  0  0  0  0  0  0
   59.3110   30.3380   50.4730 N   0  0  0  0  0  0  0  0  0  0  0  0
   59.1370   31.4980   51.1810 C   0  0  0  0  0  0  0  0  0  0  0  0
   56.2493   30.6550   52.5282 H   0  0  0  0  0  0  0  0  0  0  0  0
   55.8988   31.5081   50.9868 H   0  0  0  0  0  0  0  0  0  0  0  0
   56.9414   30.0453   50.9868 H   0  0  0  0  0  0  0  0  0  0  0  0
   56.7903   33.2163   53.0028 H   0  0  0  0  0  0  0  0  0  0  0  0
   58.7449   34.7243   53.3157 H   0  0  0  0  0  0  0  0  0  0  0  0
   60.9202   34.1766   52.2378 H   0  0  0  0  0  0  0  0  0  0  0  0
   62.5609   30.6564   49.6003 H   0  0  0  0  0  0  0  0  0  0  0  0
   61.3877   28.8704   48.3444 H   0  0  0  0  0  0  0  0  0  0  0  0
   61.1319   27.9726   49.8822 H   0  0  0  0  0  0  0  0  0  0  0  0
   61.1325   27.6685   46.6717 H   0  0  0  0  0  0  0  0  0  0  0  0
   60.4993   27.6404   44.2544 H   0  0  0  0  0  0  0  0  0  0  0  0
   58.1406   28.0886   43.5705 H   0  0  0  0  0  0  0  0  0  0  0  0
   56.3576   30.1811   41.6815 H   0  0  0  0  0  0  0  0  0  0  0  0
   57.8185   32.0920   41.0124 H   0  0  0  0  0  0  0  0  0  0  0  0
   58.7549   33.6207   42.7487 H   0  0  0  0  0  0  0  0  0  0  0  0
   60.6488   31.3225   47.5127 H   0  0  0  0  0  0  0  0  0  0  0  0
   60.4464   31.6711   45.7367 H   0  0  0  0  0  0  0  0  0  0  0  0
   62.5806   32.5741   46.6976 H   0  0  0  0  0  0  0  0  0  0  0  0
   61.5017   33.8288   45.9784 H   0  0  0  0  0  0  0  0  0  0  0  0
   61.8350   33.1671   48.9459 H   0  0  0  0  0  0  0  0  0  0  0  0
   62.3772   34.6609   48.0835 H   0  0  0  0  0  0  0  0  0  0  0  0
   60.2437   34.9540   49.3889 H   0  0  0  0  0  0  0  0  0  0  0  0
   60.0926   35.2972   47.6193 H   0  0  0  0  0  0  0  0  0  0  0  0
   59.1986   32.7829   49.1090 H   0  0  0  0  0  0  0  0  0  0  0  0
   58.1673   34.0407   48.2839 H   0  0  0  0  0  0  0  0  0  0  0  0
   56.9209   31.2207   45.8469 H   0  0  0  0  0  0  0  0  0  0  0  0
   57.0434   28.6438   47.7230 H   0  0  0  0  0  0  0  0  0  0  0  0
   58.5240   29.6610   50.3590 H   0  0  0  0  0  0  0  0  0  0  0  0
  1  2  1  0
  2  3  2  0
  3  4  1  0
  4  5  2  0
  5  6  1  0
  6  7  1  0
  7  8  2  0
  7  9  1  0
  9 10  2  0
 10 11  1  0
 11 12  1  0
 12 13  1  0
 13 14  2  0
 14 15  1  0
 15 16  2  0
 16 17  1  0
 17 18  1  0
 18 19  1  0
 19 20  2  0
 19 21  1  0
 21 22  2  0
 22 23  1  0
 23 24  2  0
 24 25  1  0
 25 26  1  0
 26 27  2  0
 26 28  2  0
 26 29  1  0
 29 30  1  0
 30 31  1  0
 31 32  1  0
 32 33  1  0
 33 34  1  0
 25 35  2  0
 17 36  2  0
 10 37  1  0
 37 38  2  0
 38  2  1  0
 38  6  1  0
 36 13  1  0
 35 21  1  0
 34 29  1  0
  1 39  1  0
  1 40  1  0
  1 41  1  0
  3 42  1  0
  4 43  1  0
  5 44  1  0
  9 45  1  0
 11 46  1  0
 11 47  1  0
 14 48  1  0
 15 49  1  0
 16 50  1  0
 22 51  1  0
 23 52  1  0
 24 53  1  0
 30 54  1  0
 30 55  1  0
 31 56  1  0
 31 57  1  0
 32 58  1  0
 32 59  1  0
 33 60  1  0
 33 61  1  0
 34 62  1  0
 34 63  1  0
 35 64  1  0
 36 65  1  0
 37 66  1  0
M  CHG  2  18  -1  37   1
M  END
>  <UniqueID>  (39) 
38

>  <SMILES>  (39) 
Cc1cccn2c(=O)cc(COc3cccc([N-]C(=O)c4cccc(S(=O)(=O)N5CCCCC5)c4)c3)[nH+]c12

>  <Energy>  (39) 
83.34586978443349

>  <Genealogy>  (39) 
Cc1cccn2c(=O)cc(COc3cccc([N-]C(=O)c4cccc(S(=O)(=O)N5CCCCC5)c4)c3)[nH+]c12 (protonated)
Cc1cccn2c(=O)cc(COc3cccc([N-]C(=O)c4cccc(S(=O)(=O)N5CCCCC5)c4)c3)[nH+]c12 (3D coordinates assigned)
Cc1cccn2c(=O)cc(COc3cccc([N-]C(=O)c4cccc(S(=O)(=O)N5CCCCC5)c4)c3)[nH+]c12 (nonaromatic ring conformer: 83.34586978443349 kcal/mol)

>  <smiles>  (39) 
Cc1cccn2c(=O)cc(COc3cccc(NC(=O)c4cccc(S(=O)(=O)N5CCCCC5)c4)c3)nc12

>  <score_type>  (39) 
oracle

>  <origin>  (39) 
adg

>  <m_score__min__energy>  (39) 
-11.220000000000001

>  <m_primary>  (39) 
energy

$$$$
39:0
     RDKit          3D

 52 55  0  0  0  0  0  0  0  0999 V2000
   56.9280   20.7790   42.9640 C   0  0  0  0  0  0  0  0  0  0  0  0
   55.9680   21.8300   42.9470 O   0  0  0  0  0  0  0  0  0  0  0  0
   55.9990   22.9450   43.7980 C   0  0  0  0  0  0  0  0  0  0  0  0
   54.9220   23.2820   44.6410 C   0  0  0  0  0  0  0  0  0  0  0  0
   55.0000   24.4040   45.4710 C   0  0  0  0  0  0  0  0  0  0  0  0
   56.1510   25.2070   45.4700 C   0  0  0  0  0  0  0  0  0  0  0  0
   56.2520   26.4020   46.3800 C   0  0  0  0  0  0  0  0  0  0  0  0
   57.6350   26.6000   46.8050 N   0  0  0  0  0  0  0  0  0  0  0  0
   58.2370   27.8880   46.9620 C   0  0  0  0  0  0  0  0  0  0  0  0
   58.1800   28.4850   48.0710 O   0  0  0  0  0  0  0  0  0  0  0  0
   58.8540   28.5080   45.8290 N   0  0  0  0  0  0  0  0  0  0  0  0
   58.2380   29.4490   44.9370 C   0  0  0  0  0  0  0  0  0  0  0  0
   57.2500   28.9940   44.0570 C   0  0  0  0  0  0  0  0  0  0  0  0
   56.6430   29.8750   43.1600 C   0  0  0  0  0  0  0  0  0  0  0  0
   57.0280   31.2160   43.1240 C   0  0  0  0  0  0  0  0  0  0  0  0
   58.0370   31.6870   43.9860 C   0  0  0  0  0  0  0  0  0  0  0  0
   58.4770   33.0220   43.9810 O   0  0  0  0  0  0  0  0  0  0  0  0
   58.1590   34.0010   44.9700 C   0  0  0  0  0  0  0  0  0  0  0  0
   59.1760   33.9900   46.0740 C   0  0  0  0  0  0  0  0  0  0  0  0
   58.7840   34.1510   47.4020 C   0  0  0  0  0  0  0  0  0  0  0  0
   59.7590   34.1410   48.4020 C   0  0  0  0  0  0  0  0  0  0  0  0
   59.3980   34.2890   49.6030 O   0  0  0  0  0  0  0  0  0  0  0  0
   61.0830   33.9750   48.0750 N   0  0  0  0  0  0  0  0  0  0  0  0
   62.0500   33.9660   49.0490 C   0  0  0  0  0  0  0  0  0  0  0  0
   63.3960   33.7980   48.7170 C   0  0  0  0  0  0  0  0  0  0  0  0
   63.7600   33.6370   47.3830 C   0  0  0  0  0  0  0  0  0  0  0  0
   62.7790   33.6450   46.3930 C   0  0  0  0  0  0  0  0  0  0  0  0
   61.4380   33.8150   46.7530 C   0  0  0  0  0  0  0  0  0  0  0  0
   60.4900   33.8230   45.7810 N   0  0  0  0  0  0  0  0  0  0  0  0
   58.6410   30.7960   44.8830 C   0  0  0  0  0  0  0  0  0  0  0  0
   57.2260   24.8680   44.6340 C   0  0  0  0  0  0  0  0  0  0  0  0
   57.1460   23.7460   43.8040 C   0  0  0  0  0  0  0  0  0  0  0  0
   57.1669   20.5174   44.0054 H   0  0  0  0  0  0  0  0  0  0  0  0
   56.5163   19.8980   42.4499 H   0  0  0  0  0  0  0  0  0  0  0  0
   57.8426   21.1094   42.4499 H   0  0  0  0  0  0  0  0  0  0  0  0
   54.0153   22.6593   44.6462 H   0  0  0  0  0  0  0  0  0  0  0  0
   54.1553   24.6587   46.1280 H   0  0  0  0  0  0  0  0  0  0  0  0
   55.9057   27.2974   45.8430 H   0  0  0  0  0  0  0  0  0  0  0  0
   55.6260   26.2295   47.2679 H   0  0  0  0  0  0  0  0  0  0  0  0
   56.9497   27.9359   44.0720 H   0  0  0  0  0  0  0  0  0  0  0  0
   55.8590   29.5111   42.4796 H   0  0  0  0  0  0  0  0  0  0  0  0
   56.5417   31.9073   42.4200 H   0  0  0  0  0  0  0  0  0  0  0  0
   58.1453   34.9962   44.5016 H   0  0  0  0  0  0  0  0  0  0  0  0
   57.1724   33.7659   45.3958 H   0  0  0  0  0  0  0  0  0  0  0  0
   57.7226   34.2839   47.6585 H   0  0  0  0  0  0  0  0  0  0  0  0
   61.7615   34.0925   50.1029 H   0  0  0  0  0  0  0  0  0  0  0  0
   64.1638   33.7929   49.5047 H   0  0  0  0  0  0  0  0  0  0  0  0
   64.8176   33.5040   47.1114 H   0  0  0  0  0  0  0  0  0  0  0  0
   63.0572   33.5186   45.3363 H   0  0  0  0  0  0  0  0  0  0  0  0
   59.4381   31.1531   45.5516 H   0  0  0  0  0  0  0  0  0  0  0  0
   58.1350   25.4875   44.6318 H   0  0  0  0  0  0  0  0  0  0  0  0
   57.9926   23.4906   43.1497 H   0  0  0  0  0  0  0  0  0  0  0  0
  1  2  1  0
  2  3  1  0
  3  4  2  0
  4  5  1  0
  5  6  2  0
  6  7  1  0
  7  8  1  0
  8  9  1  0
  9 10  2  0
  9 11  1  0
 11 12  1  0
 12 13  2  0
 13 14  1  0
 14 15  2  0
 15 16  1  0
 16 17  1  0
 17 18  1  0
 18 19  1  0
 19 20  2  0
 20 21  1  0
 21 22  2  0
 21 23  1  0
 23 24  1  0
 24 25  2  0
 25 26  1  0
 26 27  2  0
 27 28  1  0
 28 29  2  0
 16 30  2  0
  6 31  1  0
 31 32  2  0
 32  3  1  0
 30 12  1  0
 29 19  1  0
 28 23  1  0
  1 33  1  0
  1 34  1  0
  1 35  1  0
  4 36  1  0
  5 37  1  0
  7 38  1  0
  7 39  1  0
 13 40  1  0
 14 41  1  0
 15 42  1  0
 18 43  1  0
 18 44  1  0
 20 45  1  0
 24 46  1  0
 25 47  1  0
 26 48  1  0
 27 49  1  0
 30 50  1  0
 31 51  1  0
 32 52  1  0
M  CHG  2   8  -1  11  -1
M  END
>  <UniqueID>  (40) 
39

>  <SMILES>  (40) 
COc1ccc(C[N-]C(=O)[N-]c2cccc(OCc3cc(=O)n4ccccc4n3)c2)cc1

>  <Energy>  (40) 
61.598500829380214

>  <Genealogy>  (40) 
COc1ccc(C[N-]C(=O)[N-]c2cccc(OCc3cc(=O)n4ccccc4n3)c2)cc1 (protonated)
COc1ccc(C[N-]C(=O)[N-]c2cccc(OCc3cc(=O)n4ccccc4n3)c2)cc1 (3D coordinates assigned)
COc1ccc(C[N-]C(=O)[N-]c2cccc(OCc3cc(=O)n4ccccc4n3)c2)cc1 (optimized conformer: 61.598500829380214 kcal/mol)

>  <smiles>  (40) 
COc1ccc(CNC(=O)Nc2cccc(OCc3cc(=O)n4ccccc4n3)c2)cc1

>  <score_type>  (40) 
oracle

>  <origin>  (40) 
adg

>  <m_score__min__energy>  (40) 
-12.27

>  <m_primary>  (40) 
energy

$$$$
40:0
     RDKit          3D

 68 71  0  0  0  0  0  0  0  0999 V2000
   59.2200   29.8150   49.8910 O   0  0  0  0  0  0  0  0  0  0  0  0
   59.2900   30.6410   48.9410 C   0  0  0  0  0  0  0  0  0  0  0  0
   60.0280   30.3120   47.7520 N   0  0  0  0  0  0  0  0  0  0  0  0
   60.6440   29.0020   47.5310 C   0  0  0  0  0  0  0  0  0  0  0  0
   60.3800   28.5170   46.1030 C   0  0  0  0  0  0  0  0  0  0  0  0
   59.2570   27.5150   46.0680 C   0  0  0  0  0  0  0  0  0  0  0  0
   58.1300   27.7420   45.2610 C   0  0  0  0  0  0  0  0  0  0  0  0
   57.0550   26.8490   45.2860 C   0  0  0  0  0  0  0  0  0  0  0  0
   57.0890   25.7280   46.1240 C   0  0  0  0  0  0  0  0  0  0  0  0
   55.6920   24.6560   46.2270 S   0  0  0  0  0  0  0  0  0  0  0  0
   55.5530   24.1810   47.6470 O   0  0  0  0  0  0  0  0  0  0  0  0
   54.4480   25.4250   45.8770 O   0  0  0  0  0  0  0  0  0  0  0  0
   55.8310   23.2700   45.1610 N   0  0  0  0  0  0  0  0  0  0  0  0
   55.7040   23.6330   43.7370 C   0  0  0  0  0  0  0  0  0  0  0  0
   57.0210   24.1610   43.1250 C   0  0  0  0  0  0  0  0  0  0  0  0
   58.1330   24.0370   43.9940 O   0  0  0  0  0  0  0  0  0  0  0  0
   58.1990   22.7240   44.5040 C   0  0  0  0  0  0  0  0  0  0  0  0
   57.0170   22.4380   45.4470 C   0  0  0  0  0  0  0  0  0  0  0  0
   58.2200   25.4900   46.9180 C   0  0  0  0  0  0  0  0  0  0  0  0
   59.2940   26.3840   46.8970 C   0  0  0  0  0  0  0  0  0  0  0  0
   58.6330   31.9590   49.0620 C   0  0  0  0  0  0  0  0  0  0  0  0
   58.0510   32.2440   50.1440 O   0  0  0  0  0  0  0  0  0  0  0  0
   58.6220   32.9090   47.9730 N   0  0  0  0  0  0  0  0  0  0  0  0
   57.4190   33.0350   47.1310 C   0  0  0  0  0  0  0  0  0  0  0  0
   57.6590   32.5550   45.7200 C   0  0  0  0  0  0  0  0  0  0  0  0
   57.7430   31.1760   45.4550 C   0  0  0  0  0  0  0  0  0  0  0  0
   58.0000   30.7150   44.1610 C   0  0  0  0  0  0  0  0  0  0  0  0
   58.1780   31.6240   43.1190 C   0  0  0  0  0  0  0  0  0  0  0  0
   58.0990   32.9980   43.3680 C   0  0  0  0  0  0  0  0  0  0  0  0
   57.8420   33.4660   44.6620 C   0  0  0  0  0  0  0  0  0  0  0  0
   57.7600   34.8020   44.8730 F   0  0  0  0  0  0  0  0  0  0  0  0
   59.7180   34.2670   48.0470 S   0  0  0  0  0  0  0  0  0  0  0  0
   59.6070   34.9610   49.3760 O   0  0  0  0  0  0  0  0  0  0  0  0
   59.3760   35.2690   46.9800 O   0  0  0  0  0  0  0  0  0  0  0  0
   61.3670   33.6970   47.8060 C   0  0  0  0  0  0  0  0  0  0  0  0
   62.0210   33.9230   46.5870 C   0  0  0  0  0  0  0  0  0  0  0  0
   63.3200   33.4430   46.3850 C   0  0  0  0  0  0  0  0  0  0  0  0
   63.9660   32.7280   47.3990 C   0  0  0  0  0  0  0  0  0  0  0  0
   63.3180   32.4980   48.6170 C   0  0  0  0  0  0  0  0  0  0  0  0
   62.0220   32.9830   48.8220 C   0  0  0  0  0  0  0  0  0  0  0  0
   60.1650   31.0450   47.0160 H   0  0  0  0  0  0  0  0  0  0  0  0
   61.7294   29.0811   47.6912 H   0  0  0  0  0  0  0  0  0  0  0  0
   60.2070   28.2807   48.2372 H   0  0  0  0  0  0  0  0  0  0  0  0
   60.1114   29.3792   45.4750 H   0  0  0  0  0  0  0  0  0  0  0  0
   61.2921   28.0317   45.7254 H   0  0  0  0  0  0  0  0  0  0  0  0
   58.0933   28.6257   44.6070 H   0  0  0  0  0  0  0  0  0  0  0  0
   56.1791   27.0276   44.6449 H   0  0  0  0  0  0  0  0  0  0  0  0
   55.3901   22.7409   43.1752 H   0  0  0  0  0  0  0  0  0  0  0  0
   54.9638   24.4440   43.6705 H   0  0  0  0  0  0  0  0  0  0  0  0
   57.2310   23.5936   42.2063 H   0  0  0  0  0  0  0  0  0  0  0  0
   56.8807   25.2339   42.9271 H   0  0  0  0  0  0  0  0  0  0  0  0
   58.1717   22.0112   43.6667 H   0  0  0  0  0  0  0  0  0  0  0  0
   59.1346   22.6157   45.0723 H   0  0  0  0  0  0  0  0  0  0  0  0
   56.7351   21.3798   45.3434 H   0  0  0  0  0  0  0  0  0  0  0  0
   57.3473   22.6792   46.4681 H   0  0  0  0  0  0  0  0  0  0  0  0
   58.2620   24.5972   47.5592 H   0  0  0  0  0  0  0  0  0  0  0  0
   60.1722   26.2000   47.5333 H   0  0  0  0  0  0  0  0  0  0  0  0
   56.6105   32.4366   47.5762 H   0  0  0  0  0  0  0  0  0  0  0  0
   57.1489   34.1003   47.0844 H   0  0  0  0  0  0  0  0  0  0  0  0
   57.6052   30.4542   46.2735 H   0  0  0  0  0  0  0  0  0  0  0  0
   58.0619   29.6345   43.9645 H   0  0  0  0  0  0  0  0  0  0  0  0
   58.3806   31.2605   42.1008 H   0  0  0  0  0  0  0  0  0  0  0  0
   58.2393   33.7133   42.5442 H   0  0  0  0  0  0  0  0  0  0  0  0
   61.5115   34.4795   45.7865 H   0  0  0  0  0  0  0  0  0  0  0  0
   63.8327   33.6279   45.4295 H   0  0  0  0  0  0  0  0  0  0  0  0
   64.9850   32.3461   47.2383 H   0  0  0  0  0  0  0  0  0  0  0  0
   63.8274   31.9358   49.4136 H   0  0  0  0  0  0  0  0  0  0  0  0
   61.5148   32.8045   49.7816 H   0  0  0  0  0  0  0  0  0  0  0  0
  1  2  2  0
  2  3  1  0
  3  4  1  0
  4  5  1  0
  5  6  1  0
  6  7  2  0
  7  8  1  0
  8  9  2  0
  9 10  1  0
 10 11  2  0
 10 12  2  0
 10 13  1  0
 13 14  1  0
 14 15  1  0
 15 16  1  0
 16 17  1  0
 17 18  1  0
  9 19  1  0
 19 20  2  0
  2 21  1  0
 21 22  2  0
 21 23  1  0
 23 24  1  0
 24 25  1  0
 25 26  2  0
 26 27  1  0
 27 28  2  0
 28 29  1  0
 29 30  2  0
 30 31  1  0
 23 32  1  0
 32 33  2  0
 32 34  2  0
 32 35  1  0
 35 36  2  0
 36 37  1  0
 37 38  2  0
 38 39  1  0
 39 40  2  0
 20  6  1  0
 30 25  1  0
 40 35  1  0
 18 13  1  0
  3 41  1  0
  4 42  1  0
  4 43  1  0
  5 44  1  0
  5 45  1  0
  7 46  1  0
  8 47  1  0
 14 48  1  0
 14 49  1  0
 15 50  1  0
 15 51  1  0
 17 52  1  0
 17 53  1  0
 18 54  1  0
 18 55  1  0
 19 56  1  0
 20 57  1  0
 24 58  1  0
 24 59  1  0
 26 60  1  0
 27 61  1  0
 28 62  1  0
 29 63  1  0
 36 64  1  0
 37 65  1  0
 38 66  1  0
 39 67  1  0
 40 68  1  0
M  END
>  <UniqueID>  (41) 
40

>  <SMILES>  (41) 
O=C(NCCc1ccc(S(=O)(=O)N2CCOCC2)cc1)C(=O)N(Cc1ccccc1F)S(=O)(=O)c1ccccc1

>  <Energy>  (41) 
79.91842522993798

>  <Genealogy>  (41) 
O=C(NCCc1ccc(S(=O)(=O)N2CCOCC2)cc1)C(=O)N(Cc1ccccc1F)S(=O)(=O)c1ccccc1 (3D coordinates assigned)
O=C(NCCc1ccc(S(=O)(=O)N2CCOCC2)cc1)C(=O)N(Cc1ccccc1F)S(=O)(=O)c1ccccc1 (nonaromatic ring conformer: 79.91842522993798 kcal/mol)

>  <smiles>  (41) 
O=C(NCCc1ccc(S(=O)(=O)N2CCOCC2)cc1)C(=O)N(Cc1ccccc1F)S(=O)(=O)c1ccccc1

>  <score_type>  (41) 
oracle

>  <origin>  (41) 
adg

>  <m_score__min__energy>  (41) 
-11.359999999999999

>  <m_primary>  (41) 
energy

$$$$
41:0
     RDKit          3D

 59 63  0  0  0  0  0  0  0  0999 V2000
   64.2720   33.1150   48.7830 C   0  0  0  0  0  0  0  0  0  0  0  0
   62.8230   32.8860   48.9160 N   0  0  0  0  0  0  0  0  0  0  0  0
   62.3330   32.0750   47.7870 C   0  0  0  0  0  0  0  0  0  0  0  0
   60.8160   31.8300   47.8880 C   0  0  0  0  0  0  0  0  0  0  0  0
   60.0370   33.0630   48.1150 N   0  0  0  0  0  0  0  0  0  0  0  0
   59.5470   33.8790   46.6420 S   0  0  0  0  0  0  0  0  0  0  0  0
   58.5960   34.9840   47.0050 O   0  0  0  0  0  0  0  0  0  0  0  0
   60.7460   34.5110   45.9920 O   0  0  0  0  0  0  0  0  0  0  0  0
   58.7530   32.8230   45.4720 C   0  0  0  0  0  0  0  0  0  0  0  0
   58.4550   33.2990   44.1880 C   0  0  0  0  0  0  0  0  0  0  0  0
   57.8500   32.4610   43.2500 C   0  0  0  0  0  0  0  0  0  0  0  0
   57.5470   31.1400   43.5830 C   0  0  0  0  0  0  0  0  0  0  0  0
   57.8520   30.6400   44.8600 C   0  0  0  0  0  0  0  0  0  0  0  0
   57.5370   29.2360   45.2090 C   0  0  0  0  0  0  0  0  0  0  0  0
   56.2620   28.7580   45.2630 N   0  0  0  0  0  0  0  0  0  0  0  0
   56.4550   27.4810   45.6110 C   0  0  0  0  0  0  0  0  0  0  0  0
   55.5010   26.5470   45.8270 N   0  0  0  0  0  0  0  0  0  0  0  0
   55.8880   25.2920   46.2130 C   0  0  0  0  0  0  0  0  0  0  0  0
   54.9810   24.3720   46.3680 N   0  0  0  0  0  0  0  0  0  0  0  0
   55.1070   23.1860   47.1660 C   0  0  0  0  0  0  0  0  0  0  0  0
   55.0310   23.2520   48.4250 O   0  0  0  0  0  0  0  0  0  0  0  0
   55.2770   21.8630   46.4690 C   0  0  0  0  0  0  0  0  0  0  0  0
   56.4740   21.8170   45.5480 C   0  0  0  0  0  0  0  0  0  0  0  0
   56.3000   21.7170   44.1560 C   0  0  0  0  0  0  0  0  0  0  0  0
   57.4090   21.7250   43.3050 C   0  0  0  0  0  0  0  0  0  0  0  0
   58.6990   21.8290   43.8340 C   0  0  0  0  0  0  0  0  0  0  0  0
   58.8810   21.9270   45.2160 C   0  0  0  0  0  0  0  0  0  0  0  0
   57.7760   21.9300   46.0720 C   0  0  0  0  0  0  0  0  0  0  0  0
   57.2240   25.0080   46.3770 N   0  0  0  0  0  0  0  0  0  0  0  0
   58.1830   25.9570   46.1660 C   0  0  0  0  0  0  0  0  0  0  0  0
   59.4020   25.6890   46.3390 O   0  0  0  0  0  0  0  0  0  0  0  0
   57.7690   27.2190   45.7660 C   0  0  0  0  0  0  0  0  0  0  0  0
   58.4960   28.3170   45.5170 N   0  0  0  0  0  0  0  0  0  0  0  0
   58.4660   31.4880   45.7980 C   0  0  0  0  0  0  0  0  0  0  0  0
   60.6050   33.9550   49.1430 C   0  0  0  0  0  0  0  0  0  0  0  0
   62.1110   34.1750   48.9660 C   0  0  0  0  0  0  0  0  0  0  0  0
   64.7252   33.1866   49.7827 H   0  0  0  0  0  0  0  0  0  0  0  0
   64.7267   32.2776   48.2335 H   0  0  0  0  0  0  0  0  0  0  0  0
   64.4462   34.0518   48.2335 H   0  0  0  0  0  0  0  0  0  0  0  0
   62.6610   32.3630   49.8120 H   0  0  0  0  0  0  0  0  0  0  0  0
   62.5484   32.6035   46.8466 H   0  0  0  0  0  0  0  0  0  0  0  0
   62.8435   31.1010   47.8131 H   0  0  0  0  0  0  0  0  0  0  0  0
   60.4740   31.3692   46.9495 H   0  0  0  0  0  0  0  0  0  0  0  0
   60.6498   31.1762   48.7569 H   0  0  0  0  0  0  0  0  0  0  0  0
   58.6989   34.3372   43.9183 H   0  0  0  0  0  0  0  0  0  0  0  0
   57.6115   32.8425   42.2462 H   0  0  0  0  0  0  0  0  0  0  0  0
   57.0662   30.4860   42.8407 H   0  0  0  0  0  0  0  0  0  0  0  0
   55.3946   21.0798   47.2324 H   0  0  0  0  0  0  0  0  0  0  0  0
   54.3834   21.7077   45.8466 H   0  0  0  0  0  0  0  0  0  0  0  0
   55.2872   21.6322   43.7352 H   0  0  0  0  0  0  0  0  0  0  0  0
   57.2664   21.6493   42.2169 H   0  0  0  0  0  0  0  0  0  0  0  0
   59.5703   21.8337   43.1626 H   0  0  0  0  0  0  0  0  0  0  0  0
   59.8968   22.0020   45.6314 H   0  0  0  0  0  0  0  0  0  0  0  0
   57.9240   22.0209   47.1582 H   0  0  0  0  0  0  0  0  0  0  0  0
   58.7237   31.1025   46.7955 H   0  0  0  0  0  0  0  0  0  0  0  0
   60.0974   34.9291   49.0836 H   0  0  0  0  0  0  0  0  0  0  0  0
   60.4512   33.4761   50.1212 H   0  0  0  0  0  0  0  0  0  0  0  0
   62.2883   34.7221   48.0283 H   0  0  0  0  0  0  0  0  0  0  0  0
   62.4870   34.7539   49.8224 H   0  0  0  0  0  0  0  0  0  0  0  0
  1  2  1  0
  2  3  1  0
  3  4  1  0
  4  5  1  0
  5  6  1  0
  6  7  2  0
  6  8  2  0
  6  9  1  0
  9 10  2  0
 10 11  1  0
 11 12  2  0
 12 13  1  0
 13 14  1  0
 14 15  2  0
 15 16  1  0
 16 17  1  0
 17 18  1  0
 18 19  2  3
 19 20  1  0
 20 21  2  0
 20 22  1  0
 22 23  1  0
 23 24  2  0
 24 25  1  0
 25 26  2  0
 26 27  1  0
 27 28  2  0
 18 29  1  0
 29 30  1  0
 30 31  2  0
 30 32  1  0
 32 33  1  0
 13 34  2  0
  5 35  1  0
 35 36  1  0
 36  2  1  0
 34  9  1  0
 33 14  1  0
 32 16  2  0
 28 23  1  0
  1 37  1  0
  1 38  1  0
  1 39  1  0
  2 40  1  0
  3 41  1  0
  3 42  1  0
  4 43  1  0
  4 44  1  0
 10 45  1  0
 11 46  1  0
 12 47  1  0
 22 48  1  0
 22 49  1  0
 24 50  1  0
 25 51  1  0
 26 52  1  0
 27 53  1  0
 28 54  1  0
 34 55  1  0
 35 56  1  0
 35 57  1  0
 36 58  1  0
 36 59  1  0
M  CHG  4   2   1  17  -1  29  -1  33  -1
M  END
>  <UniqueID>  (42) 
41

>  <SMILES>  (42) 
C[NH+]1CCN(S(=O)(=O)c2cccc(-c3nc4[n-]c(=NC(=O)Cc5ccccc5)[n-]c(=O)c4[n-]3)c2)CC1

>  <Energy>  (42) 
112.00954468375251

>  <Genealogy>  (42) 
C[NH+]1CCN(S(=O)(=O)c2cccc(-c3nc4[n-]c(=NC(=O)Cc5ccccc5)[n-]c(=O)c4[n-]3)c2)CC1 (protonated)
C[NH+]1CCN(S(=O)(=O)c2cccc(-c3nc4[n-]c(=NC(=O)Cc5ccccc5)[n-]c(=O)c4[n-]3)c2)CC1 (3D coordinates assigned)
C[NH+]1CCN(S(=O)(=O)c2cccc(-c3nc4[n-]c(=NC(=O)Cc5ccccc5)[n-]c(=O)c4[n-]3)c2)CC1 (nonaromatic ring conformer: 112.00954468375251 kcal/mol)

>  <smiles>  (42) 
CN1CCN(S(=O)(=O)c2cccc(-c3nc4[nH]c(=NC(=O)Cc5ccccc5)[nH]c(=O)c4[nH]3)c2)CC1

>  <score_type>  (42) 
oracle

>  <origin>  (42) 
adg

>  <m_score__min__energy>  (42) 
-13.449999999999999

>  <m_primary>  (42) 
energy

$$$$
42:0
     RDKit          3D

 59 62  0  0  0  0  0  0  0  0999 V2000
   60.2652   29.5490   47.9658 H   0  0  0  0  0  0  0  0  0  0  0  0
   59.7540   30.2150   47.2550 C   0  0  0  0  0  0  0  0  0  0  0  0
   60.1540   31.4830   47.1360 C   0  0  0  0  0  0  0  0  0  0  0  0
   61.2540   31.9580   48.0050 C   0  0  0  0  0  0  0  0  0  0  0  0
   62.5690   31.5890   47.6950 C   0  0  0  0  0  0  0  0  0  0  0  0
   62.7653   30.9511   46.8206 H   0  0  0  0  0  0  0  0  0  0  0  0
   63.6330   32.0250   48.4880 C   0  0  0  0  0  0  0  0  0  0  0  0
   64.6630   31.7435   48.2236 H   0  0  0  0  0  0  0  0  0  0  0  0
   63.3960   32.8200   49.6200 C   0  0  0  0  0  0  0  0  0  0  0  0
   64.5450   33.3330   50.4510 C   0  0  0  0  0  0  0  0  0  0  0  0
   64.2170   34.5740   50.9630 F   0  0  0  0  0  0  0  0  0  0  0  0
   64.8090   32.4670   51.4990 F   0  0  0  0  0  0  0  0  0  0  0  0
   65.6940   33.4490   49.6880 F   0  0  0  0  0  0  0  0  0  0  0  0
   62.0780   33.2080   49.9200 C   0  0  0  0  0  0  0  0  0  0  0  0
   61.8878   33.8599   50.7854 H   0  0  0  0  0  0  0  0  0  0  0  0
   61.0010   32.7740   49.1290 C   0  0  0  0  0  0  0  0  0  0  0  0
   59.5960   33.1800   49.4910 C   0  0  0  0  0  0  0  0  0  0  0  0
   59.4935   33.2096   50.5858 H   0  0  0  0  0  0  0  0  0  0  0  0
   59.3837   34.1762   49.0757 H   0  0  0  0  0  0  0  0  0  0  0  0
   58.8850   32.4506   49.0757 H   0  0  0  0  0  0  0  0  0  0  0  0
   59.5040   32.3750   46.1980 N   0  0  0  0  0  0  0  0  0  0  0  0
   58.2730   31.9610   45.5380 C   0  0  0  0  0  0  0  0  0  0  0  0
   57.8560   30.6730   45.6290 C   0  0  0  0  0  0  0  0  0  0  0  0
   56.6680   30.2370   44.9170 C   0  0  0  0  0  0  0  0  0  0  0  0
   55.7200   29.8900   44.3500 N   0  0  0  0  0  0  0  0  0  0  0  0
   58.6330   29.6940   46.4440 C   0  0  0  0  0  0  0  0  0  0  0  0
   58.2920   28.3860   46.4820 C   0  0  0  0  0  0  0  0  0  0  0  0
   58.1080   27.9363   47.4689 H   0  0  0  0  0  0  0  0  0  0  0  0
   58.1480   27.5150   45.2950 C   0  0  0  0  0  0  0  0  0  0  0  0
   58.6090   27.9270   44.0340 C   0  0  0  0  0  0  0  0  0  0  0  0
   59.1180   28.8961   43.9257 H   0  0  0  0  0  0  0  0  0  0  0  0
   58.4230   27.1100   42.9180 C   0  0  0  0  0  0  0  0  0  0  0  0
   58.7976   27.4305   41.9347 H   0  0  0  0  0  0  0  0  0  0  0  0
   57.7620   25.8860   43.0470 C   0  0  0  0  0  0  0  0  0  0  0  0
   57.6226   25.2458   42.1634 H   0  0  0  0  0  0  0  0  0  0  0  0
   57.2740   25.4660   44.2950 C   0  0  0  0  0  0  0  0  0  0  0  0
   56.5870   24.2030   44.3860 N   0  0  0  0  0  0  0  0  0  0  0  0
   57.0090   23.3670   43.9240 H   0  0  0  0  0  0  0  0  0  0  0  0
   55.1600   23.9280   45.3360 S   0  0  0  0  0  0  0  0  0  0  0  0
   54.0810   23.3860   44.4430 O   0  0  0  0  0  0  0  0  0  0  0  0
   54.6840   25.2210   45.9380 O   0  0  0  0  0  0  0  0  0  0  0  0
   55.4910   22.7320   46.6120 C   0  0  0  0  0  0  0  0  0  0  0  0
   55.3609   23.2022   47.5979 H   0  0  0  0  0  0  0  0  0  0  0  0
   54.7927   21.8878   46.5133 H   0  0  0  0  0  0  0  0  0  0  0  0
   56.5239   22.3669   46.5133 H   0  0  0  0  0  0  0  0  0  0  0  0
   57.4570   26.3000   45.4140 C   0  0  0  0  0  0  0  0  0  0  0  0
   57.0542   25.9960   46.3914 H   0  0  0  0  0  0  0  0  0  0  0  0
   57.5080   32.9420   44.6600 C   0  0  0  0  0  0  0  0  0  0  0  0
   57.6639   32.6650   43.6069 H   0  0  0  0  0  0  0  0  0  0  0  0
   56.4479   32.8832   44.9477 H   0  0  0  0  0  0  0  0  0  0  0  0
   57.9530   34.3870   44.8530 C   0  0  0  0  0  0  0  0  0  0  0  0
   57.5428   35.0056   44.0412 H   0  0  0  0  0  0  0  0  0  0  0  0
   57.5844   34.7508   45.8234 H   0  0  0  0  0  0  0  0  0  0  0  0
   59.4710   34.4730   44.8330 C   0  0  0  0  0  0  0  0  0  0  0  0
   59.8520   34.0074   43.9121 H   0  0  0  0  0  0  0  0  0  0  0  0
   59.7776   35.5289   44.8657 H   0  0  0  0  0  0  0  0  0  0  0  0
   60.0410   33.7420   46.0450 C   0  0  0  0  0  0  0  0  0  0  0  0
   61.1337   33.6793   45.9349 H   0  0  0  0  0  0  0  0  0  0  0  0
   59.7511   34.3120   46.9400 H   0  0  0  0  0  0  0  0  0  0  0  0
  1  2  1  0
  2  3  2  0
  3  4  1  0
  4  5  2  0
  5  6  1  0
  5  7  1  0
  7  8  1  0
  7  9  2  0
  9 10  1  0
 10 11  1  0
 10 12  1  0
 10 13  1  0
  9 14  1  0
 14 15  1  0
 14 16  2  0
 16 17  1  0
 17 18  1  0
 17 19  1  0
 17 20  1  0
  3 21  1  0
 21 22  1  0
 22 23  2  0
 23 24  1  0
 24 25  3  0
 23 26  1  0
 26 27  2  0
 27 28  1  0
 27 29  1  0
 29 30  2  0
 30 31  1  0
 30 32  1  0
 32 33  1  0
 32 34  2  0
 34 35  1  0
 34 36  1  0
 36 37  1  0
 37 38  1  0
 37 39  1  0
 39 40  2  0
 39 41  2  0
 39 42  1  0
 42 43  1  0
 42 44  1  0
 42 45  1  0
 36 46  2  0
 46 47  1  0
 22 48  1  0
 48 49  1  0
 48 50  1  0
 48 51  1  0
 51 52  1  0
 51 53  1  0
 51 54  1  0
 54 55  1  0
 54 56  1  0
 54 57  1  0
 57 58  1  0
 57 59  1  0
 26  2  1  0
 46 29  1  0
 16  4  1  0
 57 21  1  0
M  END
>  <UniqueID>  (43) 
42

>  <SMILES>  (43) 
Cc1cc(C(F)(F)F)ccc1C1=C/C(=C\c2cccc(NS(C)(=O)=O)c2)C(C#N)=C2CCCCN12

>  <Energy>  (43) 
77.94760180911808

>  <Genealogy>  (43) 
Cc1cc(C(F)(F)F)ccc1C1=C/C(=C\c2cccc(NS(C)(=O)=O)c2)C(C#N)=C2CCCCN12 (cis-trans isomerization)
Cc1cc(C(F)(F)F)ccc1C1=C/C(=C\c2cccc(NS(C)(=O)=O)c2)C(C#N)=C2CCCCN12 (3D coordinates assigned)
Cc1cc(C(F)(F)F)ccc1C1=C/C(=C\c2cccc(NS(C)(=O)=O)c2)C(C#N)=C2CCCCN12 (nonaromatic ring conformer: 77.94760180911808 kcal/mol)

>  <smiles>  (43) 
Cc1cc(C(F)(F)F)ccc1C1=CC(=Cc2cccc(NS(C)(=O)=O)c2)C(C#N)=C2CCCCN12

>  <score_type>  (43) 
oracle

>  <origin>  (43) 
adg

>  <m_score__min__energy>  (43) 
-11.109999999999999

>  <m_primary>  (43) 
energy

$$$$
43:0
     RDKit          3D

 40 42  0  0  0  0  0  0  0  0999 V2000
   58.5222   24.2914   46.1805 H   0  0  0  0  0  0  0  0  0  0  0  0
   57.7610   23.8140   45.5460 C   0  0  0  0  0  0  0  0  0  0  0  0
   58.1390   22.8530   44.6080 C   0  0  0  0  0  0  0  0  0  0  0  0
   59.1973   22.5752   44.4945 H   0  0  0  0  0  0  0  0  0  0  0  0
   57.1590   22.2440   43.8110 C   0  0  0  0  0  0  0  0  0  0  0  0
   57.5560   21.2390   42.7720 C   0  0  0  0  0  0  0  0  0  0  0  0
   57.9172   20.3246   43.2654 H   0  0  0  0  0  0  0  0  0  0  0  0
   56.6857   20.9975   42.1441 H   0  0  0  0  0  0  0  0  0  0  0  0
   58.3564   21.6574   42.1441 H   0  0  0  0  0  0  0  0  0  0  0  0
   55.8540   22.6190   43.9410 N   0  0  0  0  0  0  0  0  0  0  0  0
   55.1240   22.1850   43.3310 H   0  0  0  0  0  0  0  0  0  0  0  0
   55.4670   23.5550   44.8510 C   0  0  0  0  0  0  0  0  0  0  0  0
   54.4049   23.8287   44.9353 H   0  0  0  0  0  0  0  0  0  0  0  0
   56.4130   24.1720   45.6810 C   0  0  0  0  0  0  0  0  0  0  0  0
   55.9880   25.2260   46.6680 C   0  0  0  0  0  0  0  0  0  0  0  0
   55.1507   24.8421   47.2693 H   0  0  0  0  0  0  0  0  0  0  0  0
   56.8416   25.4695   47.3177 H   0  0  0  0  0  0  0  0  0  0  0  0
   55.5630   26.4400   45.9710 N   0  0  0  0  0  0  0  0  0  0  0  0
   56.3190   27.4720   45.7450 C   0  0  0  0  0  0  0  0  0  0  0  0
   57.6380   27.4110   46.0560 N   0  0  0  0  0  0  0  0  0  0  0  0
   58.4680   28.4650   45.8390 C   0  0  0  0  0  0  0  0  0  0  0  0
   57.9580   29.6520   45.2750 C   0  0  0  0  0  0  0  0  0  0  0  0
   56.5860   29.6970   44.9730 C   0  0  0  0  0  0  0  0  0  0  0  0
   56.0640   30.7370   44.4880 O   0  0  0  0  0  0  0  0  0  0  0  0
   55.8060   28.6120   45.2070 N   0  0  0  0  0  0  0  0  0  0  0  0
   58.8650   30.8480   45.0770 C   0  0  0  0  0  0  0  0  0  0  0  0
   59.7434   30.5305   44.4959 H   0  0  0  0  0  0  0  0  0  0  0  0
   58.2847   31.6201   44.5506 H   0  0  0  0  0  0  0  0  0  0  0  0
   59.3490   31.4580   46.4080 C   0  0  0  0  0  0  0  0  0  0  0  0
   59.6231   32.5066   46.2202 H   0  0  0  0  0  0  0  0  0  0  0  0
   58.5158   31.3369   47.1159 H   0  0  0  0  0  0  0  0  0  0  0  0
   60.5650   30.7570   47.0600 C   0  0  0  0  0  0  0  0  0  0  0  0
   61.4138   30.8246   46.3636 H   0  0  0  0  0  0  0  0  0  0  0  0
   60.7471   31.2729   48.0143 H   0  0  0  0  0  0  0  0  0  0  0  0
   60.3420   29.2710   47.4030 C   0  0  0  0  0  0  0  0  0  0  0  0
   61.2821   28.8775   47.8171 H   0  0  0  0  0  0  0  0  0  0  0  0
   59.4957   29.2551   48.1055 H   0  0  0  0  0  0  0  0  0  0  0  0
   59.9220   28.3520   46.2270 C   0  0  0  0  0  0  0  0  0  0  0  0
   60.5336   28.6127   45.3507 H   0  0  0  0  0  0  0  0  0  0  0  0
   60.0783   27.3169   46.5649 H   0  0  0  0  0  0  0  0  0  0  0  0
  1  2  1  0
  2  3  2  0
  3  4  1  0
  3  5  1  0
  5  6  1  0
  6  7  1  0
  6  8  1  0
  6  9  1  0
  5 10  2  0
 10 11  1  0
 10 12  1  0
 12 13  1  0
 12 14  2  0
 14 15  1  0
 15 16  1  0
 15 17  1  0
 15 18  1  0
 18 19  2  0
 19 20  1  0
 20 21  1  0
 21 22  2  0
 22 23  1  0
 23 24  2  0
 23 25  1  0
 22 26  1  0
 26 27  1  0
 26 28  1  0
 26 29  1  0
 29 30  1  0
 29 31  1  0
 29 32  1  0
 32 33  1  0
 32 34  1  0
 32 35  1  0
 35 36  1  0
 35 37  1  0
 35 38  1  0
 38 39  1  0
 38 40  1  0
 14  2  1  0
 25 19  1  0
 38 21  1  0
M  CHG  3  10   1  20  -1  25  -1
M  END
>  <UniqueID>  (44) 
43

>  <SMILES>  (44) 
Cc1ccc(C/N=c2/[n-]c3c(c(=O)[n-]2)CCCCC3)c[nH+]1

>  <Energy>  (44) 
47.81088753339767

>  <Genealogy>  (44) 
Cc1ccc(CN=c2[n-]c3c(c(=O)[n-]2)CCCCC3)c[nH+]1 (protonated)
Cc1ccc(C/N=c2/[n-]c3c(c(=O)[n-]2)CCCCC3)c[nH+]1 (cis-trans isomerization)
Cc1ccc(C/N=c2/[n-]c3c(c(=O)[n-]2)CCCCC3)c[nH+]1 (3D coordinates assigned)
Cc1ccc(C/N=c2/[n-]c3c(c(=O)[n-]2)CCCCC3)c[nH+]1 (nonaromatic ring conformer: 47.81088753339767 kcal/mol)

>  <smiles>  (44) 
Cc1ccc(CN=c2[nH]c3c(c(=O)[nH]2)CCCCC3)cn1

>  <score_type>  (44) 
oracle

>  <origin>  (44) 
adg

>  <m_score__min__energy>  (44) 
-7.6299999999999999

>  <m_primary>  (44) 
energy

$$$$
44:0
     RDKit          3D

 42 44  0  0  0  0  0  0  0  0999 V2000
   56.4660   30.6140   51.7690 H   0  0  0  0  0  0  0  0  0  0  0  0
   57.3410   30.0690   51.5940 N   0  0  0  0  0  0  0  0  0  0  0  0
   58.1420   30.3380   50.6150 C   0  0  0  0  0  0  0  0  0  0  0  0
   58.6060   31.6070   50.4620 N   0  0  0  0  0  0  0  0  0  0  0  0
   59.4620   31.9520   49.4600 C   0  0  0  0  0  0  0  0  0  0  0  0
   59.9290   33.3790   49.3150 C   0  0  0  0  0  0  0  0  0  0  0  0
   59.1106   33.9805   48.8927 H   0  0  0  0  0  0  0  0  0  0  0  0
   60.2170   33.7479   50.3105 H   0  0  0  0  0  0  0  0  0  0  0  0
   61.1350   33.4850   48.4060 C   0  0  0  0  0  0  0  0  0  0  0  0
   62.4030   33.2330   48.9600 C   0  0  0  0  0  0  0  0  0  0  0  0
   62.4909   32.9937   50.0301 H   0  0  0  0  0  0  0  0  0  0  0  0
   63.5510   33.2830   48.1680 C   0  0  0  0  0  0  0  0  0  0  0  0
   64.5364   33.0847   48.6147 H   0  0  0  0  0  0  0  0  0  0  0  0
   63.4490   33.5840   46.8120 C   0  0  0  0  0  0  0  0  0  0  0  0
   64.3555   33.6286   46.1904 H   0  0  0  0  0  0  0  0  0  0  0  0
   62.2010   33.8290   46.2400 C   0  0  0  0  0  0  0  0  0  0  0  0
   62.1306   34.0662   45.1682 H   0  0  0  0  0  0  0  0  0  0  0  0
   61.0320   33.7760   47.0190 C   0  0  0  0  0  0  0  0  0  0  0  0
   59.4810   34.1250   46.2350 S   0  0  0  0  0  0  0  0  0  0  0  0
   58.7540   35.1600   47.0450 O   0  0  0  0  0  0  0  0  0  0  0  0
   59.7030   34.6540   44.8460 O   0  0  0  0  0  0  0  0  0  0  0  0
   58.5340   32.6780   46.1300 N   0  0  0  0  0  0  0  0  0  0  0  0
   57.2920   32.6260   45.4310 C   0  0  0  0  0  0  0  0  0  0  0  0
   56.6420   33.6870   45.2520 O   0  0  0  0  0  0  0  0  0  0  0  0
   56.7550   31.3670   45.0050 N   0  0  0  0  0  0  0  0  0  0  0  0
   57.2900   30.1800   45.0910 C   0  0  0  0  0  0  0  0  0  0  0  0
   56.5330   28.9820   45.0820 C   0  0  0  0  0  0  0  0  0  0  0  0
   55.1510   28.9720   44.9370 O   0  0  0  0  0  0  0  0  0  0  0  0
   57.1960   27.7580   45.1770 C   0  0  0  0  0  0  0  0  0  0  0  0
   56.6190   26.8215   45.1887 H   0  0  0  0  0  0  0  0  0  0  0  0
   58.5850   27.7180   45.2570 C   0  0  0  0  0  0  0  0  0  0  0  0
   59.1089   26.7544   45.3400 H   0  0  0  0  0  0  0  0  0  0  0  0
   59.3040   28.9080   45.2310 C   0  0  0  0  0  0  0  0  0  0  0  0
   60.4027   28.8861   45.2787 H   0  0  0  0  0  0  0  0  0  0  0  0
   58.6540   30.0960   45.1470 N   0  0  0  0  0  0  0  0  0  0  0  0
   59.2250   30.9700   45.1270 H   0  0  0  0  0  0  0  0  0  0  0  0
   59.8510   30.9850   48.5250 C   0  0  0  0  0  0  0  0  0  0  0  0
   60.5133   31.2561   47.6896 H   0  0  0  0  0  0  0  0  0  0  0  0
   59.3910   29.6730   48.6620 C   0  0  0  0  0  0  0  0  0  0  0  0
   59.7028   28.9027   47.9414 H   0  0  0  0  0  0  0  0  0  0  0  0
   58.5360   29.3400   49.7130 C   0  0  0  0  0  0  0  0  0  0  0  0
   58.1757   28.3075   49.8323 H   0  0  0  0  0  0  0  0  0  0  0  0
  1  2  1  0
  2  3  2  3
  3  4  1  0
  4  5  1  0
  5  6  1  0
  6  7  1  0
  6  8  1  0
  6  9  1  0
  9 10  2  0
 10 11  1  0
 10 12  1  0
 12 13  1  0
 12 14  2  0
 14 15  1  0
 14 16  1  0
 16 17  1  0
 16 18  2  0
 18 19  1  0
 19 20  2  0
 19 21  2  0
 19 22  1  0
 22 23  1  0
 23 24  2  0
 23 25  1  0
 25 26  2  0
 26 27  1  0
 27 28  1  0
 27 29  2  0
 29 30  1  0
 29 31  1  0
 31 32  1  0
 31 33  2  0
 33 34  1  0
 33 35  1  0
 35 36  1  0
  5 37  2  0
 37 38  1  0
 37 39  1  0
 39 40  1  0
 39 41  2  0
 41 42  1  0
 41  3  1  0
 18  9  1  0
 35 26  1  0
M  CHG  3   4  -1  22  -1  28  -1
M  END
>  <UniqueID>  (45) 
44

>  <SMILES>  (45) 
N=c1cccc(Cc2ccccc2S(=O)(=O)[N-]C(=O)/N=c2/[nH]cccc2[O-])[n-]1

>  <Energy>  (45) 
61.00198818921224

>  <Genealogy>  (45) 
N=c1cccc(Cc2ccccc2S(=O)(=O)[N-]C(=O)N=c2[nH]cccc2[O-])[n-]1 (protonated)
N=c1cccc(Cc2ccccc2S(=O)(=O)[N-]C(=O)/N=c2/[nH]cccc2[O-])[n-]1 (cis-trans isomerization)
N=c1cccc(Cc2ccccc2S(=O)(=O)[N-]C(=O)/N=c2/[nH]cccc2[O-])[n-]1 (3D coordinates assigned)
N=c1cccc(Cc2ccccc2S(=O)(=O)[N-]C(=O)/N=c2/[nH]cccc2[O-])[n-]1 (optimized conformer: 61.00198818921224 kcal/mol)

>  <smiles>  (45) 
N=c1cccc(Cc2ccccc2S(=O)(=O)NC(=O)N=c2[nH]cccc2O)[nH]1

>  <score_type>  (45) 
oracle

>  <origin>  (45) 
adg

>  <m_score__min__energy>  (45) 
-15.27

>  <m_primary>  (45) 
energy

$$$$
45:0
     RDKit          3D

 44 46  0  0  0  0  0  0  0  0999 V2000
   59.3230   30.6760   52.8680 C   0  0  0  0  0  0  0  0  0  0  0  0
   60.1560   29.6740   52.2940 O   0  0  0  0  0  0  0  0  0  0  0  0
   60.0330   29.2000   50.9800 C   0  0  0  0  0  0  0  0  0  0  0  0
   60.8880   28.2150   50.4490 C   0  0  0  0  0  0  0  0  0  0  0  0
   60.7230   27.7750   49.1320 C   0  0  0  0  0  0  0  0  0  0  0  0
   59.7000   28.3070   48.3300 C   0  0  0  0  0  0  0  0  0  0  0  0
   59.5360   27.9100   46.9620 N   0  0  0  0  0  0  0  0  0  0  0  0
   59.8330   28.7270   45.8250 C   0  0  0  0  0  0  0  0  0  0  0  0
   60.4700   28.2250   44.8630 O   0  0  0  0  0  0  0  0  0  0  0  0
   59.4300   30.1470   45.7600 C   0  0  0  0  0  0  0  0  0  0  0  0
   59.9500   31.1320   46.5940 C   0  0  0  0  0  0  0  0  0  0  0  0
   59.2740   32.2840   46.2600 C   0  0  0  0  0  0  0  0  0  0  0  0
   59.3810   33.5720   46.7780 C   0  0  0  0  0  0  0  0  0  0  0  0
   58.5310   34.5630   46.2570 C   0  0  0  0  0  0  0  0  0  0  0  0
   57.5990   34.2440   45.2450 C   0  0  0  0  0  0  0  0  0  0  0  0
   57.5110   32.9330   44.7440 C   0  0  0  0  0  0  0  0  0  0  0  0
   58.3750   31.9680   45.2720 C   0  0  0  0  0  0  0  0  0  0  0  0
   58.4620   30.6590   44.9490 N   0  0  0  0  0  0  0  0  0  0  0  0
   57.5660   29.9310   44.0400 C   0  0  0  0  0  0  0  0  0  0  0  0
   56.7470   28.8720   44.7350 C   0  0  0  0  0  0  0  0  0  0  0  0
   55.5120   29.0810   44.8730 O   0  0  0  0  0  0  0  0  0  0  0  0
   57.3360   27.6570   45.2410 N   0  0  0  0  0  0  0  0  0  0  0  0
   56.5830   26.6040   45.8630 C   0  0  0  0  0  0  0  0  0  0  0  0
   57.2490   25.4210   46.3020 N   0  0  0  0  0  0  0  0  0  0  0  0
   55.3380   26.7090   46.0310 O   0  0  0  0  0  0  0  0  0  0  0  0
   58.8630   29.2980   48.8540 C   0  0  0  0  0  0  0  0  0  0  0  0
   59.0210   29.7320   50.1730 C   0  0  0  0  0  0  0  0  0  0  0  0
   59.3758   30.6125   53.9649 H   0  0  0  0  0  0  0  0  0  0  0  0
   59.6655   31.6689   52.5413 H   0  0  0  0  0  0  0  0  0  0  0  0
   58.2842   30.5206   52.5413 H   0  0  0  0  0  0  0  0  0  0  0  0
   61.6885   27.7902   51.0725 H   0  0  0  0  0  0  0  0  0  0  0  0
   61.3975   27.0087   48.7222 H   0  0  0  0  0  0  0  0  0  0  0  0
   60.7337   31.0152   47.3571 H   0  0  0  0  0  0  0  0  0  0  0  0
   60.1076   33.8066   47.5698 H   0  0  0  0  0  0  0  0  0  0  0  0
   58.5921   35.5925   46.6396 H   0  0  0  0  0  0  0  0  0  0  0  0
   56.9372   35.0267   44.8458 H   0  0  0  0  0  0  0  0  0  0  0  0
   56.7842   32.6740   43.9600 H   0  0  0  0  0  0  0  0  0  0  0  0
   56.8800   30.6529   43.5729 H   0  0  0  0  0  0  0  0  0  0  0  0
   58.1974   29.4210   43.2975 H   0  0  0  0  0  0  0  0  0  0  0  0
   58.3650   27.5140   45.1640 H   0  0  0  0  0  0  0  0  0  0  0  0
   58.2780   25.3100   46.1690 H   0  0  0  0  0  0  0  0  0  0  0  0
   56.7130   24.6570   46.7720 H   0  0  0  0  0  0  0  0  0  0  0  0
   58.0759   29.7382   48.2241 H   0  0  0  0  0  0  0  0  0  0  0  0
   58.3445   30.4979   50.5801 H   0  0  0  0  0  0  0  0  0  0  0  0
  1  2  1  0
  2  3  1  0
  3  4  2  0
  4  5  1  0
  5  6  2  0
  6  7  1  0
  7  8  1  0
  8  9  2  0
  8 10  1  0
 10 11  2  0
 11 12  1  0
 12 13  2  0
 13 14  1  0
 14 15  2  0
 15 16  1  0
 16 17  2  0
 17 18  1  0
 18 19  1  0
 19 20  1  0
 20 21  2  0
 20 22  1  0
 22 23  1  0
 23 24  1  0
 23 25  2  0
  6 26  1  0
 26 27  2  0
 27  3  1  0
 18 10  1  0
 17 12  1  0
  1 28  1  0
  1 29  1  0
  1 30  1  0
  4 31  1  0
  5 32  1  0
 11 33  1  0
 13 34  1  0
 14 35  1  0
 15 36  1  0
 16 37  1  0
 19 38  1  0
 19 39  1  0
 22 40  1  0
 24 41  1  0
 24 42  1  0
 26 43  1  0
 27 44  1  0
M  CHG  1   7  -1
M  END
>  <UniqueID>  (46) 
45

>  <SMILES>  (46) 
COc1ccc([N-]C(=O)c2cc3ccccc3n2CC(=O)NC(N)=O)cc1

>  <Energy>  (46) 
82.20774228230458

>  <Genealogy>  (46) 
COc1ccc([N-]C(=O)c2cc3ccccc3n2CC(=O)NC(N)=O)cc1 (protonated)
COc1ccc([N-]C(=O)c2cc3ccccc3n2CC(=O)NC(N)=O)cc1 (3D coordinates assigned)
COc1ccc([N-]C(=O)c2cc3ccccc3n2CC(=O)NC(N)=O)cc1 (optimized conformer: 82.20774228230458 kcal/mol)

>  <smiles>  (46) 
COc1ccc(NC(=O)c2cc3ccccc3n2CC(=O)NC(N)=O)cc1

>  <score_type>  (46) 
oracle

>  <origin>  (46) 
adg

>  <m_score__min__energy>  (46) 
-8.6600000000000001

>  <m_primary>  (46) 
energy

$$$$
46:0
     RDKit          3D

 51 53  0  0  0  0  0  0  0  0999 V2000
   55.6710   27.9420   44.8270 H   0  0  0  0  0  0  0  0  0  0  0  0
   55.4770   28.9670   44.8620 N   0  0  0  0  0  0  0  0  0  0  0  0
   56.5420   29.9150   44.8670 C   0  0  0  0  0  0  0  0  0  0  0  0
   56.2810   31.1390   44.7210 O   0  0  0  0  0  0  0  0  0  0  0  0
   57.9350   29.4820   45.1130 C   0  0  0  0  0  0  0  0  0  0  0  0
   58.8040   30.3650   45.7810 C   0  0  0  0  0  0  0  0  0  0  0  0
   58.4491   31.3677   46.0615 H   0  0  0  0  0  0  0  0  0  0  0  0
   60.1190   29.9820   46.0940 C   0  0  0  0  0  0  0  0  0  0  0  0
   61.0260   30.8850   46.8330 C   0  0  0  0  0  0  0  0  0  0  0  0
   62.0791   30.9209   46.5172 H   0  0  0  0  0  0  0  0  0  0  0  0
   60.6550   31.6700   47.8690 C   0  0  0  0  0  0  0  0  0  0  0  0
   59.7470   31.1350   48.9190 C   0  0  0  0  0  0  0  0  0  0  0  0
   59.3390   29.9420   48.8540 O   0  0  0  0  0  0  0  0  0  0  0  0
   59.3550   31.9660   50.0330 N   0  0  0  0  0  0  0  0  0  0  0  0
   58.3840   31.4940   50.9840 C   0  0  0  0  0  0  0  0  0  0  0  0
   58.4090   30.1610   51.4230 C   0  0  0  0  0  0  0  0  0  0  0  0
   59.1794   29.4739   51.0432 H   0  0  0  0  0  0  0  0  0  0  0  0
   57.4600   29.7030   52.3400 C   0  0  0  0  0  0  0  0  0  0  0  0
   57.4940   28.6600   52.6878 H   0  0  0  0  0  0  0  0  0  0  0  0
   56.4630   30.5670   52.8200 C   0  0  0  0  0  0  0  0  0  0  0  0
   55.4590   30.0990   53.7960 C   0  0  0  0  0  0  0  0  0  0  0  0
   55.8160   29.9020   54.9870 O   0  0  0  0  0  0  0  0  0  0  0  0
   54.0800   29.9110   53.4520 N   0  0  0  0  0  0  0  0  0  0  0  0
   53.5700   29.5660   52.1280 C   0  0  0  0  0  0  0  0  0  0  0  0
   52.6389   28.9905   52.2368 H   0  0  0  0  0  0  0  0  0  0  0  0
   54.3254   28.9659   51.5996 H   0  0  0  0  0  0  0  0  0  0  0  0
   53.2930   30.8100   51.3340 C   0  0  0  0  0  0  0  0  0  0  0  0
   53.9123   31.0413   50.4548 H   0  0  0  0  0  0  0  0  0  0  0  0
   52.3060   31.6390   51.6800 C   0  0  0  0  0  0  0  0  0  0  0  0
   52.1165   32.5461   51.0874 H   0  0  0  0  0  0  0  0  0  0  0  0
   51.6820   31.4151   52.5578 H   0  0  0  0  0  0  0  0  0  0  0  0
   56.4510   31.9040   52.3970 C   0  0  0  0  0  0  0  0  0  0  0  0
   55.6910   32.5955   52.7896 H   0  0  0  0  0  0  0  0  0  0  0  0
   57.4000   32.3620   51.4790 C   0  0  0  0  0  0  0  0  0  0  0  0
   57.3750   33.4091   51.1429 H   0  0  0  0  0  0  0  0  0  0  0  0
   59.7800   33.3700   50.1000 C   0  0  0  0  0  0  0  0  0  0  0  0
   59.0450   33.9940   49.5705 H   0  0  0  0  0  0  0  0  0  0  0  0
   59.8463   33.6660   51.1573 H   0  0  0  0  0  0  0  0  0  0  0  0
   61.1520   33.5580   49.4550 C   0  0  0  0  0  0  0  0  0  0  0  0
   61.4293   34.6216   49.4982 H   0  0  0  0  0  0  0  0  0  0  0  0
   61.8879   32.9509   50.0026 H   0  0  0  0  0  0  0  0  0  0  0  0
   61.1260   33.1040   47.9950 C   0  0  0  0  0  0  0  0  0  0  0  0
   60.4433   33.7556   47.4300 H   0  0  0  0  0  0  0  0  0  0  0  0
   62.1486   33.1683   47.5948 H   0  0  0  0  0  0  0  0  0  0  0  0
   60.5490   28.6890   45.7800 C   0  0  0  0  0  0  0  0  0  0  0  0
   61.5581   28.3622   46.0714 H   0  0  0  0  0  0  0  0  0  0  0  0
   59.7050   27.8110   45.0990 C   0  0  0  0  0  0  0  0  0  0  0  0
   60.0599   26.8015   44.8443 H   0  0  0  0  0  0  0  0  0  0  0  0
   58.4110   28.2030   44.7370 C   0  0  0  0  0  0  0  0  0  0  0  0
   57.6470   27.3100   43.9820 O   0  0  0  0  0  0  0  0  0  0  0  0
   56.6550   27.4250   43.8240 H   0  0  0  0  0  0  0  0  0  0  0  0
  1  2  1  0
  2  3  1  0
  3  4  2  0
  3  5  1  0
  5  6  2  0
  6  7  1  0
  6  8  1  0
  8  9  1  0
  9 10  1  0
  9 11  2  0
 11 12  1  0
 12 13  2  0
 12 14  1  0
 14 15  1  0
 15 16  2  0
 16 17  1  0
 16 18  1  0
 18 19  1  0
 18 20  2  0
 20 21  1  0
 21 22  2  0
 21 23  1  0
 23 24  1  0
 24 25  1  0
 24 26  1  0
 24 27  1  0
 27 28  1  0
 27 29  2  0
 29 30  1  0
 29 31  1  0
 20 32  1  0
 32 33  1  0
 32 34  2  0
 34 35  1  0
 14 36  1  0
 36 37  1  0
 36 38  1  0
 36 39  1  0
 39 40  1  0
 39 41  1  0
 39 42  1  0
 42 43  1  0
 42 44  1  0
  8 45  2  0
 45 46  1  0
 45 47  1  0
 47 48  1  0
 47 49  2  0
 49 50  1  0
 50 51  1  0
 49  5  1  0
 42 11  1  0
 34 15  1  0
M  CHG  2   2  -1  23  -1
M  END
>  <UniqueID>  (47) 
46

>  <SMILES>  (47) 
C=CC[N-]C(=O)c1ccc(N2CCC/C(=C\c3ccc(O)c(C([NH-])=O)c3)C2=O)cc1

>  <Energy>  (47) 
71.81219549875028

>  <Genealogy>  (47) 
C=CC[N-]C(=O)c1ccc(N2CCCC(=Cc3ccc(O)c(C([NH-])=O)c3)C2=O)cc1 (protonated)
C=CC[N-]C(=O)c1ccc(N2CCC/C(=C\c3ccc(O)c(C([NH-])=O)c3)C2=O)cc1 (cis-trans isomerization)
C=CC[N-]C(=O)c1ccc(N2CCC/C(=C\c3ccc(O)c(C([NH-])=O)c3)C2=O)cc1 (3D coordinates assigned)
C=CC[N-]C(=O)c1ccc(N2CCC/C(=C\c3ccc(O)c(C([NH-])=O)c3)C2=O)cc1 (nonaromatic ring conformer: 71.81219549875028 kcal/mol)

>  <smiles>  (47) 
C=CCNC(=O)c1ccc(N2CCCC(=Cc3ccc(O)c(C(N)=O)c3)C2=O)cc1

>  <score_type>  (47) 
oracle

>  <origin>  (47) 
adg

>  <m_score__min__energy>  (47) 
-12.27

>  <m_primary>  (47) 
energy

$$$$
47:0
     RDKit          3D

 40 42  0  0  0  0  0  0  0  0999 V2000
   58.4470   33.3290   52.3640 C   0  0  0  0  0  0  0  0  0  0  0  0
   58.2640   32.0830   51.5640 C   0  0  0  0  0  0  0  0  0  0  0  0
   59.1690   31.5570   50.6660 C   0  0  0  0  0  0  0  0  0  0  0  0
   58.5680   30.3850   50.2610 C   0  0  0  0  0  0  0  0  0  0  0  0
   59.1200   29.3930   49.2840 C   0  0  0  0  0  0  0  0  0  0  0  0
   59.9020   30.0640   48.2200 N   0  0  0  0  0  0  0  0  0  0  0  0
   60.6150   29.0870   47.3610 C   0  0  0  0  0  0  0  0  0  0  0  0
   59.9000   28.7680   46.0280 C   0  0  0  0  0  0  0  0  0  0  0  0
   58.4530   29.0240   46.1110 N   0  0  0  0  0  0  0  0  0  0  0  0
   57.4760   28.1510   45.4960 C   0  0  0  0  0  0  0  0  0  0  0  0
   56.3060   28.5740   45.2920 O   0  0  0  0  0  0  0  0  0  0  0  0
   57.8000   26.7430   45.0750 C   0  0  0  0  0  0  0  0  0  0  0  0
   57.1780   25.7500   46.0090 C   0  0  0  0  0  0  0  0  0  0  0  0
   57.8400   24.7250   46.5760 N   0  0  0  0  0  0  0  0  0  0  0  0
   56.8790   24.0820   47.2730 C   0  0  0  0  0  0  0  0  0  0  0  0
   57.1140   23.0520   47.9570 O   0  0  0  0  0  0  0  0  0  0  0  0
   55.6460   24.6240   47.1740 N   0  0  0  0  0  0  0  0  0  0  0  0
   55.8530   25.6760   46.3640 C   0  0  0  0  0  0  0  0  0  0  0  0
   54.8510   26.5510   45.9570 O   0  0  0  0  0  0  0  0  0  0  0  0
   58.0020   30.3240   46.6250 C   0  0  0  0  0  0  0  0  0  0  0  0
   59.1120   31.0250   47.4200 C   0  0  0  0  0  0  0  0  0  0  0  0
   57.4240   30.2510   50.8910 O   0  0  0  0  0  0  0  0  0  0  0  0
   57.2100   31.2550   51.6900 N   0  0  0  0  0  0  0  0  0  0  0  0
   58.4112   33.0850   53.4360 H   0  0  0  0  0  0  0  0  0  0  0  0
   59.4210   33.7798   52.1229 H   0  0  0  0  0  0  0  0  0  0  0  0
   57.6438   34.0408   52.1229 H   0  0  0  0  0  0  0  0  0  0  0  0
   60.1370   31.9727   50.3495 H   0  0  0  0  0  0  0  0  0  0  0  0
   59.7738   28.6886   49.8192 H   0  0  0  0  0  0  0  0  0  0  0  0
   58.2784   28.8627   48.8145 H   0  0  0  0  0  0  0  0  0  0  0  0
   61.6099   29.4947   47.1288 H   0  0  0  0  0  0  0  0  0  0  0  0
   60.6593   28.1448   47.9270 H   0  0  0  0  0  0  0  0  0  0  0  0
   60.3284   29.3976   45.2342 H   0  0  0  0  0  0  0  0  0  0  0  0
   60.0470   27.7005   45.8072 H   0  0  0  0  0  0  0  0  0  0  0  0
   57.4141   26.5729   44.0591 H   0  0  0  0  0  0  0  0  0  0  0  0
   58.8919   26.6114   45.0978 H   0  0  0  0  0  0  0  0  0  0  0  0
   54.7700   27.4720   46.3700 H   0  0  0  0  0  0  0  0  0  0  0  0
   57.7100   30.9624   45.7781 H   0  0  0  0  0  0  0  0  0  0  0  0
   57.1479   30.1542   47.2971 H   0  0  0  0  0  0  0  0  0  0  0  0
   59.7831   31.5402   46.7170 H   0  0  0  0  0  0  0  0  0  0  0  0
   58.6404   31.7399   48.1103 H   0  0  0  0  0  0  0  0  0  0  0  0
  1  2  1  0
  2  3  1  0
  3  4  2  0
  4  5  1  0
  5  6  1  0
  6  7  1  0
  7  8  1  0
  8  9  1  0
  9 10  1  0
 10 11  2  0
 10 12  1  0
 12 13  1  0
 13 14  1  0
 14 15  1  0
 15 16  2  0
 15 17  1  0
 17 18  1  0
 18 19  1  0
  9 20  1  0
 20 21  1  0
  4 22  1  0
 22 23  1  0
 23  2  2  0
 21  6  1  0
 18 13  2  0
  1 24  1  0
  1 25  1  0
  1 26  1  0
  3 27  1  0
  5 28  1  0
  5 29  1  0
  7 30  1  0
  7 31  1  0
  8 32  1  0
  8 33  1  0
 12 34  1  0
 12 35  1  0
 19 36  1  0
 20 37  1  0
 20 38  1  0
 21 39  1  0
 21 40  1  0
M  CHG  2  14  -1  17  -1
M  END
>  <UniqueID>  (48) 
47

>  <SMILES>  (48) 
Cc1cc(CN2CCN(C(=O)Cc3[n-]c(=O)[n-]c3O)CC2)on1

>  <Energy>  (48) 
105.95383846495896

>  <Genealogy>  (48) 
Cc1cc(CN2CCN(C(=O)Cc3[n-]c(=O)[n-]c3O)CC2)on1 (protonated)
Cc1cc(CN2CCN(C(=O)Cc3[n-]c(=O)[n-]c3O)CC2)on1 (3D coordinates assigned)
Cc1cc(CN2CCN(C(=O)Cc3[n-]c(=O)[n-]c3O)CC2)on1 (nonaromatic ring conformer: 105.95383846495896 kcal/mol)

>  <smiles>  (48) 
Cc1cc(CN2CCN(C(=O)Cc3[nH]c(=O)[nH]c3O)CC2)on1

>  <score_type>  (48) 
oracle

>  <origin>  (48) 
adg

>  <m_score__min__energy>  (48) 
-11.94

>  <m_primary>  (48) 
energy

$$$$
48:0
     RDKit          3D

 56 59  0  0  0  0  0  0  0  0999 V2000
   60.5730   25.8930   51.3820 N   0  0  0  0  0  0  0  0  0  0  0  0
   60.9180   26.9540   51.0680 C   0  0  0  0  0  0  0  0  0  0  0  0
   61.3520   28.2720   50.6780 C   0  0  0  0  0  0  0  0  0  0  0  0
   60.7750   28.9030   49.5680 C   0  0  0  0  0  0  0  0  0  0  0  0
   61.1940   30.1820   49.1910 C   0  0  0  0  0  0  0  0  0  0  0  0
   62.1930   30.8570   49.9260 C   0  0  0  0  0  0  0  0  0  0  0  0
   62.7070   32.2280   49.4980 C   0  0  0  0  0  0  0  0  0  0  0  0
   62.8770   32.3000   47.9640 C   0  0  0  0  0  0  0  0  0  0  0  0
   61.5660   32.6270   47.2410 C   0  0  0  0  0  0  0  0  0  0  0  0
   60.8690   33.7720   47.8520 N   0  0  0  0  0  0  0  0  0  0  0  0
   59.8350   34.4460   47.1050 C   0  0  0  0  0  0  0  0  0  0  0  0
   59.7960   35.7080   47.0970 O   0  0  0  0  0  0  0  0  0  0  0  0
   58.8310   33.6930   46.3220 C   0  0  0  0  0  0  0  0  0  0  0  0
   57.9670   34.3530   45.4360 C   0  0  0  0  0  0  0  0  0  0  0  0
   57.0180   33.6190   44.7210 C   0  0  0  0  0  0  0  0  0  0  0  0
   56.9500   32.2700   44.8690 N   0  0  0  0  0  0  0  0  0  0  0  0
   57.7990   31.5890   45.6910 C   0  0  0  0  0  0  0  0  0  0  0  0
   57.7210   30.2960   45.8190 N   0  0  0  0  0  0  0  0  0  0  0  0
   58.6960   29.3320   45.3860 C   0  0  0  0  0  0  0  0  0  0  0  0
   59.6290   29.7220   44.6350 O   0  0  0  0  0  0  0  0  0  0  0  0
   58.6100   27.8950   45.7430 C   0  0  0  0  0  0  0  0  0  0  0  0
   59.7710   27.1820   46.0790 C   0  0  0  0  0  0  0  0  0  0  0  0
   59.6990   25.8280   46.4210 C   0  0  0  0  0  0  0  0  0  0  0  0
   58.4650   25.1740   46.4340 C   0  0  0  0  0  0  0  0  0  0  0  0
   57.2970   25.8660   46.0820 C   0  0  0  0  0  0  0  0  0  0  0  0
   55.7380   25.0470   46.1010 S   0  0  0  0  0  0  0  0  0  0  0  0
   54.4610   26.2090   45.9820 N   0  0  0  0  0  0  0  0  0  0  0  0
   55.6600   24.0900   44.9430 O   0  0  0  0  0  0  0  0  0  0  0  0
   55.5770   24.2860   47.3890 O   0  0  0  0  0  0  0  0  0  0  0  0
   57.3750   27.2180   45.7180 C   0  0  0  0  0  0  0  0  0  0  0  0
   58.7510   32.2960   46.4350 C   0  0  0  0  0  0  0  0  0  0  0  0
   61.4470   34.4350   49.0300 C   0  0  0  0  0  0  0  0  0  0  0  0
   61.8640   33.4010   50.0840 C   0  0  0  0  0  0  0  0  0  0  0  0
   62.7740   30.2080   51.0330 C   0  0  0  0  0  0  0  0  0  0  0  0
   62.3510   28.9290   51.4110 C   0  0  0  0  0  0  0  0  0  0  0  0
   59.9904   28.3906   48.9919 H   0  0  0  0  0  0  0  0  0  0  0  0
   60.7414   30.6672   48.3137 H   0  0  0  0  0  0  0  0  0  0  0  0
   63.7075   32.3579   49.9363 H   0  0  0  0  0  0  0  0  0  0  0  0
   63.6143   33.0813   47.7274 H   0  0  0  0  0  0  0  0  0  0  0  0
   63.2102   31.3102   47.6187 H   0  0  0  0  0  0  0  0  0  0  0  0
   61.7898   32.8667   46.1910 H   0  0  0  0  0  0  0  0  0  0  0  0
   60.9080   31.7488   47.3173 H   0  0  0  0  0  0  0  0  0  0  0  0
   58.0364   35.4430   45.3050 H   0  0  0  0  0  0  0  0  0  0  0  0
   56.3256   34.1330   44.0380 H   0  0  0  0  0  0  0  0  0  0  0  0
   60.7455   27.6922   46.0733 H   0  0  0  0  0  0  0  0  0  0  0  0
   60.6153   25.2774   46.6801 H   0  0  0  0  0  0  0  0  0  0  0  0
   58.4091   24.1136   46.7210 H   0  0  0  0  0  0  0  0  0  0  0  0
   54.7950   27.0830   46.4490 H   0  0  0  0  0  0  0  0  0  0  0  0
   56.4649   27.7539   45.4106 H   0  0  0  0  0  0  0  0  0  0  0  0
   59.4354   31.7577   47.1072 H   0  0  0  0  0  0  0  0  0  0  0  0
   62.3307   35.0130   48.7218 H   0  0  0  0  0  0  0  0  0  0  0  0
   60.6892   35.1011   49.4684 H   0  0  0  0  0  0  0  0  0  0  0  0
   62.4620   33.9097   50.8545 H   0  0  0  0  0  0  0  0  0  0  0  0
   60.9416   32.9652   50.4954 H   0  0  0  0  0  0  0  0  0  0  0  0
   63.5673   30.7112   51.6053 H   0  0  0  0  0  0  0  0  0  0  0  0
   62.8031   28.4376   52.2852 H   0  0  0  0  0  0  0  0  0  0  0  0
  1  2  3  0
  2  3  1  0
  3  4  2  0
  4  5  1  0
  5  6  2  0
  6  7  1  0
  7  8  1  0
  8  9  1  0
  9 10  1  0
 10 11  1  0
 11 12  2  0
 11 13  1  0
 13 14  1  0
 14 15  2  0
 15 16  1  0
 16 17  1  0
 17 18  2  3
 18 19  1  0
 19 20  2  0
 19 21  1  0
 21 22  2  0
 22 23  1  0
 23 24  2  0
 24 25  1  0
 25 26  1  0
 26 27  1  0
 26 28  2  0
 26 29  2  0
 25 30  2  0
 17 31  1  0
 10 32  1  0
 32 33  1  0
  6 34  1  0
 34 35  2  0
 35  3  1  0
 33  7  1  0
 31 13  2  0
 30 21  1  0
  4 36  1  0
  5 37  1  0
  7 38  1  0
  8 39  1  0
  8 40  1  0
  9 41  1  0
  9 42  1  0
 14 43  1  0
 15 44  1  0
 22 45  1  0
 23 46  1  0
 24 47  1  0
 27 48  1  0
 30 49  1  0
 31 50  1  0
 32 51  1  0
 32 52  1  0
 33 53  1  0
 33 54  1  0
 34 55  1  0
 35 56  1  0
M  CHG  2  16  -1  27  -1
M  END
>  <UniqueID>  (49) 
48

>  <SMILES>  (49) 
N#Cc1ccc(C2CCN(C(=O)c3cc[n-]c(=NC(=O)c4cccc(S([NH-])(=O)=O)c4)c3)CC2)cc1

>  <Energy>  (49) 
75.99872259570742

>  <Genealogy>  (49) 
N#Cc1ccc(C2CCN(C(=O)c3cc[n-]c(=NC(=O)c4cccc(S([NH-])(=O)=O)c4)c3)CC2)cc1 (protonated)
N#Cc1ccc(C2CCN(C(=O)c3cc[n-]c(=NC(=O)c4cccc(S([NH-])(=O)=O)c4)c3)CC2)cc1 (3D coordinates assigned)
N#Cc1ccc(C2CCN(C(=O)c3cc[n-]c(=NC(=O)c4cccc(S([NH-])(=O)=O)c4)c3)CC2)cc1 (nonaromatic ring conformer: 75.99872259570742 kcal/mol)

>  <smiles>  (49) 
N#Cc1ccc(C2CCN(C(=O)c3cc[nH]c(=NC(=O)c4cccc(S(N)(=O)=O)c4)c3)CC2)cc1

>  <score_type>  (49) 
oracle

>  <origin>  (49) 
adg

>  <m_score__min__energy>  (49) 
-13.970000000000001

>  <m_primary>  (49) 
energy

$$$$
49:0
     RDKit          3D

 51 53  0  0  0  0  0  0  0  0999 V2000
   59.6590   28.8180   49.5300 H   0  0  0  0  0  0  0  0  0  0  0  0
   59.4530   28.0330   48.9240 O   0  0  0  0  0  0  0  0  0  0  0  0
   58.6400   28.1740   47.8000 C   0  0  0  0  0  0  0  0  0  0  0  0
   58.0100   27.0560   47.2390 C   0  0  0  0  0  0  0  0  0  0  0  0
   58.1595   26.0616   47.6849 H   0  0  0  0  0  0  0  0  0  0  0  0
   57.1930   27.1990   46.1160 C   0  0  0  0  0  0  0  0  0  0  0  0
   56.5730   26.0850   45.5620 O   0  0  0  0  0  0  0  0  0  0  0  0
   56.9940   28.4610   45.5510 C   0  0  0  0  0  0  0  0  0  0  0  0
   56.3471   28.5695   44.6679 H   0  0  0  0  0  0  0  0  0  0  0  0
   57.6170   29.5940   46.1060 C   0  0  0  0  0  0  0  0  0  0  0  0
   57.4040   30.8830   45.5950 O   0  0  0  0  0  0  0  0  0  0  0  0
   57.6630   31.2920   44.2560 C   0  0  0  0  0  0  0  0  0  0  0  0
   56.7677   31.1191   43.6408 H   0  0  0  0  0  0  0  0  0  0  0  0
   58.5050   30.7102   43.8528 H   0  0  0  0  0  0  0  0  0  0  0  0
   58.0170   32.7810   44.2330 C   0  0  0  0  0  0  0  0  0  0  0  0
   57.3791   33.2829   43.4906 H   0  0  0  0  0  0  0  0  0  0  0  0
   59.0834   32.8649   43.9765 H   0  0  0  0  0  0  0  0  0  0  0  0
   57.8130   33.4600   45.5950 C   0  0  0  0  0  0  0  0  0  0  0  0
   56.7439   33.4363   45.8527 H   0  0  0  0  0  0  0  0  0  0  0  0
   58.1688   34.4986   45.5267 H   0  0  0  0  0  0  0  0  0  0  0  0
   58.5710   32.7750   46.6370 N   0  0  0  0  0  0  0  0  0  0  0  0
   59.1800   32.0560   46.1800 H   0  0  0  0  0  0  0  0  0  0  0  0
   57.8910   32.2510   47.2340 H   0  0  0  0  0  0  0  0  0  0  0  0
   58.4620   29.4410   47.2270 C   0  0  0  0  0  0  0  0  0  0  0  0
   59.0980   30.5440   47.8190 O   0  0  0  0  0  0  0  0  0  0  0  0
   58.7970   31.0390   49.0930 C   0  0  0  0  0  0  0  0  0  0  0  0
   58.0900   30.2640   49.9550 N   0  0  0  0  0  0  0  0  0  0  0  0
   57.7650   30.7020   51.2040 C   0  0  0  0  0  0  0  0  0  0  0  0
   57.0400   29.9800   52.0070 N   0  0  0  0  0  0  0  0  0  0  0  0
   55.6090   29.9960   52.1400 C   0  0  0  0  0  0  0  0  0  0  0  0
   55.0170   28.9110   52.3810 O   0  0  0  0  0  0  0  0  0  0  0  0
   54.8130   31.2230   51.9120 C   0  0  0  0  0  0  0  0  0  0  0  0
   55.2914   32.1904   52.1248 H   0  0  0  0  0  0  0  0  0  0  0  0
   53.5490   31.2370   51.4640 C   0  0  0  0  0  0  0  0  0  0  0  0
   53.3908   31.1024   50.3838 H   0  0  0  0  0  0  0  0  0  0  0  0
   52.3500   31.4200   52.3140 C   0  0  0  0  0  0  0  0  0  0  0  0
   52.2600   30.8030   53.5770 C   0  0  0  0  0  0  0  0  0  0  0  0
   53.0744   30.1519   53.9274 H   0  0  0  0  0  0  0  0  0  0  0  0
   51.1410   31.0140   54.3870 C   0  0  0  0  0  0  0  0  0  0  0  0
   51.0700   30.5164   55.3654 H   0  0  0  0  0  0  0  0  0  0  0  0
   50.1130   31.8550   53.9570 C   0  0  0  0  0  0  0  0  0  0  0  0
   49.2305   32.0149   54.5939 H   0  0  0  0  0  0  0  0  0  0  0  0
   50.2050   32.4940   52.7170 C   0  0  0  0  0  0  0  0  0  0  0  0
   49.3980   33.1629   52.3834 H   0  0  0  0  0  0  0  0  0  0  0  0
   51.3210   32.2850   51.8990 C   0  0  0  0  0  0  0  0  0  0  0  0
   51.3950   32.9330   50.6700 O   0  0  0  0  0  0  0  0  0  0  0  0
   58.1570   31.9420   51.6010 N   0  0  0  0  0  0  0  0  0  0  0  0
   58.8750   32.7480   50.7790 C   0  0  0  0  0  0  0  0  0  0  0  0
   59.1889   33.7445   51.1230 H   0  0  0  0  0  0  0  0  0  0  0  0
   59.2150   32.3140   49.4990 C   0  0  0  0  0  0  0  0  0  0  0  0
   59.7978   32.9570   48.8230 H   0  0  0  0  0  0  0  0  0  0  0  0
  1  2  1  0
  2  3  1  0
  3  4  2  0
  4  5  1  0
  4  6  1  0
  6  7  1  0
  6  8  2  0
  8  9  1  0
  8 10  1  0
 10 11  1  0
 11 12  1  0
 12 13  1  0
 12 14  1  0
 12 15  1  0
 15 16  1  0
 15 17  1  0
 15 18  1  0
 18 19  1  0
 18 20  1  0
 18 21  1  0
 21 22  1  0
 21 23  1  0
 10 24  2  0
 24 25  1  0
 25 26  1  0
 26 27  2  0
 27 28  1  0
 28 29  2  0
 29 30  1  0
 30 31  2  0
 30 32  1  0
 32 33  1  0
 32 34  2  3
 34 35  1  0
 34 36  1  0
 36 37  2  0
 37 38  1  0
 37 39  1  0
 39 40  1  0
 39 41  2  0
 41 42  1  0
 41 43  1  0
 43 44  1  0
 43 45  2  0
 45 46  1  0
 28 47  1  0
 47 48  1  0
 48 49  1  0
 48 50  2  0
 50 51  1  0
 24  3  1  0
 50 26  1  0
 45 36  1  0
M  CHG  3   7  -1  46  -1  47  -1
M  END
>  <UniqueID>  (50) 
49

>  <SMILES>  (50) 
NCCCOc1cc([O-])cc(O)c1Oc1cc[n-]/c(=N/C(=O)C=Cc2ccccc2[O-])n1

>  <Energy>  (50) 
66.52473235794172

>  <Genealogy>  (50) 
NCCCOc1cc([O-])cc(O)c1Oc1cc[n-]c(=NC(=O)C=Cc2ccccc2[O-])n1 (protonated)
NCCCOc1cc([O-])cc(O)c1Oc1cc[n-]/c(=N/C(=O)C=Cc2ccccc2[O-])n1 (cis-trans isomerization)
NCCCOc1cc([O-])cc(O)c1Oc1cc[n-]/c(=N/C(=O)C=Cc2ccccc2[O-])n1 (3D coordinates assigned)
NCCCOc1cc([O-])cc(O)c1Oc1cc[n-]/c(=N/C(=O)C=Cc2ccccc2[O-])n1 (optimized conformer: 66.52473235794172 kcal/mol)

>  <smiles>  (50) 
NCCCOc1cc(O)cc(O)c1Oc1cc[nH]c(=NC(=O)C=Cc2ccccc2O)n1

>  <score_type>  (50) 
oracle

>  <origin>  (50) 
adg

>  <m_score__min__energy>  (50) 
-13.210000000000001

>  <m_primary>  (50) 
energy

$$$$
50:0
     RDKit          3D

 65 70  0  0  0  0  0  0  0  0999 V2000
   57.4030   33.0284   43.7296 H   0  0  0  0  0  0  0  0  0  0  0  0
   57.8600   33.3990   44.6590 C   0  0  0  0  0  0  0  0  0  0  0  0
   59.0250   34.1720   44.6050 C   0  0  0  0  0  0  0  0  0  0  0  0
   59.4891   34.4001   43.6341 H   0  0  0  0  0  0  0  0  0  0  0  0
   59.6000   34.6550   45.7860 C   0  0  0  0  0  0  0  0  0  0  0  0
   60.5219   35.2534   45.7410 H   0  0  0  0  0  0  0  0  0  0  0  0
   59.0050   34.3790   47.0300 C   0  0  0  0  0  0  0  0  0  0  0  0
   59.6190   34.9140   48.3020 C   0  0  0  0  0  0  0  0  0  0  0  0
   58.8631   35.5048   48.8401 H   0  0  0  0  0  0  0  0  0  0  0  0
   60.4858   35.5328   48.0268 H   0  0  0  0  0  0  0  0  0  0  0  0
   60.1050   33.8060   49.2050 C   0  0  0  0  0  0  0  0  0  0  0  0
   61.0780   33.0930   48.8470 O   0  0  0  0  0  0  0  0  0  0  0  0
   59.3480   33.4140   50.3580 N   0  0  0  0  0  0  0  0  0  0  0  0
   58.7700   32.2640   50.5540 C   0  0  0  0  0  0  0  0  0  0  0  0
   59.1910   31.1930   49.8350 N   0  0  0  0  0  0  0  0  0  0  0  0
   58.6050   29.9810   49.9880 C   0  0  0  0  0  0  0  0  0  0  0  0
   59.0380   28.9750   49.2830 N   0  0  0  0  0  0  0  0  0  0  0  0
   58.9860   28.7950   47.8240 C   0  0  2  0  0  0  0  0  0  0  0  0
   57.9790   27.6780   47.4360 C   0  0  0  0  0  0  0  0  0  0  0  0
   58.3071   26.7235   47.8734 H   0  0  0  0  0  0  0  0  0  0  0  0
   56.9822   27.9406   47.8198 H   0  0  0  0  0  0  0  0  0  0  0  0
   57.9110   27.5400   45.8980 C   0  0  1  0  0  0  0  0  0  0  0  0
   57.2101   26.7353   45.6310 H   0  0  0  0  0  0  0  0  0  0  0  0
   57.4260   28.8730   45.2880 C   0  0  0  0  0  0  0  0  0  0  0  0
   57.3732   28.7778   44.1934 H   0  0  0  0  0  0  0  0  0  0  0  0
   56.4286   29.1160   45.6830 H   0  0  0  0  0  0  0  0  0  0  0  0
   58.4160   29.9990   45.6600 C   0  0  2  0  0  0  0  0  0  0  0  0
   58.0656   30.9494   45.2311 H   0  0  0  0  0  0  0  0  0  0  0  0
   59.8130   29.6610   45.0980 C   0  0  0  0  0  0  0  0  0  0  0  0
   59.7545   29.5649   44.0038 H   0  0  0  0  0  0  0  0  0  0  0  0
   60.5171   30.4649   45.3587 H   0  0  0  0  0  0  0  0  0  0  0  0
   60.3050   28.3290   45.7060 C   0  0  2  0  0  0  0  0  0  0  0  0
   61.2993   28.0888   45.3014 H   0  0  0  0  0  0  0  0  0  0  0  0
   59.3140   27.1990   45.3460 C   0  0  0  0  0  0  0  0  0  0  0  0
   59.2609   27.0941   44.2523 H   0  0  0  0  0  0  0  0  0  0  0  0
   59.6609   26.2550   45.7916 H   0  0  0  0  0  0  0  0  0  0  0  0
   60.3900   28.4640   47.2430 C   0  0  0  0  0  0  0  0  0  0  0  0
   60.7486   27.5172   47.6730 H   0  0  0  0  0  0  0  0  0  0  0  0
   61.0875   29.2757   47.4971 H   0  0  0  0  0  0  0  0  0  0  0  0
   58.5000   30.1280   47.1970 C   0  0  0  0  0  0  0  0  0  0  0  0
   59.2074   30.9297   47.4556 H   0  0  0  0  0  0  0  0  0  0  0  0
   57.5007   30.3651   47.5910 H   0  0  0  0  0  0  0  0  0  0  0  0
   57.5860   29.8400   50.8770 N   0  0  0  0  0  0  0  0  0  0  0  0
   57.1750   30.8930   51.6330 C   0  0  0  0  0  0  0  0  0  0  0  0
   56.2330   30.7540   52.5220 N   0  0  0  0  0  0  0  0  0  0  0  0
   55.0910   29.8410   52.4280 C   0  0  0  0  0  0  0  0  0  0  0  0
   55.1981   29.2119   51.5320 H   0  0  0  0  0  0  0  0  0  0  0  0
   55.0584   29.2036   53.3239 H   0  0  0  0  0  0  0  0  0  0  0  0
   53.8160   30.6350   52.3330 C   0  0  0  0  0  0  0  0  0  0  0  0
   52.9790   30.7940   53.4500 C   0  0  0  0  0  0  0  0  0  0  0  0
   53.2674   30.3567   54.4173 H   0  0  0  0  0  0  0  0  0  0  0  0
   51.7790   31.5070   53.3370 C   0  0  0  0  0  0  0  0  0  0  0  0
   51.1217   31.6184   54.2120 H   0  0  0  0  0  0  0  0  0  0  0  0
   51.4150   32.0780   52.1120 C   0  0  0  0  0  0  0  0  0  0  0  0
   50.2220   32.7830   51.9990 O   0  0  0  0  0  0  0  0  0  0  0  0
   52.2560   31.9400   51.0000 C   0  0  0  0  0  0  0  0  0  0  0  0
   51.9764   32.3992   50.0403 H   0  0  0  0  0  0  0  0  0  0  0  0
   53.4500   31.2200   51.1070 C   0  0  0  0  0  0  0  0  0  0  0  0
   54.1050   31.1107   50.2300 H   0  0  0  0  0  0  0  0  0  0  0  0
   57.7770   32.1030   51.4780 N   0  0  0  0  0  0  0  0  0  0  0  0
   57.4920   32.8870   52.1020 H   0  0  0  0  0  0  0  0  0  0  0  0
   57.8470   33.5820   47.0750 C   0  0  0  0  0  0  0  0  0  0  0  0
   57.3877   33.3386   48.0444 H   0  0  0  0  0  0  0  0  0  0  0  0
   57.2760   33.0970   45.8930 C   0  0  0  0  0  0  0  0  0  0  0  0
   56.3676   32.4781   45.9347 H   0  0  0  0  0  0  0  0  0  0  0  0
  1  2  1  0
  2  3  2  0
  3  4  1  0
  3  5  1  0
  5  6  1  0
  5  7  2  0
  7  8  1  0
  8  9  1  0
  8 10  1  0
  8 11  1  0
 11 12  2  0
 11 13  1  0
 13 14  2  0
 14 15  1  0
 15 16  1  0
 16 17  2  3
 17 18  1  0
 18 19  1  0
 19 20  1  0
 19 21  1  0
 19 22  1  0
 22 23  1  1
 22 24  1  0
 24 25  1  0
 24 26  1  0
 24 27  1  0
 27 28  1  6
 27 29  1  0
 29 30  1  0
 29 31  1  0
 29 32  1  0
 32 33  1  6
 32 34  1  0
 34 35  1  0
 34 36  1  0
 32 37  1  0
 37 38  1  0
 37 39  1  0
 27 40  1  0
 40 41  1  0
 40 42  1  0
 16 43  1  0
 43 44  1  0
 44 45  2  0
 45 46  1  0
 46 47  1  0
 46 48  1  0
 46 49  1  0
 49 50  2  0
 50 51  1  0
 50 52  1  0
 52 53  1  0
 52 54  2  0
 54 55  1  0
 54 56  1  0
 56 57  1  0
 56 58  2  0
 58 59  1  0
 44 60  1  0
 60 61  1  0
  7 62  1  0
 62 63  1  0
 62 64  2  0
 64 65  1  0
 64  2  1  0
 60 14  1  0
 18 37  1  6
 58 49  1  0
 40 18  1  0
 34 22  1  0
M  CHG  3  15  -1  43  -1  55  -1
M  END
>  <UniqueID>  (51) 
50

>  <SMILES>  (51) 
O=C(Cc1ccccc1)/N=c1/[n-]c(=NC23CC4CC(CC(C4)C2)C3)[n-]/c(=N\Cc2ccc([O-])cc2)[nH]1

>  <Energy>  (51) 
78.32488923907081

>  <Genealogy>  (51) 
O=C(Cc1ccccc1)N=c1[n-]c(=NC23CC4CC(CC(C4)C2)C3)[n-]c(=NCc2ccc([O-])cc2)[nH]1 (protonated)
O=C(Cc1ccccc1)/N=c1/[n-]c(=NC23CC4CC(CC(C4)C2)C3)[n-]/c(=N\Cc2ccc([O-])cc2)[nH]1 (cis-trans isomerization)
O=C(Cc1ccccc1)/N=c1/[n-]c(=NC23CC4CC(CC(C4)C2)C3)[n-]/c(=N\Cc2ccc([O-])cc2)[nH]1 (3D coordinates assigned)
O=C(Cc1ccccc1)/N=c1/[n-]c(=NC23CC4CC(CC(C4)C2)C3)[n-]/c(=N\Cc2ccc([O-])cc2)[nH]1 (nonaromatic ring conformer: 78.32488923907081 kcal/mol)

>  <smiles>  (51) 
O=C(Cc1ccccc1)N=c1[nH]c(=NCc2ccc(O)cc2)[nH]c(=NC23CC4CC(CC(C4)C2)C3)[nH]1

>  <score_type>  (51) 
oracle

>  <origin>  (51) 
adg

>  <m_score__min__energy>  (51) 
-16.5

>  <m_primary>  (51) 
energy

$$$$
51:0
     RDKit          3D

 46 49  0  0  0  0  0  0  0  0999 V2000
   59.4240   27.7410   46.8170 O   0  0  0  0  0  0  0  0  0  0  0  0
   58.4590   27.9910   46.0440 C   0  0  0  0  0  0  0  0  0  0  0  0
   58.7230   28.6530   44.7270 C   0  0  0  0  0  0  0  0  0  0  0  0
   57.4990   29.4360   44.2290 C   0  0  0  0  0  0  0  0  0  0  0  0
   57.7080   30.9310   44.1870 C   0  0  0  0  0  0  0  0  0  0  0  0
   58.4440   31.4320   43.2960 O   0  0  0  0  0  0  0  0  0  0  0  0
   56.9110   31.8100   44.9910 N   0  0  0  0  0  0  0  0  0  0  0  0
   57.3800   32.7030   46.0590 C   0  0  2  0  0  0  0  0  0  0  0  0
   57.3420   34.1770   45.6120 C   0  0  0  0  0  0  0  0  0  0  0  0
   58.5860   34.5670   44.8180 C   0  0  0  0  0  0  0  0  0  0  0  0
   59.8520   34.3710   45.6540 C   0  0  0  0  0  0  0  0  0  0  0  0
   59.9050   33.0190   46.3250 C   0  0  0  0  0  0  0  0  0  0  0  0
   61.1430   32.5420   46.7870 C   0  0  0  0  0  0  0  0  0  0  0  0
   61.2210   31.3400   47.4940 C   0  0  0  0  0  0  0  0  0  0  0  0
   60.0620   30.6100   47.7630 C   0  0  0  0  0  0  0  0  0  0  0  0
   58.8230   31.0730   47.3150 C   0  0  0  0  0  0  0  0  0  0  0  0
   58.7290   32.2750   46.5930 C   0  0  0  0  0  0  0  0  0  0  0  0
   57.1170   27.6170   46.3870 N   0  0  0  0  0  0  0  0  0  0  0  0
   56.4790   26.5710   45.9560 C   0  0  0  0  0  0  0  0  0  0  0  0
   55.1610   26.3410   46.1530 N   0  0  0  0  0  0  0  0  0  0  0  0
   54.7550   25.1770   45.6470 N   0  0  0  0  0  0  0  0  0  0  0  0
   55.7450   24.4880   45.0370 C   0  0  0  0  0  0  0  0  0  0  0  0
   55.5610   23.1230   44.4490 C   0  0  0  0  0  0  0  0  0  0  0  0
   56.8550   22.3650   44.1870 C   0  0  0  0  0  0  0  0  0  0  0  0
   56.0820   22.9710   43.0280 C   0  0  0  0  0  0  0  0  0  0  0  0
   57.2180   25.3040   45.1360 S   0  0  0  0  0  0  0  0  0  0  0  0
   59.5685   29.3475   44.8403 H   0  0  0  0  0  0  0  0  0  0  0  0
   58.9522   27.8697   43.9895 H   0  0  0  0  0  0  0  0  0  0  0  0
   57.2564   29.0910   43.2131 H   0  0  0  0  0  0  0  0  0  0  0  0
   56.6846   29.2462   44.9436 H   0  0  0  0  0  0  0  0  0  0  0  0
   56.6820   32.6191   46.9050 H   0  0  0  0  0  0  0  0  0  0  0  0
   56.4546   34.3338   44.9812 H   0  0  0  0  0  0  0  0  0  0  0  0
   57.3050   34.8045   46.5147 H   0  0  0  0  0  0  0  0  0  0  0  0
   58.6491   33.9396   43.9167 H   0  0  0  0  0  0  0  0  0  0  0  0
   58.5081   35.6291   44.5427 H   0  0  0  0  0  0  0  0  0  0  0  0
   60.7274   34.4714   44.9955 H   0  0  0  0  0  0  0  0  0  0  0  0
   59.8483   35.1345   46.4458 H   0  0  0  0  0  0  0  0  0  0  0  0
   62.0582   33.1198   46.5904 H   0  0  0  0  0  0  0  0  0  0  0  0
   62.1970   30.9681   47.8393 H   0  0  0  0  0  0  0  0  0  0  0  0
   60.1247   29.6687   48.3287 H   0  0  0  0  0  0  0  0  0  0  0  0
   57.9136   30.4923   47.5289 H   0  0  0  0  0  0  0  0  0  0  0  0
   54.6147   22.8974   44.9624 H   0  0  0  0  0  0  0  0  0  0  0  0
   57.8183   22.7994   44.4925 H   0  0  0  0  0  0  0  0  0  0  0  0
   57.2307   21.3603   44.4305 H   0  0  0  0  0  0  0  0  0  0  0  0
   56.4861   23.8439   42.4943 H   0  0  0  0  0  0  0  0  0  0  0  0
   55.6667   22.5861   42.0849 H   0  0  0  0  0  0  0  0  0  0  0  0
  1  2  2  0
  2  3  1  0
  3  4  1  0
  4  5  1  0
  5  6  2  0
  5  7  1  0
  7  8  1  0
  8  9  1  0
  9 10  1  0
 10 11  1  0
 11 12  1  0
 12 13  2  0
 13 14  1  0
 14 15  2  0
 15 16  1  0
 16 17  2  0
  2 18  1  0
 18 19  2  3
 19 20  1  0
 20 21  1  0
 21 22  2  0
 22 23  1  0
 23 24  1  0
 24 25  1  0
 22 26  1  0
 17  8  1  0
 26 19  1  0
 17 12  1  0
 25 23  1  0
  3 27  1  0
  3 28  1  0
  4 29  1  0
  4 30  1  0
  8 31  1  1
  9 32  1  0
  9 33  1  0
 10 34  1  0
 10 35  1  0
 11 36  1  0
 11 37  1  0
 13 38  1  0
 14 39  1  0
 15 40  1  0
 16 41  1  0
 23 42  1  0
 24 43  1  0
 24 44  1  0
 25 45  1  0
 25 46  1  0
M  CHG  2   7  -1  20  -1
M  END
>  <UniqueID>  (52) 
51

>  <SMILES>  (52) 
O=C(CCC(=O)[N-][C@@H]1CCCc2ccccc21)N=c1[n-]nc(C2CC2)s1

>  <Energy>  (52) 
349.08232967703947

>  <Genealogy>  (52) 
O=C(CCC(=O)[N-]C1CCCc2ccccc21)N=c1[n-]nc(C2CC2)s1 (protonated)
O=C(CCC(=O)[N-][C@@H]1CCCc2ccccc21)N=c1[n-]nc(C2CC2)s1 (chirality)
O=C(CCC(=O)[N-][C@@H]1CCCc2ccccc21)N=c1[n-]nc(C2CC2)s1 (3D coordinates assigned)
O=C(CCC(=O)[N-][C@@H]1CCCc2ccccc21)N=c1[n-]nc(C2CC2)s1 (nonaromatic ring conformer: 349.08232967703947 kcal/mol)

>  <smiles>  (52) 
O=C(CCC(=O)NC1CCCc2ccccc21)N=c1[nH]nc(C2CC2)s1

>  <score_type>  (52) 
oracle

>  <origin>  (52) 
adg

>  <m_score__min__energy>  (52) 
-12.84

>  <m_primary>  (52) 
energy

$$$$
52:0
     RDKit          3D

 54 55  0  0  1  0  0  0  0  0999 V2000
   57.3780   25.7310   47.3750 C   0  0  0  0  0  0  0  0  0  0  0  0
   58.1170   26.4900   46.2730 C   0  0  0  0  0  0  0  0  0  0  0  0
   58.6860   25.4960   45.3130 C   0  0  0  0  0  0  0  0  0  0  0  0
   57.0990   27.3610   45.5680 C   0  0  0  0  0  0  0  0  0  0  0  0
   57.8040   28.2000   44.6030 N   0  0  0  0  0  0  0  0  0  0  0  0
   56.7700   29.5170   44.1440 S   0  0  0  0  0  0  0  0  0  0  0  0
   55.4130   29.2980   44.7530 O   0  0  0  0  0  0  0  0  0  0  0  0
   56.5850   29.5190   42.6480 O   0  0  0  0  0  0  0  0  0  0  0  0
   57.4530   31.0170   44.6660 C   0  0  0  0  0  0  0  0  0  0  0  0
   57.4080   32.1490   43.8490 C   0  0  0  0  0  0  0  0  0  0  0  0
   57.9690   33.3470   44.3000 C   0  0  0  0  0  0  0  0  0  0  0  0
   58.5700   33.4260   45.5520 C   0  0  0  0  0  0  0  0  0  0  0  0
   59.1020   34.6540   45.9240 O   0  0  0  0  0  0  0  0  0  0  0  0
   60.4030   34.7060   46.5040 C   0  0  0  0  0  0  0  0  0  0  0  0
   60.3880   33.9720   47.8180 C   0  0  0  0  0  0  0  0  0  0  0  0
   59.8710   34.5550   48.9560 C   0  0  0  0  0  0  0  0  0  0  0  0
   59.9030   33.8010   50.1110 C   0  0  0  0  0  0  0  0  0  0  0  0
   60.4330   32.5130   50.1330 C   0  0  0  0  0  0  0  0  0  0  0  0
   60.4490   31.7980   51.2850 F   0  0  0  0  0  0  0  0  0  0  0  0
   60.9470   31.9390   48.9940 C   0  0  0  0  0  0  0  0  0  0  0  0
   61.5240   30.5870   48.9260 C   0  0  0  0  0  0  0  0  0  0  0  0
   60.5860   29.5920   48.4910 N   0  0  0  0  0  0  0  0  0  0  0  0
   60.9170   32.6860   47.8360 C   0  0  0  0  0  0  0  0  0  0  0  0
   61.4150   32.1610   46.6830 F   0  0  0  0  0  0  0  0  0  0  0  0
   58.6120   32.3070   46.3550 C   0  0  0  0  0  0  0  0  0  0  0  0
   58.0520   31.1110   45.9040 C   0  0  0  0  0  0  0  0  0  0  0  0
   58.1210   30.0220   46.7450 O   0  0  0  0  0  0  0  0  0  0  0  0
   59.1180   27.3630   46.9010 C   0  0  0  0  0  0  0  0  0  0  0  0
   58.8680   27.8220   48.1870 O   0  0  0  0  0  0  0  0  0  0  0  0
   60.2180   27.7440   46.3520 N   0  0  0  0  0  0  0  0  0  0  0  0
   60.4980   29.0440   46.0770 O   0  0  0  0  0  0  0  0  0  0  0  0
   57.7223   26.0846   48.3581 H   0  0  0  0  0  0  0  0  0  0  0  0
   56.2964   25.9076   47.2800 H   0  0  0  0  0  0  0  0  0  0  0  0
   57.5834   24.6545   47.2800 H   0  0  0  0  0  0  0  0  0  0  0  0
   59.1566   24.6740   45.8723 H   0  0  0  0  0  0  0  0  0  0  0  0
   57.8807   25.0950   44.6801 H   0  0  0  0  0  0  0  0  0  0  0  0
   59.4396   25.9874   44.6801 H   0  0  0  0  0  0  0  0  0  0  0  0
   56.3662   26.7284   45.0456 H   0  0  0  0  0  0  0  0  0  0  0  0
   56.5663   27.9882   46.2979 H   0  0  0  0  0  0  0  0  0  0  0  0
   58.6480   28.5510   45.1080 H   0  0  0  0  0  0  0  0  0  0  0  0
   56.9343   32.0980   42.8575 H   0  0  0  0  0  0  0  0  0  0  0  0
   57.9348   34.2387   43.6568 H   0  0  0  0  0  0  0  0  0  0  0  0
   61.1276   34.2317   45.8257 H   0  0  0  0  0  0  0  0  0  0  0  0
   60.6927   35.7542   46.6692 H   0  0  0  0  0  0  0  0  0  0  0  0
   59.4531   35.5725   48.9434 H   0  0  0  0  0  0  0  0  0  0  0  0
   59.4988   34.2288   51.0403 H   0  0  0  0  0  0  0  0  0  0  0  0
   62.3686   30.6026   48.2214 H   0  0  0  0  0  0  0  0  0  0  0  0
   61.8394   30.3152   49.9442 H   0  0  0  0  0  0  0  0  0  0  0  0
   60.9880   28.7100   48.1640 H   0  0  0  0  0  0  0  0  0  0  0  0
   59.7400   29.9370   48.0300 H   0  0  0  0  0  0  0  0  0  0  0  0
   59.0848   32.3562   47.3470 H   0  0  0  0  0  0  0  0  0  0  0  0
   58.4920   29.1240   46.4970 H   0  0  0  0  0  0  0  0  0  0  0  0
   58.7030   28.7840   48.4290 H   0  0  0  0  0  0  0  0  0  0  0  0
   60.2530   29.8380   46.6540 H   0  0  0  0  0  0  0  0  0  0  0  0
  1  2  1  0
  2  3  1  0
  2  4  1  0
  4  5  1  0
  5  6  1  0
  6  7  2  0
  6  8  2  0
  6  9  1  0
  9 10  2  0
 10 11  1  0
 11 12  2  0
 12 13  1  0
 13 14  1  0
 14 15  1  0
 15 16  2  0
 16 17  1  0
 17 18  2  0
 18 19  1  0
 18 20  1  0
 20 21  1  0
 21 22  1  0
 20 23  2  0
 23 24  1  0
 12 25  1  0
 25 26  2  0
 26 27  1  0
  2 28  1  0
 28 29  1  0
 28 30  2  0
 30 31  1  0
 26  9  1  0
 23 15  1  0
  1 32  1  0
  1 33  1  0
  1 34  1  0
  3 35  1  0
  3 36  1  0
  3 37  1  0
  4 38  1  0
  4 39  1  0
  5 40  1  0
 10 41  1  0
 11 42  1  0
 14 43  1  0
 14 44  1  0
 16 45  1  0
 17 46  1  0
 21 47  1  0
 21 48  1  0
 22 49  1  0
 22 50  1  0
 25 51  1  0
 27 52  1  0
 29 53  1  0
 31 54  1  0
M  END
>  <smiles>  (53) 
CC(C)(CNS(=O)(=O)c1ccc(OCc2ccc(F)c(CN)c2F)cc1O)C(O)=NO

>  <score_type>  (53) 
oracle

>  <origin>  (53) 
adg

>  <m_score__min__energy>  (53) 
-8.7200000000000006

>  <m_primary>  (53) 
energy

$$$$
53:0
     RDKit          3D

 46 48  0  0  0  0  0  0  0  0999 V2000
   58.8630   29.1030   47.4760 C   0  0  0  0  0  0  0  0  0  0  0  0
   58.4450   29.2170   46.2050 C   0  0  0  0  0  0  0  0  0  0  0  0
   58.1630   28.1670   45.3270 C   0  0  0  0  0  0  0  0  0  0  0  0
   58.2570   26.8450   45.5730 C   0  0  0  0  0  0  0  0  0  0  0  0
   57.0830   25.9660   45.7720 C   0  0  0  0  0  0  0  0  0  0  0  0
   55.7720   26.4770   45.7830 C   0  0  0  0  0  0  0  0  0  0  0  0
   55.5360   27.8350   45.6040 O   0  0  0  0  0  0  0  0  0  0  0  0
   54.7220   25.6420   45.9900 N   0  0  0  0  0  0  0  0  0  0  0  0
   54.9120   24.3150   46.2070 C   0  0  0  0  0  0  0  0  0  0  0  0
   53.6290   23.3370   46.4530 S   0  0  0  0  0  0  0  0  0  0  0  0
   56.1690   23.8040   46.2320 N   0  0  0  0  0  0  0  0  0  0  0  0
   57.2540   24.5960   46.0280 C   0  0  0  0  0  0  0  0  0  0  0  0
   58.4060   24.0870   46.0620 O   0  0  0  0  0  0  0  0  0  0  0  0
   57.8080   28.7510   44.1190 C   0  0  0  0  0  0  0  0  0  0  0  0
   57.8680   30.1170   44.3080 C   0  0  0  0  0  0  0  0  0  0  0  0
   57.5770   31.1360   43.2480 C   0  0  0  0  0  0  0  0  0  0  0  0
   58.2610   30.4020   45.5700 N   0  0  0  0  0  0  0  0  0  0  0  0
   58.4310   31.7210   46.1190 C   0  0  0  0  0  0  0  0  0  0  0  0
   57.4940   32.7250   45.8440 C   0  0  0  0  0  0  0  0  0  0  0  0
   57.6530   34.0000   46.3890 C   0  0  0  0  0  0  0  0  0  0  0  0
   58.7480   34.2840   47.2090 C   0  0  0  0  0  0  0  0  0  0  0  0
   59.7040   33.2890   47.4910 C   0  0  0  0  0  0  0  0  0  0  0  0
   60.8740   33.5630   48.3690 C   0  0  0  0  0  0  0  0  0  0  0  0
   60.6740   33.7640   49.6000 O   0  0  0  0  0  0  0  0  0  0  0  0
   62.2230   33.6320   47.8410 N   0  0  0  0  0  0  0  0  0  0  0  0
   62.9600   32.4090   48.1940 C   0  0  0  0  0  0  0  0  0  0  0  0
   62.2010   33.8180   46.3800 C   0  0  0  0  0  0  0  0  0  0  0  0
   59.5270   32.0040   46.9470 C   0  0  0  0  0  0  0  0  0  0  0  0
   59.0543   30.0055   48.0751 H   0  0  0  0  0  0  0  0  0  0  0  0
   59.0141   28.1071   47.9181 H   0  0  0  0  0  0  0  0  0  0  0  0
   59.2595   26.3956   45.6288 H   0  0  0  0  0  0  0  0  0  0  0  0
   57.5325   28.2273   43.1917 H   0  0  0  0  0  0  0  0  0  0  0  0
   57.3044   32.0905   43.7219 H   0  0  0  0  0  0  0  0  0  0  0  0
   58.4701   31.2793   42.6221 H   0  0  0  0  0  0  0  0  0  0  0  0
   56.7429   30.7860   42.6221 H   0  0  0  0  0  0  0  0  0  0  0  0
   56.6311   32.5082   45.1972 H   0  0  0  0  0  0  0  0  0  0  0  0
   56.9131   34.7846   46.1720 H   0  0  0  0  0  0  0  0  0  0  0  0
   58.8641   35.2907   47.6369 H   0  0  0  0  0  0  0  0  0  0  0  0
   62.7260   34.4560   48.2420 H   0  0  0  0  0  0  0  0  0  0  0  0
   63.0153   32.3173   49.2888 H   0  0  0  0  0  0  0  0  0  0  0  0
   62.4387   31.5340   47.7786 H   0  0  0  0  0  0  0  0  0  0  0  0
   63.9772   32.4611   47.7786 H   0  0  0  0  0  0  0  0  0  0  0  0
   62.0747   34.8859   46.1482 H   0  0  0  0  0  0  0  0  0  0  0  0
   63.1479   33.4590   45.9504 H   0  0  0  0  0  0  0  0  0  0  0  0
   61.3640   33.2480   45.9504 H   0  0  0  0  0  0  0  0  0  0  0  0
   60.2563   31.2123   47.1735 H   0  0  0  0  0  0  0  0  0  0  0  0
  1  2  2  0
  2  3  1  0
  3  4  2  3
  4  5  1  0
  5  6  2  0
  6  7  1  0
  6  8  1  0
  8  9  1  0
  9 10  2  0
  9 11  1  0
 11 12  1  0
 12 13  2  0
  3 14  1  0
 14 15  2  0
 15 16  1  0
 15 17  1  0
 17 18  1  0
 18 19  2  0
 19 20  1  0
 20 21  2  0
 21 22  1  0
 22 23  1  0
 23 24  2  0
 23 25  1  0
 25 26  1  0
 25 27  1  0
 22 28  2  0
 17  2  1  0
 28 18  1  0
 12  5  1  0
  1 29  1  0
  1 30  1  0
  4 31  1  0
 14 32  1  0
 16 33  1  0
 16 34  1  0
 16 35  1  0
 19 36  1  0
 20 37  1  0
 21 38  1  0
 25 39  1  0
 26 40  1  0
 26 41  1  0
 26 42  1  0
 27 43  1  0
 27 44  1  0
 27 45  1  0
 28 46  1  0
M  CHG  4   7  -1   8  -1  11  -1  25   1
M  END
>  <UniqueID>  (54) 
52

>  <SMILES>  (54) 
C=c1c(=Cc2c([O-])[n-]c(=S)[n-]c2=O)cc(C)n1-c1cccc(C(=O)[NH+](C)C)c1

>  <Energy>  (54) 
96.5029089174656

>  <Genealogy>  (54) 
C=c1c(=Cc2c([O-])[n-]c(=S)[n-]c2=O)cc(C)n1-c1cccc(C(=O)[NH+](C)C)c1 (protonated)
C=c1c(=Cc2c([O-])[n-]c(=S)[n-]c2=O)cc(C)n1-c1cccc(C(=O)[NH+](C)C)c1 (3D coordinates assigned)
C=c1c(=Cc2c([O-])[n-]c(=S)[n-]c2=O)cc(C)n1-c1cccc(C(=O)[NH+](C)C)c1 (optimized conformer: 96.5029089174656 kcal/mol)

>  <smiles>  (54) 
C=c1c(=Cc2c(O)[nH]c(=S)[nH]c2=O)cc(C)n1-c1cccc(C(=O)N(C)C)c1

>  <score_type>  (54) 
oracle

>  <origin>  (54) 
adg

>  <m_score__min__energy>  (54) 
-14.699999999999999

>  <m_primary>  (54) 
energy

$$$$
54:0
     RDKit          3D

 26 27  0  0  0  0  0  0  0  0999 V2000
   55.1520   29.5370   45.0260 O   0  0  0  0  0  0  0  0  0  0  0  0
   56.3360   29.1790   44.7840 C   0  0  0  0  0  0  0  0  0  0  0  0
   57.0490   29.8230   43.6620 C   0  0  0  0  0  0  0  0  0  0  0  0
   58.0740   30.6840   43.7810 C   0  0  0  0  0  0  0  0  0  0  0  0
   58.0860   31.8880   44.6410 C   0  0  0  0  0  0  0  0  0  0  0  0
   57.7460   33.1270   44.0820 C   0  0  0  0  0  0  0  0  0  0  0  0
   57.7570   34.2810   44.8670 C   0  0  0  0  0  0  0  0  0  0  0  0
   58.0920   34.2070   46.2210 C   0  0  0  0  0  0  0  0  0  0  0  0
   58.4060   32.9710   46.8110 C   0  0  0  0  0  0  0  0  0  0  0  0
   58.7420   32.8940   48.2080 N   0  0  0  0  0  0  0  0  0  0  0  0
   58.4840   31.8690   48.8720 O   0  0  0  0  0  0  0  0  0  0  0  0
   59.3650   33.9500   48.8350 O   0  0  0  0  0  0  0  0  0  0  0  0
   58.3850   31.8100   46.0140 C   0  0  0  0  0  0  0  0  0  0  0  0
   56.9380   28.0890   45.5780 C   0  0  0  0  0  0  0  0  0  0  0  0
   58.2400   28.0160   45.9060 N   0  0  0  0  0  0  0  0  0  0  0  0
   58.3240   26.8800   46.6310 C   0  0  0  0  0  0  0  0  0  0  0  0
   59.7240   26.3520   47.2860 S   0  0  0  0  0  0  0  0  0  0  0  0
   57.1540   26.2210   46.7780 N   0  0  0  0  0  0  0  0  0  0  0  0
   56.2890   26.9960   46.1050 C   0  0  0  0  0  0  0  0  0  0  0  0
   54.9340   26.7150   45.9860 O   0  0  0  0  0  0  0  0  0  0  0  0
   56.7128   29.5773   42.6439 H   0  0  0  0  0  0  0  0  0  0  0  0
   58.9785   30.4766   43.1904 H   0  0  0  0  0  0  0  0  0  0  0  0
   57.4691   33.1905   43.0193 H   0  0  0  0  0  0  0  0  0  0  0  0
   57.5010   35.2520   44.4179 H   0  0  0  0  0  0  0  0  0  0  0  0
   58.1101   35.1230   46.8298 H   0  0  0  0  0  0  0  0  0  0  0  0
   58.6044   30.8329   46.4690 H   0  0  0  0  0  0  0  0  0  0  0  0
  1  2  2  0
  2  3  1  0
  3  4  2  3
  4  5  1  0
  5  6  2  0
  6  7  1  0
  7  8  2  0
  8  9  1  0
  9 10  1  0
 10 11  2  0
 10 12  1  0
  9 13  2  0
  2 14  1  0
 14 15  1  0
 15 16  1  0
 16 17  2  0
 16 18  1  0
 18 19  1  0
 19 20  1  0
 13  5  1  0
 19 14  2  0
  3 21  1  0
  4 22  1  0
  6 23  1  0
  7 24  1  0
  8 25  1  0
 13 26  1  0
M  CHG  5  10   1  12  -1  15  -1  18  -1  20  -1
M  END
>  <UniqueID>  (55) 
53

>  <SMILES>  (55) 
O=C(C=Cc1cccc([N+](=O)[O-])c1)c1[n-]c(=S)[n-]c1[O-]

>  <Energy>  (55) 
65.0178408705791

>  <Genealogy>  (55) 
O=C(C=Cc1cccc([N+](=O)[O-])c1)c1[n-]c(=S)[n-]c1[O-] (protonated)
O=C(C=Cc1cccc([N+](=O)[O-])c1)c1[n-]c(=S)[n-]c1[O-] (3D coordinates assigned)
O=C(C=Cc1cccc([N+](=O)[O-])c1)c1[n-]c(=S)[n-]c1[O-] (optimized conformer: 65.0178408705791 kcal/mol)

>  <smiles>  (55) 
O=C(C=Cc1cccc([N+](=O)[O-])c1)c1[nH]c(=S)[nH]c1O

>  <score_type>  (55) 
oracle

>  <origin>  (55) 
adg

>  <m_score__min__energy>  (55) 
-14.859999999999999

>  <m_primary>  (55) 
energy

$$$$
55:0
     RDKit          3D

 64 67  0  0  0  0  0  0  0  0999 V2000
   59.6330   35.5700   45.6480 C   0  0  0  0  0  0  0  0  0  0  0  0
   59.2330   34.1640   45.2850 C   0  0  0  0  0  0  0  0  0  0  0  0
   58.8820   33.8910   43.9530 C   0  0  0  0  0  0  0  0  0  0  0  0
   58.4910   32.6110   43.5560 C   0  0  0  0  0  0  0  0  0  0  0  0
   58.0010   32.3500   41.7200 Br  0  0  0  0  0  0  0  0  0  0  0  0
   58.4600   31.5620   44.4980 C   0  0  0  0  0  0  0  0  0  0  0  0
   58.0240   30.2330   44.1320 N   0  0  0  0  0  0  0  0  0  0  0  0
   56.6250   30.2640   43.6830 C   0  0  0  0  0  0  0  0  0  0  0  0
   55.8060   29.2840   44.4650 C   0  0  0  0  0  0  0  0  0  0  0  0
   54.6270   29.0250   44.1020 O   0  0  0  0  0  0  0  0  0  0  0  0
   56.3720   28.6580   45.6220 N   0  0  0  0  0  0  0  0  0  0  0  0
   56.7410   27.2750   45.7560 C   0  0  0  0  0  0  0  0  0  0  0  0
   55.7680   26.2790   45.9830 C   0  0  0  0  0  0  0  0  0  0  0  0
   56.1420   24.9390   46.1040 C   0  0  0  0  0  0  0  0  0  0  0  0
   57.4810   24.5730   45.9800 C   0  0  0  0  0  0  0  0  0  0  0  0
   58.4520   25.5440   45.7290 C   0  0  0  0  0  0  0  0  0  0  0  0
   58.0950   26.8980   45.6170 C   0  0  0  0  0  0  0  0  0  0  0  0
   59.1460   27.9010   45.3290 C   0  0  0  0  0  0  0  0  0  0  0  0
   59.5040   28.0880   44.1360 O   0  0  0  0  0  0  0  0  0  0  0  0
   59.7820   28.6420   46.3840 N   0  0  0  0  0  0  0  0  0  0  0  0
   59.1300   28.9790   47.6420 C   0  0  0  0  0  0  0  0  0  0  0  0
   60.1410   29.8060   48.4250 C   0  0  0  0  0  0  0  0  0  0  0  0
   61.1850   30.2660   47.4100 C   0  0  0  0  0  0  0  0  0  0  0  0
   61.0480   29.3360   46.2090 C   0  0  0  0  0  0  0  0  0  0  0  0
   58.8060   31.8340   45.8320 C   0  0  0  0  0  0  0  0  0  0  0  0
   59.2050   33.1170   46.2380 C   0  0  0  0  0  0  0  0  0  0  0  0
   59.6150   33.3560   47.9560 S   0  0  0  0  0  0  0  0  0  0  0  0
   59.2420   34.7630   48.3330 O   0  0  0  0  0  0  0  0  0  0  0  0
   58.7890   32.4350   48.8140 O   0  0  0  0  0  0  0  0  0  0  0  0
   61.3280   33.1530   48.2830 N   0  0  0  0  0  0  0  0  0  0  0  0
   62.1380   33.3580   47.0680 C   0  0  0  0  0  0  0  0  0  0  0  0
   63.6370   33.4730   47.4090 C   0  0  0  0  0  0  0  0  0  0  0  0
   63.8950   32.9480   48.6970 O   0  0  0  0  0  0  0  0  0  0  0  0
   63.2760   33.7660   49.6780 C   0  0  0  0  0  0  0  0  0  0  0  0
   61.7820   34.0260   49.3750 C   0  0  0  0  0  0  0  0  0  0  0  0
   59.6620   35.6719   46.7429 H   0  0  0  0  0  0  0  0  0  0  0  0
   60.6284   35.7867   45.2331 H   0  0  0  0  0  0  0  0  0  0  0  0
   58.9007   36.2782   45.2331 H   0  0  0  0  0  0  0  0  0  0  0  0
   58.9158   34.7004   43.2089 H   0  0  0  0  0  0  0  0  0  0  0  0
   58.6370   29.8390   43.3800 H   0  0  0  0  0  0  0  0  0  0  0  0
   58.1080   29.5960   44.9600 H   0  0  0  0  0  0  0  0  0  0  0  0
   56.2189   31.2756   43.8306 H   0  0  0  0  0  0  0  0  0  0  0  0
   56.5852   29.9936   42.6175 H   0  0  0  0  0  0  0  0  0  0  0  0
   54.7076   26.5598   46.0652 H   0  0  0  0  0  0  0  0  0  0  0  0
   55.3785   24.1711   46.2975 H   0  0  0  0  0  0  0  0  0  0  0  0
   57.7732   23.5173   46.0801 H   0  0  0  0  0  0  0  0  0  0  0  0
   59.5052   25.2465   45.6180 H   0  0  0  0  0  0  0  0  0  0  0  0
   58.2179   29.5650   47.4557 H   0  0  0  0  0  0  0  0  0  0  0  0
   58.8286   28.0777   48.1959 H   0  0  0  0  0  0  0  0  0  0  0  0
   59.6486   30.6744   48.8870 H   0  0  0  0  0  0  0  0  0  0  0  0
   60.5984   29.2206   49.2362 H   0  0  0  0  0  0  0  0  0  0  0  0
   60.9931   31.3069   47.1104 H   0  0  0  0  0  0  0  0  0  0  0  0
   62.1997   30.2283   47.8330 H   0  0  0  0  0  0  0  0  0  0  0  0
   61.0401   29.9165   45.2747 H   0  0  0  0  0  0  0  0  0  0  0  0
   61.8897   28.6306   46.1466 H   0  0  0  0  0  0  0  0  0  0  0  0
   58.7633   31.0237   46.5747 H   0  0  0  0  0  0  0  0  0  0  0  0
   61.9890   32.5051   46.3895 H   0  0  0  0  0  0  0  0  0  0  0  0
   61.8171   34.2953   46.5899 H   0  0  0  0  0  0  0  0  0  0  0  0
   64.2213   32.9110   46.6655 H   0  0  0  0  0  0  0  0  0  0  0  0
   63.9242   34.5347   47.3941 H   0  0  0  0  0  0  0  0  0  0  0  0
   63.3562   33.2671   50.6551 H   0  0  0  0  0  0  0  0  0  0  0  0
   63.7914   34.7378   49.6767 H   0  0  0  0  0  0  0  0  0  0  0  0
   61.1868   33.8199   50.2768 H   0  0  0  0  0  0  0  0  0  0  0  0
   61.6536   35.0760   49.0732 H   0  0  0  0  0  0  0  0  0  0  0  0
  1  2  1  0
  2  3  2  0
  3  4  1  0
  4  5  1  0
  4  6  2  0
  6  7  1  0
  7  8  1  0
  8  9  1  0
  9 10  2  0
  9 11  1  0
 11 12  1  0
 12 13  2  0
 13 14  1  0
 14 15  2  0
 15 16  1  0
 16 17  2  0
 17 18  1  0
 18 19  2  0
 18 20  1  0
 20 21  1  0
 21 22  1  0
 22 23  1  0
 23 24  1  0
  6 25  1  0
 25 26  2  0
 26 27  1  0
 27 28  2  0
 27 29  2  0
 27 30  1  0
 30 31  1  0
 31 32  1  0
 32 33  1  0
 33 34  1  0
 34 35  1  0
 26  2  1  0
 35 30  1  0
 17 12  1  0
 24 20  1  0
  1 36  1  0
  1 37  1  0
  1 38  1  0
  3 39  1  0
  7 40  1  0
  7 41  1  0
  8 42  1  0
  8 43  1  0
 13 44  1  0
 14 45  1  0
 15 46  1  0
 16 47  1  0
 21 48  1  0
 21 49  1  0
 22 50  1  0
 22 51  1  0
 23 52  1  0
 23 53  1  0
 24 54  1  0
 24 55  1  0
 25 56  1  0
 31 57  1  0
 31 58  1  0
 32 59  1  0
 32 60  1  0
 34 61  1  0
 34 62  1  0
 35 63  1  0
 35 64  1  0
M  CHG  2   7   1  11  -1
M  END
>  <UniqueID>  (56) 
54

>  <SMILES>  (56) 
Cc1cc(Br)c([NH2+]CC(=O)[N-]c2ccccc2C(=O)N2CCCC2)cc1S(=O)(=O)N1CCOCC1

>  <Energy>  (56) 
87.61801875066136

>  <Genealogy>  (56) 
Cc1cc(Br)c([NH2+]CC(=O)[N-]c2ccccc2C(=O)N2CCCC2)cc1S(=O)(=O)N1CCOCC1 (protonated)
Cc1cc(Br)c([NH2+]CC(=O)[N-]c2ccccc2C(=O)N2CCCC2)cc1S(=O)(=O)N1CCOCC1 (3D coordinates assigned)
Cc1cc(Br)c([NH2+]CC(=O)[N-]c2ccccc2C(=O)N2CCCC2)cc1S(=O)(=O)N1CCOCC1 (nonaromatic ring conformer: 87.61801875066136 kcal/mol)

>  <smiles>  (56) 
Cc1cc(Br)c(NCC(=O)Nc2ccccc2C(=O)N2CCCC2)cc1S(=O)(=O)N1CCOCC1

>  <score_type>  (56) 
oracle

>  <origin>  (56) 
adg

>  <m_score__min__energy>  (56) 
-10

>  <m_primary>  (56) 
energy

$$$$
56:0
     RDKit          3D

 52 54  0  0  0  0  0  0  0  0999 V2000
   56.4258   33.6977   44.3113 H   0  0  0  0  0  0  0  0  0  0  0  0
   57.3570   33.4590   44.8460 C   0  0  0  0  0  0  0  0  0  0  0  0
   57.4160   32.1670   45.5550 C   0  0  0  0  0  0  0  0  0  0  0  0
   57.7570   32.1110   46.7660 O   0  0  0  0  0  0  0  0  0  0  0  0
   56.9580   30.9910   44.8760 N   0  0  0  0  0  0  0  0  0  0  0  0
   57.5890   29.7030   44.8980 C   0  0  0  0  0  0  0  0  0  0  0  0
   58.9240   29.5240   44.4970 C   0  0  0  0  0  0  0  0  0  0  0  0
   59.5169   30.3886   44.1639 H   0  0  0  0  0  0  0  0  0  0  0  0
   59.5010   28.2510   44.5200 C   0  0  0  0  0  0  0  0  0  0  0  0
   60.5496   28.1180   44.2156 H   0  0  0  0  0  0  0  0  0  0  0  0
   58.7480   27.1470   44.9290 C   0  0  0  0  0  0  0  0  0  0  0  0
   59.2079   26.1481   44.9565 H   0  0  0  0  0  0  0  0  0  0  0  0
   57.4080   27.3110   45.3040 C   0  0  0  0  0  0  0  0  0  0  0  0
   56.4750   25.9190   45.8480 S   0  0  0  0  0  0  0  0  0  0  0  0
   56.9680   25.4780   47.1990 O   0  0  0  0  0  0  0  0  0  0  0  0
   55.0370   26.3360   45.9870 O   0  0  0  0  0  0  0  0  0  0  0  0
   56.5820   24.6070   44.6920 N   0  0  0  0  0  0  0  0  0  0  0  0
   57.9740   24.1770   44.4690 C   0  0  0  0  0  0  0  0  0  0  0  0
   58.0096   23.5461   43.5686 H   0  0  0  0  0  0  0  0  0  0  0  0
   58.5908   25.0801   44.3508 H   0  0  0  0  0  0  0  0  0  0  0  0
   58.5370   23.3720   45.6630 C   0  0  0  0  0  0  0  0  0  0  0  0
   59.1104   22.5201   45.2687 H   0  0  0  0  0  0  0  0  0  0  0  0
   59.1620   24.0606   46.2506 H   0  0  0  0  0  0  0  0  0  0  0  0
   57.5360   22.8740   46.5330 O   0  0  0  0  0  0  0  0  0  0  0  0
   56.4610   22.3490   45.7870 C   0  0  0  0  0  0  0  0  0  0  0  0
   56.8500   21.6386   45.0427 H   0  0  0  0  0  0  0  0  0  0  0  0
   55.7682   21.8393   46.4727 H   0  0  0  0  0  0  0  0  0  0  0  0
   55.7040   23.4770   45.0630 C   0  0  0  0  0  0  0  0  0  0  0  0
   55.2527   23.0668   44.1475 H   0  0  0  0  0  0  0  0  0  0  0  0
   54.9410   23.8626   45.7553 H   0  0  0  0  0  0  0  0  0  0  0  0
   56.8310   28.5890   45.2800 C   0  0  0  0  0  0  0  0  0  0  0  0
   55.7758   28.7173   45.5631 H   0  0  0  0  0  0  0  0  0  0  0  0
   58.3420   34.3670   44.7980 C   0  0  0  0  0  0  0  0  0  0  0  0
   58.3680   35.0385   43.9271 H   0  0  0  0  0  0  0  0  0  0  0  0
   59.3930   34.5390   45.8170 C   0  0  0  0  0  0  0  0  0  0  0  0
   59.6850   35.7060   46.1940 O   0  0  0  0  0  0  0  0  0  0  0  0
   60.1200   33.4050   46.3260 N   0  0  0  0  0  0  0  0  0  0  0  0
   59.7770   32.4470   46.0820 H   0  0  0  0  0  0  0  0  0  0  0  0
   61.3220   33.5180   47.1140 C   0  0  0  0  0  0  0  0  0  0  0  0
   62.5800   33.4580   46.4860 C   0  0  0  0  0  0  0  0  0  0  0  0
   62.6385   33.3684   45.3912 H   0  0  0  0  0  0  0  0  0  0  0  0
   63.7530   33.5110   47.2380 C   0  0  0  0  0  0  0  0  0  0  0  0
   64.7301   33.4840   46.7335 H   0  0  0  0  0  0  0  0  0  0  0  0
   63.6900   33.5980   48.6260 C   0  0  0  0  0  0  0  0  0  0  0  0
   64.6192   33.6348   49.2136 H   0  0  0  0  0  0  0  0  0  0  0  0
   62.4530   33.6390   49.2790 C   0  0  0  0  0  0  0  0  0  0  0  0
   62.4660   33.7030   51.0390 Cl  0  0  0  0  0  0  0  0  0  0  0  0
   61.2520   33.6170   48.5270 C   0  0  0  0  0  0  0  0  0  0  0  0
   59.9070   33.6780   49.2080 C   0  0  0  0  0  0  0  0  0  0  0  0
   60.0478   33.6716   50.2989 H   0  0  0  0  0  0  0  0  0  0  0  0
   59.3870   34.6007   48.9108 H   0  0  0  0  0  0  0  0  0  0  0  0
   59.3056   32.8062   48.9108 H   0  0  0  0  0  0  0  0  0  0  0  0
  1  2  1  0
  2  3  1  0
  3  4  2  0
  3  5  1  0
  5  6  1  0
  6  7  2  0
  7  8  1  0
  7  9  1  0
  9 10  1  0
  9 11  2  0
 11 12  1  0
 11 13  1  0
 13 14  1  0
 14 15  2  0
 14 16  2  0
 14 17  1  0
 17 18  1  0
 18 19  1  0
 18 20  1  0
 18 21  1  0
 21 22  1  0
 21 23  1  0
 21 24  1  0
 24 25  1  0
 25 26  1  0
 25 27  1  0
 25 28  1  0
 28 29  1  0
 28 30  1  0
 13 31  2  0
 31 32  1  0
  2 33  2  0
 33 34  1  0
 33 35  1  0
 35 36  2  0
 35 37  1  0
 37 38  1  0
 37 39  1  0
 39 40  2  0
 40 41  1  0
 40 42  1  0
 42 43  1  0
 42 44  2  0
 44 45  1  0
 44 46  1  0
 46 47  1  0
 46 48  2  0
 48 49  1  0
 49 50  1  0
 49 51  1  0
 49 52  1  0
 31  6  1  0
 48 39  1  0
 28 17  1  0
M  CHG  1   5  -1
M  END
>  <UniqueID>  (57) 
55

>  <SMILES>  (57) 
Cc1c(Cl)cccc1NC(=O)/C=C\C(=O)[N-]c1cccc(S(=O)(=O)N2CCOCC2)c1

>  <Energy>  (57) 
79.40885810775308

>  <Genealogy>  (57) 
Cc1c(Cl)cccc1NC(=O)C=CC(=O)[N-]c1cccc(S(=O)(=O)N2CCOCC2)c1 (protonated)
Cc1c(Cl)cccc1NC(=O)/C=C\C(=O)[N-]c1cccc(S(=O)(=O)N2CCOCC2)c1 (cis-trans isomerization)
Cc1c(Cl)cccc1NC(=O)/C=C\C(=O)[N-]c1cccc(S(=O)(=O)N2CCOCC2)c1 (3D coordinates assigned)
Cc1c(Cl)cccc1NC(=O)/C=C\C(=O)[N-]c1cccc(S(=O)(=O)N2CCOCC2)c1 (nonaromatic ring conformer: 79.40885810775308 kcal/mol)

>  <smiles>  (57) 
Cc1c(Cl)cccc1NC(=O)C=CC(=O)Nc1cccc(S(=O)(=O)N2CCOCC2)c1

>  <score_type>  (57) 
oracle

>  <origin>  (57) 
adg

>  <m_score__min__energy>  (57) 
-12.06

>  <m_primary>  (57) 
energy

$$$$
57:0
     RDKit          3D

 43 45  0  0  0  0  0  0  0  0999 V2000
   57.4340   22.6800   43.7670 C   0  0  0  0  0  0  0  0  0  0  0  0
   56.0630   23.3040   43.5660 C   0  0  0  0  0  0  0  0  0  0  0  0
   55.1010   22.6070   44.3520 O   0  0  0  0  0  0  0  0  0  0  0  0
   54.1920   23.2620   45.1860 C   0  0  0  0  0  0  0  0  0  0  0  0
   52.9740   23.3400   44.8670 O   0  0  0  0  0  0  0  0  0  0  0  0
   54.6710   23.8860   46.3800 N   0  0  0  0  0  0  0  0  0  0  0  0
   55.8870   24.6390   46.4950 C   0  0  0  0  0  0  0  0  0  0  0  0
   55.9020   25.9610   46.0320 C   0  0  0  0  0  0  0  0  0  0  0  0
   57.0700   26.7410   46.1040 C   0  0  0  0  0  0  0  0  0  0  0  0
   57.0490   28.1490   45.6300 C   0  0  0  0  0  0  0  0  0  0  0  0
   58.1660   28.9910   45.7630 C   0  0  0  0  0  0  0  0  0  0  0  0
   58.0800   30.3060   45.2920 C   0  0  0  0  0  0  0  0  0  0  0  0
   59.2320   31.2540   45.4530 C   0  0  0  0  0  0  0  0  0  0  0  0
   59.1970   31.8830   46.8190 C   0  0  0  0  0  0  0  0  0  0  0  0
   59.2830   33.2780   46.9620 C   0  0  0  0  0  0  0  0  0  0  0  0
   59.2890   33.8570   48.2340 C   0  0  0  0  0  0  0  0  0  0  0  0
   59.2170   33.0490   49.3730 C   0  0  0  0  0  0  0  0  0  0  0  0
   59.2210   33.6270   50.6370 O   0  0  0  0  0  0  0  0  0  0  0  0
   59.1420   31.6580   49.2390 C   0  0  0  0  0  0  0  0  0  0  0  0
   59.1370   31.0760   47.9680 C   0  0  0  0  0  0  0  0  0  0  0  0
   56.9230   30.7440   44.7280 N   0  0  0  0  0  0  0  0  0  0  0  0
   55.8550   29.9190   44.5940 C   0  0  0  0  0  0  0  0  0  0  0  0
   54.7970   30.3420   44.0590 O   0  0  0  0  0  0  0  0  0  0  0  0
   55.9240   28.6370   45.0390 N   0  0  0  0  0  0  0  0  0  0  0  0
   58.2330   26.1710   46.6550 C   0  0  0  0  0  0  0  0  0  0  0  0
   58.2330   24.8430   47.0870 C   0  0  0  0  0  0  0  0  0  0  0  0
   57.0740   24.0690   46.9950 C   0  0  0  0  0  0  0  0  0  0  0  0
   57.1230   22.7310   47.3720 O   0  0  0  0  0  0  0  0  0  0  0  0
   57.6399   22.5863   44.8435 H   0  0  0  0  0  0  0  0  0  0  0  0
   57.4552   21.6836   43.3015 H   0  0  0  0  0  0  0  0  0  0  0  0
   58.1993   23.3185   43.3015 H   0  0  0  0  0  0  0  0  0  0  0  0
   56.0924   24.3595   43.8744 H   0  0  0  0  0  0  0  0  0  0  0  0
   55.7838   23.2384   42.5040 H   0  0  0  0  0  0  0  0  0  0  0  0
   54.9860   26.3958   45.6055 H   0  0  0  0  0  0  0  0  0  0  0  0
   59.0919   28.6230   46.2292 H   0  0  0  0  0  0  0  0  0  0  0  0
   60.1762   30.7033   45.3302 H   0  0  0  0  0  0  0  0  0  0  0  0
   59.1574   32.0438   44.6910 H   0  0  0  0  0  0  0  0  0  0  0  0
   59.3459   33.9172   46.0690 H   0  0  0  0  0  0  0  0  0  0  0  0
   59.3505   34.9502   48.3393 H   0  0  0  0  0  0  0  0  0  0  0  0
   59.0869   31.0219   50.1348 H   0  0  0  0  0  0  0  0  0  0  0  0
   59.0859   29.9819   47.8668 H   0  0  0  0  0  0  0  0  0  0  0  0
   59.1476   26.7753   46.7459 H   0  0  0  0  0  0  0  0  0  0  0  0
   59.1519   24.4036   47.5025 H   0  0  0  0  0  0  0  0  0  0  0  0
  1  2  1  0
  2  3  1  0
  3  4  1  0
  4  5  2  0
  4  6  1  0
  6  7  1  0
  7  8  2  0
  8  9  1  0
  9 10  1  0
 10 11  1  0
 11 12  2  0
 12 13  1  0
 13 14  1  0
 14 15  2  0
 15 16  1  0
 16 17  2  0
 17 18  1  0
 17 19  1  0
 19 20  2  0
 12 21  1  0
 21 22  1  0
 22 23  2  0
 22 24  1  0
  9 25  2  0
 25 26  1  0
 26 27  2  0
 27 28  1  0
 27  7  1  0
 24 10  2  0
 20 14  1  0
  1 29  1  0
  1 30  1  0
  1 31  1  0
  2 32  1  0
  2 33  1  0
  8 34  1  0
 11 35  1  0
 13 36  1  0
 13 37  1  0
 15 38  1  0
 16 39  1  0
 19 40  1  0
 20 41  1  0
 25 42  1  0
 26 43  1  0
M  CHG  4   6  -1  18  -1  21  -1  28  -1
M  END
>  <UniqueID>  (58) 
56

>  <SMILES>  (58) 
CCOC(=O)[N-]c1cc(-c2cc(Cc3ccc([O-])cc3)[n-]c(=O)n2)ccc1[O-]

>  <Energy>  (58) 
49.39890597695281

>  <Genealogy>  (58) 
CCOC(=O)[N-]c1cc(-c2cc(Cc3ccc([O-])cc3)[n-]c(=O)n2)ccc1[O-] (protonated)
CCOC(=O)[N-]c1cc(-c2cc(Cc3ccc([O-])cc3)[n-]c(=O)n2)ccc1[O-] (3D coordinates assigned)
CCOC(=O)[N-]c1cc(-c2cc(Cc3ccc([O-])cc3)[n-]c(=O)n2)ccc1[O-] (optimized conformer: 49.39890597695281 kcal/mol)

>  <smiles>  (58) 
CCOC(=O)Nc1cc(-c2cc(Cc3ccc(O)cc3)[nH]c(=O)n2)ccc1O

>  <score_type>  (58) 
oracle

>  <origin>  (58) 
adg

>  <m_score__min__energy>  (58) 
-13.539999999999999

>  <m_primary>  (58) 
energy

$$$$
58:0
     RDKit          3D

 53 56  0  0  0  0  0  0  0  0999 V2000
   58.8115   24.0966   44.2666 H   0  0  0  0  0  0  0  0  0  0  0  0
   58.0960   24.6260   44.9130 C   0  0  0  0  0  0  0  0  0  0  0  0
   58.5560   24.9960   46.2680 C   0  0  0  0  0  0  0  0  0  0  0  0
   57.9870   24.5350   47.2920 O   0  0  0  0  0  0  0  0  0  0  0  0
   59.6470   25.9140   46.3940 N   0  0  0  0  0  0  0  0  0  0  0  0
   59.5590   27.3380   46.5620 C   0  0  0  0  0  0  0  0  0  0  0  0
   59.3030   27.9310   47.8100 C   0  0  0  0  0  0  0  0  0  0  0  0
   59.1714   27.2984   48.7002 H   0  0  0  0  0  0  0  0  0  0  0  0
   59.2150   29.3200   47.9250 C   0  0  0  0  0  0  0  0  0  0  0  0
   59.0208   29.7726   48.9086 H   0  0  0  0  0  0  0  0  0  0  0  0
   59.3720   30.1490   46.7960 C   0  0  0  0  0  0  0  0  0  0  0  0
   59.2790   31.5880   46.9130 N   0  0  0  0  0  0  0  0  0  0  0  0
   58.3500   32.1780   47.8890 C   0  0  0  0  0  0  0  0  0  0  0  0
   57.4876   31.5046   48.0023 H   0  0  0  0  0  0  0  0  0  0  0  0
   58.9024   32.3037   48.8319 H   0  0  0  0  0  0  0  0  0  0  0  0
   57.8340   33.5690   47.4710 C   0  0  0  0  0  0  0  0  0  0  0  0
   56.8212   33.4516   47.0581 H   0  0  0  0  0  0  0  0  0  0  0  0
   57.8560   34.1987   48.3727 H   0  0  0  0  0  0  0  0  0  0  0  0
   58.6700   34.2450   46.4610 N   0  0  0  0  0  0  0  0  0  0  0  0
   58.0700   34.4190   45.1190 C   0  0  0  0  0  0  0  0  0  0  0  0
   57.1579   35.0247   45.2250 H   0  0  0  0  0  0  0  0  0  0  0  0
   58.8333   34.9033   44.4922 H   0  0  0  0  0  0  0  0  0  0  0  0
   57.7020   33.1250   44.4320 C   0  0  0  0  0  0  0  0  0  0  0  0
   58.2090   32.8140   43.1620 C   0  0  0  0  0  0  0  0  0  0  0  0
   58.8580   33.5329   42.6405 H   0  0  0  0  0  0  0  0  0  0  0  0
   57.8940   31.5970   42.5570 C   0  0  0  0  0  0  0  0  0  0  0  0
   58.2905   31.3620   41.5582 H   0  0  0  0  0  0  0  0  0  0  0  0
   57.0780   30.6780   43.2150 C   0  0  0  0  0  0  0  0  0  0  0  0
   56.8315   29.7191   42.7357 H   0  0  0  0  0  0  0  0  0  0  0  0
   56.5740   30.9750   44.4820 C   0  0  0  0  0  0  0  0  0  0  0  0
   55.7620   30.0620   45.1340 O   0  0  0  0  0  0  0  0  0  0  0  0
   56.8880   32.1900   45.0910 C   0  0  0  0  0  0  0  0  0  0  0  0
   56.4956   32.4169   46.0933 H   0  0  0  0  0  0  0  0  0  0  0  0
   60.1050   33.9140   46.5120 C   0  0  0  0  0  0  0  0  0  0  0  0
   60.6198   34.4472   45.6992 H   0  0  0  0  0  0  0  0  0  0  0  0
   60.4852   34.2194   47.4980 H   0  0  0  0  0  0  0  0  0  0  0  0
   60.3630   32.4110   46.3560 C   0  0  0  0  0  0  0  0  0  0  0  0
   60.4649   32.1808   45.2852 H   0  0  0  0  0  0  0  0  0  0  0  0
   61.2811   32.1721   46.9128 H   0  0  0  0  0  0  0  0  0  0  0  0
   59.6230   29.5450   45.5500 C   0  0  0  0  0  0  0  0  0  0  0  0
   59.7590   30.1734   44.6575 H   0  0  0  0  0  0  0  0  0  0  0  0
   59.7010   28.1560   45.4360 C   0  0  0  0  0  0  0  0  0  0  0  0
   59.8760   27.6998   44.4505 H   0  0  0  0  0  0  0  0  0  0  0  0
   56.8810   24.8800   44.4030 C   0  0  0  0  0  0  0  0  0  0  0  0
   56.8326   25.5019   43.4970 H   0  0  0  0  0  0  0  0  0  0  0  0
   55.6050   24.3920   44.9600 C   0  0  0  0  0  0  0  0  0  0  0  0
   54.6680   25.1450   45.6350 C   0  0  0  0  0  0  0  0  0  0  0  0
   54.8230   26.4780   45.9860 O   0  0  0  0  0  0  0  0  0  0  0  0
   53.5520   24.4380   45.9070 N   0  0  0  0  0  0  0  0  0  0  0  0
   53.7640   23.2170   45.3750 C   0  0  0  0  0  0  0  0  0  0  0  0
   53.0520   22.3796   45.4188 H   0  0  0  0  0  0  0  0  0  0  0  0
   55.0000   23.1690   44.7690 C   0  0  0  0  0  0  0  0  0  0  0  0
   55.5040   22.0990   44.0390 O   0  0  0  0  0  0  0  0  0  0  0  0
  1  2  1  0
  2  3  1  0
  3  4  2  0
  3  5  1  0
  5  6  1  0
  6  7  2  0
  7  8  1  0
  7  9  1  0
  9 10  1  0
  9 11  2  0
 11 12  1  0
 12 13  1  0
 13 14  1  0
 13 15  1  0
 13 16  1  0
 16 17  1  0
 16 18  1  0
 16 19  1  0
 19 20  1  0
 20 21  1  0
 20 22  1  0
 20 23  1  0
 23 24  2  0
 24 25  1  0
 24 26  1  0
 26 27  1  0
 26 28  2  0
 28 29  1  0
 28 30  1  0
 30 31  1  0
 30 32  2  0
 32 33  1  0
 19 34  1  0
 34 35  1  0
 34 36  1  0
 34 37  1  0
 37 38  1  0
 37 39  1  0
 11 40  1  0
 40 41  1  0
 40 42  2  0
 42 43  1  0
  2 44  2  0
 44 45  1  0
 44 46  1  0
 46 47  2  0
 47 48  1  0
 47 49  1  0
 49 50  1  0
 50 51  1  0
 50 52  2  0
 52 53  1  0
 42  6  1  0
 52 46  1  0
 37 12  1  0
 32 23  1  0
M  CHG  5   5  -1  31  -1  48  -1  49  -1  53  -1
M  END
>  <UniqueID>  (59) 
57

>  <SMILES>  (59) 
O=C(/C=C\c1c([O-])c[n-]c1[O-])[N-]c1ccc(N2CCN(Cc3cccc([O-])c3)CC2)cc1

>  <Energy>  (59) 
110.70452923239048

>  <Genealogy>  (59) 
O=C(C=Cc1c([O-])c[n-]c1[O-])[N-]c1ccc(N2CCN(Cc3cccc([O-])c3)CC2)cc1 (protonated)
O=C(/C=C\c1c([O-])c[n-]c1[O-])[N-]c1ccc(N2CCN(Cc3cccc([O-])c3)CC2)cc1 (cis-trans isomerization)
O=C(/C=C\c1c([O-])c[n-]c1[O-])[N-]c1ccc(N2CCN(Cc3cccc([O-])c3)CC2)cc1 (3D coordinates assigned)
O=C(/C=C\c1c([O-])c[n-]c1[O-])[N-]c1ccc(N2CCN(Cc3cccc([O-])c3)CC2)cc1 (nonaromatic ring conformer: 110.70452923239048 kcal/mol)

>  <smiles>  (59) 
O=C(C=Cc1c(O)c[nH]c1O)Nc1ccc(N2CCN(Cc3cccc(O)c3)CC2)cc1

>  <score_type>  (59) 
oracle

>  <origin>  (59) 
adg

>  <m_score__min__energy>  (59) 
-20.100000000000001

>  <m_primary>  (59) 
energy

$$$$
59:0
     RDKit          3D

 45 47  0  0  0  0  0  0  0  0999 V2000
   57.6810   21.4140   43.4170 C   0  0  0  0  0  0  0  0  0  0  0  0
   56.6570   22.4970   43.4120 C   0  0  0  0  0  0  0  0  0  0  0  0
   55.6740   22.4290   42.6260 O   0  0  0  0  0  0  0  0  0  0  0  0
   56.8170   23.5980   44.2590 O   0  0  0  0  0  0  0  0  0  0  0  0
   58.0670   23.9520   44.8490 C   0  0  0  0  0  0  0  0  0  0  0  0
   58.0320   25.3820   45.3480 C   0  0  0  0  0  0  0  0  0  0  0  0
   58.2460   25.5990   46.7200 C   0  0  0  0  0  0  0  0  0  0  0  0
   58.2370   26.8860   47.2480 C   0  0  0  0  0  0  0  0  0  0  0  0
   57.9820   27.9770   46.4240 C   0  0  0  0  0  0  0  0  0  0  0  0
   57.7380   27.7970   45.0580 C   0  0  0  0  0  0  0  0  0  0  0  0
   57.3790   28.9600   44.2950 N   0  0  0  0  0  0  0  0  0  0  0  0
   56.2710   29.8420   44.5420 C   0  0  0  0  0  0  0  0  0  0  0  0
   55.1640   29.3450   44.8710 O   0  0  0  0  0  0  0  0  0  0  0  0
   56.3950   31.2710   44.4780 N   0  0  0  0  0  0  0  0  0  0  0  0
   57.1820   32.0030   45.2070 C   0  0  0  0  0  0  0  0  0  0  0  0
   56.9760   33.3110   45.4750 N   0  0  0  0  0  0  0  0  0  0  0  0
   57.9800   33.8350   46.2260 C   0  0  0  0  0  0  0  0  0  0  0  0
   58.9930   32.9330   46.5720 C   0  0  0  0  0  0  0  0  0  0  0  0
   60.2390   33.2360   47.3230 C   0  0  0  0  0  0  0  0  0  0  0  0
   60.1910   33.7730   48.6250 C   0  0  0  0  0  0  0  0  0  0  0  0
   61.3700   34.0790   49.3110 C   0  0  0  0  0  0  0  0  0  0  0  0
   62.6090   33.8570   48.7110 C   0  0  0  0  0  0  0  0  0  0  0  0
   62.6770   33.3280   47.4190 C   0  0  0  0  0  0  0  0  0  0  0  0
   63.9210   33.1160   46.8310 O   0  0  0  0  0  0  0  0  0  0  0  0
   61.4960   33.0200   46.7280 C   0  0  0  0  0  0  0  0  0  0  0  0
   58.5840   31.4290   45.9190 S   0  0  0  0  0  0  0  0  0  0  0  0
   57.8430   26.4990   44.4860 C   0  0  0  0  0  0  0  0  0  0  0  0
   57.7940   26.3100   42.9890 C   0  0  0  0  0  0  0  0  0  0  0  0
   57.9305   21.1501   44.4553 H   0  0  0  0  0  0  0  0  0  0  0  0
   57.2815   20.5292   42.8997 H   0  0  0  0  0  0  0  0  0  0  0  0
   58.5867   21.7634   42.8997 H   0  0  0  0  0  0  0  0  0  0  0  0
   58.2720   23.2785   45.6942 H   0  0  0  0  0  0  0  0  0  0  0  0
   58.8577   23.8593   44.0899 H   0  0  0  0  0  0  0  0  0  0  0  0
   58.4228   24.7405   47.3846 H   0  0  0  0  0  0  0  0  0  0  0  0
   58.4320   27.0411   48.3194 H   0  0  0  0  0  0  0  0  0  0  0  0
   57.9720   28.9910   46.8502 H   0  0  0  0  0  0  0  0  0  0  0  0
   57.9955   34.8895   46.5388 H   0  0  0  0  0  0  0  0  0  0  0  0
   59.2179   33.9528   49.1054 H   0  0  0  0  0  0  0  0  0  0  0  0
   61.3201   34.4963   50.3275 H   0  0  0  0  0  0  0  0  0  0  0  0
   63.5340   34.0985   49.2551 H   0  0  0  0  0  0  0  0  0  0  0  0
   64.5250   32.3580   47.1280 H   0  0  0  0  0  0  0  0  0  0  0  0
   61.5528   32.6054   45.7107 H   0  0  0  0  0  0  0  0  0  0  0  0
   57.5240   25.2686   42.7595 H   0  0  0  0  0  0  0  0  0  0  0  0
   57.0417   26.9872   42.5583 H   0  0  0  0  0  0  0  0  0  0  0  0
   58.7805   26.5364   42.5583 H   0  0  0  0  0  0  0  0  0  0  0  0
  1  2  1  0
  2  3  2  0
  2  4  1  0
  4  5  1  0
  5  6  1  0
  6  7  2  0
  7  8  1  0
  8  9  2  0
  9 10  1  0
 10 11  1  0
 11 12  1  0
 12 13  2  0
 12 14  1  0
 14 15  2  3
 15 16  1  0
 16 17  1  0
 17 18  2  0
 18 19  1  0
 19 20  2  0
 20 21  1  0
 21 22  2  0
 22 23  1  0
 23 24  1  0
 23 25  2  0
 18 26  1  0
 10 27  2  0
 27 28  1  0
 27  6  1  0
 26 15  1  0
 25 19  1  0
  1 29  1  0
  1 30  1  0
  1 31  1  0
  5 32  1  0
  5 33  1  0
  7 34  1  0
  8 35  1  0
  9 36  1  0
 17 37  1  0
 20 38  1  0
 21 39  1  0
 22 40  1  0
 24 41  1  0
 25 42  1  0
 28 43  1  0
 28 44  1  0
 28 45  1  0
M  CHG  2  11  -1  16  -1
M  END
>  <UniqueID>  (60) 
58

>  <SMILES>  (60) 
CC(=O)OCc1cccc([N-]C(=O)N=c2[n-]cc(-c3cccc(O)c3)s2)c1C

>  <Energy>  (60) 
87.80085951865323

>  <Genealogy>  (60) 
CC(=O)OCc1cccc([N-]C(=O)N=c2[n-]cc(-c3cccc(O)c3)s2)c1C (protonated)
CC(=O)OCc1cccc([N-]C(=O)N=c2[n-]cc(-c3cccc(O)c3)s2)c1C (3D coordinates assigned)
CC(=O)OCc1cccc([N-]C(=O)N=c2[n-]cc(-c3cccc(O)c3)s2)c1C (optimized conformer: 87.80085951865323 kcal/mol)

>  <smiles>  (60) 
CC(=O)OCc1cccc(NC(=O)N=c2[nH]cc(-c3cccc(O)c3)s2)c1C

>  <score_type>  (60) 
oracle

>  <origin>  (60) 
adg

>  <m_score__min__energy>  (60) 
-11.859999999999999

>  <m_primary>  (60) 
energy

$$$$
60:0
     RDKit          3D

 24 25  0  0  0  0  0  0  0  0999 V2000
   60.3880   30.1140   46.0840 O   0  0  0  0  0  0  0  0  0  0  0  0
   59.1430   30.1720   45.9030 C   0  0  0  0  0  0  0  0  0  0  0  0
   58.3620   28.9660   45.8960 N   0  0  0  0  0  0  0  0  0  0  0  0
   58.9500   27.6560   46.1640 C   0  0  0  0  0  0  0  0  0  0  0  0
   57.8710   26.6390   46.3930 C   0  0  0  0  0  0  0  0  0  0  0  0
   58.1850   25.3650   46.8820 C   0  0  0  0  0  0  0  0  0  0  0  0
   57.1500   24.4460   47.0580 C   0  0  0  0  0  0  0  0  0  0  0  0
   57.3940   23.2930   47.4990 O   0  0  0  0  0  0  0  0  0  0  0  0
   55.8730   24.7960   46.7510 N   0  0  0  0  0  0  0  0  0  0  0  0
   55.5850   26.0350   46.2720 C   0  0  0  0  0  0  0  0  0  0  0  0
   54.3980   26.3390   45.9920 O   0  0  0  0  0  0  0  0  0  0  0  0
   56.5790   26.9430   46.0940 N   0  0  0  0  0  0  0  0  0  0  0  0
   58.5170   31.4910   45.7010 C   0  0  0  0  0  0  0  0  0  0  0  0
   59.1010   32.7300   45.8950 C   0  0  0  0  0  0  0  0  0  0  0  0
   58.1280   33.6530   45.5750 C   0  0  0  0  0  0  0  0  0  0  0  0
   57.0150   32.9270   45.2090 C   0  0  0  0  0  0  0  0  0  0  0  0
   57.2770   31.6440   45.2930 O   0  0  0  0  0  0  0  0  0  0  0  0
   57.3420   29.0050   45.6780 H   0  0  0  0  0  0  0  0  0  0  0  0
   59.5611   27.3492   45.3024 H   0  0  0  0  0  0  0  0  0  0  0  0
   59.5769   27.7224   47.0655 H   0  0  0  0  0  0  0  0  0  0  0  0
   59.2240   25.0949   47.1219 H   0  0  0  0  0  0  0  0  0  0  0  0
   60.1271   32.9358   46.2337 H   0  0  0  0  0  0  0  0  0  0  0  0
   58.2212   34.7486   45.6056 H   0  0  0  0  0  0  0  0  0  0  0  0
   56.0531   33.3578   44.8942 H   0  0  0  0  0  0  0  0  0  0  0  0
  1  2  2  0
  2  3  1  0
  3  4  1  0
  4  5  1  0
  5  6  2  0
  6  7  1  0
  7  8  2  0
  7  9  1  0
  9 10  1  0
 10 11  2  0
 10 12  1  0
  2 13  1  0
 13 14  2  0
 14 15  1  0
 15 16  2  0
 16 17  1  0
 12  5  1  0
 17 13  1  0
  3 18  1  0
  4 19  1  0
  4 20  1  0
  6 21  1  0
 14 22  1  0
 15 23  1  0
 16 24  1  0
M  CHG  2   9  -1  12  -1
M  END
>  <UniqueID>  (61) 
59

>  <SMILES>  (61) 
O=C(NCc1cc(=O)[n-]c(=O)[n-]1)c1ccco1

>  <Energy>  (61) 
48.32636367002406

>  <Genealogy>  (61) 
O=C(NCc1cc(=O)[n-]c(=O)[n-]1)c1ccco1 (protonated)
O=C(NCc1cc(=O)[n-]c(=O)[n-]1)c1ccco1 (3D coordinates assigned)
O=C(NCc1cc(=O)[n-]c(=O)[n-]1)c1ccco1 (optimized conformer: 48.32636367002406 kcal/mol)

>  <smiles>  (61) 
O=C(NCc1cc(=O)[nH]c(=O)[nH]1)c1ccco1

>  <score_type>  (61) 
oracle

>  <origin>  (61) 
adg

>  <m_score__min__energy>  (61) 
-11.199999999999999

>  <m_primary>  (61) 
energy

$$$$
61:0
     RDKit          3D

 39 41  0  0  1  0  0  0  0  0999 V2000
   57.8120   28.9270   46.8040 N   0  0  0  0  0  0  0  0  0  0  0  0
   57.3800   25.5340   46.0410 C   0  0  0  0  0  0  0  0  0  0  0  0
   57.4800   26.6870   46.7240 N   0  0  0  0  0  0  0  0  0  0  0  0
   57.7280   27.8630   46.0860 C   0  0  0  0  0  0  0  0  0  0  0  0
   57.1520   24.4680   46.6580 O   0  0  0  0  0  0  0  0  0  0  0  0
   57.5230   25.5150   44.7060 N   0  0  0  0  0  0  0  0  0  0  0  0
   57.4110   24.2400   44.0340 C   0  0  1  0  0  0  0  0  0  0  0  0
   58.4520   23.3440   44.5200 C   0  0  0  0  0  0  0  0  0  0  0  0
   58.1690   22.0580   44.4860 C   0  0  0  0  0  0  0  0  0  0  0  0
   56.5240   21.9190   43.8190 S   0  0  0  0  0  0  0  0  0  0  0  0
   56.5820   21.7260   42.3420 O   0  0  0  0  0  0  0  0  0  0  0  0
   55.7050   20.9260   44.5460 O   0  0  0  0  0  0  0  0  0  0  0  0
   56.0460   23.6190   44.2250 C   0  0  0  0  0  0  0  0  0  0  0  0
   57.7680   26.6750   44.0610 C   0  0  0  0  0  0  0  0  0  0  0  0
   57.8810   27.8870   44.7150 C   0  0  0  0  0  0  0  0  0  0  0  0
   58.1540   29.0640   43.9880 N   0  0  0  0  0  0  0  0  0  0  0  0
   57.2100   30.5060   44.0980 S   0  0  0  0  0  0  0  0  0  0  0  0
   55.9270   30.2200   44.8500 O   0  0  0  0  0  0  0  0  0  0  0  0
   56.8170   30.8920   42.6900 O   0  0  0  0  0  0  0  0  0  0  0  0
   58.0550   31.8290   44.8290 C   0  0  0  0  0  0  0  0  0  0  0  0
   57.7860   33.1080   44.3270 C   0  0  0  0  0  0  0  0  0  0  0  0
   58.4080   34.2290   44.8490 C   0  0  0  0  0  0  0  0  0  0  0  0
   59.3220   34.0950   45.8960 C   0  0  0  0  0  0  0  0  0  0  0  0
   59.5820   32.8220   46.3870 C   0  0  0  0  0  0  0  0  0  0  0  0
   58.9580   31.7030   45.8610 C   0  0  0  0  0  0  0  0  0  0  0  0
   57.3460   29.8330   46.6030 H   0  0  0  0  0  0  0  0  0  0  0  0
   57.3620   26.6470   47.7550 H   0  0  0  0  0  0  0  0  0  0  0  0
   57.5405   24.4078   42.9546 H   0  0  0  0  0  0  0  0  0  0  0  0
   59.4165   23.7190   44.8930 H   0  0  0  0  0  0  0  0  0  0  0  0
   58.8209   21.2321   44.8067 H   0  0  0  0  0  0  0  0  0  0  0  0
   55.2973   24.0242   43.5283 H   0  0  0  0  0  0  0  0  0  0  0  0
   55.5637   23.7768   45.2010 H   0  0  0  0  0  0  0  0  0  0  0  0
   57.8827   26.6547   42.9672 H   0  0  0  0  0  0  0  0  0  0  0  0
   58.9880   29.0310   43.3440 H   0  0  0  0  0  0  0  0  0  0  0  0
   57.0671   33.2242   43.5026 H   0  0  0  0  0  0  0  0  0  0  0  0
   58.1824   35.2246   44.4393 H   0  0  0  0  0  0  0  0  0  0  0  0
   59.8240   34.9763   46.3217 H   0  0  0  0  0  0  0  0  0  0  0  0
   60.2994   32.6999   47.2119 H   0  0  0  0  0  0  0  0  0  0  0  0
   59.1851   30.7075   46.2701 H   0  0  0  0  0  0  0  0  0  0  0  0
  1  2  2  3
  2  3  1  0
  3  4  1  0
  4  5  2  0
  4  6  1  0
  6  7  1  0
  7  8  1  0
  8  9  2  0
  9 10  1  0
 10 11  2  0
 10 12  2  0
 10 13  1  0
  6 14  1  0
 14 15  2  0
 15 16  1  0
 16 17  1  0
 17 18  2  0
 17 19  2  0
 17 20  1  0
 20 21  2  0
 21 22  1  0
 22 23  2  0
 23 24  1  0
 24 25  2  0
 15  2  1  0
 25 20  1  0
 13  7  1  0
  1 26  1  0
  3 27  1  0
  7 28  1  6
  8 29  1  0
  9 30  1  0
 13 31  1  0
 13 32  1  0
 14 33  1  0
 16 34  1  0
 21 35  1  0
 22 36  1  0
 23 37  1  0
 24 38  1  0
 25 39  1  0
M  END
>  <smiles>  (62) 
N=c1[nH]c(=O)n(C2C=CS(=O)(=O)C2)cc1NS(=O)(=O)c1ccccc1

>  <score_type>  (62) 
oracle

>  <origin>  (62) 
adg

>  <m_score__min__energy>  (62) 
-8.6899999999999995

>  <m_primary>  (62) 
energy

$$$$
62:0
     RDKit          3D

 35 36  0  0  0  0  0  0  0  0999 V2000
   56.6480   22.9150   43.5770 C   0  0  0  0  0  0  0  0  0  0  0  0
   55.3380   22.5120   43.9580 O   0  0  0  0  0  0  0  0  0  0  0  0
   54.4750   23.3430   44.6770 C   0  0  0  0  0  0  0  0  0  0  0  0
   53.2780   23.0020   44.8870 O   0  0  0  0  0  0  0  0  0  0  0  0
   54.9850   24.6350   45.2320 C   0  0  0  0  0  0  0  0  0  0  0  0
   55.1690   24.5290   46.6410 O   0  0  0  0  0  0  0  0  0  0  0  0
   56.0330   23.6010   47.2390 C   0  0  0  0  0  0  0  0  0  0  0  0
   55.5860   22.5050   47.6700 O   0  0  0  0  0  0  0  0  0  0  0  0
   57.4340   23.8750   47.3680 N   0  0  0  0  0  0  0  0  0  0  0  0
   58.0250   24.9870   47.0420 C   0  0  0  0  0  0  0  0  0  0  0  0
   58.6390   25.8120   47.9210 N   0  0  0  0  0  0  0  0  0  0  0  0
   59.1730   26.8940   47.2960 C   0  0  0  0  0  0  0  0  0  0  0  0
   58.9710   26.9320   45.9200 C   0  0  0  0  0  0  0  0  0  0  0  0
   59.5140   27.9630   44.9820 C   0  0  0  0  0  0  0  0  0  0  0  0
   58.4520   28.9750   44.6590 C   0  0  0  0  0  0  0  0  0  0  0  0
   57.1000   28.6860   44.9040 C   0  0  0  0  0  0  0  0  0  0  0  0
   56.1140   29.6420   44.6370 C   0  0  0  0  0  0  0  0  0  0  0  0
   54.7780   29.3460   44.8760 O   0  0  0  0  0  0  0  0  0  0  0  0
   56.4740   30.8950   44.1320 C   0  0  0  0  0  0  0  0  0  0  0  0
   57.8180   31.1990   43.8970 C   0  0  0  0  0  0  0  0  0  0  0  0
   58.1620   32.4550   43.4020 O   0  0  0  0  0  0  0  0  0  0  0  0
   58.8070   30.2420   44.1640 C   0  0  0  0  0  0  0  0  0  0  0  0
   58.1190   25.5530   45.4630 S   0  0  0  0  0  0  0  0  0  0  0  0
   57.2511   23.1005   44.4780 H   0  0  0  0  0  0  0  0  0  0  0  0
   57.1170   22.1196   42.9792 H   0  0  0  0  0  0  0  0  0  0  0  0
   56.5888   23.8365   42.9792 H   0  0  0  0  0  0  0  0  0  0  0  0
   55.9470   24.8793   44.7577 H   0  0  0  0  0  0  0  0  0  0  0  0
   54.2512   25.4280   45.0254 H   0  0  0  0  0  0  0  0  0  0  0  0
   59.7224   27.6791   47.8362 H   0  0  0  0  0  0  0  0  0  0  0  0
   60.3688   28.4700   45.4534 H   0  0  0  0  0  0  0  0  0  0  0  0
   59.8377   27.4708   44.0531 H   0  0  0  0  0  0  0  0  0  0  0  0
   56.8147   27.7034   45.3077 H   0  0  0  0  0  0  0  0  0  0  0  0
   55.6971   31.6440   43.9189 H   0  0  0  0  0  0  0  0  0  0  0  0
   57.4740   33.0610   42.9690 H   0  0  0  0  0  0  0  0  0  0  0  0
   59.8652   30.4835   43.9854 H   0  0  0  0  0  0  0  0  0  0  0  0
  1  2  1  0
  2  3  1  0
  3  4  2  0
  3  5  1  0
  5  6  1  0
  6  7  1  0
  7  8  2  0
  7  9  1  0
  9 10  2  3
 10 11  1  0
 11 12  1  0
 12 13  2  0
 13 14  1  0
 14 15  1  0
 15 16  2  0
 16 17  1  0
 17 18  1  0
 17 19  2  0
 19 20  1  0
 20 21  1  0
 20 22  2  0
 13 23  1  0
 23 10  1  0
 22 15  1  0
  1 24  1  0
  1 25  1  0
  1 26  1  0
  5 27  1  0
  5 28  1  0
 12 29  1  0
 14 30  1  0
 14 31  1  0
 16 32  1  0
 19 33  1  0
 21 34  1  0
 22 35  1  0
M  CHG  2  11  -1  18  -1
M  END
>  <UniqueID>  (63) 
60

>  <SMILES>  (63) 
COC(=O)COC(=O)N=c1[n-]cc(Cc2cc([O-])cc(O)c2)s1

>  <Energy>  (63) 
59.39448367279449

>  <Genealogy>  (63) 
COC(=O)COC(=O)N=c1[n-]cc(Cc2cc([O-])cc(O)c2)s1 (protonated)
COC(=O)COC(=O)N=c1[n-]cc(Cc2cc([O-])cc(O)c2)s1 (3D coordinates assigned)
COC(=O)COC(=O)N=c1[n-]cc(Cc2cc([O-])cc(O)c2)s1 (optimized conformer: 59.39448367279449 kcal/mol)

>  <smiles>  (63) 
COC(=O)COC(=O)N=c1[nH]cc(Cc2cc(O)cc(O)c2)s1

>  <score_type>  (63) 
oracle

>  <origin>  (63) 
adg

>  <m_score__min__energy>  (63) 
-10.869999999999999

>  <m_primary>  (63) 
energy

$$$$
63:0
     RDKit          3D

 60 64  0  0  0  0  0  0  0  0999 V2000
   61.5281   28.9801   48.1524 H   0  0  0  0  0  0  0  0  0  0  0  0
   60.4900   28.6520   47.9950 C   0  0  0  0  0  0  0  0  0  0  0  0
   59.9860   27.0770   47.6840 S   0  0  0  0  0  0  0  0  0  0  0  0
   58.3560   27.5100   47.5880 C   0  0  0  0  0  0  0  0  0  0  0  0
   57.3700   26.7110   47.3120 N   0  0  0  0  0  0  0  0  0  0  0  0
   56.7110   26.6200   46.0440 C   0  0  0  0  0  0  0  0  0  0  0  0
   55.4840   26.3330   46.0050 O   0  0  0  0  0  0  0  0  0  0  0  0
   57.4860   26.7060   44.7600 C   0  0  0  0  0  0  0  0  0  0  0  0
   58.3881   26.0819   44.8413 H   0  0  0  0  0  0  0  0  0  0  0  0
   56.8461   26.3510   43.9387 H   0  0  0  0  0  0  0  0  0  0  0  0
   57.8920   28.1210   44.4740 C   0  0  0  0  0  0  0  0  0  0  0  0
   59.1320   28.6920   44.7150 C   0  0  0  0  0  0  0  0  0  0  0  0
   60.0384   28.1766   45.0653 H   0  0  0  0  0  0  0  0  0  0  0  0
   59.0030   30.0360   44.4280 C   0  0  0  0  0  0  0  0  0  0  0  0
   59.8108   30.7790   44.5019 H   0  0  0  0  0  0  0  0  0  0  0  0
   57.7400   30.3010   44.0440 N   0  0  0  0  0  0  0  0  0  0  0  0
   57.1970   31.6180   43.7180 C   0  0  0  0  0  0  0  0  0  0  0  0
   57.4760   31.8797   42.6867 H   0  0  0  0  0  0  0  0  0  0  0  0
   56.1020   31.5864   43.8176 H   0  0  0  0  0  0  0  0  0  0  0  0
   57.7420   32.6590   44.6580 C   0  0  0  0  0  0  0  0  0  0  0  0
   58.5760   33.6820   44.1750 C   0  0  0  0  0  0  0  0  0  0  0  0
   58.8207   33.7309   43.1037 H   0  0  0  0  0  0  0  0  0  0  0  0
   59.0960   34.6390   45.0550 C   0  0  0  0  0  0  0  0  0  0  0  0
   59.7606   35.4292   44.6756 H   0  0  0  0  0  0  0  0  0  0  0  0
   58.7730   34.5930   46.4140 C   0  0  0  0  0  0  0  0  0  0  0  0
   59.1868   35.3436   47.1035 H   0  0  0  0  0  0  0  0  0  0  0  0
   57.9240   33.5930   46.8970 C   0  0  0  0  0  0  0  0  0  0  0  0
   57.6629   33.5621   47.9651 H   0  0  0  0  0  0  0  0  0  0  0  0
   57.4060   32.6310   46.0220 C   0  0  0  0  0  0  0  0  0  0  0  0
   56.7327   31.8495   46.4040 H   0  0  0  0  0  0  0  0  0  0  0  0
   57.0510   29.1420   44.0750 C   0  0  0  0  0  0  0  0  0  0  0  0
   55.9866   29.0276   43.8223 H   0  0  0  0  0  0  0  0  0  0  0  0
   58.1800   28.8340   47.7720 N   0  0  0  0  0  0  0  0  0  0  0  0
   59.3590   29.4680   48.0180 C   0  0  0  0  0  0  0  0  0  0  0  0
   59.4240   30.9450   48.2420 C   0  0  0  0  0  0  0  0  0  0  0  0
   60.4137   31.3158   47.9370 H   0  0  0  0  0  0  0  0  0  0  0  0
   58.6401   31.4339   47.6450 H   0  0  0  0  0  0  0  0  0  0  0  0
   59.2020   31.2590   49.6960 C   0  0  0  0  0  0  0  0  0  0  0  0
   58.1230   30.9830   50.2050 O   0  0  0  0  0  0  0  0  0  0  0  0
   60.2410   31.8980   50.4860 N   0  0  2  0  0  0  0  0  0  0  0  0
   59.8480   32.0800   51.4400 H   0  0  0  0  0  0  0  0  0  0  0  0
   60.5500   33.2350   49.9100 C   0  0  0  0  0  0  0  0  0  0  0  0
   60.9009   33.8964   50.7159 H   0  0  0  0  0  0  0  0  0  0  0  0
   59.6322   33.6254   49.4461 H   0  0  0  0  0  0  0  0  0  0  0  0
   61.6110   33.1590   48.8480 C   0  0  0  0  0  0  0  0  0  0  0  0
   61.5260   33.8940   47.6570 C   0  0  0  0  0  0  0  0  0  0  0  0
   60.6359   34.5058   47.4487 H   0  0  0  0  0  0  0  0  0  0  0  0
   62.5770   33.8470   46.7340 C   0  0  0  0  0  0  0  0  0  0  0  0
   62.5069   34.4120   45.7928 H   0  0  0  0  0  0  0  0  0  0  0  0
   63.7190   33.0810   47.0070 C   0  0  0  0  0  0  0  0  0  0  0  0
   64.5484   33.0546   46.2849 H   0  0  0  0  0  0  0  0  0  0  0  0
   63.8050   32.3500   48.1970 C   0  0  0  0  0  0  0  0  0  0  0  0
   64.7026   31.7521   48.4135 H   0  0  0  0  0  0  0  0  0  0  0  0
   62.7420   32.3820   49.1140 C   0  0  0  0  0  0  0  0  0  0  0  0
   62.7810   31.6290   50.4080 C   0  0  0  0  0  0  0  0  0  0  0  0
   63.0163   32.3226   51.2287 H   0  0  0  0  0  0  0  0  0  0  0  0
   63.5539   30.8482   50.3543 H   0  0  0  0  0  0  0  0  0  0  0  0
   61.4090   30.9760   50.6650 C   0  0  0  0  0  0  0  0  0  0  0  0
   61.3952   30.6000   51.6987 H   0  0  0  0  0  0  0  0  0  0  0  0
   61.2963   30.1777   49.9166 H   0  0  0  0  0  0  0  0  0  0  0  0
  1  2  1  0
  2  3  1  0
  3  4  1  0
  4  5  2  0
  5  6  1  0
  6  7  2  0
  6  8  1  0
  8  9  1  0
  8 10  1  0
  8 11  1  0
 11 12  1  0
 12 13  1  0
 12 14  2  0
 14 15  1  0
 14 16  1  0
 16 17  1  0
 17 18  1  0
 17 19  1  0
 17 20  1  0
 20 21  2  0
 21 22  1  0
 21 23  1  0
 23 24  1  0
 23 25  2  0
 25 26  1  0
 25 27  1  0
 27 28  1  0
 27 29  2  0
 29 30  1  0
 16 31  1  0
 31 32  1  0
  4 33  1  0
 33 34  1  0
 34 35  1  0
 35 36  1  0
 35 37  1  0
 35 38  1  0
 38 39  2  0
 38 40  1  0
 40 41  1  1
 40 42  1  0
 42 43  1  0
 42 44  1  0
 42 45  1  0
 45 46  2  0
 46 47  1  0
 46 48  1  0
 48 49  1  0
 48 50  2  0
 50 51  1  0
 50 52  1  0
 52 53  1  0
 52 54  2  0
 54 55  1  0
 55 56  1  0
 55 57  1  0
 55 58  1  0
 58 59  1  0
 58 60  1  0
 34  2  2  0
 58 40  1  0
 31 11  2  0
 54 45  1  0
 29 20  1  0
M  CHG  2  33  -1  40   1
M  END
>  <UniqueID>  (64) 
61

>  <SMILES>  (64) 
O=C(Cc1ccn(Cc2ccccc2)c1)/N=c1/[n-]c(CC(=O)[N@H+]2CCc3ccccc3C2)cs1

>  <Energy>  (64) 
135.2841436153618

>  <Genealogy>  (64) 
O=C(Cc1ccn(Cc2ccccc2)c1)N=c1[n-]c(CC(=O)[NH+]2CCc3ccccc3C2)cs1 (protonated)
O=C(Cc1ccn(Cc2ccccc2)c1)N=c1[n-]c(CC(=O)[N@H+]2CCc3ccccc3C2)cs1 (chirality)
O=C(Cc1ccn(Cc2ccccc2)c1)/N=c1/[n-]c(CC(=O)[N@H+]2CCc3ccccc3C2)cs1 (cis-trans isomerization)
O=C(Cc1ccn(Cc2ccccc2)c1)/N=c1/[n-]c(CC(=O)[N@H+]2CCc3ccccc3C2)cs1 (3D coordinates assigned)
O=C(Cc1ccn(Cc2ccccc2)c1)/N=c1/[n-]c(CC(=O)[N@H+]2CCc3ccccc3C2)cs1 (nonaromatic ring conformer: 135.2841436153618 kcal/mol)

>  <smiles>  (64) 
O=C(Cc1ccn(Cc2ccccc2)c1)N=c1[nH]c(CC(=O)N2CCc3ccccc3C2)cs1

>  <score_type>  (64) 
oracle

>  <origin>  (64) 
adg

>  <m_score__min__energy>  (64) 
-10.19

>  <m_primary>  (64) 
energy

$$$$
64:0
     RDKit          3D

 62 65  0  0  0  0  0  0  0  0999 V2000
   58.8930   23.2040   45.2960 C   0  0  0  0  0  0  0  0  0  0  0  0
   58.0820   22.7510   46.3740 O   0  0  0  0  0  0  0  0  0  0  0  0
   56.8830   22.0330   46.2220 C   0  0  0  0  0  0  0  0  0  0  0  0
   56.8040   20.8920   45.4000 C   0  0  0  0  0  0  0  0  0  0  0  0
   55.6010   20.1970   45.2690 C   0  0  0  0  0  0  0  0  0  0  0  0
   54.4710   20.6150   45.9700 C   0  0  0  0  0  0  0  0  0  0  0  0
   54.5340   21.7440   46.7900 C   0  0  0  0  0  0  0  0  0  0  0  0
   55.7330   22.4660   46.9170 C   0  0  0  0  0  0  0  0  0  0  0  0
   55.7760   23.6970   47.7890 C   0  0  0  0  0  0  0  0  0  0  0  0
   56.8890   24.5640   47.4080 N   0  0  0  0  0  0  0  0  0  0  0  0
   56.6970   25.7990   46.7010 C   0  0  0  0  0  0  0  0  0  0  0  0
   55.5390   26.1540   46.3530 O   0  0  0  0  0  0  0  0  0  0  0  0
   57.8530   26.6650   46.3860 C   0  0  0  0  0  0  0  0  0  0  0  0
   59.0970   26.3770   46.9720 C   0  0  0  0  0  0  0  0  0  0  0  0
   60.2350   27.1070   46.6190 C   0  0  0  0  0  0  0  0  0  0  0  0
   60.1450   28.1250   45.6710 C   0  0  0  0  0  0  0  0  0  0  0  0
   58.9150   28.4320   45.0880 C   0  0  0  0  0  0  0  0  0  0  0  0
   57.7570   27.7330   45.4570 C   0  0  0  0  0  0  0  0  0  0  0  0
   56.5110   28.1360   44.8700 N   0  0  0  0  0  0  0  0  0  0  0  0
   56.1700   29.4830   44.5200 C   0  0  0  0  0  0  0  0  0  0  0  0
   55.1440   30.0280   45.0100 O   0  0  0  0  0  0  0  0  0  0  0  0
   57.0280   30.2200   43.5330 C   0  0  0  0  0  0  0  0  0  0  0  0
   57.6560   31.4560   44.1120 C   0  0  0  0  0  0  0  0  0  0  0  0
   57.8000   32.6680   43.4440 C   0  0  0  0  0  0  0  0  0  0  0  0
   58.4660   33.6400   44.1980 C   0  0  0  0  0  0  0  0  0  0  0  0
   58.8690   33.1780   45.4420 C   0  0  0  0  0  0  0  0  0  0  0  0
   59.6690   34.1250   46.6820 S   0  0  0  0  0  0  0  0  0  0  0  0
   60.0210   35.4710   46.1120 O   0  0  0  0  0  0  0  0  0  0  0  0
   58.7400   34.3180   47.8500 O   0  0  0  0  0  0  0  0  0  0  0  0
   61.1150   33.2970   47.2010 N   0  0  0  0  0  0  0  0  0  0  0  0
   61.2670   33.3550   48.6740 C   0  0  0  0  0  0  0  0  0  0  0  0
   62.3970   34.3040   49.1070 C   0  0  0  0  0  0  0  0  0  0  0  0
   63.6570   33.9520   48.5560 O   0  0  0  0  0  0  0  0  0  0  0  0
   63.5840   33.4680   47.2180 C   0  0  0  0  0  0  0  0  0  0  0  0
   62.2840   33.8290   46.4800 C   0  0  0  0  0  0  0  0  0  0  0  0
   58.4050   31.5750   45.6190 S   0  0  0  0  0  0  0  0  0  0  0  0
   59.7879   23.7038   45.6952 H   0  0  0  0  0  0  0  0  0  0  0  0
   59.1970   22.3451   44.6797 H   0  0  0  0  0  0  0  0  0  0  0  0
   58.3210   23.9133   44.6797 H   0  0  0  0  0  0  0  0  0  0  0  0
   57.6965   20.5464   44.8577 H   0  0  0  0  0  0  0  0  0  0  0  0
   55.5443   19.3173   44.6110 H   0  0  0  0  0  0  0  0  0  0  0  0
   53.5287   20.0552   45.8773 H   0  0  0  0  0  0  0  0  0  0  0  0
   53.6390   22.0702   47.3401 H   0  0  0  0  0  0  0  0  0  0  0  0
   54.8324   24.2513   47.6773 H   0  0  0  0  0  0  0  0  0  0  0  0
   55.9146   23.3840   48.8344 H   0  0  0  0  0  0  0  0  0  0  0  0
   57.8520   24.2870   47.7000 H   0  0  0  0  0  0  0  0  0  0  0  0
   59.1758   25.5698   47.7151 H   0  0  0  0  0  0  0  0  0  0  0  0
   61.2026   26.8782   47.0895 H   0  0  0  0  0  0  0  0  0  0  0  0
   61.0452   28.6873   45.3820 H   0  0  0  0  0  0  0  0  0  0  0  0
   58.8534   29.2292   44.3325 H   0  0  0  0  0  0  0  0  0  0  0  0
   57.8282   29.5466   43.1921 H   0  0  0  0  0  0  0  0  0  0  0  0
   56.3787   30.5373   42.7037 H   0  0  0  0  0  0  0  0  0  0  0  0
   57.4272   32.8444   42.4242 H   0  0  0  0  0  0  0  0  0  0  0  0
   58.6508   34.6640   43.8414 H   0  0  0  0  0  0  0  0  0  0  0  0
   60.3219   33.7065   49.1136 H   0  0  0  0  0  0  0  0  0  0  0  0
   61.5225   32.3447   49.0261 H   0  0  0  0  0  0  0  0  0  0  0  0
   62.1436   35.3233   48.7801 H   0  0  0  0  0  0  0  0  0  0  0  0
   62.4847   34.2343   50.2013 H   0  0  0  0  0  0  0  0  0  0  0  0
   64.4284   33.8901   46.6533 H   0  0  0  0  0  0  0  0  0  0  0  0
   63.6144   32.3702   47.2800 H   0  0  0  0  0  0  0  0  0  0  0  0
   62.1992   34.9236   46.4111 H   0  0  0  0  0  0  0  0  0  0  0  0
   62.3123   33.3860   45.4735 H   0  0  0  0  0  0  0  0  0  0  0  0
  1  2  1  0
  2  3  1  0
  3  4  2  0
  4  5  1  0
  5  6  2  0
  6  7  1  0
  7  8  2  0
  8  9  1  0
  9 10  1  0
 10 11  1  0
 11 12  2  0
 11 13  1  0
 13 14  2  0
 14 15  1  0
 15 16  2  0
 16 17  1  0
 17 18  2  0
 18 19  1  0
 19 20  1  0
 20 21  2  0
 20 22  1  0
 22 23  1  0
 23 24  2  0
 24 25  1  0
 25 26  2  0
 26 27  1  0
 27 28  2  0
 27 29  2  0
 27 30  1  0
 30 31  1  0
 31 32  1  0
 32 33  1  0
 33 34  1  0
 34 35  1  0
 26 36  1  0
  8  3  1  0
 18 13  1  0
 36 23  1  0
 35 30  1  0
  1 37  1  0
  1 38  1  0
  1 39  1  0
  4 40  1  0
  5 41  1  0
  6 42  1  0
  7 43  1  0
  9 44  1  0
  9 45  1  0
 10 46  1  0
 14 47  1  0
 15 48  1  0
 16 49  1  0
 17 50  1  0
 22 51  1  0
 22 52  1  0
 24 53  1  0
 25 54  1  0
 31 55  1  0
 31 56  1  0
 32 57  1  0
 32 58  1  0
 34 59  1  0
 34 60  1  0
 35 61  1  0
 35 62  1  0
M  CHG  1  19  -1
M  END
>  <UniqueID>  (65) 
62

>  <SMILES>  (65) 
COc1ccccc1CNC(=O)c1ccccc1[N-]C(=O)Cc1ccc(S(=O)(=O)N2CCOCC2)s1

>  <Energy>  (65) 
104.26056028640973

>  <Genealogy>  (65) 
COc1ccccc1CNC(=O)c1ccccc1[N-]C(=O)Cc1ccc(S(=O)(=O)N2CCOCC2)s1 (protonated)
COc1ccccc1CNC(=O)c1ccccc1[N-]C(=O)Cc1ccc(S(=O)(=O)N2CCOCC2)s1 (3D coordinates assigned)
COc1ccccc1CNC(=O)c1ccccc1[N-]C(=O)Cc1ccc(S(=O)(=O)N2CCOCC2)s1 (nonaromatic ring conformer: 104.26056028640973 kcal/mol)

>  <smiles>  (65) 
COc1ccccc1CNC(=O)c1ccccc1NC(=O)Cc1ccc(S(=O)(=O)N2CCOCC2)s1

>  <score_type>  (65) 
oracle

>  <origin>  (65) 
adg

>  <m_score__min__energy>  (65) 
-11.84

>  <m_primary>  (65) 
energy

$$$$
65:0
     RDKit          3D

 27 28  0  0  0  0  0  0  0  0999 V2000
   58.1361   30.2726   46.5236 H   0  0  0  0  0  0  0  0  0  0  0  0
   58.1340   31.3490   46.2970 C   0  0  0  0  0  0  0  0  0  0  0  0
   58.8470   32.2060   47.0760 N   0  0  0  0  0  0  0  0  0  0  0  0
   58.8810   33.5440   46.8280 C   0  0  0  0  0  0  0  0  0  0  0  0
   59.6940   34.4430   47.7020 C   0  0  0  0  0  0  0  0  0  0  0  0
   59.4866   34.2137   48.7577 H   0  0  0  0  0  0  0  0  0  0  0  0
   60.7631   34.2861   47.4958 H   0  0  0  0  0  0  0  0  0  0  0  0
   59.4308   35.4910   47.4958 H   0  0  0  0  0  0  0  0  0  0  0  0
   58.1880   34.0630   45.7280 C   0  0  0  0  0  0  0  0  0  0  0  0
   58.2247   35.1399   45.5070 H   0  0  0  0  0  0  0  0  0  0  0  0
   57.4490   33.2010   44.9130 C   0  0  0  0  0  0  0  0  0  0  0  0
   56.9081   33.5966   44.0407 H   0  0  0  0  0  0  0  0  0  0  0  0
   57.3980   31.8300   45.2090 C   0  0  0  0  0  0  0  0  0  0  0  0
   56.6590   30.9020   44.4000 N   0  0  0  0  0  0  0  0  0  0  0  0
   56.2670   29.5760   44.7790 C   0  0  0  0  0  0  0  0  0  0  0  0
   55.1060   29.3850   45.2230 O   0  0  0  0  0  0  0  0  0  0  0  0
   57.1760   28.4690   44.7060 N   0  0  0  0  0  0  0  0  0  0  0  0
   57.4500   27.5810   45.6240 C   0  0  0  0  0  0  0  0  0  0  0  0
   58.7220   27.5450   46.1080 N   0  0  0  0  0  0  0  0  0  0  0  0
   59.1240   26.6470   47.0460 C   0  0  0  0  0  0  0  0  0  0  0  0
   60.1638   26.6546   47.4047 H   0  0  0  0  0  0  0  0  0  0  0  0
   58.2190   25.7170   47.5530 C   0  0  0  0  0  0  0  0  0  0  0  0
   58.5425   24.9752   48.2980 H   0  0  0  0  0  0  0  0  0  0  0  0
   56.9000   25.7370   47.1060 C   0  0  0  0  0  0  0  0  0  0  0  0
   56.1757   25.0109   47.5038 H   0  0  0  0  0  0  0  0  0  0  0  0
   56.4930   26.6760   46.1540 C   0  0  0  0  0  0  0  0  0  0  0  0
   55.1500   26.7180   45.7970 O   0  0  0  0  0  0  0  0  0  0  0  0
  1  2  1  0
  2  3  2  0
  3  4  1  0
  4  5  1  0
  5  6  1  0
  5  7  1  0
  5  8  1  0
  4  9  2  0
  9 10  1  0
  9 11  1  0
 11 12  1  0
 11 13  2  0
 13 14  1  0
 14 15  1  0
 15 16  2  0
 15 17  1  0
 17 18  2  0
 18 19  1  0
 19 20  1  0
 20 21  1  0
 20 22  2  0
 22 23  1  0
 22 24  1  0
 24 25  1  0
 24 26  2  0
 26 27  1  0
 13  2  1  0
 26 18  1  0
M  CHG  3  14  -1  19  -1  27  -1
M  END
>  <UniqueID>  (66) 
63

>  <SMILES>  (66) 
Cc1ccc([N-]C(=O)/N=c2/[n-]cccc2[O-])cn1

>  <Energy>  (66) 
42.84927825080867

>  <Genealogy>  (66) 
Cc1ccc([N-]C(=O)N=c2[n-]cccc2[O-])cn1 (protonated)
Cc1ccc([N-]C(=O)/N=c2/[n-]cccc2[O-])cn1 (cis-trans isomerization)
Cc1ccc([N-]C(=O)/N=c2/[n-]cccc2[O-])cn1 (3D coordinates assigned)
Cc1ccc([N-]C(=O)/N=c2/[n-]cccc2[O-])cn1 (optimized conformer: 42.84927825080867 kcal/mol)

>  <smiles>  (66) 
Cc1ccc(NC(=O)N=c2[nH]cccc2O)cn1

>  <score_type>  (66) 
oracle

>  <origin>  (66) 
adg

>  <m_score__min__energy>  (66) 
-12.94

>  <m_primary>  (66) 
energy

$$$$
66:0
     RDKit          3D

 51 53  0  0  0  0  0  0  0  0999 V2000
   62.2390   33.8510   46.7140 C   0  0  0  0  0  0  0  0  0  0  0  0
   60.8680   33.4810   47.2170 C   0  0  0  0  0  0  0  0  0  0  0  0
   59.7590   33.7070   46.3840 C   0  0  0  0  0  0  0  0  0  0  0  0
   58.4750   33.3680   46.8040 C   0  0  0  0  0  0  0  0  0  0  0  0
   58.2770   32.8140   48.0660 C   0  0  0  0  0  0  0  0  0  0  0  0
   59.3610   32.5880   48.9260 C   0  0  0  0  0  0  0  0  0  0  0  0
   59.0980   32.0300   50.2220 N   0  0  0  0  0  0  0  0  0  0  0  0
   58.6280   30.6850   50.4040 C   0  0  0  0  0  0  0  0  0  0  0  0
   58.5050   29.9140   49.4140 O   0  0  0  0  0  0  0  0  0  0  0  0
   58.2450   30.1990   51.7710 C   0  0  0  0  0  0  0  0  0  0  0  0
   56.7930   29.9380   51.8450 N   0  0  0  0  0  0  0  0  0  0  0  0
   56.4570   29.1170   53.0240 C   0  0  0  0  0  0  0  0  0  0  0  0
   54.9600   28.7450   53.0120 C   0  0  0  0  0  0  0  0  0  0  0  0
   54.1960   29.5770   52.0580 N   0  0  0  0  0  0  0  0  0  0  0  0
   52.7470   29.3690   52.2420 C   0  0  0  0  0  0  0  0  0  0  0  0
   51.9770   30.5270   51.6830 C   0  0  0  0  0  0  0  0  0  0  0  0
   51.8030   30.7460   50.3680 N   0  0  0  0  0  0  0  0  0  0  0  0
   51.0300   31.8520   50.3360 C   0  0  0  0  0  0  0  0  0  0  0  0
   50.6510   32.3840   49.2600 O   0  0  0  0  0  0  0  0  0  0  0  0
   50.6960   32.3410   51.5480 N   0  0  0  0  0  0  0  0  0  0  0  0
   51.2940   31.4880   52.4010 C   0  0  0  0  0  0  0  0  0  0  0  0
   51.2550   31.6290   53.8910 C   0  0  0  0  0  0  0  0  0  0  0  0
   54.5590   30.9970   52.2250 C   0  0  0  0  0  0  0  0  0  0  0  0
   56.0460   31.2130   51.8820 C   0  0  0  0  0  0  0  0  0  0  0  0
   60.6810   32.8720   48.4860 C   0  0  0  0  0  0  0  0  0  0  0  0
   61.8720   32.5360   49.3580 C   0  0  0  0  0  0  0  0  0  0  0  0
   62.9070   34.0313   47.5692 H   0  0  0  0  0  0  0  0  0  0  0  0
   62.6395   33.0288   46.1028 H   0  0  0  0  0  0  0  0  0  0  0  0
   62.1715   34.7631   46.1028 H   0  0  0  0  0  0  0  0  0  0  0  0
   59.9064   34.1560   45.3907 H   0  0  0  0  0  0  0  0  0  0  0  0
   57.6163   33.5381   46.1379 H   0  0  0  0  0  0  0  0  0  0  0  0
   57.2597   32.5510   48.3916 H   0  0  0  0  0  0  0  0  0  0  0  0
   59.4310   32.5570   51.0610 H   0  0  0  0  0  0  0  0  0  0  0  0
   58.7905   29.2691   51.9895 H   0  0  0  0  0  0  0  0  0  0  0  0
   58.5026   30.9749   52.5070 H   0  0  0  0  0  0  0  0  0  0  0  0
   57.0592   28.1966   53.0082 H   0  0  0  0  0  0  0  0  0  0  0  0
   56.6735   29.6951   53.9345 H   0  0  0  0  0  0  0  0  0  0  0  0
   54.8578   27.6882   52.7243 H   0  0  0  0  0  0  0  0  0  0  0  0
   54.5555   28.9208   54.0197 H   0  0  0  0  0  0  0  0  0  0  0  0
   52.4443   28.4480   51.7223 H   0  0  0  0  0  0  0  0  0  0  0  0
   52.5328   29.2844   53.3176 H   0  0  0  0  0  0  0  0  0  0  0  0
   51.5206   30.6688   54.3572 H   0  0  0  0  0  0  0  0  0  0  0  0
   51.9735   32.4003   54.2052 H   0  0  0  0  0  0  0  0  0  0  0  0
   50.2422   31.9215   54.2052 H   0  0  0  0  0  0  0  0  0  0  0  0
   53.9392   31.6112   51.5552 H   0  0  0  0  0  0  0  0  0  0  0  0
   54.3870   31.2896   53.2713 H   0  0  0  0  0  0  0  0  0  0  0  0
   56.1173   31.6959   50.8962 H   0  0  0  0  0  0  0  0  0  0  0  0
   56.4887   31.8453   52.6657 H   0  0  0  0  0  0  0  0  0  0  0  0
   61.5855   32.6168   50.4170 H   0  0  0  0  0  0  0  0  0  0  0  0
   62.2041   31.5091   49.1453 H   0  0  0  0  0  0  0  0  0  0  0  0
   62.6918   33.2379   49.1453 H   0  0  0  0  0  0  0  0  0  0  0  0
  1  2  1  0
  2  3  2  0
  3  4  1  0
  4  5  2  0
  5  6  1  0
  6  7  1  0
  7  8  1  0
  8  9  2  0
  8 10  1  0
 10 11  1  0
 11 12  1  0
 12 13  1  0
 13 14  1  0
 14 15  1  0
 15 16  1  0
 16 17  1  0
 17 18  1  0
 18 19  2  0
 18 20  1  0
 20 21  1  0
 21 22  1  0
 14 23  1  0
 23 24  1  0
  6 25  2  0
 25 26  1  0
 25  2  1  0
 24 11  1  0
 21 16  2  0
  1 27  1  0
  1 28  1  0
  1 29  1  0
  3 30  1  0
  4 31  1  0
  5 32  1  0
  7 33  1  0
 10 34  1  0
 10 35  1  0
 12 36  1  0
 12 37  1  0
 13 38  1  0
 13 39  1  0
 15 40  1  0
 15 41  1  0
 22 42  1  0
 22 43  1  0
 22 44  1  0
 23 45  1  0
 23 46  1  0
 24 47  1  0
 24 48  1  0
 26 49  1  0
 26 50  1  0
 26 51  1  0
M  CHG  2  17  -1  20  -1
M  END
>  <UniqueID>  (67) 
64

>  <SMILES>  (67) 
Cc1cccc(NC(=O)CN2CCN(Cc3[n-]c(=O)[n-]c3C)CC2)c1C

>  <Energy>  (67) 
92.7594972202187

>  <Genealogy>  (67) 
Cc1cccc(NC(=O)CN2CCN(Cc3[n-]c(=O)[n-]c3C)CC2)c1C (protonated)
Cc1cccc(NC(=O)CN2CCN(Cc3[n-]c(=O)[n-]c3C)CC2)c1C (3D coordinates assigned)
Cc1cccc(NC(=O)CN2CCN(Cc3[n-]c(=O)[n-]c3C)CC2)c1C (nonaromatic ring conformer: 92.7594972202187 kcal/mol)

>  <smiles>  (67) 
Cc1cccc(NC(=O)CN2CCN(Cc3[nH]c(=O)[nH]c3C)CC2)c1C

>  <score_type>  (67) 
oracle

>  <origin>  (67) 
adg

>  <m_score__min__energy>  (67) 
-13.52

>  <m_primary>  (67) 
energy

$$$$
67:0
     RDKit          3D

 39 41  0  0  0  0  0  0  0  0999 V2000
   55.1460   27.5540   45.5450 H   0  0  0  0  0  0  0  0  0  0  0  0
   54.9690   26.6530   45.9690 O   0  0  0  0  0  0  0  0  0  0  0  0
   56.0090   25.8330   46.3980 C   0  0  0  0  0  0  0  0  0  0  0  0
   55.8300   24.7790   47.2100 N   0  0  0  0  0  0  0  0  0  0  0  0
   57.0890   24.3250   47.3940 C   0  0  0  0  0  0  0  0  0  0  0  0
   57.3510   23.3290   48.1160 O   0  0  0  0  0  0  0  0  0  0  0  0
   58.0450   25.0300   46.7520 N   0  0  0  0  0  0  0  0  0  0  0  0
   57.3490   25.9740   46.0950 C   0  0  0  0  0  0  0  0  0  0  0  0
   57.9790   27.0600   45.3340 C   0  0  0  0  0  0  0  0  0  0  0  0
   58.4398   26.7964   44.3706 H   0  0  0  0  0  0  0  0  0  0  0  0
   58.0420   28.3550   45.7140 C   0  0  0  0  0  0  0  0  0  0  0  0
   57.4810   29.4270   45.0170 C   0  0  0  0  0  0  0  0  0  0  0  0
   56.7200   29.3930   43.7180 C   0  0  0  0  0  0  0  0  0  0  0  0
   57.3552   28.9336   42.9463 H   0  0  0  0  0  0  0  0  0  0  0  0
   55.8018   28.8087   43.8776 H   0  0  0  0  0  0  0  0  0  0  0  0
   56.3130   30.7970   43.2530 C   0  0  0  0  0  0  0  0  0  0  0  0
   55.5410   30.7004   42.4754 H   0  0  0  0  0  0  0  0  0  0  0  0
   55.9385   31.3430   44.1315 H   0  0  0  0  0  0  0  0  0  0  0  0
   57.4870   31.5910   42.6810 C   0  0  0  0  0  0  0  0  0  0  0  0
   58.0902   31.9989   43.5055 H   0  0  0  0  0  0  0  0  0  0  0  0
   58.1111   30.9288   42.0629 H   0  0  0  0  0  0  0  0  0  0  0  0
   57.1047   32.4167   42.0629 H   0  0  0  0  0  0  0  0  0  0  0  0
   57.8010   30.5830   45.6250 N   0  0  0  0  0  0  0  0  0  0  0  0
   58.5080   30.3030   46.7060 N   0  0  0  0  0  0  0  0  0  0  0  0
   58.9590   31.3290   47.6060 C   0  0  0  0  0  0  0  0  0  0  0  0
   59.4930   32.5200   47.0910 C   0  0  0  0  0  0  0  0  0  0  0  0
   59.5904   32.6521   46.0033 H   0  0  0  0  0  0  0  0  0  0  0  0
   59.9020   33.5400   47.9570 C   0  0  0  0  0  0  0  0  0  0  0  0
   60.3308   34.4676   47.5500 H   0  0  0  0  0  0  0  0  0  0  0  0
   59.7660   33.3810   49.3390 C   0  0  0  0  0  0  0  0  0  0  0  0
   60.0945   34.1806   50.0192 H   0  0  0  0  0  0  0  0  0  0  0  0
   59.2130   32.2070   49.8570 C   0  0  0  0  0  0  0  0  0  0  0  0
   59.1001   32.0859   50.9445 H   0  0  0  0  0  0  0  0  0  0  0  0
   58.8030   31.1860   48.9940 C   0  0  0  0  0  0  0  0  0  0  0  0
   58.3568   30.2679   49.4039 H   0  0  0  0  0  0  0  0  0  0  0  0
   58.6730   28.9600   46.8130 C   0  0  0  0  0  0  0  0  0  0  0  0
   59.2990   28.3620   47.8390 C   0  0  0  0  0  0  0  0  0  0  0  0
   59.7516   28.9695   48.6366 H   0  0  0  0  0  0  0  0  0  0  0  0
   59.3594   27.2645   47.8821 H   0  0  0  0  0  0  0  0  0  0  0  0
  1  2  1  0
  2  3  1  0
  3  4  1  0
  4  5  1  0
  5  6  2  0
  5  7  1  0
  7  8  1  0
  8  9  1  0
  9 10  1  0
  9 11  2  0
 11 12  1  0
 12 13  1  0
 13 14  1  0
 13 15  1  0
 13 16  1  0
 16 17  1  0
 16 18  1  0
 16 19  1  0
 19 20  1  0
 19 21  1  0
 19 22  1  0
 12 23  2  0
 23 24  1  0
 24 25  1  0
 25 26  2  0
 26 27  1  0
 26 28  1  0
 28 29  1  0
 28 30  2  0
 30 31  1  0
 30 32  1  0
 32 33  1  0
 32 34  2  0
 34 35  1  0
 24 36  1  0
 36 37  2  0
 37 38  1  0
 37 39  1  0
  8  3  2  0
 36 11  1  0
 34 25  1  0
M  CHG  2   4  -1   7  -1
M  END
>  <UniqueID>  (68) 
65

>  <SMILES>  (68) 
C=c1/c(=C\c2[n-]c(=O)[n-]c2O)c(CCC)nn1-c1ccccc1

>  <Energy>  (68) 
116.02973659271024

>  <Genealogy>  (68) 
C=c1c(=Cc2[n-]c(=O)[n-]c2O)c(CCC)nn1-c1ccccc1 (protonated)
C=c1/c(=C\c2[n-]c(=O)[n-]c2O)c(CCC)nn1-c1ccccc1 (cis-trans isomerization)
C=c1/c(=C\c2[n-]c(=O)[n-]c2O)c(CCC)nn1-c1ccccc1 (3D coordinates assigned)
C=c1/c(=C\c2[n-]c(=O)[n-]c2O)c(CCC)nn1-c1ccccc1 (optimized conformer: 116.02973659271024 kcal/mol)

>  <smiles>  (68) 
C=c1c(=Cc2[nH]c(=O)[nH]c2O)c(CCC)nn1-c1ccccc1

>  <score_type>  (68) 
oracle

>  <origin>  (68) 
adg

>  <m_score__min__energy>  (68) 
-12.42

>  <m_primary>  (68) 
energy

$$$$
68:0
     RDKit          3D

 57 60  0  0  0  0  0  0  0  0999 V2000
   59.9760   28.4930   44.1700 O   0  0  0  0  0  0  0  0  0  0  0  0
   58.7840   28.2130   44.4780 C   0  0  0  0  0  0  0  0  0  0  0  0
   57.8010   27.8710   43.3890 C   0  0  0  0  0  0  0  0  0  0  0  0
   57.0150   29.0780   42.9620 C   0  0  0  0  0  0  0  0  0  0  0  0
   56.2520   28.9980   41.9610 O   0  0  0  0  0  0  0  0  0  0  0  0
   57.1060   30.3430   43.7110 C   0  0  0  0  0  0  0  0  0  0  0  0
   57.8640   31.4420   43.3570 C   0  0  0  0  0  0  0  0  0  0  0  0
   57.6030   32.3470   44.3650 C   0  0  0  0  0  0  0  0  0  0  0  0
   58.1490   33.7330   44.4760 C   0  0  0  0  0  0  0  0  0  0  0  0
   58.8890   33.8970   45.7740 C   0  0  0  0  0  0  0  0  0  0  0  0
   60.2800   34.1010   45.7760 C   0  0  0  0  0  0  0  0  0  0  0  0
   60.9720   34.2220   46.9840 C   0  0  0  0  0  0  0  0  0  0  0  0
   60.2860   34.1300   48.1980 C   0  0  0  0  0  0  0  0  0  0  0  0
   60.9590   34.2460   49.3680 F   0  0  0  0  0  0  0  0  0  0  0  0
   58.9040   33.9140   48.2040 C   0  0  0  0  0  0  0  0  0  0  0  0
   58.2080   33.7920   46.9970 C   0  0  0  0  0  0  0  0  0  0  0  0
   56.7610   31.8080   45.2170 O   0  0  0  0  0  0  0  0  0  0  0  0
   56.4410   30.5990   44.8560 N   0  0  0  0  0  0  0  0  0  0  0  0
   58.3510   28.2990   45.8930 C   0  0  0  0  0  0  0  0  0  0  0  0
   57.2210   27.8350   46.2150 O   0  0  0  0  0  0  0  0  0  0  0  0
   59.1720   28.9550   46.8910 N   0  0  0  0  0  0  0  0  0  0  0  0
   58.7040   28.6260   48.2660 C   0  0  0  0  0  0  0  0  0  0  0  0
   59.1130   29.6870   49.3110 C   0  0  0  0  0  0  0  0  0  0  0  0
   60.2960   30.4270   48.8580 N   0  0  0  0  0  0  0  0  0  0  0  0
   61.5430   30.3200   49.5770 C   0  0  0  0  0  0  0  0  0  0  0  0
   61.7850   29.2800   50.2510 O   0  0  0  0  0  0  0  0  0  0  0  0
   62.5620   31.3950   49.5330 C   0  0  0  0  0  0  0  0  0  0  0  0
   63.1270   31.8030   48.3120 C   0  0  0  0  0  0  0  0  0  0  0  0
   64.0760   32.8310   48.2810 C   0  0  0  0  0  0  0  0  0  0  0  0
   64.4580   33.4670   49.4640 C   0  0  0  0  0  0  0  0  0  0  0  0
   63.8880   33.0810   50.6800 C   0  0  0  0  0  0  0  0  0  0  0  0
   62.9410   32.0530   50.7170 C   0  0  0  0  0  0  0  0  0  0  0  0
   60.2410   31.0850   47.5440 C   0  0  0  0  0  0  0  0  0  0  0  0
   59.1900   30.4100   46.6450 C   0  0  0  0  0  0  0  0  0  0  0  0
   58.3506   27.4764   42.5216 H   0  0  0  0  0  0  0  0  0  0  0  0
   57.0982   27.1204   43.7798 H   0  0  0  0  0  0  0  0  0  0  0  0
   58.5185   31.5659   42.4816 H   0  0  0  0  0  0  0  0  0  0  0  0
   58.8377   33.9204   43.6390 H   0  0  0  0  0  0  0  0  0  0  0  0
   57.3158   34.4506   44.4447 H   0  0  0  0  0  0  0  0  0  0  0  0
   60.8257   34.1656   44.8231 H   0  0  0  0  0  0  0  0  0  0  0  0
   62.0591   34.3900   46.9793 H   0  0  0  0  0  0  0  0  0  0  0  0
   58.3638   33.8400   49.1594 H   0  0  0  0  0  0  0  0  0  0  0  0
   57.1227   33.6131   47.0061 H   0  0  0  0  0  0  0  0  0  0  0  0
   60.1560   28.6030   46.8080 H   0  0  0  0  0  0  0  0  0  0  0  0
   57.6067   28.5499   48.2543 H   0  0  0  0  0  0  0  0  0  0  0  0
   59.1776   27.6768   48.5572 H   0  0  0  0  0  0  0  0  0  0  0  0
   58.2802   30.3906   49.4571 H   0  0  0  0  0  0  0  0  0  0  0  0
   59.3522   29.1797   50.2573 H   0  0  0  0  0  0  0  0  0  0  0  0
   62.8216   31.3117   47.3764 H   0  0  0  0  0  0  0  0  0  0  0  0
   64.5216   33.1385   47.3235 H   0  0  0  0  0  0  0  0  0  0  0  0
   65.2075   34.2717   49.4387 H   0  0  0  0  0  0  0  0  0  0  0  0
   64.1850   33.5871   51.6104 H   0  0  0  0  0  0  0  0  0  0  0  0
   62.4905   31.7576   51.6760 H   0  0  0  0  0  0  0  0  0  0  0  0
   59.9742   32.1434   47.6804 H   0  0  0  0  0  0  0  0  0  0  0  0
   61.2267   31.0005   47.0630 H   0  0  0  0  0  0  0  0  0  0  0  0
   58.1976   30.8290   46.8677 H   0  0  0  0  0  0  0  0  0  0  0  0
   59.4459   30.5940   45.5911 H   0  0  0  0  0  0  0  0  0  0  0  0
  1  2  2  0
  2  3  1  0
  3  4  1  0
  4  5  2  0
  4  6  1  0
  6  7  1  0
  7  8  2  0
  8  9  1  0
  9 10  1  0
 10 11  2  0
 11 12  1  0
 12 13  2  0
 13 14  1  0
 13 15  1  0
 15 16  2  0
  8 17  1  0
 17 18  1  0
  2 19  1  0
 19 20  2  0
 19 21  1  0
 21 22  1  0
 22 23  1  0
 23 24  1  0
 24 25  1  0
 25 26  2  0
 25 27  1  0
 27 28  2  0
 28 29  1  0
 29 30  2  0
 30 31  1  0
 31 32  2  0
 24 33  1  0
 33 34  1  0
 18  6  2  0
 34 21  1  0
 16 10  1  0
 32 27  1  0
  3 35  1  0
  3 36  1  0
  7 37  1  0
  9 38  1  0
  9 39  1  0
 11 40  1  0
 12 41  1  0
 15 42  1  0
 16 43  1  0
 21 44  1  0
 22 45  1  0
 22 46  1  0
 23 47  1  0
 23 48  1  0
 28 49  1  0
 29 50  1  0
 30 51  1  0
 31 52  1  0
 32 53  1  0
 33 54  1  0
 33 55  1  0
 34 56  1  0
 34 57  1  0
M  CHG  1  21   1
M  END
>  <UniqueID>  (69) 
66

>  <SMILES>  (69) 
O=C(CC(=O)c1cc(Cc2ccc(F)cc2)on1)C(=O)[NH+]1CCN(C(=O)c2ccccc2)CC1

>  <Energy>  (69) 
100.7924296394099

>  <Genealogy>  (69) 
O=C(CC(=O)c1cc(Cc2ccc(F)cc2)on1)C(=O)[NH+]1CCN(C(=O)c2ccccc2)CC1 (protonated)
O=C(CC(=O)c1cc(Cc2ccc(F)cc2)on1)C(=O)[NH+]1CCN(C(=O)c2ccccc2)CC1 (3D coordinates assigned)
O=C(CC(=O)c1cc(Cc2ccc(F)cc2)on1)C(=O)[NH+]1CCN(C(=O)c2ccccc2)CC1 (nonaromatic ring conformer: 100.7924296394099 kcal/mol)

>  <smiles>  (69) 
O=C(CC(=O)c1cc(Cc2ccc(F)cc2)on1)C(=O)N1CCN(C(=O)c2ccccc2)CC1

>  <score_type>  (69) 
oracle

>  <origin>  (69) 
adg

>  <m_score__min__energy>  (69) 
-8.9800000000000004

>  <m_primary>  (69) 
energy

$$$$
69:0
     RDKit          3D

 43 46  0  0  0  0  0  0  0  0999 V2000
   52.7648   31.9009   52.9800 H   0  0  0  0  0  0  0  0  0  0  0  0
   52.8750   31.1760   52.1600 C   0  0  0  0  0  0  0  0  0  0  0  0
   53.7410   30.1670   52.3470 C   0  0  0  0  0  0  0  0  0  0  0  0
   53.3418   29.1435   52.2907 H   0  0  0  0  0  0  0  0  0  0  0  0
   55.1850   30.3160   52.6220 C   0  0  0  0  0  0  0  0  0  0  0  0
   55.7460   29.6380   53.7140 C   0  0  0  0  0  0  0  0  0  0  0  0
   55.1046   29.0311   54.3700 H   0  0  0  0  0  0  0  0  0  0  0  0
   57.1150   29.7300   53.9720 C   0  0  0  0  0  0  0  0  0  0  0  0
   57.5490   29.1916   54.8274 H   0  0  0  0  0  0  0  0  0  0  0  0
   57.9350   30.5030   53.1480 C   0  0  0  0  0  0  0  0  0  0  0  0
   59.0102   30.5852   53.3653 H   0  0  0  0  0  0  0  0  0  0  0  0
   57.3900   31.1760   52.0420 C   0  0  0  0  0  0  0  0  0  0  0  0
   58.2520   31.9620   51.1380 C   0  0  0  0  0  0  0  0  0  0  0  0
   59.0137   32.6118   51.5936 H   0  0  0  0  0  0  0  0  0  0  0  0
   58.1710   31.9390   49.7990 C   0  0  0  0  0  0  0  0  0  0  0  0
   57.5926   32.7373   49.3111 H   0  0  0  0  0  0  0  0  0  0  0  0
   58.7990   30.9240   48.9310 C   0  0  0  0  0  0  0  0  0  0  0  0
   58.9280   29.7460   49.3600 O   0  0  0  0  0  0  0  0  0  0  0  0
   59.1880   31.2440   47.5910 N   0  0  0  0  0  0  0  0  0  0  0  0
   59.9210   30.3290   46.7300 C   0  0  0  0  0  0  0  0  0  0  0  0
   60.0816   30.7968   45.7475 H   0  0  0  0  0  0  0  0  0  0  0  0
   60.8954   30.0943   47.1833 H   0  0  0  0  0  0  0  0  0  0  0  0
   59.1250   29.0680   46.5620 C   0  0  0  0  0  0  0  0  0  0  0  0
   59.5850   27.8410   47.0900 C   0  0  0  0  0  0  0  0  0  0  0  0
   60.5687   27.7925   47.5799 H   0  0  0  0  0  0  0  0  0  0  0  0
   58.7920   26.6760   46.9940 C   0  0  0  0  0  0  0  0  0  0  0  0
   59.1674   25.7253   47.4006 H   0  0  0  0  0  0  0  0  0  0  0  0
   57.5270   26.7220   46.3830 C   0  0  0  0  0  0  0  0  0  0  0  0
   56.8983   25.8225   46.3078 H   0  0  0  0  0  0  0  0  0  0  0  0
   57.0970   27.9460   45.8760 C   0  0  0  0  0  0  0  0  0  0  0  0
   55.9350   28.2120   45.2630 N   0  0  0  0  0  0  0  0  0  0  0  0
   56.0560   29.5360   44.9920 C   0  0  0  0  0  0  0  0  0  0  0  0
   55.1540   30.1880   44.4060 O   0  0  0  0  0  0  0  0  0  0  0  0
   57.2170   30.1080   45.3990 N   0  0  0  0  0  0  0  0  0  0  0  0
   57.8600   29.0720   45.9600 C   0  0  0  0  0  0  0  0  0  0  0  0
   56.0240   31.0430   51.7580 C   0  0  0  0  0  0  0  0  0  0  0  0
   55.6055   31.5098   50.8542 H   0  0  0  0  0  0  0  0  0  0  0  0
   52.0580   31.3980   50.9510 C   0  0  0  0  0  0  0  0  0  0  0  0
   51.4410   32.5560   50.6380 N   0  0  0  0  0  0  0  0  0  0  0  0
   50.7770   32.3440   49.5150 N   0  0  0  0  0  0  0  0  0  0  0  0
   50.9980   31.0600   49.1900 C   0  0  0  0  0  0  0  0  0  0  0  0
   50.5080   30.5120   48.1700 O   0  0  0  0  0  0  0  0  0  0  0  0
   51.7920   30.4160   50.0660 N   0  0  0  0  0  0  0  0  0  0  0  0
  1  2  1  0
  2  3  2  3
  3  4  1  0
  3  5  1  0
  5  6  2  0
  6  7  1  0
  6  8  1  0
  8  9  1  0
  8 10  2  0
 10 11  1  0
 10 12  1  0
 12 13  1  0
 13 14  1  0
 13 15  2  0
 15 16  1  0
 15 17  1  0
 17 18  2  0
 17 19  1  0
 19 20  1  0
 20 21  1  0
 20 22  1  0
 20 23  1  0
 23 24  2  0
 24 25  1  0
 24 26  1  0
 26 27  1  0
 26 28  2  0
 28 29  1  0
 28 30  1  0
 30 31  1  0
 31 32  1  0
 32 33  2  0
 32 34  1  0
 34 35  1  0
 12 36  2  0
 36 37  1  0
  2 38  1  0
 38 39  2  0
 39 40  1  0
 40 41  1  0
 41 42  2  0
 41 43  1  0
 36  5  1  0
 43 38  1  0
 35 23  1  0
 35 30  2  0
M  CHG  5  19  -1  31  -1  34  -1  40  -1  43  -1
M  END
>  <UniqueID>  (70) 
67

>  <SMILES>  (70) 
O=C(/C=C\c1cccc(C=Cc2n[n-]c(=O)[n-]2)c1)[N-]Cc1cccc2[n-]c(=O)[n-]c12

>  <Energy>  (70) 
121.78733414582966

>  <Genealogy>  (70) 
O=C(C=Cc1cccc(C=Cc2n[n-]c(=O)[n-]2)c1)[N-]Cc1cccc2[n-]c(=O)[n-]c12 (protonated)
O=C(/C=C\c1cccc(C=Cc2n[n-]c(=O)[n-]2)c1)[N-]Cc1cccc2[n-]c(=O)[n-]c12 (cis-trans isomerization)
O=C(/C=C\c1cccc(C=Cc2n[n-]c(=O)[n-]2)c1)[N-]Cc1cccc2[n-]c(=O)[n-]c12 (3D coordinates assigned)
O=C(/C=C\c1cccc(C=Cc2n[n-]c(=O)[n-]2)c1)[N-]Cc1cccc2[n-]c(=O)[n-]c12 (optimized conformer: 121.78733414582966 kcal/mol)

>  <smiles>  (70) 
O=C(C=Cc1cccc(C=Cc2n[nH]c(=O)[nH]2)c1)NCc1cccc2[nH]c(=O)[nH]c12

>  <score_type>  (70) 
oracle

>  <origin>  (70) 
adg

>  <m_score__min__energy>  (70) 
-18.59

>  <m_primary>  (70) 
energy

$$$$
70:0
     RDKit          3D

 53 56  0  0  0  0  0  0  0  0999 V2000
   57.7410   20.0660   46.7580 C   0  0  0  0  0  0  0  0  0  0  0  0
   57.2930   21.3690   47.1190 O   0  0  0  0  0  0  0  0  0  0  0  0
   55.9470   21.7260   47.2980 C   0  0  0  0  0  0  0  0  0  0  0  0
   55.4660   22.2500   48.5140 C   0  0  0  0  0  0  0  0  0  0  0  0
   54.1170   22.5890   48.6510 C   0  0  0  0  0  0  0  0  0  0  0  0
   53.2370   22.4110   47.5810 C   0  0  0  0  0  0  0  0  0  0  0  0
   53.7040   21.8960   46.3690 C   0  0  0  0  0  0  0  0  0  0  0  0
   55.0560   21.5590   46.2230 C   0  0  0  0  0  0  0  0  0  0  0  0
   55.5240   21.0660   44.9680 N   0  0  0  0  0  0  0  0  0  0  0  0
   56.5450   22.0340   43.9610 S   0  0  0  0  0  0  0  0  0  0  0  0
   55.8890   22.2460   42.6260 O   0  0  0  0  0  0  0  0  0  0  0  0
   57.8450   21.3110   43.7450 O   0  0  0  0  0  0  0  0  0  0  0  0
   56.8770   23.5750   44.7420 C   0  0  0  0  0  0  0  0  0  0  0  0
   55.7450   24.8070   44.9080 S   0  0  0  0  0  0  0  0  0  0  0  0
   56.8570   25.8630   45.6140 C   0  0  0  0  0  0  0  0  0  0  0  0
   56.6250   27.0800   46.0130 N   0  0  0  0  0  0  0  0  0  0  0  0
   56.5380   28.2650   45.2050 C   0  0  0  0  0  0  0  0  0  0  0  0
   55.5220   29.0110   45.2370 O   0  0  0  0  0  0  0  0  0  0  0  0
   57.6960   28.6390   44.3360 C   0  0  0  0  0  0  0  0  0  0  0  0
   58.6080   29.5310   45.0700 N   0  0  0  0  0  0  0  0  0  0  0  0
   59.8180   29.0460   45.4820 C   0  0  0  0  0  0  0  0  0  0  0  0
   60.6750   29.8270   46.1900 N   0  0  0  0  0  0  0  0  0  0  0  0
   60.3520   31.1070   46.5190 C   0  0  0  0  0  0  0  0  0  0  0  0
   61.2470   31.8990   47.2560 C   0  0  0  0  0  0  0  0  0  0  0  0
   60.9150   33.2200   47.6050 C   0  0  0  0  0  0  0  0  0  0  0  0
   61.8290   34.0310   48.3660 N   0  0  0  0  0  0  0  0  0  0  0  0
   61.4580   34.5960   49.4150 O   0  0  0  0  0  0  0  0  0  0  0  0
   63.1280   34.2020   47.9450 O   0  0  0  0  0  0  0  0  0  0  0  0
   59.6720   33.7400   47.2030 C   0  0  0  0  0  0  0  0  0  0  0  0
   58.7770   32.9570   46.4700 C   0  0  0  0  0  0  0  0  0  0  0  0
   59.1090   31.6360   46.1230 C   0  0  0  0  0  0  0  0  0  0  0  0
   58.2360   30.8120   45.3910 C   0  0  0  0  0  0  0  0  0  0  0  0
   57.1080   31.2540   45.0320 O   0  0  0  0  0  0  0  0  0  0  0  0
   58.0780   25.2990   45.7270 N   0  0  0  0  0  0  0  0  0  0  0  0
   58.1020   24.0300   45.2360 C   0  0  0  0  0  0  0  0  0  0  0  0
   59.3560   23.2140   45.2590 C   0  0  0  0  0  0  0  0  0  0  0  0
   57.9418   19.4820   47.6683 H   0  0  0  0  0  0  0  0  0  0  0  0
   56.9643   19.5628   46.1635 H   0  0  0  0  0  0  0  0  0  0  0  0
   58.6629   20.1469   46.1635 H   0  0  0  0  0  0  0  0  0  0  0  0
   56.1551   22.3930   49.3594 H   0  0  0  0  0  0  0  0  0  0  0  0
   53.7476   22.9968   49.6035 H   0  0  0  0  0  0  0  0  0  0  0  0
   52.1754   22.6765   47.6926 H   0  0  0  0  0  0  0  0  0  0  0  0
   53.0090   21.7549   45.5281 H   0  0  0  0  0  0  0  0  0  0  0  0
   58.2374   27.7288   44.0388 H   0  0  0  0  0  0  0  0  0  0  0  0
   57.3232   29.1598   43.4417 H   0  0  0  0  0  0  0  0  0  0  0  0
   60.1009   28.0115   45.2374 H   0  0  0  0  0  0  0  0  0  0  0  0
   61.5940   29.4200   46.4840 H   0  0  0  0  0  0  0  0  0  0  0  0
   62.2174   31.4820   47.5634 H   0  0  0  0  0  0  0  0  0  0  0  0
   59.4019   34.7728   47.4681 H   0  0  0  0  0  0  0  0  0  0  0  0
   57.8076   33.3763   46.1628 H   0  0  0  0  0  0  0  0  0  0  0  0
   59.6499   23.0227   46.3016 H   0  0  0  0  0  0  0  0  0  0  0  0
   59.1801   22.2569   44.7462 H   0  0  0  0  0  0  0  0  0  0  0  0
   60.1598   23.7625   44.7462 H   0  0  0  0  0  0  0  0  0  0  0  0
  1  2  1  0
  2  3  1  0
  3  4  2  0
  4  5  1  0
  5  6  2  0
  6  7  1  0
  7  8  2  0
  8  9  1  0
  9 10  1  0
 10 11  2  0
 10 12  2  0
 10 13  1  0
 13 14  1  0
 14 15  1  0
 15 16  2  3
 16 17  1  0
 17 18  2  0
 17 19  1  0
 19 20  1  0
 20 21  1  0
 21 22  2  0
 22 23  1  0
 23 24  2  0
 24 25  1  0
 25 26  1  0
 26 27  2  0
 26 28  1  0
 25 29  2  0
 29 30  1  0
 30 31  2  0
 31 32  1  0
 32 33  2  0
 15 34  1  0
 34 35  1  0
 35 36  1  0
  8  3  1  0
 35 13  2  0
 32 20  1  0
 31 23  1  0
  1 37  1  0
  1 38  1  0
  1 39  1  0
  4 40  1  0
  5 41  1  0
  6 42  1  0
  7 43  1  0
 19 44  1  0
 19 45  1  0
 21 46  1  0
 22 47  1  0
 24 48  1  0
 29 49  1  0
 30 50  1  0
 36 51  1  0
 36 52  1  0
 36 53  1  0
M  CHG  5   9  -1  22   1  26   1  28  -1  34  -1
M  END
>  <UniqueID>  (71) 
68

>  <SMILES>  (71) 
COc1ccccc1[N-]S(=O)(=O)c1sc(=NC(=O)Cn2c[nH+]c3cc([N+](=O)[O-])ccc3c2=O)[n-]c1C

>  <Energy>  (71) 
103.08692234897056

>  <Genealogy>  (71) 
COc1ccccc1[N-]S(=O)(=O)c1sc(=NC(=O)Cn2c[nH+]c3cc([N+](=O)[O-])ccc3c2=O)[n-]c1C (protonated)
COc1ccccc1[N-]S(=O)(=O)c1sc(=NC(=O)Cn2c[nH+]c3cc([N+](=O)[O-])ccc3c2=O)[n-]c1C (3D coordinates assigned)
COc1ccccc1[N-]S(=O)(=O)c1sc(=NC(=O)Cn2c[nH+]c3cc([N+](=O)[O-])ccc3c2=O)[n-]c1C (optimized conformer: 103.08692234897056 kcal/mol)

>  <smiles>  (71) 
COc1ccccc1NS(=O)(=O)c1sc(=NC(=O)Cn2cnc3cc([N+](=O)[O-])ccc3c2=O)[nH]c1C

>  <score_type>  (71) 
oracle

>  <origin>  (71) 
adg

>  <m_score__min__energy>  (71) 
-11.01

>  <m_primary>  (71) 
energy

$$$$
71:0
     RDKit          3D

 48 50  0  0  0  0  0  0  0  0999 V2000
   56.1930   24.4770   45.0710 C   0  0  0  0  0  0  0  0  0  0  0  0
   56.2010   25.8370   45.7050 C   0  0  0  0  0  0  0  0  0  0  0  0
   55.1400   26.3490   46.0270 O   0  0  0  0  0  0  0  0  0  0  0  0
   57.4880   26.5820   45.9450 C   0  0  0  0  0  0  0  0  0  0  0  0
   57.9560   27.2820   44.6660 C   0  0  0  0  0  0  0  0  0  0  0  0
   57.7050   28.7640   44.7510 C   0  0  0  0  0  0  0  0  0  0  0  0
   58.5630   29.5860   45.4970 C   0  0  0  0  0  0  0  0  0  0  0  0
   58.3460   30.9660   45.5530 C   0  0  0  0  0  0  0  0  0  0  0  0
   57.2810   31.5450   44.8450 C   0  0  0  0  0  0  0  0  0  0  0  0
   57.0230   33.0230   44.9390 C   0  0  0  0  0  0  0  0  0  0  0  0
   58.1560   33.6930   45.6460 C   0  0  0  0  0  0  0  0  0  0  0  0
   58.5140   33.4100   46.9160 N   0  0  0  0  0  0  0  0  0  0  0  0
   59.6220   34.0990   47.3010 C   0  0  0  0  0  0  0  0  0  0  0  0
   60.1970   33.9680   48.6570 C   0  0  0  0  0  0  0  0  0  0  0  0
   59.6020   34.5140   49.6290 O   0  0  0  0  0  0  0  0  0  0  0  0
   61.3780   33.1620   48.8920 N   0  0  0  0  0  0  0  0  0  0  0  0
   62.4680   34.0230   49.4090 C   0  0  0  0  0  0  0  0  0  0  0  0
   63.8430   33.3940   49.1280 C   0  0  0  0  0  0  0  0  0  0  0  0
   64.1170   33.2020   47.7450 O   0  0  0  0  0  0  0  0  0  0  0  0
   62.9520   33.0680   46.9420 C   0  0  0  0  0  0  0  0  0  0  0  0
   61.7760   32.3990   47.6790 C   0  0  0  0  0  0  0  0  0  0  0  0
   60.1620   34.9330   46.3210 C   0  0  0  0  0  0  0  0  0  0  0  0
   59.2160   34.7890   44.9390 S   0  0  0  0  0  0  0  0  0  0  0  0
   56.4240   30.7230   44.0980 C   0  0  0  0  0  0  0  0  0  0  0  0
   56.6400   29.3430   44.0420 C   0  0  0  0  0  0  0  0  0  0  0  0
   56.1885   23.7065   45.8561 H   0  0  0  0  0  0  0  0  0  0  0  0
   55.2942   24.3690   44.4461 H   0  0  0  0  0  0  0  0  0  0  0  0
   57.0905   24.3585   44.4461 H   0  0  0  0  0  0  0  0  0  0  0  0
   57.3280   27.3351   46.7307 H   0  0  0  0  0  0  0  0  0  0  0  0
   58.2597   25.8627   46.2566 H   0  0  0  0  0  0  0  0  0  0  0  0
   59.0332   27.1049   44.5304 H   0  0  0  0  0  0  0  0  0  0  0  0
   57.3932   26.8753   43.8128 H   0  0  0  0  0  0  0  0  0  0  0  0
   59.4104   29.1426   46.0404 H   0  0  0  0  0  0  0  0  0  0  0  0
   59.0129   31.6011   46.1546 H   0  0  0  0  0  0  0  0  0  0  0  0
   56.9264   33.4415   43.9263 H   0  0  0  0  0  0  0  0  0  0  0  0
   56.0934   33.1933   45.5019 H   0  0  0  0  0  0  0  0  0  0  0  0
   61.1570   32.4520   49.6300 H   0  0  0  0  0  0  0  0  0  0  0  0
   62.4143   35.0060   48.9182 H   0  0  0  0  0  0  0  0  0  0  0  0
   62.3458   34.1302   50.4969 H   0  0  0  0  0  0  0  0  0  0  0  0
   64.6176   34.0535   49.5463 H   0  0  0  0  0  0  0  0  0  0  0  0
   63.8399   32.3978   49.5944 H   0  0  0  0  0  0  0  0  0  0  0  0
   62.6353   34.0699   46.6167 H   0  0  0  0  0  0  0  0  0  0  0  0
   63.2149   32.4198   46.0931 H   0  0  0  0  0  0  0  0  0  0  0  0
   60.9151   32.3408   46.9967 H   0  0  0  0  0  0  0  0  0  0  0  0
   62.0977   31.3961   47.9964 H   0  0  0  0  0  0  0  0  0  0  0  0
   61.0503   35.5721   46.4332 H   0  0  0  0  0  0  0  0  0  0  0  0
   55.5775   31.1668   43.5534 H   0  0  0  0  0  0  0  0  0  0  0  0
   55.9731   28.7081   43.4402 H   0  0  0  0  0  0  0  0  0  0  0  0
  1  2  1  0
  2  3  2  0
  2  4  1  0
  4  5  1  0
  5  6  1  0
  6  7  2  0
  7  8  1  0
  8  9  2  0
  9 10  1  0
 10 11  1  0
 11 12  2  0
 12 13  1  0
 13 14  1  0
 14 15  2  0
 14 16  1  0
 16 17  1  0
 17 18  1  0
 18 19  1  0
 19 20  1  0
 20 21  1  0
 13 22  2  0
 22 23  1  0
  9 24  1  0
 24 25  2  0
 25  6  1  0
 23 11  1  0
 21 16  1  0
  1 26  1  0
  1 27  1  0
  1 28  1  0
  4 29  1  0
  4 30  1  0
  5 31  1  0
  5 32  1  0
  7 33  1  0
  8 34  1  0
 10 35  1  0
 10 36  1  0
 16 37  1  0
 17 38  1  0
 17 39  1  0
 18 40  1  0
 18 41  1  0
 20 42  1  0
 20 43  1  0
 21 44  1  0
 21 45  1  0
 22 46  1  0
 24 47  1  0
 25 48  1  0
M  CHG  1  16   1
M  END
>  <UniqueID>  (72) 
69

>  <SMILES>  (72) 
CC(=O)CCc1ccc(Cc2nc(C(=O)[NH+]3CCOCC3)cs2)cc1

>  <Energy>  (72) 
84.93624479888706

>  <Genealogy>  (72) 
CC(=O)CCc1ccc(Cc2nc(C(=O)[NH+]3CCOCC3)cs2)cc1 (protonated)
CC(=O)CCc1ccc(Cc2nc(C(=O)[NH+]3CCOCC3)cs2)cc1 (3D coordinates assigned)
CC(=O)CCc1ccc(Cc2nc(C(=O)[NH+]3CCOCC3)cs2)cc1 (nonaromatic ring conformer: 84.93624479888706 kcal/mol)

>  <smiles>  (72) 
CC(=O)CCc1ccc(Cc2nc(C(=O)N3CCOCC3)cs2)cc1

>  <score_type>  (72) 
oracle

>  <origin>  (72) 
adg

>  <m_score__min__energy>  (72) 
-7.6500000000000004

>  <m_primary>  (72) 
energy

$$$$
72:0
     RDKit          3D

 45 47  0  0  0  0  0  0  0  0999 V2000
   55.4170   29.4030   45.0030 O   0  0  0  0  0  0  0  0  0  0  0  0
   56.6120   29.6730   44.7180 C   0  0  0  0  0  0  0  0  0  0  0  0
   57.1450   29.2790   43.3690 C   0  0  0  0  0  0  0  0  0  0  0  0
   57.9530   27.6400   43.4090 S   0  0  0  0  0  0  0  0  0  0  0  0
   58.6660   27.8560   45.0420 C   0  0  0  0  0  0  0  0  0  0  0  0
   58.0630   27.2590   46.1550 C   0  0  0  0  0  0  0  0  0  0  0  0
   58.6190   27.4250   47.4270 C   0  0  0  0  0  0  0  0  0  0  0  0
   59.7850   28.1820   47.5910 C   0  0  0  0  0  0  0  0  0  0  0  0
   60.3290   28.3400   48.8640 O   0  0  0  0  0  0  0  0  0  0  0  0
   60.3940   28.7730   46.4750 C   0  0  0  0  0  0  0  0  0  0  0  0
   59.8360   28.6080   45.2020 C   0  0  0  0  0  0  0  0  0  0  0  0
   57.4070   30.3820   45.6790 N   0  0  0  0  0  0  0  0  0  0  0  0
   57.7670   31.7670   45.6000 C   0  0  0  0  0  0  0  0  0  0  0  0
   57.1710   32.5530   44.6060 C   0  0  0  0  0  0  0  0  0  0  0  0
   57.4830   33.9090   44.4930 C   0  0  0  0  0  0  0  0  0  0  0  0
   58.3740   34.4970   45.3890 C   0  0  0  0  0  0  0  0  0  0  0  0
   58.9540   33.7320   46.4040 C   0  0  0  0  0  0  0  0  0  0  0  0
   58.6670   32.3600   46.5190 C   0  0  0  0  0  0  0  0  0  0  0  0
   59.2390   31.5890   47.6500 C   0  0  0  0  0  0  0  0  0  0  0  0
   58.5250   30.7100   48.2020 O   0  0  0  0  0  0  0  0  0  0  0  0
   60.5840   31.8190   48.1280 N   0  0  0  0  0  0  0  0  0  0  0  0
   61.6020   32.4860   47.3060 C   0  0  0  0  0  0  0  0  0  0  0  0
   62.9510   31.7860   47.4980 C   0  0  0  0  0  0  0  0  0  0  0  0
   63.2830   31.7020   48.8700 O   0  0  0  0  0  0  0  0  0  0  0  0
   62.3500   30.8740   49.5400 C   0  0  0  0  0  0  0  0  0  0  0  0
   60.9500   31.4950   49.5120 C   0  0  0  0  0  0  0  0  0  0  0  0
   56.3111   29.2472   42.6523 H   0  0  0  0  0  0  0  0  0  0  0  0
   57.8972   30.0232   43.0685 H   0  0  0  0  0  0  0  0  0  0  0  0
   57.1502   26.6583   46.0288 H   0  0  0  0  0  0  0  0  0  0  0  0
   58.1392   26.9598   48.3007 H   0  0  0  0  0  0  0  0  0  0  0  0
   60.0670   29.1170   49.4600 H   0  0  0  0  0  0  0  0  0  0  0  0
   61.3113   29.3670   46.6000 H   0  0  0  0  0  0  0  0  0  0  0  0
   60.3170   29.0694   44.3269 H   0  0  0  0  0  0  0  0  0  0  0  0
   56.4516   32.0985   43.9090 H   0  0  0  0  0  0  0  0  0  0  0  0
   57.0253   34.5138   43.6963 H   0  0  0  0  0  0  0  0  0  0  0  0
   58.6209   35.5650   45.2969 H   0  0  0  0  0  0  0  0  0  0  0  0
   59.6413   34.2070   47.1196 H   0  0  0  0  0  0  0  0  0  0  0  0
   61.3096   32.4347   46.2468 H   0  0  0  0  0  0  0  0  0  0  0  0
   61.6882   33.5392   47.6115 H   0  0  0  0  0  0  0  0  0  0  0  0
   62.8934   30.7709   47.0782 H   0  0  0  0  0  0  0  0  0  0  0  0
   63.7276   32.3703   46.9827 H   0  0  0  0  0  0  0  0  0  0  0  0
   62.3186   29.8924   49.0446 H   0  0  0  0  0  0  0  0  0  0  0  0
   62.6655   30.7652   50.5881 H   0  0  0  0  0  0  0  0  0  0  0  0
   60.2236   30.7797   49.9251 H   0  0  0  0  0  0  0  0  0  0  0  0
   60.9453   32.4141   50.1164 H   0  0  0  0  0  0  0  0  0  0  0  0
  1  2  2  0
  2  3  1  0
  3  4  1  0
  4  5  1  0
  5  6  2  0
  6  7  1  0
  7  8  2  0
  8  9  1  0
  8 10  1  0
 10 11  2  0
  2 12  1  0
 12 13  1  0
 13 14  2  0
 14 15  1  0
 15 16  2  0
 16 17  1  0
 17 18  2  0
 18 19  1  0
 19 20  2  0
 19 21  1  0
 21 22  1  0
 22 23  1  0
 23 24  1  0
 24 25  1  0
 25 26  1  0
 11  5  1  0
 18 13  1  0
 26 21  1  0
  3 27  1  0
  3 28  1  0
  6 29  1  0
  7 30  1  0
  9 31  1  0
 10 32  1  0
 11 33  1  0
 14 34  1  0
 15 35  1  0
 16 36  1  0
 17 37  1  0
 22 38  1  0
 22 39  1  0
 23 40  1  0
 23 41  1  0
 25 42  1  0
 25 43  1  0
 26 44  1  0
 26 45  1  0
M  CHG  1  12  -1
M  END
>  <UniqueID>  (73) 
70

>  <SMILES>  (73) 
O=C(CSc1ccc(O)cc1)[N-]c1ccccc1C(=O)N1CCOCC1

>  <Energy>  (73) 
54.76413724321688

>  <Genealogy>  (73) 
O=C(CSc1ccc(O)cc1)[N-]c1ccccc1C(=O)N1CCOCC1 (protonated)
O=C(CSc1ccc(O)cc1)[N-]c1ccccc1C(=O)N1CCOCC1 (3D coordinates assigned)
O=C(CSc1ccc(O)cc1)[N-]c1ccccc1C(=O)N1CCOCC1 (nonaromatic ring conformer: 54.76413724321688 kcal/mol)

>  <smiles>  (73) 
O=C(CSc1ccc(O)cc1)Nc1ccccc1C(=O)N1CCOCC1

>  <score_type>  (73) 
oracle

>  <origin>  (73) 
adg

>  <m_score__min__energy>  (73) 
-10.85

>  <m_primary>  (73) 
energy

$$$$
73:0
     RDKit          3D

 42 44  0  0  0  0  0  0  0  0999 V2000
   57.6253   31.6199   45.5525 H   0  0  0  0  0  0  0  0  0  0  0  0
   58.0920   32.2220   46.3460 C   0  0  0  0  0  0  0  0  0  0  0  0
   58.4460   31.6400   47.5210 N   0  0  0  0  0  0  0  0  0  0  0  0
   59.0330   32.3300   48.5380 C   0  0  0  0  0  0  0  0  0  0  0  0
   59.3420   31.6690   49.6190 N   0  0  0  0  0  0  0  0  0  0  0  0
   58.5640   30.6920   50.3240 C   0  0  0  0  0  0  0  0  0  0  0  0
   58.0900   29.6950   49.7120 O   0  0  0  0  0  0  0  0  0  0  0  0
   58.2720   30.8900   51.7880 C   0  0  0  0  0  0  0  0  0  0  0  0
   59.2088   31.1470   52.3041 H   0  0  0  0  0  0  0  0  0  0  0  0
   57.7340   29.5750   52.3940 C   0  0  0  0  0  0  0  0  0  0  0  0
   57.1477   29.0423   51.6308 H   0  0  0  0  0  0  0  0  0  0  0  0
   58.5907   28.9674   52.7210 H   0  0  0  0  0  0  0  0  0  0  0  0
   56.8390   29.8470   53.6130 C   0  0  0  0  0  0  0  0  0  0  0  0
   56.4766   28.8850   54.0044 H   0  0  0  0  0  0  0  0  0  0  0  0
   57.4455   30.3874   54.3547 H   0  0  0  0  0  0  0  0  0  0  0  0
   55.6680   30.6980   53.2890 N   0  0  0  0  0  0  0  0  0  0  0  0
   54.2180   29.7410   53.0700 S   0  0  0  0  0  0  0  0  0  0  0  0
   53.5540   29.5200   54.4010 O   0  0  0  0  0  0  0  0  0  0  0  0
   54.5920   28.3980   52.5080 O   0  0  0  0  0  0  0  0  0  0  0  0
   53.0800   30.5330   51.9760 C   0  0  0  0  0  0  0  0  0  0  0  0
   52.8890   30.0410   50.6770 C   0  0  0  0  0  0  0  0  0  0  0  0
   53.4791   29.1826   50.3234 H   0  0  0  0  0  0  0  0  0  0  0  0
   51.9510   30.6380   49.8300 C   0  0  0  0  0  0  0  0  0  0  0  0
   51.7983   30.2426   48.8149 H   0  0  0  0  0  0  0  0  0  0  0  0
   51.2060   31.7370   50.2700 C   0  0  0  0  0  0  0  0  0  0  0  0
   50.2750   32.3260   49.4240 O   0  0  0  0  0  0  0  0  0  0  0  0
   51.4010   32.2390   51.5630 C   0  0  0  0  0  0  0  0  0  0  0  0
   50.6650   33.3320   52.0060 O   0  0  0  0  0  0  0  0  0  0  0  0
   52.3370   31.6400   52.4120 C   0  0  0  0  0  0  0  0  0  0  0  0
   52.4912   32.0385   53.4256 H   0  0  0  0  0  0  0  0  0  0  0  0
   55.8610   31.6110   52.1410 C   0  0  0  0  0  0  0  0  0  0  0  0
   55.5848   31.0833   51.2162 H   0  0  0  0  0  0  0  0  0  0  0  0
   55.2254   32.4951   52.2970 H   0  0  0  0  0  0  0  0  0  0  0  0
   57.3150   32.0840   52.0270 C   0  0  0  0  0  0  0  0  0  0  0  0
   57.3994   32.7864   51.1847 H   0  0  0  0  0  0  0  0  0  0  0  0
   57.5977   32.5754   52.9696 H   0  0  0  0  0  0  0  0  0  0  0  0
   59.2360   33.7280   48.3820 C   0  0  0  0  0  0  0  0  0  0  0  0
   59.7170   34.5340   49.4080 O   0  0  0  0  0  0  0  0  0  0  0  0
   58.8900   34.3340   47.1700 C   0  0  0  0  0  0  0  0  0  0  0  0
   59.0687   35.4096   47.0247 H   0  0  0  0  0  0  0  0  0  0  0  0
   58.3200   33.5810   46.1460 C   0  0  0  0  0  0  0  0  0  0  0  0
   58.0529   34.0548   45.1899 H   0  0  0  0  0  0  0  0  0  0  0  0
  1  2  1  0
  2  3  1  0
  3  4  1  0
  4  5  2  0
  5  6  1  0
  6  7  2  0
  6  8  1  0
  8  9  1  0
  8 10  1  0
 10 11  1  0
 10 12  1  0
 10 13  1  0
 13 14  1  0
 13 15  1  0
 13 16  1  0
 16 17  1  0
 17 18  2  0
 17 19  2  0
 17 20  1  0
 20 21  2  0
 21 22  1  0
 21 23  1  0
 23 24  1  0
 23 25  2  0
 25 26  1  0
 25 27  1  0
 27 28  1  0
 27 29  2  0
 29 30  1  0
 16 31  1  0
 31 32  1  0
 31 33  1  0
 31 34  1  0
 34 35  1  0
 34 36  1  0
  4 37  1  0
 37 38  1  0
 37 39  2  0
 39 40  1  0
 39 41  1  0
 41 42  1  0
 41  2  2  0
 34  8  1  0
 29 20  1  0
M  CHG  4   3  -1  26  -1  28  -1  38  -1
M  END
>  <UniqueID>  (74) 
71

>  <SMILES>  (74) 
O=C(/N=c1/[n-]cccc1[O-])C1CCN(S(=O)(=O)c2ccc([O-])c([O-])c2)CC1

>  <Energy>  (74) 
61.37426393644367

>  <Genealogy>  (74) 
O=C(N=c1[n-]cccc1[O-])C1CCN(S(=O)(=O)c2ccc([O-])c([O-])c2)CC1 (protonated)
O=C(/N=c1/[n-]cccc1[O-])C1CCN(S(=O)(=O)c2ccc([O-])c([O-])c2)CC1 (cis-trans isomerization)
O=C(/N=c1/[n-]cccc1[O-])C1CCN(S(=O)(=O)c2ccc([O-])c([O-])c2)CC1 (3D coordinates assigned)
O=C(/N=c1/[n-]cccc1[O-])C1CCN(S(=O)(=O)c2ccc([O-])c([O-])c2)CC1 (nonaromatic ring conformer: 61.37426393644367 kcal/mol)

>  <smiles>  (74) 
O=C(N=c1[nH]cccc1O)C1CCN(S(=O)(=O)c2ccc(O)c(O)c2)CC1

>  <score_type>  (74) 
oracle

>  <origin>  (74) 
adg

>  <m_score__min__energy>  (74) 
-17.719999999999999

>  <m_primary>  (74) 
energy

$$$$
74:0
     RDKit          3D

 66 68  0  0  1  0  0  0  0  0999 V2000
   57.2280   33.0910   47.6880 O   0  0  0  0  0  0  0  0  0  0  0  0
   57.8580   33.7250   46.8170 C   0  0  0  0  0  0  0  0  0  0  0  0
   57.4100   33.9750   45.4380 C   0  0  0  0  0  0  0  0  0  0  0  0
   57.8660   32.9100   44.5170 C   0  0  0  0  0  0  0  0  0  0  0  0
   57.0510   31.7040   44.3320 C   0  0  0  0  0  0  0  0  0  0  0  0
   57.5950   30.5860   43.6220 N   0  0  0  0  0  0  0  0  0  0  0  0
   57.4890   29.1410   44.6400 S   0  0  0  0  0  0  0  0  0  0  0  0
   58.1160   28.0010   43.8960 O   0  0  0  0  0  0  0  0  0  0  0  0
   56.0480   28.7840   44.8860 O   0  0  0  0  0  0  0  0  0  0  0  0
   58.3160   29.4370   46.1450 C   0  0  0  0  0  0  0  0  0  0  0  0
   58.2560   28.4440   47.1190 C   0  0  0  0  0  0  0  0  0  0  0  0
   58.9050   28.6270   48.3320 C   0  0  0  0  0  0  0  0  0  0  0  0
   59.6110   29.7570   48.6160 C   0  0  0  0  0  0  0  0  0  0  0  0
   60.2970   29.9820   49.8820 C   0  0  0  0  0  0  0  0  0  0  0  0
   59.7650   30.6660   50.8770 C   0  0  0  0  0  0  0  0  0  0  0  0
   58.3870   31.1290   50.8080 C   0  0  0  0  0  0  0  0  0  0  0  0
   58.0160   32.3040   50.1710 O   0  0  0  0  0  0  0  0  0  0  0  0
   57.4270   30.4420   51.3560 N   0  0  0  0  0  0  0  0  0  0  0  0
   56.1370   30.8860   51.3000 O   0  0  0  0  0  0  0  0  0  0  0  0
   59.6650   30.7480   47.6360 C   0  0  0  0  0  0  0  0  0  0  0  0
   59.0250   30.5770   46.4300 C   0  0  0  0  0  0  0  0  0  0  0  0
   59.1330   34.2480   47.2140 N   0  0  0  0  0  0  0  0  0  0  0  0
   59.6240   34.0480   48.5920 C   0  0  0  0  0  0  0  0  0  0  0  0
   61.1420   33.9260   48.4190 C   0  0  0  0  0  0  0  0  0  0  0  0
   61.4540   33.2130   47.2130 N   0  0  0  0  0  0  0  0  0  0  0  0
   62.8330   32.8880   47.1510 C   0  0  0  0  0  0  0  0  0  0  0  0
   63.7370   33.6850   48.0590 C   0  0  0  0  0  0  0  0  0  0  0  0
   64.1430   32.7490   49.1720 C   0  0  0  0  0  0  0  0  0  0  0  0
   63.2930   31.7790   49.6570 C   0  0  0  0  0  0  0  0  0  0  0  0
   63.7630   30.9660   50.6790 C   0  0  0  0  0  0  0  0  0  0  0  0
   65.0050   31.1010   51.1960 N   0  0  0  0  0  0  0  0  0  0  0  0
   65.8510   32.0560   50.7210 C   0  0  0  0  0  0  0  0  0  0  0  0
   65.4110   32.8790   49.7060 C   0  0  0  0  0  0  0  0  0  0  0  0
   61.1410   33.9620   45.9980 C   0  0  0  0  0  0  0  0  0  0  0  0
   60.0210   34.9610   46.3400 C   0  0  0  0  0  0  0  0  0  0  0  0
   56.3109   34.0153   45.4212 H   0  0  0  0  0  0  0  0  0  0  0  0
   57.8426   34.9292   45.1027 H   0  0  0  0  0  0  0  0  0  0  0  0
   57.9778   33.3734   43.5256 H   0  0  0  0  0  0  0  0  0  0  0  0
   58.7771   32.5287   45.0013 H   0  0  0  0  0  0  0  0  0  0  0  0
   56.7801   31.3442   45.3356 H   0  0  0  0  0  0  0  0  0  0  0  0
   56.2293   32.0450   43.6851 H   0  0  0  0  0  0  0  0  0  0  0  0
   58.6650   30.7280   43.5640 H   0  0  0  0  0  0  0  0  0  0  0  0
   57.6957   27.5169   46.9276 H   0  0  0  0  0  0  0  0  0  0  0  0
   58.8474   27.8322   49.0903 H   0  0  0  0  0  0  0  0  0  0  0  0
   61.3051   29.5621   50.0142 H   0  0  0  0  0  0  0  0  0  0  0  0
   60.3697   30.8887   51.7685 H   0  0  0  0  0  0  0  0  0  0  0  0
   57.0670   32.4140   49.8040 H   0  0  0  0  0  0  0  0  0  0  0  0
   55.9100   31.7830   50.9060 H   0  0  0  0  0  0  0  0  0  0  0  0
   60.2246   31.6751   47.8291 H   0  0  0  0  0  0  0  0  0  0  0  0
   59.0831   31.3747   45.6748 H   0  0  0  0  0  0  0  0  0  0  0  0
   59.3690   34.9081   49.2286 H   0  0  0  0  0  0  0  0  0  0  0  0
   59.1775   33.1701   49.0819 H   0  0  0  0  0  0  0  0  0  0  0  0
   61.5828   34.9326   48.3690 H   0  0  0  0  0  0  0  0  0  0  0  0
   61.5549   33.3738   49.2761 H   0  0  0  0  0  0  0  0  0  0  0  0
   62.9415   31.8256   47.4146 H   0  0  0  0  0  0  0  0  0  0  0  0
   63.1510   33.1294   46.1260 H   0  0  0  0  0  0  0  0  0  0  0  0
   64.6241   34.0299   47.5075 H   0  0  0  0  0  0  0  0  0  0  0  0
   63.2275   34.5778   48.4505 H   0  0  0  0  0  0  0  0  0  0  0  0
   62.2791   31.6536   49.2492 H   0  0  0  0  0  0  0  0  0  0  0  0
   63.1021   30.1847   51.0824 H   0  0  0  0  0  0  0  0  0  0  0  0
   66.8628   32.1685   51.1376 H   0  0  0  0  0  0  0  0  0  0  0  0
   66.0836   33.6556   49.3129 H   0  0  0  0  0  0  0  0  0  0  0  0
   62.0334   34.5038   45.6514 H   0  0  0  0  0  0  0  0  0  0  0  0
   60.8181   33.2803   45.1974 H   0  0  0  0  0  0  0  0  0  0  0  0
   60.4345   35.8448   46.8479 H   0  0  0  0  0  0  0  0  0  0  0  0
   59.5058   35.3246   45.4387 H   0  0  0  0  0  0  0  0  0  0  0  0
  1  2  2  0
  2  3  1  0
  3  4  1  0
  4  5  1  0
  5  6  1  0
  6  7  1  0
  7  8  2  0
  7  9  2  0
  7 10  1  0
 10 11  2  0
 11 12  1  0
 12 13  2  0
 13 14  1  0
 14 15  2  0
 15 16  1  0
 16 17  1  0
 16 18  2  0
 18 19  1  0
 13 20  1  0
 20 21  2  0
  2 22  1  0
 22 23  1  0
 23 24  1  0
 24 25  1  0
 25 26  1  0
 26 27  1  0
 27 28  1  0
 28 29  2  0
 29 30  1  0
 30 31  2  0
 31 32  1  0
 32 33  2  0
 25 34  1  0
 34 35  1  0
 21 10  1  0
 35 22  1  0
 33 28  1  0
  3 36  1  0
  3 37  1  0
  4 38  1  0
  4 39  1  0
  5 40  1  0
  5 41  1  0
  6 42  1  0
 11 43  1  0
 12 44  1  0
 14 45  1  0
 15 46  1  0
 17 47  1  0
 19 48  1  0
 20 49  1  0
 21 50  1  0
 23 51  1  0
 23 52  1  0
 24 53  1  0
 24 54  1  0
 26 55  1  0
 26 56  1  0
 27 57  1  0
 27 58  1  0
 29 59  1  0
 30 60  1  0
 32 61  1  0
 33 62  1  0
 34 63  1  0
 34 64  1  0
 35 65  1  0
 35 66  1  0
M  END
>  <smiles>  (75) 
O=C(CCCNS(=O)(=O)c1ccc(C=CC(O)=NO)cc1)N1CCN(CCc2ccncc2)CC1

>  <score_type>  (75) 
oracle

>  <origin>  (75) 
adg

>  <m_score__min__energy>  (75) 
-11.390000000000001

>  <m_primary>  (75) 
energy

$$$$
75:0
     RDKit          3D

 67 71  0  0  0  0  0  0  0  0999 V2000
   68.0889   29.4821   51.1371 H   0  0  0  0  0  0  0  0  0  0  0  0
   67.0840   29.9090   51.2710 C   0  0  0  0  0  0  0  0  0  0  0  0
   66.8750   31.2790   51.0710 C   0  0  0  0  0  0  0  0  0  0  0  0
   67.7143   31.9245   50.7726 H   0  0  0  0  0  0  0  0  0  0  0  0
   65.5930   31.8320   51.2510 C   0  0  0  0  0  0  0  0  0  0  0  0
   65.3760   33.3100   51.0490 C   0  0  0  0  0  0  0  0  0  0  0  0
   66.2532   33.8586   51.4226 H   0  0  0  0  0  0  0  0  0  0  0  0
   64.4739   33.6147   51.5998 H   0  0  0  0  0  0  0  0  0  0  0  0
   65.1920   33.6060   49.6640 O   0  0  0  0  0  0  0  0  0  0  0  0
   63.9750   33.5050   48.9700 C   0  0  0  0  0  0  0  0  0  0  0  0
   62.8690   34.2080   49.4640 C   0  0  0  0  0  0  0  0  0  0  0  0
   62.9776   34.8359   50.3607 H   0  0  0  0  0  0  0  0  0  0  0  0
   61.6270   34.1180   48.8260 C   0  0  0  0  0  0  0  0  0  0  0  0
   60.7606   34.6596   49.2333 H   0  0  0  0  0  0  0  0  0  0  0  0
   61.4840   33.3400   47.6700 C   0  0  0  0  0  0  0  0  0  0  0  0
   60.2000   33.2050   47.0500 N   0  0  0  0  0  0  0  0  0  0  0  0
   59.9180   33.6060   45.7950 C   0  0  0  0  0  0  0  0  0  0  0  0
   60.6406   34.0476   45.0930 H   0  0  0  0  0  0  0  0  0  0  0  0
   58.5840   33.3780   45.5250 C   0  0  0  0  0  0  0  0  0  0  0  0
   57.8640   33.7160   44.2530 C   0  0  0  0  0  0  0  0  0  0  0  0
   58.3584   34.5789   43.7830 H   0  0  0  0  0  0  0  0  0  0  0  0
   56.8182   33.9466   44.5041 H   0  0  0  0  0  0  0  0  0  0  0  0
   57.8680   32.5650   43.2830 C   0  0  0  0  0  0  0  0  0  0  0  0
   57.4240   32.7300   42.1150 O   0  0  0  0  0  0  0  0  0  0  0  0
   58.5740   31.3560   43.5920 N   0  0  0  0  0  0  0  0  0  0  0  0
   58.0970   30.2950   44.1860 C   0  0  0  0  0  0  0  0  0  0  0  0
   58.9240   29.3830   44.8710 C   0  0  0  0  0  0  0  0  0  0  0  0
   60.0091   29.5545   44.9273 H   0  0  0  0  0  0  0  0  0  0  0  0
   58.3580   28.2600   45.4780 C   0  0  0  0  0  0  0  0  0  0  0  0
   59.0002   27.5428   46.0101 H   0  0  0  0  0  0  0  0  0  0  0  0
   56.9750   28.0430   45.4120 C   0  0  0  0  0  0  0  0  0  0  0  0
   56.3690   26.8360   46.0160 C   0  0  0  0  0  0  0  0  0  0  0  0
   55.1230   26.6650   45.9840 O   0  0  0  0  0  0  0  0  0  0  0  0
   57.1780   25.8490   46.5790 O   0  0  0  0  0  0  0  0  0  0  0  0
   56.1820   28.9890   44.7460 C   0  0  0  0  0  0  0  0  0  0  0  0
   55.0921   28.8490   44.6956 H   0  0  0  0  0  0  0  0  0  0  0  0
   56.7510   30.0800   44.1610 N   0  0  0  0  0  0  0  0  0  0  0  0
   56.1290   30.7640   43.6730 H   0  0  0  0  0  0  0  0  0  0  0  0
   58.0270   32.8270   46.6620 C   0  0  0  0  0  0  0  0  0  0  0  0
   56.9769   32.5322   46.8051 H   0  0  0  0  0  0  0  0  0  0  0  0
   59.0530   32.7190   47.5870 C   0  0  0  0  0  0  0  0  0  0  0  0
   58.9140   32.0980   48.9240 C   0  0  0  0  0  0  0  0  0  0  0  0
   58.1560   32.6100   49.7920 O   0  0  0  0  0  0  0  0  0  0  0  0
   59.6410   30.9100   49.2530 N   0  0  0  0  0  0  0  0  0  0  0  0
   61.0840   31.0140   49.5080 C   0  0  0  0  0  0  0  0  0  0  0  0
   61.6098   31.1444   48.5507 H   0  0  0  0  0  0  0  0  0  0  0  0
   61.2619   31.8770   50.1665 H   0  0  0  0  0  0  0  0  0  0  0  0
   61.6120   29.7540   50.2020 C   0  0  0  0  0  0  0  0  0  0  0  0
   62.7117   29.7641   50.1800 H   0  0  0  0  0  0  0  0  0  0  0  0
   61.2499   29.7455   51.2407 H   0  0  0  0  0  0  0  0  0  0  0  0
   61.1460   28.5890   49.5500 O   0  0  0  0  0  0  0  0  0  0  0  0
   59.7440   28.4920   49.7160 C   0  0  0  0  0  0  0  0  0  0  0  0
   59.4017   27.5180   49.3363 H   0  0  0  0  0  0  0  0  0  0  0  0
   59.5063   28.5887   50.7856 H   0  0  0  0  0  0  0  0  0  0  0  0
   59.0310   29.6100   48.9490 C   0  0  0  0  0  0  0  0  0  0  0  0
   59.1105   29.4162   47.8691 H   0  0  0  0  0  0  0  0  0  0  0  0
   57.9740   29.6326   49.2527 H   0  0  0  0  0  0  0  0  0  0  0  0
   62.5880   32.6380   47.1680 C   0  0  0  0  0  0  0  0  0  0  0  0
   62.4783   32.0172   46.2665 H   0  0  0  0  0  0  0  0  0  0  0  0
   63.8290   32.7230   47.8080 C   0  0  0  0  0  0  0  0  0  0  0  0
   64.6936   32.1772   47.4023 H   0  0  0  0  0  0  0  0  0  0  0  0
   64.5240   30.9890   51.6090 C   0  0  0  0  0  0  0  0  0  0  0  0
   63.5149   31.4082   51.7352 H   0  0  0  0  0  0  0  0  0  0  0  0
   64.7390   29.6210   51.8050 C   0  0  0  0  0  0  0  0  0  0  0  0
   63.9000   28.9688   52.0889 H   0  0  0  0  0  0  0  0  0  0  0  0
   66.0170   29.0810   51.6410 C   0  0  0  0  0  0  0  0  0  0  0  0
   66.2240   27.7550   51.8370 F   0  0  0  0  0  0  0  0  0  0  0  0
  1  2  1  0
  2  3  2  0
  3  4  1  0
  3  5  1  0
  5  6  1  0
  6  7  1  0
  6  8  1  0
  6  9  1  0
  9 10  1  0
 10 11  2  0
 11 12  1  0
 11 13  1  0
 13 14  1  0
 13 15  2  0
 15 16  1  0
 16 17  1  0
 17 18  1  0
 17 19  2  0
 19 20  1  0
 20 21  1  0
 20 22  1  0
 20 23  1  0
 23 24  2  0
 23 25  1  0
 25 26  2  0
 26 27  1  0
 27 28  1  0
 27 29  2  0
 29 30  1  0
 29 31  1  0
 31 32  1  0
 32 33  2  0
 32 34  1  0
 31 35  2  0
 35 36  1  0
 35 37  1  0
 37 38  1  0
 19 39  1  0
 39 40  1  0
 39 41  2  0
 41 42  1  0
 42 43  2  0
 42 44  1  0
 44 45  1  0
 45 46  1  0
 45 47  1  0
 45 48  1  0
 48 49  1  0
 48 50  1  0
 48 51  1  0
 51 52  1  0
 52 53  1  0
 52 54  1  0
 52 55  1  0
 55 56  1  0
 55 57  1  0
 15 58  1  0
 58 59  1  0
 58 60  2  0
 60 61  1  0
  5 62  2  0
 62 63  1  0
 62 64  1  0
 64 65  1  0
 64 66  2  0
 66 67  1  0
 66  2  1  0
 60 10  1  0
 41 16  1  0
 55 44  1  0
 37 26  1  0
M  CHG  1  34  -1
M  END
>  <UniqueID>  (76) 
72

>  <SMILES>  (76) 
O=C(Cc1cc(C(=O)N2CCOCC2)n(-c2ccc(OCc3ccc(F)cc3)cc2)c1)/N=c1\ccc(C(=O)[O-])c[nH]1

>  <Energy>  (76) 
122.34076591179586

>  <Genealogy>  (76) 
O=C(Cc1cc(C(=O)N2CCOCC2)n(-c2ccc(OCc3ccc(F)cc3)cc2)c1)N=c1ccc(C(=O)[O-])c[nH]1 (protonated)
O=C(Cc1cc(C(=O)N2CCOCC2)n(-c2ccc(OCc3ccc(F)cc3)cc2)c1)/N=c1\ccc(C(=O)[O-])c[nH]1 (cis-trans isomerization)
O=C(Cc1cc(C(=O)N2CCOCC2)n(-c2ccc(OCc3ccc(F)cc3)cc2)c1)/N=c1\ccc(C(=O)[O-])c[nH]1 (3D coordinates assigned)
O=C(Cc1cc(C(=O)N2CCOCC2)n(-c2ccc(OCc3ccc(F)cc3)cc2)c1)/N=c1\ccc(C(=O)[O-])c[nH]1 (nonaromatic ring conformer: 122.34076591179586 kcal/mol)

>  <smiles>  (76) 
O=C(Cc1cc(C(=O)N2CCOCC2)n(-c2ccc(OCc3ccc(F)cc3)cc2)c1)N=c1ccc(C(=O)O)c[nH]1

>  <score_type>  (76) 
oracle

>  <origin>  (76) 
adg

>  <m_score__min__energy>  (76) 
-13.039999999999999

>  <m_primary>  (76) 
energy

$$$$
76:0
     RDKit          3D

 67 71  0  0  0  0  0  0  0  0999 V2000
   56.6440   22.8950   47.3650 C   0  0  0  0  0  0  0  0  0  0  0  0
   56.6280   22.9420   45.8580 C   0  0  0  0  0  0  0  0  0  0  0  0
   57.5940   22.2010   45.1540 C   0  0  0  0  0  0  0  0  0  0  0  0
   57.6090   22.1970   43.7580 C   0  0  0  0  0  0  0  0  0  0  0  0
   56.6640   22.9370   43.0460 C   0  0  0  0  0  0  0  0  0  0  0  0
   55.7100   23.6950   43.7270 C   0  0  0  0  0  0  0  0  0  0  0  0
   55.6940   23.7280   45.1320 C   0  0  0  0  0  0  0  0  0  0  0  0
   54.6910   24.5910   45.8020 C   0  0  0  0  0  0  0  0  0  0  0  0
   53.6360   24.0640   46.2450 O   0  0  0  0  0  0  0  0  0  0  0  0
   54.8870   26.0030   45.9850 N   0  0  0  0  0  0  0  0  0  0  0  0
   56.0260   26.6290   45.9470 C   0  0  0  0  0  0  0  0  0  0  0  0
   56.2140   27.8300   45.3510 N   0  0  0  0  0  0  0  0  0  0  0  0
   57.5120   28.2220   45.4200 C   0  0  0  0  0  0  0  0  0  0  0  0
   58.3480   27.3270   46.0740 C   0  0  0  0  0  0  0  0  0  0  0  0
   60.1310   27.4480   46.1490 S   0  0  0  0  0  0  0  0  0  0  0  0
   60.0710   27.7330   47.9190 C   0  0  0  0  0  0  0  0  0  0  0  0
   60.7660   26.8830   48.7840 C   0  0  0  0  0  0  0  0  0  0  0  0
   60.8280   27.1750   50.1470 C   0  0  0  0  0  0  0  0  0  0  0  0
   60.2110   28.3240   50.6490 C   0  0  0  0  0  0  0  0  0  0  0  0
   59.4940   29.1810   49.7940 C   0  0  0  0  0  0  0  0  0  0  0  0
   58.8960   30.4410   50.3050 C   0  0  0  0  0  0  0  0  0  0  0  0
   57.7730   30.4130   50.8800 O   0  0  0  0  0  0  0  0  0  0  0  0
   59.5500   31.7050   50.1210 N   0  0  0  0  0  0  0  0  0  0  0  0
   58.8540   32.7570   49.3780 C   0  0  0  0  0  0  0  0  0  0  0  0
   59.6090   34.0960   49.4450 C   0  0  0  0  0  0  0  0  0  0  0  0
   61.0730   33.9510   49.2700 N   0  0  0  0  0  0  0  0  0  0  0  0
   61.5660   34.1750   47.8940 C   0  0  0  0  0  0  0  0  0  0  0  0
   61.3780   32.9570   46.9710 C   0  0  0  0  0  0  0  0  0  0  0  0
   60.0010   32.9510   46.3650 C   0  0  0  0  0  0  0  0  0  0  0  0
   59.2830   31.7490   46.2460 C   0  0  0  0  0  0  0  0  0  0  0  0
   57.9920   31.7520   45.7070 C   0  0  0  0  0  0  0  0  0  0  0  0
   57.4080   32.9510   45.2910 C   0  0  0  0  0  0  0  0  0  0  0  0
   58.1120   34.1530   45.4180 C   0  0  0  0  0  0  0  0  0  0  0  0
   59.4020   34.1560   45.9580 C   0  0  0  0  0  0  0  0  0  0  0  0
   61.7270   32.8120   49.9640 C   0  0  0  0  0  0  0  0  0  0  0  0
   60.7720   32.0160   50.8580 C   0  0  0  0  0  0  0  0  0  0  0  0
   59.4200   28.8650   48.4250 C   0  0  0  0  0  0  0  0  0  0  0  0
   57.4430   26.0110   46.6030 S   0  0  0  0  0  0  0  0  0  0  0  0
   56.3138   23.8648   47.7656 H   0  0  0  0  0  0  0  0  0  0  0  0
   55.9647   22.1035   47.7144 H   0  0  0  0  0  0  0  0  0  0  0  0
   57.6652   22.6825   47.7144 H   0  0  0  0  0  0  0  0  0  0  0  0
   58.3449   21.6191   45.7086 H   0  0  0  0  0  0  0  0  0  0  0  0
   58.3667   21.6098   43.2185 H   0  0  0  0  0  0  0  0  0  0  0  0
   56.6709   22.9229   41.9461 H   0  0  0  0  0  0  0  0  0  0  0  0
   54.9646   24.2713   43.1593 H   0  0  0  0  0  0  0  0  0  0  0  0
   57.8715   29.1700   44.9932 H   0  0  0  0  0  0  0  0  0  0  0  0
   61.2637   25.9845   48.3905 H   0  0  0  0  0  0  0  0  0  0  0  0
   61.3643   26.4985   50.8287 H   0  0  0  0  0  0  0  0  0  0  0  0
   60.2865   28.5602   51.7207 H   0  0  0  0  0  0  0  0  0  0  0  0
   58.7646   32.4505   48.3254 H   0  0  0  0  0  0  0  0  0  0  0  0
   57.8626   32.8993   49.8327 H   0  0  0  0  0  0  0  0  0  0  0  0
   59.2256   34.7535   48.6508 H   0  0  0  0  0  0  0  0  0  0  0  0
   59.4401   34.5162   50.4474 H   0  0  0  0  0  0  0  0  0  0  0  0
   61.0202   35.0270   47.4625 H   0  0  0  0  0  0  0  0  0  0  0  0
   62.6471   34.3658   47.9635 H   0  0  0  0  0  0  0  0  0  0  0  0
   62.1260   32.9966   46.1654 H   0  0  0  0  0  0  0  0  0  0  0  0
   61.5040   32.0412   47.5671 H   0  0  0  0  0  0  0  0  0  0  0  0
   59.7371   30.8035   46.5774 H   0  0  0  0  0  0  0  0  0  0  0  0
   57.4355   30.8081   45.6105 H   0  0  0  0  0  0  0  0  0  0  0  0
   56.3945   32.9498   44.8635 H   0  0  0  0  0  0  0  0  0  0  0  0
   57.6504   35.0970   45.0927 H   0  0  0  0  0  0  0  0  0  0  0  0
   59.9496   35.1040   46.0646 H   0  0  0  0  0  0  0  0  0  0  0  0
   62.1418   32.1326   49.2048 H   0  0  0  0  0  0  0  0  0  0  0  0
   62.5070   33.2330   50.6154 H   0  0  0  0  0  0  0  0  0  0  0  0
   61.2585   31.0802   51.1704 H   0  0  0  0  0  0  0  0  0  0  0  0
   60.5192   32.6156   51.7449 H   0  0  0  0  0  0  0  0  0  0  0  0
   58.8458   29.5127   47.7462 H   0  0  0  0  0  0  0  0  0  0  0  0
  1  2  1  0
  2  3  2  0
  3  4  1  0
  4  5  2  0
  5  6  1  0
  6  7  2  0
  7  8  1  0
  8  9  2  0
  8 10  1  0
 10 11  2  3
 11 12  1  0
 12 13  1  0
 13 14  2  0
 14 15  1  0
 15 16  1  0
 16 17  2  0
 17 18  1  0
 18 19  2  0
 19 20  1  0
 20 21  1  0
 21 22  2  0
 21 23  1  0
 23 24  1  0
 24 25  1  0
 25 26  1  0
 26 27  1  0
 27 28  1  0
 28 29  1  0
 29 30  2  0
 30 31  1  0
 31 32  2  0
 32 33  1  0
 33 34  2  0
 26 35  1  0
 35 36  1  0
 20 37  2  0
 14 38  1  0
  7  2  1  0
 38 11  1  0
 37 16  1  0
 36 23  1  0
 34 29  1  0
  1 39  1  0
  1 40  1  0
  1 41  1  0
  3 42  1  0
  4 43  1  0
  5 44  1  0
  6 45  1  0
 13 46  1  0
 17 47  1  0
 18 48  1  0
 19 49  1  0
 24 50  1  0
 24 51  1  0
 25 52  1  0
 25 53  1  0
 27 54  1  0
 27 55  1  0
 28 56  1  0
 28 57  1  0
 30 58  1  0
 31 59  1  0
 32 60  1  0
 33 61  1  0
 34 62  1  0
 35 63  1  0
 35 64  1  0
 36 65  1  0
 36 66  1  0
 37 67  1  0
M  CHG  1  12  -1
M  END
>  <UniqueID>  (77) 
73

>  <SMILES>  (77) 
Cc1ccccc1C(=O)N=c1[n-]cc(Sc2cccc(C(=O)N3CCN(CCc4ccccc4)CC3)c2)s1

>  <Energy>  (77) 
121.20591414173276

>  <Genealogy>  (77) 
Cc1ccccc1C(=O)N=c1[n-]cc(Sc2cccc(C(=O)N3CCN(CCc4ccccc4)CC3)c2)s1 (protonated)
Cc1ccccc1C(=O)N=c1[n-]cc(Sc2cccc(C(=O)N3CCN(CCc4ccccc4)CC3)c2)s1 (3D coordinates assigned)
Cc1ccccc1C(=O)N=c1[n-]cc(Sc2cccc(C(=O)N3CCN(CCc4ccccc4)CC3)c2)s1 (nonaromatic ring conformer: 121.20591414173276 kcal/mol)

>  <smiles>  (77) 
Cc1ccccc1C(=O)N=c1[nH]cc(Sc2cccc(C(=O)N3CCN(CCc4ccccc4)CC3)c2)s1

>  <score_type>  (77) 
oracle

>  <origin>  (77) 
adg

>  <m_score__min__energy>  (77) 
-12.710000000000001

>  <m_primary>  (77) 
energy

$$$$
77:0
     RDKit          3D

 51 53  0  0  0  0  0  0  0  0999 V2000
   60.9437   27.4332   45.7562 H   0  0  0  0  0  0  0  0  0  0  0  0
   59.9210   27.8320   45.8280 C   0  0  0  0  0  0  0  0  0  0  0  0
   58.6880   27.5970   44.7090 S   0  0  0  0  0  0  0  0  0  0  0  0
   57.5800   28.4970   45.5920 C   0  0  0  0  0  0  0  0  0  0  0  0
   56.3560   28.7050   45.2060 N   0  0  0  0  0  0  0  0  0  0  0  0
   55.9200   29.6950   44.2600 C   0  0  0  0  0  0  0  0  0  0  0  0
   54.7890   29.5970   43.7070 O   0  0  0  0  0  0  0  0  0  0  0  0
   56.8020   30.8410   43.9320 C   0  0  0  0  0  0  0  0  0  0  0  0
   57.0560   31.1860   42.5910 C   0  0  0  0  0  0  0  0  0  0  0  0
   56.5998   30.5991   41.7802 H   0  0  0  0  0  0  0  0  0  0  0  0
   57.8830   32.2680   42.2830 C   0  0  0  0  0  0  0  0  0  0  0  0
   58.0766   32.5280   41.2318 H   0  0  0  0  0  0  0  0  0  0  0  0
   58.4650   33.0210   43.3040 C   0  0  0  0  0  0  0  0  0  0  0  0
   59.1187   33.8702   43.0558 H   0  0  0  0  0  0  0  0  0  0  0  0
   58.2180   32.6970   44.6440 C   0  0  0  0  0  0  0  0  0  0  0  0
   58.9640   33.6320   45.9370 S   0  0  0  0  0  0  0  0  0  0  0  0
   60.3110   34.1310   45.4950 O   0  0  0  0  0  0  0  0  0  0  0  0
   58.0980   34.8130   46.2700 O   0  0  0  0  0  0  0  0  0  0  0  0
   59.1500   32.6370   47.3380 N   0  0  0  0  0  0  0  0  0  0  0  0
   58.9530   31.6550   47.0430 H   0  0  0  0  0  0  0  0  0  0  0  0
   60.1590   32.6730   47.6040 H   0  0  0  0  0  0  0  0  0  0  0  0
   57.3960   31.6050   44.9540 C   0  0  0  0  0  0  0  0  0  0  0  0
   57.2133   31.3424   46.0065 H   0  0  0  0  0  0  0  0  0  0  0  0
   58.1150   28.9850   46.7320 N   0  0  0  0  0  0  0  0  0  0  0  0
   59.4200   28.6210   46.8630 C   0  0  0  0  0  0  0  0  0  0  0  0
   60.2470   29.0620   48.0320 C   0  0  0  0  0  0  0  0  0  0  0  0
   61.1026   28.3801   48.1461 H   0  0  0  0  0  0  0  0  0  0  0  0
   59.6191   29.0432   48.9350 H   0  0  0  0  0  0  0  0  0  0  0  0
   60.7570   30.4640   47.8280 C   0  0  0  0  0  0  0  0  0  0  0  0
   60.9230   30.8910   46.6550 O   0  0  0  0  0  0  0  0  0  0  0  0
   61.0840   31.3230   48.9290 N   0  0  0  0  0  0  0  0  0  0  0  0
   62.4220   31.6890   49.2900 C   0  0  0  0  0  0  0  0  0  0  0  0
   63.1130   30.9280   50.2570 C   0  0  0  0  0  0  0  0  0  0  0  0
   62.4780   29.7120   50.8750 C   0  0  0  0  0  0  0  0  0  0  0  0
   62.5204   29.7933   51.9712 H   0  0  0  0  0  0  0  0  0  0  0  0
   61.4285   29.6426   50.5528 H   0  0  0  0  0  0  0  0  0  0  0  0
   63.0208   28.8111   50.5528 H   0  0  0  0  0  0  0  0  0  0  0  0
   64.4170   31.2940   50.6250 C   0  0  0  0  0  0  0  0  0  0  0  0
   64.9553   30.7091   51.3854 H   0  0  0  0  0  0  0  0  0  0  0  0
   65.0340   32.3950   50.0320 C   0  0  0  0  0  0  0  0  0  0  0  0
   66.0504   32.6840   50.3375 H   0  0  0  0  0  0  0  0  0  0  0  0
   64.3670   33.1310   49.0530 C   0  0  0  0  0  0  0  0  0  0  0  0
   64.8688   33.9863   48.5770 H   0  0  0  0  0  0  0  0  0  0  0  0
   63.0600   32.7890   48.6700 C   0  0  0  0  0  0  0  0  0  0  0  0
   62.4120   33.5450   47.5330 C   0  0  0  0  0  0  0  0  0  0  0  0
   62.1108   34.5420   47.8869 H   0  0  0  0  0  0  0  0  0  0  0  0
   61.5320   32.9821   47.1884 H   0  0  0  0  0  0  0  0  0  0  0  0
   63.3850   33.6990   46.3680 C   0  0  0  0  0  0  0  0  0  0  0  0
   64.4010   33.8598   46.7577 H   0  0  0  0  0  0  0  0  0  0  0  0
   63.3682   32.7870   45.7532 H   0  0  0  0  0  0  0  0  0  0  0  0
   63.0873   34.5612   45.7532 H   0  0  0  0  0  0  0  0  0  0  0  0
  1  2  1  0
  2  3  1  0
  3  4  1  0
  4  5  2  0
  5  6  1  0
  6  7  2  0
  6  8  1  0
  8  9  2  0
  9 10  1  0
  9 11  1  0
 11 12  1  0
 11 13  2  0
 13 14  1  0
 13 15  1  0
 15 16  1  0
 16 17  2  0
 16 18  2  0
 16 19  1  0
 19 20  1  0
 19 21  1  0
 15 22  2  0
 22 23  1  0
  4 24  1  0
 24 25  1  0
 25 26  1  0
 26 27  1  0
 26 28  1  0
 26 29  1  0
 29 30  2  0
 29 31  1  0
 31 32  1  0
 32 33  2  0
 33 34  1  0
 34 35  1  0
 34 36  1  0
 34 37  1  0
 33 38  1  0
 38 39  1  0
 38 40  2  0
 40 41  1  0
 40 42  1  0
 42 43  1  0
 42 44  2  0
 44 45  1  0
 45 46  1  0
 45 47  1  0
 45 48  1  0
 48 49  1  0
 48 50  1  0
 48 51  1  0
 25  2  2  0
 44 32  1  0
 22  8  1  0
M  CHG  2  24  -1  31  -1
M  END
>  <UniqueID>  (78) 
74

>  <SMILES>  (78) 
CCc1cccc(C)c1[N-]C(=O)Cc1cs/c(=N/C(=O)c2cccc(S(N)(=O)=O)c2)[n-]1

>  <Energy>  (78) 
84.34604144351678

>  <Genealogy>  (78) 
CCc1cccc(C)c1[N-]C(=O)Cc1csc(=NC(=O)c2cccc(S(N)(=O)=O)c2)[n-]1 (protonated)
CCc1cccc(C)c1[N-]C(=O)Cc1cs/c(=N/C(=O)c2cccc(S(N)(=O)=O)c2)[n-]1 (cis-trans isomerization)
CCc1cccc(C)c1[N-]C(=O)Cc1cs/c(=N/C(=O)c2cccc(S(N)(=O)=O)c2)[n-]1 (3D coordinates assigned)
CCc1cccc(C)c1[N-]C(=O)Cc1cs/c(=N/C(=O)c2cccc(S(N)(=O)=O)c2)[n-]1 (optimized conformer: 84.34604144351678 kcal/mol)

>  <smiles>  (78) 
CCc1cccc(C)c1NC(=O)Cc1csc(=NC(=O)c2cccc(S(N)(=O)=O)c2)[nH]1

>  <score_type>  (78) 
oracle

>  <origin>  (78) 
adg

>  <m_score__min__energy>  (78) 
-12.43

>  <m_primary>  (78) 
energy

$$$$
78:0
     RDKit          3D

 53 55  0  0  0  0  0  0  0  0999 V2000
   56.2650   29.6600   43.6850 C   0  0  0  0  0  0  0  0  0  0  0  0
   57.1790   30.4640   44.5680 C   0  0  0  0  0  0  0  0  0  0  0  0
   57.5460   31.7660   44.1930 C   0  0  0  0  0  0  0  0  0  0  0  0
   58.4250   32.5090   44.9840 C   0  0  0  0  0  0  0  0  0  0  0  0
   58.8740   34.1370   44.5060 Cl  0  0  0  0  0  0  0  0  0  0  0  0
   58.9420   31.9620   46.1610 C   0  0  0  0  0  0  0  0  0  0  0  0
   58.5920   30.6620   46.5510 C   0  0  0  0  0  0  0  0  0  0  0  0
   59.0960   30.1260   47.8340 C   0  0  0  0  0  0  0  0  0  0  0  0
   59.7420   29.0450   47.8230 O   0  0  0  0  0  0  0  0  0  0  0  0
   58.8540   30.7980   49.0850 N   0  0  0  0  0  0  0  0  0  0  0  0
   58.5340   32.2310   49.1400 C   0  0  0  0  0  0  0  0  0  0  0  0
   59.2740   32.8760   50.3200 C   0  0  0  0  0  0  0  0  0  0  0  0
   59.0140   32.2010   51.6260 N   0  0  0  0  0  0  0  0  0  0  0  0
   58.1720   33.0440   52.4960 C   0  0  0  0  0  0  0  0  0  0  0  0
   58.4150   30.8480   51.5100 C   0  0  0  0  0  0  0  0  0  0  0  0
   59.0140   30.0570   50.3420 C   0  0  0  0  0  0  0  0  0  0  0  0
   57.7190   29.9020   45.7440 C   0  0  0  0  0  0  0  0  0  0  0  0
   57.4140   28.5450   46.0940 N   0  0  0  0  0  0  0  0  0  0  0  0
   58.3740   27.4950   45.9040 C   0  0  0  0  0  0  0  0  0  0  0  0
   59.4730   27.7450   45.3410 O   0  0  0  0  0  0  0  0  0  0  0  0
   58.1100   26.1550   46.3320 N   0  0  0  0  0  0  0  0  0  0  0  0
   56.5610   25.3880   46.2510 S   0  0  0  0  0  0  0  0  0  0  0  0
   55.5200   26.4140   45.9000 O   0  0  0  0  0  0  0  0  0  0  0  0
   56.2230   24.7990   47.5910 O   0  0  0  0  0  0  0  0  0  0  0  0
   56.5820   24.1540   44.9980 C   0  0  0  0  0  0  0  0  0  0  0  0
   55.5590   24.0830   44.0400 C   0  0  0  0  0  0  0  0  0  0  0  0
   55.5910   23.0950   43.0510 C   0  0  0  0  0  0  0  0  0  0  0  0
   56.6450   22.1770   43.0130 C   0  0  0  0  0  0  0  0  0  0  0  0
   57.6640   22.2420   43.9660 C   0  0  0  0  0  0  0  0  0  0  0  0
   57.6330   23.2280   44.9570 C   0  0  0  0  0  0  0  0  0  0  0  0
   55.5849   29.0618   44.3092 H   0  0  0  0  0  0  0  0  0  0  0  0
   55.6775   30.3394   43.0500 H   0  0  0  0  0  0  0  0  0  0  0  0
   56.8640   28.9907   43.0500 H   0  0  0  0  0  0  0  0  0  0  0  0
   57.1385   32.2040   43.2699 H   0  0  0  0  0  0  0  0  0  0  0  0
   59.6273   32.5546   46.7849 H   0  0  0  0  0  0  0  0  0  0  0  0
   58.8483   32.7131   48.2025 H   0  0  0  0  0  0  0  0  0  0  0  0
   57.4497   32.3595   49.2730 H   0  0  0  0  0  0  0  0  0  0  0  0
   60.3544   32.8370   50.1168 H   0  0  0  0  0  0  0  0  0  0  0  0
   58.9035   33.9079   50.4094 H   0  0  0  0  0  0  0  0  0  0  0  0
   59.9350   32.0910   52.1150 H   0  0  0  0  0  0  0  0  0  0  0  0
   58.3949   32.8208   53.5498 H   0  0  0  0  0  0  0  0  0  0  0  0
   58.3821   34.1046   52.2934 H   0  0  0  0  0  0  0  0  0  0  0  0
   57.1112   32.8352   52.2934 H   0  0  0  0  0  0  0  0  0  0  0  0
   58.5980   30.2966   52.4441 H   0  0  0  0  0  0  0  0  0  0  0  0
   57.3372   30.9667   51.3247 H   0  0  0  0  0  0  0  0  0  0  0  0
   60.0848   29.8890   50.5297 H   0  0  0  0  0  0  0  0  0  0  0  0
   58.4888   29.0942   50.2573 H   0  0  0  0  0  0  0  0  0  0  0  0
   56.4420   28.3290   46.4050 H   0  0  0  0  0  0  0  0  0  0  0  0
   54.7304   24.8059   44.0671 H   0  0  0  0  0  0  0  0  0  0  0  0
   54.7867   23.0400   42.3026 H   0  0  0  0  0  0  0  0  0  0  0  0
   56.6717   21.4030   42.2319 H   0  0  0  0  0  0  0  0  0  0  0  0
   58.4911   21.5174   43.9370 H   0  0  0  0  0  0  0  0  0  0  0  0
   58.4363   23.2769   45.7069 H   0  0  0  0  0  0  0  0  0  0  0  0
  1  2  1  0
  2  3  2  0
  3  4  1  0
  4  5  1  0
  4  6  2  0
  6  7  1  0
  7  8  1  0
  8  9  2  0
  8 10  1  0
 10 11  1  0
 11 12  1  0
 12 13  1  0
 13 14  1  0
 13 15  1  0
 15 16  1  0
  7 17  2  0
 17 18  1  0
 18 19  1  0
 19 20  2  0
 19 21  1  0
 21 22  1  0
 22 23  2  0
 22 24  2  0
 22 25  1  0
 25 26  2  0
 26 27  1  0
 27 28  2  0
 28 29  1  0
 29 30  2  0
 17  2  1  0
 30 25  1  0
 16 10  1  0
  1 31  1  0
  1 32  1  0
  1 33  1  0
  3 34  1  0
  6 35  1  0
 11 36  1  0
 11 37  1  0
 12 38  1  0
 12 39  1  0
 13 40  1  0
 14 41  1  0
 14 42  1  0
 14 43  1  0
 15 44  1  0
 15 45  1  0
 16 46  1  0
 16 47  1  0
 18 48  1  0
 26 49  1  0
 27 50  1  0
 28 51  1  0
 29 52  1  0
 30 53  1  0
M  CHG  2  13   1  21  -1
M  END
>  <UniqueID>  (79) 
75

>  <SMILES>  (79) 
Cc1cc(Cl)cc(C(=O)N2CC[NH+](C)CC2)c1NC(=O)[N-]S(=O)(=O)c1ccccc1

>  <Energy>  (79) 
71.77223038266611

>  <Genealogy>  (79) 
Cc1cc(Cl)cc(C(=O)N2CC[NH+](C)CC2)c1NC(=O)[N-]S(=O)(=O)c1ccccc1 (protonated)
Cc1cc(Cl)cc(C(=O)N2CC[NH+](C)CC2)c1NC(=O)[N-]S(=O)(=O)c1ccccc1 (3D coordinates assigned)
Cc1cc(Cl)cc(C(=O)N2CC[NH+](C)CC2)c1NC(=O)[N-]S(=O)(=O)c1ccccc1 (nonaromatic ring conformer: 71.77223038266611 kcal/mol)

>  <smiles>  (79) 
Cc1cc(Cl)cc(C(=O)N2CCN(C)CC2)c1NC(=O)NS(=O)(=O)c1ccccc1

>  <score_type>  (79) 
oracle

>  <origin>  (79) 
adg

>  <m_score__min__energy>  (79) 
-9.7799999999999994

>  <m_primary>  (79) 
energy

$$$$
79:0
     RDKit          3D

 41 43  0  0  0  0  0  0  0  0999 V2000
   58.5490   29.4780   46.5830 C   0  0  0  0  0  0  0  0  0  0  0  0
   58.4000   28.7080   45.4960 C   0  0  0  0  0  0  0  0  0  0  0  0
   58.1490   27.3250   45.4650 C   0  0  0  0  0  0  0  0  0  0  0  0
   58.1330   26.4000   46.4470 C   0  0  0  0  0  0  0  0  0  0  0  0
   57.0780   25.3990   46.6670 C   0  0  0  0  0  0  0  0  0  0  0  0
   57.2990   24.1150   47.0030 N   0  0  0  0  0  0  0  0  0  0  0  0
   56.0720   23.5530   46.9290 C   0  0  0  0  0  0  0  0  0  0  0  0
   55.8010   21.9760   47.2550 S   0  0  0  0  0  0  0  0  0  0  0  0
   55.0930   24.3960   46.5380 N   0  0  0  0  0  0  0  0  0  0  0  0
   55.7480   25.5560   46.3670 C   0  0  0  0  0  0  0  0  0  0  0  0
   55.1440   26.7320   45.9370 O   0  0  0  0  0  0  0  0  0  0  0  0
   57.8990   27.0540   44.1240 C   0  0  0  0  0  0  0  0  0  0  0  0
   57.5550   25.7270   43.5210 C   0  0  0  0  0  0  0  0  0  0  0  0
   58.0430   28.1810   43.4080 N   0  0  0  0  0  0  0  0  0  0  0  0
   58.3460   29.1800   44.2200 N   0  0  0  0  0  0  0  0  0  0  0  0
   58.4190   30.5680   43.7460 C   0  0  0  0  0  0  0  0  0  0  0  0
   57.5610   31.4450   44.6130 C   0  0  0  0  0  0  0  0  0  0  0  0
   56.3740   31.1000   44.8500 O   0  0  0  0  0  0  0  0  0  0  0  0
   58.1020   32.5970   45.2740 N   0  0  0  0  0  0  0  0  0  0  0  0
   58.8880   33.5860   44.5360 C   0  0  0  0  0  0  0  0  0  0  0  0
   58.7910   34.9510   45.2290 C   0  0  0  0  0  0  0  0  0  0  0  0
   59.1030   34.8370   46.6070 O   0  0  0  0  0  0  0  0  0  0  0  0
   58.1250   34.0440   47.2540 C   0  0  0  0  0  0  0  0  0  0  0  0
   58.1700   32.6020   46.7370 C   0  0  0  0  0  0  0  0  0  0  0  0
   58.7433   30.5550   46.4717 H   0  0  0  0  0  0  0  0  0  0  0  0
   58.4770   29.0329   47.5864 H   0  0  0  0  0  0  0  0  0  0  0  0
   58.9837   26.3939   47.1444 H   0  0  0  0  0  0  0  0  0  0  0  0
   57.3660   24.9979   44.3227 H   0  0  0  0  0  0  0  0  0  0  0  0
   56.6538   25.8296   42.8987 H   0  0  0  0  0  0  0  0  0  0  0  0
   58.3926   25.3788   42.8987 H   0  0  0  0  0  0  0  0  0  0  0  0
   57.9060   28.2750   42.3770 H   0  0  0  0  0  0  0  0  0  0  0  0
   59.4615   30.9158   43.7923 H   0  0  0  0  0  0  0  0  0  0  0  0
   58.0587   30.6178   42.7079 H   0  0  0  0  0  0  0  0  0  0  0  0
   59.9401   33.2665   44.5049 H   0  0  0  0  0  0  0  0  0  0  0  0
   58.4952   33.6705   43.5120 H   0  0  0  0  0  0  0  0  0  0  0  0
   59.4983   35.6475   44.7551 H   0  0  0  0  0  0  0  0  0  0  0  0
   57.7616   35.3256   45.1295 H   0  0  0  0  0  0  0  0  0  0  0  0
   58.3172   34.0457   48.3371 H   0  0  0  0  0  0  0  0  0  0  0  0
   57.1310   34.4652   47.0427 H   0  0  0  0  0  0  0  0  0  0  0  0
   59.1080   32.1272   47.0606 H   0  0  0  0  0  0  0  0  0  0  0  0
   57.3130   32.0440   47.1423 H   0  0  0  0  0  0  0  0  0  0  0  0
  1  2  2  0
  2  3  1  0
  3  4  2  3
  4  5  1  0
  5  6  1  0
  6  7  1  0
  7  8  2  0
  7  9  1  0
  9 10  1  0
 10 11  1  0
  3 12  1  0
 12 13  1  0
 12 14  2  0
 14 15  1  0
 15 16  1  0
 16 17  1  0
 17 18  2  0
 17 19  1  0
 19 20  1  0
 20 21  1  0
 21 22  1  0
 22 23  1  0
 23 24  1  0
 15  2  1  0
 24 19  1  0
 10  5  2  0
  1 25  1  0
  1 26  1  0
  4 27  1  0
 13 28  1  0
 13 29  1  0
 13 30  1  0
 14 31  1  0
 16 32  1  0
 16 33  1  0
 20 34  1  0
 20 35  1  0
 21 36  1  0
 21 37  1  0
 23 38  1  0
 23 39  1  0
 24 40  1  0
 24 41  1  0
M  CHG  4   6  -1   9  -1  11  -1  14   1
M  END
>  <UniqueID>  (80) 
76

>  <SMILES>  (80) 
C=c1c(=Cc2[n-]c(=S)[n-]c2[O-])c(C)[nH+]n1CC(=O)N1CCOCC1

>  <Energy>  (80) 
118.00700052425903

>  <Genealogy>  (80) 
C=c1c(=Cc2[n-]c(=S)[n-]c2[O-])c(C)[nH+]n1CC(=O)N1CCOCC1 (protonated)
C=c1c(=Cc2[n-]c(=S)[n-]c2[O-])c(C)[nH+]n1CC(=O)N1CCOCC1 (3D coordinates assigned)
C=c1c(=Cc2[n-]c(=S)[n-]c2[O-])c(C)[nH+]n1CC(=O)N1CCOCC1 (nonaromatic ring conformer: 118.00700052425903 kcal/mol)

>  <smiles>  (80) 
C=c1c(=Cc2[nH]c(=S)[nH]c2O)c(C)nn1CC(=O)N1CCOCC1

>  <score_type>  (80) 
oracle

>  <origin>  (80) 
adg

>  <m_score__min__energy>  (80) 
-13.48

>  <m_primary>  (80) 
energy

$$$$
80:0
     RDKit          3D

 75 79  0  0  1  0  0  0  0  0999 V2000
   55.2180   25.5790   46.3500 O   0  0  0  0  0  0  0  0  0  0  0  0
   55.4680   24.7760   45.4430 C   0  0  0  0  0  0  0  0  0  0  0  0
   54.3170   24.0120   44.8680 C   0  0  0  0  0  0  0  0  0  0  0  0
   54.7890   23.4010   43.5650 C   0  0  0  0  0  0  0  0  0  0  0  0
   55.5930   22.2630   43.6840 N   0  0  0  0  0  0  0  0  0  0  0  0
   55.6290   21.5210   44.8730 C   0  0  0  0  0  0  0  0  0  0  0  0
   56.9390   21.8360   45.6050 C   0  0  0  0  0  0  0  0  0  0  0  0
   57.9790   22.0670   44.7300 O   0  0  0  0  0  0  0  0  0  0  0  0
   57.8140   21.4250   43.5230 C   0  0  0  0  0  0  0  0  0  0  0  0
   56.6430   22.0550   42.7700 C   0  0  0  0  0  0  0  0  0  0  0  0
   56.7800   24.5720   44.9550 N   0  0  0  0  0  0  0  0  0  0  0  0
   57.9470   25.2200   45.3970 C   0  0  0  0  0  0  0  0  0  0  0  0
   59.1430   24.6200   45.6880 C   0  0  0  0  0  0  0  0  0  0  0  0
   60.2490   25.3400   46.1060 C   0  0  0  0  0  0  0  0  0  0  0  0
   60.1970   26.7070   46.2480 C   0  0  0  0  0  0  0  0  0  0  0  0
   58.9830   27.3320   45.9540 C   0  0  0  0  0  0  0  0  0  0  0  0
   58.9440   28.7400   46.1040 N   0  0  0  0  0  0  0  0  0  0  0  0
   58.5200   29.5570   45.0280 C   0  0  0  0  0  0  0  0  0  0  0  0
   58.1940   28.9830   43.9610 O   0  0  0  0  0  0  0  0  0  0  0  0
   58.4570   31.0180   45.1290 C   0  0  0  0  0  0  0  0  0  0  0  0
   57.7120   31.6530   44.1390 C   0  0  0  0  0  0  0  0  0  0  0  0
   57.6010   33.0350   44.1660 C   0  0  0  0  0  0  0  0  0  0  0  0
   58.2330   33.7360   45.1770 C   0  0  0  0  0  0  0  0  0  0  0  0
   58.9750   33.0650   46.1570 C   0  0  0  0  0  0  0  0  0  0  0  0
   59.5730   33.8930   47.1450 N   0  0  0  0  0  0  0  0  0  0  0  0
   59.6060   33.6190   48.5210 C   0  0  0  0  0  0  0  0  0  0  0  0
   59.0710   32.5610   48.9680 O   0  0  0  0  0  0  0  0  0  0  0  0
   60.2550   34.5700   49.3660 N   0  0  0  0  0  0  0  0  0  0  0  0
   61.2910   34.1610   50.0180 C   0  0  0  0  0  0  0  0  0  0  0  0
   62.5310   33.9770   49.4450 C   0  0  0  0  0  0  0  0  0  0  0  0
   63.5500   33.5170   50.2790 C   0  0  0  0  0  0  0  0  0  0  0  0
   64.8620   33.2850   49.7950 N   0  0  0  0  0  0  0  0  0  0  0  0
   65.8980   33.4750   50.5180 C   0  0  0  0  0  0  0  0  0  0  0  0
   67.1080   32.9390   50.1560 C   0  0  0  0  0  0  0  0  0  0  0  0
   68.2750   33.0900   50.8710 C   0  0  0  0  0  0  0  0  0  0  0  0
   68.1810   33.8510   52.0460 C   0  0  0  0  0  0  0  0  0  0  0  0
   66.9550   34.3760   52.3820 C   0  0  0  0  0  0  0  0  0  0  0  0
   65.8470   34.1980   51.6480 N   0  0  0  0  0  0  0  0  0  0  0  0
   63.2980   33.2740   51.5840 N   0  0  0  0  0  0  0  0  0  0  0  0
   62.0820   33.4590   52.1260 C   0  0  0  0  0  0  0  0  0  0  0  0
   61.0850   33.9020   51.3410 N   0  0  0  0  0  0  0  0  0  0  0  0
   59.0890   31.6980   46.1360 C   0  0  0  0  0  0  0  0  0  0  0  0
   57.8960   26.5980   45.5410 C   0  0  0  0  0  0  0  0  0  0  0  0
   56.7300   27.3180   45.2720 O   0  0  0  0  0  0  0  0  0  0  0  0
   54.0055   23.2196   45.5645 H   0  0  0  0  0  0  0  0  0  0  0  0
   53.4554   24.6744   44.6983 H   0  0  0  0  0  0  0  0  0  0  0  0
   53.8995   23.1264   42.9789 H   0  0  0  0  0  0  0  0  0  0  0  0
   55.4202   24.1649   43.0874 H   0  0  0  0  0  0  0  0  0  0  0  0
   54.7740   21.7963   45.5079 H   0  0  0  0  0  0  0  0  0  0  0  0
   55.5729   20.4458   44.6476 H   0  0  0  0  0  0  0  0  0  0  0  0
   56.7919   22.7321   46.2257 H   0  0  0  0  0  0  0  0  0  0  0  0
   57.2016   20.9630   46.2206 H   0  0  0  0  0  0  0  0  0  0  0  0
   58.7318   21.5257   42.9251 H   0  0  0  0  0  0  0  0  0  0  0  0
   57.6075   20.3589   43.6986 H   0  0  0  0  0  0  0  0  0  0  0  0
   56.9540   23.0163   42.3351 H   0  0  0  0  0  0  0  0  0  0  0  0
   56.3131   21.3915   41.9570 H   0  0  0  0  0  0  0  0  0  0  0  0
   56.8590   23.8530   44.1750 H   0  0  0  0  0  0  0  0  0  0  0  0
   59.2279   23.5280   45.5861 H   0  0  0  0  0  0  0  0  0  0  0  0
   61.1864   24.8092   46.3286 H   0  0  0  0  0  0  0  0  0  0  0  0
   61.0736   27.2832   46.5788 H   0  0  0  0  0  0  0  0  0  0  0  0
   59.2310   29.1560   47.0160 H   0  0  0  0  0  0  0  0  0  0  0  0
   57.2195   31.0680   43.3483 H   0  0  0  0  0  0  0  0  0  0  0  0
   57.0202   33.5647   43.3965 H   0  0  0  0  0  0  0  0  0  0  0  0
   58.1519   34.8325   45.2117 H   0  0  0  0  0  0  0  0  0  0  0  0
   60.0220   34.7820   46.7750 H   0  0  0  0  0  0  0  0  0  0  0  0
   62.7088   34.1834   48.3793 H   0  0  0  0  0  0  0  0  0  0  0  0
   67.1487   32.3472   49.2297 H   0  0  0  0  0  0  0  0  0  0  0  0
   69.2235   32.6412   50.5410 H   0  0  0  0  0  0  0  0  0  0  0  0
   69.0629   34.0229   52.6805 H   0  0  0  0  0  0  0  0  0  0  0  0
   66.8793   34.9740   53.3022 H   0  0  0  0  0  0  0  0  0  0  0  0
   64.9530   34.6270   51.9620 H   0  0  0  0  0  0  0  0  0  0  0  0
   61.9061   33.2518   53.1919 H   0  0  0  0  0  0  0  0  0  0  0  0
   60.1530   34.0330   51.7940 H   0  0  0  0  0  0  0  0  0  0  0  0
   59.6695   31.1651   46.9035 H   0  0  0  0  0  0  0  0  0  0  0  0
   56.5200   27.6760   44.3480 H   0  0  0  0  0  0  0  0  0  0  0  0
  1  2  2  0
  2  3  1  0
  3  4  1  0
  4  5  1  0
  5  6  1  0
  6  7  1  0
  7  8  1  0
  8  9  1  0
  9 10  1  0
  2 11  1  0
 11 12  1  0
 12 13  2  0
 13 14  1  0
 14 15  2  0
 15 16  1  0
 16 17  1  0
 17 18  1  0
 18 19  2  0
 18 20  1  0
 20 21  2  0
 21 22  1  0
 22 23  2  0
 23 24  1  0
 24 25  1  0
 25 26  1  0
 26 27  2  0
 26 28  1  0
 28 29  2  0
 29 30  1  0
 30 31  2  0
 31 32  1  0
 32 33  2  0
 33 34  1  0
 34 35  2  0
 35 36  1  0
 36 37  2  0
 37 38  1  0
 31 39  1  0
 39 40  2  0
 40 41  1  0
 24 42  2  0
 16 43  2  0
 43 44  1  0
 10  5  1  0
 43 12  1  0
 42 20  1  0
 41 29  1  0
 38 33  1  0
  3 45  1  0
  3 46  1  0
  4 47  1  0
  4 48  1  0
  6 49  1  0
  6 50  1  0
  7 51  1  0
  7 52  1  0
  9 53  1  0
  9 54  1  0
 10 55  1  0
 10 56  1  0
 11 57  1  0
 13 58  1  0
 14 59  1  0
 15 60  1  0
 17 61  1  0
 21 62  1  0
 22 63  1  0
 23 64  1  0
 25 65  1  0
 30 66  1  0
 34 67  1  0
 35 68  1  0
 36 69  1  0
 37 70  1  0
 38 71  1  0
 40 72  1  0
 41 73  1  0
 42 74  1  0
 44 75  1  0
M  END
>  <smiles>  (81) 
O=C(CCN1CCOCC1)Nc1cccc(NC(=O)c2cccc(NC(=O)N=c3cc(N=c4cccc[nH]4)nc[nH]3)c2)c1O

>  <score_type>  (81) 
oracle

>  <origin>  (81) 
adg

>  <m_score__min__energy>  (81) 
-9.8900000000000006

>  <m_primary>  (81) 
energy

$$$$
81:0
     RDKit          3D

 61 64  0  0  0  0  0  0  0  0999 V2000
   64.9350   32.0510   52.4730 O   0  0  0  0  0  0  0  0  0  0  0  0
   64.3150   31.0590   52.0030 C   0  0  0  0  0  0  0  0  0  0  0  0
   64.2280   29.7840   52.7980 C   0  0  0  0  0  0  0  0  0  0  0  0
   64.4910   28.5190   51.9670 C   0  0  0  0  0  0  0  0  0  0  0  0
   63.4130   27.4730   52.1550 C   0  0  0  0  0  0  0  0  0  0  0  0
   63.7280   26.3000   52.8620 C   0  0  0  0  0  0  0  0  0  0  0  0
   62.7600   25.3200   53.0800 C   0  0  0  0  0  0  0  0  0  0  0  0
   61.4620   25.5030   52.6000 C   0  0  0  0  0  0  0  0  0  0  0  0
   61.1340   26.6610   51.8960 C   0  0  0  0  0  0  0  0  0  0  0  0
   62.1060   27.6500   51.6470 C   0  0  0  0  0  0  0  0  0  0  0  0
   61.7970   28.8330   50.8940 N   0  0  0  0  0  0  0  0  0  0  0  0
   60.5170   29.0350   49.7390 S   0  0  0  0  0  0  0  0  0  0  0  0
   59.3730   29.7260   50.4250 O   0  0  0  0  0  0  0  0  0  0  0  0
   60.0270   27.7060   49.2380 O   0  0  0  0  0  0  0  0  0  0  0  0
   61.0530   30.0700   48.3860 C   0  0  0  0  0  0  0  0  0  0  0  0
   60.0730   30.0540   47.2590 C   0  0  0  0  0  0  0  0  0  0  0  0
   60.3890   30.1050   45.9070 C   0  0  0  0  0  0  0  0  0  0  0  0
   59.2710   30.0130   45.0730 C   0  0  0  0  0  0  0  0  0  0  0  0
   58.0720   29.8970   45.7680 C   0  0  0  0  0  0  0  0  0  0  0  0
   56.7460   29.7020   45.1550 C   0  0  0  0  0  0  0  0  0  0  0  0
   56.2390   30.6350   44.4780 O   0  0  0  0  0  0  0  0  0  0  0  0
   56.0470   28.4570   45.2440 N   0  0  0  0  0  0  0  0  0  0  0  0
   56.6120   27.2030   45.6530 C   0  0  0  0  0  0  0  0  0  0  0  0
   58.0050   27.0190   45.7410 C   0  0  0  0  0  0  0  0  0  0  0  0
   58.5290   25.7980   46.1780 C   0  0  0  0  0  0  0  0  0  0  0  0
   57.6700   24.7580   46.5420 C   0  0  0  0  0  0  0  0  0  0  0  0
   56.2860   24.9400   46.4760 C   0  0  0  0  0  0  0  0  0  0  0  0
   55.7560   26.1590   46.0380 C   0  0  0  0  0  0  0  0  0  0  0  0
   54.3770   26.3260   45.9770 O   0  0  0  0  0  0  0  0  0  0  0  0
   58.4090   29.8830   47.4210 S   0  0  0  0  0  0  0  0  0  0  0  0
   63.8140   31.0970   50.6600 N   0  0  0  0  0  0  0  0  0  0  0  0
   64.3980   31.9610   49.6340 C   0  0  0  0  0  0  0  0  0  0  0  0
   63.3270   32.6550   48.8370 C   0  0  0  0  0  0  0  0  0  0  0  0
   62.1650   33.1350   49.4640 C   0  0  0  0  0  0  0  0  0  0  0  0
   61.1990   33.8020   48.7050 C   0  0  0  0  0  0  0  0  0  0  0  0
   61.3840   33.9780   47.3680 N   0  0  0  0  0  0  0  0  0  0  0  0
   62.4960   33.5170   46.7360 C   0  0  0  0  0  0  0  0  0  0  0  0
   63.4900   32.8490   47.4570 C   0  0  0  0  0  0  0  0  0  0  0  0
   64.9711   29.8283   53.6078 H   0  0  0  0  0  0  0  0  0  0  0  0
   63.1980   29.7112   53.1771 H   0  0  0  0  0  0  0  0  0  0  0  0
   64.5325   28.7968   50.9035 H   0  0  0  0  0  0  0  0  0  0  0  0
   65.4431   28.0854   52.3067 H   0  0  0  0  0  0  0  0  0  0  0  0
   64.7479   26.1534   53.2471 H   0  0  0  0  0  0  0  0  0  0  0  0
   63.0192   24.4033   53.6299 H   0  0  0  0  0  0  0  0  0  0  0  0
   60.6970   24.7327   52.7774 H   0  0  0  0  0  0  0  0  0  0  0  0
   60.1061   26.8038   51.5314 H   0  0  0  0  0  0  0  0  0  0  0  0
   61.1631   31.1027   48.7486 H   0  0  0  0  0  0  0  0  0  0  0  0
   62.0116   29.6798   48.0135 H   0  0  0  0  0  0  0  0  0  0  0  0
   61.4173   30.2076   45.5301 H   0  0  0  0  0  0  0  0  0  0  0  0
   59.3334   30.0306   43.9749 H   0  0  0  0  0  0  0  0  0  0  0  0
   58.6842   27.8390   45.4649 H   0  0  0  0  0  0  0  0  0  0  0  0
   59.6184   25.6565   46.2351 H   0  0  0  0  0  0  0  0  0  0  0  0
   58.0829   23.7963   46.8804 H   0  0  0  0  0  0  0  0  0  0  0  0
   55.6110   24.1225   46.7693 H   0  0  0  0  0  0  0  0  0  0  0  0
   63.1470   30.3540   50.3510 H   0  0  0  0  0  0  0  0  0  0  0  0
   65.0318   32.7177   50.1196 H   0  0  0  0  0  0  0  0  0  0  0  0
   64.9942   31.3384   48.9506 H   0  0  0  0  0  0  0  0  0  0  0  0
   62.0165   32.9871   50.5438 H   0  0  0  0  0  0  0  0  0  0  0  0
   60.2884   34.1850   49.1888 H   0  0  0  0  0  0  0  0  0  0  0  0
   62.6140   33.6703   45.6531 H   0  0  0  0  0  0  0  0  0  0  0  0
   64.3917   32.4789   46.9471 H   0  0  0  0  0  0  0  0  0  0  0  0
  1  2  2  0
  2  3  1  0
  3  4  1  0
  4  5  1  0
  5  6  2  0
  6  7  1  0
  7  8  2  0
  8  9  1  0
  9 10  2  0
 10 11  1  0
 11 12  1  0
 12 13  2  0
 12 14  2  0
 12 15  1  0
 15 16  1  0
 16 17  2  0
 17 18  1  0
 18 19  2  0
 19 20  1  0
 20 21  2  0
 20 22  1  0
 22 23  1  0
 23 24  2  0
 24 25  1  0
 25 26  2  0
 26 27  1  0
 27 28  2  0
 28 29  1  0
 19 30  1  0
  2 31  1  0
 31 32  1  0
 32 33  1  0
 33 34  2  0
 34 35  1  0
 35 36  2  0
 36 37  1  0
 37 38  2  0
 10  5  1  0
 30 16  1  0
 38 33  1  0
 28 23  1  0
  3 39  1  0
  3 40  1  0
  4 41  1  0
  4 42  1  0
  6 43  1  0
  7 44  1  0
  8 45  1  0
  9 46  1  0
 15 47  1  0
 15 48  1  0
 17 49  1  0
 18 50  1  0
 24 51  1  0
 25 52  1  0
 26 53  1  0
 27 54  1  0
 31 55  1  0
 32 56  1  0
 32 57  1  0
 34 58  1  0
 35 59  1  0
 37 60  1  0
 38 61  1  0
M  CHG  3  11  -1  22  -1  29  -1
M  END
>  <UniqueID>  (82) 
77

>  <SMILES>  (82) 
O=C(CCc1ccccc1[N-]S(=O)(=O)Cc1ccc(C(=O)[N-]c2ccccc2[O-])s1)NCc1ccncc1

>  <Energy>  (82) 
87.09237096905561

>  <Genealogy>  (82) 
O=C(CCc1ccccc1[N-]S(=O)(=O)Cc1ccc(C(=O)[N-]c2ccccc2[O-])s1)NCc1ccncc1 (protonated)
O=C(CCc1ccccc1[N-]S(=O)(=O)Cc1ccc(C(=O)[N-]c2ccccc2[O-])s1)NCc1ccncc1 (3D coordinates assigned)
O=C(CCc1ccccc1[N-]S(=O)(=O)Cc1ccc(C(=O)[N-]c2ccccc2[O-])s1)NCc1ccncc1 (optimized conformer: 87.09237096905561 kcal/mol)

>  <smiles>  (82) 
O=C(CCc1ccccc1NS(=O)(=O)Cc1ccc(C(=O)Nc2ccccc2O)s1)NCc1ccncc1

>  <score_type>  (82) 
oracle

>  <origin>  (82) 
adg

>  <m_score__min__energy>  (82) 
-16.059999999999999

>  <m_primary>  (82) 
energy

$$$$
82:0
     RDKit          3D

 46 47  0  0  0  0  0  0  0  0999 V2000
   59.0230   34.5920   45.9000 C   0  0  0  0  0  0  0  0  0  0  0  0
   59.8550   34.5910   47.1770 C   0  0  0  0  0  0  0  0  0  0  0  0
   60.8700   33.5280   47.1300 N   0  0  0  0  0  0  0  0  0  0  0  0
   62.1250   33.7340   46.3920 C   0  0  0  0  0  0  0  0  0  0  0  0
   63.2840   33.9510   47.3600 C   0  0  0  0  0  0  0  0  0  0  0  0
   60.6380   32.2810   47.8140 C   0  0  0  0  0  0  0  0  0  0  0  0
   59.3320   31.7940   47.9790 C   0  0  0  0  0  0  0  0  0  0  0  0
   59.1090   30.5810   48.6380 C   0  0  0  0  0  0  0  0  0  0  0  0
   60.1910   29.8310   49.1270 C   0  0  0  0  0  0  0  0  0  0  0  0
   59.9930   28.5970   49.8310 N   0  0  0  0  0  0  0  0  0  0  0  0
   60.4730   27.3070   49.4310 C   0  0  0  0  0  0  0  0  0  0  0  0
   61.4380   26.7980   50.0590 O   0  0  0  0  0  0  0  0  0  0  0  0
   59.8910   26.5720   48.2520 C   0  0  0  0  0  0  0  0  0  0  0  0
   60.1240   27.3440   46.9490 C   0  0  0  0  0  0  0  0  0  0  0  0
   58.8130   27.7550   46.3360 C   0  0  0  0  0  0  0  0  0  0  0  0
   58.6780   29.0180   45.7350 C   0  0  0  0  0  0  0  0  0  0  0  0
   57.4510   29.4130   45.1970 C   0  0  0  0  0  0  0  0  0  0  0  0
   56.3460   28.5590   45.2600 C   0  0  0  0  0  0  0  0  0  0  0  0
   55.1330   28.9670   44.7160 O   0  0  0  0  0  0  0  0  0  0  0  0
   56.4660   27.2990   45.8710 C   0  0  0  0  0  0  0  0  0  0  0  0
   55.3800   26.4290   45.9520 O   0  0  0  0  0  0  0  0  0  0  0  0
   57.6960   26.9050   46.4120 C   0  0  0  0  0  0  0  0  0  0  0  0
   61.4900   30.3330   48.9920 C   0  0  0  0  0  0  0  0  0  0  0  0
   61.7150   31.5440   48.3310 C   0  0  0  0  0  0  0  0  0  0  0  0
   57.9539   34.5933   46.1589 H   0  0  0  0  0  0  0  0  0  0  0  0
   59.2584   35.4899   45.3097 H   0  0  0  0  0  0  0  0  0  0  0  0
   59.2562   33.6936   45.3097 H   0  0  0  0  0  0  0  0  0  0  0  0
   60.3554   35.5648   47.2837 H   0  0  0  0  0  0  0  0  0  0  0  0
   59.1901   34.4101   48.0344 H   0  0  0  0  0  0  0  0  0  0  0  0
   62.3309   32.8480   45.7734 H   0  0  0  0  0  0  0  0  0  0  0  0
   62.0214   34.6250   45.7553 H   0  0  0  0  0  0  0  0  0  0  0  0
   62.9157   33.8821   48.3942 H   0  0  0  0  0  0  0  0  0  0  0  0
   64.0513   33.1809   47.1919 H   0  0  0  0  0  0  0  0  0  0  0  0
   63.7207   34.9465   47.1919 H   0  0  0  0  0  0  0  0  0  0  0  0
   58.4798   32.3693   47.5880 H   0  0  0  0  0  0  0  0  0  0  0  0
   58.0815   30.2126   48.7740 H   0  0  0  0  0  0  0  0  0  0  0  0
   60.3679   25.5838   48.1740 H   0  0  0  0  0  0  0  0  0  0  0  0
   58.8069   26.4678   48.4065 H   0  0  0  0  0  0  0  0  0  0  0  0
   60.7207   28.2430   47.1631 H   0  0  0  0  0  0  0  0  0  0  0  0
   60.6580   26.6928   46.2413 H   0  0  0  0  0  0  0  0  0  0  0  0
   59.5415   29.6979   45.6881 H   0  0  0  0  0  0  0  0  0  0  0  0
   57.3538   30.4002   44.7217 H   0  0  0  0  0  0  0  0  0  0  0  0
   55.0500   25.9040   45.1510 H   0  0  0  0  0  0  0  0  0  0  0  0
   57.7888   25.9235   46.8999 H   0  0  0  0  0  0  0  0  0  0  0  0
   62.3392   29.7714   49.4085 H   0  0  0  0  0  0  0  0  0  0  0  0
   62.7417   31.9215   48.2154 H   0  0  0  0  0  0  0  0  0  0  0  0
  1  2  1  0
  2  3  1  0
  3  4  1  0
  4  5  1  0
  3  6  1  0
  6  7  2  0
  7  8  1  0
  8  9  2  0
  9 10  1  0
 10 11  1  0
 11 12  2  0
 11 13  1  0
 13 14  1  0
 14 15  1  0
 15 16  2  0
 16 17  1  0
 17 18  2  0
 18 19  1  0
 18 20  1  0
 20 21  1  0
 20 22  2  0
  9 23  1  0
 23 24  2  0
 24  6  1  0
 22 15  1  0
  1 25  1  0
  1 26  1  0
  1 27  1  0
  2 28  1  0
  2 29  1  0
  4 30  1  0
  4 31  1  0
  5 32  1  0
  5 33  1  0
  5 34  1  0
  7 35  1  0
  8 36  1  0
 13 37  1  0
 13 38  1  0
 14 39  1  0
 14 40  1  0
 16 41  1  0
 17 42  1  0
 21 43  1  0
 22 44  1  0
 23 45  1  0
 24 46  1  0
M  CHG  2  10  -1  19  -1
M  END
>  <UniqueID>  (83) 
78

>  <SMILES>  (83) 
CCN(CC)c1ccc([N-]C(=O)CCc2ccc([O-])c(O)c2)cc1

>  <Energy>  (83) 
45.12385599565153

>  <Genealogy>  (83) 
CCN(CC)c1ccc([N-]C(=O)CCc2ccc([O-])c(O)c2)cc1 (protonated)
CCN(CC)c1ccc([N-]C(=O)CCc2ccc([O-])c(O)c2)cc1 (3D coordinates assigned)
CCN(CC)c1ccc([N-]C(=O)CCc2ccc([O-])c(O)c2)cc1 (optimized conformer: 45.12385599565153 kcal/mol)

>  <smiles>  (83) 
CCN(CC)c1ccc(NC(=O)CCc2ccc(O)c(O)c2)cc1

>  <score_type>  (83) 
oracle

>  <origin>  (83) 
adg

>  <m_score__min__energy>  (83) 
-12.65

>  <m_primary>  (83) 
energy

$$$$
83:0
     RDKit          3D

 63 66  0  0  0  0  0  0  0  0999 V2000
   57.0356   28.6711   54.3117 H   0  0  0  0  0  0  0  0  0  0  0  0
   56.3030   29.0830   53.6020 C   0  0  0  0  0  0  0  0  0  0  0  0
   54.9910   28.9330   53.9020 C   0  0  0  0  0  0  0  0  0  0  0  0
   54.4590   27.5320   54.0750 C   0  0  0  0  0  0  0  0  0  0  0  0
   54.3719   27.3027   55.1473 H   0  0  0  0  0  0  0  0  0  0  0  0
   53.4689   27.4547   53.6019 H   0  0  0  0  0  0  0  0  0  0  0  0
   55.1482   26.8170   53.6019 H   0  0  0  0  0  0  0  0  0  0  0  0
   54.0390   30.0980   54.1120 C   0  0  0  0  0  0  0  0  0  0  0  0
   53.3089   29.8324   54.8907 H   0  0  0  0  0  0  0  0  0  0  0  0
   54.6201   30.9797   54.4201 H   0  0  0  0  0  0  0  0  0  0  0  0
   53.3060   30.4210   52.8350 C   0  0  0  0  0  0  0  0  0  0  0  0
   53.5730   29.6980   51.6580 C   0  0  0  0  0  0  0  0  0  0  0  0
   54.3372   28.9068   51.6620 H   0  0  0  0  0  0  0  0  0  0  0  0
   52.8700   29.9820   50.4830 C   0  0  0  0  0  0  0  0  0  0  0  0
   53.0854   29.4165   49.5644 H   0  0  0  0  0  0  0  0  0  0  0  0
   51.8940   30.9830   50.4730 C   0  0  0  0  0  0  0  0  0  0  0  0
   51.3406   31.2027   49.5481 H   0  0  0  0  0  0  0  0  0  0  0  0
   51.6220   31.7040   51.6380 C   0  0  0  0  0  0  0  0  0  0  0  0
   50.6500   32.6980   51.6290 O   0  0  0  0  0  0  0  0  0  0  0  0
   52.3240   31.4250   52.8160 C   0  0  0  0  0  0  0  0  0  0  0  0
   52.1057   31.9947   53.7313 H   0  0  0  0  0  0  0  0  0  0  0  0
   56.8380   29.7700   52.3720 C   0  0  0  0  0  0  0  0  0  0  0  0
   57.1306   29.0088   51.6338 H   0  0  0  0  0  0  0  0  0  0  0  0
   56.0502   30.4207   51.9645 H   0  0  0  0  0  0  0  0  0  0  0  0
   58.0580   30.6350   52.7100 C   0  0  0  0  0  0  0  0  0  0  0  0
   57.7397   31.4841   53.3327 H   0  0  0  0  0  0  0  0  0  0  0  0
   58.7913   30.0225   53.2550 H   0  0  0  0  0  0  0  0  0  0  0  0
   58.6970   31.1570   51.4440 C   0  0  0  0  0  0  0  0  0  0  0  0
   59.8270   30.5670   50.9920 C   0  0  0  0  0  0  0  0  0  0  0  0
   60.4399   30.0143   51.7192 H   0  0  0  0  0  0  0  0  0  0  0  0
   60.3080   30.6120   49.5620 C   0  0  0  0  0  0  0  0  0  0  0  0
   59.9522   31.5418   49.0942 H   0  0  0  0  0  0  0  0  0  0  0  0
   61.4072   30.5716   49.5660 H   0  0  0  0  0  0  0  0  0  0  0  0
   59.7920   29.4320   48.7660 C   0  0  0  0  0  0  0  0  0  0  0  0
   60.2350   28.1320   49.0770 C   0  0  0  0  0  0  0  0  0  0  0  0
   61.1550   27.9220   50.1000 O   0  0  0  0  0  0  0  0  0  0  0  0
   59.7580   27.0330   48.3630 C   0  0  0  0  0  0  0  0  0  0  0  0
   60.1082   26.0222   48.6193 H   0  0  0  0  0  0  0  0  0  0  0  0
   58.8410   27.2050   47.3270 C   0  0  0  0  0  0  0  0  0  0  0  0
   58.4020   26.1390   46.6670 O   0  0  0  0  0  0  0  0  0  0  0  0
   57.5280   26.2040   45.6650 C   0  0  0  0  0  0  0  0  0  0  0  0
   57.1120   24.9420   44.9990 C   0  0  0  0  0  0  0  0  0  0  0  0
   56.7310   23.8000   45.7340 C   0  0  0  0  0  0  0  0  0  0  0  0
   56.7440   23.8288   46.8335 H   0  0  0  0  0  0  0  0  0  0  0  0
   56.3370   22.6320   45.0750 C   0  0  0  0  0  0  0  0  0  0  0  0
   56.0494   21.7446   45.6579 H   0  0  0  0  0  0  0  0  0  0  0  0
   56.3070   22.5870   43.6790 C   0  0  0  0  0  0  0  0  0  0  0  0
   55.9160   21.4230   43.0280 O   0  0  0  0  0  0  0  0  0  0  0  0
   56.6680   23.7140   42.9380 C   0  0  0  0  0  0  0  0  0  0  0  0
   56.6393   23.6808   41.8389 H   0  0  0  0  0  0  0  0  0  0  0  0
   57.0660   24.8850   43.5910 C   0  0  0  0  0  0  0  0  0  0  0  0
   57.3458   25.7699   43.0005 H   0  0  0  0  0  0  0  0  0  0  0  0
   57.0200   27.4550   45.2780 C   0  0  0  0  0  0  0  0  0  0  0  0
   56.2855   27.5266   44.4623 H   0  0  0  0  0  0  0  0  0  0  0  0
   57.4540   28.6060   45.9360 C   0  0  0  0  0  0  0  0  0  0  0  0
   56.9920   29.7220   45.5790 O   0  0  0  0  0  0  0  0  0  0  0  0
   58.3900   28.4990   46.9840 C   0  0  0  0  0  0  0  0  0  0  0  0
   58.8810   29.6160   47.7020 C   0  0  0  0  0  0  0  0  0  0  0  0
   58.4670   30.9040   47.3650 O   0  0  0  0  0  0  0  0  0  0  0  0
   58.0370   32.2930   50.7040 C   0  0  0  0  0  0  0  0  0  0  0  0
   57.6208   33.0093   51.4277 H   0  0  0  0  0  0  0  0  0  0  0  0
   58.7809   32.8004   50.0722 H   0  0  0  0  0  0  0  0  0  0  0  0
   57.2278   31.8980   50.0722 H   0  0  0  0  0  0  0  0  0  0  0  0
  1  2  1  0
  2  3  2  3
  3  4  1  0
  4  5  1  0
  4  6  1  0
  4  7  1  0
  3  8  1  0
  8  9  1  0
  8 10  1  0
  8 11  1  0
 11 12  2  0
 12 13  1  0
 12 14  1  0
 14 15  1  0
 14 16  2  0
 16 17  1  0
 16 18  1  0
 18 19  1  0
 18 20  2  0
 20 21  1  0
  2 22  1  0
 22 23  1  0
 22 24  1  0
 22 25  1  0
 25 26  1  0
 25 27  1  0
 25 28  1  0
 28 29  2  0
 29 30  1  0
 29 31  1  0
 31 32  1  0
 31 33  1  0
 31 34  1  0
 34 35  2  0
 35 36  1  0
 35 37  1  0
 37 38  1  0
 37 39  2  0
 39 40  1  0
 40 41  1  0
 41 42  1  0
 42 43  2  0
 43 44  1  0
 43 45  1  0
 45 46  1  0
 45 47  2  0
 47 48  1  0
 47 49  1  0
 49 50  1  0
 49 51  2  0
 51 52  1  0
 41 53  2  0
 53 54  1  0
 53 55  1  0
 55 56  2  0
 55 57  1  0
 57 58  2  0
 58 59  1  0
 28 60  1  0
 60 61  1  0
 60 62  1  0
 60 63  1  0
 20 11  1  0
 58 34  1  0
 57 39  1  0
 51 42  1  0
M  CHG  4  19  -1  36  -1  48  -1  59  -1
M  END
>  <UniqueID>  (84) 
79

>  <SMILES>  (84) 
CC(=CCC/C(C)=C/Cc1c([O-])cc2oc(-c3ccc([O-])cc3)cc(=O)c2c1[O-])Cc1cccc([O-])c1

>  <Energy>  (84) 
69.77198312637816

>  <Genealogy>  (84) 
CC(=CCc1c([O-])cc2oc(-c3ccc([O-])cc3)cc(=O)c2c1[O-])CCC=C(C)Cc1cccc([O-])c1 (protonated)
CC(=CCC/C(C)=C/Cc1c([O-])cc2oc(-c3ccc([O-])cc3)cc(=O)c2c1[O-])Cc1cccc([O-])c1 (cis-trans isomerization)
CC(=CCC/C(C)=C/Cc1c([O-])cc2oc(-c3ccc([O-])cc3)cc(=O)c2c1[O-])Cc1cccc([O-])c1 (3D coordinates assigned)
CC(=CCC/C(C)=C/Cc1c([O-])cc2oc(-c3ccc([O-])cc3)cc(=O)c2c1[O-])Cc1cccc([O-])c1 (optimized conformer: 69.77198312637816 kcal/mol)

>  <smiles>  (84) 
CC(=CCc1c(O)cc2oc(-c3ccc(O)cc3)cc(=O)c2c1O)CCC=C(C)Cc1cccc(O)c1

>  <score_type>  (84) 
oracle

>  <origin>  (84) 
adg

>  <m_score__min__energy>  (84) 
-16.859999999999999

>  <m_primary>  (84) 
energy

$$$$
84:0
     RDKit          3D

 48 50  0  0  0  0  0  0  0  0999 V2000
   61.0660   30.5210   47.5260 C   0  0  0  0  0  0  0  0  0  0  0  0
   59.4400   30.1750   48.2660 S   0  0  0  0  0  0  0  0  0  0  0  0
   59.3540   28.5140   47.5950 C   0  0  0  0  0  0  0  0  0  0  0  0
   60.4760   27.9490   46.9780 C   0  0  0  0  0  0  0  0  0  0  0  0
   60.4070   26.6560   46.4500 C   0  0  0  0  0  0  0  0  0  0  0  0
   59.2210   25.9230   46.5450 C   0  0  0  0  0  0  0  0  0  0  0  0
   58.0960   26.4760   47.1840 C   0  0  0  0  0  0  0  0  0  0  0  0
   56.8600   25.7570   47.2880 N   0  0  0  0  0  0  0  0  0  0  0  0
   55.9480   25.5130   46.2110 C   0  0  0  0  0  0  0  0  0  0  0  0
   55.0190   26.3380   46.0070 O   0  0  0  0  0  0  0  0  0  0  0  0
   56.0580   24.3360   45.3860 N   0  0  0  0  0  0  0  0  0  0  0  0
   55.0320   23.3100   45.3080 C   0  0  0  0  0  0  0  0  0  0  0  0
   55.6760   22.1380   44.5810 C   0  0  0  0  0  0  0  0  0  0  0  0
   56.9040   22.7010   43.8700 C   0  0  0  0  0  0  0  0  0  0  0  0
   57.2150   24.0410   44.5490 C   0  0  1  0  0  0  0  0  0  0  0  0
   57.4500   25.1210   43.5260 C   0  0  0  0  0  0  0  0  0  0  0  0
   57.3990   24.8320   42.2990 O   0  0  0  0  0  0  0  0  0  0  0  0
   57.6990   26.4740   43.9390 N   0  0  0  0  0  0  0  0  0  0  0  0
   57.7890   27.5780   42.9890 C   0  0  0  0  0  0  0  0  0  0  0  0
   57.7010   28.8940   43.7140 C   0  0  0  0  0  0  0  0  0  0  0  0
   58.8000   29.3880   44.4370 C   0  0  0  0  0  0  0  0  0  0  0  0
   58.7180   30.6240   45.0840 C   0  0  0  0  0  0  0  0  0  0  0  0
   57.5420   31.3780   45.0120 C   0  0  0  0  0  0  0  0  0  0  0  0
   57.4420   32.9300   45.8230 Cl  0  0  0  0  0  0  0  0  0  0  0  0
   56.4470   30.8940   44.2890 C   0  0  0  0  0  0  0  0  0  0  0  0
   56.5260   29.6580   43.6410 C   0  0  0  0  0  0  0  0  0  0  0  0
   58.1660   27.7790   47.6940 C   0  0  0  0  0  0  0  0  0  0  0  0
   61.8062   30.6785   48.3244 H   0  0  0  0  0  0  0  0  0  0  0  0
   61.3743   29.6684   46.9032 H   0  0  0  0  0  0  0  0  0  0  0  0
   61.0005   31.4253   46.9032 H   0  0  0  0  0  0  0  0  0  0  0  0
   61.4123   28.5222   46.9084 H   0  0  0  0  0  0  0  0  0  0  0  0
   61.2873   26.2153   45.9593 H   0  0  0  0  0  0  0  0  0  0  0  0
   59.1668   24.9104   46.1188 H   0  0  0  0  0  0  0  0  0  0  0  0
   54.7143   23.0078   46.3168 H   0  0  0  0  0  0  0  0  0  0  0  0
   54.1359   23.6711   44.7821 H   0  0  0  0  0  0  0  0  0  0  0  0
   55.9745   21.3608   45.2999 H   0  0  0  0  0  0  0  0  0  0  0  0
   54.9772   21.6753   43.8686 H   0  0  0  0  0  0  0  0  0  0  0  0
   57.7554   22.0127   43.9768 H   0  0  0  0  0  0  0  0  0  0  0  0
   56.7195   22.8306   42.7934 H   0  0  0  0  0  0  0  0  0  0  0  0
   58.1354   23.9907   45.1492 H   0  0  0  0  0  0  0  0  0  0  0  0
   57.7870   26.6880   44.9580 H   0  0  0  0  0  0  0  0  0  0  0  0
   58.7488   27.5206   42.4547 H   0  0  0  0  0  0  0  0  0  0  0  0
   56.9568   27.5053   42.2734 H   0  0  0  0  0  0  0  0  0  0  0  0
   59.7279   28.7999   44.4939 H   0  0  0  0  0  0  0  0  0  0  0  0
   59.5802   31.0048   45.6512 H   0  0  0  0  0  0  0  0  0  0  0  0
   55.5223   31.4868   44.2302 H   0  0  0  0  0  0  0  0  0  0  0  0
   55.6633   29.2824   43.0712 H   0  0  0  0  0  0  0  0  0  0  0  0
   57.2837   28.2269   48.1745 H   0  0  0  0  0  0  0  0  0  0  0  0
  1  2  1  0
  2  3  1  0
  3  4  2  0
  4  5  1  0
  5  6  2  0
  6  7  1  0
  7  8  1  0
  8  9  1  0
  9 10  2  0
  9 11  1  0
 11 12  1  0
 12 13  1  0
 13 14  1  0
 14 15  1  0
 15 16  1  0
 16 17  2  0
 16 18  1  0
 18 19  1  0
 19 20  1  0
 20 21  2  0
 21 22  1  0
 22 23  2  0
 23 24  1  0
 23 25  1  0
 25 26  2  0
  7 27  2  0
 27  3  1  0
 15 11  1  0
 26 20  1  0
  1 28  1  0
  1 29  1  0
  1 30  1  0
  4 31  1  0
  5 32  1  0
  6 33  1  0
 12 34  1  0
 12 35  1  0
 13 36  1  0
 13 37  1  0
 14 38  1  0
 14 39  1  0
 15 40  1  1
 18 41  1  0
 19 42  1  0
 19 43  1  0
 21 44  1  0
 22 45  1  0
 25 46  1  0
 26 47  1  0
 27 48  1  0
M  CHG  1   8  -1
M  END
>  <UniqueID>  (85) 
80

>  <SMILES>  (85) 
CSc1cccc([N-]C(=O)N2CCC[C@H]2C(=O)NCc2ccc(Cl)cc2)c1

>  <Energy>  (85) 
48.319056710698135

>  <Genealogy>  (85) 
CSc1cccc([N-]C(=O)N2CCCC2C(=O)NCc2ccc(Cl)cc2)c1 (protonated)
CSc1cccc([N-]C(=O)N2CCC[C@H]2C(=O)NCc2ccc(Cl)cc2)c1 (chirality)
CSc1cccc([N-]C(=O)N2CCC[C@H]2C(=O)NCc2ccc(Cl)cc2)c1 (3D coordinates assigned)
CSc1cccc([N-]C(=O)N2CCC[C@H]2C(=O)NCc2ccc(Cl)cc2)c1 (nonaromatic ring conformer: 48.319056710698135 kcal/mol)

>  <smiles>  (85) 
CSc1cccc(NC(=O)N2CCCC2C(=O)NCc2ccc(Cl)cc2)c1

>  <score_type>  (85) 
oracle

>  <origin>  (85) 
adg

>  <m_score__min__energy>  (85) 
-9.75

>  <m_primary>  (85) 
energy

$$$$
85:0
     RDKit          3D

 41 43  0  0  0  0  0  0  0  0999 V2000
   59.3060   30.4600   45.5540 C   0  0  0  0  0  0  0  0  0  0  0  0
   59.4760   29.5930   46.5650 C   0  0  0  0  0  0  0  0  0  0  0  0
   59.1120   28.2420   46.5610 C   0  0  0  0  0  0  0  0  0  0  0  0
   58.4670   27.5730   45.5860 C   0  0  0  0  0  0  0  0  0  0  0  0
   57.2120   26.8270   45.7880 C   0  0  0  0  0  0  0  0  0  0  0  0
   57.1670   25.5780   46.2840 N   0  0  0  0  0  0  0  0  0  0  0  0
   55.8440   25.3240   46.3770 C   0  0  0  0  0  0  0  0  0  0  0  0
   55.3920   24.2270   46.7970 O   0  0  0  0  0  0  0  0  0  0  0  0
   55.0430   26.3420   45.9980 N   0  0  0  0  0  0  0  0  0  0  0  0
   55.9220   27.2910   45.6400 C   0  0  0  0  0  0  0  0  0  0  0  0
   55.5530   28.5670   45.2310 O   0  0  0  0  0  0  0  0  0  0  0  0
   59.4880   27.7340   47.7950 C   0  0  0  0  0  0  0  0  0  0  0  0
   60.0640   28.7740   48.4940 C   0  0  0  0  0  0  0  0  0  0  0  0
   60.6300   28.6480   49.8770 C   0  0  0  0  0  0  0  0  0  0  0  0
   60.0570   29.9090   47.7530 N   0  0  0  0  0  0  0  0  0  0  0  0
   60.5510   31.2270   48.1810 C   0  0  0  0  0  0  0  0  0  0  0  0
   59.3960   32.1750   48.5420 C   0  0  0  0  0  0  0  0  0  0  0  0
   59.0610   33.1170   47.4040 C   0  0  0  0  0  0  0  0  0  0  0  0
   57.7500   33.0790   46.8940 C   0  0  0  0  0  0  0  0  0  0  0  0
   57.3970   33.8240   45.7690 C   0  0  0  0  0  0  0  0  0  0  0  0
   58.3500   34.6080   45.1240 C   0  0  0  0  0  0  0  0  0  0  0  0
   59.6560   34.6620   45.6100 C   0  0  0  0  0  0  0  0  0  0  0  0
   60.0290   33.9370   46.7570 C   0  0  0  0  0  0  0  0  0  0  0  0
   61.4240   34.0740   47.2300 C   0  0  0  0  0  0  0  0  0  0  0  0
   61.6550   34.3000   48.4480 O   0  0  0  0  0  0  0  0  0  0  0  0
   62.4950   33.8750   46.3680 O   0  0  0  0  0  0  0  0  0  0  0  0
   59.6306   31.5051   45.6652 H   0  0  0  0  0  0  0  0  0  0  0  0
   58.8421   30.1252   44.6145 H   0  0  0  0  0  0  0  0  0  0  0  0
   58.9039   27.5841   44.5765 H   0  0  0  0  0  0  0  0  0  0  0  0
   59.3530   26.7011   48.1483 H   0  0  0  0  0  0  0  0  0  0  0  0
   59.8348   28.8250   50.6161 H   0  0  0  0  0  0  0  0  0  0  0  0
   61.0400   27.6366   50.0146 H   0  0  0  0  0  0  0  0  0  0  0  0
   61.4303   29.3900   50.0146 H   0  0  0  0  0  0  0  0  0  0  0  0
   61.1953   31.0974   49.0631 H   0  0  0  0  0  0  0  0  0  0  0  0
   61.1124   31.6715   47.3460 H   0  0  0  0  0  0  0  0  0  0  0  0
   58.5053   31.5753   48.7810 H   0  0  0  0  0  0  0  0  0  0  0  0
   59.7097   32.7810   49.4048 H   0  0  0  0  0  0  0  0  0  0  0  0
   56.9932   32.4531   47.3894 H   0  0  0  0  0  0  0  0  0  0  0  0
   56.3645   33.7922   45.3908 H   0  0  0  0  0  0  0  0  0  0  0  0
   58.0723   35.1855   44.2299 H   0  0  0  0  0  0  0  0  0  0  0  0
   60.4039   35.2790   45.0903 H   0  0  0  0  0  0  0  0  0  0  0  0
  1  2  2  0
  2  3  1  0
  3  4  2  3
  4  5  1  0
  5  6  1  0
  6  7  1  0
  7  8  2  0
  7  9  1  0
  9 10  1  0
 10 11  1  0
  3 12  1  0
 12 13  2  0
 13 14  1  0
 13 15  1  0
 15 16  1  0
 16 17  1  0
 17 18  1  0
 18 19  2  0
 19 20  1  0
 20 21  2  0
 21 22  1  0
 22 23  2  0
 23 24  1  0
 24 25  2  0
 24 26  1  0
 15  2  1  0
 23 18  1  0
 10  5  2  0
  1 27  1  0
  1 28  1  0
  4 29  1  0
 12 30  1  0
 14 31  1  0
 14 32  1  0
 14 33  1  0
 16 34  1  0
 16 35  1  0
 17 36  1  0
 17 37  1  0
 19 38  1  0
 20 39  1  0
 21 40  1  0
 22 41  1  0
M  CHG  4   6  -1   9  -1  11  -1  26  -1
M  END
>  <UniqueID>  (86) 
81

>  <SMILES>  (86) 
C=c1c(=Cc2[n-]c(=O)[n-]c2[O-])cc(C)n1CCc1ccccc1C(=O)[O-]

>  <Energy>  (86) 
110.15265708682921

>  <Genealogy>  (86) 
C=c1c(=Cc2[n-]c(=O)[n-]c2[O-])cc(C)n1CCc1ccccc1C(=O)[O-] (protonated)
C=c1c(=Cc2[n-]c(=O)[n-]c2[O-])cc(C)n1CCc1ccccc1C(=O)[O-] (3D coordinates assigned)
C=c1c(=Cc2[n-]c(=O)[n-]c2[O-])cc(C)n1CCc1ccccc1C(=O)[O-] (optimized conformer: 110.15265708682921 kcal/mol)

>  <smiles>  (86) 
C=c1c(=Cc2[nH]c(=O)[nH]c2O)cc(C)n1CCc1ccccc1C(=O)O

>  <score_type>  (86) 
oracle

>  <origin>  (86) 
adg

>  <m_score__min__energy>  (86) 
-17.280000000000001

>  <m_primary>  (86) 
energy

$$$$
86:0
     RDKit          3D

 44 46  0  0  0  0  0  0  0  0999 V2000
   58.3700   27.2610   43.5280 C   0  0  0  0  0  0  0  0  0  0  0  0
   58.8390   28.0730   44.7070 C   0  0  0  0  0  0  0  0  0  0  0  0
   59.9360   28.9380   44.5550 C   0  0  0  0  0  0  0  0  0  0  0  0
   60.3940   29.7020   45.6290 C   0  0  0  0  0  0  0  0  0  0  0  0
   59.7690   29.6080   46.8760 C   0  0  0  0  0  0  0  0  0  0  0  0
   60.3190   30.5950   48.2270 S   0  0  0  0  0  0  0  0  0  0  0  0
   61.0110   29.7290   49.2410 O   0  0  0  0  0  0  0  0  0  0  0  0
   59.1310   31.2520   48.8720 O   0  0  0  0  0  0  0  0  0  0  0  0
   61.4210   31.8030   47.6510 N   0  0  0  0  0  0  0  0  0  0  0  0
   62.8170   31.5730   47.3380 C   0  0  0  0  0  0  0  0  0  0  0  0
   63.3760   32.9880   47.1150 C   0  0  0  0  0  0  0  0  0  0  0  0
   62.2610   33.8880   47.3920 N   0  0  0  0  0  0  0  0  0  0  0  0
   61.2110   33.2020   47.6740 C   0  0  0  0  0  0  0  0  0  0  0  0
   59.6370   33.9760   48.0540 S   0  0  0  0  0  0  0  0  0  0  0  0
   59.3580   34.5920   46.3570 C   0  0  0  0  0  0  0  0  0  0  0  0
   58.6670   33.5550   45.5140 C   0  0  0  0  0  0  0  0  0  0  0  0
   58.0120   32.4680   46.1180 C   0  0  0  0  0  0  0  0  0  0  0  0
   57.3980   31.4890   45.3300 C   0  0  0  0  0  0  0  0  0  0  0  0
   57.4340   31.5880   43.9350 C   0  0  0  0  0  0  0  0  0  0  0  0
   56.6660   30.3580   42.9480 Cl  0  0  0  0  0  0  0  0  0  0  0  0
   58.0870   32.6660   43.3280 C   0  0  0  0  0  0  0  0  0  0  0  0
   58.7030   33.6450   44.1140 C   0  0  0  0  0  0  0  0  0  0  0  0
   58.6730   28.7530   47.0400 C   0  0  0  0  0  0  0  0  0  0  0  0
   58.2030   27.9760   45.9670 C   0  0  0  0  0  0  0  0  0  0  0  0
   57.0180   27.0700   46.1750 C   0  0  0  0  0  0  0  0  0  0  0  0
   57.8499   26.3605   43.8866 H   0  0  0  0  0  0  0  0  0  0  0  0
   57.6811   27.8640   42.9182 H   0  0  0  0  0  0  0  0  0  0  0  0
   59.2366   26.9656   42.9182 H   0  0  0  0  0  0  0  0  0  0  0  0
   60.4387   29.0136   43.5795 H   0  0  0  0  0  0  0  0  0  0  0  0
   61.2494   30.3803   45.4941 H   0  0  0  0  0  0  0  0  0  0  0  0
   63.3301   31.0754   48.1742 H   0  0  0  0  0  0  0  0  0  0  0  0
   62.9569   30.9162   46.4668 H   0  0  0  0  0  0  0  0  0  0  0  0
   64.2113   33.1856   47.8029 H   0  0  0  0  0  0  0  0  0  0  0  0
   63.7670   33.1196   46.0953 H   0  0  0  0  0  0  0  0  0  0  0  0
   58.7321   35.4955   46.4006 H   0  0  0  0  0  0  0  0  0  0  0  0
   60.3332   34.8204   45.9022 H   0  0  0  0  0  0  0  0  0  0  0  0
   57.9821   32.3869   47.2146 H   0  0  0  0  0  0  0  0  0  0  0  0
   56.8863   30.6404   45.8076 H   0  0  0  0  0  0  0  0  0  0  0  0
   58.1160   32.7437   42.2311 H   0  0  0  0  0  0  0  0  0  0  0  0
   59.2181   34.4894   43.6327 H   0  0  0  0  0  0  0  0  0  0  0  0
   58.1744   28.6884   48.0184 H   0  0  0  0  0  0  0  0  0  0  0  0
   56.8433   26.9364   47.2528 H   0  0  0  0  0  0  0  0  0  0  0  0
   56.1271   27.5194   45.7121 H   0  0  0  0  0  0  0  0  0  0  0  0
   57.2181   26.0924   45.7121 H   0  0  0  0  0  0  0  0  0  0  0  0
  1  2  1  0
  2  3  2  0
  3  4  1  0
  4  5  2  0
  5  6  1  0
  6  7  2  0
  6  8  2  0
  6  9  1  0
  9 10  1  0
 10 11  1  0
 11 12  1  0
 12 13  2  0
 13 14  1  0
 14 15  1  0
 15 16  1  0
 16 17  2  0
 17 18  1  0
 18 19  2  0
 19 20  1  0
 19 21  1  0
 21 22  2  0
  5 23  1  0
 23 24  2  0
 24 25  1  0
 24  2  1  0
 13  9  1  0
 22 16  1  0
  1 26  1  0
  1 27  1  0
  1 28  1  0
  3 29  1  0
  4 30  1  0
 10 31  1  0
 10 32  1  0
 11 33  1  0
 11 34  1  0
 15 35  1  0
 15 36  1  0
 17 37  1  0
 18 38  1  0
 21 39  1  0
 22 40  1  0
 23 41  1  0
 25 42  1  0
 25 43  1  0
 25 44  1  0
M  END
>  <UniqueID>  (87) 
82

>  <SMILES>  (87) 
Cc1ccc(S(=O)(=O)N2CCN=C2SCc2ccc(Cl)cc2)cc1C

>  <Energy>  (87) 
53.95497961619662

>  <Genealogy>  (87) 
Cc1ccc(S(=O)(=O)N2CCN=C2SCc2ccc(Cl)cc2)cc1C (3D coordinates assigned)
Cc1ccc(S(=O)(=O)N2CCN=C2SCc2ccc(Cl)cc2)cc1C (nonaromatic ring conformer: 53.95497961619662 kcal/mol)

>  <smiles>  (87) 
Cc1ccc(S(=O)(=O)N2CCN=C2SCc2ccc(Cl)cc2)cc1C

>  <score_type>  (87) 
oracle

>  <origin>  (87) 
adg

>  <m_score__min__energy>  (87) 
-8.5800000000000001

>  <m_primary>  (87) 
energy

$$$$
87:0
     RDKit          3D

 55 58  0  0  0  0  0  0  0  0999 V2000
   65.1100   33.1800   50.4340 C   0  0  0  0  0  0  0  0  0  0  0  0
   64.1940   32.0750   50.6980 N   0  0  0  0  0  0  0  0  0  0  0  0
   64.5490   30.8040   50.9890 C   0  0  0  0  0  0  0  0  0  0  0  0
   63.4760   30.0210   51.2260 N   0  0  0  0  0  0  0  0  0  0  0  0
   62.4050   30.8240   51.0790 C   0  0  0  0  0  0  0  0  0  0  0  0
   60.7380   30.2880   51.2440 S   0  0  0  0  0  0  0  0  0  0  0  0
   60.7260   28.9390   51.9110 O   0  0  0  0  0  0  0  0  0  0  0  0
   59.9730   31.2700   52.0920 O   0  0  0  0  0  0  0  0  0  0  0  0
   59.9970   30.1830   49.6650 N   0  0  0  0  0  0  0  0  0  0  0  0
   61.0140   30.3830   48.6240 C   0  0  0  0  0  0  0  0  0  0  0  0
   60.4080   30.0060   47.2740 C   0  0  0  0  0  0  0  0  0  0  0  0
   59.0520   30.5580   47.1250 N   0  0  0  0  0  0  0  0  0  0  0  0
   58.3480   30.3560   45.8800 C   0  0  0  0  0  0  0  0  0  0  0  0
   57.6140   29.1750   45.6600 C   0  0  0  0  0  0  0  0  0  0  0  0
   56.9380   28.9760   44.4520 C   0  0  0  0  0  0  0  0  0  0  0  0
   56.9890   29.9490   43.4500 C   0  0  0  0  0  0  0  0  0  0  0  0
   57.7140   31.1260   43.6550 C   0  0  0  0  0  0  0  0  0  0  0  0
   57.7840   32.3430   42.3960 Cl  0  0  0  0  0  0  0  0  0  0  0  0
   58.3900   31.3300   44.8630 C   0  0  0  0  0  0  0  0  0  0  0  0
   58.5520   31.5470   48.0940 C   0  0  0  0  0  0  0  0  0  0  0  0
   58.9070   31.1770   49.5540 C   0  0  0  0  0  0  0  0  0  0  0  0
   62.8430   32.0880   50.7470 C   0  0  0  0  0  0  0  0  0  0  0  0
   62.0050   33.2370   50.5430 N   0  0  0  0  0  0  0  0  0  0  0  0
   62.3180   34.2740   49.5580 C   0  0  0  0  0  0  0  0  0  0  0  0
   61.3550   34.2070   48.3990 C   0  0  0  0  0  0  0  0  0  0  0  0
   60.0170   34.5980   48.6010 C   0  0  0  0  0  0  0  0  0  0  0  0
   59.1070   34.5750   47.5420 C   0  0  0  0  0  0  0  0  0  0  0  0
   59.5230   34.1760   46.2690 C   0  0  0  0  0  0  0  0  0  0  0  0
   60.8530   33.8060   46.0500 C   0  0  0  0  0  0  0  0  0  0  0  0
   61.7750   33.8250   47.1040 C   0  0  0  0  0  0  0  0  0  0  0  0
   63.4440   33.3690   46.7640 Cl  0  0  0  0  0  0  0  0  0  0  0  0
   65.4599   33.6021   51.3876 H   0  0  0  0  0  0  0  0  0  0  0  0
   65.9717   32.8122   49.8577 H   0  0  0  0  0  0  0  0  0  0  0  0
   64.5888   33.9586   49.8577 H   0  0  0  0  0  0  0  0  0  0  0  0
   65.5896   30.4497   51.0280 H   0  0  0  0  0  0  0  0  0  0  0  0
   63.4800   29.0050   51.4680 H   0  0  0  0  0  0  0  0  0  0  0  0
   61.3266   31.4375   48.6087 H   0  0  0  0  0  0  0  0  0  0  0  0
   61.8928   29.7546   48.8307 H   0  0  0  0  0  0  0  0  0  0  0  0
   61.0467   30.4025   46.4710 H   0  0  0  0  0  0  0  0  0  0  0  0
   60.3454   28.9094   47.2150 H   0  0  0  0  0  0  0  0  0  0  0  0
   57.5719   28.4038   46.4433 H   0  0  0  0  0  0  0  0  0  0  0  0
   56.3647   28.0513   44.2901 H   0  0  0  0  0  0  0  0  0  0  0  0
   56.4584   29.7883   42.4999 H   0  0  0  0  0  0  0  0  0  0  0  0
   58.9588   32.2584   45.0198 H   0  0  0  0  0  0  0  0  0  0  0  0
   58.9959   32.5259   47.8601 H   0  0  0  0  0  0  0  0  0  0  0  0
   57.4553   31.5707   48.0121 H   0  0  0  0  0  0  0  0  0  0  0  0
   59.2165   32.0926   50.0793 H   0  0  0  0  0  0  0  0  0  0  0  0
   58.0095   30.7224   49.9988 H   0  0  0  0  0  0  0  0  0  0  0  0
   61.0570   33.2290   50.9860 H   0  0  0  0  0  0  0  0  0  0  0  0
   62.2421   35.2620   50.0355 H   0  0  0  0  0  0  0  0  0  0  0  0
   63.3393   34.1127   49.1827 H   0  0  0  0  0  0  0  0  0  0  0  0
   59.6870   34.9233   49.5986 H   0  0  0  0  0  0  0  0  0  0  0  0
   58.0611   34.8714   47.7101 H   0  0  0  0  0  0  0  0  0  0  0  0
   58.8027   34.1531   45.4380 H   0  0  0  0  0  0  0  0  0  0  0  0
   61.1771   33.4984   45.0448 H   0  0  0  0  0  0  0  0  0  0  0  0
  1  2  1  0
  2  3  1  0
  3  4  2  0
  4  5  1  0
  5  6  1  0
  6  7  2  0
  6  8  2  0
  6  9  1  0
  9 10  1  0
 10 11  1  0
 11 12  1  0
 12 13  1  0
 13 14  2  0
 14 15  1  0
 15 16  2  0
 16 17  1  0
 17 18  1  0
 17 19  2  0
 12 20  1  0
 20 21  1  0
  5 22  2  0
 22 23  1  0
 23 24  1  0
 24 25  1  0
 25 26  2  0
 26 27  1  0
 27 28  2  0
 28 29  1  0
 29 30  2  0
 30 31  1  0
 22  2  1  0
 30 25  1  0
 21  9  1  0
 19 13  1  0
  1 32  1  0
  1 33  1  0
  1 34  1  0
  3 35  1  0
  4 36  1  0
 10 37  1  0
 10 38  1  0
 11 39  1  0
 11 40  1  0
 14 41  1  0
 15 42  1  0
 16 43  1  0
 19 44  1  0
 20 45  1  0
 20 46  1  0
 21 47  1  0
 21 48  1  0
 23 49  1  0
 24 50  1  0
 24 51  1  0
 26 52  1  0
 27 53  1  0
 28 54  1  0
 29 55  1  0
M  CHG  1   4   1
M  END
>  <UniqueID>  (88) 
83

>  <SMILES>  (88) 
Cn1c[nH+]c(S(=O)(=O)N2CCN(c3cccc(Cl)c3)CC2)c1NCc1ccccc1Cl

>  <Energy>  (88) 
99.44938031042756

>  <Genealogy>  (88) 
Cn1c[nH+]c(S(=O)(=O)N2CCN(c3cccc(Cl)c3)CC2)c1NCc1ccccc1Cl (protonated)
Cn1c[nH+]c(S(=O)(=O)N2CCN(c3cccc(Cl)c3)CC2)c1NCc1ccccc1Cl (3D coordinates assigned)
Cn1c[nH+]c(S(=O)(=O)N2CCN(c3cccc(Cl)c3)CC2)c1NCc1ccccc1Cl (nonaromatic ring conformer: 99.44938031042756 kcal/mol)

>  <smiles>  (88) 
Cn1cnc(S(=O)(=O)N2CCN(c3cccc(Cl)c3)CC2)c1NCc1ccccc1Cl

>  <score_type>  (88) 
oracle

>  <origin>  (88) 
adg

>  <m_score__min__energy>  (88) 
-6.9900000000000002

>  <m_primary>  (88) 
energy

$$$$
88:0
     RDKit          3D

 43 45  0  0  0  0  0  0  0  0999 V2000
   52.7920   24.1950   45.2530 C   0  0  0  0  0  0  0  0  0  0  0  0
   54.1780   23.5970   45.5670 C   0  0  1  0  0  0  0  0  0  0  0  0
   54.2490   23.0110   46.9840 C   0  0  0  0  0  0  0  0  0  0  0  0
   55.4630   22.9490   47.7120 C   0  0  0  0  0  0  0  0  0  0  0  0
   55.4910   22.4500   49.0230 C   0  0  0  0  0  0  0  0  0  0  0  0
   54.3160   22.0120   49.6310 C   0  0  0  0  0  0  0  0  0  0  0  0
   53.1080   22.0670   48.9270 C   0  0  0  0  0  0  0  0  0  0  0  0
   53.0720   22.5640   47.6180 C   0  0  0  0  0  0  0  0  0  0  0  0
   54.5010   22.5960   44.5450 N   0  0  0  0  0  0  0  0  0  0  0  0
   55.6530   23.0490   43.8470 C   0  0  0  0  0  0  0  0  0  0  0  0
   56.2060   22.3780   42.9340 O   0  0  0  0  0  0  0  0  0  0  0  0
   56.1600   24.2820   44.3190 N   0  0  0  0  0  0  0  0  0  0  0  0
   57.5760   24.6670   44.2950 C   0  0  0  0  0  0  0  0  0  0  0  0
   58.1970   24.3630   45.6270 C   0  0  0  0  0  0  0  0  0  0  0  0
   58.7170   23.2340   45.8340 O   0  0  0  0  0  0  0  0  0  0  0  0
   58.1920   25.3630   46.6540 N   0  0  0  0  0  0  0  0  0  0  0  0
   58.4980   26.7560   46.4620 C   0  0  0  0  0  0  0  0  0  0  0  0
   59.6430   27.3540   47.0320 C   0  0  0  0  0  0  0  0  0  0  0  0
   59.9140   28.7120   46.8200 C   0  0  0  0  0  0  0  0  0  0  0  0
   59.0440   29.4860   46.0520 C   0  0  0  0  0  0  0  0  0  0  0  0
   57.8770   28.9120   45.5160 C   0  0  0  0  0  0  0  0  0  0  0  0
   56.7670   29.8730   44.5420 S   0  0  0  0  0  0  0  0  0  0  0  0
   55.1430   29.3430   44.8300 N   0  0  0  0  0  0  0  0  0  0  0  0
   57.0960   29.7160   43.0830 O   0  0  0  0  0  0  0  0  0  0  0  0
   56.8940   31.3270   44.9020 O   0  0  0  0  0  0  0  0  0  0  0  0
   57.6010   27.5500   45.7330 C   0  0  0  0  0  0  0  0  0  0  0  0
   55.2650   24.6220   45.3670 C   0  0  0  0  0  0  0  0  0  0  0  0
   55.4130   25.6470   46.0800 O   0  0  0  0  0  0  0  0  0  0  0  0
   52.2685   24.4209   46.1937 H   0  0  0  0  0  0  0  0  0  0  0  0
   52.9152   25.1200   44.6706 H   0  0  0  0  0  0  0  0  0  0  0  0
   52.2035   23.4707   44.6706 H   0  0  0  0  0  0  0  0  0  0  0  0
   56.3955   23.2966   47.2433 H   0  0  0  0  0  0  0  0  0  0  0  0
   56.4429   22.4044   49.5724 H   0  0  0  0  0  0  0  0  0  0  0  0
   54.3381   21.6246   50.6603 H   0  0  0  0  0  0  0  0  0  0  0  0
   52.1807   21.7177   49.4046 H   0  0  0  0  0  0  0  0  0  0  0  0
   52.1143   22.6060   47.0785 H   0  0  0  0  0  0  0  0  0  0  0  0
   58.0972   24.1007   43.5091 H   0  0  0  0  0  0  0  0  0  0  0  0
   57.6609   25.7438   44.0868 H   0  0  0  0  0  0  0  0  0  0  0  0
   60.3266   26.7497   47.6465 H   0  0  0  0  0  0  0  0  0  0  0  0
   60.8133   29.1682   47.2594 H   0  0  0  0  0  0  0  0  0  0  0  0
   59.2707   30.5461   45.8654 H   0  0  0  0  0  0  0  0  0  0  0  0
   55.1810   28.6750   45.6360 H   0  0  0  0  0  0  0  0  0  0  0  0
   56.6788   27.1063   45.3297 H   0  0  0  0  0  0  0  0  0  0  0  0
  2  1  1  6
  2  3  1  0
  3  4  2  0
  4  5  1  0
  5  6  2  0
  6  7  1  0
  7  8  2  0
  2  9  1  0
  9 10  1  0
 10 11  2  0
 10 12  1  0
 12 13  1  0
 13 14  1  0
 14 15  2  0
 14 16  1  0
 16 17  1  0
 17 18  2  0
 18 19  1  0
 19 20  2  0
 20 21  1  0
 21 22  1  0
 22 23  1  0
 22 24  2  0
 22 25  2  0
 21 26  2  0
 12 27  1  0
 27 28  2  0
 27  2  1  0
  8  3  1  0
 26 17  1  0
  1 29  1  0
  1 30  1  0
  1 31  1  0
  4 32  1  0
  5 33  1  0
  6 34  1  0
  7 35  1  0
  8 36  1  0
 13 37  1  0
 13 38  1  0
 18 39  1  0
 19 40  1  0
 20 41  1  0
 23 42  1  0
 26 43  1  0
M  CHG  3   9  -1  16  -1  23  -1
M  END
>  <UniqueID>  (89) 
84

>  <SMILES>  (89) 
C[C@@]1(c2ccccc2)[N-]C(=O)N(CC(=O)[N-]c2cccc(S([NH-])(=O)=O)c2)C1=O

>  <Energy>  (89) 
64.66910217668553

>  <Genealogy>  (89) 
CC1(c2ccccc2)[N-]C(=O)N(CC(=O)[N-]c2cccc(S([NH-])(=O)=O)c2)C1=O (protonated)
C[C@@]1(c2ccccc2)[N-]C(=O)N(CC(=O)[N-]c2cccc(S([NH-])(=O)=O)c2)C1=O (chirality)
C[C@@]1(c2ccccc2)[N-]C(=O)N(CC(=O)[N-]c2cccc(S([NH-])(=O)=O)c2)C1=O (3D coordinates assigned)
C[C@@]1(c2ccccc2)[N-]C(=O)N(CC(=O)[N-]c2cccc(S([NH-])(=O)=O)c2)C1=O (nonaromatic ring conformer: 64.66910217668553 kcal/mol)

>  <smiles>  (89) 
CC1(c2ccccc2)NC(=O)N(CC(=O)Nc2cccc(S(N)(=O)=O)c2)C1=O

>  <score_type>  (89) 
oracle

>  <origin>  (89) 
adg

>  <m_score__min__energy>  (89) 
-14

>  <m_primary>  (89) 
energy

$$$$
89:0
     RDKit          3D

 64 67  0  0  0  0  0  0  0  0999 V2000
   56.6170   22.3290   41.4910 H   0  0  0  0  0  0  0  0  0  0  0  0
   56.2380   21.8190   42.3220 N   0  0  0  0  0  0  0  0  0  0  0  0
   56.3040   22.3020   43.5220 C   0  0  0  0  0  0  0  0  0  0  0  0
   55.3500   23.1720   43.9440 N   0  0  0  0  0  0  0  0  0  0  0  0
   55.3580   23.7210   45.1910 C   0  0  0  0  0  0  0  0  0  0  0  0
   54.2530   24.6680   45.5570 C   0  0  0  0  0  0  0  0  0  0  0  0
   54.1751   24.7348   46.6522 H   0  0  0  0  0  0  0  0  0  0  0  0
   54.4714   25.6637   45.1435 H   0  0  0  0  0  0  0  0  0  0  0  0
   53.3025   24.2997   45.1435 H   0  0  0  0  0  0  0  0  0  0  0  0
   56.4070   23.4010   46.0880 C   0  0  0  0  0  0  0  0  0  0  0  0
   56.4770   23.9800   47.4830 C   0  0  0  0  0  0  0  0  0  0  0  0
   55.6337   24.6707   47.6302 H   0  0  0  0  0  0  0  0  0  0  0  0
   56.4270   23.1569   48.2110 H   0  0  0  0  0  0  0  0  0  0  0  0
   57.7310   24.7050   47.6780 N   0  0  0  0  0  0  0  0  0  0  0  0
   58.4780   25.3830   46.6590 C   0  0  0  0  0  0  0  0  0  0  0  0
   59.2050   24.7040   45.8890 O   0  0  0  0  0  0  0  0  0  0  0  0
   58.3980   26.8440   46.4650 C   0  0  0  0  0  0  0  0  0  0  0  0
   58.7560   27.7200   47.5000 C   0  0  0  0  0  0  0  0  0  0  0  0
   59.0961   27.3164   48.4651 H   0  0  0  0  0  0  0  0  0  0  0  0
   58.6830   29.1020   47.3120 C   0  0  0  0  0  0  0  0  0  0  0  0
   58.9506   29.7815   48.1346 H   0  0  0  0  0  0  0  0  0  0  0  0
   58.2700   29.6270   46.0790 C   0  0  0  0  0  0  0  0  0  0  0  0
   58.1910   31.0140   45.8840 C   0  0  0  0  0  0  0  0  0  0  0  0
   58.4525   31.6962   46.7063 H   0  0  0  0  0  0  0  0  0  0  0  0
   57.7790   31.5410   44.6420 C   0  0  0  0  0  0  0  0  0  0  0  0
   57.6740   32.9250   44.4040 O   0  0  0  0  0  0  0  0  0  0  0  0
   57.1950   33.9170   45.3160 C   0  0  0  0  0  0  0  0  0  0  0  0
   56.8260   34.7811   44.7440 H   0  0  0  0  0  0  0  0  0  0  0  0
   56.3873   33.4743   45.9173 H   0  0  0  0  0  0  0  0  0  0  0  0
   58.3050   34.3840   46.2660 C   0  0  0  0  0  0  0  0  0  0  0  0
   58.0850   35.4139   46.5836 H   0  0  0  0  0  0  0  0  0  0  0  0
   58.3248   33.6886   47.1180 H   0  0  0  0  0  0  0  0  0  0  0  0
   59.6920   34.3580   45.6190 C   0  0  0  0  0  0  0  0  0  0  0  0
   59.6347   33.8243   44.6588 H   0  0  0  0  0  0  0  0  0  0  0  0
   60.0303   35.3918   45.4555 H   0  0  0  0  0  0  0  0  0  0  0  0
   60.6680   33.6620   46.5130 C   0  0  0  0  0  0  0  0  0  0  0  0
   60.3370   32.7840   47.4350 O   0  0  0  0  0  0  0  0  0  0  0  0
   61.3950   32.3750   48.0690 N   0  0  0  0  0  0  0  0  0  0  0  0
   61.3960   31.6690   48.8380 H   0  0  0  0  0  0  0  0  0  0  0  0
   62.4610   33.0150   47.5530 C   0  0  0  0  0  0  0  0  0  0  0  0
   63.8760   32.7880   47.9870 C   0  0  0  0  0  0  0  0  0  0  0  0
   64.4394   32.3266   47.1626 H   0  0  0  0  0  0  0  0  0  0  0  0
   64.3283   33.7538   48.2564 H   0  0  0  0  0  0  0  0  0  0  0  0
   63.9100   31.9320   49.1130 O   0  0  0  0  0  0  0  0  0  0  0  0
   64.9680   32.2950   49.9730 C   0  0  0  0  0  0  0  0  0  0  0  0
   64.6450   32.1842   51.0187 H   0  0  0  0  0  0  0  0  0  0  0  0
   65.8334   31.6424   49.7854 H   0  0  0  0  0  0  0  0  0  0  0  0
   65.2504   33.3414   49.7854 H   0  0  0  0  0  0  0  0  0  0  0  0
   62.0380   33.8520   46.5400 C   0  0  0  0  0  0  0  0  0  0  0  0
   62.6460   34.5131   45.9050 H   0  0  0  0  0  0  0  0  0  0  0  0
   57.4640   30.6610   43.5890 C   0  0  0  0  0  0  0  0  0  0  0  0
   57.0150   31.2030   42.2610 C   0  0  0  0  0  0  0  0  0  0  0  0
   56.3209   32.0409   42.4227 H   0  0  0  0  0  0  0  0  0  0  0  0
   57.8894   31.5554   41.6942 H   0  0  0  0  0  0  0  0  0  0  0  0
   56.5061   30.4094   41.6942 H   0  0  0  0  0  0  0  0  0  0  0  0
   57.5320   29.2720   43.7890 C   0  0  0  0  0  0  0  0  0  0  0  0
   57.2681   28.5890   42.9681 H   0  0  0  0  0  0  0  0  0  0  0  0
   57.9330   28.7500   45.0250 C   0  0  0  0  0  0  0  0  0  0  0  0
   58.0060   27.3630   45.2230 C   0  0  0  0  0  0  0  0  0  0  0  0
   57.7543   26.6789   44.3992 H   0  0  0  0  0  0  0  0  0  0  0  0
   57.3890   22.4910   45.6690 C   0  0  0  0  0  0  0  0  0  0  0  0
   58.2012   22.2098   46.3554 H   0  0  0  0  0  0  0  0  0  0  0  0
   57.3430   21.9400   44.3880 C   0  0  0  0  0  0  0  0  0  0  0  0
   58.1155   21.2281   44.0616 H   0  0  0  0  0  0  0  0  0  0  0  0
  1  2  1  0
  2  3  2  0
  3  4  1  0
  4  5  1  0
  5  6  1  0
  6  7  1  0
  6  8  1  0
  6  9  1  0
  5 10  2  0
 10 11  1  0
 11 12  1  0
 11 13  1  0
 11 14  1  0
 14 15  1  0
 15 16  2  0
 15 17  1  0
 17 18  2  0
 18 19  1  0
 18 20  1  0
 20 21  1  0
 20 22  2  0
 22 23  1  0
 23 24  1  0
 23 25  2  0
 25 26  1  0
 26 27  1  0
 27 28  1  0
 27 29  1  0
 27 30  1  0
 30 31  1  0
 30 32  1  0
 30 33  1  0
 33 34  1  0
 33 35  1  0
 33 36  1  0
 36 37  1  0
 37 38  1  0
 38 39  1  0
 38 40  2  0
 40 41  1  0
 41 42  1  0
 41 43  1  0
 41 44  1  0
 44 45  1  0
 45 46  1  0
 45 47  1  0
 45 48  1  0
 40 49  1  0
 49 50  1  0
 25 51  1  0
 51 52  1  0
 52 53  1  0
 52 54  1  0
 52 55  1  0
 51 56  2  0
 56 57  1  0
 56 58  1  0
 58 59  2  0
 59 60  1  0
 10 61  1  0
 61 62  1  0
 61 63  2  0
 63 64  1  0
 63  3  1  0
 59 17  1  0
 58 22  1  0
 49 36  2  0
M  CHG  3   4  -1  14  -1  38   1
M  END
>  <UniqueID>  (90) 
85

>  <SMILES>  (90) 
[H]/N=c1\ccc(C[N-]C(=O)c2ccc3cc(OCCCc4cc(COC)[nH+]o4)c(C)cc3c2)c(C)[n-]1

>  <Energy>  (90) 
105.66775792767444

>  <Genealogy>  (90) 
COCc1cc(CCCOc2cc3ccc(C(=O)[N-]Cc4ccc(=N)[n-]c4C)cc3cc2C)o[nH+]1 (protonated)
[H]/N=c1\ccc(C[N-]C(=O)c2ccc3cc(OCCCc4cc(COC)[nH+]o4)c(C)cc3c2)c(C)[n-]1 (cis-trans isomerization)
[H]/N=c1\ccc(C[N-]C(=O)c2ccc3cc(OCCCc4cc(COC)[nH+]o4)c(C)cc3c2)c(C)[n-]1 (3D coordinates assigned)
[H]/N=c1\ccc(C[N-]C(=O)c2ccc3cc(OCCCc4cc(COC)[nH+]o4)c(C)cc3c2)c(C)[n-]1 (optimized conformer: 105.66775792767444 kcal/mol)

>  <smiles>  (90) 
COCc1cc(CCCOc2cc3ccc(C(=O)NCc4ccc(=N)[nH]c4C)cc3cc2C)on1

>  <score_type>  (90) 
oracle

>  <origin>  (90) 
adg

>  <m_score__min__energy>  (90) 
-11.460000000000001

>  <m_primary>  (90) 
energy

$$$$
90:0
     RDKit          3D

 67 71  0  0  0  0  0  0  0  0999 V2000
   52.5480   19.2640   44.4630 H   0  0  0  0  0  0  0  0  0  0  0  0
   53.2060   19.1160   45.2210 O   0  0  0  0  0  0  0  0  0  0  0  0
   53.1590   19.8730   46.3900 C   0  0  0  0  0  0  0  0  0  0  0  0
   54.0020   19.5630   47.4660 C   0  0  0  0  0  0  0  0  0  0  0  0
   54.6936   18.7112   47.3875 H   0  0  0  0  0  0  0  0  0  0  0  0
   53.9730   20.3320   48.6490 C   0  0  0  0  0  0  0  0  0  0  0  0
   54.8320   20.0460   49.8310 C   0  0  0  0  0  0  0  0  0  0  0  0
   54.3358   19.8596   50.7949 H   0  0  0  0  0  0  0  0  0  0  0  0
   56.1720   20.0010   49.7960 C   0  0  0  0  0  0  0  0  0  0  0  0
   56.6722   19.0305   49.9301 H   0  0  0  0  0  0  0  0  0  0  0  0
   57.0030   21.2060   49.5840 C   0  0  0  0  0  0  0  0  0  0  0  0
   57.4580   21.8530   50.5660 O   0  0  0  0  0  0  0  0  0  0  0  0
   57.3670   21.6090   48.2590 N   0  0  0  0  0  0  0  0  0  0  0  0
   56.6800   22.6400   47.5430 C   0  0  0  0  0  0  0  0  0  0  0  0
   55.4640   22.3460   46.8870 C   0  0  0  0  0  0  0  0  0  0  0  0
   55.0795   21.3154   46.8872 H   0  0  0  0  0  0  0  0  0  0  0  0
   54.7400   23.3610   46.2330 C   0  0  0  0  0  0  0  0  0  0  0  0
   53.7869   23.1423   45.7292 H   0  0  0  0  0  0  0  0  0  0  0  0
   55.2670   24.6510   46.2430 C   0  0  0  0  0  0  0  0  0  0  0  0
   54.7500   25.7300   45.6220 N   0  0  0  0  0  0  0  0  0  0  0  0
   55.6550   26.7080   45.8580 C   0  0  0  0  0  0  0  0  0  0  0  0
   55.5290   27.9930   45.3460 O   0  0  0  0  0  0  0  0  0  0  0  0
   56.7150   26.2710   46.6410 C   0  0  0  0  0  0  0  0  0  0  0  0
   57.9750   26.9920   46.8740 C   0  0  0  0  0  0  0  0  0  0  0  0
   58.8417   26.3976   47.1988 H   0  0  0  0  0  0  0  0  0  0  0  0
   58.1590   28.3170   46.7240 C   0  0  0  0  0  0  0  0  0  0  0  0
   58.6120   29.2570   47.6610 C   0  0  0  0  0  0  0  0  0  0  0  0
   58.9730   29.0470   49.1050 C   0  0  0  0  0  0  0  0  0  0  0  0
   58.1999   29.4967   49.7454 H   0  0  0  0  0  0  0  0  0  0  0  0
   59.0400   27.9690   49.3132 H   0  0  0  0  0  0  0  0  0  0  0  0
   59.9432   29.5216   49.3132 H   0  0  0  0  0  0  0  0  0  0  0  0
   58.6610   30.4730   46.9880 C   0  0  0  0  0  0  0  0  0  0  0  0
   59.1570   31.7560   47.5210 C   0  0  0  0  0  0  0  0  0  0  0  0
   58.3280   32.5540   48.0330 O   0  0  0  0  0  0  0  0  0  0  0  0
   60.5550   32.1050   47.4620 N   0  0  0  0  0  0  0  0  0  0  0  0
   60.9040   33.5350   47.4520 C   0  0  0  0  0  0  0  0  0  0  0  0
   60.5025   33.9875   46.5333 H   0  0  0  0  0  0  0  0  0  0  0  0
   60.4689   33.9865   48.3558 H   0  0  0  0  0  0  0  0  0  0  0  0
   62.4150   33.7820   47.4980 C   0  0  0  0  0  0  0  0  0  0  0  0
   62.6299   34.7745   47.0751 H   0  0  0  0  0  0  0  0  0  0  0  0
   62.7462   33.7283   48.5456 H   0  0  0  0  0  0  0  0  0  0  0  0
   63.1110   32.8060   46.7580 O   0  0  0  0  0  0  0  0  0  0  0  0
   62.9950   31.5670   47.4210 C   0  0  0  0  0  0  0  0  0  0  0  0
   63.6788   30.8423   46.9550 H   0  0  0  0  0  0  0  0  0  0  0  0
   63.2532   31.7067   48.4811 H   0  0  0  0  0  0  0  0  0  0  0  0
   61.5620   31.0380   47.3280 C   0  0  0  0  0  0  0  0  0  0  0  0
   61.4295   30.5490   46.3516 H   0  0  0  0  0  0  0  0  0  0  0  0
   61.4125   30.3323   48.1584 H   0  0  0  0  0  0  0  0  0  0  0  0
   58.2190   30.2330   45.6990 C   0  0  0  0  0  0  0  0  0  0  0  0
   58.1050   31.1360   44.7210 C   0  0  0  0  0  0  0  0  0  0  0  0
   58.3842   32.1840   44.9047 H   0  0  0  0  0  0  0  0  0  0  0  0
   57.7319   30.8315   43.7320 H   0  0  0  0  0  0  0  0  0  0  0  0
   57.8980   28.9350   45.5510 N   0  0  0  0  0  0  0  0  0  0  0  0
   57.5440   28.4820   44.6770 H   0  0  0  0  0  0  0  0  0  0  0  0
   56.4600   24.9340   46.8600 C   0  0  0  0  0  0  0  0  0  0  0  0
   57.2050   23.9490   47.5060 C   0  0  0  0  0  0  0  0  0  0  0  0
   58.1727   24.1850   47.9727 H   0  0  0  0  0  0  0  0  0  0  0  0
   53.0880   21.4190   48.7190 C   0  0  0  0  0  0  0  0  0  0  0  0
   53.0602   22.0388   49.6273 H   0  0  0  0  0  0  0  0  0  0  0  0
   52.2420   21.7240   47.6500 C   0  0  0  0  0  0  0  0  0  0  0  0
   51.5482   22.5741   47.7279 H   0  0  0  0  0  0  0  0  0  0  0  0
   52.2710   20.9520   46.4750 C   0  0  0  0  0  0  0  0  0  0  0  0
   51.4460   21.2300   45.3740 O   0  0  0  0  0  0  0  0  0  0  0  0
   50.6320   22.3910   45.2510 C   0  0  0  0  0  0  0  0  0  0  0  0
   50.3708   22.7635   46.2525 H   0  0  0  0  0  0  0  0  0  0  0  0
   51.1834   23.1690   44.7027 H   0  0  0  0  0  0  0  0  0  0  0  0
   49.7126   22.1378   44.7027 H   0  0  0  0  0  0  0  0  0  0  0  0
  1  2  1  0
  2  3  1  0
  3  4  2  0
  4  5  1  0
  4  6  1  0
  6  7  1  0
  7  8  1  0
  7  9  2  0
  9 10  1  0
  9 11  1  0
 11 12  2  0
 11 13  1  0
 13 14  1  0
 14 15  2  0
 15 16  1  0
 15 17  1  0
 17 18  1  0
 17 19  2  0
 19 20  1  0
 20 21  1  0
 21 22  1  0
 21 23  2  0
 23 24  1  0
 24 25  1  0
 24 26  2  3
 26 27  1  0
 27 28  1  0
 28 29  1  0
 28 30  1  0
 28 31  1  0
 27 32  2  0
 32 33  1  0
 33 34  2  0
 33 35  1  0
 35 36  1  0
 36 37  1  0
 36 38  1  0
 36 39  1  0
 39 40  1  0
 39 41  1  0
 39 42  1  0
 42 43  1  0
 43 44  1  0
 43 45  1  0
 43 46  1  0
 46 47  1  0
 46 48  1  0
 32 49  1  0
 49 50  2  0
 50 51  1  0
 50 52  1  0
 49 53  1  0
 53 54  1  0
 23 55  1  0
 55 56  2  0
 56 57  1  0
  6 58  2  0
 58 59  1  0
 58 60  1  0
 60 61  1  0
 60 62  2  0
 62 63  1  0
 63 64  1  0
 64 65  1  0
 64 66  1  0
 64 67  1  0
 62  3  1  0
 56 14  1  0
 55 19  1  0
 53 26  1  0
 46 35  1  0
M  CHG  3  13  -1  20  -1  22  -1
M  END
>  <UniqueID>  (91) 
86

>  <SMILES>  (91) 
C=c1[nH]c(=Cc2c([O-])[n-]c3ccc([N-]C(=O)/C=C/c4ccc(OC)c(O)c4)cc23)c(C)c1C(=O)N1CCOCC1

>  <Energy>  (91) 
152.0035781147479

>  <Genealogy>  (91) 
C=c1[nH]c(=Cc2c([O-])[n-]c3ccc([N-]C(=O)C=Cc4ccc(OC)c(O)c4)cc23)c(C)c1C(=O)N1CCOCC1 (protonated)
C=c1[nH]c(=Cc2c([O-])[n-]c3ccc([N-]C(=O)/C=C/c4ccc(OC)c(O)c4)cc23)c(C)c1C(=O)N1CCOCC1 (cis-trans isomerization)
C=c1[nH]c(=Cc2c([O-])[n-]c3ccc([N-]C(=O)/C=C/c4ccc(OC)c(O)c4)cc23)c(C)c1C(=O)N1CCOCC1 (3D coordinates assigned)
C=c1[nH]c(=Cc2c([O-])[n-]c3ccc([N-]C(=O)/C=C/c4ccc(OC)c(O)c4)cc23)c(C)c1C(=O)N1CCOCC1 (nonaromatic ring conformer: 152.0035781147479 kcal/mol)

>  <smiles>  (91) 
C=c1[nH]c(=Cc2c(O)[nH]c3ccc(NC(=O)C=Cc4ccc(OC)c(O)c4)cc23)c(C)c1C(=O)N1CCOCC1

>  <score_type>  (91) 
oracle

>  <origin>  (91) 
adg

>  <m_score__min__energy>  (91) 
-15.470000000000001

>  <m_primary>  (91) 
energy

$$$$
91:0
     RDKit          3D

 33 34  0  0  1  0  0  0  0  0999 V2000
   58.9180   29.7030   47.4200 O   0  0  0  0  0  0  0  0  0  0  0  0
   59.3890   30.7170   48.0310 C   0  0  0  0  0  0  0  0  0  0  0  0
   60.5850   30.5580   48.8980 C   0  0  0  0  0  0  0  0  0  0  0  0
   61.5750   31.6160   48.5570 C   0  0  0  0  0  0  0  0  0  0  0  0
   62.4540   31.4200   47.4950 C   0  0  0  0  0  0  0  0  0  0  0  0
   63.3920   32.3630   47.1310 C   0  0  0  0  0  0  0  0  0  0  0  0
   63.4750   33.5610   47.8450 C   0  0  0  0  0  0  0  0  0  0  0  0
   62.6030   33.7730   48.9100 C   0  0  0  0  0  0  0  0  0  0  0  0
   62.6980   34.9500   49.5960 F   0  0  0  0  0  0  0  0  0  0  0  0
   61.6590   32.8020   49.2610 C   0  0  0  0  0  0  0  0  0  0  0  0
   60.8160   33.0270   50.3050 F   0  0  0  0  0  0  0  0  0  0  0  0
   55.9400   30.2490   44.4940 N   0  0  0  0  0  0  0  0  0  0  0  0
   58.5510   32.3760   46.5550 C   0  0  0  0  0  0  0  0  0  0  0  0
   58.0640   31.6660   45.4840 N   0  0  0  0  0  0  0  0  0  0  0  0
   57.9790   32.2490   44.3520 C   0  0  0  0  0  0  0  0  0  0  0  0
   57.4460   31.5360   43.1050 C   0  0  0  0  0  0  0  0  0  0  0  0
   56.6880   30.3310   43.4370 C   0  0  0  0  0  0  0  0  0  0  0  0
   56.7400   29.2090   42.6180 O   0  0  0  0  0  0  0  0  0  0  0  0
   58.7230   31.9510   47.8340 N   0  0  0  0  0  0  0  0  0  0  0  0
   55.3460   29.0640   44.8800 O   0  0  0  0  0  0  0  0  0  0  0  0
   58.3690   33.5800   44.1970 C   0  0  0  0  0  0  0  0  0  0  0  0
   58.9330   34.0250   45.9430 S   0  0  0  0  0  0  0  0  0  0  0  0
   60.2908   30.6546   49.9535 H   0  0  0  0  0  0  0  0  0  0  0  0
   61.0314   29.5656   48.7370 H   0  0  0  0  0  0  0  0  0  0  0  0
   62.3982   30.4800   46.9265 H   0  0  0  0  0  0  0  0  0  0  0  0
   64.0694   32.1735   46.2853 H   0  0  0  0  0  0  0  0  0  0  0  0
   64.2174   34.3248   47.5703 H   0  0  0  0  0  0  0  0  0  0  0  0
   57.7840   30.6490   45.6780 H   0  0  0  0  0  0  0  0  0  0  0  0
   56.7895   32.2269   42.5558 H   0  0  0  0  0  0  0  0  0  0  0  0
   58.3099   31.2331   42.4952 H   0  0  0  0  0  0  0  0  0  0  0  0
   56.3340   28.3320   42.9630 H   0  0  0  0  0  0  0  0  0  0  0  0
   54.3910   28.9250   44.5580 H   0  0  0  0  0  0  0  0  0  0  0  0
   58.3522   34.2066   43.2931 H   0  0  0  0  0  0  0  0  0  0  0  0
  1  2  2  0
  2  3  1  0
  3  4  1  0
  4  5  2  0
  5  6  1  0
  6  7  2  0
  7  8  1  0
  8  9  1  0
  8 10  2  0
 10 11  1  0
  2 12  1  0
 12 13  2  0
 13 14  1  0
 14 15  1  0
 15 16  1  0
 16 17  1  0
 17 18  1  0
 17 19  2  0
 19 20  1  0
 15 21  2  0
 21 22  1  0
 10  4  1  0
 22 13  1  0
  3 23  1  0
  3 24  1  0
  5 25  1  0
  6 26  1  0
  7 27  1  0
 14 28  1  0
 16 29  1  0
 16 30  1  0
 18 31  1  0
 20 32  1  0
 21 33  1  0
M  END
>  <smiles>  (92) 
O=C(Cc1cccc(F)c1F)N=c1[nH]c(CC(O)=NO)cs1

>  <score_type>  (92) 
oracle

>  <origin>  (92) 
adg

>  <m_score__min__energy>  (92) 
-8.7599999999999998

>  <m_primary>  (92) 
energy

$$$$
92:0
     RDKit          3D

 44 46  0  0  0  0  0  0  0  0999 V2000
   56.2760   31.2110   44.4550 O   0  0  0  0  0  0  0  0  0  0  0  0
   57.2360   31.6900   45.1140 C   0  0  0  0  0  0  0  0  0  0  0  0
   58.3570   30.7840   45.5370 C   0  0  0  0  0  0  0  0  0  0  0  0
   58.6770   29.5090   44.2700 S   0  0  0  0  0  0  0  0  0  0  0  0
   58.0190   28.1580   45.2450 C   0  0  0  0  0  0  0  0  0  0  0  0
   58.8570   27.3790   45.9750 N   0  0  0  0  0  0  0  0  0  0  0  0
   58.3830   26.3460   46.7200 C   0  0  0  0  0  0  0  0  0  0  0  0
   59.1860   25.6770   47.4220 O   0  0  0  0  0  0  0  0  0  0  0  0
   57.0050   26.0610   46.7230 C   0  0  0  0  0  0  0  0  0  0  0  0
   56.4360   24.9930   47.4970 N   0  0  0  0  0  0  0  0  0  0  0  0
   56.8590   23.6230   47.4730 C   0  0  0  0  0  0  0  0  0  0  0  0
   57.3380   23.0950   48.5140 O   0  0  0  0  0  0  0  0  0  0  0  0
   56.7840   22.8440   46.2150 C   0  0  0  0  0  0  0  0  0  0  0  0
   56.7670   21.4370   46.2440 C   0  0  0  0  0  0  0  0  0  0  0  0
   56.6990   20.7040   45.0540 C   0  0  0  0  0  0  0  0  0  0  0  0
   56.6490   21.3660   43.8210 C   0  0  0  0  0  0  0  0  0  0  0  0
   56.5820   20.6460   42.6300 O   0  0  0  0  0  0  0  0  0  0  0  0
   56.6680   22.7620   43.7830 C   0  0  0  0  0  0  0  0  0  0  0  0
   56.7360   23.4990   44.9700 C   0  0  0  0  0  0  0  0  0  0  0  0
   56.1600   26.9050   45.9930 C   0  0  0  0  0  0  0  0  0  0  0  0
   54.7870   26.6970   45.9950 O   0  0  0  0  0  0  0  0  0  0  0  0
   56.6820   27.9260   45.2680 N   0  0  0  0  0  0  0  0  0  0  0  0
   57.2090   33.0790   45.4640 N   0  0  0  0  0  0  0  0  0  0  0  0
   58.2850   34.0210   45.1880 C   0  0  0  0  0  0  0  0  0  0  0  0
   59.3000   33.9530   46.2920 C   0  0  0  0  0  0  0  0  0  0  0  0
   60.6670   33.8370   45.9910 C   0  0  0  0  0  0  0  0  0  0  0  0
   61.6140   33.8080   47.0200 C   0  0  0  0  0  0  0  0  0  0  0  0
   61.2050   33.9040   48.3530 C   0  0  0  0  0  0  0  0  0  0  0  0
   59.8470   34.0350   48.6580 C   0  0  0  0  0  0  0  0  0  0  0  0
   58.8960   34.0650   47.6330 C   0  0  0  0  0  0  0  0  0  0  0  0
   59.2681   31.3826   45.6838 H   0  0  0  0  0  0  0  0  0  0  0  0
   58.0707   30.2843   46.4742 H   0  0  0  0  0  0  0  0  0  0  0  0
   56.8074   20.9100   47.2087 H   0  0  0  0  0  0  0  0  0  0  0  0
   56.6848   19.6046   45.0872 H   0  0  0  0  0  0  0  0  0  0  0  0
   57.0240   19.7390   42.5350 H   0  0  0  0  0  0  0  0  0  0  0  0
   56.6293   23.2841   42.8156 H   0  0  0  0  0  0  0  0  0  0  0  0
   56.7521   24.5982   44.9302 H   0  0  0  0  0  0  0  0  0  0  0  0
   58.7639   33.7619   44.2322 H   0  0  0  0  0  0  0  0  0  0  0  0
   57.8755   35.0401   45.1265 H   0  0  0  0  0  0  0  0  0  0  0  0
   60.9938   33.7688   44.9429 H   0  0  0  0  0  0  0  0  0  0  0  0
   62.6829   33.7094   46.7796 H   0  0  0  0  0  0  0  0  0  0  0  0
   61.9507   33.8765   49.1612 H   0  0  0  0  0  0  0  0  0  0  0  0
   59.5256   34.1147   49.7070 H   0  0  0  0  0  0  0  0  0  0  0  0
   57.8293   34.1765   47.8773 H   0  0  0  0  0  0  0  0  0  0  0  0
  1  2  2  0
  2  3  1  0
  3  4  1  0
  4  5  1  0
  5  6  2  0
  6  7  1  0
  7  8  2  0
  7  9  1  0
  9 10  1  0
 10 11  1  0
 11 12  2  0
 11 13  1  0
 13 14  2  0
 14 15  1  0
 15 16  2  0
 16 17  1  0
 16 18  1  0
 18 19  2  0
  9 20  2  0
 20 21  1  0
 20 22  1  0
  2 23  1  0
 23 24  1  0
 24 25  1  0
 25 26  2  0
 26 27  1  0
 27 28  2  0
 28 29  1  0
 29 30  2  0
 22  5  1  0
 30 25  1  0
 19 13  1  0
  3 31  1  0
  3 32  1  0
 14 33  1  0
 15 34  1  0
 17 35  1  0
 18 36  1  0
 19 37  1  0
 24 38  1  0
 24 39  1  0
 26 40  1  0
 27 41  1  0
 28 42  1  0
 29 43  1  0
 30 44  1  0
M  CHG  4  10  -1  21  -1  22  -1  23  -1
M  END
>  <UniqueID>  (93) 
87

>  <SMILES>  (93) 
O=C(CSc1nc(=O)c([N-]C(=O)c2ccc(O)cc2)c([O-])[n-]1)[N-]Cc1ccccc1

>  <Energy>  (93) 
47.28057354087775

>  <Genealogy>  (93) 
O=C(CSc1nc(=O)c([N-]C(=O)c2ccc(O)cc2)c([O-])[n-]1)[N-]Cc1ccccc1 (protonated)
O=C(CSc1nc(=O)c([N-]C(=O)c2ccc(O)cc2)c([O-])[n-]1)[N-]Cc1ccccc1 (3D coordinates assigned)
O=C(CSc1nc(=O)c([N-]C(=O)c2ccc(O)cc2)c([O-])[n-]1)[N-]Cc1ccccc1 (optimized conformer: 47.28057354087775 kcal/mol)

>  <smiles>  (93) 
O=C(CSc1nc(=O)c(NC(=O)c2ccc(O)cc2)c(O)[nH]1)NCc1ccccc1

>  <score_type>  (93) 
oracle

>  <origin>  (93) 
adg

>  <m_score__min__energy>  (93) 
-17.920000000000002

>  <m_primary>  (93) 
energy

$$$$
93:0
     RDKit          3D

 64 67  0  0  0  0  0  0  0  0999 V2000
   58.7510   32.3300   49.3970 C   0  0  0  0  0  0  0  0  0  0  0  0
   59.6420   33.6680   48.6320 S   0  0  0  0  0  0  0  0  0  0  0  0
   61.1200   33.4050   48.7220 O   0  0  0  0  0  0  0  0  0  0  0  0
   59.3340   34.9520   49.3560 O   0  0  0  0  0  0  0  0  0  0  0  0
   59.1710   33.7950   46.9410 C   0  0  0  0  0  0  0  0  0  0  0  0
   59.4600   34.9600   46.2220 C   0  0  0  0  0  0  0  0  0  0  0  0
   59.1040   35.0630   44.8750 C   0  0  0  0  0  0  0  0  0  0  0  0
   58.4510   34.0040   44.2400 C   0  0  0  0  0  0  0  0  0  0  0  0
   58.1400   32.8360   44.9520 C   0  0  0  0  0  0  0  0  0  0  0  0
   57.4690   31.7010   44.2860 C   0  0  0  0  0  0  0  0  0  0  0  0
   57.9850   31.2090   43.2470 O   0  0  0  0  0  0  0  0  0  0  0  0
   56.2600   31.1240   44.7990 N   0  0  0  0  0  0  0  0  0  0  0  0
   55.9420   29.7010   44.7860 C   0  0  0  0  0  0  0  0  0  0  0  0
   56.9320   28.9650   45.6480 C   0  0  0  0  0  0  0  0  0  0  0  0
   58.0800   29.6270   46.1180 C   0  0  0  0  0  0  0  0  0  0  0  0
   58.9950   28.9730   46.9650 C   0  0  0  0  0  0  0  0  0  0  0  0
   60.1980   29.6840   47.4770 C   0  0  0  0  0  0  0  0  0  0  0  0
   60.9790   30.4780   46.6170 C   0  0  0  0  0  0  0  0  0  0  0  0
   62.0930   31.1680   47.1030 C   0  0  0  0  0  0  0  0  0  0  0  0
   62.4610   31.0650   48.4520 C   0  0  0  0  0  0  0  0  0  0  0  0
   63.6110   31.8400   48.9660 C   0  0  0  0  0  0  0  0  0  0  0  0
   64.1650   32.6870   48.2150 O   0  0  0  0  0  0  0  0  0  0  0  0
   64.1010   31.6850   50.3010 N   0  0  0  0  0  0  0  0  0  0  0  0
   64.2080   32.7610   51.2830 C   0  0  0  0  0  0  0  0  0  0  0  0
   65.6810   33.0900   51.5790 C   0  0  0  0  0  0  0  0  0  0  0  0
   66.6140   32.6870   50.4140 C   0  0  0  0  0  0  0  0  0  0  0  0
   67.9310   33.4800   50.4520 C   0  0  0  0  0  0  0  0  0  0  0  0
   68.2450   33.8740   51.7740 O   0  0  0  0  0  0  0  0  0  0  0  0
   67.3620   34.8970   52.2030 C   0  0  0  0  0  0  0  0  0  0  0  0
   65.8700   34.5730   51.9450 C   0  0  0  0  0  0  0  0  0  0  0  0
   61.6770   30.2850   49.3150 C   0  0  0  0  0  0  0  0  0  0  0  0
   60.5620   29.5950   48.8320 C   0  0  0  0  0  0  0  0  0  0  0  0
   58.7430   27.6400   47.3370 C   0  0  0  0  0  0  0  0  0  0  0  0
   57.6010   26.9800   46.8730 C   0  0  0  0  0  0  0  0  0  0  0  0
   56.6940   27.6380   46.0410 C   0  0  0  0  0  0  0  0  0  0  0  0
   55.5540   26.9660   45.6130 O   0  0  0  0  0  0  0  0  0  0  0  0
   58.5260   32.7290   46.2980 C   0  0  0  0  0  0  0  0  0  0  0  0
   58.8145   32.4254   50.4910 H   0  0  0  0  0  0  0  0  0  0  0  0
   57.6964   32.3668   49.0863 H   0  0  0  0  0  0  0  0  0  0  0  0
   59.1915   31.3711   49.0863 H   0  0  0  0  0  0  0  0  0  0  0  0
   59.9697   35.7983   46.7194 H   0  0  0  0  0  0  0  0  0  0  0  0
   59.3383   35.9795   44.3136 H   0  0  0  0  0  0  0  0  0  0  0  0
   58.1795   34.0863   43.1772 H   0  0  0  0  0  0  0  0  0  0  0  0
   54.9262   29.5474   45.1791 H   0  0  0  0  0  0  0  0  0  0  0  0
   55.9942   29.3200   43.7554 H   0  0  0  0  0  0  0  0  0  0  0  0
   58.2657   30.6695   45.8201 H   0  0  0  0  0  0  0  0  0  0  0  0
   60.7105   30.5563   45.5532 H   0  0  0  0  0  0  0  0  0  0  0  0
   62.6855   31.7966   46.4220 H   0  0  0  0  0  0  0  0  0  0  0  0
   63.7107   33.6593   50.8885 H   0  0  0  0  0  0  0  0  0  0  0  0
   63.7267   32.4338   52.2164 H   0  0  0  0  0  0  0  0  0  0  0  0
   65.9666   32.4865   52.4532 H   0  0  0  0  0  0  0  0  0  0  0  0
   66.8401   31.6132   50.4912 H   0  0  0  0  0  0  0  0  0  0  0  0
   66.1019   32.9102   49.4664 H   0  0  0  0  0  0  0  0  0  0  0  0
   68.7429   32.8487   50.0619 H   0  0  0  0  0  0  0  0  0  0  0  0
   67.8156   34.3828   49.8342 H   0  0  0  0  0  0  0  0  0  0  0  0
   67.5036   35.0489   53.2832 H   0  0  0  0  0  0  0  0  0  0  0  0
   67.6030   35.7981   51.6200 H   0  0  0  0  0  0  0  0  0  0  0  0
   65.2916   34.7954   52.8538 H   0  0  0  0  0  0  0  0  0  0  0  0
   65.5190   35.1883   51.1035 H   0  0  0  0  0  0  0  0  0  0  0  0
   61.9420   30.2160   50.3804 H   0  0  0  0  0  0  0  0  0  0  0  0
   59.9640   28.9769   49.5178 H   0  0  0  0  0  0  0  0  0  0  0  0
   59.4485   27.1138   47.9968 H   0  0  0  0  0  0  0  0  0  0  0  0
   57.4163   25.9358   47.1655 H   0  0  0  0  0  0  0  0  0  0  0  0
   58.3207   31.8013   46.8523 H   0  0  0  0  0  0  0  0  0  0  0  0
  1  2  1  0
  2  3  2  0
  2  4  2  0
  2  5  1  0
  5  6  2  0
  6  7  1  0
  7  8  2  0
  8  9  1  0
  9 10  1  0
 10 11  2  0
 10 12  1  0
 12 13  1  0
 13 14  1  0
 14 15  2  0
 15 16  1  0
 16 17  1  0
 17 18  2  0
 18 19  1  0
 19 20  2  0
 20 21  1  0
 21 22  2  0
 21 23  1  0
 23 24  1  0
 24 25  1  0
 25 26  1  0
 26 27  1  0
 27 28  1  0
 28 29  1  0
 29 30  1  0
 20 31  1  0
 31 32  2  0
 16 33  2  0
 33 34  1  0
 34 35  2  0
 35 36  1  0
  9 37  2  0
 37  5  1  0
 35 14  1  0
 32 17  1  0
 30 25  1  0
  1 38  1  0
  1 39  1  0
  1 40  1  0
  6 41  1  0
  7 42  1  0
  8 43  1  0
 13 44  1  0
 13 45  1  0
 15 46  1  0
 18 47  1  0
 19 48  1  0
 24 49  1  0
 24 50  1  0
 25 51  1  0
 26 52  1  0
 26 53  1  0
 27 54  1  0
 27 55  1  0
 29 56  1  0
 29 57  1  0
 30 58  1  0
 30 59  1  0
 31 60  1  0
 32 61  1  0
 33 62  1  0
 34 63  1  0
 37 64  1  0
M  CHG  3  12  -1  23  -1  36  -1
M  END
>  <UniqueID>  (94) 
88

>  <SMILES>  (94) 
CS(=O)(=O)c1cccc(C(=O)[N-]Cc2cc(-c3ccc(C(=O)[N-]CC4CCOCC4)cc3)ccc2[O-])c1

>  <Energy>  (94) 
84.40060710699657

>  <Genealogy>  (94) 
CS(=O)(=O)c1cccc(C(=O)[N-]Cc2cc(-c3ccc(C(=O)[N-]CC4CCOCC4)cc3)ccc2[O-])c1 (protonated)
CS(=O)(=O)c1cccc(C(=O)[N-]Cc2cc(-c3ccc(C(=O)[N-]CC4CCOCC4)cc3)ccc2[O-])c1 (3D coordinates assigned)
CS(=O)(=O)c1cccc(C(=O)[N-]Cc2cc(-c3ccc(C(=O)[N-]CC4CCOCC4)cc3)ccc2[O-])c1 (nonaromatic ring conformer: 84.40060710699657 kcal/mol)

>  <smiles>  (94) 
CS(=O)(=O)c1cccc(C(=O)NCc2cc(-c3ccc(C(=O)NCC4CCOCC4)cc3)ccc2O)c1

>  <score_type>  (94) 
oracle

>  <origin>  (94) 
adg

>  <m_score__min__energy>  (94) 
-13.76

>  <m_primary>  (94) 
energy

$$$$
94:0
     RDKit          3D

 31 32  0  0  0  0  0  0  0  0999 V2000
   55.1290   26.7080   45.9980 O   0  0  0  0  0  0  0  0  0  0  0  0
   56.1480   25.9760   46.1030 C   0  0  0  0  0  0  0  0  0  0  0  0
   56.3760   25.2770   47.2820 O   0  0  0  0  0  0  0  0  0  0  0  0
   57.0920   25.8300   44.9530 C   0  0  0  0  0  0  0  0  0  0  0  0
   57.9950   27.3470   44.6830 S   0  0  0  0  0  0  0  0  0  0  0  0
   57.8330   27.7700   43.2500 O   0  0  0  0  0  0  0  0  0  0  0  0
   59.4510   27.0950   44.9550 O   0  0  0  0  0  0  0  0  0  0  0  0
   57.3920   28.6560   45.7460 C   0  0  0  0  0  0  0  0  0  0  0  0
   56.5040   29.6040   44.9950 C   0  0  0  0  0  0  0  0  0  0  0  0
   55.2840   29.3130   44.8570 O   0  0  0  0  0  0  0  0  0  0  0  0
   57.0240   30.7630   44.3220 N   0  0  0  0  0  0  0  0  0  0  0  0
   57.0150   30.9050   42.8650 C   0  0  0  0  0  0  0  0  0  0  0  0
   57.8430   32.1720   42.5490 C   0  0  0  0  0  0  0  0  0  0  0  0
   58.1840   32.7050   43.8950 C   0  0  0  0  0  0  0  0  0  0  0  0
   58.8500   33.8950   44.1970 C   0  0  0  0  0  0  0  0  0  0  0  0
   59.0070   34.2510   45.5450 C   0  0  0  0  0  0  0  0  0  0  0  0
   58.4820   33.4300   46.5590 C   0  0  0  0  0  0  0  0  0  0  0  0
   57.8110   32.2400   46.2300 C   0  0  0  0  0  0  0  0  0  0  0  0
   57.7030   31.8830   44.8800 C   0  0  0  0  0  0  0  0  0  0  0  0
   57.8035   25.0197   45.1702 H   0  0  0  0  0  0  0  0  0  0  0  0
   56.5133   25.5962   44.0472 H   0  0  0  0  0  0  0  0  0  0  0  0
   56.8212   28.2105   46.5741 H   0  0  0  0  0  0  0  0  0  0  0  0
   58.2566   29.2191   46.1272 H   0  0  0  0  0  0  0  0  0  0  0  0
   57.4728   30.0230   42.3932 H   0  0  0  0  0  0  0  0  0  0  0  0
   55.9891   30.9900   42.4773 H   0  0  0  0  0  0  0  0  0  0  0  0
   58.7521   31.9175   41.9844 H   0  0  0  0  0  0  0  0  0  0  0  0
   57.2987   32.8964   41.9253 H   0  0  0  0  0  0  0  0  0  0  0  0
   59.2426   34.5386   43.3960 H   0  0  0  0  0  0  0  0  0  0  0  0
   59.5422   35.1749   45.8095 H   0  0  0  0  0  0  0  0  0  0  0  0
   58.5971   33.7205   47.6137 H   0  0  0  0  0  0  0  0  0  0  0  0
   57.3798   31.6025   47.0159 H   0  0  0  0  0  0  0  0  0  0  0  0
  1  2  2  0
  2  3  1  0
  2  4  1  0
  4  5  1  0
  5  6  2  0
  5  7  2  0
  5  8  1  0
  8  9  1  0
  9 10  2  0
  9 11  1  0
 11 12  1  0
 12 13  1  0
 13 14  1  0
 14 15  2  0
 15 16  1  0
 16 17  2  0
 17 18  1  0
 18 19  2  0
 19 11  1  0
 19 14  1  0
  4 20  1  0
  4 21  1  0
  8 22  1  0
  8 23  1  0
 12 24  1  0
 12 25  1  0
 13 26  1  0
 13 27  1  0
 15 28  1  0
 16 29  1  0
 17 30  1  0
 18 31  1  0
M  CHG  1   3  -1
M  END
>  <UniqueID>  (95) 
89

>  <SMILES>  (95) 
O=C([O-])CS(=O)(=O)CC(=O)N1CCc2ccccc21

>  <Energy>  (95) 
40.878020149216866

>  <Genealogy>  (95) 
O=C([O-])CS(=O)(=O)CC(=O)N1CCc2ccccc21 (protonated)
O=C([O-])CS(=O)(=O)CC(=O)N1CCc2ccccc21 (3D coordinates assigned)
O=C([O-])CS(=O)(=O)CC(=O)N1CCc2ccccc21 (nonaromatic ring conformer: 40.878020149216866 kcal/mol)

>  <smiles>  (95) 
O=C(O)CS(=O)(=O)CC(=O)N1CCc2ccccc21

>  <score_type>  (95) 
oracle

>  <origin>  (95) 
adg

>  <m_score__min__energy>  (95) 
-10.67

>  <m_primary>  (95) 
energy

$$$$
95:0
     RDKit          3D

 41 43  0  0  0  0  0  0  0  0999 V2000
   57.4560   33.1340   45.5970 C   0  0  0  0  0  0  0  0  0  0  0  0
   57.3390   32.0900   44.4950 C   0  0  0  0  0  0  0  0  0  0  0  0
   56.2660   31.1920   44.7690 O   0  0  0  0  0  0  0  0  0  0  0  0
   56.3320   29.8140   44.5380 C   0  0  0  0  0  0  0  0  0  0  0  0
   55.5610   29.0180   45.1410 O   0  0  0  0  0  0  0  0  0  0  0  0
   57.3610   29.2820   43.5890 C   0  0  0  0  0  0  0  0  0  0  0  0
   58.7870   29.4100   44.1420 C   0  0  0  0  0  0  0  0  0  0  0  0
   58.9380   28.8160   45.5200 C   0  0  0  0  0  0  0  0  0  0  0  0
   58.5180   27.5590   45.9670 C   0  0  0  0  0  0  0  0  0  0  0  0
   57.8560   26.4940   45.1430 C   0  0  0  0  0  0  0  0  0  0  0  0
   57.1760   25.4900   46.0270 C   0  0  0  0  0  0  0  0  0  0  0  0
   57.8190   24.5630   46.7620 N   0  0  0  0  0  0  0  0  0  0  0  0
   56.8190   23.9330   47.4150 C   0  0  0  0  0  0  0  0  0  0  0  0
   57.0230   22.9780   48.2070 O   0  0  0  0  0  0  0  0  0  0  0  0
   55.5830   24.4110   47.1540 N   0  0  0  0  0  0  0  0  0  0  0  0
   55.8280   25.4010   46.2800 C   0  0  0  0  0  0  0  0  0  0  0  0
   54.8420   26.2080   45.7220 O   0  0  0  0  0  0  0  0  0  0  0  0
   58.9060   27.3550   47.2480 N   0  0  0  0  0  0  0  0  0  0  0  0
   59.5670   28.4640   47.6170 C   0  0  0  0  0  0  0  0  0  0  0  0
   60.1920   28.7030   48.8400 C   0  0  0  0  0  0  0  0  0  0  0  0
   60.8750   29.9220   49.0050 C   0  0  0  0  0  0  0  0  0  0  0  0
   61.6840   30.2700   50.5210 Cl  0  0  0  0  0  0  0  0  0  0  0  0
   60.9210   30.8620   47.9510 C   0  0  0  0  0  0  0  0  0  0  0  0
   60.2850   30.5920   46.7260 C   0  0  0  0  0  0  0  0  0  0  0  0
   59.6110   29.3760   46.5930 C   0  0  0  0  0  0  0  0  0  0  0  0
   57.4006   32.6394   46.5780 H   0  0  0  0  0  0  0  0  0  0  0  0
   58.4185   33.6584   45.5046 H   0  0  0  0  0  0  0  0  0  0  0  0
   56.6334   33.8584   45.5046 H   0  0  0  0  0  0  0  0  0  0  0  0
   57.1520   32.5954   43.5361 H   0  0  0  0  0  0  0  0  0  0  0  0
   58.2774   31.5182   44.4459 H   0  0  0  0  0  0  0  0  0  0  0  0
   57.1500   28.2194   43.3981 H   0  0  0  0  0  0  0  0  0  0  0  0
   57.3046   29.8759   42.6648 H   0  0  0  0  0  0  0  0  0  0  0  0
   59.4761   28.8917   43.4590 H   0  0  0  0  0  0  0  0  0  0  0  0
   59.0162   30.4831   44.2184 H   0  0  0  0  0  0  0  0  0  0  0  0
   57.1091   26.9593   44.4830 H   0  0  0  0  0  0  0  0  0  0  0  0
   58.6229   25.9793   44.5456 H   0  0  0  0  0  0  0  0  0  0  0  0
   54.7710   27.1850   45.9770 H   0  0  0  0  0  0  0  0  0  0  0  0
   58.7580   26.4940   47.8210 H   0  0  0  0  0  0  0  0  0  0  0  0
   60.1524   27.9612   49.6513 H   0  0  0  0  0  0  0  0  0  0  0  0
   61.4582   31.8119   48.0896 H   0  0  0  0  0  0  0  0  0  0  0  0
   60.3174   31.3160   45.8985 H   0  0  0  0  0  0  0  0  0  0  0  0
  1  2  1  0
  2  3  1  0
  3  4  1  0
  4  5  2  0
  4  6  1  0
  6  7  1  0
  7  8  1  0
  8  9  2  0
  9 10  1  0
 10 11  1  0
 11 12  1  0
 12 13  1  0
 13 14  2  0
 13 15  1  0
 15 16  1  0
 16 17  1  0
  9 18  1  0
 18 19  1  0
 19 20  2  0
 20 21  1  0
 21 22  1  0
 21 23  2  0
 23 24  1  0
 24 25  2  0
 25  8  1  0
 16 11  2  0
 25 19  1  0
  1 26  1  0
  1 27  1  0
  1 28  1  0
  2 29  1  0
  2 30  1  0
  6 31  1  0
  6 32  1  0
  7 33  1  0
  7 34  1  0
 10 35  1  0
 10 36  1  0
 17 37  1  0
 18 38  1  0
 20 39  1  0
 23 40  1  0
 24 41  1  0
M  CHG  2  12  -1  15  -1
M  END
>  <UniqueID>  (96) 
90

>  <SMILES>  (96) 
CCOC(=O)CCc1c(Cc2[n-]c(=O)[n-]c2O)[nH]c2cc(Cl)ccc12

>  <Energy>  (96) 
90.4225153191295

>  <Genealogy>  (96) 
CCOC(=O)CCc1c(Cc2[n-]c(=O)[n-]c2O)[nH]c2cc(Cl)ccc12 (protonated)
CCOC(=O)CCc1c(Cc2[n-]c(=O)[n-]c2O)[nH]c2cc(Cl)ccc12 (3D coordinates assigned)
CCOC(=O)CCc1c(Cc2[n-]c(=O)[n-]c2O)[nH]c2cc(Cl)ccc12 (optimized conformer: 90.4225153191295 kcal/mol)

>  <smiles>  (96) 
CCOC(=O)CCc1c(Cc2[nH]c(=O)[nH]c2O)[nH]c2cc(Cl)ccc12

>  <score_type>  (96) 
oracle

>  <origin>  (96) 
adg

>  <m_score__min__energy>  (96) 
-12.369999999999999

>  <m_primary>  (96) 
energy

$$$$
96:0
     RDKit          3D

 23 24  0  0  0  0  0  0  0  0999 V2000
   51.8988   30.2765   49.1094 H   0  0  0  0  0  0  0  0  0  0  0  0
   51.7750   30.6140   50.1490 C   0  0  0  0  0  0  0  0  0  0  0  0
   52.1370   29.7710   51.2030 C   0  0  0  0  0  0  0  0  0  0  0  0
   52.5525   28.7755   50.9878 H   0  0  0  0  0  0  0  0  0  0  0  0
   51.9740   30.1860   52.5370 C   0  0  0  0  0  0  0  0  0  0  0  0
   52.3690   29.2740   53.6370 C   0  0  0  0  0  0  0  0  0  0  0  0
   52.8400   28.0300   53.4340 N   0  0  0  0  0  0  0  0  0  0  0  0
   53.0510   27.5510   54.6830 C   0  0  0  0  0  0  0  0  0  0  0  0
   53.5430   26.3740   54.9300 N   0  0  0  0  0  0  0  0  0  0  0  0
   53.7710   25.3370   53.9630 C   0  0  0  0  0  0  0  0  0  0  0  0
   54.9280   24.8530   53.8570 O   0  0  0  0  0  0  0  0  0  0  0  0
   52.6850   24.7680   53.1460 C   0  0  0  0  0  0  0  0  0  0  0  0
   52.8770   24.4680   51.9370 O   0  0  0  0  0  0  0  0  0  0  0  0
   51.4200   24.6030   53.6950 O   0  0  0  0  0  0  0  0  0  0  0  0
   52.7480   28.4210   55.6680 N   0  0  0  0  0  0  0  0  0  0  0  0
   52.3120   29.5000   54.9990 C   0  0  0  0  0  0  0  0  0  0  0  0
   51.8430   30.6460   55.6270 O   0  0  0  0  0  0  0  0  0  0  0  0
   51.4620   31.4710   52.7910 C   0  0  0  0  0  0  0  0  0  0  0  0
   51.3429   31.8158   53.8288 H   0  0  0  0  0  0  0  0  0  0  0  0
   51.1030   32.3140   51.7340 C   0  0  0  0  0  0  0  0  0  0  0  0
   50.5970   33.5820   52.0020 O   0  0  0  0  0  0  0  0  0  0  0  0
   51.2560   31.8850   50.4120 C   0  0  0  0  0  0  0  0  0  0  0  0
   50.8970   32.7180   49.3580 O   0  0  0  0  0  0  0  0  0  0  0  0
  1  2  1  0
  2  3  2  0
  3  4  1  0
  3  5  1  0
  5  6  1  0
  6  7  1  0
  7  8  1  0
  8  9  2  0
  9 10  1  0
 10 11  2  0
 10 12  1  0
 12 13  2  0
 12 14  1  0
  8 15  1  0
 15 16  1  0
 16 17  1  0
  5 18  2  0
 18 19  1  0
 18 20  1  0
 20 21  1  0
 20 22  2  0
 22 23  1  0
 22  2  1  0
 16  6  2  0
M  CHG  6   7  -1  14  -1  15  -1  17  -1  21  -1  23  -1
M  END
>  <UniqueID>  (97) 
91

>  <SMILES>  (97) 
O=C([O-])C(=O)/N=c1/[n-]c([O-])c(-c2ccc([O-])c([O-])c2)[n-]1

>  <Energy>  (97) 
61.694220685493804

>  <Genealogy>  (97) 
O=C([O-])C(=O)N=c1[n-]c([O-])c(-c2ccc([O-])c([O-])c2)[n-]1 (protonated)
O=C([O-])C(=O)/N=c1/[n-]c([O-])c(-c2ccc([O-])c([O-])c2)[n-]1 (cis-trans isomerization)
O=C([O-])C(=O)/N=c1/[n-]c([O-])c(-c2ccc([O-])c([O-])c2)[n-]1 (3D coordinates assigned)
O=C([O-])C(=O)/N=c1/[n-]c([O-])c(-c2ccc([O-])c([O-])c2)[n-]1 (optimized conformer: 61.694220685493804 kcal/mol)

>  <smiles>  (97) 
O=C(O)C(=O)N=c1[nH]c(O)c(-c2ccc(O)c(O)c2)[nH]1

>  <score_type>  (97) 
oracle

>  <origin>  (97) 
adg

>  <m_score__min__energy>  (97) 
-17

>  <m_primary>  (97) 
energy

$$$$
