0:0
     RDKit          3D

 27 27  0  0  0  0  0  0  0  0999 V2000
   56.3490   29.3900   42.2800 C   0  0  0  0  0  0  0  0  0  0  0  0
   57.2000   30.3370   43.0150 N   0  0  0  0  0  0  0  0  0  0  0  0
   57.3460   31.5970   42.2700 C   0  0  0  0  0  0  0  0  0  0  0  0
   56.6380   30.5990   44.3170 C   0  0  0  0  0  0  0  0  0  0  0  0
   55.3970   30.4680   44.4980 O   0  0  0  0  0  0  0  0  0  0  0  0
   57.4840   30.9290   45.3870 O   0  0  0  0  0  0  0  0  0  0  0  0
   58.1370   32.1580   45.5540 C   0  0  0  0  0  0  0  0  0  0  0  0
   57.5210   33.3130   45.0580 C   0  0  0  0  0  0  0  0  0  0  0  0
   58.1240   34.5620   45.2200 C   0  0  0  0  0  0  0  0  0  0  0  0
   59.3490   34.6690   45.8830 C   0  0  0  0  0  0  0  0  0  0  0  0
   59.9890   33.5220   46.3840 C   0  0  0  0  0  0  0  0  0  0  0  0
   61.2770   33.6430   47.1590 C   0  0  0  0  0  0  0  0  0  0  0  0
   61.1010   34.4280   48.2850 F   0  0  0  0  0  0  0  0  0  0  0  0
   62.2630   34.2210   46.3790 F   0  0  0  0  0  0  0  0  0  0  0  0
   61.6920   32.3830   47.5490 F   0  0  0  0  0  0  0  0  0  0  0  0
   59.3620   32.2710   46.2400 C   0  0  0  0  0  0  0  0  0  0  0  0
   55.7902   28.7681   42.9949 H   0  0  0  0  0  0  0  0  0  0  0  0
   55.6420   29.9470   41.6476 H   0  0  0  0  0  0  0  0  0  0  0  0
   56.9781   28.7463   41.6476 H   0  0  0  0  0  0  0  0  0  0  0  0
   58.1490   29.9070   43.1260 H   0  0  0  0  0  0  0  0  0  0  0  0
   57.4428   32.4328   42.9786 H   0  0  0  0  0  0  0  0  0  0  0  0
   58.2443   31.5468   41.6372 H   0  0  0  0  0  0  0  0  0  0  0  0
   56.4600   31.7536   41.6372 H   0  0  0  0  0  0  0  0  0  0  0  0
   56.5552   33.2362   44.5370 H   0  0  0  0  0  0  0  0  0  0  0  0
   57.6334   35.4637   44.8247 H   0  0  0  0  0  0  0  0  0  0  0  0
   59.8155   35.6566   46.0138 H   0  0  0  0  0  0  0  0  0  0  0  0
   59.8325   31.3730   46.6669 H   0  0  0  0  0  0  0  0  0  0  0  0
  1  2  1  0
  2  3  1  0
  2  4  1  0
  4  5  2  0
  4  6  1  0
  6  7  1  0
  7  8  2  0
  8  9  1  0
  9 10  2  0
 10 11  1  0
 11 12  1  0
 12 13  1  0
 12 14  1  0
 12 15  1  0
 11 16  2  0
 16  7  1  0
  1 17  1  0
  1 18  1  0
  1 19  1  0
  2 20  1  0
  3 21  1  0
  3 22  1  0
  3 23  1  0
  8 24  1  0
  9 25  1  0
 10 26  1  0
 16 27  1  0
M  CHG  1   2   1
M  END
>  <UniqueID>  (1) 
1

>  <SMILES>  (1) 
C[NH+](C)C(=O)Oc1cccc(C(F)(F)F)c1

>  <Energy>  (1) 
29.6488844470842

>  <Genealogy>  (1) 
C[NH+](C)C(=O)Oc1cccc(C(F)(F)F)c1 (protonated)
C[NH+](C)C(=O)Oc1cccc(C(F)(F)F)c1 (3D coordinates assigned)
C[NH+](C)C(=O)Oc1cccc(C(F)(F)F)c1 (optimized conformer: 29.6488844470842 kcal/mol)

>  <smiles>  (1) 
CN(C)C(=O)Oc1cccc(C(F)(F)F)c1

>  <score_type>  (1) 
oracle

>  <origin>  (1) 
adg

>  <m_score__min__energy>  (1) 
-4.1799999999999997

>  <m_primary>  (1) 
energy

$$$$
1:0
     RDKit          3D

 43 46  0  0  0  0  0  0  0  0999 V2000
   59.3520   32.0480   52.0170 N   0  0  0  0  0  0  0  0  0  0  0  0
   59.3970   32.7930   50.7990 C   0  0  0  0  0  0  0  0  0  0  0  0
   60.3670   33.7900   50.6160 C   0  0  0  0  0  0  0  0  0  0  0  0
   60.4170   34.5130   49.4200 C   0  0  0  0  0  0  0  0  0  0  0  0
   59.5050   34.2370   48.3950 C   0  0  0  0  0  0  0  0  0  0  0  0
   59.5640   35.1710   46.8620 S   0  0  0  0  0  0  0  0  0  0  0  0
   60.4750   33.8890   45.9340 C   0  0  0  0  0  0  0  0  0  0  0  0
   59.7440   32.5660   45.9850 C   0  0  0  0  0  0  0  0  0  0  0  0
   58.6250   32.4450   45.2220 N   0  0  0  0  0  0  0  0  0  0  0  0
   57.8730   31.3200   45.2280 C   0  0  0  0  0  0  0  0  0  0  0  0
   56.7250   31.2410   44.4320 C   0  0  0  0  0  0  0  0  0  0  0  0
   55.9440   30.0820   44.4420 C   0  0  0  0  0  0  0  0  0  0  0  0
   56.3080   28.9980   45.2460 C   0  0  0  0  0  0  0  0  0  0  0  0
   55.5300   27.8470   45.2530 O   0  0  0  0  0  0  0  0  0  0  0  0
   57.4560   29.0700   46.0440 C   0  0  0  0  0  0  0  0  0  0  0  0
   58.2470   30.2350   46.0390 C   0  0  0  0  0  0  0  0  0  0  0  0
   59.4090   30.3580   46.8170 C   0  0  0  0  0  0  0  0  0  0  0  0
   59.7790   29.3940   47.5470 O   0  0  0  0  0  0  0  0  0  0  0  0
   60.1470   31.5160   46.7810 N   0  0  0  0  0  0  0  0  0  0  0  0
   61.3420   31.6040   47.5830 C   0  0  0  0  0  0  0  0  0  0  0  0
   62.5170   32.1520   47.0460 C   0  0  0  0  0  0  0  0  0  0  0  0
   63.6710   32.2470   47.8310 C   0  0  0  0  0  0  0  0  0  0  0  0
   63.6600   31.7850   49.1520 C   0  0  0  0  0  0  0  0  0  0  0  0
   65.1050   31.9100   50.1380 Cl  0  0  0  0  0  0  0  0  0  0  0  0
   62.4970   31.2180   49.6840 C   0  0  0  0  0  0  0  0  0  0  0  0
   61.3440   31.1190   48.9000 C   0  0  0  0  0  0  0  0  0  0  0  0
   58.5340   33.2450   48.5730 C   0  0  0  0  0  0  0  0  0  0  0  0
   58.4790   32.5260   49.7720 C   0  0  0  0  0  0  0  0  0  0  0  0
   60.2000   31.5550   52.3750 H   0  0  0  0  0  0  0  0  0  0  0  0
   58.4670   31.9800   52.5690 H   0  0  0  0  0  0  0  0  0  0  0  0
   61.0908   34.0038   51.4162 H   0  0  0  0  0  0  0  0  0  0  0  0
   61.1740   35.2995   49.2847 H   0  0  0  0  0  0  0  0  0  0  0  0
   60.5746   34.2055   44.8852 H   0  0  0  0  0  0  0  0  0  0  0  0
   61.4670   33.7610   46.3918 H   0  0  0  0  0  0  0  0  0  0  0  0
   56.4368   32.0921   43.7976 H   0  0  0  0  0  0  0  0  0  0  0  0
   55.0414   30.0227   43.8161 H   0  0  0  0  0  0  0  0  0  0  0  0
   57.7405   28.2155   46.6756 H   0  0  0  0  0  0  0  0  0  0  0  0
   62.5306   32.5077   46.0052 H   0  0  0  0  0  0  0  0  0  0  0  0
   64.5878   32.6852   47.4096 H   0  0  0  0  0  0  0  0  0  0  0  0
   62.4899   30.8497   50.7205 H   0  0  0  0  0  0  0  0  0  0  0  0
   60.4355   30.6596   49.3165 H   0  0  0  0  0  0  0  0  0  0  0  0
   57.8137   33.0305   47.7698 H   0  0  0  0  0  0  0  0  0  0  0  0
   57.7132   31.7485   49.9100 H   0  0  0  0  0  0  0  0  0  0  0  0
  1  2  1  0
  2  3  2  0
  3  4  1  0
  4  5  2  0
  5  6  1  0
  6  7  1  0
  7  8  1  0
  8  9  2  0
  9 10  1  0
 10 11  2  0
 11 12  1  0
 12 13  2  0
 13 14  1  0
 13 15  1  0
 15 16  2  0
 16 17  1  0
 17 18  2  0
 17 19  1  0
 19 20  1  0
 20 21  2  0
 21 22  1  0
 22 23  2  0
 23 24  1  0
 23 25  1  0
 25 26  2  0
  5 27  1  0
 27 28  2  0
 28  2  1  0
 19  8  1  0
 26 20  1  0
 16 10  1  0
  1 29  1  0
  1 30  1  0
  3 31  1  0
  4 32  1  0
  7 33  1  0
  7 34  1  0
 11 35  1  0
 12 36  1  0
 15 37  1  0
 21 38  1  0
 22 39  1  0
 25 40  1  0
 26 41  1  0
 27 42  1  0
 28 43  1  0
M  CHG  1  14  -1
M  END
>  <UniqueID>  (2) 
2

>  <SMILES>  (2) 
Nc1ccc(SCc2nc3ccc([O-])cc3c(=O)n2-c2ccc(Cl)cc2)cc1

>  <Energy>  (2) 
54.66523779214068

>  <Genealogy>  (2) 
Nc1ccc(SCc2nc3ccc([O-])cc3c(=O)n2-c2ccc(Cl)cc2)cc1 (protonated)
Nc1ccc(SCc2nc3ccc([O-])cc3c(=O)n2-c2ccc(Cl)cc2)cc1 (3D coordinates assigned)
Nc1ccc(SCc2nc3ccc([O-])cc3c(=O)n2-c2ccc(Cl)cc2)cc1 (optimized conformer: 54.66523779214068 kcal/mol)

>  <smiles>  (2) 
Nc1ccc(SCc2nc3ccc(O)cc3c(=O)n2-c2ccc(Cl)cc2)cc1

>  <score_type>  (2) 
oracle

>  <origin>  (2) 
adg

>  <m_score__min__energy>  (2) 
-10.33

>  <m_primary>  (2) 
energy

$$$$
2:0
     RDKit          3D

 53 56  0  0  0  0  0  0  0  0999 V2000
   56.2010   23.7660   44.0460 C   0  0  0  0  0  0  0  0  0  0  0  0
   56.6760   24.1440   45.3340 O   0  0  0  0  0  0  0  0  0  0  0  0
   57.3300   25.3530   45.6160 C   0  0  0  0  0  0  0  0  0  0  0  0
   56.6960   26.6040   45.4370 C   0  0  0  0  0  0  0  0  0  0  0  0
   57.4040   27.7570   45.7590 C   0  0  0  0  0  0  0  0  0  0  0  0
   58.6920   27.7190   46.2390 C   0  0  0  0  0  0  0  0  0  0  0  0
   59.3570   26.5000   46.3720 C   0  0  0  0  0  0  0  0  0  0  0  0
   58.6650   25.3010   46.0820 C   0  0  0  0  0  0  0  0  0  0  0  0
   59.2670   24.0430   46.2410 O   0  0  0  0  0  0  0  0  0  0  0  0
   59.2870   23.0290   45.2400 C   0  0  0  0  0  0  0  0  0  0  0  0
   59.2340   29.1180   46.4570 C   0  0  2  0  0  0  0  0  0  0  0  0
   59.5040   29.3970   47.8830 N   0  0  0  0  0  0  0  0  0  0  0  0
   60.5890   30.3320   48.0580 C   0  0  0  0  0  0  0  0  0  0  0  0
   61.3500   30.7570   46.9560 C   0  0  0  0  0  0  0  0  0  0  0  0
   62.3770   31.6900   47.1210 C   0  0  0  0  0  0  0  0  0  0  0  0
   62.6750   32.2130   48.3930 C   0  0  0  0  0  0  0  0  0  0  0  0
   63.7650   33.2130   48.5490 C   0  0  0  0  0  0  0  0  0  0  0  0
   64.8380   33.0600   49.5850 C   0  0  0  0  0  0  0  0  0  0  0  0
   63.7990   34.2240   47.7950 O   0  0  0  0  0  0  0  0  0  0  0  0
   61.9210   31.7710   49.4980 C   0  0  0  0  0  0  0  0  0  0  0  0
   60.8930   30.8400   49.3320 C   0  0  0  0  0  0  0  0  0  0  0  0
   58.1350   29.9790   45.9800 N   0  0  0  0  0  0  0  0  0  0  0  0
   58.1640   31.4190   45.9230 C   0  0  0  0  0  0  0  0  0  0  0  0
   58.1930   32.0810   44.6820 C   0  0  0  0  0  0  0  0  0  0  0  0
   58.2360   33.4780   44.6270 C   0  0  0  0  0  0  0  0  0  0  0  0
   58.2570   34.2270   45.8050 C   0  0  0  0  0  0  0  0  0  0  0  0
   58.2400   33.5790   47.0430 C   0  0  0  0  0  0  0  0  0  0  0  0
   58.1960   32.1830   47.1040 C   0  0  0  0  0  0  0  0  0  0  0  0
   57.0470   29.1410   45.5860 C   0  0  0  0  0  0  0  0  0  0  0  0
   55.9690   29.5570   45.0820 O   0  0  0  0  0  0  0  0  0  0  0  0
   55.3446   23.0845   44.1565 H   0  0  0  0  0  0  0  0  0  0  0  0
   55.8864   24.6635   43.4933 H   0  0  0  0  0  0  0  0  0  0  0  0
   57.0050   23.2580   43.4933 H   0  0  0  0  0  0  0  0  0  0  0  0
   55.6672   26.6640   45.0522 H   0  0  0  0  0  0  0  0  0  0  0  0
   60.4070   26.4716   46.6985 H   0  0  0  0  0  0  0  0  0  0  0  0
   59.3065   22.0397   45.7206 H   0  0  0  0  0  0  0  0  0  0  0  0
   58.3870   23.1146   44.6134 H   0  0  0  0  0  0  0  0  0  0  0  0
   60.1829   23.1500   44.6134 H   0  0  0  0  0  0  0  0  0  0  0  0
   60.1916   29.2746   45.9388 H   0  0  0  0  0  0  0  0  0  0  0  0
   59.7010   28.5000   48.3870 H   0  0  0  0  0  0  0  0  0  0  0  0
   58.6490   29.8130   48.3200 H   0  0  0  0  0  0  0  0  0  0  0  0
   61.1357   30.3522   45.9559 H   0  0  0  0  0  0  0  0  0  0  0  0
   62.9587   32.0192   46.2473 H   0  0  0  0  0  0  0  0  0  0  0  0
   64.3910   33.1237   50.5880 H   0  0  0  0  0  0  0  0  0  0  0  0
   65.3283   32.0829   49.4635 H   0  0  0  0  0  0  0  0  0  0  0  0
   65.5819   33.8612   49.4635 H   0  0  0  0  0  0  0  0  0  0  0  0
   62.1440   32.1629   50.5013 H   0  0  0  0  0  0  0  0  0  0  0  0
   60.3168   30.5019   50.2059 H   0  0  0  0  0  0  0  0  0  0  0  0
   58.1818   31.4969   43.7500 H   0  0  0  0  0  0  0  0  0  0  0  0
   58.2533   33.9881   43.6526 H   0  0  0  0  0  0  0  0  0  0  0  0
   58.2869   35.3256   45.7587 H   0  0  0  0  0  0  0  0  0  0  0  0
   58.2613   34.1686   47.9714 H   0  0  0  0  0  0  0  0  0  0  0  0
   58.1863   31.6787   48.0816 H   0  0  0  0  0  0  0  0  0  0  0  0
  1  2  1  0
  2  3  1  0
  3  4  2  0
  4  5  1  0
  5  6  2  0
  6  7  1  0
  7  8  2  0
  8  9  1  0
  9 10  1  0
  6 11  1  0
 11 12  1  0
 12 13  1  0
 13 14  2  0
 14 15  1  0
 15 16  2  0
 16 17  1  0
 17 18  1  0
 17 19  2  0
 16 20  1  0
 20 21  2  0
 11 22  1  0
 22 23  1  0
 23 24  2  0
 24 25  1  0
 25 26  2  0
 26 27  1  0
 27 28  2  0
 22 29  1  0
 29 30  2  0
  8  3  1  0
 21 13  1  0
 28 23  1  0
 29  5  1  0
  1 31  1  0
  1 32  1  0
  1 33  1  0
  4 34  1  0
  7 35  1  0
 10 36  1  0
 10 37  1  0
 10 38  1  0
 11 39  1  6
 12 40  1  0
 12 41  1  0
 14 42  1  0
 15 43  1  0
 18 44  1  0
 18 45  1  0
 18 46  1  0
 20 47  1  0
 21 48  1  0
 24 49  1  0
 25 50  1  0
 26 51  1  0
 27 52  1  0
 28 53  1  0
M  CHG  1  12   1
M  END
>  <UniqueID>  (3) 
3

>  <SMILES>  (3) 
COc1cc2c(cc1OC)[C@H]([NH2+]c1ccc(C(C)=O)cc1)N(c1ccccc1)C2=O

>  <Energy>  (3) 
82.85214443940943

>  <Genealogy>  (3) 
COc1cc2c(cc1OC)C([NH2+]c1ccc(C(C)=O)cc1)N(c1ccccc1)C2=O (protonated)
COc1cc2c(cc1OC)[C@H]([NH2+]c1ccc(C(C)=O)cc1)N(c1ccccc1)C2=O (chirality)
COc1cc2c(cc1OC)[C@H]([NH2+]c1ccc(C(C)=O)cc1)N(c1ccccc1)C2=O (3D coordinates assigned)
COc1cc2c(cc1OC)[C@H]([NH2+]c1ccc(C(C)=O)cc1)N(c1ccccc1)C2=O (nonaromatic ring conformer: 82.85214443940943 kcal/mol)

>  <smiles>  (3) 
COc1cc2c(cc1OC)C(Nc1ccc(C(C)=O)cc1)N(c1ccccc1)C2=O

>  <score_type>  (3) 
oracle

>  <origin>  (3) 
adg

>  <m_score__min__energy>  (3) 
-6.2599999999999998

>  <m_primary>  (3) 
energy

$$$$
3:0
     RDKit          3D

 39 41  0  0  0  0  0  0  0  0999 V2000
   59.4880   34.1820   48.5020 C   0  0  0  0  0  0  0  0  0  0  0  0
   58.8540   33.4570   47.3520 C   0  0  0  0  0  0  0  0  0  0  0  0
   58.4090   34.1660   46.2250 C   0  0  0  0  0  0  0  0  0  0  0  0
   57.8500   33.4890   45.1370 C   0  0  0  0  0  0  0  0  0  0  0  0
   57.7240   32.0870   45.1630 C   0  0  0  0  0  0  0  0  0  0  0  0
   57.1410   31.3540   44.0760 N   0  0  0  0  0  0  0  0  0  0  0  0
   56.3560   29.8130   44.2250 S   0  0  0  0  0  0  0  0  0  0  0  0
   55.7910   29.4160   42.8890 O   0  0  0  0  0  0  0  0  0  0  0  0
   55.2310   29.9410   45.2160 O   0  0  0  0  0  0  0  0  0  0  0  0
   57.5270   28.5900   44.7340 C   0  0  0  0  0  0  0  0  0  0  0  0
   58.8880   28.8160   44.4880 C   0  0  0  0  0  0  0  0  0  0  0  0
   59.8450   27.8940   44.9070 C   0  0  0  0  0  0  0  0  0  0  0  0
   59.4530   26.7300   45.5680 C   0  0  0  0  0  0  0  0  0  0  0  0
   58.0940   26.4640   45.7990 C   0  0  0  0  0  0  0  0  0  0  0  0
   57.7270   25.2070   46.4870 C   0  0  0  0  0  0  0  0  0  0  0  0
   56.8460   25.2030   47.5790 C   0  0  0  0  0  0  0  0  0  0  0  0
   56.5140   24.0290   48.1810 N   0  0  0  0  0  0  0  0  0  0  0  0
   57.0180   22.8460   47.7350 C   0  0  0  0  0  0  0  0  0  0  0  0
   56.6960   21.7370   48.3170 N   0  0  0  0  0  0  0  0  0  0  0  0
   57.8600   22.8270   46.6670 N   0  0  0  0  0  0  0  0  0  0  0  0
   58.2180   23.9750   46.0360 C   0  0  0  0  0  0  0  0  0  0  0  0
   57.1190   27.4050   45.3850 C   0  0  0  0  0  0  0  0  0  0  0  0
   55.7600   27.2000   45.6310 O   0  0  0  0  0  0  0  0  0  0  0  0
   58.1870   31.3790   46.2810 C   0  0  0  0  0  0  0  0  0  0  0  0
   58.7510   32.0570   47.3670 C   0  0  0  0  0  0  0  0  0  0  0  0
   59.1196   33.7607   49.4490 H   0  0  0  0  0  0  0  0  0  0  0  0
   60.5808   34.0672   48.4502 H   0  0  0  0  0  0  0  0  0  0  0  0
   59.2286   35.2497   48.4502 H   0  0  0  0  0  0  0  0  0  0  0  0
   58.5008   35.2618   46.1978 H   0  0  0  0  0  0  0  0  0  0  0  0
   57.5074   34.0538   44.2574 H   0  0  0  0  0  0  0  0  0  0  0  0
   59.2032   29.7282   43.9601 H   0  0  0  0  0  0  0  0  0  0  0  0
   60.9115   28.0844   44.7162 H   0  0  0  0  0  0  0  0  0  0  0  0
   60.2149   26.0146   45.9111 H   0  0  0  0  0  0  0  0  0  0  0  0
   56.4237   26.1492   47.9484 H   0  0  0  0  0  0  0  0  0  0  0  0
   55.7610   21.2930   48.1720 H   0  0  0  0  0  0  0  0  0  0  0  0
   58.8945   23.9374   45.1695 H   0  0  0  0  0  0  0  0  0  0  0  0
   55.1440   27.9200   45.9840 H   0  0  0  0  0  0  0  0  0  0  0  0
   58.1062   30.2822   46.3045 H   0  0  0  0  0  0  0  0  0  0  0  0
   59.1154   31.4905   48.2367 H   0  0  0  0  0  0  0  0  0  0  0  0
  1  2  1  0
  2  3  2  0
  3  4  1  0
  4  5  2  0
  5  6  1  0
  6  7  1  0
  7  8  2  0
  7  9  2  0
  7 10  1  0
 10 11  2  0
 11 12  1  0
 12 13  2  0
 13 14  1  0
 14 15  1  0
 15 16  1  0
 16 17  2  0
 17 18  1  0
 18 19  2  3
 18 20  1  0
 20 21  1  0
 14 22  2  0
 22 23  1  0
  5 24  1  0
 24 25  2  0
 25  2  1  0
 22 10  1  0
 21 15  2  0
  1 26  1  0
  1 27  1  0
  1 28  1  0
  3 29  1  0
  4 30  1  0
 11 31  1  0
 12 32  1  0
 13 33  1  0
 16 34  1  0
 19 35  1  0
 21 36  1  0
 23 37  1  0
 24 38  1  0
 25 39  1  0
M  CHG  2   6  -1  20  -1
M  END
>  <UniqueID>  (4) 
4

>  <SMILES>  (4) 
Cc1ccc([N-]S(=O)(=O)c2cccc(-c3cnc(=N)[n-]c3)c2O)cc1

>  <Energy>  (4) 
53.7823545573127

>  <Genealogy>  (4) 
Cc1ccc([N-]S(=O)(=O)c2cccc(-c3cnc(=N)[n-]c3)c2O)cc1 (protonated)
Cc1ccc([N-]S(=O)(=O)c2cccc(-c3cnc(=N)[n-]c3)c2O)cc1 (3D coordinates assigned)
Cc1ccc([N-]S(=O)(=O)c2cccc(-c3cnc(=N)[n-]c3)c2O)cc1 (optimized conformer: 53.7823545573127 kcal/mol)

>  <smiles>  (4) 
Cc1ccc(NS(=O)(=O)c2cccc(-c3cnc(=N)[nH]c3)c2O)cc1

>  <score_type>  (4) 
oracle

>  <origin>  (4) 
adg

>  <m_score__min__energy>  (4) 
-12.140000000000001

>  <m_primary>  (4) 
energy

$$$$
4:0
     RDKit          3D

 61 62  0  0  0  0  0  0  0  0999 V2000
   58.3130   34.5350   45.4710 C   0  0  0  0  0  0  0  0  0  0  0  0
   59.6420   34.6660   45.5290 C   0  0  0  0  0  0  0  0  0  0  0  0
   60.4030   34.4970   46.8150 C   0  0  0  0  0  0  0  0  0  0  0  0
   60.7400   33.0420   47.0290 C   0  0  0  0  0  0  0  0  0  0  0  0
   59.7710   32.0670   46.7340 C   0  0  0  0  0  0  0  0  0  0  0  0
   60.0480   30.7020   46.9120 C   0  0  0  0  0  0  0  0  0  0  0  0
   59.0270   29.6770   46.5800 C   0  0  0  0  0  0  0  0  0  0  0  0
   59.0520   28.4230   47.2050 C   0  0  0  0  0  0  0  0  0  0  0  0
   58.0800   27.4650   46.9140 C   0  0  0  0  0  0  0  0  0  0  0  0
   57.0640   27.7350   45.9770 C   0  0  0  0  0  0  0  0  0  0  0  0
   56.0730   26.7890   45.6520 O   0  0  0  0  0  0  0  0  0  0  0  0
   56.0970   25.4010   45.9950 C   0  0  0  0  0  0  0  0  0  0  0  0
   55.7450   24.4920   44.7960 C   0  0  0  0  0  0  0  0  0  0  0  0
   56.9020   24.0360   43.9900 N   0  0  0  0  0  0  0  0  0  0  0  0
   58.0640   23.6380   44.8010 C   0  0  0  0  0  0  0  0  0  0  0  0
   56.5520   22.9990   43.0080 C   0  0  0  0  0  0  0  0  0  0  0  0
   57.0260   29.0000   45.3530 C   0  0  0  0  0  0  0  0  0  0  0  0
   55.9510   29.3390   44.3470 C   0  0  0  0  0  0  0  0  0  0  0  0
   56.1960   30.6840   43.7170 C   0  0  0  0  0  0  0  0  0  0  0  0
   56.9790   30.8300   42.6430 C   0  0  0  0  0  0  0  0  0  0  0  0
   58.0100   29.9570   45.6560 C   0  0  0  0  0  0  0  0  0  0  0  0
   61.3070   30.3190   47.3930 C   0  0  0  0  0  0  0  0  0  0  0  0
   62.2880   31.2760   47.6590 C   0  0  0  0  0  0  0  0  0  0  0  0
   62.0240   32.6450   47.4620 C   0  0  0  0  0  0  0  0  0  0  0  0
   63.0020   33.6310   47.6880 O   0  0  0  0  0  0  0  0  0  0  0  0
   63.6980   33.8480   48.9150 C   0  0  0  0  0  0  0  0  0  0  0  0
   64.5580   32.6360   49.2910 C   0  0  0  0  0  0  0  0  0  0  0  0
   65.7540   33.0330   50.1560 C   0  0  0  0  0  0  0  0  0  0  0  0
   57.7888   34.6655   44.5128 H   0  0  0  0  0  0  0  0  0  0  0  0
   57.7436   34.2967   46.3815 H   0  0  0  0  0  0  0  0  0  0  0  0
   60.1954   34.9045   44.6088 H   0  0  0  0  0  0  0  0  0  0  0  0
   61.3328   35.0829   46.7676 H   0  0  0  0  0  0  0  0  0  0  0  0
   59.7813   34.8499   47.6510 H   0  0  0  0  0  0  0  0  0  0  0  0
   58.7843   32.3771   46.3594 H   0  0  0  0  0  0  0  0  0  0  0  0
   59.8449   28.1918   47.9315 H   0  0  0  0  0  0  0  0  0  0  0  0
   58.1077   26.4894   47.4215 H   0  0  0  0  0  0  0  0  0  0  0  0
   57.1053   25.1423   46.3504 H   0  0  0  0  0  0  0  0  0  0  0  0
   55.3398   25.2351   46.7754 H   0  0  0  0  0  0  0  0  0  0  0  0
   55.2282   23.6018   45.1838 H   0  0  0  0  0  0  0  0  0  0  0  0
   55.1243   25.1012   44.1224 H   0  0  0  0  0  0  0  0  0  0  0  0
   57.8129   23.7240   45.8685 H   0  0  0  0  0  0  0  0  0  0  0  0
   58.3328   22.5966   44.5703 H   0  0  0  0  0  0  0  0  0  0  0  0
   58.9148   24.2960   44.5703 H   0  0  0  0  0  0  0  0  0  0  0  0
   56.2432   22.0842   43.5351 H   0  0  0  0  0  0  0  0  0  0  0  0
   55.7245   23.3557   42.3772 H   0  0  0  0  0  0  0  0  0  0  0  0
   57.4264   22.7813   42.3772 H   0  0  0  0  0  0  0  0  0  0  0  0
   55.9420   28.5708   43.5597 H   0  0  0  0  0  0  0  0  0  0  0  0
   54.9839   29.3716   44.8701 H   0  0  0  0  0  0  0  0  0  0  0  0
   55.7168   31.5729   44.1530 H   0  0  0  0  0  0  0  0  0  0  0  0
   57.1360   31.8282   42.2084 H   0  0  0  0  0  0  0  0  0  0  0  0
   57.4661   29.9519   42.1940 H   0  0  0  0  0  0  0  0  0  0  0  0
   57.9819   30.9392   45.1614 H   0  0  0  0  0  0  0  0  0  0  0  0
   61.5245   29.2542   47.5627 H   0  0  0  0  0  0  0  0  0  0  0  0
   63.2752   30.9580   48.0255 H   0  0  0  0  0  0  0  0  0  0  0  0
   64.3482   34.7287   48.8070 H   0  0  0  0  0  0  0  0  0  0  0  0
   62.9557   34.0067   49.7112 H   0  0  0  0  0  0  0  0  0  0  0  0
   63.9378   31.9191   49.8490 H   0  0  0  0  0  0  0  0  0  0  0  0
   64.9421   32.1888   48.3623 H   0  0  0  0  0  0  0  0  0  0  0  0
   65.4839   32.9433   51.2185 H   0  0  0  0  0  0  0  0  0  0  0  0
   66.6024   32.3683   49.9360 H   0  0  0  0  0  0  0  0  0  0  0  0
   66.0365   34.0731   49.9360 H   0  0  0  0  0  0  0  0  0  0  0  0
  1  2  2  0
  2  3  1  0
  3  4  1  0
  4  5  2  0
  5  6  1  0
  6  7  1  0
  7  8  2  0
  8  9  1  0
  9 10  2  0
 10 11  1  0
 11 12  1  0
 12 13  1  0
 13 14  1  0
 14 15  1  0
 14 16  1  0
 10 17  1  0
 17 18  1  0
 18 19  1  0
 19 20  2  0
 17 21  2  0
  6 22  2  0
 22 23  1  0
 23 24  2  0
 24 25  1  0
 25 26  1  0
 26 27  1  0
 27 28  1  0
 24  4  1  0
 21  7  1  0
  1 29  1  0
  1 30  1  0
  2 31  1  0
  3 32  1  0
  3 33  1  0
  5 34  1  0
  8 35  1  0
  9 36  1  0
 12 37  1  0
 12 38  1  0
 13 39  1  0
 13 40  1  0
 15 41  1  0
 15 42  1  0
 15 43  1  0
 16 44  1  0
 16 45  1  0
 16 46  1  0
 18 47  1  0
 18 48  1  0
 19 49  1  0
 20 50  1  0
 20 51  1  0
 21 52  1  0
 22 53  1  0
 23 54  1  0
 26 55  1  0
 26 56  1  0
 27 57  1  0
 27 58  1  0
 28 59  1  0
 28 60  1  0
 28 61  1  0
M  END
>  <UniqueID>  (5) 
5

>  <SMILES>  (5) 
C=CCc1cc(-c2ccc(OCCN(C)C)c(CC=C)c2)ccc1OCCC

>  <Energy>  (5) 
58.489086485268004

>  <Genealogy>  (5) 
C=CCc1cc(-c2ccc(OCCN(C)C)c(CC=C)c2)ccc1OCCC (3D coordinates assigned)
C=CCc1cc(-c2ccc(OCCN(C)C)c(CC=C)c2)ccc1OCCC (optimized conformer: 58.489086485268004 kcal/mol)

>  <smiles>  (5) 
C=CCc1cc(-c2ccc(OCCN(C)C)c(CC=C)c2)ccc1OCCC

>  <score_type>  (5) 
oracle

>  <origin>  (5) 
adg

>  <m_score__min__energy>  (5) 
-7.1600000000000001

>  <m_primary>  (5) 
energy

$$$$
5:0
     RDKit          3D

 47 50  0  0  1  0  0  0  0  0999 V2000
   58.5410   30.3160   50.2150 C   0  0  0  0  0  0  0  0  0  0  0  0
   58.1840   31.8040   50.3510 C   0  0  0  0  0  0  0  0  0  0  0  0
   58.7970   32.4700   49.1410 C   0  0  0  0  0  0  0  0  0  0  0  0
   57.8290   32.7840   48.1570 O   0  0  0  0  0  0  0  0  0  0  0  0
   58.2910   33.5180   47.0700 C   0  0  0  0  0  0  0  0  0  0  0  0
   59.1920   34.5490   47.1780 C   0  0  0  0  0  0  0  0  0  0  0  0
   59.6440   35.2840   46.1010 C   0  0  0  0  0  0  0  0  0  0  0  0
   59.1450   34.9350   44.8650 C   0  0  0  0  0  0  0  0  0  0  0  0
   58.2510   33.9160   44.7190 N   0  0  0  0  0  0  0  0  0  0  0  0
   57.8240   33.2080   45.8120 C   0  0  0  0  0  0  0  0  0  0  0  0
   57.0210   32.2410   45.5490 N   0  0  0  0  0  0  0  0  0  0  0  0
   57.3370   31.3680   44.4690 C   0  0  0  0  0  0  0  0  0  0  0  0
   57.0930   31.6310   43.2650 O   0  0  0  0  0  0  0  0  0  0  0  0
   57.9900   30.0930   44.8670 C   0  0  0  0  0  0  0  0  0  0  0  0
   57.4800   28.8750   44.4170 C   0  0  0  0  0  0  0  0  0  0  0  0
   58.0200   27.6610   44.7410 C   0  0  0  0  0  0  0  0  0  0  0  0
   59.1230   27.6420   45.5540 C   0  0  0  0  0  0  0  0  0  0  0  0
   59.6320   28.8430   46.0020 C   0  0  0  0  0  0  0  0  0  0  0  0
   60.6870   29.0960   46.7980 N   0  0  0  0  0  0  0  0  0  0  0  0
   60.7990   30.4440   46.9620 C   0  0  0  0  0  0  0  0  0  0  0  0
   61.8530   31.0410   47.7730 C   0  0  0  0  0  0  0  0  0  0  0  0
   61.7960   30.9680   49.1780 C   0  0  0  0  0  0  0  0  0  0  0  0
   62.8460   31.5820   49.8160 C   0  0  0  0  0  0  0  0  0  0  0  0
   63.8790   32.2180   49.2080 C   0  0  0  0  0  0  0  0  0  0  0  0
   64.8420   32.7820   49.7730 O   0  0  0  0  0  0  0  0  0  0  0  0
   63.8490   32.2360   47.8350 N   0  0  0  0  0  0  0  0  0  0  0  0
   62.8770   31.6700   47.1470 N   0  0  0  0  0  0  0  0  0  0  0  0
   59.8090   31.0200   46.2660 N   0  0  0  0  0  0  0  0  0  0  0  0
   59.0940   30.0670   45.6790 C   0  0  0  0  0  0  0  0  0  0  0  0
   58.6476   29.8716   51.2156 H   0  0  0  0  0  0  0  0  0  0  0  0
   57.7421   29.7960   49.6660 H   0  0  0  0  0  0  0  0  0  0  0  0
   59.4889   30.2150   49.6660 H   0  0  0  0  0  0  0  0  0  0  0  0
   57.0925   31.9401   50.3548 H   0  0  0  0  0  0  0  0  0  0  0  0
   58.5601   32.2330   51.2915 H   0  0  0  0  0  0  0  0  0  0  0  0
   59.2920   33.3990   49.4604 H   0  0  0  0  0  0  0  0  0  0  0  0
   59.5160   31.7666   48.6957 H   0  0  0  0  0  0  0  0  0  0  0  0
   59.5743   34.8028   48.1777 H   0  0  0  0  0  0  0  0  0  0  0  0
   60.3651   36.1057   46.2229 H   0  0  0  0  0  0  0  0  0  0  0  0
   59.4755   35.4914   43.9755 H   0  0  0  0  0  0  0  0  0  0  0  0
   57.9030   33.6920   43.7650 H   0  0  0  0  0  0  0  0  0  0  0  0
   56.5941   28.8920   43.7652 H   0  0  0  0  0  0  0  0  0  0  0  0
   57.5816   26.7268   44.3600 H   0  0  0  0  0  0  0  0  0  0  0  0
   59.5921   26.6899   45.8429 H   0  0  0  0  0  0  0  0  0  0  0  0
   61.2930   28.3390   47.1980 H   0  0  0  0  0  0  0  0  0  0  0  0
   60.9813   30.4631   49.7178 H   0  0  0  0  0  0  0  0  0  0  0  0
   62.8498   31.5559   50.9157 H   0  0  0  0  0  0  0  0  0  0  0  0
   64.6300   32.7180   47.3060 H   0  0  0  0  0  0  0  0  0  0  0  0
  1  2  1  0
  2  3  1  0
  3  4  1  0
  4  5  1  0
  5  6  2  0
  6  7  1  0
  7  8  2  0
  8  9  1  0
  9 10  1  0
 10 11  2  0
 11 12  1  0
 12 13  2  0
 12 14  1  0
 14 15  2  0
 15 16  1  0
 16 17  2  0
 17 18  1  0
 18 19  1  0
 19 20  1  0
 20 21  1  0
 21 22  1  0
 22 23  2  0
 23 24  1  0
 24 25  2  0
 24 26  1  0
 26 27  1  0
 20 28  2  0
 28 29  1  0
 10  5  1  0
 29 14  1  0
 29 18  2  0
 27 21  2  0
  1 30  1  0
  1 31  1  0
  1 32  1  0
  2 33  1  0
  2 34  1  0
  3 35  1  0
  3 36  1  0
  6 37  1  0
  7 38  1  0
  8 39  1  0
  9 40  1  0
 15 41  1  0
 16 42  1  0
 17 43  1  0
 19 44  1  0
 22 45  1  0
 23 46  1  0
 26 47  1  0
M  END
>  <smiles>  (6) 
CCCOc1ccc[nH]c1=NC(=O)c1cccc2[nH]c(-c3ccc(=O)[nH]n3)nc12

>  <score_type>  (6) 
oracle

>  <origin>  (6) 
adg

>  <m_score__min__energy>  (6) 
-8.3399999999999999

>  <m_primary>  (6) 
energy

$$$$
6:0
     RDKit          3D

 41 42  0  0  0  0  0  0  0  0999 V2000
   59.7459   27.2822   48.6355 H   0  0  0  0  0  0  0  0  0  0  0  0
   57.4140   29.2180   45.4170 C   0  0  0  0  0  0  0  0  0  0  0  0
   59.3890   29.4130   49.1930 C   0  0  0  0  0  0  0  0  0  0  0  0
   58.8730   29.5590   50.3350 O   0  0  0  0  0  0  0  0  0  0  0  0
   60.2660   30.4840   48.6570 C   0  0  0  0  0  0  0  0  0  0  0  0
   61.1830   30.1900   47.6300 C   0  0  0  0  0  0  0  0  0  0  0  0
   61.2421   29.1682   47.2270 H   0  0  0  0  0  0  0  0  0  0  0  0
   62.0200   31.1880   47.1180 C   0  0  0  0  0  0  0  0  0  0  0  0
   62.7284   30.9493   46.3111 H   0  0  0  0  0  0  0  0  0  0  0  0
   61.9580   32.4860   47.6290 C   0  0  0  0  0  0  0  0  0  0  0  0
   63.1040   33.8450   46.9300 Br  0  0  0  0  0  0  0  0  0  0  0  0
   61.0610   32.7880   48.6570 C   0  0  0  0  0  0  0  0  0  0  0  0
   61.0156   33.8096   49.0624 H   0  0  0  0  0  0  0  0  0  0  0  0
   60.2210   31.7960   49.1720 C   0  0  0  0  0  0  0  0  0  0  0  0
   59.5205   32.0405   49.9841 H   0  0  0  0  0  0  0  0  0  0  0  0
   58.3930   28.5460   46.0860 C   0  0  0  0  0  0  0  0  0  0  0  0
   57.1958   27.6818   47.7702 H   0  0  0  0  0  0  0  0  0  0  0  0
   58.1770   28.0940   47.4920 C   0  0  0  0  0  0  0  0  0  0  0  0
   59.1320   28.1710   48.4280 C   0  0  0  0  0  0  0  0  0  0  0  0
   56.0440   28.6750   45.2270 C   0  0  0  0  0  0  0  0  0  0  0  0
   55.1430   29.4060   44.7340 O   0  0  0  0  0  0  0  0  0  0  0  0
   55.7100   27.3910   45.6410 O   0  0  0  0  0  0  0  0  0  0  0  0
   57.6590   30.5680   44.8600 C   0  0  0  0  0  0  0  0  0  0  0  0
   57.5790   30.7820   43.4780 C   0  0  0  0  0  0  0  0  0  0  0  0
   57.3238   29.9487   42.8069 H   0  0  0  0  0  0  0  0  0  0  0  0
   57.8230   32.0530   42.9510 C   0  0  0  0  0  0  0  0  0  0  0  0
   57.7535   32.2190   41.8658 H   0  0  0  0  0  0  0  0  0  0  0  0
   58.1550   33.1140   43.7980 C   0  0  0  0  0  0  0  0  0  0  0  0
   58.3427   34.1131   43.3777 H   0  0  0  0  0  0  0  0  0  0  0  0
   58.2500   32.9080   45.1880 C   0  0  0  0  0  0  0  0  0  0  0  0
   58.5830   33.9390   46.0800 O   0  0  0  0  0  0  0  0  0  0  0  0
   59.5800   34.9250   45.8320 C   0  0  0  0  0  0  0  0  0  0  0  0
   59.9651   35.3059   46.7894 H   0  0  0  0  0  0  0  0  0  0  0  0
   60.4041   34.4768   45.2575 H   0  0  0  0  0  0  0  0  0  0  0  0
   59.1410   35.7540   45.2575 H   0  0  0  0  0  0  0  0  0  0  0  0
   58.0050   31.6320   45.7090 C   0  0  0  0  0  0  0  0  0  0  0  0
   58.0842   31.4612   46.7928 H   0  0  0  0  0  0  0  0  0  0  0  0
   59.7220   28.2360   45.4340 C   0  0  0  0  0  0  0  0  0  0  0  0
   60.4796   28.0593   46.2117 H   0  0  0  0  0  0  0  0  0  0  0  0
   59.6225   27.3370   44.8080 H   0  0  0  0  0  0  0  0  0  0  0  0
   60.0305   29.0863   44.8080 H   0  0  0  0  0  0  0  0  0  0  0  0
  1  2  1  0
  2  3  1  0
  3  4  2  0
  3  5  1  0
  5  6  2  0
  6  7  1  0
  6  8  1  0
  8  9  1  0
  8 10  2  0
 10 11  1  0
 10 12  1  0
 12 13  1  0
 12 14  2  0
 14 15  1  0
  2 16  2  0
 16 17  1  0
 16 18  1  0
 18 19  2  3
 19 20  1  0
 20 21  2  0
 20 22  1  0
 19 23  1  0
 23 24  2  0
 24 25  1  0
 24 26  1  0
 26 27  1  0
 26 28  2  0
 28 29  1  0
 28 30  1  0
 30 31  1  0
 31 32  1  0
 32 33  1  0
 32 34  1  0
 32 35  1  0
 30 36  2  0
 36 37  1  0
 18 38  1  0
 38 39  1  0
 38 40  1  0
 38 41  1  0
 14  5  1  0
 36 23  1  0
M  CHG  1  22  -1
M  END
>  <UniqueID>  (7) 
6

>  <SMILES>  (7) 
COc1cccc(C(C(=O)[O-])=C(C)/C=C/C(=O)c2ccc(Br)cc2)c1

>  <Energy>  (7) 
58.55596645383768

>  <Genealogy>  (7) 
COc1cccc(C(C(=O)[O-])=C(C)C=CC(=O)c2ccc(Br)cc2)c1 (protonated)
COc1cccc(C(C(=O)[O-])=C(C)/C=C/C(=O)c2ccc(Br)cc2)c1 (cis-trans isomerization)
COc1cccc(C(C(=O)[O-])=C(C)/C=C/C(=O)c2ccc(Br)cc2)c1 (3D coordinates assigned)
COc1cccc(C(C(=O)[O-])=C(C)/C=C/C(=O)c2ccc(Br)cc2)c1 (optimized conformer: 58.55596645383768 kcal/mol)

>  <smiles>  (7) 
COc1cccc(C(C(=O)O)=C(C)C=CC(=O)c2ccc(Br)cc2)c1

>  <score_type>  (7) 
oracle

>  <origin>  (7) 
adg

>  <m_score__min__energy>  (7) 
-11.800000000000001

>  <m_primary>  (7) 
energy

$$$$
7:0
     RDKit          3D

 51 54  0  0  0  0  0  0  0  0999 V2000
   56.9900   20.8120   47.5870 C   0  0  0  0  0  0  0  0  0  0  0  0
   56.0980   21.8080   46.9910 N   0  0  0  0  0  0  0  0  0  0  0  0
   54.9580   22.3510   47.7290 C   0  0  0  0  0  0  0  0  0  0  0  0
   56.2900   22.1990   45.6230 C   0  0  0  0  0  0  0  0  0  0  0  0
   56.4780   21.2430   44.6690 N   0  0  0  0  0  0  0  0  0  0  0  0
   56.6630   21.5640   43.3600 C   0  0  0  0  0  0  0  0  0  0  0  0
   56.6530   22.8990   42.9580 C   0  0  0  0  0  0  0  0  0  0  0  0
   56.4550   23.8990   43.9100 C   0  0  0  0  0  0  0  0  0  0  0  0
   56.2880   23.5600   45.2620 C   0  0  0  0  0  0  0  0  0  0  0  0
   56.0220   24.5550   46.2620 N   0  0  0  0  0  0  0  0  0  0  0  0
   56.1600   25.9750   46.1150 C   0  0  0  0  0  0  0  0  0  0  0  0
   55.1380   26.7090   46.0640 O   0  0  0  0  0  0  0  0  0  0  0  0
   57.5120   26.5670   46.0180 C   0  0  0  0  0  0  0  0  0  0  0  0
   58.6390   25.7790   46.3410 C   0  0  0  0  0  0  0  0  0  0  0  0
   59.9360   26.3230   46.2990 C   0  0  0  0  0  0  0  0  0  0  0  0
   60.1350   27.6600   45.9320 C   0  0  0  0  0  0  0  0  0  0  0  0
   59.0250   28.4350   45.6020 C   0  0  0  0  0  0  0  0  0  0  0  0
   57.7460   27.9050   45.6370 C   0  0  0  0  0  0  0  0  0  0  0  0
   56.8620   28.9540   45.1600 C   0  0  0  0  0  0  0  0  0  0  0  0
   55.6260   28.8500   44.9420 O   0  0  0  0  0  0  0  0  0  0  0  0
   57.6140   30.1320   44.8830 N   0  0  0  0  0  0  0  0  0  0  0  0
   57.0760   31.3960   44.3900 C   0  0  0  0  0  0  0  0  0  0  0  0
   57.7790   32.5490   45.0550 C   0  0  0  0  0  0  0  0  0  0  0  0
   58.4850   33.4820   44.2800 C   0  0  0  0  0  0  0  0  0  0  0  0
   59.1680   34.5360   44.8950 C   0  0  0  0  0  0  0  0  0  0  0  0
   59.1550   34.6620   46.2870 C   0  0  0  0  0  0  0  0  0  0  0  0
   59.8170   35.6840   46.8830 F   0  0  0  0  0  0  0  0  0  0  0  0
   58.4610   33.7300   47.0660 C   0  0  0  0  0  0  0  0  0  0  0  0
   57.7770   32.6750   46.4540 C   0  0  0  0  0  0  0  0  0  0  0  0
   59.0280   29.8630   45.1420 C   0  0  0  0  0  0  0  0  0  0  0  0
   56.9317   20.8771   48.6835 H   0  0  0  0  0  0  0  0  0  0  0  0
   56.6852   19.8061   47.2627 H   0  0  0  0  0  0  0  0  0  0  0  0
   58.0233   21.0044   47.2627 H   0  0  0  0  0  0  0  0  0  0  0  0
   55.1447   22.2621   48.8094 H   0  0  0  0  0  0  0  0  0  0  0  0
   54.8222   23.4105   47.4663 H   0  0  0  0  0  0  0  0  0  0  0  0
   54.0497   21.7888   47.4663 H   0  0  0  0  0  0  0  0  0  0  0  0
   56.4900   20.2350   44.9440 H   0  0  0  0  0  0  0  0  0  0  0  0
   56.8208   20.7684   42.6170 H   0  0  0  0  0  0  0  0  0  0  0  0
   56.7999   23.1612   41.8999 H   0  0  0  0  0  0  0  0  0  0  0  0
   56.4297   24.9544   43.6010 H   0  0  0  0  0  0  0  0  0  0  0  0
   58.5009   24.7264   46.6291 H   0  0  0  0  0  0  0  0  0  0  0  0
   60.8004   25.6933   46.5564 H   0  0  0  0  0  0  0  0  0  0  0  0
   61.1473   28.0896   45.9048 H   0  0  0  0  0  0  0  0  0  0  0  0
   57.2264   31.4563   43.3020 H   0  0  0  0  0  0  0  0  0  0  0  0
   56.0018   31.4460   44.6215 H   0  0  0  0  0  0  0  0  0  0  0  0
   58.5012   33.3838   43.1845 H   0  0  0  0  0  0  0  0  0  0  0  0
   59.7162   35.2669   44.2824 H   0  0  0  0  0  0  0  0  0  0  0  0
   58.4534   33.8272   48.1617 H   0  0  0  0  0  0  0  0  0  0  0  0
   57.2358   31.9417   47.0699 H   0  0  0  0  0  0  0  0  0  0  0  0
   59.6265   29.9816   44.2267 H   0  0  0  0  0  0  0  0  0  0  0  0
   59.4716   30.5523   45.8756 H   0  0  0  0  0  0  0  0  0  0  0  0
  1  2  1  0
  2  3  1  0
  2  4  1  0
  4  5  2  0
  5  6  1  0
  6  7  2  0
  7  8  1  0
  8  9  2  0
  9 10  1  0
 10 11  1  0
 11 12  2  0
 11 13  1  0
 13 14  2  0
 14 15  1  0
 15 16  2  0
 16 17  1  0
 17 18  2  0
 18 19  1  0
 19 20  2  0
 19 21  1  0
 21 22  1  0
 22 23  1  0
 23 24  2  0
 24 25  1  0
 25 26  2  0
 26 27  1  0
 26 28  1  0
 28 29  2  0
 21 30  1  0
  9  4  1  0
 18 13  1  0
 29 23  1  0
 30 17  1  0
  1 31  1  0
  1 32  1  0
  1 33  1  0
  3 34  1  0
  3 35  1  0
  3 36  1  0
  5 37  1  0
  6 38  1  0
  7 39  1  0
  8 40  1  0
 14 41  1  0
 15 42  1  0
 16 43  1  0
 22 44  1  0
 22 45  1  0
 24 46  1  0
 25 47  1  0
 28 48  1  0
 29 49  1  0
 30 50  1  0
 30 51  1  0
M  CHG  2   5   1  10  -1
M  END
>  <UniqueID>  (8) 
7

>  <SMILES>  (8) 
CN(C)c1[nH+]cccc1[N-]C(=O)c1cccc2c1C(=O)N(Cc1ccc(F)cc1)C2

>  <Energy>  (8) 
85.08541651956976

>  <Genealogy>  (8) 
CN(C)c1[nH+]cccc1[N-]C(=O)c1cccc2c1C(=O)N(Cc1ccc(F)cc1)C2 (protonated)
CN(C)c1[nH+]cccc1[N-]C(=O)c1cccc2c1C(=O)N(Cc1ccc(F)cc1)C2 (3D coordinates assigned)
CN(C)c1[nH+]cccc1[N-]C(=O)c1cccc2c1C(=O)N(Cc1ccc(F)cc1)C2 (nonaromatic ring conformer: 85.08541651956976 kcal/mol)

>  <smiles>  (8) 
CN(C)c1ncccc1NC(=O)c1cccc2c1C(=O)N(Cc1ccc(F)cc1)C2

>  <score_type>  (8) 
oracle

>  <origin>  (8) 
adg

>  <m_score__min__energy>  (8) 
-9.8399999999999999

>  <m_primary>  (8) 
energy

$$$$
8:0
     RDKit          3D

 33 34  0  0  0  0  0  0  0  0999 V2000
   64.0940   33.3670   49.2490 C   0  0  0  0  0  0  0  0  0  0  0  0
   62.8270   33.0500   48.5450 N   0  0  0  0  0  0  0  0  0  0  0  0
   62.5380   31.6080   48.7660 C   0  0  0  0  0  0  0  0  0  0  0  0
   63.0020   33.3220   47.0780 C   0  0  0  0  0  0  0  0  0  0  0  0
   61.7320   33.8440   46.3730 C   0  0  0  0  0  0  0  0  0  0  0  0
   60.5250   33.3620   47.0490 N   0  0  0  0  0  0  0  0  0  0  0  0
   59.4920   32.6630   46.3270 C   0  0  0  0  0  0  0  0  0  0  0  0
   59.4550   31.2570   46.3190 C   0  0  0  0  0  0  0  0  0  0  0  0
   58.4610   30.5800   45.6060 C   0  0  0  0  0  0  0  0  0  0  0  0
   57.4990   31.2980   44.8880 C   0  0  0  0  0  0  0  0  0  0  0  0
   56.2540   30.4460   43.9920 Cl  0  0  0  0  0  0  0  0  0  0  0  0
   57.5340   32.6950   44.8810 C   0  0  0  0  0  0  0  0  0  0  0  0
   58.5270   33.3760   45.5940 C   0  0  0  0  0  0  0  0  0  0  0  0
   60.3750   33.6300   48.4820 C   0  0  0  0  0  0  0  0  0  0  0  0
   61.7460   33.8910   49.1350 C   0  0  0  0  0  0  0  0  0  0  0  0
   63.9297   33.3259   50.3359 H   0  0  0  0  0  0  0  0  0  0  0  0
   64.8638   32.6338   48.9665 H   0  0  0  0  0  0  0  0  0  0  0  0
   64.4278   34.3763   48.9665 H   0  0  0  0  0  0  0  0  0  0  0  0
   62.4970   31.4036   49.8461 H   0  0  0  0  0  0  0  0  0  0  0  0
   61.5710   31.3534   48.3077 H   0  0  0  0  0  0  0  0  0  0  0  0
   63.3322   31.0004   48.3077 H   0  0  0  0  0  0  0  0  0  0  0  0
   63.7958   34.0742   46.9594 H   0  0  0  0  0  0  0  0  0  0  0  0
   63.2511   32.3598   46.6067 H   0  0  0  0  0  0  0  0  0  0  0  0
   61.7382   34.9439   46.3872 H   0  0  0  0  0  0  0  0  0  0  0  0
   61.7270   33.4739   45.3372 H   0  0  0  0  0  0  0  0  0  0  0  0
   60.2124   30.6868   46.8769 H   0  0  0  0  0  0  0  0  0  0  0  0
   58.4354   29.4803   45.6097 H   0  0  0  0  0  0  0  0  0  0  0  0
   56.7797   33.2603   44.3140 H   0  0  0  0  0  0  0  0  0  0  0  0
   58.5528   34.4756   45.5809 H   0  0  0  0  0  0  0  0  0  0  0  0
   59.7359   34.5148   48.6187 H   0  0  0  0  0  0  0  0  0  0  0  0
   59.9180   32.7508   48.9597 H   0  0  0  0  0  0  0  0  0  0  0  0
   62.0073   34.9504   48.9961 H   0  0  0  0  0  0  0  0  0  0  0  0
   61.6641   33.6320   50.2009 H   0  0  0  0  0  0  0  0  0  0  0  0
  1  2  1  0
  2  3  1  0
  2  4  1  0
  4  5  1  0
  5  6  1  0
  6  7  1  0
  7  8  2  0
  8  9  1  0
  9 10  2  0
 10 11  1  0
 10 12  1  0
 12 13  2  0
  6 14  1  0
 14 15  1  0
 15  2  1  0
 13  7  1  0
  1 16  1  0
  1 17  1  0
  1 18  1  0
  3 19  1  0
  3 20  1  0
  3 21  1  0
  4 22  1  0
  4 23  1  0
  5 24  1  0
  5 25  1  0
  8 26  1  0
  9 27  1  0
 12 28  1  0
 13 29  1  0
 14 30  1  0
 14 31  1  0
 15 32  1  0
 15 33  1  0
M  CHG  1   2   1
M  END
>  <UniqueID>  (9) 
8

>  <SMILES>  (9) 
C[N+]1(C)CCN(c2ccc(Cl)cc2)CC1

>  <Energy>  (9) 
47.753984022016056

>  <Genealogy>  (9) 
C[N+]1(C)CCN(c2ccc(Cl)cc2)CC1 (3D coordinates assigned)
C[N+]1(C)CCN(c2ccc(Cl)cc2)CC1 (nonaromatic ring conformer: 47.753984022016056 kcal/mol)

>  <smiles>  (9) 
C[N+]1(C)CCN(c2ccc(Cl)cc2)CC1

>  <score_type>  (9) 
oracle

>  <origin>  (9) 
adg

>  <m_score__min__energy>  (9) 
-4.2999999999999998

>  <m_primary>  (9) 
energy

$$$$
9:0
     RDKit          3D

 39 41  0  0  0  0  0  0  0  0999 V2000
   58.3719   34.7155   47.6376 H   0  0  0  0  0  0  0  0  0  0  0  0
   58.2440   34.1700   46.6910 C   0  0  0  0  0  0  0  0  0  0  0  0
   57.3850   33.1240   46.5610 N   0  0  0  0  0  0  0  0  0  0  0  0
   57.4000   32.6190   45.3060 C   0  0  0  0  0  0  0  0  0  0  0  0
   56.6910   31.6030   44.9050 N   0  0  0  0  0  0  0  0  0  0  0  0
   57.0730   30.2150   44.8640 C   0  0  0  0  0  0  0  0  0  0  0  0
   56.2260   29.3490   45.2170 O   0  0  0  0  0  0  0  0  0  0  0  0
   58.4370   29.7650   44.4230 C   0  0  0  0  0  0  0  0  0  0  0  0
   58.9718   30.6189   43.9816 H   0  0  0  0  0  0  0  0  0  0  0  0
   58.3171   28.9598   43.6832 H   0  0  0  0  0  0  0  0  0  0  0  0
   59.1930   29.2600   45.5250 O   0  0  0  0  0  0  0  0  0  0  0  0
   59.5110   30.0150   46.6650 C   0  0  0  0  0  0  0  0  0  0  0  0
   58.9670   29.6330   47.8990 C   0  0  0  0  0  0  0  0  0  0  0  0
   58.2883   28.7691   47.9531 H   0  0  0  0  0  0  0  0  0  0  0  0
   59.2820   30.3440   49.0630 C   0  0  0  0  0  0  0  0  0  0  0  0
   58.8551   30.0334   50.0280 H   0  0  0  0  0  0  0  0  0  0  0  0
   60.1380   31.4480   49.0020 C   0  0  0  0  0  0  0  0  0  0  0  0
   60.3853   32.0029   49.9190 H   0  0  0  0  0  0  0  0  0  0  0  0
   60.6810   31.8480   47.7740 C   0  0  0  0  0  0  0  0  0  0  0  0
   61.7500   33.2440   47.6920 S   0  0  0  0  0  0  0  0  0  0  0  0
   60.9600   34.5110   47.8720 O   0  0  0  0  0  0  0  0  0  0  0  0
   62.4320   33.2700   46.3520 O   0  0  0  0  0  0  0  0  0  0  0  0
   62.9370   33.1410   48.9480 N   0  0  0  0  0  0  0  0  0  0  0  0
   62.7910   33.5660   50.2180 C   0  0  0  0  0  0  0  0  0  0  0  0
   61.8649   33.9610   50.6611 H   0  0  0  0  0  0  0  0  0  0  0  0
   64.0020   33.4220   50.8710 C   0  0  0  0  0  0  0  0  0  0  0  0
   64.2375   33.6750   51.9153 H   0  0  0  0  0  0  0  0  0  0  0  0
   64.8520   32.8880   49.9160 C   0  0  0  0  0  0  0  0  0  0  0  0
   66.3130   32.6190   50.0850 C   0  0  0  0  0  0  0  0  0  0  0  0
   66.5560   32.5743   51.1569 H   0  0  0  0  0  0  0  0  0  0  0  0
   66.5663   31.6591   49.6112 H   0  0  0  0  0  0  0  0  0  0  0  0
   66.8916   33.4257   49.6112 H   0  0  0  0  0  0  0  0  0  0  0  0
   64.1830   32.7410   48.7580 N   0  0  0  0  0  0  0  0  0  0  0  0
   64.5760   32.4110   47.8470 H   0  0  0  0  0  0  0  0  0  0  0  0
   60.3620   31.1360   46.6080 C   0  0  0  0  0  0  0  0  0  0  0  0
   60.7797   31.4556   45.6419 H   0  0  0  0  0  0  0  0  0  0  0  0
   58.4770   33.4400   44.3160 S   0  0  0  0  0  0  0  0  0  0  0  0
   58.9490   34.4990   45.5380 C   0  0  0  0  0  0  0  0  0  0  0  0
   59.6863   35.3095   45.4410 H   0  0  0  0  0  0  0  0  0  0  0  0
  1  2  1  0
  2  3  1  0
  3  4  1  0
  4  5  2  0
  5  6  1  0
  6  7  2  0
  6  8  1  0
  8  9  1  0
  8 10  1  0
  8 11  1  0
 11 12  1  0
 12 13  2  0
 13 14  1  0
 13 15  1  0
 15 16  1  0
 15 17  2  0
 17 18  1  0
 17 19  1  0
 19 20  1  0
 20 21  2  0
 20 22  2  0
 20 23  1  0
 23 24  1  0
 24 25  1  0
 24 26  2  0
 26 27  1  0
 26 28  1  0
 28 29  1  0
 29 30  1  0
 29 31  1  0
 29 32  1  0
 28 33  2  0
 33 34  1  0
 19 35  2  0
 35 36  1  0
  4 37  1  0
 37 38  1  0
 38 39  1  0
 38  2  2  0
 35 12  1  0
 33 23  1  0
M  CHG  2   3  -1  33   1
M  END
>  <UniqueID>  (10) 
9

>  <SMILES>  (10) 
Cc1ccn(S(=O)(=O)c2cccc(OCC(=O)/N=c3\[n-]ccs3)c2)[nH+]1

>  <Energy>  (10) 
102.98180157601296

>  <Genealogy>  (10) 
Cc1ccn(S(=O)(=O)c2cccc(OCC(=O)N=c3[n-]ccs3)c2)[nH+]1 (protonated)
Cc1ccn(S(=O)(=O)c2cccc(OCC(=O)/N=c3\[n-]ccs3)c2)[nH+]1 (cis-trans isomerization)
Cc1ccn(S(=O)(=O)c2cccc(OCC(=O)/N=c3\[n-]ccs3)c2)[nH+]1 (3D coordinates assigned)
Cc1ccn(S(=O)(=O)c2cccc(OCC(=O)/N=c3\[n-]ccs3)c2)[nH+]1 (optimized conformer: 102.98180157601296 kcal/mol)

>  <smiles>  (10) 
Cc1ccn(S(=O)(=O)c2cccc(OCC(=O)N=c3[nH]ccs3)c2)n1

>  <score_type>  (10) 
oracle

>  <origin>  (10) 
adg

>  <m_score__min__energy>  (10) 
-10.09

>  <m_primary>  (10) 
energy

$$$$
10:0
     RDKit          3D

 36 38  0  0  0  0  0  0  0  0999 V2000
   58.5600   34.0590   44.7970 C   0  0  0  0  0  0  0  0  0  0  0  0
   58.2940   32.6200   44.8990 N   0  0  0  0  0  0  0  0  0  0  0  0
   57.5960   31.9620   43.7830 C   0  0  0  0  0  0  0  0  0  0  0  0
   57.8910   30.4620   43.7540 C   0  0  0  0  0  0  0  0  0  0  0  0
   57.6090   29.8860   45.0710 N   0  0  0  0  0  0  0  0  0  0  0  0
   56.5040   28.9250   45.2180 C   0  0  0  0  0  0  0  0  0  0  0  0
   57.0440   27.5620   45.5710 C   0  0  0  0  0  0  0  0  0  0  0  0
   58.4260   27.3140   45.4880 C   0  0  0  0  0  0  0  0  0  0  0  0
   58.9340   26.0430   45.7640 C   0  0  0  0  0  0  0  0  0  0  0  0
   58.0710   25.0050   46.1190 C   0  0  0  0  0  0  0  0  0  0  0  0
   56.6950   25.2360   46.1990 C   0  0  0  0  0  0  0  0  0  0  0  0
   56.1780   26.5080   45.9250 C   0  0  0  0  0  0  0  0  0  0  0  0
   54.8050   26.7120   46.0090 O   0  0  0  0  0  0  0  0  0  0  0  0
   58.2250   30.5210   46.2090 C   0  0  0  0  0  0  0  0  0  0  0  0
   58.5330   29.7950   47.3740 C   0  0  0  0  0  0  0  0  0  0  0  0
   59.1380   30.4280   48.4600 C   0  0  0  0  0  0  0  0  0  0  0  0
   59.4600   31.7820   48.3910 C   0  0  0  0  0  0  0  0  0  0  0  0
   59.1870   32.5100   47.2310 C   0  0  0  0  0  0  0  0  0  0  0  0
   58.5690   31.8900   46.1240 C   0  0  0  0  0  0  0  0  0  0  0  0
   58.6396   34.4896   45.8061 H   0  0  0  0  0  0  0  0  0  0  0  0
   59.5031   34.2200   44.2542 H   0  0  0  0  0  0  0  0  0  0  0  0
   57.7368   34.5465   44.2542 H   0  0  0  0  0  0  0  0  0  0  0  0
   56.5125   32.1124   43.8988 H   0  0  0  0  0  0  0  0  0  0  0  0
   57.9505   32.4051   42.8406 H   0  0  0  0  0  0  0  0  0  0  0  0
   57.2559   29.9775   42.9977 H   0  0  0  0  0  0  0  0  0  0  0  0
   58.9491   30.3001   43.5007 H   0  0  0  0  0  0  0  0  0  0  0  0
   55.8290   29.2666   46.0165 H   0  0  0  0  0  0  0  0  0  0  0  0
   55.9561   28.8591   44.2664 H   0  0  0  0  0  0  0  0  0  0  0  0
   59.1110   28.1265   45.2039 H   0  0  0  0  0  0  0  0  0  0  0  0
   60.0168   25.8593   45.7015 H   0  0  0  0  0  0  0  0  0  0  0  0
   58.4741   24.0048   46.3359 H   0  0  0  0  0  0  0  0  0  0  0  0
   56.0164   24.4164   46.4779 H   0  0  0  0  0  0  0  0  0  0  0  0
   58.2955   28.7224   47.4289 H   0  0  0  0  0  0  0  0  0  0  0  0
   59.3614   29.8568   49.3731 H   0  0  0  0  0  0  0  0  0  0  0  0
   59.9304   32.2786   49.2524 H   0  0  0  0  0  0  0  0  0  0  0  0
   59.4558   33.5754   47.1797 H   0  0  0  0  0  0  0  0  0  0  0  0
  1  2  1  0
  2  3  1  0
  3  4  1  0
  4  5  1  0
  5  6  1  0
  6  7  1  0
  7  8  2  0
  8  9  1  0
  9 10  2  0
 10 11  1  0
 11 12  2  0
 12 13  1  0
  5 14  1  0
 14 15  2  0
 15 16  1  0
 16 17  2  0
 17 18  1  0
 18 19  2  0
 19  2  1  0
 12  7  1  0
 19 14  1  0
  1 20  1  0
  1 21  1  0
  1 22  1  0
  3 23  1  0
  3 24  1  0
  4 25  1  0
  4 26  1  0
  6 27  1  0
  6 28  1  0
  8 29  1  0
  9 30  1  0
 10 31  1  0
 11 32  1  0
 15 33  1  0
 16 34  1  0
 17 35  1  0
 18 36  1  0
M  CHG  1  13  -1
M  END
>  <UniqueID>  (11) 
10

>  <SMILES>  (11) 
CN1CCN(Cc2ccccc2[O-])c2ccccc21

>  <Energy>  (11) 
40.08563947442863

>  <Genealogy>  (11) 
CN1CCN(Cc2ccccc2[O-])c2ccccc21 (protonated)
CN1CCN(Cc2ccccc2[O-])c2ccccc21 (3D coordinates assigned)
CN1CCN(Cc2ccccc2[O-])c2ccccc21 (nonaromatic ring conformer: 40.08563947442863 kcal/mol)

>  <smiles>  (11) 
CN1CCN(Cc2ccccc2O)c2ccccc21

>  <score_type>  (11) 
oracle

>  <origin>  (11) 
adg

>  <m_score__min__energy>  (11) 
-10.32

>  <m_primary>  (11) 
energy

$$$$
11:0
     RDKit          3D

 28 28  0  0  0  0  0  0  0  0999 V2000
   56.6640   24.6710   44.8140 C   0  0  0  0  0  0  0  0  0  0  0  0
   55.8910   25.0190   46.0800 C   0  0  0  0  0  0  0  0  0  0  0  0
   55.4610   26.4130   46.0530 N   0  0  0  0  0  0  0  0  0  0  0  0
   56.3000   27.4930   45.6330 C   0  0  0  0  0  0  0  0  0  0  0  0
   57.5550   27.3750   45.6800 O   0  0  0  0  0  0  0  0  0  0  0  0
   55.7050   28.6940   45.2300 O   0  0  0  0  0  0  0  0  0  0  0  0
   56.3360   29.6970   44.4780 C   0  0  0  0  0  0  0  0  0  0  0  0
   56.1380   29.7150   43.0940 C   0  0  0  0  0  0  0  0  0  0  0  0
   56.7510   30.6900   42.3040 C   0  0  0  0  0  0  0  0  0  0  0  0
   57.5780   31.6490   42.8930 C   0  0  0  0  0  0  0  0  0  0  0  0
   57.8100   31.6380   44.2730 C   0  0  0  0  0  0  0  0  0  0  0  0
   58.6600   32.6160   44.8080 O   0  0  0  0  0  0  0  0  0  0  0  0
   58.1350   34.0400   45.5990 S   0  0  0  0  0  0  0  0  0  0  0  0
   57.6670   33.6460   47.2160 N   0  0  0  0  0  0  0  0  0  0  0  0
   56.9580   34.6240   44.8690 O   0  0  0  0  0  0  0  0  0  0  0  0
   59.2540   35.0430   45.6390 O   0  0  0  0  0  0  0  0  0  0  0  0
   57.1890   30.6520   45.0660 C   0  0  0  0  0  0  0  0  0  0  0  0
   57.6358   24.2335   45.0864 H   0  0  0  0  0  0  0  0  0  0  0  0
   56.0884   23.9451   44.2208 H   0  0  0  0  0  0  0  0  0  0  0  0
   56.8258   25.5831   44.2208 H   0  0  0  0  0  0  0  0  0  0  0  0
   55.0064   24.3693   46.1534 H   0  0  0  0  0  0  0  0  0  0  0  0
   56.5479   24.8676   46.9492 H   0  0  0  0  0  0  0  0  0  0  0  0
   55.4951   28.9561   42.6242 H   0  0  0  0  0  0  0  0  0  0  0  0
   56.5823   30.7026   41.2171 H   0  0  0  0  0  0  0  0  0  0  0  0
   58.0511   32.4197   42.2667 H   0  0  0  0  0  0  0  0  0  0  0  0
   57.7650   32.6110   47.3180 H   0  0  0  0  0  0  0  0  0  0  0  0
   56.6490   33.8630   47.3010 H   0  0  0  0  0  0  0  0  0  0  0  0
   57.3714   30.6279   46.1505 H   0  0  0  0  0  0  0  0  0  0  0  0
  1  2  1  0
  2  3  1  0
  3  4  1  0
  4  5  2  0
  4  6  1  0
  6  7  1  0
  7  8  2  0
  8  9  1  0
  9 10  2  0
 10 11  1  0
 11 12  1  0
 12 13  1  0
 13 14  1  0
 13 15  2  0
 13 16  2  0
 11 17  2  0
 17  7  1  0
  1 18  1  0
  1 19  1  0
  1 20  1  0
  2 21  1  0
  2 22  1  0
  8 23  1  0
  9 24  1  0
 10 25  1  0
 14 26  1  0
 14 27  1  0
 17 28  1  0
M  CHG  1   3  -1
M  END
>  <UniqueID>  (12) 
11

>  <SMILES>  (12) 
CC[N-]C(=O)Oc1cccc(OS(N)(=O)=O)c1

>  <Energy>  (12) 
22.69163905483917

>  <Genealogy>  (12) 
CC[N-]C(=O)Oc1cccc(OS(N)(=O)=O)c1 (protonated)
CC[N-]C(=O)Oc1cccc(OS(N)(=O)=O)c1 (3D coordinates assigned)
CC[N-]C(=O)Oc1cccc(OS(N)(=O)=O)c1 (optimized conformer: 22.69163905483917 kcal/mol)

>  <smiles>  (12) 
CCNC(=O)Oc1cccc(OS(N)(=O)=O)c1

>  <score_type>  (12) 
oracle

>  <origin>  (12) 
adg

>  <m_score__min__energy>  (12) 
-7.9500000000000002

>  <m_primary>  (12) 
energy

$$$$
12:0
     RDKit          3D

 34 35  0  0  1  0  0  0  0  0999 V2000
   59.4620   29.3330   47.4180 O   0  0  0  0  0  0  0  0  0  0  0  0
   58.9570   30.3380   46.9130 C   0  0  0  0  0  0  0  0  0  0  0  0
   59.6090   31.5810   46.8640 N   0  0  0  0  0  0  0  0  0  0  0  0
   60.8940   31.8740   47.3620 C   0  0  0  0  0  0  0  0  0  0  0  0
   62.0560   31.2490   47.0130 C   0  0  0  0  0  0  0  0  0  0  0  0
   63.2990   31.5960   47.5520 C   0  0  0  0  0  0  0  0  0  0  0  0
   63.3900   32.6080   48.4790 C   0  0  0  0  0  0  0  0  0  0  0  0
   62.2270   33.2420   48.8370 C   0  0  0  0  0  0  0  0  0  0  0  0
   62.2940   34.5320   50.0100 Cl  0  0  0  0  0  0  0  0  0  0  0  0
   61.0050   32.8980   48.3040 C   0  0  0  0  0  0  0  0  0  0  0  0
   57.6660   30.1960   46.3710 O   0  0  0  0  0  0  0  0  0  0  0  0
   57.4700   29.4950   45.1980 N   0  0  0  0  0  0  0  0  0  0  0  0
   56.3780   29.7780   44.5600 C   0  0  0  0  0  0  0  0  0  0  0  0
   55.1600   29.1570   44.8540 O   0  0  0  0  0  0  0  0  0  0  0  0
   56.3600   30.7980   43.4600 C   0  0  0  0  0  0  0  0  0  0  0  0
   57.7030   31.4670   43.3040 C   0  0  0  0  0  0  0  0  0  0  0  0
   57.8020   32.5280   44.2780 N   0  0  0  0  0  0  0  0  0  0  0  0
   58.7890   33.4700   44.2240 C   0  0  0  0  0  0  0  0  0  0  0  0
   58.6450   34.3490   45.2640 C   0  0  0  0  0  0  0  0  0  0  0  0
   57.5690   33.9390   45.9480 N   0  0  0  0  0  0  0  0  0  0  0  0
   57.0640   32.8290   45.3390 C   0  0  0  0  0  0  0  0  0  0  0  0
   59.0640   32.3660   46.4020 H   0  0  0  0  0  0  0  0  0  0  0  0
   62.0129   30.4353   46.2741 H   0  0  0  0  0  0  0  0  0  0  0  0
   64.2049   31.0590   47.2342 H   0  0  0  0  0  0  0  0  0  0  0  0
   64.3570   32.8977   48.9161 H   0  0  0  0  0  0  0  0  0  0  0  0
   60.1024   33.4384   48.6254 H   0  0  0  0  0  0  0  0  0  0  0  0
   55.1540   28.1360   44.9380 H   0  0  0  0  0  0  0  0  0  0  0  0
   56.0969   30.3000   42.5151 H   0  0  0  0  0  0  0  0  0  0  0  0
   55.6183   31.5688   43.7163 H   0  0  0  0  0  0  0  0  0  0  0  0
   58.5049   30.7330   43.4720 H   0  0  0  0  0  0  0  0  0  0  0  0
   57.8041   31.8771   42.2883 H   0  0  0  0  0  0  0  0  0  0  0  0
   59.5798   33.5158   43.4608 H   0  0  0  0  0  0  0  0  0  0  0  0
   59.2832   35.2156   45.4914 H   0  0  0  0  0  0  0  0  0  0  0  0
   56.1796   32.2683   45.6757 H   0  0  0  0  0  0  0  0  0  0  0  0
  1  2  2  0
  2  3  1  0
  3  4  1  0
  4  5  2  0
  5  6  1  0
  6  7  2  0
  7  8  1  0
  8  9  1  0
  8 10  2  0
  2 11  1  0
 11 12  1  0
 12 13  2  0
 13 14  1  0
 13 15  1  0
 15 16  1  0
 16 17  1  0
 17 18  1  0
 18 19  2  0
 19 20  1  0
 20 21  2  0
 10  4  1  0
 21 17  1  0
  3 22  1  0
  5 23  1  0
  6 24  1  0
  7 25  1  0
 10 26  1  0
 14 27  1  0
 15 28  1  0
 15 29  1  0
 16 30  1  0
 16 31  1  0
 18 32  1  0
 19 33  1  0
 21 34  1  0
M  END
>  <smiles>  (13) 
O=C(Nc1cccc(Cl)c1)ON=C(O)CCn1ccnc1

>  <score_type>  (13) 
oracle

>  <origin>  (13) 
adg

>  <m_score__min__energy>  (13) 
-8.4900000000000002

>  <m_primary>  (13) 
energy

$$$$
13:0
     RDKit          3D

 40 42  0  0  0  0  0  0  0  0999 V2000
   58.9520   33.9890   45.8630 C   0  0  0  0  0  0  0  0  0  0  0  0
   58.3300   32.8800   45.0640 C   0  0  0  0  0  0  0  0  0  0  0  0
   58.2480   32.9790   43.6670 C   0  0  0  0  0  0  0  0  0  0  0  0
   57.6290   31.9670   42.9220 C   0  0  0  0  0  0  0  0  0  0  0  0
   57.5870   32.0520   41.4240 C   0  0  0  0  0  0  0  0  0  0  0  0
   57.1050   30.8440   43.5790 C   0  0  0  0  0  0  0  0  0  0  0  0
   57.1610   30.7400   44.9780 C   0  0  0  0  0  0  0  0  0  0  0  0
   56.5940   29.5800   45.6140 N   0  0  0  0  0  0  0  0  0  0  0  0
   57.0470   27.9470   45.2420 S   0  0  0  0  0  0  0  0  0  0  0  0
   57.3700   27.8340   43.7780 O   0  0  0  0  0  0  0  0  0  0  0  0
   55.8880   27.0470   45.5680 O   0  0  0  0  0  0  0  0  0  0  0  0
   58.4210   27.5020   46.2040 N   0  0  0  0  0  0  0  0  0  0  0  0
   58.9760   26.1850   46.2970 C   0  0  0  0  0  0  0  0  0  0  0  0
   59.9190   25.9850   47.1060 O   0  0  0  0  0  0  0  0  0  0  0  0
   58.4900   25.0560   45.4820 C   0  0  0  0  0  0  0  0  0  0  0  0
   58.8760   23.7230   45.6170 C   0  0  0  0  0  0  0  0  0  0  0  0
   58.1170   23.0360   44.6960 C   0  0  0  0  0  0  0  0  0  0  0  0
   58.0700   21.6770   44.3920 C   0  0  0  0  0  0  0  0  0  0  0  0
   57.1670   21.2590   43.3980 C   0  0  0  0  0  0  0  0  0  0  0  0
   56.3380   22.1970   42.7430 C   0  0  0  0  0  0  0  0  0  0  0  0
   56.4050   23.5620   43.0770 C   0  0  0  0  0  0  0  0  0  0  0  0
   57.3120   23.9470   44.0640 C   0  0  0  0  0  0  0  0  0  0  0  0
   57.5230   25.1840   44.5420 N   0  0  0  0  0  0  0  0  0  0  0  0
   57.7700   31.7720   45.7150 C   0  0  0  0  0  0  0  0  0  0  0  0
   58.8339   33.7785   46.9362 H   0  0  0  0  0  0  0  0  0  0  0  0
   60.0222   34.0611   45.6190 H   0  0  0  0  0  0  0  0  0  0  0  0
   58.4555   34.9398   45.6190 H   0  0  0  0  0  0  0  0  0  0  0  0
   58.6717   33.8552   43.1544 H   0  0  0  0  0  0  0  0  0  0  0  0
   57.1182   33.0007   41.1236 H   0  0  0  0  0  0  0  0  0  0  0  0
   58.6112   32.0067   41.0253 H   0  0  0  0  0  0  0  0  0  0  0  0
   57.0008   31.2109   41.0253 H   0  0  0  0  0  0  0  0  0  0  0  0
   56.6450   30.0357   42.9916 H   0  0  0  0  0  0  0  0  0  0  0  0
   55.8760   29.7110   46.3610 H   0  0  0  0  0  0  0  0  0  0  0  0
   59.6245   23.3098   46.3091 H   0  0  0  0  0  0  0  0  0  0  0  0
   58.7173   20.9554   44.9119 H   0  0  0  0  0  0  0  0  0  0  0  0
   57.1058   20.1942   43.1287 H   0  0  0  0  0  0  0  0  0  0  0  0
   55.6358   21.8579   41.9671 H   0  0  0  0  0  0  0  0  0  0  0  0
   55.7630   24.3015   42.5760 H   0  0  0  0  0  0  0  0  0  0  0  0
   57.0380   26.0620   44.2490 H   0  0  0  0  0  0  0  0  0  0  0  0
   57.8071   31.7089   46.8126 H   0  0  0  0  0  0  0  0  0  0  0  0
  1  2  1  0
  2  3  2  0
  3  4  1  0
  4  5  1  0
  4  6  2  0
  6  7  1  0
  7  8  1  0
  8  9  1  0
  9 10  2  0
  9 11  2  0
  9 12  1  0
 12 13  1  0
 13 14  2  0
 13 15  1  0
 15 16  2  0
 16 17  1  0
 17 18  2  0
 18 19  1  0
 19 20  2  0
 20 21  1  0
 21 22  2  0
 22 23  1  0
  7 24  2  0
 24  2  1  0
 23 15  1  0
 22 17  1  0
  1 25  1  0
  1 26  1  0
  1 27  1  0
  3 28  1  0
  5 29  1  0
  5 30  1  0
  5 31  1  0
  6 32  1  0
  8 33  1  0
 16 34  1  0
 18 35  1  0
 19 36  1  0
 20 37  1  0
 21 38  1  0
 23 39  1  0
 24 40  1  0
M  CHG  1  12  -1
M  END
>  <UniqueID>  (14) 
12

>  <SMILES>  (14) 
Cc1cc(C)cc(NS(=O)(=O)[N-]C(=O)c2cc3ccccc3[nH]2)c1

>  <Energy>  (14) 
81.38688933457378

>  <Genealogy>  (14) 
Cc1cc(C)cc(NS(=O)(=O)[N-]C(=O)c2cc3ccccc3[nH]2)c1 (protonated)
Cc1cc(C)cc(NS(=O)(=O)[N-]C(=O)c2cc3ccccc3[nH]2)c1 (3D coordinates assigned)
Cc1cc(C)cc(NS(=O)(=O)[N-]C(=O)c2cc3ccccc3[nH]2)c1 (optimized conformer: 81.38688933457378 kcal/mol)

>  <smiles>  (14) 
Cc1cc(C)cc(NS(=O)(=O)NC(=O)c2cc3ccccc3[nH]2)c1

>  <score_type>  (14) 
oracle

>  <origin>  (14) 
adg

>  <m_score__min__energy>  (14) 
-9.7200000000000006

>  <m_primary>  (14) 
energy

$$$$
14:0
     RDKit          3D

 36 36  0  0  0  0  0  0  0  0999 V2000
   56.3460   24.4640   47.4150 C   0  0  0  0  0  0  0  0  0  0  0  0
   55.8620   25.4560   46.4400 N   0  0  0  0  0  0  0  0  0  0  0  0
   54.8820   24.8250   45.5420 C   0  0  0  0  0  0  0  0  0  0  0  0
   56.9820   26.0270   45.6620 C   0  0  0  0  0  0  0  0  0  0  0  0
   57.1470   27.5250   45.9490 C   0  0  0  0  0  0  0  0  0  0  0  0
   57.3490   28.2810   44.7030 N   0  0  0  0  0  0  0  0  0  0  0  0
   58.3370   27.8020   43.7290 C   0  0  0  0  0  0  0  0  0  0  0  0
   56.6670   29.5270   44.4350 C   0  0  0  0  0  0  0  0  0  0  0  0
   55.4920   29.6960   44.8670 O   0  0  0  0  0  0  0  0  0  0  0  0
   57.3120   30.6570   43.6750 C   0  0  0  0  0  0  0  0  0  0  0  0
   57.7290   31.7800   44.5880 C   0  0  0  0  0  0  0  0  0  0  0  0
   58.0650   31.5220   45.9280 C   0  0  0  0  0  0  0  0  0  0  0  0
   58.4630   32.5660   46.7690 C   0  0  0  0  0  0  0  0  0  0  0  0
   58.5170   33.8750   46.2840 C   0  0  0  0  0  0  0  0  0  0  0  0
   58.9040   34.8850   47.1010 F   0  0  0  0  0  0  0  0  0  0  0  0
   58.1670   34.1440   44.9580 C   0  0  0  0  0  0  0  0  0  0  0  0
   57.7690   33.1030   44.1130 C   0  0  0  0  0  0  0  0  0  0  0  0
   56.1654   24.8341   48.4350 H   0  0  0  0  0  0  0  0  0  0  0  0
   55.8098   23.5147   47.2691 H   0  0  0  0  0  0  0  0  0  0  0  0
   57.4242   24.3023   47.2691 H   0  0  0  0  0  0  0  0  0  0  0  0
   54.1056   24.3251   46.1398 H   0  0  0  0  0  0  0  0  0  0  0  0
   54.4176   25.5942   44.9074 H   0  0  0  0  0  0  0  0  0  0  0  0
   55.3901   24.0839   44.9074 H   0  0  0  0  0  0  0  0  0  0  0  0
   57.9112   25.5047   45.9337 H   0  0  0  0  0  0  0  0  0  0  0  0
   56.7649   25.8983   44.5913 H   0  0  0  0  0  0  0  0  0  0  0  0
   56.2425   27.8966   46.4527 H   0  0  0  0  0  0  0  0  0  0  0  0
   58.0297   27.6640   46.5905 H   0  0  0  0  0  0  0  0  0  0  0  0
   59.2031   27.3821   44.2615 H   0  0  0  0  0  0  0  0  0  0  0  0
   57.8824   27.0243   43.0978 H   0  0  0  0  0  0  0  0  0  0  0  0
   58.6660   28.6406   43.0978 H   0  0  0  0  0  0  0  0  0  0  0  0
   58.2014   30.2733   43.1536 H   0  0  0  0  0  0  0  0  0  0  0  0
   56.5748   31.0531   42.9611 H   0  0  0  0  0  0  0  0  0  0  0  0
   58.0147   30.4943   46.3170 H   0  0  0  0  0  0  0  0  0  0  0  0
   58.7340   32.3561   47.8142 H   0  0  0  0  0  0  0  0  0  0  0  0
   58.2046   35.1758   44.5784 H   0  0  0  0  0  0  0  0  0  0  0  0
   57.4861   33.3201   43.0724 H   0  0  0  0  0  0  0  0  0  0  0  0
  1  2  1  0
  2  3  1  0
  2  4  1  0
  4  5  1  0
  5  6  1  0
  6  7  1  0
  6  8  1  0
  8  9  2  0
  8 10  1  0
 10 11  1  0
 11 12  2  0
 12 13  1  0
 13 14  2  0
 14 15  1  0
 14 16  1  0
 16 17  2  0
 17 11  1  0
  1 18  1  0
  1 19  1  0
  1 20  1  0
  3 21  1  0
  3 22  1  0
  3 23  1  0
  4 24  1  0
  4 25  1  0
  5 26  1  0
  5 27  1  0
  7 28  1  0
  7 29  1  0
  7 30  1  0
 10 31  1  0
 10 32  1  0
 12 33  1  0
 13 34  1  0
 16 35  1  0
 17 36  1  0
M  END
>  <UniqueID>  (15) 
13

>  <SMILES>  (15) 
CN(C)CCN(C)C(=O)Cc1ccc(F)cc1

>  <Energy>  (15) 
29.483966408601706

>  <Genealogy>  (15) 
CN(C)CCN(C)C(=O)Cc1ccc(F)cc1 (3D coordinates assigned)
CN(C)CCN(C)C(=O)Cc1ccc(F)cc1 (optimized conformer: 29.483966408601706 kcal/mol)

>  <smiles>  (15) 
CN(C)CCN(C)C(=O)Cc1ccc(F)cc1

>  <score_type>  (15) 
oracle

>  <origin>  (15) 
adg

>  <m_score__min__energy>  (15) 
-6

>  <m_primary>  (15) 
energy

$$$$
15:0
     RDKit          3D

 32 33  0  0  0  0  0  0  0  0999 V2000
   54.4150   24.9470   45.5980 C   0  0  0  0  0  0  0  0  0  0  0  0
   54.9010   26.2380   45.9520 O   0  0  0  0  0  0  0  0  0  0  0  0
   56.2550   26.5500   46.1520 C   0  0  0  0  0  0  0  0  0  0  0  0
   57.1210   25.6980   46.8670 C   0  0  0  0  0  0  0  0  0  0  0  0
   58.4650   26.0400   47.0370 C   0  0  0  0  0  0  0  0  0  0  0  0
   58.9610   27.2230   46.4900 C   0  0  0  0  0  0  0  0  0  0  0  0
   58.1130   28.0740   45.7780 C   0  0  0  0  0  0  0  0  0  0  0  0
   56.7510   27.7540   45.6250 C   0  0  0  0  0  0  0  0  0  0  0  0
   55.8720   28.6000   44.8690 N   0  0  0  0  0  0  0  0  0  0  0  0
   56.1190   29.9600   44.4900 C   0  0  0  0  0  0  0  0  0  0  0  0
   55.1570   30.7740   44.4940 O   0  0  0  0  0  0  0  0  0  0  0  0
   57.4970   30.4490   44.1360 C   0  0  0  0  0  0  0  0  0  0  0  0
   57.8810   31.6150   45.0020 C   0  0  0  0  0  0  0  0  0  0  0  0
   58.1750   32.8650   44.4370 C   0  0  0  0  0  0  0  0  0  0  0  0
   58.4990   33.9370   45.2720 C   0  0  0  0  0  0  0  0  0  0  0  0
   58.7680   35.0600   44.7690 O   0  0  0  0  0  0  0  0  0  0  0  0
   58.5190   33.7550   46.6640 C   0  0  0  0  0  0  0  0  0  0  0  0
   58.8390   34.7980   47.5330 O   0  0  0  0  0  0  0  0  0  0  0  0
   58.2110   32.4970   47.1870 C   0  0  0  0  0  0  0  0  0  0  0  0
   57.8980   31.4670   46.3560 N   0  0  0  0  0  0  0  0  0  0  0  0
   54.1991   24.3734   46.5114 H   0  0  0  0  0  0  0  0  0  0  0  0
   53.4947   25.0517   45.0046 H   0  0  0  0  0  0  0  0  0  0  0  0
   55.1758   24.4188   45.0046 H   0  0  0  0  0  0  0  0  0  0  0  0
   56.7369   24.7595   47.2931 H   0  0  0  0  0  0  0  0  0  0  0  0
   59.1332   25.3747   47.6035 H   0  0  0  0  0  0  0  0  0  0  0  0
   60.0212   27.4861   46.6195 H   0  0  0  0  0  0  0  0  0  0  0  0
   58.5113   28.9986   45.3348 H   0  0  0  0  0  0  0  0  0  0  0  0
   58.2199   29.6335   44.2857 H   0  0  0  0  0  0  0  0  0  0  0  0
   57.5005   30.7711   43.0842 H   0  0  0  0  0  0  0  0  0  0  0  0
   58.1506   32.9998   43.3456 H   0  0  0  0  0  0  0  0  0  0  0  0
   58.9800   35.7470   47.2050 H   0  0  0  0  0  0  0  0  0  0  0  0
   58.2217   32.3388   48.2755 H   0  0  0  0  0  0  0  0  0  0  0  0
  1  2  1  0
  2  3  1  0
  3  4  2  0
  4  5  1  0
  5  6  2  0
  6  7  1  0
  7  8  2  0
  8  9  1  0
  9 10  1  0
 10 11  2  0
 10 12  1  0
 12 13  1  0
 13 14  2  0
 14 15  1  0
 15 16  2  0
 15 17  1  0
 17 18  1  0
 17 19  2  0
 19 20  1  0
  8  3  1  0
 20 13  1  0
  1 21  1  0
  1 22  1  0
  1 23  1  0
  4 24  1  0
  5 25  1  0
  6 26  1  0
  7 27  1  0
 12 28  1  0
 12 29  1  0
 14 30  1  0
 18 31  1  0
 19 32  1  0
M  CHG  2   9  -1  20  -1
M  END
>  <UniqueID>  (16) 
14

>  <SMILES>  (16) 
COc1ccccc1[N-]C(=O)Cc1cc(=O)c(O)c[n-]1

>  <Energy>  (16) 
37.13987365314991

>  <Genealogy>  (16) 
COc1ccccc1[N-]C(=O)Cc1cc(=O)c(O)c[n-]1 (protonated)
COc1ccccc1[N-]C(=O)Cc1cc(=O)c(O)c[n-]1 (3D coordinates assigned)
COc1ccccc1[N-]C(=O)Cc1cc(=O)c(O)c[n-]1 (optimized conformer: 37.13987365314991 kcal/mol)

>  <smiles>  (16) 
COc1ccccc1NC(=O)Cc1cc(=O)c(O)c[nH]1

>  <score_type>  (16) 
oracle

>  <origin>  (16) 
adg

>  <m_score__min__energy>  (16) 
-10.42

>  <m_primary>  (16) 
energy

$$$$
16:0
     RDKit          3D

 51 54  0  0  0  0  0  0  0  0999 V2000
   55.8530   27.4290   44.8910 H   0  0  0  0  0  0  0  0  0  0  0  0
   55.5560   26.8410   45.6330 O   0  0  0  0  0  0  0  0  0  0  0  0
   56.7160   26.4780   46.3330 C   0  0  0  0  0  0  0  0  0  0  0  0
   57.1380   25.5643   45.8890 H   0  0  0  0  0  0  0  0  0  0  0  0
   56.4589   26.2973   47.3872 H   0  0  0  0  0  0  0  0  0  0  0  0
   57.7520   27.6050   46.2550 C   0  0  1  0  0  0  0  0  0  0  0  0
   58.4690   27.3967   45.4472 H   0  0  0  0  0  0  0  0  0  0  0  0
   57.0550   28.8660   45.9820 N   0  0  0  0  0  0  0  0  0  0  0  0
   57.0760   29.6450   44.9300 C   0  0  0  0  0  0  0  0  0  0  0  0
   56.6420   29.1110   43.7560 N   0  0  0  0  0  0  0  0  0  0  0  0
   56.5990   29.8100   42.5930 C   0  0  0  0  0  0  0  0  0  0  0  0
   56.2405   29.3235   41.6739 H   0  0  0  0  0  0  0  0  0  0  0  0
   57.0070   31.1400   42.5600 C   0  0  0  0  0  0  0  0  0  0  0  0
   56.9693   31.7113   41.6207 H   0  0  0  0  0  0  0  0  0  0  0  0
   57.4650   31.7400   43.7350 C   0  0  0  0  0  0  0  0  0  0  0  0
   57.8740   33.0780   43.7530 C   0  0  0  0  0  0  0  0  0  0  0  0
   57.8448   33.6746   42.8293 H   0  0  0  0  0  0  0  0  0  0  0  0
   58.3070   33.6400   44.9110 N   0  0  0  0  0  0  0  0  0  0  0  0
   58.3700   32.9180   46.0590 C   0  0  0  0  0  0  0  0  0  0  0  0
   58.7580   33.4960   47.1580 N   0  0  0  0  0  0  0  0  0  0  0  0
   60.0290   33.2650   47.7810 C   0  0  0  0  0  0  0  0  0  0  0  0
   61.2030   33.2670   47.0140 C   0  0  0  0  0  0  0  0  0  0  0  0
   61.1518   33.4869   45.9374 H   0  0  0  0  0  0  0  0  0  0  0  0
   62.4350   32.9920   47.6070 C   0  0  0  0  0  0  0  0  0  0  0  0
   63.3493   32.9916   46.9954 H   0  0  0  0  0  0  0  0  0  0  0  0
   62.5130   32.7160   48.9800 C   0  0  0  0  0  0  0  0  0  0  0  0
   63.8210   32.3990   49.5910 C   0  0  0  0  0  0  0  0  0  0  0  0
   65.0110   33.0720   49.3760 C   0  0  0  0  0  0  0  0  0  0  0  0
   65.1503   33.9498   48.7279 H   0  0  0  0  0  0  0  0  0  0  0  0
   65.9700   32.4610   50.1020 N   0  0  0  0  0  0  0  0  0  0  0  0
   65.3870   31.4480   50.7260 N   0  0  0  0  0  0  0  0  0  0  0  0
   65.8890   30.7850   51.3570 H   0  0  0  0  0  0  0  0  0  0  0  0
   64.0980   31.3770   50.4290 N   0  0  0  0  0  0  0  0  0  0  0  0
   63.2000   30.3390   50.9260 C   0  0  0  0  0  0  0  0  0  0  0  0
   63.2055   30.3453   52.0260 H   0  0  0  0  0  0  0  0  0  0  0  0
   62.1797   30.5324   50.5633 H   0  0  0  0  0  0  0  0  0  0  0  0
   63.5382   29.3571   50.5633 H   0  0  0  0  0  0  0  0  0  0  0  0
   61.3460   32.7740   49.7590 C   0  0  0  0  0  0  0  0  0  0  0  0
   61.4066   32.6047   50.8442 H   0  0  0  0  0  0  0  0  0  0  0  0
   60.0980   33.0470   49.1640 C   0  0  0  0  0  0  0  0  0  0  0  0
   58.9090   33.0930   49.9110 O   0  0  0  0  0  0  0  0  0  0  0  0
   58.1670   31.9490   50.3190 C   0  0  0  0  0  0  0  0  0  0  0  0
   58.1376   31.9037   51.4177 H   0  0  0  0  0  0  0  0  0  0  0  0
   57.1414   32.0183   49.9273 H   0  0  0  0  0  0  0  0  0  0  0  0
   58.6485   31.0408   49.9273 H   0  0  0  0  0  0  0  0  0  0  0  0
   57.9790   31.6130   46.0570 N   0  0  0  0  0  0  0  0  0  0  0  0
   57.5180   31.0000   44.9360 C   0  0  0  0  0  0  0  0  0  0  0  0
   58.5350   27.7000   47.5740 C   0  0  0  0  0  0  0  0  0  0  0  0
   57.8382   27.6155   48.4210 H   0  0  0  0  0  0  0  0  0  0  0  0
   59.2718   26.8847   47.6226 H   0  0  0  0  0  0  0  0  0  0  0  0
   59.0554   28.6679   47.6226 H   0  0  0  0  0  0  0  0  0  0  0  0
  1  2  1  0
  2  3  1  0
  3  4  1  0
  3  5  1  0
  3  6  1  0
  6  7  1  6
  6  8  1  0
  8  9  2  0
  9 10  1  0
 10 11  1  0
 11 12  1  0
 11 13  2  0
 13 14  1  0
 13 15  1  0
 15 16  2  0
 16 17  1  0
 16 18  1  0
 18 19  1  0
 19 20  2  0
 20 21  1  0
 21 22  2  0
 22 23  1  0
 22 24  1  0
 24 25  1  0
 24 26  2  0
 26 27  1  0
 27 28  2  0
 28 29  1  0
 28 30  1  0
 30 31  2  0
 31 32  1  0
 31 33  1  0
 33 34  1  0
 34 35  1  0
 34 36  1  0
 34 37  1  0
 26 38  1  0
 38 39  1  0
 38 40  2  0
 40 41  1  0
 41 42  1  0
 42 43  1  0
 42 44  1  0
 42 45  1  0
 19 46  1  0
 46 47  2  0
  6 48  1  0
 48 49  1  0
 48 50  1  0
 48 51  1  0
 47  9  1  0
 47 15  1  0
 40 21  1  0
 33 27  1  0
M  CHG  3  10  -1  18  -1  31   1
M  END
>  <UniqueID>  (17) 
15

>  <SMILES>  (17) 
COc1cc(-c2cn[nH+]n2C)ccc1/N=c1\nc2/c(=N\[C@@H](C)CO)[n-]ccc2c[n-]1

>  <Energy>  (17) 
104.89443407467476

>  <Genealogy>  (17) 
COc1cc(-c2cn[nH+]n2C)ccc1N=c1nc2c(=NC(C)CO)[n-]ccc2c[n-]1 (protonated)
COc1cc(-c2cn[nH+]n2C)ccc1N=c1nc2c(=N[C@@H](C)CO)[n-]ccc2c[n-]1 (chirality)
COc1cc(-c2cn[nH+]n2C)ccc1/N=c1\nc2/c(=N\[C@@H](C)CO)[n-]ccc2c[n-]1 (cis-trans isomerization)
COc1cc(-c2cn[nH+]n2C)ccc1/N=c1\nc2/c(=N\[C@@H](C)CO)[n-]ccc2c[n-]1 (3D coordinates assigned)
COc1cc(-c2cn[nH+]n2C)ccc1/N=c1\nc2/c(=N\[C@@H](C)CO)[n-]ccc2c[n-]1 (optimized conformer: 104.89443407467476 kcal/mol)

>  <smiles>  (17) 
COc1cc(-c2cnnn2C)ccc1N=c1nc2c(=NC(C)CO)[nH]ccc2c[nH]1

>  <score_type>  (17) 
oracle

>  <origin>  (17) 
adg

>  <m_score__min__energy>  (17) 
-10.699999999999999

>  <m_primary>  (17) 
energy

$$$$
17:0
     RDKit          3D

 28 28  0  0  0  0  0  0  0  0999 V2000
   59.6200   35.2780   46.7810 C   0  0  0  0  0  0  0  0  0  0  0  0
   59.3530   34.8440   45.4510 O   0  0  0  0  0  0  0  0  0  0  0  0
   58.7240   33.6330   45.1250 C   0  0  0  0  0  0  0  0  0  0  0  0
   58.4050   32.6620   46.0950 C   0  0  0  0  0  0  0  0  0  0  0  0
   57.7780   31.4700   45.7180 C   0  0  0  0  0  0  0  0  0  0  0  0
   57.4640   31.2320   44.3730 C   0  0  0  0  0  0  0  0  0  0  0  0
   56.6510   29.7430   43.8930 S   0  0  0  0  0  0  0  0  0  0  0  0
   56.2310   29.8270   42.4520 O   0  0  0  0  0  0  0  0  0  0  0  0
   55.4130   29.5840   44.7300 O   0  0  0  0  0  0  0  0  0  0  0  0
   57.6670   28.3470   44.1250 N   0  0  0  0  0  0  0  0  0  0  0  0
   58.1090   28.2050   45.5160 C   0  0  0  0  0  0  0  0  0  0  0  0
   57.1180   27.3970   46.3610 C   0  0  0  0  0  0  0  0  0  0  0  0
   55.8700   27.1850   45.6340 N   0  0  0  0  0  0  0  0  0  0  0  0
   57.7750   32.1980   43.4090 C   0  0  0  0  0  0  0  0  0  0  0  0
   58.4030   33.3890   43.7850 C   0  0  0  0  0  0  0  0  0  0  0  0
   59.1813   34.5649   47.4944 H   0  0  0  0  0  0  0  0  0  0  0  0
   60.7074   35.3315   46.9379 H   0  0  0  0  0  0  0  0  0  0  0  0
   59.1775   36.2728   46.9379 H   0  0  0  0  0  0  0  0  0  0  0  0
   58.6499   32.8421   47.1522 H   0  0  0  0  0  0  0  0  0  0  0  0
   57.5304   30.7164   46.4801 H   0  0  0  0  0  0  0  0  0  0  0  0
   59.0829   27.6937   45.5274 H   0  0  0  0  0  0  0  0  0  0  0  0
   58.1796   29.2127   45.9515 H   0  0  0  0  0  0  0  0  0  0  0  0
   57.5636   26.4213   46.6049 H   0  0  0  0  0  0  0  0  0  0  0  0
   56.8992   27.9585   47.2812 H   0  0  0  0  0  0  0  0  0  0  0  0
   55.1570   27.8560   46.0020 H   0  0  0  0  0  0  0  0  0  0  0  0
   56.0330   27.4520   44.6370 H   0  0  0  0  0  0  0  0  0  0  0  0
   57.5246   32.0195   42.3528 H   0  0  0  0  0  0  0  0  0  0  0  0
   58.6471   34.1413   43.0205 H   0  0  0  0  0  0  0  0  0  0  0  0
  1  2  1  0
  2  3  1  0
  3  4  2  0
  4  5  1  0
  5  6  2  0
  6  7  1  0
  7  8  2  0
  7  9  2  0
  7 10  1  0
 10 11  1  0
 11 12  1  0
 12 13  1  0
  6 14  1  0
 14 15  2  0
 15  3  1  0
  1 16  1  0
  1 17  1  0
  1 18  1  0
  4 19  1  0
  5 20  1  0
 11 21  1  0
 11 22  1  0
 12 23  1  0
 12 24  1  0
 13 25  1  0
 13 26  1  0
 14 27  1  0
 15 28  1  0
M  CHG  1  10  -1
M  END
>  <UniqueID>  (18) 
16

>  <SMILES>  (18) 
COc1ccc(S(=O)(=O)[N-]CCN)cc1

>  <Energy>  (18) 
22.401150811579566

>  <Genealogy>  (18) 
COc1ccc(S(=O)(=O)[N-]CCN)cc1 (protonated)
COc1ccc(S(=O)(=O)[N-]CCN)cc1 (3D coordinates assigned)
COc1ccc(S(=O)(=O)[N-]CCN)cc1 (optimized conformer: 22.401150811579566 kcal/mol)

>  <smiles>  (18) 
COc1ccc(S(=O)(=O)NCCN)cc1

>  <score_type>  (18) 
oracle

>  <origin>  (18) 
adg

>  <m_score__min__energy>  (18) 
-7.7199999999999998

>  <m_primary>  (18) 
energy

$$$$
18:0
     RDKit          3D

 35 37  0  0  0  0  0  0  0  0999 V2000
   55.1140   25.1240   45.6230 C   0  0  0  0  0  0  0  0  0  0  0  0
   55.2700   26.5220   45.8430 O   0  0  0  0  0  0  0  0  0  0  0  0
   56.5080   27.1760   45.9460 C   0  0  0  0  0  0  0  0  0  0  0  0
   57.6370   26.5590   46.5130 C   0  0  0  0  0  0  0  0  0  0  0  0
   58.8510   27.2470   46.5990 C   0  0  0  0  0  0  0  0  0  0  0  0
   58.9590   28.5650   46.1280 C   0  0  0  0  0  0  0  0  0  0  0  0
   60.2350   29.3140   46.2250 C   0  0  0  0  0  0  0  0  0  0  0  0
   61.0190   29.3220   45.2380 O   0  0  0  0  0  0  0  0  0  0  0  0
   60.6190   30.0900   47.4580 C   0  0  0  0  0  0  0  0  0  0  0  0
   60.9230   31.4920   47.1280 N   0  0  0  0  0  0  0  0  0  0  0  0
   62.1680   32.0400   47.1900 C   0  0  0  0  0  0  0  0  0  0  0  0
   63.2010   31.3950   47.5120 O   0  0  0  0  0  0  0  0  0  0  0  0
   62.1860   33.6760   46.7760 S   0  0  0  0  0  0  0  0  0  0  0  0
   60.5320   33.6880   46.4860 C   0  0  0  0  0  0  0  0  0  0  0  0
   59.7440   34.7560   46.0660 C   0  0  0  0  0  0  0  0  0  0  0  0
   58.3740   34.5330   45.8680 C   0  0  0  0  0  0  0  0  0  0  0  0
   57.8240   33.2560   46.0850 C   0  0  0  0  0  0  0  0  0  0  0  0
   58.6370   32.1910   46.5070 C   0  0  0  0  0  0  0  0  0  0  0  0
   60.0060   32.4210   46.7160 C   0  0  0  0  0  0  0  0  0  0  0  0
   57.8340   29.1740   45.5490 C   0  0  0  0  0  0  0  0  0  0  0  0
   56.6140   28.4860   45.4620 C   0  0  0  0  0  0  0  0  0  0  0  0
   55.5000   29.1030   44.8950 O   0  0  0  0  0  0  0  0  0  0  0  0
   55.0561   24.6047   46.5910 H   0  0  0  0  0  0  0  0  0  0  0  0
   54.1901   24.9432   45.0540 H   0  0  0  0  0  0  0  0  0  0  0  0
   55.9753   24.7440   45.0540 H   0  0  0  0  0  0  0  0  0  0  0  0
   57.5647   25.5286   46.8913 H   0  0  0  0  0  0  0  0  0  0  0  0
   59.7288   26.7515   47.0394 H   0  0  0  0  0  0  0  0  0  0  0  0
   59.7847   30.0622   48.1744 H   0  0  0  0  0  0  0  0  0  0  0  0
   61.5183   29.6306   47.8942 H   0  0  0  0  0  0  0  0  0  0  0  0
   60.1847   35.7491   45.8939 H   0  0  0  0  0  0  0  0  0  0  0  0
   57.7262   35.3599   45.5416 H   0  0  0  0  0  0  0  0  0  0  0  0
   56.7487   33.0904   45.9228 H   0  0  0  0  0  0  0  0  0  0  0  0
   58.2074   31.1918   46.6712 H   0  0  0  0  0  0  0  0  0  0  0  0
   57.9097   30.2001   45.1599 H   0  0  0  0  0  0  0  0  0  0  0  0
   54.7390   28.5630   44.4990 H   0  0  0  0  0  0  0  0  0  0  0  0
  1  2  1  0
  2  3  1  0
  3  4  2  0
  4  5  1  0
  5  6  2  0
  6  7  1  0
  7  8  2  0
  7  9  1  0
  9 10  1  0
 10 11  1  0
 11 12  2  0
 11 13  1  0
 13 14  1  0
 14 15  2  0
 15 16  1  0
 16 17  2  0
 17 18  1  0
 18 19  2  0
  6 20  1  0
 20 21  2  0
 21 22  1  0
 21  3  1  0
 19 10  1  0
 19 14  1  0
  1 23  1  0
  1 24  1  0
  1 25  1  0
  4 26  1  0
  5 27  1  0
  9 28  1  0
  9 29  1  0
 15 30  1  0
 16 31  1  0
 17 32  1  0
 18 33  1  0
 20 34  1  0
 22 35  1  0
M  END
>  <UniqueID>  (19) 
17

>  <SMILES>  (19) 
COc1ccc(C(=O)Cn2c(=O)sc3ccccc32)cc1O

>  <Energy>  (19) 
75.14357780349536

>  <Genealogy>  (19) 
COc1ccc(C(=O)Cn2c(=O)sc3ccccc32)cc1O (3D coordinates assigned)
COc1ccc(C(=O)Cn2c(=O)sc3ccccc32)cc1O (optimized conformer: 75.14357780349536 kcal/mol)

>  <smiles>  (19) 
COc1ccc(C(=O)Cn2c(=O)sc3ccccc32)cc1O

>  <score_type>  (19) 
oracle

>  <origin>  (19) 
adg

>  <m_score__min__energy>  (19) 
-8.5800000000000001

>  <m_primary>  (19) 
energy

$$$$
19:0
     RDKit          3D

 44 45  0  0  0  0  0  0  0  0999 V2000
   57.7373   30.8380   44.3571 H   0  0  0  0  0  0  0  0  0  0  0  0
   57.4580   30.2340   45.2330 C   0  0  0  0  0  0  0  0  0  0  0  0
   56.7270   28.9690   44.9890 C   0  0  0  0  0  0  0  0  0  0  0  0
   55.5820   29.0260   44.4690 O   0  0  0  0  0  0  0  0  0  0  0  0
   57.3170   27.6440   45.2930 C   0  0  0  0  0  0  0  0  0  0  0  0
   56.4990   26.5870   45.7380 C   0  0  0  0  0  0  0  0  0  0  0  0
   55.1450   26.7920   45.9810 O   0  0  0  0  0  0  0  0  0  0  0  0
   57.0390   25.3160   45.9450 C   0  0  0  0  0  0  0  0  0  0  0  0
   56.3890   24.4933   46.2776 H   0  0  0  0  0  0  0  0  0  0  0  0
   58.4070   25.0820   45.7310 C   0  0  0  0  0  0  0  0  0  0  0  0
   58.9880   23.8170   45.9080 O   0  0  0  0  0  0  0  0  0  0  0  0
   58.6960   22.6780   45.1050 C   0  0  0  0  0  0  0  0  0  0  0  0
   58.4756   21.8181   45.7547 H   0  0  0  0  0  0  0  0  0  0  0  0
   57.8234   22.8910   44.4700 H   0  0  0  0  0  0  0  0  0  0  0  0
   59.5634   22.4449   44.4700 H   0  0  0  0  0  0  0  0  0  0  0  0
   59.2280   26.1380   45.3270 C   0  0  0  0  0  0  0  0  0  0  0  0
   60.3038   25.9624   45.1794 H   0  0  0  0  0  0  0  0  0  0  0  0
   58.6980   27.4240   45.1060 C   0  0  0  0  0  0  0  0  0  0  0  0
   59.5050   28.4920   44.6790 O   0  0  0  0  0  0  0  0  0  0  0  0
   60.9140   28.5680   44.8710 C   0  0  0  0  0  0  0  0  0  0  0  0
   61.1372   28.5800   45.9481 H   0  0  0  0  0  0  0  0  0  0  0  0
   61.3950   27.6945   44.4066 H   0  0  0  0  0  0  0  0  0  0  0  0
   61.2982   29.4882   44.4066 H   0  0  0  0  0  0  0  0  0  0  0  0
   57.8050   30.6980   46.4450 C   0  0  0  0  0  0  0  0  0  0  0  0
   57.0258   30.7540   47.2194 H   0  0  0  0  0  0  0  0  0  0  0  0
   59.1710   31.1380   46.8010 C   0  0  0  0  0  0  0  0  0  0  0  0
   59.6360   32.3880   46.3500 C   0  0  0  0  0  0  0  0  0  0  0  0
   58.7780   33.1960   45.5850 O   0  0  0  0  0  0  0  0  0  0  0  0
   58.9890   34.5800   45.3300 C   0  0  0  0  0  0  0  0  0  0  0  0
   59.0714   35.1203   46.2846 H   0  0  0  0  0  0  0  0  0  0  0  0
   59.9172   34.7094   44.7541 H   0  0  0  0  0  0  0  0  0  0  0  0
   58.1415   34.9801   44.7541 H   0  0  0  0  0  0  0  0  0  0  0  0
   60.9520   32.7840   46.6550 C   0  0  0  0  0  0  0  0  0  0  0  0
   61.3264   33.7555   46.3000 H   0  0  0  0  0  0  0  0  0  0  0  0
   61.7840   31.9530   47.4040 C   0  0  0  0  0  0  0  0  0  0  0  0
   62.8147   32.2661   47.6266 H   0  0  0  0  0  0  0  0  0  0  0  0
   61.3140   30.7260   47.8720 C   0  0  0  0  0  0  0  0  0  0  0  0
   61.9736   30.0799   48.4699 H   0  0  0  0  0  0  0  0  0  0  0  0
   60.0020   30.3100   47.5840 C   0  0  0  0  0  0  0  0  0  0  0  0
   59.4920   29.0880   48.0560 O   0  0  0  0  0  0  0  0  0  0  0  0
   60.2740   27.9210   48.2870 C   0  0  0  0  0  0  0  0  0  0  0  0
   60.3817   27.7602   49.3698 H   0  0  0  0  0  0  0  0  0  0  0  0
   59.7761   27.0506   47.8348 H   0  0  0  0  0  0  0  0  0  0  0  0
   61.2684   28.0505   47.8348 H   0  0  0  0  0  0  0  0  0  0  0  0
  1  2  1  0
  2  3  1  0
  3  4  2  0
  3  5  1  0
  5  6  2  0
  6  7  1  0
  6  8  1  0
  8  9  1  0
  8 10  2  0
 10 11  1  0
 11 12  1  0
 12 13  1  0
 12 14  1  0
 12 15  1  0
 10 16  1  0
 16 17  1  0
 16 18  2  0
 18 19  1  0
 19 20  1  0
 20 21  1  0
 20 22  1  0
 20 23  1  0
  2 24  2  0
 24 25  1  0
 24 26  1  0
 26 27  2  0
 27 28  1  0
 28 29  1  0
 29 30  1  0
 29 31  1  0
 29 32  1  0
 27 33  1  0
 33 34  1  0
 33 35  2  0
 35 36  1  0
 35 37  1  0
 37 38  1  0
 37 39  2  0
 39 40  1  0
 40 41  1  0
 41 42  1  0
 41 43  1  0
 41 44  1  0
 18  5  1  0
 39 26  1  0
M  CHG  1   7  -1
M  END
>  <UniqueID>  (20) 
18

>  <SMILES>  (20) 
COc1cc([O-])c(C(=O)/C=C\c2c(OC)cccc2OC)c(OC)c1

>  <Energy>  (20) 
53.33695874982381

>  <Genealogy>  (20) 
COc1cc([O-])c(C(=O)C=Cc2c(OC)cccc2OC)c(OC)c1 (protonated)
COc1cc([O-])c(C(=O)/C=C\c2c(OC)cccc2OC)c(OC)c1 (cis-trans isomerization)
COc1cc([O-])c(C(=O)/C=C\c2c(OC)cccc2OC)c(OC)c1 (3D coordinates assigned)
COc1cc([O-])c(C(=O)/C=C\c2c(OC)cccc2OC)c(OC)c1 (optimized conformer: 53.33695874982381 kcal/mol)

>  <smiles>  (20) 
COc1cc(O)c(C(=O)C=Cc2c(OC)cccc2OC)c(OC)c1

>  <score_type>  (20) 
oracle

>  <origin>  (20) 
adg

>  <m_score__min__energy>  (20) 
-11.07

>  <m_primary>  (20) 
energy

$$$$
20:0
     RDKit          3D

 19 19  0  0  0  0  0  0  0  0999 V2000
   58.8920   34.2850   46.8030 C   0  0  0  0  0  0  0  0  0  0  0  0
   57.7800   33.7030   45.9910 C   0  0  0  0  0  0  0  0  0  0  0  0
   56.7020   33.4720   46.5140 O   0  0  0  0  0  0  0  0  0  0  0  0
   58.0150   33.3440   44.2500 S   0  0  0  0  0  0  0  0  0  0  0  0
   57.7770   31.5890   44.4920 C   0  0  0  0  0  0  0  0  0  0  0  0
   56.5200   31.0810   44.5870 N   0  0  0  0  0  0  0  0  0  0  0  0
   56.3170   29.7510   44.7770 C   0  0  0  0  0  0  0  0  0  0  0  0
   55.1450   29.3020   44.8620 O   0  0  0  0  0  0  0  0  0  0  0  0
   57.4100   28.8880   44.8770 C   0  0  0  0  0  0  0  0  0  0  0  0
   58.6980   29.4260   44.7750 C   0  0  0  0  0  0  0  0  0  0  0  0
   59.8990   28.5430   44.8780 C   0  0  0  0  0  0  0  0  0  0  0  0
   58.8520   30.7640   44.5850 N   0  0  0  0  0  0  0  0  0  0  0  0
   58.6656   34.1665   47.8729 H   0  0  0  0  0  0  0  0  0  0  0  0
   59.8308   33.7626   46.5668 H   0  0  0  0  0  0  0  0  0  0  0  0
   58.9978   35.3541   46.5668 H   0  0  0  0  0  0  0  0  0  0  0  0
   57.2621   27.8091   45.0325 H   0  0  0  0  0  0  0  0  0  0  0  0
   60.1361   28.3687   45.9379 H   0  0  0  0  0  0  0  0  0  0  0  0
   59.6905   27.5815   44.3860 H   0  0  0  0  0  0  0  0  0  0  0  0
   60.7545   29.0288   44.3860 H   0  0  0  0  0  0  0  0  0  0  0  0
  1  2  1  0
  2  3  2  0
  2  4  1  0
  4  5  1  0
  5  6  2  0
  6  7  1  0
  7  8  2  0
  7  9  1  0
  9 10  2  0
 10 11  1  0
 10 12  1  0
 12  5  1  0
  1 13  1  0
  1 14  1  0
  1 15  1  0
  9 16  1  0
 11 17  1  0
 11 18  1  0
 11 19  1  0
M  CHG  1  12  -1
M  END
>  <UniqueID>  (21) 
19

>  <SMILES>  (21) 
CC(=O)Sc1nc(=O)cc(C)[n-]1

>  <Energy>  (21) 
10.445178108144479

>  <Genealogy>  (21) 
CC(=O)Sc1nc(=O)cc(C)[n-]1 (protonated)
CC(=O)Sc1nc(=O)cc(C)[n-]1 (3D coordinates assigned)
CC(=O)Sc1nc(=O)cc(C)[n-]1 (optimized conformer: 10.445178108144479 kcal/mol)

>  <smiles>  (21) 
CC(=O)Sc1nc(=O)cc(C)[nH]1

>  <score_type>  (21) 
oracle

>  <origin>  (21) 
adg

>  <m_score__min__energy>  (21) 
-6.9699999999999998

>  <m_primary>  (21) 
energy

$$$$
21:0
     RDKit          3D

 71 74  0  0  0  0  0  0  0  0999 V2000
   58.3455   23.1135   47.0738 H   0  0  0  0  0  0  0  0  0  0  0  0
   57.3650   23.4830   46.7390 C   0  0  0  0  0  0  0  0  0  0  0  0
   57.1420   24.8570   46.6210 C   0  0  0  0  0  0  0  0  0  0  0  0
   57.9515   25.5659   46.8493 H   0  0  0  0  0  0  0  0  0  0  0  0
   55.8850   25.3360   46.2110 C   0  0  0  0  0  0  0  0  0  0  0  0
   55.6270   26.7400   46.0810 N   0  0  0  0  0  0  0  0  0  0  0  0
   56.3970   27.6590   45.2970 C   0  0  0  0  0  0  0  0  0  0  0  0
   57.4510   27.2490   44.7390 O   0  0  0  0  0  0  0  0  0  0  0  0
   55.9470   29.0070   45.0890 N   0  0  0  0  0  0  0  0  0  0  0  0
   54.9800   29.2740   45.3770 H   0  0  0  0  0  0  0  0  0  0  0  0
   56.7520   30.0010   44.3810 C   0  0  0  0  0  0  0  0  0  0  0  0
   56.1241   30.8711   44.1389 H   0  0  0  0  0  0  0  0  0  0  0  0
   57.1448   29.5519   43.4569 H   0  0  0  0  0  0  0  0  0  0  0  0
   57.9100   30.4460   45.2430 C   0  0  0  0  0  0  0  0  0  0  0  0
   58.8540   29.4890   45.6510 C   0  0  0  0  0  0  0  0  0  0  0  0
   58.7654   28.4520   45.2949 H   0  0  0  0  0  0  0  0  0  0  0  0
   59.9020   29.8380   46.5020 C   0  0  0  0  0  0  0  0  0  0  0  0
   60.6450   29.0813   46.7942 H   0  0  0  0  0  0  0  0  0  0  0  0
   60.0130   31.1460   46.9860 C   0  0  0  0  0  0  0  0  0  0  0  0
   61.1220   31.4980   47.8970 C   0  0  0  0  0  0  0  0  0  0  0  0
   61.4720   30.6590   48.9120 N   0  0  0  0  0  0  0  0  0  0  0  0
   62.5130   31.1400   49.6230 C   0  0  0  0  0  0  0  0  0  0  0  0
   63.0360   30.5360   50.6450 N   0  0  0  0  0  0  0  0  0  0  0  0
   62.4470   30.5520   51.9790 C   0  0  0  0  0  0  0  0  0  0  0  0
   62.8250   29.6949   52.5556 H   0  0  0  0  0  0  0  0  0  0  0  0
   62.7208   31.4889   52.4862 H   0  0  0  0  0  0  0  0  0  0  0  0
   60.9420   30.4620   51.8740 C   0  0  0  0  0  0  0  0  0  0  0  0
   60.1740   31.5700   52.2690 C   0  0  0  0  0  0  0  0  0  0  0  0
   60.6749   32.4444   52.7101 H   0  0  0  0  0  0  0  0  0  0  0  0
   58.7770   31.5820   52.1110 C   0  0  0  0  0  0  0  0  0  0  0  0
   57.9930   32.6900   52.4770 O   0  0  0  0  0  0  0  0  0  0  0  0
   58.4290   34.0450   52.4260 C   0  0  0  0  0  0  0  0  0  0  0  0
   58.5526   34.4292   53.4493 H   0  0  0  0  0  0  0  0  0  0  0  0
   59.3905   34.1010   51.8947 H   0  0  0  0  0  0  0  0  0  0  0  0
   57.6806   34.6512   51.8947 H   0  0  0  0  0  0  0  0  0  0  0  0
   58.1360   30.4700   51.5580 C   0  0  0  0  0  0  0  0  0  0  0  0
   56.7420   30.5230   51.3920 O   0  0  0  0  0  0  0  0  0  0  0  0
   55.8040   30.5670   52.4620 C   0  0  0  0  0  0  0  0  0  0  0  0
   56.3410   30.5418   53.4217 H   0  0  0  0  0  0  0  0  0  0  0  0
   55.2152   31.4938   52.3956 H   0  0  0  0  0  0  0  0  0  0  0  0
   55.1310   29.6994   52.3956 H   0  0  0  0  0  0  0  0  0  0  0  0
   58.8920   29.3460   51.1800 C   0  0  0  0  0  0  0  0  0  0  0  0
   58.3810   28.4698   50.7544 H   0  0  0  0  0  0  0  0  0  0  0  0
   60.2870   29.3220   51.3360 C   0  0  0  0  0  0  0  0  0  0  0  0
   61.0110   28.1500   50.9200 N   0  0  0  0  0  0  0  0  0  0  0  0
   61.6720   27.4830   51.7390 O   0  0  0  0  0  0  0  0  0  0  0  0
   60.8530   27.6640   49.6410 O   0  0  0  0  0  0  0  0  0  0  0  0
   63.0430   32.6220   49.0460 S   0  0  0  0  0  0  0  0  0  0  0  0
   61.8990   32.6670   47.8060 C   0  0  0  0  0  0  0  0  0  0  0  0
   61.6400   33.8320   46.9260 C   0  0  0  0  0  0  0  0  0  0  0  0
   62.4650   34.1020   46.0130 O   0  0  0  0  0  0  0  0  0  0  0  0
   60.4870   34.6740   47.0660 N   0  0  0  0  0  0  0  0  0  0  0  0
   59.6900   35.2240   45.9790 C   0  0  0  0  0  0  0  0  0  0  0  0
   58.8519   35.8024   46.3951 H   0  0  0  0  0  0  0  0  0  0  0  0
   60.3181   35.8818   45.3603 H   0  0  0  0  0  0  0  0  0  0  0  0
   59.2978   34.4034   45.3603 H   0  0  0  0  0  0  0  0  0  0  0  0
   59.0930   32.1170   46.5630 C   0  0  0  0  0  0  0  0  0  0  0  0
   59.1940   33.1522   46.9210 H   0  0  0  0  0  0  0  0  0  0  0  0
   58.0450   31.7860   45.6890 C   0  0  0  0  0  0  0  0  0  0  0  0
   57.0830   32.8640   45.2630 C   0  0  0  0  0  0  0  0  0  0  0  0
   56.6536   33.3452   46.1541 H   0  0  0  0  0  0  0  0  0  0  0  0
   57.6166   33.6150   44.6619 H   0  0  0  0  0  0  0  0  0  0  0  0
   56.2764   32.4190   44.6619 H   0  0  0  0  0  0  0  0  0  0  0  0
   54.8810   24.4260   45.8630 C   0  0  0  0  0  0  0  0  0  0  0  0
   53.9138   24.7975   45.4935 H   0  0  0  0  0  0  0  0  0  0  0  0
   55.0960   23.0380   45.9810 C   0  0  0  0  0  0  0  0  0  0  0  0
   54.0220   22.0760   45.6420 C   0  0  0  0  0  0  0  0  0  0  0  0
   52.8650   22.4830   45.3470 O   0  0  0  0  0  0  0  0  0  0  0  0
   54.2710   20.7060   45.6520 O   0  0  0  0  0  0  0  0  0  0  0  0
   56.3460   22.5760   46.4330 C   0  0  0  0  0  0  0  0  0  0  0  0
   56.5222   21.4961   46.5461 H   0  0  0  0  0  0  0  0  0  0  0  0
  1  2  1  0
  2  3  2  0
  3  4  1  0
  3  5  1  0
  5  6  1  0
  6  7  1  0
  7  8  2  0
  7  9  1  0
  9 10  1  0
  9 11  1  0
 11 12  1  0
 11 13  1  0
 11 14  1  0
 14 15  2  0
 15 16  1  0
 15 17  1  0
 17 18  1  0
 17 19  2  0
 19 20  1  0
 20 21  1  0
 21 22  1  0
 22 23  2  0
 23 24  1  0
 24 25  1  0
 24 26  1  0
 24 27  1  0
 27 28  2  0
 28 29  1  0
 28 30  1  0
 30 31  1  0
 31 32  1  0
 32 33  1  0
 32 34  1  0
 32 35  1  0
 30 36  2  0
 36 37  1  0
 37 38  1  0
 38 39  1  0
 38 40  1  0
 38 41  1  0
 36 42  1  0
 42 43  1  0
 42 44  2  0
 44 45  1  0
 45 46  2  0
 45 47  1  0
 22 48  1  0
 48 49  1  0
 49 50  1  0
 50 51  2  0
 50 52  1  0
 52 53  1  0
 53 54  1  0
 53 55  1  0
 53 56  1  0
 19 57  1  0
 57 58  1  0
 57 59  2  0
 59 60  1  0
 60 61  1  0
 60 62  1  0
 60 63  1  0
  5 64  2  0
 64 65  1  0
 64 66  1  0
 66 67  1  0
 67 68  2  0
 67 69  1  0
 66 70  2  0
 70 71  1  0
 70  2  1  0
 59 14  1  0
 49 20  2  0
 44 27  1  0
M  CHG  6   6  -1  21  -1  45   1  47  -1  52  -1  69  -1
M  END
>  <UniqueID>  (22) 
20

>  <SMILES>  (22) 
C[N-]C(=O)c1s/c(=N/Cc2cc(OC)c(OC)cc2[N+](=O)[O-])[n-]c1-c1ccc(CNC(=O)[N-]c2cccc(C(=O)[O-])c2)c(C)c1

>  <Energy>  (22) 
118.39087953810674

>  <Genealogy>  (22) 
C[N-]C(=O)c1sc(=NCc2cc(OC)c(OC)cc2[N+](=O)[O-])[n-]c1-c1ccc(CNC(=O)[N-]c2cccc(C(=O)[O-])c2)c(C)c1 (protonated)
C[N-]C(=O)c1s/c(=N/Cc2cc(OC)c(OC)cc2[N+](=O)[O-])[n-]c1-c1ccc(CNC(=O)[N-]c2cccc(C(=O)[O-])c2)c(C)c1 (cis-trans isomerization)
C[N-]C(=O)c1s/c(=N/Cc2cc(OC)c(OC)cc2[N+](=O)[O-])[n-]c1-c1ccc(CNC(=O)[N-]c2cccc(C(=O)[O-])c2)c(C)c1 (3D coordinates assigned)
C[N-]C(=O)c1s/c(=N/Cc2cc(OC)c(OC)cc2[N+](=O)[O-])[n-]c1-c1ccc(CNC(=O)[N-]c2cccc(C(=O)[O-])c2)c(C)c1 (optimized conformer: 118.39087953810674 kcal/mol)

>  <smiles>  (22) 
CNC(=O)c1sc(=NCc2cc(OC)c(OC)cc2[N+](=O)[O-])[nH]c1-c1ccc(CNC(=O)Nc2cccc(C(=O)O)c2)c(C)c1

>  <score_type>  (22) 
oracle

>  <origin>  (22) 
adg

>  <m_score__min__energy>  (22) 
-16.760000000000002

>  <m_primary>  (22) 
energy

$$$$
22:0
     RDKit          3D

 45 48  0  0  0  0  0  0  0  0999 V2000
   64.1030   33.3850   48.0580 C   0  0  0  0  0  0  0  0  0  0  0  0
   62.7170   32.9230   48.3990 C   0  0  0  0  0  0  0  0  0  0  0  0
   61.9420   33.6350   49.3260 C   0  0  0  0  0  0  0  0  0  0  0  0
   60.6710   33.1770   49.6790 C   0  0  0  0  0  0  0  0  0  0  0  0
   60.1640   32.0060   49.1090 C   0  0  0  0  0  0  0  0  0  0  0  0
   60.9210   31.2890   48.1750 C   0  0  0  0  0  0  0  0  0  0  0  0
   60.3710   30.0890   47.6120 N   0  0  0  0  0  0  0  0  0  0  0  0
   59.8580   29.9370   46.2820 C   0  0  0  0  0  0  0  0  0  0  0  0
   60.2560   28.9690   45.5840 O   0  0  0  0  0  0  0  0  0  0  0  0
   58.8200   30.8390   45.7430 C   0  0  0  0  0  0  0  0  0  0  0  0
   57.5510   30.5070   45.2470 C   0  0  0  0  0  0  0  0  0  0  0  0
   56.9700   29.1590   45.0970 C   0  0  0  0  0  0  0  0  0  0  0  0
   55.7190   29.0110   45.0600 O   0  0  0  0  0  0  0  0  0  0  0  0
   57.8370   28.0200   44.9810 N   0  0  0  0  0  0  0  0  0  0  0  0
   57.3940   26.6570   45.1000 C   0  0  0  0  0  0  0  0  0  0  0  0
   56.6470   26.2210   46.2100 C   0  0  0  0  0  0  0  0  0  0  0  0
   56.2510   24.8830   46.3120 C   0  0  0  0  0  0  0  0  0  0  0  0
   56.6040   23.9680   45.3160 C   0  0  0  0  0  0  0  0  0  0  0  0
   56.2200   22.6730   45.4190 F   0  0  0  0  0  0  0  0  0  0  0  0
   57.3650   24.3880   44.2210 C   0  0  0  0  0  0  0  0  0  0  0  0
   57.7640   25.7240   44.1170 C   0  0  0  0  0  0  0  0  0  0  0  0
   56.9130   31.6010   44.8710 O   0  0  0  0  0  0  0  0  0  0  0  0
   57.7000   32.6260   45.0930 C   0  0  0  0  0  0  0  0  0  0  0  0
   57.4300   33.9700   44.8470 C   0  0  0  0  0  0  0  0  0  0  0  0
   58.4210   34.9110   45.1780 C   0  0  0  0  0  0  0  0  0  0  0  0
   59.6440   34.4910   45.7480 C   0  0  0  0  0  0  0  0  0  0  0  0
   59.8860   33.1270   45.9870 C   0  0  0  0  0  0  0  0  0  0  0  0
   58.8910   32.2140   45.6310 C   0  0  0  0  0  0  0  0  0  0  0  0
   62.2130   31.7350   47.8460 C   0  0  0  0  0  0  0  0  0  0  0  0
   64.6654   33.5725   48.9846 H   0  0  0  0  0  0  0  0  0  0  0  0
   64.6139   32.6086   47.4697 H   0  0  0  0  0  0  0  0  0  0  0  0
   64.0459   34.3127   47.4697 H   0  0  0  0  0  0  0  0  0  0  0  0
   62.3368   34.5575   49.7766 H   0  0  0  0  0  0  0  0  0  0  0  0
   60.0676   33.7390   50.4071 H   0  0  0  0  0  0  0  0  0  0  0  0
   59.1650   31.6459   49.3958 H   0  0  0  0  0  0  0  0  0  0  0  0
   58.8310   28.1880   44.7090 H   0  0  0  0  0  0  0  0  0  0  0  0
   56.3733   26.9351   47.0007 H   0  0  0  0  0  0  0  0  0  0  0  0
   55.6603   24.5502   47.1782 H   0  0  0  0  0  0  0  0  0  0  0  0
   57.6500   23.6669   43.4408 H   0  0  0  0  0  0  0  0  0  0  0  0
   58.3721   26.0469   43.2592 H   0  0  0  0  0  0  0  0  0  0  0  0
   56.4720   34.2853   44.4078 H   0  0  0  0  0  0  0  0  0  0  0  0
   58.2432   35.9805   44.9921 H   0  0  0  0  0  0  0  0  0  0  0  0
   60.4112   35.2358   46.0062 H   0  0  0  0  0  0  0  0  0  0  0  0
   60.8297   32.7893   46.4403 H   0  0  0  0  0  0  0  0  0  0  0  0
   62.8329   31.1496   47.1510 H   0  0  0  0  0  0  0  0  0  0  0  0
  1  2  1  0
  2  3  2  0
  3  4  1  0
  4  5  2  0
  5  6  1  0
  6  7  1  0
  7  8  1  0
  8  9  2  0
  8 10  1  0
 10 11  2  0
 11 12  1  0
 12 13  2  0
 12 14  1  0
 14 15  1  0
 15 16  2  0
 16 17  1  0
 17 18  2  0
 18 19  1  0
 18 20  1  0
 20 21  2  0
 11 22  1  0
 22 23  1  0
 23 24  2  0
 24 25  1  0
 25 26  2  0
 26 27  1  0
 27 28  2  0
  6 29  2  0
 29  2  1  0
 28 10  1  0
 21 15  1  0
 28 23  1  0
  1 30  1  0
  1 31  1  0
  1 32  1  0
  3 33  1  0
  4 34  1  0
  5 35  1  0
 14 36  1  0
 16 37  1  0
 17 38  1  0
 20 39  1  0
 21 40  1  0
 24 41  1  0
 25 42  1  0
 26 43  1  0
 27 44  1  0
 29 45  1  0
M  CHG  1   7  -1
M  END
>  <UniqueID>  (23) 
21

>  <SMILES>  (23) 
Cc1cccc([N-]C(=O)c2c(C(=O)Nc3ccc(F)cc3)oc3ccccc23)c1

>  <Energy>  (23) 
93.76015986828513

>  <Genealogy>  (23) 
Cc1cccc([N-]C(=O)c2c(C(=O)Nc3ccc(F)cc3)oc3ccccc23)c1 (protonated)
Cc1cccc([N-]C(=O)c2c(C(=O)Nc3ccc(F)cc3)oc3ccccc23)c1 (3D coordinates assigned)
Cc1cccc([N-]C(=O)c2c(C(=O)Nc3ccc(F)cc3)oc3ccccc23)c1 (optimized conformer: 93.76015986828513 kcal/mol)

>  <smiles>  (23) 
Cc1cccc(NC(=O)c2c(C(=O)Nc3ccc(F)cc3)oc3ccccc23)c1

>  <score_type>  (23) 
oracle

>  <origin>  (23) 
adg

>  <m_score__min__energy>  (23) 
-9.4399999999999995

>  <m_primary>  (23) 
energy

$$$$
23:0
     RDKit          3D

 25 26  0  0  0  0  0  0  0  0999 V2000
   55.9050   27.6310   45.6110 O   0  0  0  0  0  0  0  0  0  0  0  0
   56.9050   28.3120   45.2580 C   0  0  0  0  0  0  0  0  0  0  0  0
   58.1570   27.7950   45.3860 N   0  0  0  0  0  0  0  0  0  0  0  0
   59.2480   28.5120   45.0160 C   0  0  0  0  0  0  0  0  0  0  0  0
   59.0880   29.7960   44.4940 C   0  0  0  0  0  0  0  0  0  0  0  0
   57.8370   30.3280   44.3510 N   0  0  0  0  0  0  0  0  0  0  0  0
   57.6980   31.6970   43.8270 C   0  0  0  0  0  0  0  0  0  0  0  0
   58.1440   32.6990   44.8590 C   0  0  0  0  0  0  0  0  0  0  0  0
   57.7950   32.5250   46.2090 C   0  0  0  0  0  0  0  0  0  0  0  0
   58.1800   33.4690   47.1650 C   0  0  0  0  0  0  0  0  0  0  0  0
   58.9100   34.5970   46.7800 C   0  0  0  0  0  0  0  0  0  0  0  0
   59.2550   34.7820   45.4380 C   0  0  0  0  0  0  0  0  0  0  0  0
   58.8720   33.8390   44.4790 C   0  0  0  0  0  0  0  0  0  0  0  0
   56.7380   29.6020   44.7350 C   0  0  0  0  0  0  0  0  0  0  0  0
   55.5760   30.0830   44.6220 O   0  0  0  0  0  0  0  0  0  0  0  0
   58.2860   26.8340   45.7750 H   0  0  0  0  0  0  0  0  0  0  0  0
   60.2546   28.0826   45.1272 H   0  0  0  0  0  0  0  0  0  0  0  0
   59.9706   30.3815   44.1969 H   0  0  0  0  0  0  0  0  0  0  0  0
   58.3178   31.8049   42.9247 H   0  0  0  0  0  0  0  0  0  0  0  0
   56.6415   31.8811   43.5824 H   0  0  0  0  0  0  0  0  0  0  0  0
   57.2158   31.6413   46.5149 H   0  0  0  0  0  0  0  0  0  0  0  0
   57.9083   33.3241   48.2210 H   0  0  0  0  0  0  0  0  0  0  0  0
   59.2131   35.3393   47.5331 H   0  0  0  0  0  0  0  0  0  0  0  0
   59.8286   35.6707   45.1359 H   0  0  0  0  0  0  0  0  0  0  0  0
   59.1417   33.9903   43.4234 H   0  0  0  0  0  0  0  0  0  0  0  0
  1  2  2  0
  2  3  1  0
  3  4  1  0
  4  5  2  0
  5  6  1  0
  6  7  1  0
  7  8  1  0
  8  9  2  0
  9 10  1  0
 10 11  2  0
 11 12  1  0
 12 13  2  0
  6 14  1  0
 14 15  2  0
 14  2  1  0
 13  8  1  0
  3 16  1  0
  4 17  1  0
  5 18  1  0
  7 19  1  0
  7 20  1  0
  9 21  1  0
 10 22  1  0
 11 23  1  0
 12 24  1  0
 13 25  1  0
M  END
>  <UniqueID>  (24) 
22

>  <SMILES>  (24) 
O=c1[nH]ccn(Cc2ccccc2)c1=O

>  <Energy>  (24) 
28.373180091983258

>  <Genealogy>  (24) 
O=c1[nH]ccn(Cc2ccccc2)c1=O (3D coordinates assigned)
O=c1[nH]ccn(Cc2ccccc2)c1=O (optimized conformer: 28.373180091983258 kcal/mol)

>  <smiles>  (24) 
O=c1[nH]ccn(Cc2ccccc2)c1=O

>  <score_type>  (24) 
oracle

>  <origin>  (24) 
adg

>  <m_score__min__energy>  (24) 
-6.0199999999999996

>  <m_primary>  (24) 
energy

$$$$
24:0
     RDKit          3D

 73 76  0  0  1  0  0  0  0  0999 V2000
   60.7820   27.4550   49.6770 C   0  0  0  0  0  0  0  0  0  0  0  0
   59.9610   28.6160   49.2230 C   0  0  0  0  0  0  0  0  0  0  0  0
   59.9520   28.8370   47.8380 O   0  0  0  0  0  0  0  0  0  0  0  0
   59.0010   28.3390   46.9760 C   0  0  0  0  0  0  0  0  0  0  0  0
   58.8650   27.0050   46.6940 C   0  0  0  0  0  0  0  0  0  0  0  0
   57.9090   26.5360   45.8310 C   0  0  0  0  0  0  0  0  0  0  0  0
   57.0710   27.4540   45.2430 C   0  0  0  0  0  0  0  0  0  0  0  0
   57.1690   28.7830   45.4920 C   0  0  0  0  0  0  0  0  0  0  0  0
   56.3280   29.7170   44.9030 O   0  0  0  0  0  0  0  0  0  0  0  0
   56.3730   29.8840   43.5000 C   0  0  0  0  0  0  0  0  0  0  0  0
   56.3310   31.2050   43.0900 O   0  0  0  0  0  0  0  0  0  0  0  0
   57.4450   31.5860   42.3840 C   0  0  0  0  0  0  0  0  0  0  0  0
   58.1530   29.3100   46.3850 C   0  0  0  0  0  0  0  0  0  0  0  0
   58.3310   30.5840   46.5100 N   0  0  0  0  0  0  0  0  0  0  0  0
   58.2970   31.6750   46.0000 C   0  0  0  0  0  0  0  0  0  0  0  0
   57.1130   32.1010   45.4770 N   0  0  0  0  0  0  0  0  0  0  0  0
   56.8630   33.3850   45.1780 C   0  0  0  0  0  0  0  0  0  0  0  0
   57.8400   34.2620   45.4160 N   0  0  0  0  0  0  0  0  0  0  0  0
   59.0060   33.8450   45.9220 C   0  0  0  0  0  0  0  0  0  0  0  0
   60.3970   34.9120   46.3370 S   0  0  0  0  0  0  0  0  0  0  0  0
   61.3770   33.5020   46.9160 C   0  0  0  0  0  0  0  0  0  0  0  0
   62.6930   33.6050   47.5400 C   0  0  0  0  0  0  0  0  0  0  0  0
   63.7290   34.0300   46.9760 O   0  0  0  0  0  0  0  0  0  0  0  0
   62.8060   33.1960   48.8700 N   0  0  0  0  0  0  0  0  0  0  0  0
   64.0660   33.2520   49.5760 C   0  0  0  0  0  0  0  0  0  0  0  0
   64.0230   32.7300   50.9830 C   0  0  0  0  0  0  0  0  0  0  0  0
   62.9780   33.5410   51.7140 C   0  0  0  0  0  0  0  0  0  0  0  0
   61.7430   32.8730   51.9580 N   0  0  0  0  0  0  0  0  0  0  0  0
   61.6240   31.6410   51.1770 C   0  0  0  0  0  0  0  0  0  0  0  0
   60.2070   31.3800   50.7230 C   0  0  0  0  0  0  0  0  0  0  0  0
   59.8130   32.3700   49.7730 N   0  0  0  0  0  0  0  0  0  0  0  0
   58.4270   32.3390   49.4220 C   0  0  0  0  0  0  0  0  0  0  0  0
   60.1680   33.6820   50.2660 C   0  0  0  0  0  0  0  0  0  0  0  0
   60.5930   33.6920   51.7130 C   0  0  0  0  0  0  0  0  0  0  0  0
   60.5870   32.3590   46.7440 C   0  0  0  0  0  0  0  0  0  0  0  0
   61.4110   31.0680   46.8500 C   0  0  0  0  0  0  0  0  0  0  0  0
   59.3610   32.5630   46.2490 C   0  0  0  0  0  0  0  0  0  0  0  0
   60.8016   27.4274   50.7765 H   0  0  0  0  0  0  0  0  0  0  0  0
   60.3414   26.5225   49.2945 H   0  0  0  0  0  0  0  0  0  0  0  0
   61.8081   27.5596   49.2945 H   0  0  0  0  0  0  0  0  0  0  0  0
   58.9236   28.4464   49.5471 H   0  0  0  0  0  0  0  0  0  0  0  0
   60.4216   29.5088   49.6711 H   0  0  0  0  0  0  0  0  0  0  0  0
   59.5451   26.2872   47.1758 H   0  0  0  0  0  0  0  0  0  0  0  0
   57.8153   25.4613   45.6160 H   0  0  0  0  0  0  0  0  0  0  0  0
   56.2960   27.0985   44.5480 H   0  0  0  0  0  0  0  0  0  0  0  0
   57.3059   29.4355   43.1278 H   0  0  0  0  0  0  0  0  0  0  0  0
   55.4763   29.3948   43.0918 H   0  0  0  0  0  0  0  0  0  0  0  0
   58.2472   31.8604   43.0849 H   0  0  0  0  0  0  0  0  0  0  0  0
   57.7809   30.7516   41.7507 H   0  0  0  0  0  0  0  0  0  0  0  0
   57.1996   32.4513   41.7507 H   0  0  0  0  0  0  0  0  0  0  0  0
   56.3210   31.4380   45.2730 H   0  0  0  0  0  0  0  0  0  0  0  0
   55.8972   33.7000   44.7562 H   0  0  0  0  0  0  0  0  0  0  0  0
   61.9260   32.8370   49.3320 H   0  0  0  0  0  0  0  0  0  0  0  0
   64.8005   32.6577   49.0128 H   0  0  0  0  0  0  0  0  0  0  0  0
   64.3332   34.3166   49.6487 H   0  0  0  0  0  0  0  0  0  0  0  0
   63.7463   31.6654   50.9843 H   0  0  0  0  0  0  0  0  0  0  0  0
   65.0057   32.8198   51.4691 H   0  0  0  0  0  0  0  0  0  0  0  0
   63.3992   33.8400   52.6852 H   0  0  0  0  0  0  0  0  0  0  0  0
   62.7379   34.3884   51.0550 H   0  0  0  0  0  0  0  0  0  0  0  0
   62.2697   31.7215   50.2901 H   0  0  0  0  0  0  0  0  0  0  0  0
   61.9280   30.8043   51.8231 H   0  0  0  0  0  0  0  0  0  0  0  0
   60.1501   30.3847   50.2580 H   0  0  0  0  0  0  0  0  0  0  0  0
   59.5338   31.4225   51.5919 H   0  0  0  0  0  0  0  0  0  0  0  0
   57.8172   32.3254   50.3374 H   0  0  0  0  0  0  0  0  0  0  0  0
   58.1788   33.2318   48.8293 H   0  0  0  0  0  0  0  0  0  0  0  0
   58.2190   31.4360   48.8293 H   0  0  0  0  0  0  0  0  0  0  0  0
   60.9989   34.0684   49.6575 H   0  0  0  0  0  0  0  0  0  0  0  0
   59.2664   34.3078   50.1917 H   0  0  0  0  0  0  0  0  0  0  0  0
   60.8296   34.7264   52.0030 H   0  0  0  0  0  0  0  0  0  0  0  0
   59.7617   33.2829   52.3059 H   0  0  0  0  0  0  0  0  0  0  0  0
   61.5693   30.8200   47.9099 H   0  0  0  0  0  0  0  0  0  0  0  0
   60.8700   30.2463   46.3580 H   0  0  0  0  0  0  0  0  0  0  0  0
   62.3841   31.2127   46.3580 H   0  0  0  0  0  0  0  0  0  0  0  0
  1  2  1  0
  2  3  1  0
  3  4  1  0
  4  5  2  0
  5  6  1  0
  6  7  2  0
  7  8  1  0
  8  9  1  0
  9 10  1  0
 10 11  1  0
 11 12  1  0
  8 13  2  0
 13 14  1  0
 14 15  2  0
 15 16  1  0
 16 17  1  0
 17 18  2  0
 18 19  1  0
 19 20  1  0
 20 21  1  0
 21 22  1  0
 22 23  2  0
 22 24  1  0
 24 25  1  0
 25 26  1  0
 26 27  1  0
 27 28  1  0
 28 29  1  0
 29 30  1  0
 30 31  1  0
 31 32  1  0
 31 33  1  0
 33 34  1  0
 21 35  2  0
 35 36  1  0
 35 37  1  0
 13  4  1  0
 37 15  1  0
 37 19  2  0
 34 28  1  0
  1 38  1  0
  1 39  1  0
  1 40  1  0
  2 41  1  0
  2 42  1  0
  5 43  1  0
  6 44  1  0
  7 45  1  0
 10 46  1  0
 10 47  1  0
 12 48  1  0
 12 49  1  0
 12 50  1  0
 16 51  1  0
 17 52  1  0
 24 53  1  0
 25 54  1  0
 25 55  1  0
 26 56  1  0
 26 57  1  0
 27 58  1  0
 27 59  1  0
 29 60  1  0
 29 61  1  0
 30 62  1  0
 30 63  1  0
 32 64  1  0
 32 65  1  0
 32 66  1  0
 33 67  1  0
 33 68  1  0
 34 69  1  0
 34 70  1  0
 36 71  1  0
 36 72  1  0
 36 73  1  0
M  END
>  <smiles>  (25) 
CCOc1cccc(OCOC)c1N=c1[nH]cnc2sc(C(=O)NCCCN3CCN(C)CC3)c(C)c12

>  <score_type>  (25) 
oracle

>  <origin>  (25) 
adg

>  <m_score__min__energy>  (25) 
-8.0899999999999999

>  <m_primary>  (25) 
energy

$$$$
25:0
     RDKit          3D

 39 41  0  0  0  0  0  0  0  0999 V2000
   56.3290   29.7170   44.8590 O   0  0  0  0  0  0  0  0  0  0  0  0
   57.2140   30.5280   45.2400 C   0  0  0  0  0  0  0  0  0  0  0  0
   56.9810   31.9310   45.0630 N   0  0  0  0  0  0  0  0  0  0  0  0
   57.8730   32.9830   45.4600 C   0  0  0  0  0  0  0  0  0  0  0  0
   58.2220   33.9550   44.5220 C   0  0  0  0  0  0  0  0  0  0  0  0
   59.0970   34.9780   44.8730 C   0  0  0  0  0  0  0  0  0  0  0  0
   59.6330   35.0120   46.1590 C   0  0  0  0  0  0  0  0  0  0  0  0
   59.3170   34.0480   47.0760 N   0  0  0  0  0  0  0  0  0  0  0  0
   59.9450   34.1000   48.4070 C   0  0  0  0  0  0  0  0  0  0  0  0
   61.4040   33.7400   48.3110 C   0  0  0  0  0  0  0  0  0  0  0  0
   62.3010   34.1510   49.3080 C   0  0  0  0  0  0  0  0  0  0  0  0
   63.6560   33.8360   49.1870 C   0  0  0  0  0  0  0  0  0  0  0  0
   64.1010   33.1390   48.1070 N   0  0  0  0  0  0  0  0  0  0  0  0
   63.2560   32.7330   47.1230 C   0  0  0  0  0  0  0  0  0  0  0  0
   61.8930   33.0280   47.2050 C   0  0  0  0  0  0  0  0  0  0  0  0
   58.4650   33.0220   46.7390 C   0  0  0  0  0  0  0  0  0  0  0  0
   58.2290   32.0970   47.5640 O   0  0  0  0  0  0  0  0  0  0  0  0
   58.4230   30.0550   45.8600 N   0  0  0  0  0  0  0  0  0  0  0  0
   58.7380   28.6660   46.0520 C   0  0  0  0  0  0  0  0  0  0  0  0
   60.0590   28.1910   45.9530 C   0  0  0  0  0  0  0  0  0  0  0  0
   60.3330   26.8290   46.1200 C   0  0  0  0  0  0  0  0  0  0  0  0
   59.2930   25.9310   46.3710 C   0  0  0  0  0  0  0  0  0  0  0  0
   57.9740   26.3900   46.4460 C   0  0  0  0  0  0  0  0  0  0  0  0
   56.6670   25.2600   46.7460 Cl  0  0  0  0  0  0  0  0  0  0  0  0
   57.6970   27.7520   46.2780 C   0  0  0  0  0  0  0  0  0  0  0  0
   57.8053   33.9125   43.5049 H   0  0  0  0  0  0  0  0  0  0  0  0
   59.3638   35.7544   44.1409 H   0  0  0  0  0  0  0  0  0  0  0  0
   60.3190   35.8247   46.4400 H   0  0  0  0  0  0  0  0  0  0  0  0
   59.8483   35.1172   48.8144 H   0  0  0  0  0  0  0  0  0  0  0  0
   59.4415   33.3797   49.0685 H   0  0  0  0  0  0  0  0  0  0  0  0
   61.9396   34.7174   50.1790 H   0  0  0  0  0  0  0  0  0  0  0  0
   64.3648   34.1521   49.9665 H   0  0  0  0  0  0  0  0  0  0  0  0
   63.6457   32.1715   46.2611 H   0  0  0  0  0  0  0  0  0  0  0  0
   61.2076   32.7043   46.4079 H   0  0  0  0  0  0  0  0  0  0  0  0
   59.1590   30.7510   46.1130 H   0  0  0  0  0  0  0  0  0  0  0  0
   60.8794   28.8932   45.7435 H   0  0  0  0  0  0  0  0  0  0  0  0
   61.3689   26.4650   46.0535 H   0  0  0  0  0  0  0  0  0  0  0  0
   59.5116   24.8619   46.5098 H   0  0  0  0  0  0  0  0  0  0  0  0
   56.6572   28.1080   46.3234 H   0  0  0  0  0  0  0  0  0  0  0  0
  1  2  2  0
  2  3  1  0
  3  4  1  0
  4  5  2  0
  5  6  1  0
  6  7  2  0
  7  8  1  0
  8  9  1  0
  9 10  1  0
 10 11  2  0
 11 12  1  0
 12 13  2  0
 13 14  1  0
 14 15  2  0
  8 16  1  0
 16 17  2  0
  2 18  1  0
 18 19  1  0
 19 20  2  0
 20 21  1  0
 21 22  2  0
 22 23  1  0
 23 24  1  0
 23 25  2  0
 16  4  1  0
 25 19  1  0
 15 10  1  0
  5 26  1  0
  6 27  1  0
  7 28  1  0
  9 29  1  0
  9 30  1  0
 11 31  1  0
 12 32  1  0
 14 33  1  0
 15 34  1  0
 18 35  1  0
 20 36  1  0
 21 37  1  0
 22 38  1  0
 25 39  1  0
M  CHG  1   3  -1
M  END
>  <UniqueID>  (26) 
23

>  <SMILES>  (26) 
O=C([N-]c1cccn(Cc2ccncc2)c1=O)Nc1cccc(Cl)c1

>  <Energy>  (26) 
53.875932742761336

>  <Genealogy>  (26) 
O=C([N-]c1cccn(Cc2ccncc2)c1=O)Nc1cccc(Cl)c1 (protonated)
O=C([N-]c1cccn(Cc2ccncc2)c1=O)Nc1cccc(Cl)c1 (3D coordinates assigned)
O=C([N-]c1cccn(Cc2ccncc2)c1=O)Nc1cccc(Cl)c1 (optimized conformer: 53.875932742761336 kcal/mol)

>  <smiles>  (26) 
O=C(Nc1cccc(Cl)c1)Nc1cccn(Cc2ccncc2)c1=O

>  <score_type>  (26) 
oracle

>  <origin>  (26) 
adg

>  <m_score__min__energy>  (26) 
-10.49

>  <m_primary>  (26) 
energy

$$$$
26:0
     RDKit          3D

 29 30  0  0  0  0  0  0  0  0999 V2000
   60.4030   28.3360   46.5390 O   0  0  0  0  0  0  0  0  0  0  0  0
   59.6500   28.4580   45.5390 C   0  0  0  0  0  0  0  0  0  0  0  0
   59.2140   29.8210   45.0830 C   0  0  0  0  0  0  0  0  0  0  0  0
   57.9350   29.7700   44.3460 N   0  0  0  0  0  0  0  0  0  0  0  0
   57.1420   30.9670   44.1910 C   0  0  0  0  0  0  0  0  0  0  0  0
   55.9170   30.9430   44.4920 O   0  0  0  0  0  0  0  0  0  0  0  0
   57.7590   32.2690   43.7380 C   0  0  0  0  0  0  0  0  0  0  0  0
   58.2180   33.1010   44.9070 C   0  0  0  0  0  0  0  0  0  0  0  0
   57.8100   32.7740   46.2100 C   0  0  0  0  0  0  0  0  0  0  0  0
   58.2590   33.5260   47.3000 C   0  0  0  0  0  0  0  0  0  0  0  0
   59.1260   34.6030   47.0970 C   0  0  0  0  0  0  0  0  0  0  0  0
   59.5470   34.9280   45.8040 C   0  0  0  0  0  0  0  0  0  0  0  0
   59.0990   34.1780   44.7120 C   0  0  0  0  0  0  0  0  0  0  0  0
   57.4010   28.5040   43.8070 C   0  0  0  0  0  0  0  0  0  0  0  0
   58.5010   27.4560   43.6320 C   0  0  0  0  0  0  0  0  0  0  0  0
   59.2400   27.3260   44.8390 O   0  0  0  0  0  0  0  0  0  0  0  0
   59.0919   30.4688   45.9636 H   0  0  0  0  0  0  0  0  0  0  0  0
   59.9839   30.2169   44.4044 H   0  0  0  0  0  0  0  0  0  0  0  0
   58.6237   32.0495   43.0945 H   0  0  0  0  0  0  0  0  0  0  0  0
   56.9954   32.8390   43.1885 H   0  0  0  0  0  0  0  0  0  0  0  0
   57.1338   31.9220   46.3742 H   0  0  0  0  0  0  0  0  0  0  0  0
   57.9296   33.2697   48.3177 H   0  0  0  0  0  0  0  0  0  0  0  0
   59.4773   35.1953   47.9548 H   0  0  0  0  0  0  0  0  0  0  0  0
   60.2313   35.7745   45.6455 H   0  0  0  0  0  0  0  0  0  0  0  0
   59.4376   34.4322   43.6967 H   0  0  0  0  0  0  0  0  0  0  0  0
   56.6427   28.1126   44.5011 H   0  0  0  0  0  0  0  0  0  0  0  0
   56.9623   28.7093   42.8194 H   0  0  0  0  0  0  0  0  0  0  0  0
   58.0454   26.4878   43.3769 H   0  0  0  0  0  0  0  0  0  0  0  0
   59.1779   27.7720   42.8245 H   0  0  0  0  0  0  0  0  0  0  0  0
  1  2  2  0
  2  3  1  0
  3  4  1  0
  4  5  1  0
  5  6  2  0
  5  7  1  0
  7  8  1  0
  8  9  2  0
  9 10  1  0
 10 11  2  0
 11 12  1  0
 12 13  2  0
  4 14  1  0
 14 15  1  0
 15 16  1  0
 16  2  1  0
 13  8  1  0
  3 17  1  0
  3 18  1  0
  7 19  1  0
  7 20  1  0
  9 21  1  0
 10 22  1  0
 11 23  1  0
 12 24  1  0
 13 25  1  0
 14 26  1  0
 14 27  1  0
 15 28  1  0
 15 29  1  0
M  END
>  <UniqueID>  (27) 
24

>  <SMILES>  (27) 
O=C1CN(C(=O)Cc2ccccc2)CCO1

>  <Energy>  (27) 
28.336626615699952

>  <Genealogy>  (27) 
O=C1CN(C(=O)Cc2ccccc2)CCO1 (3D coordinates assigned)
O=C1CN(C(=O)Cc2ccccc2)CCO1 (nonaromatic ring conformer: 28.336626615699952 kcal/mol)

>  <smiles>  (27) 
O=C1CN(C(=O)Cc2ccccc2)CCO1

>  <score_type>  (27) 
oracle

>  <origin>  (27) 
adg

>  <m_score__min__energy>  (27) 
-6.0099999999999998

>  <m_primary>  (27) 
energy

$$$$
27:0
     RDKit          3D

 37 39  0  0  0  0  0  0  0  0999 V2000
   63.7930   31.6760   46.7740 O   0  0  0  0  0  0  0  0  0  0  0  0
   63.5240   32.8740   47.0040 N   0  0  0  0  0  0  0  0  0  0  0  0
   63.7700   33.8200   46.0390 O   0  0  0  0  0  0  0  0  0  0  0  0
   62.9590   33.2610   48.2050 O   0  0  0  0  0  0  0  0  0  0  0  0
   61.7130   33.9470   48.2810 C   0  0  0  0  0  0  0  0  0  0  0  0
   60.6270   33.1190   47.6700 C   0  0  0  0  0  0  0  0  0  0  0  0
   60.7250   31.7850   47.3280 C   0  0  0  0  0  0  0  0  0  0  0  0
   59.4970   31.4850   46.7730 C   0  0  0  0  0  0  0  0  0  0  0  0
   59.1120   30.1680   46.2270 C   0  0  0  0  0  0  0  0  0  0  0  0
   59.6480   29.7090   45.0120 C   0  0  0  0  0  0  0  0  0  0  0  0
   59.2690   28.4650   44.4990 C   0  0  0  0  0  0  0  0  0  0  0  0
   58.3430   27.6760   45.1880 C   0  0  0  0  0  0  0  0  0  0  0  0
   57.7890   28.1340   46.3850 C   0  0  0  0  0  0  0  0  0  0  0  0
   58.1650   29.3780   46.9010 C   0  0  0  0  0  0  0  0  0  0  0  0
   58.7360   32.6060   46.7720 N   0  0  0  0  0  0  0  0  0  0  0  0
   57.3960   32.7830   46.2100 C   0  0  0  0  0  0  0  0  0  0  0  0
   57.2850   32.1040   44.8750 C   0  0  0  0  0  0  0  0  0  0  0  0
   57.9820   32.6010   43.7620 C   0  0  0  0  0  0  0  0  0  0  0  0
   57.8390   31.9670   42.5260 C   0  0  0  0  0  0  0  0  0  0  0  0
   56.9970   30.8610   42.4050 C   0  0  0  0  0  0  0  0  0  0  0  0
   56.3020   30.4050   43.5280 C   0  0  0  0  0  0  0  0  0  0  0  0
   56.4560   31.0330   44.7250 N   0  0  0  0  0  0  0  0  0  0  0  0
   59.4200   33.6020   47.3160 N   0  0  0  0  0  0  0  0  0  0  0  0
   61.4702   34.1429   49.3358 H   0  0  0  0  0  0  0  0  0  0  0  0
   61.7925   34.8960   47.7304 H   0  0  0  0  0  0  0  0  0  0  0  0
   61.5856   31.1140   47.4662 H   0  0  0  0  0  0  0  0  0  0  0  0
   60.3692   30.3314   44.4619 H   0  0  0  0  0  0  0  0  0  0  0  0
   59.6997   28.1066   43.5524 H   0  0  0  0  0  0  0  0  0  0  0  0
   58.0509   26.6942   44.7870 H   0  0  0  0  0  0  0  0  0  0  0  0
   57.0556   27.5153   46.9229 H   0  0  0  0  0  0  0  0  0  0  0  0
   57.7177   29.7399   47.8385 H   0  0  0  0  0  0  0  0  0  0  0  0
   56.6558   32.3490   46.8983 H   0  0  0  0  0  0  0  0  0  0  0  0
   57.2086   33.8586   46.0758 H   0  0  0  0  0  0  0  0  0  0  0  0
   58.6342   33.4810   43.8627 H   0  0  0  0  0  0  0  0  0  0  0  0
   58.3893   32.3389   41.6492 H   0  0  0  0  0  0  0  0  0  0  0  0
   56.8816   30.3535   41.4359 H   0  0  0  0  0  0  0  0  0  0  0  0
   55.6302   29.5380   43.4443 H   0  0  0  0  0  0  0  0  0  0  0  0
  1  2  2  0
  2  3  1  0
  2  4  1  0
  4  5  1  0
  5  6  1  0
  6  7  1  0
  7  8  2  0
  8  9  1  0
  9 10  2  0
 10 11  1  0
 11 12  2  0
 12 13  1  0
 13 14  2  0
  8 15  1  0
 15 16  1  0
 16 17  1  0
 17 18  2  0
 18 19  1  0
 19 20  2  0
 20 21  1  0
 21 22  2  0
 15 23  1  0
 23  6  2  0
 14  9  1  0
 22 17  1  0
  5 24  1  0
  5 25  1  0
  7 26  1  0
 10 27  1  0
 11 28  1  0
 12 29  1  0
 13 30  1  0
 14 31  1  0
 16 32  1  0
 16 33  1  0
 18 34  1  0
 19 35  1  0
 20 36  1  0
 21 37  1  0
M  CHG  2   2   1   3  -1
M  END
>  <UniqueID>  (28) 
25

>  <SMILES>  (28) 
O=[N+]([O-])OCc1cc(-c2ccccc2)n(Cc2ccccn2)n1

>  <Energy>  (28) 
71.67496753082247

>  <Genealogy>  (28) 
O=[N+]([O-])OCc1cc(-c2ccccc2)n(Cc2ccccn2)n1 (3D coordinates assigned)
O=[N+]([O-])OCc1cc(-c2ccccc2)n(Cc2ccccn2)n1 (optimized conformer: 71.67496753082247 kcal/mol)

>  <smiles>  (28) 
O=[N+]([O-])OCc1cc(-c2ccccc2)n(Cc2ccccn2)n1

>  <score_type>  (28) 
oracle

>  <origin>  (28) 
adg

>  <m_score__min__energy>  (28) 
-7.3399999999999999

>  <m_primary>  (28) 
energy

$$$$
28:0
     RDKit          3D

 41 42  0  0  0  0  0  0  0  0999 V2000
   55.1320   29.7790   52.3960 C   0  0  0  0  0  0  0  0  0  0  0  0
   55.6890   31.1530   52.0390 C   0  0  0  0  0  0  0  0  0  0  0  0
   57.0280   31.0230   51.3790 C   0  0  0  0  0  0  0  0  0  0  0  0
   57.5490   29.8820   51.2670 O   0  0  0  0  0  0  0  0  0  0  0  0
   57.7010   32.1980   50.8910 N   0  0  0  0  0  0  0  0  0  0  0  0
   59.0250   32.2310   50.3260 C   0  0  0  0  0  0  0  0  0  0  0  0
   60.1390   31.0840   50.7170 S   0  0  0  0  0  0  0  0  0  0  0  0
   59.4330   33.4060   49.6030 N   0  0  0  0  0  0  0  0  0  0  0  0
   60.6480   33.4870   48.8470 C   0  0  0  0  0  0  0  0  0  0  0  0
   61.8600   33.6710   49.5260 C   0  0  0  0  0  0  0  0  0  0  0  0
   63.0640   33.7260   48.8210 C   0  0  0  0  0  0  0  0  0  0  0  0
   63.0650   33.6130   47.4300 C   0  0  0  0  0  0  0  0  0  0  0  0
   61.8620   33.4570   46.7390 C   0  0  0  0  0  0  0  0  0  0  0  0
   60.6420   33.4010   47.4350 C   0  0  0  0  0  0  0  0  0  0  0  0
   59.4030   33.3200   46.7040 N   0  0  0  0  0  0  0  0  0  0  0  0
   58.8640   34.5250   46.0520 C   0  0  0  0  0  0  0  0  0  0  0  0
   57.6030   34.2110   45.2360 C   0  0  0  0  0  0  0  0  0  0  0  0
   57.7750   32.8890   44.4850 C   0  0  0  0  0  0  0  0  0  0  0  0
   57.9960   31.7030   45.4450 C   0  0  0  0  0  0  0  0  0  0  0  0
   58.5730   32.1120   46.8130 C   0  0  0  0  0  0  0  0  0  0  0  0
   55.0893   29.6736   53.4901 H   0  0  0  0  0  0  0  0  0  0  0  0
   54.1201   29.6736   51.9777 H   0  0  0  0  0  0  0  0  0  0  0  0
   55.7848   28.9987   51.9777 H   0  0  0  0  0  0  0  0  0  0  0  0
   54.9942   31.6574   51.3513 H   0  0  0  0  0  0  0  0  0  0  0  0
   55.8036   31.7404   52.9619 H   0  0  0  0  0  0  0  0  0  0  0  0
   57.1570   33.0900   50.8830 H   0  0  0  0  0  0  0  0  0  0  0  0
   58.8700   34.2780   49.7140 H   0  0  0  0  0  0  0  0  0  0  0  0
   61.8629   33.7727   50.6213 H   0  0  0  0  0  0  0  0  0  0  0  0
   64.0124   33.8585   49.3624 H   0  0  0  0  0  0  0  0  0  0  0  0
   64.0153   33.6469   46.8771 H   0  0  0  0  0  0  0  0  0  0  0  0
   61.8689   33.3773   45.6419 H   0  0  0  0  0  0  0  0  0  0  0  0
   58.6135   35.2669   46.8246 H   0  0  0  0  0  0  0  0  0  0  0  0
   59.6293   34.9154   45.3651 H   0  0  0  0  0  0  0  0  0  0  0  0
   56.7409   34.1337   45.9148 H   0  0  0  0  0  0  0  0  0  0  0  0
   57.4365   35.0184   44.5077 H   0  0  0  0  0  0  0  0  0  0  0  0
   56.8704   32.6992   43.8887 H   0  0  0  0  0  0  0  0  0  0  0  0
   58.6641   32.9764   43.8432 H   0  0  0  0  0  0  0  0  0  0  0  0
   57.0289   31.2058   45.6108 H   0  0  0  0  0  0  0  0  0  0  0  0
   58.7339   31.0392   44.9708 H   0  0  0  0  0  0  0  0  0  0  0  0
   57.7429   32.3093   47.5073 H   0  0  0  0  0  0  0  0  0  0  0  0
   59.2036   31.2902   47.1831 H   0  0  0  0  0  0  0  0  0  0  0  0
  1  2  1  0
  2  3  1  0
  3  4  2  0
  3  5  1  0
  5  6  1  0
  6  7  2  0
  6  8  1  0
  8  9  1  0
  9 10  2  0
 10 11  1  0
 11 12  2  0
 12 13  1  0
 13 14  2  0
 14 15  1  0
 15 16  1  0
 16 17  1  0
 17 18  1  0
 18 19  1  0
 19 20  1  0
 14  9  1  0
 20 15  1  0
  1 21  1  0
  1 22  1  0
  1 23  1  0
  2 24  1  0
  2 25  1  0
  5 26  1  0
  8 27  1  0
 10 28  1  0
 11 29  1  0
 12 30  1  0
 13 31  1  0
 16 32  1  0
 16 33  1  0
 17 34  1  0
 17 35  1  0
 18 36  1  0
 18 37  1  0
 19 38  1  0
 19 39  1  0
 20 40  1  0
 20 41  1  0
M  END
>  <UniqueID>  (29) 
26

>  <SMILES>  (29) 
CCC(=O)NC(=S)Nc1ccccc1N1CCCCC1

>  <Energy>  (29) 
47.887513452325514

>  <Genealogy>  (29) 
CCC(=O)NC(=S)Nc1ccccc1N1CCCCC1 (3D coordinates assigned)
CCC(=O)NC(=S)Nc1ccccc1N1CCCCC1 (nonaromatic ring conformer: 47.887513452325514 kcal/mol)

>  <smiles>  (29) 
CCC(=O)NC(=S)Nc1ccccc1N1CCCCC1

>  <score_type>  (29) 
oracle

>  <origin>  (29) 
adg

>  <m_score__min__energy>  (29) 
-6.9000000000000004

>  <m_primary>  (29) 
energy

$$$$
29:0
     RDKit          3D

 49 51  0  0  0  0  0  0  0  0999 V2000
   63.9927   34.6328   49.6678 H   0  0  0  0  0  0  0  0  0  0  0  0
   63.4650   33.8120   49.1600 C   0  0  0  0  0  0  0  0  0  0  0  0
   63.6220   33.6270   47.7840 C   0  0  0  0  0  0  0  0  0  0  0  0
   64.2711   34.3045   47.2098 H   0  0  0  0  0  0  0  0  0  0  0  0
   62.9550   32.5810   47.1340 C   0  0  0  0  0  0  0  0  0  0  0  0
   63.0783   32.4472   46.0492 H   0  0  0  0  0  0  0  0  0  0  0  0
   62.1290   31.7000   47.8550 C   0  0  0  0  0  0  0  0  0  0  0  0
   61.3840   30.6370   47.0910 C   0  0  0  0  0  0  0  0  0  0  0  0
   61.6266   30.7171   46.0211 H   0  0  0  0  0  0  0  0  0  0  0  0
   61.6801   29.6447   47.4621 H   0  0  0  0  0  0  0  0  0  0  0  0
   59.9810   30.8120   47.2740 O   0  0  0  0  0  0  0  0  0  0  0  0
   59.1200   31.1960   46.2440 C   0  0  0  0  0  0  0  0  0  0  0  0
   58.7980   30.2890   45.2220 C   0  0  0  0  0  0  0  0  0  0  0  0
   59.2291   29.2771   45.2351 H   0  0  0  0  0  0  0  0  0  0  0  0
   57.9360   30.6600   44.1900 C   0  0  0  0  0  0  0  0  0  0  0  0
   57.7037   29.9483   43.3841 H   0  0  0  0  0  0  0  0  0  0  0  0
   57.3690   31.9340   44.1810 C   0  0  0  0  0  0  0  0  0  0  0  0
   56.6701   32.2155   43.3796 H   0  0  0  0  0  0  0  0  0  0  0  0
   57.6860   32.8640   45.1930 C   0  0  0  0  0  0  0  0  0  0  0  0
   57.0400   34.2250   45.1980 C   0  0  0  0  0  0  0  0  0  0  0  0
   56.8843   34.5531   46.2363 H   0  0  0  0  0  0  0  0  0  0  0  0
   57.6934   34.9429   44.6807 H   0  0  0  0  0  0  0  0  0  0  0  0
   56.0707   34.1727   44.6807 H   0  0  0  0  0  0  0  0  0  0  0  0
   58.5790   32.5000   46.2230 C   0  0  0  0  0  0  0  0  0  0  0  0
   58.8510   33.4250   47.2430 O   0  0  0  0  0  0  0  0  0  0  0  0
   59.8320   34.4510   47.1450 C   0  0  0  0  0  0  0  0  0  0  0  0
   60.1342   34.7670   48.1544 H   0  0  0  0  0  0  0  0  0  0  0  0
   60.7093   34.0689   46.6024 H   0  0  0  0  0  0  0  0  0  0  0  0
   59.4110   35.3103   46.6024 H   0  0  0  0  0  0  0  0  0  0  0  0
   61.9620   31.9020   49.2530 C   0  0  0  0  0  0  0  0  0  0  0  0
   61.0710   31.0510   50.0690 C   0  0  0  0  0  0  0  0  0  0  0  0
   61.4850   29.9130   50.5350 N   0  0  0  0  0  0  0  0  0  0  0  0
   60.9760   28.7130   50.0890 O   0  0  0  0  0  0  0  0  0  0  0  0
   61.1110   27.5420   50.8770 C   0  0  0  0  0  0  0  0  0  0  0  0
   61.0799   27.8118   51.9430 H   0  0  0  0  0  0  0  0  0  0  0  0
   60.2867   26.8500   50.6497 H   0  0  0  0  0  0  0  0  0  0  0  0
   62.0712   27.0557   50.6497 H   0  0  0  0  0  0  0  0  0  0  0  0
   59.6990   31.4980   50.3640 C   0  0  0  0  0  0  0  0  0  0  0  0
   59.0820   31.2940   51.5450 N   0  0  0  0  0  0  0  0  0  0  0  0
   57.8580   31.8190   51.3080 C   0  0  0  0  0  0  0  0  0  0  0  0
   56.7500   31.8410   52.3080 C   0  0  0  0  0  0  0  0  0  0  0  0
   57.1725   31.8326   53.3236 H   0  0  0  0  0  0  0  0  0  0  0  0
   56.1483   32.7513   52.1687 H   0  0  0  0  0  0  0  0  0  0  0  0
   56.1127   30.9553   52.1687 H   0  0  0  0  0  0  0  0  0  0  0  0
   57.7620   32.2960   50.0900 O   0  0  0  0  0  0  0  0  0  0  0  0
   58.8890   32.1100   49.4770 N   0  0  0  0  0  0  0  0  0  0  0  0
   59.0920   32.3630   48.4850 H   0  0  0  0  0  0  0  0  0  0  0  0
   62.6380   32.9550   49.8920 C   0  0  0  0  0  0  0  0  0  0  0  0
   62.5158   33.1059   50.9747 H   0  0  0  0  0  0  0  0  0  0  0  0
  1  2  1  0
  2  3  2  0
  3  4  1  0
  3  5  1  0
  5  6  1  0
  5  7  2  0
  7  8  1  0
  8  9  1  0
  8 10  1  0
  8 11  1  0
 11 12  1  0
 12 13  2  0
 13 14  1  0
 13 15  1  0
 15 16  1  0
 15 17  2  0
 17 18  1  0
 17 19  1  0
 19 20  1  0
 20 21  1  0
 20 22  1  0
 20 23  1  0
 19 24  2  0
 24 25  1  0
 25 26  1  0
 26 27  1  0
 26 28  1  0
 26 29  1  0
  7 30  1  0
 30 31  1  0
 31 32  2  0
 32 33  1  0
 33 34  1  0
 34 35  1  0
 34 36  1  0
 34 37  1  0
 31 38  1  0
 38 39  1  0
 39 40  2  0
 40 41  1  0
 41 42  1  0
 41 43  1  0
 41 44  1  0
 40 45  1  0
 45 46  1  0
 46 47  1  0
 30 48  2  0
 48 49  1  0
 48  2  1  0
 24 12  1  0
 46 38  2  0
M  CHG  1  46   1
M  END
>  <UniqueID>  (30) 
27

>  <SMILES>  (30) 
CO/N=C(/c1nc(C)o[nH+]1)c1ccccc1COc1cccc(C)c1OC

>  <Energy>  (30) 
91.33535015733857

>  <Genealogy>  (30) 
CON=C(c1nc(C)o[nH+]1)c1ccccc1COc1cccc(C)c1OC (protonated)
CO/N=C(/c1nc(C)o[nH+]1)c1ccccc1COc1cccc(C)c1OC (cis-trans isomerization)
CO/N=C(/c1nc(C)o[nH+]1)c1ccccc1COc1cccc(C)c1OC (3D coordinates assigned)
CO/N=C(/c1nc(C)o[nH+]1)c1ccccc1COc1cccc(C)c1OC (optimized conformer: 91.33535015733857 kcal/mol)

>  <smiles>  (30) 
CON=C(c1noc(C)n1)c1ccccc1COc1cccc(C)c1OC

>  <score_type>  (30) 
oracle

>  <origin>  (30) 
adg

>  <m_score__min__energy>  (30) 
-6.4800000000000004

>  <m_primary>  (30) 
energy

$$$$
30:0
     RDKit          3D

 34 35  0  0  0  0  0  0  0  0999 V2000
   53.9190   24.8090   45.6130 C   0  0  0  0  0  0  0  0  0  0  0  0
   54.6900   25.9920   45.7840 O   0  0  0  0  0  0  0  0  0  0  0  0
   56.0870   26.0600   45.6540 C   0  0  0  0  0  0  0  0  0  0  0  0
   56.9040   24.9180   45.7690 C   0  0  0  0  0  0  0  0  0  0  0  0
   58.3040   25.0210   45.6720 C   0  0  0  0  0  0  0  0  0  0  0  0
   59.1310   23.8470   45.7840 N   0  0  0  0  0  0  0  0  0  0  0  0
   60.3730   23.9320   45.6870 O   0  0  0  0  0  0  0  0  0  0  0  0
   58.5660   22.6100   45.9940 O   0  0  0  0  0  0  0  0  0  0  0  0
   58.8810   26.2850   45.4700 C   0  0  0  0  0  0  0  0  0  0  0  0
   58.0760   27.4200   45.3520 C   0  0  0  0  0  0  0  0  0  0  0  0
   56.6840   27.3090   45.4140 C   0  0  0  0  0  0  0  0  0  0  0  0
   55.8890   28.4880   45.2450 N   0  0  0  0  0  0  0  0  0  0  0  0
   55.9930   29.3950   44.1380 C   0  0  0  0  0  0  0  0  0  0  0  0
   54.9390   29.7470   43.5440 O   0  0  0  0  0  0  0  0  0  0  0  0
   57.3120   29.9720   43.6900 C   0  0  0  0  0  0  0  0  0  0  0  0
   57.7150   31.1540   44.5340 C   0  0  0  0  0  0  0  0  0  0  0  0
   57.6710   32.4540   44.0080 C   0  0  0  0  0  0  0  0  0  0  0  0
   58.0210   33.5420   44.8080 C   0  0  0  0  0  0  0  0  0  0  0  0
   58.4170   33.3220   46.1280 C   0  0  0  0  0  0  0  0  0  0  0  0
   58.4650   32.0580   46.6250 N   0  0  0  0  0  0  0  0  0  0  0  0
   58.1320   30.9790   45.8640 C   0  0  0  0  0  0  0  0  0  0  0  0
   53.6522   24.3996   46.5985 H   0  0  0  0  0  0  0  0  0  0  0  0
   53.0018   25.0467   45.0541 H   0  0  0  0  0  0  0  0  0  0  0  0
   54.5067   24.0659   45.0541 H   0  0  0  0  0  0  0  0  0  0  0  0
   56.4419   23.9340   45.9366 H   0  0  0  0  0  0  0  0  0  0  0  0
   59.9747   26.3819   45.4042 H   0  0  0  0  0  0  0  0  0  0  0  0
   58.5400   28.4071   45.2094 H   0  0  0  0  0  0  0  0  0  0  0  0
   58.0870   29.1955   43.7697 H   0  0  0  0  0  0  0  0  0  0  0  0
   57.2033   30.3127   42.6497 H   0  0  0  0  0  0  0  0  0  0  0  0
   57.3606   32.6153   42.9651 H   0  0  0  0  0  0  0  0  0  0  0  0
   57.9852   34.5638   44.4021 H   0  0  0  0  0  0  0  0  0  0  0  0
   58.6910   34.1738   46.7678 H   0  0  0  0  0  0  0  0  0  0  0  0
   58.7640   31.9090   47.6150 H   0  0  0  0  0  0  0  0  0  0  0  0
   58.1897   29.9673   46.2920 H   0  0  0  0  0  0  0  0  0  0  0  0
  1  2  1  0
  2  3  1  0
  3  4  2  0
  4  5  1  0
  5  6  1  0
  6  7  2  0
  6  8  1  0
  5  9  2  0
  9 10  1  0
 10 11  2  0
 11 12  1  0
 12 13  1  0
 13 14  2  0
 13 15  1  0
 15 16  1  0
 16 17  2  0
 17 18  1  0
 18 19  2  0
 19 20  1  0
 20 21  2  0
 11  3  1  0
 21 16  1  0
  1 22  1  0
  1 23  1  0
  1 24  1  0
  4 25  1  0
  9 26  1  0
 10 27  1  0
 15 28  1  0
 15 29  1  0
 17 30  1  0
 18 31  1  0
 19 32  1  0
 20 33  1  0
 21 34  1  0
M  CHG  4   6   1   8  -1  12  -1  20   1
M  END
>  <UniqueID>  (31) 
28

>  <SMILES>  (31) 
COc1cc([N+](=O)[O-])ccc1[N-]C(=O)Cc1ccc[nH+]c1

>  <Energy>  (31) 
38.767670436660985

>  <Genealogy>  (31) 
COc1cc([N+](=O)[O-])ccc1[N-]C(=O)Cc1ccc[nH+]c1 (protonated)
COc1cc([N+](=O)[O-])ccc1[N-]C(=O)Cc1ccc[nH+]c1 (3D coordinates assigned)
COc1cc([N+](=O)[O-])ccc1[N-]C(=O)Cc1ccc[nH+]c1 (optimized conformer: 38.767670436660985 kcal/mol)

>  <smiles>  (31) 
COc1cc([N+](=O)[O-])ccc1NC(=O)Cc1cccnc1

>  <score_type>  (31) 
oracle

>  <origin>  (31) 
adg

>  <m_score__min__energy>  (31) 
-8.4700000000000006

>  <m_primary>  (31) 
energy

$$$$
31:0
     RDKit          3D

 35 36  0  0  0  0  0  0  0  0999 V2000
   55.7440   27.4620   46.2720 H   0  0  0  0  0  0  0  0  0  0  0  0
   55.1430   26.6940   46.0020 O   0  0  0  0  0  0  0  0  0  0  0  0
   55.6470   25.4490   45.6230 C   0  0  0  0  0  0  0  0  0  0  0  0
   54.8250   24.3210   45.7440 C   0  0  0  0  0  0  0  0  0  0  0  0
   53.8038   24.4276   46.1386 H   0  0  0  0  0  0  0  0  0  0  0  0
   55.2960   23.0620   45.3660 C   0  0  0  0  0  0  0  0  0  0  0  0
   54.6504   22.1781   45.4755 H   0  0  0  0  0  0  0  0  0  0  0  0
   56.5860   22.9240   44.8490 C   0  0  0  0  0  0  0  0  0  0  0  0
   56.9525   21.9332   44.5425 H   0  0  0  0  0  0  0  0  0  0  0  0
   57.4110   24.0440   44.7210 C   0  0  0  0  0  0  0  0  0  0  0  0
   58.4194   23.9348   44.2952 H   0  0  0  0  0  0  0  0  0  0  0  0
   56.9600   25.3090   45.1330 C   0  0  0  0  0  0  0  0  0  0  0  0
   57.8000   26.4630   44.9930 N   0  0  0  0  0  0  0  0  0  0  0  0
   57.8890   27.5500   45.9240 C   0  0  0  0  0  0  0  0  0  0  0  0
   57.6840   27.3220   47.1460 O   0  0  0  0  0  0  0  0  0  0  0  0
   58.3080   28.9320   45.4960 C   0  0  0  0  0  0  0  0  0  0  0  0
   59.0879   28.8470   44.7249 H   0  0  0  0  0  0  0  0  0  0  0  0
   58.6887   29.4676   46.3781 H   0  0  0  0  0  0  0  0  0  0  0  0
   57.1490   29.7060   44.9360 C   0  0  0  0  0  0  0  0  0  0  0  0
   55.9730   29.3350   45.2040 O   0  0  0  0  0  0  0  0  0  0  0  0
   57.3850   30.9010   44.0980 C   0  0  0  0  0  0  0  0  0  0  0  0
   57.8528   30.7737   43.1106 H   0  0  0  0  0  0  0  0  0  0  0  0
   57.0480   32.1350   44.5010 C   0  0  0  0  0  0  0  0  0  0  0  0
   56.0933   32.5520   44.1480 H   0  0  0  0  0  0  0  0  0  0  0  0
   57.8870   32.9710   45.3950 C   0  0  0  0  0  0  0  0  0  0  0  0
   58.5030   34.1150   44.8590 C   0  0  0  0  0  0  0  0  0  0  0  0
   58.3451   34.3752   43.8019 H   0  0  0  0  0  0  0  0  0  0  0  0
   59.3150   34.9250   45.6590 C   0  0  0  0  0  0  0  0  0  0  0  0
   59.7869   35.8219   45.2312 H   0  0  0  0  0  0  0  0  0  0  0  0
   59.5280   34.5980   46.9990 C   0  0  0  0  0  0  0  0  0  0  0  0
   60.1615   35.2404   47.6282 H   0  0  0  0  0  0  0  0  0  0  0  0
   58.9360   33.4540   47.5410 C   0  0  0  0  0  0  0  0  0  0  0  0
   59.1103   33.1934   48.5954 H   0  0  0  0  0  0  0  0  0  0  0  0
   58.1230   32.6400   46.7470 C   0  0  0  0  0  0  0  0  0  0  0  0
   57.6650   31.7373   47.1776 H   0  0  0  0  0  0  0  0  0  0  0  0
  1  2  1  0
  2  3  1  0
  3  4  2  0
  4  5  1  0
  4  6  1  0
  6  7  1  0
  6  8  2  0
  8  9  1  0
  8 10  1  0
 10 11  1  0
 10 12  2  0
 12 13  1  0
 13 14  1  0
 14 15  2  0
 14 16  1  0
 16 17  1  0
 16 18  1  0
 16 19  1  0
 19 20  2  0
 19 21  1  0
 21 22  1  0
 21 23  2  0
 23 24  1  0
 23 25  1  0
 25 26  2  0
 26 27  1  0
 26 28  1  0
 28 29  1  0
 28 30  2  0
 30 31  1  0
 30 32  1  0
 32 33  1  0
 32 34  2  0
 34 35  1  0
 12  3  1  0
 34 25  1  0
M  CHG  1  13  -1
M  END
>  <UniqueID>  (32) 
29

>  <SMILES>  (32) 
O=C(/C=C/c1ccccc1)CC(=O)[N-]c1ccccc1O

>  <Energy>  (32) 
40.332862595568066

>  <Genealogy>  (32) 
O=C(C=Cc1ccccc1)CC(=O)[N-]c1ccccc1O (protonated)
O=C(/C=C/c1ccccc1)CC(=O)[N-]c1ccccc1O (cis-trans isomerization)
O=C(/C=C/c1ccccc1)CC(=O)[N-]c1ccccc1O (3D coordinates assigned)
O=C(/C=C/c1ccccc1)CC(=O)[N-]c1ccccc1O (optimized conformer: 40.332862595568066 kcal/mol)

>  <smiles>  (32) 
O=C(C=Cc1ccccc1)CC(=O)Nc1ccccc1O

>  <score_type>  (32) 
oracle

>  <origin>  (32) 
adg

>  <m_score__min__energy>  (32) 
-10.800000000000001

>  <m_primary>  (32) 
energy

$$$$
32:0
     RDKit          3D

 43 45  0  0  0  0  0  0  0  0999 V2000
   54.4590   24.8650   45.5820 C   0  0  0  0  0  0  0  0  0  0  0  0
   55.1540   25.9710   46.1490 O   0  0  0  0  0  0  0  0  0  0  0  0
   56.5430   26.1720   46.0580 C   0  0  0  0  0  0  0  0  0  0  0  0
   57.4710   25.1600   46.3820 C   0  0  0  0  0  0  0  0  0  0  0  0
   58.8450   25.3990   46.2770 C   0  0  0  0  0  0  0  0  0  0  0  0
   59.3060   26.6520   45.8720 C   0  0  0  0  0  0  0  0  0  0  0  0
   58.3940   27.6660   45.5580 C   0  0  0  0  0  0  0  0  0  0  0  0
   57.0110   27.4190   45.6180 C   0  0  0  0  0  0  0  0  0  0  0  0
   56.0590   28.4290   45.2530 N   0  0  0  0  0  0  0  0  0  0  0  0
   56.4350   29.8230   44.2750 S   0  0  0  0  0  0  0  0  0  0  0  0
   57.2360   29.3780   43.0750 O   0  0  0  0  0  0  0  0  0  0  0  0
   55.1460   30.4520   43.7970 O   0  0  0  0  0  0  0  0  0  0  0  0
   57.3880   31.0080   45.1700 C   0  0  0  0  0  0  0  0  0  0  0  0
   57.0700   32.3710   45.1150 C   0  0  0  0  0  0  0  0  0  0  0  0
   57.8100   33.2940   45.8560 C   0  0  0  0  0  0  0  0  0  0  0  0
   58.8670   32.8660   46.6760 C   0  0  0  0  0  0  0  0  0  0  0  0
   59.6380   33.8670   47.4900 C   0  0  0  0  0  0  0  0  0  0  0  0
   59.1790   31.4920   46.7540 C   0  0  0  0  0  0  0  0  0  0  0  0
   60.2620   31.0640   47.5960 N   0  0  0  0  0  0  0  0  0  0  0  0
   60.2030   30.7760   49.0000 C   0  0  0  0  0  0  0  0  0  0  0  0
   61.2180   30.9410   49.7270 O   0  0  0  0  0  0  0  0  0  0  0  0
   59.0150   30.2280   49.5890 N   0  0  0  0  0  0  0  0  0  0  0  0
   58.2990   30.7710   50.5260 C   0  0  0  0  0  0  0  0  0  0  0  0
   57.3940   30.1080   51.2780 N   0  0  0  0  0  0  0  0  0  0  0  0
   56.7820   30.9360   52.1670 C   0  0  0  0  0  0  0  0  0  0  0  0
   57.2020   32.2620   52.1250 C   0  0  0  0  0  0  0  0  0  0  0  0
   58.3790   32.3990   50.9300 S   0  0  0  0  0  0  0  0  0  0  0  0
   58.4540   30.5750   45.9700 C   0  0  0  0  0  0  0  0  0  0  0  0
   54.0603   24.2306   46.3873 H   0  0  0  0  0  0  0  0  0  0  0  0
   53.6294   25.2329   44.9603 H   0  0  0  0  0  0  0  0  0  0  0  0
   55.1504   24.2772   44.9603 H   0  0  0  0  0  0  0  0  0  0  0  0
   57.1116   24.1766   46.7194 H   0  0  0  0  0  0  0  0  0  0  0  0
   59.5621   24.5992   46.5137 H   0  0  0  0  0  0  0  0  0  0  0  0
   60.3869   26.8430   45.7995 H   0  0  0  0  0  0  0  0  0  0  0  0
   58.7605   28.6603   45.2630 H   0  0  0  0  0  0  0  0  0  0  0  0
   56.2353   32.7148   44.4865 H   0  0  0  0  0  0  0  0  0  0  0  0
   57.5635   34.3644   45.7973 H   0  0  0  0  0  0  0  0  0  0  0  0
   59.4834   33.6662   48.5604 H   0  0  0  0  0  0  0  0  0  0  0  0
   60.7090   33.7856   47.2527 H   0  0  0  0  0  0  0  0  0  0  0  0
   59.2859   34.8817   47.2527 H   0  0  0  0  0  0  0  0  0  0  0  0
   56.0113   30.5831   52.8680 H   0  0  0  0  0  0  0  0  0  0  0  0
   56.8297   33.0781   52.7617 H   0  0  0  0  0  0  0  0  0  0  0  0
   58.7265   29.5094   45.9854 H   0  0  0  0  0  0  0  0  0  0  0  0
  1  2  1  0
  2  3  1  0
  3  4  2  0
  4  5  1  0
  5  6  2  0
  6  7  1  0
  7  8  2  0
  8  9  1  0
  9 10  1  0
 10 11  2  0
 10 12  2  0
 10 13  1  0
 13 14  2  0
 14 15  1  0
 15 16  2  0
 16 17  1  0
 16 18  1  0
 18 19  1  0
 19 20  1  0
 20 21  2  0
 20 22  1  0
 22 23  2  3
 23 24  1  0
 24 25  1  0
 25 26  2  0
 26 27  1  0
 18 28  2  0
  8  3  1  0
 28 13  1  0
 27 23  1  0
  1 29  1  0
  1 30  1  0
  1 31  1  0
  4 32  1  0
  5 33  1  0
  6 34  1  0
  7 35  1  0
 14 36  1  0
 15 37  1  0
 17 38  1  0
 17 39  1  0
 17 40  1  0
 25 41  1  0
 26 42  1  0
 28 43  1  0
M  CHG  3   9  -1  19  -1  24  -1
M  END
>  <UniqueID>  (33) 
30

>  <SMILES>  (33) 
COc1ccccc1[N-]S(=O)(=O)c1ccc(C)c([N-]C(=O)N=c2[n-]ccs2)c1

>  <Energy>  (33) 
86.91544521977956

>  <Genealogy>  (33) 
COc1ccccc1[N-]S(=O)(=O)c1ccc(C)c([N-]C(=O)N=c2[n-]ccs2)c1 (protonated)
COc1ccccc1[N-]S(=O)(=O)c1ccc(C)c([N-]C(=O)N=c2[n-]ccs2)c1 (3D coordinates assigned)
COc1ccccc1[N-]S(=O)(=O)c1ccc(C)c([N-]C(=O)N=c2[n-]ccs2)c1 (optimized conformer: 86.91544521977956 kcal/mol)

>  <smiles>  (33) 
COc1ccccc1NS(=O)(=O)c1ccc(C)c(NC(=O)N=c2[nH]ccs2)c1

>  <score_type>  (33) 
oracle

>  <origin>  (33) 
adg

>  <m_score__min__energy>  (33) 
-12.77

>  <m_primary>  (33) 
energy

$$$$
33:0
     RDKit          3D

 51 54  0  0  0  0  0  0  0  0999 V2000
   62.9350   32.5430   47.8680 C   0  0  0  0  0  0  0  0  0  0  0  0
   61.7230   33.4020   47.6320 C   0  0  0  0  0  0  0  0  0  0  0  0
   61.4840   33.8620   46.3240 C   0  0  0  0  0  0  0  0  0  0  0  0
   60.3420   34.6030   46.0250 C   0  0  0  0  0  0  0  0  0  0  0  0
   59.4140   34.8860   47.0220 C   0  0  0  0  0  0  0  0  0  0  0  0
   59.6410   34.4560   48.3290 C   0  0  0  0  0  0  0  0  0  0  0  0
   60.8180   33.7610   48.6750 C   0  0  0  0  0  0  0  0  0  0  0  0
   60.9990   33.3400   50.0550 N   0  0  0  0  0  0  0  0  0  0  0  0
   59.8690   32.6040   50.6020 C   0  0  0  0  0  0  0  0  0  0  0  0
   59.1340   33.1950   51.6380 C   0  0  0  0  0  0  0  0  0  0  0  0
   58.0490   32.5300   52.1830 C   0  0  0  0  0  0  0  0  0  0  0  0
   57.3910   33.0820   53.1080 O   0  0  0  0  0  0  0  0  0  0  0  0
   57.7090   31.2890   51.7300 N   0  0  0  0  0  0  0  0  0  0  0  0
   56.5720   30.6070   52.3000 C   0  0  0  0  0  0  0  0  0  0  0  0
   56.7590   29.5070   53.1530 C   0  0  0  0  0  0  0  0  0  0  0  0
   55.6570   28.8480   53.7050 C   0  0  0  0  0  0  0  0  0  0  0  0
   54.3600   29.2840   53.4100 C   0  0  0  0  0  0  0  0  0  0  0  0
   52.9780   28.4560   54.1030 Cl  0  0  0  0  0  0  0  0  0  0  0  0
   54.1670   30.3790   52.5610 C   0  0  0  0  0  0  0  0  0  0  0  0
   55.2690   31.0390   52.0070 C   0  0  0  0  0  0  0  0  0  0  0  0
   58.4590   30.6810   50.7560 C   0  0  0  0  0  0  0  0  0  0  0  0
   58.1380   29.5200   50.3700 O   0  0  0  0  0  0  0  0  0  0  0  0
   59.5510   31.3170   50.2020 N   0  0  0  0  0  0  0  0  0  0  0  0
   60.4050   30.5690   49.2480 C   0  0  0  0  0  0  0  0  0  0  0  0
   59.7980   30.5160   47.8640 C   0  0  0  0  0  0  0  0  0  0  0  0
   58.7570   31.3860   47.4910 C   0  0  0  0  0  0  0  0  0  0  0  0
   58.2320   31.3430   46.1960 C   0  0  0  0  0  0  0  0  0  0  0  0
   58.7510   30.4490   45.2580 C   0  0  0  0  0  0  0  0  0  0  0  0
   59.8050   29.6030   45.6100 C   0  0  0  0  0  0  0  0  0  0  0  0
   60.3340   29.6420   46.9030 C   0  0  0  0  0  0  0  0  0  0  0  0
   63.0977   32.4277   48.9498 H   0  0  0  0  0  0  0  0  0  0  0  0
   62.7775   31.5538   47.4134 H   0  0  0  0  0  0  0  0  0  0  0  0
   63.8162   33.0193   47.4134 H   0  0  0  0  0  0  0  0  0  0  0  0
   62.2075   33.6340   45.5274 H   0  0  0  0  0  0  0  0  0  0  0  0
   60.1743   34.9644   44.9997 H   0  0  0  0  0  0  0  0  0  0  0  0
   58.5008   35.4492   46.7793 H   0  0  0  0  0  0  0  0  0  0  0  0
   58.8883   34.6627   49.1040 H   0  0  0  0  0  0  0  0  0  0  0  0
   61.1930   34.2000   50.6160 H   0  0  0  0  0  0  0  0  0  0  0  0
   61.8510   32.7470   50.1600 H   0  0  0  0  0  0  0  0  0  0  0  0
   59.4189   34.1871   52.0182 H   0  0  0  0  0  0  0  0  0  0  0  0
   57.7770   29.1627   53.3876 H   0  0  0  0  0  0  0  0  0  0  0  0
   55.8090   27.9863   54.3716 H   0  0  0  0  0  0  0  0  0  0  0  0
   53.1477   30.7213   52.3288 H   0  0  0  0  0  0  0  0  0  0  0  0
   55.1139   31.8994   51.3395 H   0  0  0  0  0  0  0  0  0  0  0  0
   61.3858   31.0633   49.1867 H   0  0  0  0  0  0  0  0  0  0  0  0
   60.5013   29.5369   49.6160 H   0  0  0  0  0  0  0  0  0  0  0  0
   58.3545   32.1031   48.2215 H   0  0  0  0  0  0  0  0  0  0  0  0
   57.4078   32.0154   45.9155 H   0  0  0  0  0  0  0  0  0  0  0  0
   58.3302   30.4108   44.2424 H   0  0  0  0  0  0  0  0  0  0  0  0
   60.2196   28.9046   44.8681 H   0  0  0  0  0  0  0  0  0  0  0  0
   61.1747   28.9848   47.1700 H   0  0  0  0  0  0  0  0  0  0  0  0
  1  2  1  0
  2  3  2  0
  3  4  1  0
  4  5  2  0
  5  6  1  0
  6  7  2  0
  7  8  1  0
  8  9  1  0
  9 10  2  0
 10 11  1  0
 11 12  2  0
 11 13  1  0
 13 14  1  0
 14 15  2  0
 15 16  1  0
 16 17  2  0
 17 18  1  0
 17 19  1  0
 19 20  2  0
 13 21  1  0
 21 22  2  0
 21 23  1  0
 23 24  1  0
 24 25  1  0
 25 26  2  0
 26 27  1  0
 27 28  2  0
 28 29  1  0
 29 30  2  0
  7  2  1  0
 23  9  1  0
 30 25  1  0
 20 14  1  0
  1 31  1  0
  1 32  1  0
  1 33  1  0
  3 34  1  0
  4 35  1  0
  5 36  1  0
  6 37  1  0
  8 38  1  0
  8 39  1  0
 10 40  1  0
 15 41  1  0
 16 42  1  0
 19 43  1  0
 20 44  1  0
 24 45  1  0
 24 46  1  0
 26 47  1  0
 27 48  1  0
 28 49  1  0
 29 50  1  0
 30 51  1  0
M  CHG  1   8   1
M  END
>  <UniqueID>  (34) 
31

>  <SMILES>  (34) 
Cc1ccccc1[NH2+]c1cc(=O)n(-c2ccc(Cl)cc2)c(=O)n1Cc1ccccc1

>  <Energy>  (34) 
79.11283061947805

>  <Genealogy>  (34) 
Cc1ccccc1[NH2+]c1cc(=O)n(-c2ccc(Cl)cc2)c(=O)n1Cc1ccccc1 (protonated)
Cc1ccccc1[NH2+]c1cc(=O)n(-c2ccc(Cl)cc2)c(=O)n1Cc1ccccc1 (3D coordinates assigned)
Cc1ccccc1[NH2+]c1cc(=O)n(-c2ccc(Cl)cc2)c(=O)n1Cc1ccccc1 (optimized conformer: 79.11283061947805 kcal/mol)

>  <smiles>  (34) 
Cc1ccccc1Nc1cc(=O)n(-c2ccc(Cl)cc2)c(=O)n1Cc1ccccc1

>  <score_type>  (34) 
oracle

>  <origin>  (34) 
adg

>  <m_score__min__energy>  (34) 
-6.8600000000000003

>  <m_primary>  (34) 
energy

$$$$
34:0
     RDKit          3D

 44 45  0  0  0  0  0  0  0  0999 V2000
   58.0846   31.6567   47.5712 H   0  0  0  0  0  0  0  0  0  0  0  0
   58.4780   31.2360   46.6340 C   0  0  0  0  0  0  0  0  0  0  0  0
   59.0120   32.0850   45.7480 C   0  0  0  0  0  0  0  0  0  0  0  0
   59.7808   31.6856   45.0702 H   0  0  0  0  0  0  0  0  0  0  0  0
   58.5890   33.7940   45.5720 S   0  0  0  0  0  0  0  0  0  0  0  0
   57.1700   34.0800   45.9690 O   0  0  0  0  0  0  0  0  0  0  0  0
   58.7750   34.1910   44.1350 O   0  0  0  0  0  0  0  0  0  0  0  0
   59.6740   34.7700   46.6000 C   0  0  0  0  0  0  0  0  0  0  0  0
   59.1284   35.6517   46.9674 H   0  0  0  0  0  0  0  0  0  0  0  0
   60.5431   35.0834   46.0029 H   0  0  0  0  0  0  0  0  0  0  0  0
   60.1570   33.9600   47.7760 C   0  0  0  0  0  0  0  0  0  0  0  0
   59.2850   33.7230   48.8540 C   0  0  0  0  0  0  0  0  0  0  0  0
   58.2566   34.1119   48.8209 H   0  0  0  0  0  0  0  0  0  0  0  0
   59.7170   32.9970   49.9660 C   0  0  0  0  0  0  0  0  0  0  0  0
   58.5260   32.6910   51.4270 Br  0  0  0  0  0  0  0  0  0  0  0  0
   61.0200   32.5030   50.0140 C   0  0  0  0  0  0  0  0  0  0  0  0
   61.3524   31.9157   50.8827 H   0  0  0  0  0  0  0  0  0  0  0  0
   61.9040   32.7520   48.9620 C   0  0  0  0  0  0  0  0  0  0  0  0
   62.9348   32.3714   49.0131 H   0  0  0  0  0  0  0  0  0  0  0  0
   61.4850   33.4870   47.8360 C   0  0  0  0  0  0  0  0  0  0  0  0
   62.3560   33.7650   46.7700 O   0  0  0  0  0  0  0  0  0  0  0  0
   63.7370   33.4200   46.7450 C   0  0  0  0  0  0  0  0  0  0  0  0
   64.1103   33.3267   47.7755 H   0  0  0  0  0  0  0  0  0  0  0  0
   63.8662   32.4620   46.2201 H   0  0  0  0  0  0  0  0  0  0  0  0
   64.3015   34.2047   46.2201 H   0  0  0  0  0  0  0  0  0  0  0  0
   58.3790   29.7760   46.4440 C   0  0  0  0  0  0  0  0  0  0  0  0
   57.4130   29.2570   45.5610 C   0  0  0  0  0  0  0  0  0  0  0  0
   56.5750   30.1510   44.8700 O   0  0  0  0  0  0  0  0  0  0  0  0
   56.6850   30.4470   43.4820 C   0  0  0  0  0  0  0  0  0  0  0  0
   57.0656   31.4712   43.3545 H   0  0  0  0  0  0  0  0  0  0  0  0
   57.3791   29.7364   43.0094 H   0  0  0  0  0  0  0  0  0  0  0  0
   55.6953   30.3622   43.0094 H   0  0  0  0  0  0  0  0  0  0  0  0
   57.3090   27.8650   45.3930 C   0  0  0  0  0  0  0  0  0  0  0  0
   56.5687   27.4521   44.6919 H   0  0  0  0  0  0  0  0  0  0  0  0
   58.1400   27.0050   46.1110 C   0  0  0  0  0  0  0  0  0  0  0  0
   58.0581   25.9176   45.9666 H   0  0  0  0  0  0  0  0  0  0  0  0
   59.0740   27.5170   47.0110 C   0  0  0  0  0  0  0  0  0  0  0  0
   59.7182   26.8307   47.5803 H   0  0  0  0  0  0  0  0  0  0  0  0
   59.1970   28.9060   47.1950 C   0  0  0  0  0  0  0  0  0  0  0  0
   60.1140   29.4550   48.1060 O   0  0  0  0  0  0  0  0  0  0  0  0
   60.2650   29.0320   49.4570 C   0  0  0  0  0  0  0  0  0  0  0  0
   59.9730   29.8499   50.1321 H   0  0  0  0  0  0  0  0  0  0  0  0
   59.6235   28.1577   49.6414 H   0  0  0  0  0  0  0  0  0  0  0  0
   61.3152   28.7616   49.6414 H   0  0  0  0  0  0  0  0  0  0  0  0
  1  2  1  0
  2  3  2  0
  3  4  1  0
  3  5  1  0
  5  6  2  0
  5  7  2  0
  5  8  1  0
  8  9  1  0
  8 10  1  0
  8 11  1  0
 11 12  2  0
 12 13  1  0
 12 14  1  0
 14 15  1  0
 14 16  2  0
 16 17  1  0
 16 18  1  0
 18 19  1  0
 18 20  2  0
 20 21  1  0
 21 22  1  0
 22 23  1  0
 22 24  1  0
 22 25  1  0
  2 26  1  0
 26 27  2  0
 27 28  1  0
 28 29  1  0
 29 30  1  0
 29 31  1  0
 29 32  1  0
 27 33  1  0
 33 34  1  0
 33 35  2  0
 35 36  1  0
 35 37  1  0
 37 38  1  0
 37 39  2  0
 39 40  1  0
 40 41  1  0
 41 42  1  0
 41 43  1  0
 41 44  1  0
 20 11  1  0
 39 26  1  0
M  END
>  <UniqueID>  (35) 
32

>  <SMILES>  (35) 
COc1ccc(Br)cc1CS(=O)(=O)/C=C\c1c(OC)cccc1OC

>  <Energy>  (35) 
44.77039366663882

>  <Genealogy>  (35) 
COc1ccc(Br)cc1CS(=O)(=O)/C=C\c1c(OC)cccc1OC (cis-trans isomerization)
COc1ccc(Br)cc1CS(=O)(=O)/C=C\c1c(OC)cccc1OC (3D coordinates assigned)
COc1ccc(Br)cc1CS(=O)(=O)/C=C\c1c(OC)cccc1OC (optimized conformer: 44.77039366663882 kcal/mol)

>  <smiles>  (35) 
COc1ccc(Br)cc1CS(=O)(=O)C=Cc1c(OC)cccc1OC

>  <score_type>  (35) 
oracle

>  <origin>  (35) 
adg

>  <m_score__min__energy>  (35) 
-7.29

>  <m_primary>  (35) 
energy

$$$$
35:0
     RDKit          3D

 67 70  0  0  1  0  0  0  0  0999 V2000
   57.7820   26.1820   43.6310 C   0  0  0  0  0  0  0  0  0  0  0  0
   57.9050   25.9730   45.1320 C   0  0  0  0  0  0  0  0  0  0  0  0
   57.6100   24.5430   45.4350 C   0  0  0  0  0  0  0  0  0  0  0  0
   56.9710   27.1640   45.9970 S   0  0  0  0  0  0  0  0  0  0  0  0
   55.5100   26.7480   45.9860 O   0  0  0  0  0  0  0  0  0  0  0  0
   57.4240   27.2400   47.4390 O   0  0  0  0  0  0  0  0  0  0  0  0
   57.0680   28.7350   45.2760 C   0  0  0  0  0  0  0  0  0  0  0  0
   55.9540   29.2030   44.5860 C   0  0  0  0  0  0  0  0  0  0  0  0
   55.9190   30.4560   44.0010 C   0  0  0  0  0  0  0  0  0  0  0  0
   57.1530   30.9010   53.0010 C   0  0  0  0  0  0  0  0  0  0  0  0
   57.4170   30.8300   51.6660 C   0  0  0  0  0  0  0  0  0  0  0  0
   58.1280   31.8740   51.0970 C   0  0  0  0  0  0  0  0  0  0  0  0
   59.3370   29.2000   45.9910 N   0  0  0  0  0  0  0  0  0  0  0  0
   59.3990   29.3770   47.2860 C   0  0  0  0  0  0  0  0  0  0  0  0
   58.8880   30.4890   47.8560 N   0  0  0  0  0  0  0  0  0  0  0  0
   58.9340   30.7040   49.1930 C   0  0  0  0  0  0  0  0  0  0  0  0
   58.4190   31.8050   49.6840 N   0  0  0  0  0  0  0  0  0  0  0  0
   58.1370   29.5780   45.3480 C   0  0  0  0  0  0  0  0  0  0  0  0
   58.1240   30.8480   44.7650 C   0  0  0  0  0  0  0  0  0  0  0  0
   57.0070   31.2800   44.0910 C   0  0  0  0  0  0  0  0  0  0  0  0
   57.5710   31.9710   53.7950 C   0  0  0  0  0  0  0  0  0  0  0  0
   58.2820   33.0110   53.2170 C   0  0  0  0  0  0  0  0  0  0  0  0
   58.5600   32.9590   51.8590 C   0  0  0  0  0  0  0  0  0  0  0  0
   59.2900   33.9970   51.2180 N   0  0  0  0  0  0  0  0  0  0  0  0
   60.3580   33.7590   50.3110 C   0  0  0  0  0  0  0  0  0  0  0  0
   61.6100   33.4000   50.7490 C   0  0  0  0  0  0  0  0  0  0  0  0
   62.6740   33.1650   49.8830 C   0  0  0  0  0  0  0  0  0  0  0  0
   62.4800   33.2960   48.5200 C   0  0  0  0  0  0  0  0  0  0  0  0
   61.2350   33.6560   48.0480 C   0  0  0  0  0  0  0  0  0  0  0  0
   60.9840   33.8100   46.5700 C   0  0  0  0  0  0  0  0  0  0  0  0
   59.2580   34.0720   46.2520 S   0  0  0  0  0  0  0  0  0  0  0  0
   58.9400   34.2120   44.5050 C   0  0  0  0  0  0  0  0  0  0  0  0
   58.4070   33.0080   46.8440 O   0  0  0  0  0  0  0  0  0  0  0  0
   58.9010   35.3840   46.8810 O   0  0  0  0  0  0  0  0  0  0  0  0
   60.1850   33.8840   48.9430 C   0  0  0  0  0  0  0  0  0  0  0  0
   59.4930   29.8210   50.0410 N   0  0  0  0  0  0  0  0  0  0  0  0
   60.0200   28.6850   49.5010 C   0  0  0  0  0  0  0  0  0  0  0  0
   59.9770   28.4570   48.1320 C   0  0  0  0  0  0  0  0  0  0  0  0
   60.6670   26.9770   47.5090 Cl  0  0  0  0  0  0  0  0  0  0  0  0
   57.2331   27.1148   43.4344 H   0  0  0  0  0  0  0  0  0  0  0  0
   58.7860   26.2468   43.1863 H   0  0  0  0  0  0  0  0  0  0  0  0
   57.2379   25.3357   43.1863 H   0  0  0  0  0  0  0  0  0  0  0  0
   58.9291   26.1469   45.4939 H   0  0  0  0  0  0  0  0  0  0  0  0
   57.5800   24.3978   46.5250 H   0  0  0  0  0  0  0  0  0  0  0  0
   56.6366   24.2697   45.0018 H   0  0  0  0  0  0  0  0  0  0  0  0
   58.3958   23.9067   45.0018 H   0  0  0  0  0  0  0  0  0  0  0  0
   55.0700   28.5537   44.5028 H   0  0  0  0  0  0  0  0  0  0  0  0
   55.0182   30.7890   43.4646 H   0  0  0  0  0  0  0  0  0  0  0  0
   56.5882   30.0829   53.4719 H   0  0  0  0  0  0  0  0  0  0  0  0
   57.0780   29.9752   51.0624 H   0  0  0  0  0  0  0  0  0  0  0  0
   58.4350   31.2310   47.2800 H   0  0  0  0  0  0  0  0  0  0  0  0
   59.0059   31.5005   44.8454 H   0  0  0  0  0  0  0  0  0  0  0  0
   56.9881   32.2780   43.6287 H   0  0  0  0  0  0  0  0  0  0  0  0
   57.3380   31.9884   54.8699 H   0  0  0  0  0  0  0  0  0  0  0  0
   58.6201   33.8632   53.8249 H   0  0  0  0  0  0  0  0  0  0  0  0
   59.0280   34.9820   51.4230 H   0  0  0  0  0  0  0  0  0  0  0  0
   61.7786   33.2938   51.8308 H   0  0  0  0  0  0  0  0  0  0  0  0
   63.6594   32.8779   50.2788 H   0  0  0  0  0  0  0  0  0  0  0  0
   63.3092   33.1151   47.8202 H   0  0  0  0  0  0  0  0  0  0  0  0
   61.5554   34.6716   46.1944 H   0  0  0  0  0  0  0  0  0  0  0  0
   61.3024   32.8894   46.0590 H   0  0  0  0  0  0  0  0  0  0  0  0
   57.9436   34.6507   44.3477 H   0  0  0  0  0  0  0  0  0  0  0  0
   59.7019   34.8579   44.0442 H   0  0  0  0  0  0  0  0  0  0  0  0
   58.9781   33.2139   44.0442 H   0  0  0  0  0  0  0  0  0  0  0  0
   59.1978   34.1695   48.5507 H   0  0  0  0  0  0  0  0  0  0  0  0
   59.5420   29.9600   51.0770 H   0  0  0  0  0  0  0  0  0  0  0  0
   60.4863   27.9379   50.1601 H   0  0  0  0  0  0  0  0  0  0  0  0
  1  2  1  0
  2  3  1  0
  2  4  1  0
  4  5  2  0
  4  6  2  0
  4  7  1  0
  7  8  2  0
  8  9  1  0
  9 10  2  0
 10 11  1  0
 11 12  2  0
 12 13  1  0
 13 14  2  0
 14 15  1  0
 15 16  1  0
 16 17  2  0
 17 18  1  0
 18 19  2  0
 19 20  1  0
 20 21  2  0
 21 22  1  0
 22 23  2  0
 23 24  1  0
 24 25  1  0
 25 26  2  0
 26 27  1  0
 27 28  2  0
 28 29  1  0
 29 30  1  0
 30 31  1  0
 31 32  1  0
 31 33  2  0
 31 34  2  0
 29 35  2  0
 16 36  1  0
 36 37  1  0
 37 38  2  0
 38 39  1  0
 12  7  1  0
 38 14  1  0
 23 18  1  0
 35 25  1  0
  1 40  1  0
  1 41  1  0
  1 42  1  0
  2 43  1  0
  3 44  1  0
  3 45  1  0
  3 46  1  0
  8 47  1  0
  9 48  1  0
 10 49  1  0
 11 50  1  0
 15 51  1  0
 19 52  1  0
 20 53  1  0
 21 54  1  0
 22 55  1  0
 24 56  1  0
 26 57  1  0
 27 58  1  0
 28 59  1  0
 30 60  1  0
 30 61  1  0
 32 62  1  0
 32 63  1  0
 32 64  1  0
 35 65  1  0
 36 66  1  0
 37 67  1  0
M  END
>  <smiles>  (36) 
CC(C)S(=O)(=O)c1ccccc1N=c1[nH]c(=Nc2ccccc2Nc2cccc(CS(C)(=O)=O)c2)[nH]cc1Cl

>  <score_type>  (36) 
oracle

>  <origin>  (36) 
adg

>  <m_score__min__energy>  (36) 
-10.130000000000001

>  <m_primary>  (36) 
energy

$$$$
36:0
     RDKit          3D

 50 54  0  0  0  0  0  0  0  0999 V2000
   64.0120   33.7850   50.3190 C   0  0  0  0  0  0  0  0  0  0  0  0
   62.6340   34.0020   50.2960 C   0  0  0  0  0  0  0  0  0  0  0  0
   61.8100   33.1970   49.5020 C   0  0  0  0  0  0  0  0  0  0  0  0
   62.3590   32.1630   48.7200 C   0  0  0  0  0  0  0  0  0  0  0  0
   61.4700   31.3190   47.8830 C   0  0  0  0  0  0  0  0  0  0  0  0
   61.9170   30.5760   46.8380 N   0  0  0  0  0  0  0  0  0  0  0  0
   60.8430   29.9780   46.3570 N   0  0  0  0  0  0  0  0  0  0  0  0
   60.7760   29.1280   45.3050 C   0  0  0  0  0  0  0  0  0  0  0  0
   59.5230   28.6010   44.9590 C   0  0  0  0  0  0  0  0  0  0  0  0
   58.3740   28.9640   45.7140 C   0  0  0  0  0  0  0  0  0  0  0  0
   57.0930   28.4660   45.4240 O   0  0  0  0  0  0  0  0  0  0  0  0
   56.1550   29.0720   44.5340 C   0  0  0  0  0  0  0  0  0  0  0  0
   56.6760   30.3830   44.0290 C   0  0  0  0  0  0  0  0  0  0  0  0
   56.9410   30.6250   42.6840 C   0  0  0  0  0  0  0  0  0  0  0  0
   57.5090   32.2010   42.5500 S   0  0  0  0  0  0  0  0  0  0  0  0
   57.3940   32.5050   44.2030 C   0  0  0  0  0  0  0  0  0  0  0  0
   57.7390   33.8040   44.8840 C   0  0  0  0  0  0  0  0  0  0  0  0
   57.2350   33.8330   46.3480 C   0  0  0  0  0  0  0  0  0  0  0  0
   58.3740   33.5710   47.3430 C   0  0  0  0  0  0  0  0  0  0  0  0
   59.4500   34.5740   47.2330 N   0  0  0  0  0  0  0  0  0  0  0  0
   59.6930   35.0750   45.8640 C   0  0  0  0  0  0  0  0  0  0  0  0
   59.2540   34.0810   44.7810 C   0  0  0  0  0  0  0  0  0  0  0  0
   56.9210   31.4280   44.8650 N   0  0  0  0  0  0  0  0  0  0  0  0
   58.5080   29.8550   46.7940 C   0  0  0  0  0  0  0  0  0  0  0  0
   59.7810   30.3400   47.0810 C   0  0  0  0  0  0  0  0  0  0  0  0
   60.1270   31.1900   48.0610 N   0  0  0  0  0  0  0  0  0  0  0  0
   63.7520   31.9550   48.7530 C   0  0  0  0  0  0  0  0  0  0  0  0
   64.5700   32.7630   49.5480 C   0  0  0  0  0  0  0  0  0  0  0  0
   64.6585   34.4185   50.9440 H   0  0  0  0  0  0  0  0  0  0  0  0
   62.1947   34.8073   50.9031 H   0  0  0  0  0  0  0  0  0  0  0  0
   60.7243   33.3734   49.4886 H   0  0  0  0  0  0  0  0  0  0  0  0
   61.6790   28.8583   44.7376 H   0  0  0  0  0  0  0  0  0  0  0  0
   59.4297   27.9104   44.1079 H   0  0  0  0  0  0  0  0  0  0  0  0
   55.9803   28.3999   43.6809 H   0  0  0  0  0  0  0  0  0  0  0  0
   55.2154   29.2502   45.0776 H   0  0  0  0  0  0  0  0  0  0  0  0
   56.8033   29.9126   41.8573 H   0  0  0  0  0  0  0  0  0  0  0  0
   57.2155   34.6179   44.3610 H   0  0  0  0  0  0  0  0  0  0  0  0
   56.7995   34.8215   46.5561 H   0  0  0  0  0  0  0  0  0  0  0  0
   56.4832   33.0392   46.4688 H   0  0  0  0  0  0  0  0  0  0  0  0
   57.9661   33.5992   48.3642 H   0  0  0  0  0  0  0  0  0  0  0  0
   58.8051   32.5857   47.1119 H   0  0  0  0  0  0  0  0  0  0  0  0
   60.3320   34.1370   47.5900 H   0  0  0  0  0  0  0  0  0  0  0  0
   59.1337   36.0124   45.7283 H   0  0  0  0  0  0  0  0  0  0  0  0
   60.7769   35.2272   45.7544 H   0  0  0  0  0  0  0  0  0  0  0  0
   59.4784   34.5027   43.7901 H   0  0  0  0  0  0  0  0  0  0  0  0
   59.7990   33.1361   44.9231 H   0  0  0  0  0  0  0  0  0  0  0  0
   57.6360   30.1585   47.3919 H   0  0  0  0  0  0  0  0  0  0  0  0
   59.5010   31.6280   48.7700 H   0  0  0  0  0  0  0  0  0  0  0  0
   64.1989   31.1515   48.1492 H   0  0  0  0  0  0  0  0  0  0  0  0
   65.6567   32.5933   49.5664 H   0  0  0  0  0  0  0  0  0  0  0  0
  1  2  2  0
  2  3  1  0
  3  4  2  0
  4  5  1  0
  5  6  2  0
  6  7  1  0
  7  8  1  0
  8  9  2  0
  9 10  1  0
 10 11  1  0
 11 12  1  0
 12 13  1  0
 13 14  2  0
 14 15  1  0
 15 16  1  0
 16 17  1  0
 17 18  1  0
 18 19  1  0
 19 20  1  0
 20 21  1  0
 21 22  1  0
 16 23  2  0
 10 24  2  0
 24 25  1  0
 25 26  2  0
  4 27  1  0
 27 28  2  0
 28  1  1  0
 26  5  1  0
 25  7  1  0
 23 13  1  0
 22 17  1  0
  1 29  1  0
  2 30  1  0
  3 31  1  0
  8 32  1  0
  9 33  1  0
 12 34  1  0
 12 35  1  0
 14 36  1  0
 17 37  1  0
 18 38  1  0
 18 39  1  0
 19 40  1  0
 19 41  1  0
 20 42  1  0
 21 43  1  0
 21 44  1  0
 22 45  1  0
 22 46  1  0
 24 47  1  0
 26 48  1  0
 27 49  1  0
 28 50  1  0
M  CHG  1  26   1
M  END
>  <UniqueID>  (37) 
33

>  <SMILES>  (37) 
c1ccc(-c2nn3ccc(OCc4csc(C5CCNCC5)n4)cc3[nH+]2)cc1

>  <Energy>  (37) 
130.35821480779862

>  <Genealogy>  (37) 
c1ccc(-c2nn3ccc(OCc4csc(C5CCNCC5)n4)cc3[nH+]2)cc1 (protonated)
c1ccc(-c2nn3ccc(OCc4csc(C5CCNCC5)n4)cc3[nH+]2)cc1 (3D coordinates assigned)
c1ccc(-c2nn3ccc(OCc4csc(C5CCNCC5)n4)cc3[nH+]2)cc1 (nonaromatic ring conformer: 130.35821480779862 kcal/mol)

>  <smiles>  (37) 
c1ccc(-c2nc3cc(OCc4csc(C5CCNCC5)n4)ccn3n2)cc1

>  <score_type>  (37) 
oracle

>  <origin>  (37) 
adg

>  <m_score__min__energy>  (37) 
-7.7199999999999998

>  <m_primary>  (37) 
energy

$$$$
37:0
     RDKit          3D

 72 75  0  0  0  0  0  0  0  0999 V2000
   60.7390   28.3050   49.5180 C   0  0  0  0  0  0  0  0  0  0  0  0
   60.2540   29.2420   48.5610 O   0  0  0  0  0  0  0  0  0  0  0  0
   59.5140   28.9010   47.4150 C   0  0  0  0  0  0  0  0  0  0  0  0
   58.2430   28.2980   47.5070 C   0  0  0  0  0  0  0  0  0  0  0  0
   57.5170   27.9950   46.3510 C   0  0  0  0  0  0  0  0  0  0  0  0
   58.0490   28.2820   45.0940 C   0  0  0  0  0  0  0  0  0  0  0  0
   59.3130   28.8660   44.9870 C   0  0  0  0  0  0  0  0  0  0  0  0
   60.0560   29.1720   46.1390 C   0  0  0  0  0  0  0  0  0  0  0  0
   61.3940   29.8510   45.9960 C   0  0  0  0  0  0  0  0  0  0  0  0
   61.5700   30.8290   47.0770 N   0  0  0  0  0  0  0  0  0  0  0  0
   62.9600   31.2980   47.1530 C   0  0  0  0  0  0  0  0  0  0  0  0
   63.0370   32.6100   47.8910 C   0  0  0  0  0  0  0  0  0  0  0  0
   63.5740   33.5840   47.2980 O   0  0  0  0  0  0  0  0  0  0  0  0
   62.5550   32.7680   49.2520 N   0  0  0  0  0  0  0  0  0  0  0  0
   62.9560   31.7540   50.2510 C   0  0  0  0  0  0  0  0  0  0  0  0
   64.4810   31.6160   50.3600 C   0  0  0  0  0  0  0  0  0  0  0  0
   65.1200   32.9420   50.1910 N   0  0  0  0  0  0  0  0  0  0  0  0
   64.7320   33.8550   51.2760 C   0  0  0  0  0  0  0  0  0  0  0  0
   66.5870   32.8210   50.1430 C   0  0  0  0  0  0  0  0  0  0  0  0
   61.4250   33.6860   49.5440 C   0  0  2  0  0  0  0  0  0  0  0  0
   60.8530   33.4820   50.9720 C   0  0  0  0  0  0  0  0  0  0  0  0
   59.6510   32.5660   51.0440 C   0  0  0  0  0  0  0  0  0  0  0  0
   58.4140   33.0800   51.4750 C   0  0  0  0  0  0  0  0  0  0  0  0
   57.3060   32.2420   51.6190 C   0  0  0  0  0  0  0  0  0  0  0  0
   57.4270   30.8740   51.3690 C   0  0  0  0  0  0  0  0  0  0  0  0
   58.6590   30.3420   50.9850 C   0  0  0  0  0  0  0  0  0  0  0  0
   59.7690   31.1790   50.8250 C   0  0  0  0  0  0  0  0  0  0  0  0
   60.3370   33.5580   48.4950 C   0  0  0  0  0  0  0  0  0  0  0  0
   59.8510   34.6090   47.7120 C   0  0  0  0  0  0  0  0  0  0  0  0
   58.9680   34.0260   46.8310 C   0  0  0  0  0  0  0  0  0  0  0  0
   58.1940   34.5880   45.8180 C   0  0  0  0  0  0  0  0  0  0  0  0
   57.3860   33.7250   45.0530 C   0  0  0  0  0  0  0  0  0  0  0  0
   57.3770   32.3350   45.3150 C   0  0  0  0  0  0  0  0  0  0  0  0
   58.1770   31.7990   46.3420 C   0  0  0  0  0  0  0  0  0  0  0  0
   58.9610   32.6810   47.0840 C   0  0  0  0  0  0  0  0  0  0  0  0
   59.7990   32.3780   48.0880 N   0  0  0  0  0  0  0  0  0  0  0  0
   60.5436   28.6826   50.5325 H   0  0  0  0  0  0  0  0  0  0  0  0
   60.2264   27.3416   49.3803 H   0  0  0  0  0  0  0  0  0  0  0  0
   61.8216   28.1673   49.3803 H   0  0  0  0  0  0  0  0  0  0  0  0
   57.8195   28.0643   48.4949 H   0  0  0  0  0  0  0  0  0  0  0  0
   56.5239   27.5292   46.4331 H   0  0  0  0  0  0  0  0  0  0  0  0
   57.4727   28.0483   44.1867 H   0  0  0  0  0  0  0  0  0  0  0  0
   59.7297   29.0879   43.9935 H   0  0  0  0  0  0  0  0  0  0  0  0
   62.1940   29.0979   46.0502 H   0  0  0  0  0  0  0  0  0  0  0  0
   61.4387   30.3678   45.0260 H   0  0  0  0  0  0  0  0  0  0  0  0
   61.3480   30.3510   47.9800 H   0  0  0  0  0  0  0  0  0  0  0  0
   63.5660   30.5487   47.6834 H   0  0  0  0  0  0  0  0  0  0  0  0
   63.3422   31.4424   46.1317 H   0  0  0  0  0  0  0  0  0  0  0  0
   62.5561   32.0471   51.2329 H   0  0  0  0  0  0  0  0  0  0  0  0
   62.5523   30.7835   49.9267 H   0  0  0  0  0  0  0  0  0  0  0  0
   64.7408   31.2091   51.3484 H   0  0  0  0  0  0  0  0  0  0  0  0
   64.8407   30.9373   49.5726 H   0  0  0  0  0  0  0  0  0  0  0  0
   64.9346   33.3783   52.2464 H   0  0  0  0  0  0  0  0  0  0  0  0
   65.3121   34.7862   51.1967 H   0  0  0  0  0  0  0  0  0  0  0  0
   63.6590   34.0836   51.1967 H   0  0  0  0  0  0  0  0  0  0  0  0
   66.9859   32.7881   51.1676 H   0  0  0  0  0  0  0  0  0  0  0  0
   66.8616   31.8972   49.6128 H   0  0  0  0  0  0  0  0  0  0  0  0
   67.0092   33.6874   49.6128 H   0  0  0  0  0  0  0  0  0  0  0  0
   61.8240   34.7103   49.5047 H   0  0  0  0  0  0  0  0  0  0  0  0
   61.6475   33.0557   51.6022 H   0  0  0  0  0  0  0  0  0  0  0  0
   60.5131   34.4701   51.3158 H   0  0  0  0  0  0  0  0  0  0  0  0
   58.3187   34.1524   51.7007 H   0  0  0  0  0  0  0  0  0  0  0  0
   56.3372   32.6603   51.9297 H   0  0  0  0  0  0  0  0  0  0  0  0
   56.5521   30.2157   51.4745 H   0  0  0  0  0  0  0  0  0  0  0  0
   58.7577   29.2609   50.8075 H   0  0  0  0  0  0  0  0  0  0  0  0
   60.7380   30.7523   50.5269 H   0  0  0  0  0  0  0  0  0  0  0  0
   60.1170   35.6739   47.7842 H   0  0  0  0  0  0  0  0  0  0  0  0
   58.2134   35.6703   45.6222 H   0  0  0  0  0  0  0  0  0  0  0  0
   56.7585   34.1340   44.2474 H   0  0  0  0  0  0  0  0  0  0  0  0
   56.7413   31.6691   44.7129 H   0  0  0  0  0  0  0  0  0  0  0  0
   58.1832   30.7193   46.5521 H   0  0  0  0  0  0  0  0  0  0  0  0
   60.0040   31.4210   48.4510 H   0  0  0  0  0  0  0  0  0  0  0  0
  1  2  1  0
  2  3  1  0
  3  4  2  0
  4  5  1  0
  5  6  2  0
  6  7  1  0
  7  8  2  0
  8  9  1  0
  9 10  1  0
 10 11  1  0
 11 12  1  0
 12 13  2  0
 12 14  1  0
 14 15  1  0
 15 16  1  0
 16 17  1  0
 17 18  1  0
 17 19  1  0
 14 20  1  0
 20 21  1  0
 21 22  1  0
 22 23  2  0
 23 24  1  0
 24 25  2  0
 25 26  1  0
 26 27  2  0
 20 28  1  0
 28 29  2  0
 29 30  1  0
 30 31  2  0
 31 32  1  0
 32 33  2  0
 33 34  1  0
 34 35  2  0
 35 36  1  0
  8  3  1  0
 27 22  1  0
 36 28  1  0
 35 30  1  0
  1 37  1  0
  1 38  1  0
  1 39  1  0
  4 40  1  0
  5 41  1  0
  6 42  1  0
  7 43  1  0
  9 44  1  0
  9 45  1  0
 10 46  1  0
 11 47  1  0
 11 48  1  0
 15 49  1  0
 15 50  1  0
 16 51  1  0
 16 52  1  0
 18 53  1  0
 18 54  1  0
 18 55  1  0
 19 56  1  0
 19 57  1  0
 19 58  1  0
 20 59  1  1
 21 60  1  0
 21 61  1  0
 23 62  1  0
 24 63  1  0
 25 64  1  0
 26 65  1  0
 27 66  1  0
 29 67  1  0
 31 68  1  0
 32 69  1  0
 33 70  1  0
 34 71  1  0
 36 72  1  0
M  END
>  <UniqueID>  (38) 
34

>  <SMILES>  (38) 
COc1ccccc1CNCC(=O)N(CCN(C)C)[C@H](Cc1ccccc1)c1cc2ccccc2[nH]1

>  <Energy>  (38) 
105.03170093415284

>  <Genealogy>  (38) 
COc1ccccc1CNCC(=O)N(CCN(C)C)[C@H](Cc1ccccc1)c1cc2ccccc2[nH]1 (chirality)
COc1ccccc1CNCC(=O)N(CCN(C)C)[C@H](Cc1ccccc1)c1cc2ccccc2[nH]1 (3D coordinates assigned)
COc1ccccc1CNCC(=O)N(CCN(C)C)[C@H](Cc1ccccc1)c1cc2ccccc2[nH]1 (optimized conformer: 105.03170093415284 kcal/mol)

>  <smiles>  (38) 
COc1ccccc1CNCC(=O)N(CCN(C)C)C(Cc1ccccc1)c1cc2ccccc2[nH]1

>  <score_type>  (38) 
oracle

>  <origin>  (38) 
adg

>  <m_score__min__energy>  (38) 
-8.1699999999999999

>  <m_primary>  (38) 
energy

$$$$
38:0
     RDKit          3D

 38 39  0  0  0  0  0  0  0  0999 V2000
   55.1460   29.0200   44.8490 N   0  0  0  0  0  0  0  0  0  0  0  0
   56.4560   29.5820   44.8560 C   0  0  0  0  0  0  0  0  0  0  0  0
   57.3820   29.0070   45.4860 O   0  0  0  0  0  0  0  0  0  0  0  0
   56.7270   30.8610   44.1240 C   0  0  0  0  0  0  0  0  0  0  0  0
   58.1930   31.2990   44.2500 C   0  0  0  0  0  0  0  0  0  0  0  0
   58.4260   32.0800   45.4780 N   0  0  0  0  0  0  0  0  0  0  0  0
   58.0010   33.4570   45.5880 C   0  0  0  0  0  0  0  0  0  0  0  0
   56.8310   33.7160   45.9830 O   0  0  0  0  0  0  0  0  0  0  0  0
   58.9260   34.6090   45.2930 C   0  0  0  0  0  0  0  0  0  0  0  0
   59.5440   35.0830   46.4900 O   0  0  0  0  0  0  0  0  0  0  0  0
   60.6040   34.4480   47.1580 C   0  0  0  0  0  0  0  0  0  0  0  0
   60.6960   34.3990   48.5640 C   0  0  0  0  0  0  0  0  0  0  0  0
   61.7690   33.7460   49.1770 C   0  0  0  0  0  0  0  0  0  0  0  0
   62.7600   33.1410   48.3990 C   0  0  0  0  0  0  0  0  0  0  0  0
   64.1050   32.3210   49.1710 Cl  0  0  0  0  0  0  0  0  0  0  0  0
   62.6770   33.1900   47.0040 C   0  0  0  0  0  0  0  0  0  0  0  0
   61.6030   33.8410   46.3890 C   0  0  0  0  0  0  0  0  0  0  0  0
   59.0820   31.4620   46.6050 C   0  0  0  0  0  0  0  0  0  0  0  0
   58.6560   31.7160   47.9190 C   0  0  0  0  0  0  0  0  0  0  0  0
   59.3150   31.1150   48.9950 C   0  0  0  0  0  0  0  0  0  0  0  0
   60.3910   30.2610   48.7480 C   0  0  0  0  0  0  0  0  0  0  0  0
   60.7880   30.0180   47.4710 N   0  0  0  0  0  0  0  0  0  0  0  0
   60.1630   30.5880   46.4070 C   0  0  0  0  0  0  0  0  0  0  0  0
   54.4150   29.3540   45.5150 H   0  0  0  0  0  0  0  0  0  0  0  0
   56.4899   30.7175   43.0595 H   0  0  0  0  0  0  0  0  0  0  0  0
   56.0993   31.6463   44.5704 H   0  0  0  0  0  0  0  0  0  0  0  0
   58.8318   30.4037   44.2705 H   0  0  0  0  0  0  0  0  0  0  0  0
   58.4352   31.9370   43.3873 H   0  0  0  0  0  0  0  0  0  0  0  0
   59.7057   34.2751   44.5925 H   0  0  0  0  0  0  0  0  0  0  0  0
   58.3392   35.4279   44.8512 H   0  0  0  0  0  0  0  0  0  0  0  0
   59.9204   34.8765   49.1808 H   0  0  0  0  0  0  0  0  0  0  0  0
   61.8337   33.7081   50.2744 H   0  0  0  0  0  0  0  0  0  0  0  0
   63.4570   32.7161   46.3900 H   0  0  0  0  0  0  0  0  0  0  0  0
   61.5430   33.8762   45.2912 H   0  0  0  0  0  0  0  0  0  0  0  0
   57.8041   32.3876   48.1012 H   0  0  0  0  0  0  0  0  0  0  0  0
   58.9888   31.3131   50.0267 H   0  0  0  0  0  0  0  0  0  0  0  0
   60.9181   29.7842   49.5875 H   0  0  0  0  0  0  0  0  0  0  0  0
   60.5056   30.3636   45.3861 H   0  0  0  0  0  0  0  0  0  0  0  0
  1  2  1  0
  2  3  2  0
  2  4  1  0
  4  5  1  0
  5  6  1  0
  6  7  1  0
  7  8  2  0
  7  9  1  0
  9 10  1  0
 10 11  1  0
 11 12  2  0
 12 13  1  0
 13 14  2  0
 14 15  1  0
 14 16  1  0
 16 17  2  0
  6 18  1  0
 18 19  2  0
 19 20  1  0
 20 21  2  0
 21 22  1  0
 22 23  2  0
 17 11  1  0
 23 18  1  0
  1 24  1  0
  4 25  1  0
  4 26  1  0
  5 27  1  0
  5 28  1  0
  9 29  1  0
  9 30  1  0
 12 31  1  0
 13 32  1  0
 16 33  1  0
 17 34  1  0
 19 35  1  0
 20 36  1  0
 21 37  1  0
 23 38  1  0
M  CHG  1   1  -1
M  END
>  <UniqueID>  (39) 
35

>  <SMILES>  (39) 
[NH-]C(=O)CCN(C(=O)COc1ccc(Cl)cc1)c1cccnc1

>  <Energy>  (39) 
40.67492997451159

>  <Genealogy>  (39) 
[NH-]C(=O)CCN(C(=O)COc1ccc(Cl)cc1)c1cccnc1 (protonated)
[NH-]C(=O)CCN(C(=O)COc1ccc(Cl)cc1)c1cccnc1 (3D coordinates assigned)
[NH-]C(=O)CCN(C(=O)COc1ccc(Cl)cc1)c1cccnc1 (optimized conformer: 40.67492997451159 kcal/mol)

>  <smiles>  (39) 
NC(=O)CCN(C(=O)COc1ccc(Cl)cc1)c1cccnc1

>  <score_type>  (39) 
oracle

>  <origin>  (39) 
adg

>  <m_score__min__energy>  (39) 
-11.029999999999999

>  <m_primary>  (39) 
energy

$$$$
39:0
     RDKit          3D

 46 48  0  0  0  0  0  0  0  0999 V2000
   57.9660   28.1110   43.8120 C   0  0  0  0  0  0  0  0  0  0  0  0
   57.3500   28.6920   44.9560 O   0  0  0  0  0  0  0  0  0  0  0  0
   56.3720   29.6860   44.8640 C   0  0  0  0  0  0  0  0  0  0  0  0
   55.1490   29.3780   44.8550 O   0  0  0  0  0  0  0  0  0  0  0  0
   56.7410   31.0690   44.8320 N   0  0  0  0  0  0  0  0  0  0  0  0
   57.8630   31.6580   45.5020 C   0  0  0  0  0  0  0  0  0  0  0  0
   58.8710   30.8780   46.0950 C   0  0  0  0  0  0  0  0  0  0  0  0
   59.9610   31.4900   46.7190 C   0  0  0  0  0  0  0  0  0  0  0  0
   60.0720   32.8910   46.7460 C   0  0  0  0  0  0  0  0  0  0  0  0
   61.1880   33.5220   47.4020 N   0  0  0  0  0  0  0  0  0  0  0  0
   62.4140   33.8420   46.6580 C   0  0  0  0  0  0  0  0  0  0  0  0
   63.6250   33.2150   47.3610 C   0  0  0  0  0  0  0  0  0  0  0  0
   63.5480   33.3890   48.8210 N   0  0  0  0  0  0  0  0  0  0  0  0
   64.4690   32.6790   49.6710 C   0  0  0  0  0  0  0  0  0  0  0  0
   64.0420   31.5570   50.4020 C   0  0  0  0  0  0  0  0  0  0  0  0
   64.9380   30.8590   51.2170 C   0  0  0  0  0  0  0  0  0  0  0  0
   66.2730   31.2780   51.3200 C   0  0  0  0  0  0  0  0  0  0  0  0
   67.2440   30.5060   52.1630 C   0  0  0  0  0  0  0  0  0  0  0  0
   66.7090   32.3820   50.5730 C   0  0  0  0  0  0  0  0  0  0  0  0
   65.8120   33.0800   49.7570 C   0  0  0  0  0  0  0  0  0  0  0  0
   62.4870   34.2270   49.3980 C   0  0  0  0  0  0  0  0  0  0  0  0
   61.1250   33.7860   48.8490 C   0  0  0  0  0  0  0  0  0  0  0  0
   59.0720   33.6670   46.1380 C   0  0  0  0  0  0  0  0  0  0  0  0
   57.9830   33.0530   45.5120 C   0  0  0  0  0  0  0  0  0  0  0  0
   58.7311   27.3894   44.1343 H   0  0  0  0  0  0  0  0  0  0  0  0
   57.2052   27.5939   43.2088 H   0  0  0  0  0  0  0  0  0  0  0  0
   58.4377   28.9007   43.2088 H   0  0  0  0  0  0  0  0  0  0  0  0
   58.8013   29.7806   46.0676 H   0  0  0  0  0  0  0  0  0  0  0  0
   60.7376   30.8713   47.1924 H   0  0  0  0  0  0  0  0  0  0  0  0
   62.3366   33.4415   45.6364 H   0  0  0  0  0  0  0  0  0  0  0  0
   62.5412   34.9339   46.6185 H   0  0  0  0  0  0  0  0  0  0  0  0
   63.6561   32.1400   47.1298 H   0  0  0  0  0  0  0  0  0  0  0  0
   64.5339   33.7183   46.9998 H   0  0  0  0  0  0  0  0  0  0  0  0
   62.9954   31.2258   50.3323 H   0  0  0  0  0  0  0  0  0  0  0  0
   64.5951   29.9781   51.7795 H   0  0  0  0  0  0  0  0  0  0  0  0
   67.0251   30.6800   53.2269 H   0  0  0  0  0  0  0  0  0  0  0  0
   67.1506   29.4329   51.9402 H   0  0  0  0  0  0  0  0  0  0  0  0
   68.2685   30.8389   51.9402 H   0  0  0  0  0  0  0  0  0  0  0  0
   67.7604   32.7004   50.6289 H   0  0  0  0  0  0  0  0  0  0  0  0
   66.1611   33.9485   49.1791 H   0  0  0  0  0  0  0  0  0  0  0  0
   62.4918   34.1208   50.4929 H   0  0  0  0  0  0  0  0  0  0  0  0
   62.6657   35.2784   49.1283 H   0  0  0  0  0  0  0  0  0  0  0  0
   60.8109   32.8677   49.3668 H   0  0  0  0  0  0  0  0  0  0  0  0
   60.4034   34.5981   49.0212 H   0  0  0  0  0  0  0  0  0  0  0  0
   59.1459   34.7644   46.1543 H   0  0  0  0  0  0  0  0  0  0  0  0
   57.2147   33.6705   45.0237 H   0  0  0  0  0  0  0  0  0  0  0  0
  1  2  1  0
  2  3  1  0
  3  4  2  0
  3  5  1  0
  5  6  1  0
  6  7  2  0
  7  8  1  0
  8  9  2  0
  9 10  1  0
 10 11  1  0
 11 12  1  0
 12 13  1  0
 13 14  1  0
 14 15  2  0
 15 16  1  0
 16 17  2  0
 17 18  1  0
 17 19  1  0
 19 20  2  0
 13 21  1  0
 21 22  1  0
  9 23  1  0
 23 24  2  0
 24  6  1  0
 22 10  1  0
 20 14  1  0
  1 25  1  0
  1 26  1  0
  1 27  1  0
  7 28  1  0
  8 29  1  0
 11 30  1  0
 11 31  1  0
 12 32  1  0
 12 33  1  0
 15 34  1  0
 16 35  1  0
 18 36  1  0
 18 37  1  0
 18 38  1  0
 19 39  1  0
 20 40  1  0
 21 41  1  0
 21 42  1  0
 22 43  1  0
 22 44  1  0
 23 45  1  0
 24 46  1  0
M  CHG  1   5  -1
M  END
>  <UniqueID>  (40) 
36

>  <SMILES>  (40) 
COC(=O)[N-]c1ccc(N2CCN(c3ccc(C)cc3)CC2)cc1

>  <Energy>  (40) 
56.064761608526666

>  <Genealogy>  (40) 
COC(=O)[N-]c1ccc(N2CCN(c3ccc(C)cc3)CC2)cc1 (protonated)
COC(=O)[N-]c1ccc(N2CCN(c3ccc(C)cc3)CC2)cc1 (3D coordinates assigned)
COC(=O)[N-]c1ccc(N2CCN(c3ccc(C)cc3)CC2)cc1 (nonaromatic ring conformer: 56.064761608526666 kcal/mol)

>  <smiles>  (40) 
COC(=O)Nc1ccc(N2CCN(c3ccc(C)cc3)CC2)cc1

>  <score_type>  (40) 
oracle

>  <origin>  (40) 
adg

>  <m_score__min__energy>  (40) 
-8.9700000000000006

>  <m_primary>  (40) 
energy

$$$$
40:0
     RDKit          3D

 60 63  0  0  0  0  0  0  0  0999 V2000
   61.1480   29.0420   50.9870 C   0  0  0  0  0  0  0  0  0  0  0  0
   61.0040   27.7790   50.1450 C   0  0  0  0  0  0  0  0  0  0  0  0
   60.2000   28.0550   48.9030 C   0  0  0  0  0  0  0  0  0  0  0  0
   60.3150   27.2190   47.7810 C   0  0  0  0  0  0  0  0  0  0  0  0
   59.5530   27.4660   46.6360 C   0  0  0  0  0  0  0  0  0  0  0  0
   58.6590   28.5420   46.6030 C   0  0  0  0  0  0  0  0  0  0  0  0
   57.7620   28.8780   45.1250 S   0  0  0  0  0  0  0  0  0  0  0  0
   57.7490   27.6380   44.2780 O   0  0  0  0  0  0  0  0  0  0  0  0
   56.3450   29.2720   45.4370 O   0  0  0  0  0  0  0  0  0  0  0  0
   58.5330   30.1650   44.2530 N   0  0  0  0  0  0  0  0  0  0  0  0
   58.5890   31.5150   44.7520 C   0  0  0  0  0  0  0  0  0  0  0  0
   59.1860   31.7830   45.9970 C   0  0  0  0  0  0  0  0  0  0  0  0
   59.2670   33.0910   46.4910 C   0  0  0  0  0  0  0  0  0  0  0  0
   59.9360   33.3510   47.7810 C   0  0  0  0  0  0  0  0  0  0  0  0
   59.2670   33.5390   48.9760 C   0  0  0  0  0  0  0  0  0  0  0  0
   60.2260   33.8170   49.9240 C   0  0  0  0  0  0  0  0  0  0  0  0
   61.4440   33.7840   49.2740 C   0  0  0  0  0  0  0  0  0  0  0  0
   62.7360   34.0430   49.9390 C   0  0  0  0  0  0  0  0  0  0  0  0
   63.0100   35.2260   50.2740 O   0  0  0  0  0  0  0  0  0  0  0  0
   63.6890   32.9510   50.2650 C   0  0  0  0  0  0  0  0  0  0  0  0
   63.2570   31.7850   50.9280 C   0  0  0  0  0  0  0  0  0  0  0  0
   64.1630   30.7650   51.2290 C   0  0  0  0  0  0  0  0  0  0  0  0
   65.5080   30.8970   50.8820 C   0  0  0  0  0  0  0  0  0  0  0  0
   65.9510   32.0530   50.2360 C   0  0  0  0  0  0  0  0  0  0  0  0
   65.0480   33.0760   49.9310 C   0  0  0  0  0  0  0  0  0  0  0  0
   61.2710   33.5080   47.9570 N   0  0  0  0  0  0  0  0  0  0  0  0
   62.2740   33.6450   46.8930 C   0  0  0  0  0  0  0  0  0  0  0  0
   63.1210   32.4480   46.8410 C   0  0  0  0  0  0  0  0  0  0  0  0
   63.7900   31.5040   46.8010 N   0  0  0  0  0  0  0  0  0  0  0  0
   58.7510   34.1460   45.7320 C   0  0  0  0  0  0  0  0  0  0  0  0
   58.1370   33.8960   44.5040 C   0  0  0  0  0  0  0  0  0  0  0  0
   58.0500   32.5870   44.0020 C   0  0  0  0  0  0  0  0  0  0  0  0
   57.4040   32.3550   42.6630 C   0  0  0  0  0  0  0  0  0  0  0  0
   58.5300   29.3680   47.7260 C   0  0  0  0  0  0  0  0  0  0  0  0
   59.2910   29.1250   48.8720 C   0  0  0  0  0  0  0  0  0  0  0  0
   61.1178   28.7767   52.0541 H   0  0  0  0  0  0  0  0  0  0  0  0
   62.1074   29.5285   50.7572 H   0  0  0  0  0  0  0  0  0  0  0  0
   60.3227   29.7320   50.7572 H   0  0  0  0  0  0  0  0  0  0  0  0
   62.0035   27.4221   49.8559 H   0  0  0  0  0  0  0  0  0  0  0  0
   60.4828   27.0151   50.7406 H   0  0  0  0  0  0  0  0  0  0  0  0
   61.0084   26.3653   47.8033 H   0  0  0  0  0  0  0  0  0  0  0  0
   59.6563   26.8122   45.7574 H   0  0  0  0  0  0  0  0  0  0  0  0
   59.0780   29.8950   43.4050 H   0  0  0  0  0  0  0  0  0  0  0  0
   59.5954   30.9530   46.5915 H   0  0  0  0  0  0  0  0  0  0  0  0
   58.1807   33.4783   49.1379 H   0  0  0  0  0  0  0  0  0  0  0  0
   60.0554   34.0248   50.9906 H   0  0  0  0  0  0  0  0  0  0  0  0
   62.1994   31.6772   51.2104 H   0  0  0  0  0  0  0  0  0  0  0  0
   63.8151   29.8556   51.7408 H   0  0  0  0  0  0  0  0  0  0  0  0
   66.2188   30.0911   51.1171 H   0  0  0  0  0  0  0  0  0  0  0  0
   67.0122   32.1590   49.9666 H   0  0  0  0  0  0  0  0  0  0  0  0
   65.4043   33.9857   49.4256 H   0  0  0  0  0  0  0  0  0  0  0  0
   61.7641   33.7721   45.9266 H   0  0  0  0  0  0  0  0  0  0  0  0
   62.9034   34.5225   47.1025 H   0  0  0  0  0  0  0  0  0  0  0  0
   58.8294   35.1780   46.1047 H   0  0  0  0  0  0  0  0  0  0  0  0
   57.7175   34.7313   43.9241 H   0  0  0  0  0  0  0  0  0  0  0  0
   56.3780   31.9865   42.8098 H   0  0  0  0  0  0  0  0  0  0  0  0
   57.3773   33.2997   42.1002 H   0  0  0  0  0  0  0  0  0  0  0  0
   57.9844   31.6091   42.1002 H   0  0  0  0  0  0  0  0  0  0  0  0
   57.8257   30.2127   47.7059 H   0  0  0  0  0  0  0  0  0  0  0  0
   59.1779   29.7739   49.7530 H   0  0  0  0  0  0  0  0  0  0  0  0
  1  2  1  0
  2  3  1  0
  3  4  2  0
  4  5  1  0
  5  6  2  0
  6  7  1  0
  7  8  2  0
  7  9  2  0
  7 10  1  0
 10 11  1  0
 11 12  2  0
 12 13  1  0
 13 14  1  0
 14 15  2  0
 15 16  1  0
 16 17  2  0
 17 18  1  0
 18 19  2  0
 18 20  1  0
 20 21  2  0
 21 22  1  0
 22 23  2  0
 23 24  1  0
 24 25  2  0
 17 26  1  0
 26 27  1  0
 27 28  1  0
 28 29  3  0
 13 30  2  0
 30 31  1  0
 31 32  2  0
 32 33  1  0
  6 34  1  0
 34 35  2  0
 35  3  1  0
 32 11  1  0
 26 14  1  0
 25 20  1  0
  1 36  1  0
  1 37  1  0
  1 38  1  0
  2 39  1  0
  2 40  1  0
  4 41  1  0
  5 42  1  0
 10 43  1  0
 12 44  1  0
 15 45  1  0
 16 46  1  0
 21 47  1  0
 22 48  1  0
 23 49  1  0
 24 50  1  0
 25 51  1  0
 27 52  1  0
 27 53  1  0
 30 54  1  0
 31 55  1  0
 33 56  1  0
 33 57  1  0
 33 58  1  0
 34 59  1  0
 35 60  1  0
M  END
>  <UniqueID>  (41) 
37

>  <SMILES>  (41) 
CCc1ccc(S(=O)(=O)Nc2cc(-c3ccc(C(=O)c4ccccc4)n3CC#N)ccc2C)cc1

>  <Energy>  (41) 
100.58535341929506

>  <Genealogy>  (41) 
CCc1ccc(S(=O)(=O)Nc2cc(-c3ccc(C(=O)c4ccccc4)n3CC#N)ccc2C)cc1 (3D coordinates assigned)
CCc1ccc(S(=O)(=O)Nc2cc(-c3ccc(C(=O)c4ccccc4)n3CC#N)ccc2C)cc1 (optimized conformer: 100.58535341929506 kcal/mol)

>  <smiles>  (41) 
CCc1ccc(S(=O)(=O)Nc2cc(-c3ccc(C(=O)c4ccccc4)n3CC#N)ccc2C)cc1

>  <score_type>  (41) 
oracle

>  <origin>  (41) 
adg

>  <m_score__min__energy>  (41) 
-10.289999999999999

>  <m_primary>  (41) 
energy

$$$$
41:0
     RDKit          3D

 34 36  0  0  0  0  0  0  0  0999 V2000
   55.1860   26.2070   46.0310 N   0  0  0  0  0  0  0  0  0  0  0  0
   56.8990   26.4330   46.0300 S   0  0  0  0  0  0  0  0  0  0  0  0
   57.4340   26.2270   47.4190 O   0  0  0  0  0  0  0  0  0  0  0  0
   57.5350   25.4240   45.1150 O   0  0  0  0  0  0  0  0  0  0  0  0
   57.2790   28.0610   45.4800 C   0  0  0  0  0  0  0  0  0  0  0  0
   56.2580   28.9190   45.0520 C   0  0  0  0  0  0  0  0  0  0  0  0
   56.5610   30.2170   44.6280 C   0  0  0  0  0  0  0  0  0  0  0  0
   57.8860   30.6660   44.6110 C   0  0  0  0  0  0  0  0  0  0  0  0
   58.1550   32.0180   44.2090 N   0  0  0  0  0  0  0  0  0  0  0  0
   58.6900   32.9520   44.9420 C   0  0  0  0  0  0  0  0  0  0  0  0
   59.7470   32.7220   45.7490 N   0  0  0  0  0  0  0  0  0  0  0  0
   60.1080   33.8230   46.4680 C   0  0  0  0  0  0  0  0  0  0  0  0
   61.2480   33.8160   47.4190 C   0  0  0  0  0  0  0  0  0  0  0  0
   61.0660   34.1900   48.7640 C   0  0  0  0  0  0  0  0  0  0  0  0
   62.1430   34.1810   49.6550 C   0  0  0  0  0  0  0  0  0  0  0  0
   63.4130   33.8020   49.2150 C   0  0  0  0  0  0  0  0  0  0  0  0
   64.4560   33.7950   50.0810 F   0  0  0  0  0  0  0  0  0  0  0  0
   63.6080   33.4310   47.8830 C   0  0  0  0  0  0  0  0  0  0  0  0
   62.5340   33.4370   46.9870 C   0  0  0  0  0  0  0  0  0  0  0  0
   59.3130   34.9490   46.2320 C   0  0  0  0  0  0  0  0  0  0  0  0
   58.1390   34.5380   45.0970 S   0  0  0  0  0  0  0  0  0  0  0  0
   58.9050   29.8190   45.0820 C   0  0  0  0  0  0  0  0  0  0  0  0
   58.6030   28.5210   45.5060 C   0  0  0  0  0  0  0  0  0  0  0  0
   54.7630   27.0870   46.4040 H   0  0  0  0  0  0  0  0  0  0  0  0
   55.2145   28.5709   45.0493 H   0  0  0  0  0  0  0  0  0  0  0  0
   55.7522   30.8893   44.3058 H   0  0  0  0  0  0  0  0  0  0  0  0
   60.2090   31.7880   45.8260 H   0  0  0  0  0  0  0  0  0  0  0  0
   60.0686   34.4916   49.1164 H   0  0  0  0  0  0  0  0  0  0  0  0
   61.9899   34.4729   50.7044 H   0  0  0  0  0  0  0  0  0  0  0  0
   64.6090   33.1332   47.5374 H   0  0  0  0  0  0  0  0  0  0  0  0
   62.6946   33.1441   45.9390 H   0  0  0  0  0  0  0  0  0  0  0  0
   59.4338   35.9341   46.7064 H   0  0  0  0  0  0  0  0  0  0  0  0
   59.9439   30.1789   45.1171 H   0  0  0  0  0  0  0  0  0  0  0  0
   59.4067   27.8591   45.8609 H   0  0  0  0  0  0  0  0  0  0  0  0
  1  2  1  0
  2  3  2  0
  2  4  2  0
  2  5  1  0
  5  6  2  0
  6  7  1  0
  7  8  2  0
  8  9  1  0
  9 10  2  3
 10 11  1  0
 11 12  1  0
 12 13  1  0
 13 14  2  0
 14 15  1  0
 15 16  2  0
 16 17  1  0
 16 18  1  0
 18 19  2  0
 12 20  2  0
 20 21  1  0
  8 22  1  0
 22 23  2  0
 23  5  1  0
 21 10  1  0
 19 13  1  0
  1 24  1  0
  6 25  1  0
  7 26  1  0
 11 27  1  0
 14 28  1  0
 15 29  1  0
 18 30  1  0
 19 31  1  0
 20 32  1  0
 22 33  1  0
 23 34  1  0
M  CHG  1   1  -1
M  END
>  <UniqueID>  (42) 
38

>  <SMILES>  (42) 
[NH-]S(=O)(=O)c1ccc(N=c2[nH]c(-c3ccc(F)cc3)cs2)cc1

>  <Energy>  (42) 
77.01049980592333

>  <Genealogy>  (42) 
[NH-]S(=O)(=O)c1ccc(N=c2[nH]c(-c3ccc(F)cc3)cs2)cc1 (protonated)
[NH-]S(=O)(=O)c1ccc(N=c2[nH]c(-c3ccc(F)cc3)cs2)cc1 (3D coordinates assigned)
[NH-]S(=O)(=O)c1ccc(N=c2[nH]c(-c3ccc(F)cc3)cs2)cc1 (optimized conformer: 77.01049980592333 kcal/mol)

>  <smiles>  (42) 
NS(=O)(=O)c1ccc(N=c2[nH]c(-c3ccc(F)cc3)cs2)cc1

>  <score_type>  (42) 
oracle

>  <origin>  (42) 
adg

>  <m_score__min__energy>  (42) 
-11.08

>  <m_primary>  (42) 
energy

$$$$
42:0
     RDKit          3D

 53 55  0  0  1  0  0  0  0  0999 V2000
   53.9890   25.0220   45.6120 C   0  0  0  0  0  0  0  0  0  0  0  0
   55.0890   25.8350   45.9610 O   0  0  0  0  0  0  0  0  0  0  0  0
   56.4140   25.4270   45.8750 C   0  0  0  0  0  0  0  0  0  0  0  0
   56.8000   24.1070   45.8030 C   0  0  0  0  0  0  0  0  0  0  0  0
   58.1190   23.7250   45.7190 C   0  0  0  0  0  0  0  0  0  0  0  0
   59.0720   24.7180   45.7060 C   0  0  0  0  0  0  0  0  0  0  0  0
   58.7550   26.0590   45.7750 C   0  0  0  0  0  0  0  0  0  0  0  0
   59.8090   27.1010   45.7590 C   0  0  0  0  0  0  0  0  0  0  0  0
   57.3880   26.4630   45.8630 C   0  0  0  0  0  0  0  0  0  0  0  0
   57.0710   27.7040   46.0920 N   0  0  0  0  0  0  0  0  0  0  0  0
   57.0040   28.8000   45.6020 C   0  0  0  0  0  0  0  0  0  0  0  0
   56.1320   29.0150   44.5680 N   0  0  0  0  0  0  0  0  0  0  0  0
   55.9780   30.2140   43.9940 C   0  0  0  0  0  0  0  0  0  0  0  0
   56.7180   31.2200   44.4730 N   0  0  0  0  0  0  0  0  0  0  0  0
   57.5660   31.0260   45.4740 N   0  0  0  0  0  0  0  0  0  0  0  0
   58.3630   31.9110   46.0510 C   0  0  0  0  0  0  0  0  0  0  0  0
   59.0530   31.2630   47.0230 C   0  0  0  0  0  0  0  0  0  0  0  0
   59.9740   31.7820   47.8590 O   0  0  0  0  0  0  0  0  0  0  0  0
   60.6890   32.9260   47.8980 C   0  0  0  0  0  0  0  0  0  0  0  0
   61.9780   32.9310   47.1220 C   0  0  0  0  0  0  0  0  0  0  0  0
   63.0110   33.8340   47.7590 C   0  0  0  0  0  0  0  0  0  0  0  0
   64.1330   33.0500   48.2260 N   0  0  0  0  0  0  0  0  0  0  0  0
   64.4740   33.1150   49.6050 C   0  0  0  0  0  0  0  0  0  0  0  0
   65.6200   32.3260   50.1240 C   0  0  0  0  0  0  0  0  0  0  0  0
   63.8190   33.8400   50.4210 O   0  0  0  0  0  0  0  0  0  0  0  0
   58.6720   29.8940   47.0610 C   0  0  0  0  0  0  0  0  0  0  0  0
   59.3290   29.0230   48.0280 C   0  0  0  0  0  0  0  0  0  0  0  0
   57.7500   29.8260   46.0780 C   0  0  0  0  0  0  0  0  0  0  0  0
   53.4971   24.6584   46.5262 H   0  0  0  0  0  0  0  0  0  0  0  0
   53.2725   25.6093   45.0189 H   0  0  0  0  0  0  0  0  0  0  0  0
   54.3402   24.1647   45.0189 H   0  0  0  0  0  0  0  0  0  0  0  0
   56.0236   23.3279   45.8130 H   0  0  0  0  0  0  0  0  0  0  0  0
   58.4020   22.6634   45.6642 H   0  0  0  0  0  0  0  0  0  0  0  0
   60.1315   24.4302   45.6377 H   0  0  0  0  0  0  0  0  0  0  0  0
   60.0777   27.3666   46.7921 H   0  0  0  0  0  0  0  0  0  0  0  0
   60.6972   26.7161   45.2365 H   0  0  0  0  0  0  0  0  0  0  0  0
   59.4343   27.9935   45.2365 H   0  0  0  0  0  0  0  0  0  0  0  0
   55.5640   28.2410   44.2000 H   0  0  0  0  0  0  0  0  0  0  0  0
   55.2728   30.3658   43.1635 H   0  0  0  0  0  0  0  0  0  0  0  0
   58.4500   32.9761   45.7904 H   0  0  0  0  0  0  0  0  0  0  0  0
   60.0547   33.7318   47.5001 H   0  0  0  0  0  0  0  0  0  0  0  0
   60.9791   33.0558   48.9511 H   0  0  0  0  0  0  0  0  0  0  0  0
   62.3753   31.9060   47.0842 H   0  0  0  0  0  0  0  0  0  0  0  0
   61.7681   33.3099   46.1109 H   0  0  0  0  0  0  0  0  0  0  0  0
   63.3620   34.5662   47.0169 H   0  0  0  0  0  0  0  0  0  0  0  0
   62.5558   34.3571   48.6129 H   0  0  0  0  0  0  0  0  0  0  0  0
   64.7170   32.4350   47.6270 H   0  0  0  0  0  0  0  0  0  0  0  0
   65.6044   32.3367   51.2238 H   0  0  0  0  0  0  0  0  0  0  0  0
   65.5429   31.2886   49.7663 H   0  0  0  0  0  0  0  0  0  0  0  0
   66.5616   32.7682   49.7663 H   0  0  0  0  0  0  0  0  0  0  0  0
   59.0800   29.3531   49.0473 H   0  0  0  0  0  0  0  0  0  0  0  0
   58.9843   27.9885   47.8832 H   0  0  0  0  0  0  0  0  0  0  0  0
   60.4184   29.0702   47.8832 H   0  0  0  0  0  0  0  0  0  0  0  0
  1  2  1  0
  2  3  1  0
  3  4  2  0
  4  5  1  0
  5  6  2  0
  6  7  1  0
  7  8  1  0
  7  9  2  0
  9 10  1  0
 10 11  2  0
 11 12  1  0
 12 13  1  0
 13 14  2  0
 14 15  1  0
 15 16  1  0
 16 17  2  0
 17 18  1  0
 18 19  1  0
 19 20  1  0
 20 21  1  0
 21 22  1  0
 22 23  1  0
 23 24  1  0
 23 25  2  0
 17 26  1  0
 26 27  1  0
 26 28  2  0
  9  3  1  0
 28 11  1  0
 28 15  1  0
  1 29  1  0
  1 30  1  0
  1 31  1  0
  4 32  1  0
  5 33  1  0
  6 34  1  0
  8 35  1  0
  8 36  1  0
  8 37  1  0
 12 38  1  0
 13 39  1  0
 16 40  1  0
 19 41  1  0
 19 42  1  0
 20 43  1  0
 20 44  1  0
 21 45  1  0
 21 46  1  0
 22 47  1  0
 24 48  1  0
 24 49  1  0
 24 50  1  0
 27 51  1  0
 27 52  1  0
 27 53  1  0
M  END
>  <smiles>  (43) 
COc1cccc(C)c1N=c1[nH]cnn2cc(OCCCNC(C)=O)c(C)c12

>  <score_type>  (43) 
oracle

>  <origin>  (43) 
adg

>  <m_score__min__energy>  (43) 
-7.7199999999999998

>  <m_primary>  (43) 
energy

$$$$
43:0
     RDKit          3D

 47 50  0  0  0  0  0  0  0  0999 V2000
   56.6910   32.6590   45.6080 O   0  0  0  0  0  0  0  0  0  0  0  0
   57.6490   32.6630   44.7890 C   0  0  0  0  0  0  0  0  0  0  0  0
   57.4010   32.3470   43.3480 C   0  0  0  0  0  0  0  0  0  0  0  0
   57.7940   30.9500   43.0570 N   0  0  0  0  0  0  0  0  0  0  0  0
   56.6260   30.0990   42.7640 C   0  0  0  0  0  0  0  0  0  0  0  0
   55.7770   29.8270   44.0270 C   0  0  0  0  0  0  0  0  0  0  0  0
   56.4640   30.1150   45.2340 O   0  0  0  0  0  0  0  0  0  0  0  0
   57.7800   29.5980   45.1880 C   0  0  2  0  0  0  0  0  0  0  0  0
   58.4130   29.7040   46.5560 C   0  0  0  0  0  0  0  0  0  0  0  0
   58.7050   28.5440   47.2950 C   0  0  0  0  0  0  0  0  0  0  0  0
   59.2620   28.6620   48.5680 C   0  0  0  0  0  0  0  0  0  0  0  0
   59.5180   29.9250   49.0990 C   0  0  0  0  0  0  0  0  0  0  0  0
   59.2050   31.0590   48.3470 C   0  0  0  0  0  0  0  0  0  0  0  0
   58.6590   30.9300   47.1070 N   0  0  0  0  0  0  0  0  0  0  0  0
   58.6250   30.3600   44.1340 C   0  0  0  0  0  0  0  0  0  0  0  0
   58.9760   32.9630   45.2280 N   0  0  0  0  0  0  0  0  0  0  0  0
   59.3480   34.2580   45.7800 C   0  0  0  0  0  0  0  0  0  0  0  0
   60.3290   34.0590   46.8980 C   0  0  0  0  0  0  0  0  0  0  0  0
   59.9630   34.3680   48.2330 C   0  0  0  0  0  0  0  0  0  0  0  0
   60.8880   34.2120   49.2820 C   0  0  0  0  0  0  0  0  0  0  0  0
   62.1640   33.7610   48.9600 C   0  0  0  0  0  0  0  0  0  0  0  0
   62.5260   33.4800   47.6820 C   0  0  0  0  0  0  0  0  0  0  0  0
   61.6420   33.6180   46.6180 C   0  0  0  0  0  0  0  0  0  0  0  0
   63.8440   33.0630   47.6590 O   0  0  0  0  0  0  0  0  0  0  0  0
   64.3390   33.0810   49.0050 C   0  0  0  0  0  0  0  0  0  0  0  0
   63.2350   33.5320   49.8020 O   0  0  0  0  0  0  0  0  0  0  0  0
   56.3316   32.4775   43.1261 H   0  0  0  0  0  0  0  0  0  0  0  0
   57.9994   33.0262   42.7231 H   0  0  0  0  0  0  0  0  0  0  0  0
   55.9976   30.6037   42.0154 H   0  0  0  0  0  0  0  0  0  0  0  0
   56.9947   29.1334   42.3877 H   0  0  0  0  0  0  0  0  0  0  0  0
   54.8727   30.4516   43.9817 H   0  0  0  0  0  0  0  0  0  0  0  0
   55.5373   28.7535   44.0351 H   0  0  0  0  0  0  0  0  0  0  0  0
   57.7418   28.5390   44.8929 H   0  0  0  0  0  0  0  0  0  0  0  0
   58.4956   27.5504   46.8720 H   0  0  0  0  0  0  0  0  0  0  0  0
   59.4988   27.7603   49.1518 H   0  0  0  0  0  0  0  0  0  0  0  0
   59.9620   30.0273   50.1002 H   0  0  0  0  0  0  0  0  0  0  0  0
   59.4004   32.0603   48.7582 H   0  0  0  0  0  0  0  0  0  0  0  0
   58.4280   31.7990   46.5750 H   0  0  0  0  0  0  0  0  0  0  0  0
   59.1732   31.1687   44.6394 H   0  0  0  0  0  0  0  0  0  0  0  0
   59.3097   29.6359   43.6684 H   0  0  0  0  0  0  0  0  0  0  0  0
   59.8079   34.8741   44.9933 H   0  0  0  0  0  0  0  0  0  0  0  0
   58.4508   34.7657   46.1639 H   0  0  0  0  0  0  0  0  0  0  0  0
   58.9481   34.7325   48.4501 H   0  0  0  0  0  0  0  0  0  0  0  0
   60.6113   34.4391   50.3221 H   0  0  0  0  0  0  0  0  0  0  0  0
   61.9554   33.3906   45.5884 H   0  0  0  0  0  0  0  0  0  0  0  0
   64.6529   32.0733   49.3147 H   0  0  0  0  0  0  0  0  0  0  0  0
   65.2188   33.7325   49.1124 H   0  0  0  0  0  0  0  0  0  0  0  0
  1  2  2  0
  2  3  1  0
  3  4  1  0
  4  5  1  0
  5  6  1  0
  6  7  1  0
  7  8  1  0
  8  9  1  0
  9 10  2  0
 10 11  1  0
 11 12  2  0
 12 13  1  0
 13 14  2  0
  8 15  1  0
  2 16  1  0
 16 17  1  0
 17 18  1  0
 18 19  2  0
 19 20  1  0
 20 21  2  0
 21 22  1  0
 22 23  2  0
 22 24  1  0
 24 25  1  0
 25 26  1  0
 15  4  1  0
 23 18  1  0
 14  9  1  0
 26 21  1  0
  3 27  1  0
  3 28  1  0
  5 29  1  0
  5 30  1  0
  6 31  1  0
  6 32  1  0
  8 33  1  6
 10 34  1  0
 11 35  1  0
 12 36  1  0
 13 37  1  0
 14 38  1  0
 15 39  1  0
 15 40  1  0
 17 41  1  0
 17 42  1  0
 19 43  1  0
 20 44  1  0
 23 45  1  0
 25 46  1  0
 25 47  1  0
M  CHG  2  14   1  16  -1
M  END
>  <UniqueID>  (44) 
39

>  <SMILES>  (44) 
O=C(CN1CCO[C@H](c2cccc[nH+]2)C1)[N-]Cc1ccc2c(c1)OCO2

>  <Energy>  (44) 
86.454068314156

>  <Genealogy>  (44) 
O=C(CN1CCOC(c2cccc[nH+]2)C1)[N-]Cc1ccc2c(c1)OCO2 (protonated)
O=C(CN1CCO[C@H](c2cccc[nH+]2)C1)[N-]Cc1ccc2c(c1)OCO2 (chirality)
O=C(CN1CCO[C@H](c2cccc[nH+]2)C1)[N-]Cc1ccc2c(c1)OCO2 (3D coordinates assigned)
O=C(CN1CCO[C@H](c2cccc[nH+]2)C1)[N-]Cc1ccc2c(c1)OCO2 (nonaromatic ring conformer: 86.454068314156 kcal/mol)

>  <smiles>  (44) 
O=C(CN1CCOC(c2ccccn2)C1)NCc1ccc2c(c1)OCO2

>  <score_type>  (44) 
oracle

>  <origin>  (44) 
adg

>  <m_score__min__energy>  (44) 
-7.1100000000000003

>  <m_primary>  (44) 
energy

$$$$
44:0
     RDKit          3D

 42 44  0  0  0  0  0  0  0  0999 V2000
   60.6960   26.3860   46.4180 C   0  0  0  0  0  0  0  0  0  0  0  0
   60.0640   27.5630   46.4570 C   0  0  0  0  0  0  0  0  0  0  0  0
   60.1020   28.5170   45.2990 C   0  0  0  0  0  0  0  0  0  0  0  0
   58.8820   29.3320   45.2460 N   0  0  0  0  0  0  0  0  0  0  0  0
   58.7670   30.4350   46.1630 C   0  0  0  0  0  0  0  0  0  0  0  0
   59.0570   30.1840   47.5130 C   0  0  0  0  0  0  0  0  0  0  0  0
   59.1890   31.2240   48.4230 C   0  0  0  0  0  0  0  0  0  0  0  0
   59.0750   32.5420   47.9980 C   0  0  0  0  0  0  0  0  0  0  0  0
   58.7760   32.8400   46.6570 C   0  0  0  0  0  0  0  0  0  0  0  0
   58.5500   31.7780   45.7300 C   0  0  0  0  0  0  0  0  0  0  0  0
   58.1340   32.1250   44.4160 C   0  0  0  0  0  0  0  0  0  0  0  0
   57.6070   31.1640   43.4970 N   0  0  0  0  0  0  0  0  0  0  0  0
   58.1190   33.4680   44.0320 C   0  0  0  0  0  0  0  0  0  0  0  0
   58.4180   34.4620   44.9540 C   0  0  0  0  0  0  0  0  0  0  0  0
   58.7080   34.1440   46.2410 N   0  0  0  0  0  0  0  0  0  0  0  0
   58.9510   35.1750   47.1230 O   0  0  0  0  0  0  0  0  0  0  0  0
   57.4150   28.5990   44.6570 S   0  0  0  0  0  0  0  0  0  0  0  0
   56.2280   29.3290   45.2190 O   0  0  0  0  0  0  0  0  0  0  0  0
   57.3690   28.6990   43.1580 O   0  0  0  0  0  0  0  0  0  0  0  0
   57.3350   26.8980   45.1200 C   0  0  0  0  0  0  0  0  0  0  0  0
   57.7850   25.9060   44.2360 C   0  0  0  0  0  0  0  0  0  0  0  0
   57.7050   24.5570   44.5930 C   0  0  0  0  0  0  0  0  0  0  0  0
   57.1820   24.1910   45.8360 C   0  0  0  0  0  0  0  0  0  0  0  0
   56.7440   25.1760   46.7260 C   0  0  0  0  0  0  0  0  0  0  0  0
   56.8230   26.5250   46.3720 C   0  0  0  0  0  0  0  0  0  0  0  0
   60.6496   25.7079   47.2829 H   0  0  0  0  0  0  0  0  0  0  0  0
   61.2625   26.0954   45.5210 H   0  0  0  0  0  0  0  0  0  0  0  0
   59.5016   27.8396   47.3610 H   0  0  0  0  0  0  0  0  0  0  0  0
   60.9728   29.1802   45.4082 H   0  0  0  0  0  0  0  0  0  0  0  0
   60.1741   27.9347   44.3686 H   0  0  0  0  0  0  0  0  0  0  0  0
   59.1817   29.1462   47.8557 H   0  0  0  0  0  0  0  0  0  0  0  0
   59.3843   31.0042   49.4830 H   0  0  0  0  0  0  0  0  0  0  0  0
   59.2202   33.3607   48.7182 H   0  0  0  0  0  0  0  0  0  0  0  0
   58.2250   30.6940   42.8080 H   0  0  0  0  0  0  0  0  0  0  0  0
   56.6650   30.7430   43.6540 H   0  0  0  0  0  0  0  0  0  0  0  0
   57.8694   33.7389   42.9955 H   0  0  0  0  0  0  0  0  0  0  0  0
   58.4198   35.5159   44.6387 H   0  0  0  0  0  0  0  0  0  0  0  0
   58.2021   26.1907   43.2588 H   0  0  0  0  0  0  0  0  0  0  0  0
   58.0543   23.7824   43.8945 H   0  0  0  0  0  0  0  0  0  0  0  0
   57.1150   23.1288   46.1139 H   0  0  0  0  0  0  0  0  0  0  0  0
   56.3366   24.8884   47.7065 H   0  0  0  0  0  0  0  0  0  0  0  0
   56.4826   27.2975   47.0772 H   0  0  0  0  0  0  0  0  0  0  0  0
  1  2  2  0
  2  3  1  0
  3  4  1  0
  4  5  1  0
  5  6  2  0
  6  7  1  0
  7  8  2  0
  8  9  1  0
  9 10  2  0
 10 11  1  0
 11 12  1  0
 11 13  2  0
 13 14  1  0
 14 15  2  0
 15 16  1  0
  4 17  1  0
 17 18  2  0
 17 19  2  0
 17 20  1  0
 20 21  2  0
 21 22  1  0
 22 23  2  0
 23 24  1  0
 24 25  2  0
 10  5  1  0
 25 20  1  0
 15  9  1  0
  1 26  1  0
  1 27  1  0
  2 28  1  0
  3 29  1  0
  3 30  1  0
  6 31  1  0
  7 32  1  0
  8 33  1  0
 12 34  1  0
 12 35  1  0
 13 36  1  0
 14 37  1  0
 21 38  1  0
 22 39  1  0
 23 40  1  0
 24 41  1  0
 25 42  1  0
M  CHG  2  15   1  16  -1
M  END
>  <UniqueID>  (45) 
40

>  <SMILES>  (45) 
C=CCN(c1cccc2c1c(N)cc[n+]2[O-])S(=O)(=O)c1ccccc1

>  <Energy>  (45) 
61.44771546118432

>  <Genealogy>  (45) 
C=CCN(c1cccc2c1c(N)cc[n+]2[O-])S(=O)(=O)c1ccccc1 (3D coordinates assigned)
C=CCN(c1cccc2c1c(N)cc[n+]2[O-])S(=O)(=O)c1ccccc1 (optimized conformer: 61.44771546118432 kcal/mol)

>  <smiles>  (45) 
C=CCN(c1cccc2c1c(N)cc[n+]2[O-])S(=O)(=O)c1ccccc1

>  <score_type>  (45) 
oracle

>  <origin>  (45) 
adg

>  <m_score__min__energy>  (45) 
-7.5599999999999996

>  <m_primary>  (45) 
energy

$$$$
45:0
     RDKit          3D

 42 44  0  0  0  0  0  0  0  0999 V2000
   53.7390   23.7120   44.9080 C   0  0  0  0  0  0  0  0  0  0  0  0
   54.6680   24.6800   45.5600 C   0  0  0  0  0  0  0  0  0  0  0  0
   55.8910   24.3780   46.1250 C   0  0  0  0  0  0  0  0  0  0  0  0
   56.3340   25.6070   46.5570 C   0  0  0  0  0  0  0  0  0  0  0  0
   57.4620   25.8130   47.1630 N   0  0  0  0  0  0  0  0  0  0  0  0
   58.7740   26.6930   46.4500 S   0  0  0  0  0  0  0  0  0  0  0  0
   59.2810   25.9510   45.2440 O   0  0  0  0  0  0  0  0  0  0  0  0
   59.8930   26.8040   47.4480 O   0  0  0  0  0  0  0  0  0  0  0  0
   58.2380   28.3100   46.0050 C   0  0  0  0  0  0  0  0  0  0  0  0
   57.4630   28.4930   44.8550 C   0  0  0  0  0  0  0  0  0  0  0  0
   57.0490   29.7760   44.4830 C   0  0  0  0  0  0  0  0  0  0  0  0
   57.4060   30.8930   45.2530 C   0  0  0  0  0  0  0  0  0  0  0  0
   56.9590   32.1990   44.8420 N   0  0  0  0  0  0  0  0  0  0  0  0
   58.0070   33.5710   44.6620 S   0  0  0  0  0  0  0  0  0  0  0  0
   58.8330   33.3990   43.4170 O   0  0  0  0  0  0  0  0  0  0  0  0
   57.1750   34.8150   44.5280 O   0  0  0  0  0  0  0  0  0  0  0  0
   59.0410   33.7310   46.0780 C   0  0  0  0  0  0  0  0  0  0  0  0
   60.4240   33.5450   45.9580 C   0  0  0  0  0  0  0  0  0  0  0  0
   61.2530   33.6870   47.0740 C   0  0  0  0  0  0  0  0  0  0  0  0
   60.7090   34.0150   48.3300 C   0  0  0  0  0  0  0  0  0  0  0  0
   61.5590   34.1710   49.4810 N   0  0  0  0  0  0  0  0  0  0  0  0
   62.7210   34.6130   49.3600 O   0  0  0  0  0  0  0  0  0  0  0  0
   61.1050   33.8370   50.7370 O   0  0  0  0  0  0  0  0  0  0  0  0
   59.3190   34.1920   48.4440 C   0  0  0  0  0  0  0  0  0  0  0  0
   58.4920   34.0500   47.3260 C   0  0  0  0  0  0  0  0  0  0  0  0
   58.1970   30.7040   46.4010 C   0  0  0  0  0  0  0  0  0  0  0  0
   58.6080   29.4200   46.7730 C   0  0  0  0  0  0  0  0  0  0  0  0
   55.4380   26.5690   46.2630 N   0  0  0  0  0  0  0  0  0  0  0  0
   54.4490   25.9720   45.6620 O   0  0  0  0  0  0  0  0  0  0  0  0
   53.1968   23.1470   45.6805 H   0  0  0  0  0  0  0  0  0  0  0  0
   53.0196   24.2595   44.2813 H   0  0  0  0  0  0  0  0  0  0  0  0
   54.3156   23.0157   44.2813 H   0  0  0  0  0  0  0  0  0  0  0  0
   56.3871   23.3998   46.2088 H   0  0  0  0  0  0  0  0  0  0  0  0
   57.1784   27.6254   44.2416 H   0  0  0  0  0  0  0  0  0  0  0  0
   56.4378   29.9105   43.5784 H   0  0  0  0  0  0  0  0  0  0  0  0
   55.9360   32.3660   44.7080 H   0  0  0  0  0  0  0  0  0  0  0  0
   60.8593   33.2861   44.9815 H   0  0  0  0  0  0  0  0  0  0  0  0
   62.3384   33.5414   46.9701 H   0  0  0  0  0  0  0  0  0  0  0  0
   58.8790   34.4441   49.4201 H   0  0  0  0  0  0  0  0  0  0  0  0
   57.4056   34.1894   47.4270 H   0  0  0  0  0  0  0  0  0  0  0  0
   58.4939   31.5710   47.0094 H   0  0  0  0  0  0  0  0  0  0  0  0
   59.2248   29.2819   47.6732 H   0  0  0  0  0  0  0  0  0  0  0  0
  1  2  1  0
  2  3  2  0
  3  4  1  0
  4  5  2  3
  5  6  1  0
  6  7  2  0
  6  8  2  0
  6  9  1  0
  9 10  2  0
 10 11  1  0
 11 12  2  0
 12 13  1  0
 13 14  1  0
 14 15  2  0
 14 16  2  0
 14 17  1  0
 17 18  2  0
 18 19  1  0
 19 20  2  0
 20 21  1  0
 21 22  2  0
 21 23  1  0
 20 24  1  0
 24 25  2  0
 12 26  1  0
 26 27  2  0
  4 28  1  0
 28 29  1  0
 29  2  1  0
 27  9  1  0
 25 17  1  0
  1 30  1  0
  1 31  1  0
  1 32  1  0
  3 33  1  0
 10 34  1  0
 11 35  1  0
 13 36  1  0
 18 37  1  0
 19 38  1  0
 24 39  1  0
 25 40  1  0
 26 41  1  0
 27 42  1  0
M  CHG  3  21   1  23  -1  28  -1
M  END
>  <UniqueID>  (46) 
41

>  <SMILES>  (46) 
Cc1cc(=NS(=O)(=O)c2ccc(NS(=O)(=O)c3ccc([N+](=O)[O-])cc3)cc2)[n-]o1

>  <Energy>  (46) 
80.83964386633541

>  <Genealogy>  (46) 
Cc1cc(=NS(=O)(=O)c2ccc(NS(=O)(=O)c3ccc([N+](=O)[O-])cc3)cc2)[n-]o1 (protonated)
Cc1cc(=NS(=O)(=O)c2ccc(NS(=O)(=O)c3ccc([N+](=O)[O-])cc3)cc2)[n-]o1 (3D coordinates assigned)
Cc1cc(=NS(=O)(=O)c2ccc(NS(=O)(=O)c3ccc([N+](=O)[O-])cc3)cc2)[n-]o1 (optimized conformer: 80.83964386633541 kcal/mol)

>  <smiles>  (46) 
Cc1cc(=NS(=O)(=O)c2ccc(NS(=O)(=O)c3ccc([N+](=O)[O-])cc3)cc2)[nH]o1

>  <score_type>  (46) 
oracle

>  <origin>  (46) 
adg

>  <m_score__min__energy>  (46) 
-11.69

>  <m_primary>  (46) 
energy

$$$$
46:0
     RDKit          3D

 45 47  0  0  0  0  0  0  0  0999 V2000
   56.5760   30.7990   53.7950 C   0  0  0  0  0  0  0  0  0  0  0  0
   57.4130   31.6480   52.8860 C   0  0  0  0  0  0  0  0  0  0  0  0
   58.1980   32.6850   53.4120 C   0  0  0  0  0  0  0  0  0  0  0  0
   58.9400   33.5060   52.5600 C   0  0  0  0  0  0  0  0  0  0  0  0
   58.8970   33.3030   51.1770 C   0  0  0  0  0  0  0  0  0  0  0  0
   58.1200   32.2740   50.6350 C   0  0  0  0  0  0  0  0  0  0  0  0
   58.0990   32.1110   49.2410 O   0  0  0  0  0  0  0  0  0  0  0  0
   59.0260   31.3560   48.5070 C   0  0  0  0  0  0  0  0  0  0  0  0
   58.9380   29.9600   48.5590 C   0  0  0  0  0  0  0  0  0  0  0  0
   59.8670   29.1540   47.8770 C   0  0  0  0  0  0  0  0  0  0  0  0
   59.7730   27.7190   47.9320 N   0  0  0  0  0  0  0  0  0  0  0  0
   59.0860   27.0930   47.0970 O   0  0  0  0  0  0  0  0  0  0  0  0
   60.4700   27.0080   48.8810 O   0  0  0  0  0  0  0  0  0  0  0  0
   60.9020   29.7730   47.1590 C   0  0  0  0  0  0  0  0  0  0  0  0
   60.9790   31.1650   47.0810 C   0  0  0  0  0  0  0  0  0  0  0  0
   60.0080   31.9670   47.7020 C   0  0  0  0  0  0  0  0  0  0  0  0
   60.0230   33.3950   47.5650 N   0  0  0  0  0  0  0  0  0  0  0  0
   59.0820   34.2220   46.8640 C   0  0  0  0  0  0  0  0  0  0  0  0
   59.2540   35.4680   46.8730 O   0  0  0  0  0  0  0  0  0  0  0  0
   57.8300   33.6730   46.2360 C   0  0  0  0  0  0  0  0  0  0  0  0
   58.0650   33.3780   44.4520 S   0  0  0  0  0  0  0  0  0  0  0  0
   57.8090   31.6090   44.5540 C   0  0  0  0  0  0  0  0  0  0  0  0
   58.8710   30.7610   44.4970 N   0  0  0  0  0  0  0  0  0  0  0  0
   58.6980   29.4150   44.5830 C   0  0  0  0  0  0  0  0  0  0  0  0
   59.8340   28.5520   44.5720 N   0  0  0  0  0  0  0  0  0  0  0  0
   57.4090   28.8890   44.7060 C   0  0  0  0  0  0  0  0  0  0  0  0
   56.3320   29.7750   44.7520 C   0  0  0  0  0  0  0  0  0  0  0  0
   55.1560   29.3370   44.8600 O   0  0  0  0  0  0  0  0  0  0  0  0
   56.5500   31.1140   44.6870 N   0  0  0  0  0  0  0  0  0  0  0  0
   57.3610   31.4590   51.4960 C   0  0  0  0  0  0  0  0  0  0  0  0
   56.8128   31.0391   54.8420 H   0  0  0  0  0  0  0  0  0  0  0  0
   55.5110   30.9980   53.6050 H   0  0  0  0  0  0  0  0  0  0  0  0
   56.7902   29.7369   53.6050 H   0  0  0  0  0  0  0  0  0  0  0  0
   58.2292   32.8519   54.4988 H   0  0  0  0  0  0  0  0  0  0  0  0
   59.5592   34.3136   52.9775 H   0  0  0  0  0  0  0  0  0  0  0  0
   59.4784   33.9572   50.5107 H   0  0  0  0  0  0  0  0  0  0  0  0
   58.1324   29.4876   49.1403 H   0  0  0  0  0  0  0  0  0  0  0  0
   61.6593   29.1560   46.6532 H   0  0  0  0  0  0  0  0  0  0  0  0
   61.8058   31.6364   46.5294 H   0  0  0  0  0  0  0  0  0  0  0  0
   57.5691   32.7233   46.7258 H   0  0  0  0  0  0  0  0  0  0  0  0
   57.0229   34.4091   46.3649 H   0  0  0  0  0  0  0  0  0  0  0  0
   59.9560   27.8330   45.3190 H   0  0  0  0  0  0  0  0  0  0  0  0
   60.5450   28.6100   43.8080 H   0  0  0  0  0  0  0  0  0  0  0  0
   57.2474   27.8025   44.7651 H   0  0  0  0  0  0  0  0  0  0  0  0
   56.7222   30.6679   51.0763 H   0  0  0  0  0  0  0  0  0  0  0  0
  1  2  1  0
  2  3  2  0
  3  4  1  0
  4  5  2  0
  5  6  1  0
  6  7  1  0
  7  8  1  0
  8  9  2  0
  9 10  1  0
 10 11  1  0
 11 12  2  0
 11 13  1  0
 10 14  2  0
 14 15  1  0
 15 16  2  0
 16 17  1  0
 17 18  1  0
 18 19  2  0
 18 20  1  0
 20 21  1  0
 21 22  1  0
 22 23  2  0
 23 24  1  0
 24 25  1  0
 24 26  2  0
 26 27  1  0
 27 28  2  0
 27 29  1  0
  6 30  2  0
 30  2  1  0
 16  8  1  0
 29 22  1  0
  1 31  1  0
  1 32  1  0
  1 33  1  0
  3 34  1  0
  4 35  1  0
  5 36  1  0
  9 37  1  0
 14 38  1  0
 15 39  1  0
 20 40  1  0
 20 41  1  0
 25 42  1  0
 25 43  1  0
 26 44  1  0
 30 45  1  0
M  CHG  4  11   1  13  -1  17  -1  29  -1
M  END
>  <UniqueID>  (47) 
42

>  <SMILES>  (47) 
Cc1cccc(Oc2cc([N+](=O)[O-])ccc2[N-]C(=O)CSc2nc(N)cc(=O)[n-]2)c1

>  <Energy>  (47) 
52.94743567670584

>  <Genealogy>  (47) 
Cc1cccc(Oc2cc([N+](=O)[O-])ccc2[N-]C(=O)CSc2nc(N)cc(=O)[n-]2)c1 (protonated)
Cc1cccc(Oc2cc([N+](=O)[O-])ccc2[N-]C(=O)CSc2nc(N)cc(=O)[n-]2)c1 (3D coordinates assigned)
Cc1cccc(Oc2cc([N+](=O)[O-])ccc2[N-]C(=O)CSc2nc(N)cc(=O)[n-]2)c1 (optimized conformer: 52.94743567670584 kcal/mol)

>  <smiles>  (47) 
Cc1cccc(Oc2cc([N+](=O)[O-])ccc2NC(=O)CSc2nc(N)cc(=O)[nH]2)c1

>  <score_type>  (47) 
oracle

>  <origin>  (47) 
adg

>  <m_score__min__energy>  (47) 
-12.07

>  <m_primary>  (47) 
energy

$$$$
47:0
     RDKit          3D

 27 29  0  0  0  0  0  0  0  0999 V2000
   56.6460   34.6480   45.2440 O   0  0  0  0  0  0  0  0  0  0  0  0
   57.1520   33.5370   45.5560 C   0  0  0  0  0  0  0  0  0  0  0  0
   56.6450   32.3190   44.9820 N   0  0  0  0  0  0  0  0  0  0  0  0
   57.2500   31.1750   44.8350 C   0  0  0  0  0  0  0  0  0  0  0  0
   58.5690   31.0060   44.5890 N   0  0  0  0  0  0  0  0  0  0  0  0
   58.7210   29.6730   44.5060 C   0  0  0  0  0  0  0  0  0  0  0  0
   57.4910   29.0800   44.7010 C   0  0  0  0  0  0  0  0  0  0  0  0
   56.6080   30.0310   44.9000 O   0  0  0  0  0  0  0  0  0  0  0  0
   58.3120   33.4820   46.4880 C   0  0  0  0  0  0  0  0  0  0  0  0
   58.0970   33.2660   47.8620 C   0  0  0  0  0  0  0  0  0  0  0  0
   59.1130   33.2120   48.7160 O   0  0  0  0  0  0  0  0  0  0  0  0
   60.3770   33.3580   48.3380 C   0  0  0  0  0  0  0  0  0  0  0  0
   61.3960   33.2900   49.2950 C   0  0  0  0  0  0  0  0  0  0  0  0
   62.7330   33.4430   48.9130 C   0  0  0  0  0  0  0  0  0  0  0  0
   63.9990   33.3550   50.1250 Cl  0  0  0  0  0  0  0  0  0  0  0  0
   63.0550   33.6650   47.5680 C   0  0  0  0  0  0  0  0  0  0  0  0
   64.3500   33.8140   47.1910 F   0  0  0  0  0  0  0  0  0  0  0  0
   62.0430   33.7350   46.6060 C   0  0  0  0  0  0  0  0  0  0  0  0
   60.6950   33.5820   46.9820 C   0  0  0  0  0  0  0  0  0  0  0  0
   59.6450   33.6440   46.0480 C   0  0  0  0  0  0  0  0  0  0  0  0
   59.8990   33.8440   44.8290 O   0  0  0  0  0  0  0  0  0  0  0  0
   59.3240   31.7110   44.4570 H   0  0  0  0  0  0  0  0  0  0  0  0
   59.6665   29.1444   44.3149 H   0  0  0  0  0  0  0  0  0  0  0  0
   57.2858   27.9993   44.6914 H   0  0  0  0  0  0  0  0  0  0  0  0
   57.0699   33.1397   48.2351 H   0  0  0  0  0  0  0  0  0  0  0  0
   61.1446   33.1156   50.3516 H   0  0  0  0  0  0  0  0  0  0  0  0
   62.3010   33.9103   45.5512 H   0  0  0  0  0  0  0  0  0  0  0  0
  1  2  2  0
  2  3  1  0
  3  4  2  3
  4  5  1  0
  5  6  1  0
  6  7  2  0
  7  8  1  0
  2  9  1  0
  9 10  2  0
 10 11  1  0
 11 12  1  0
 12 13  2  0
 13 14  1  0
 14 15  1  0
 14 16  2  0
 16 17  1  0
 16 18  1  0
 18 19  2  0
 19 20  1  0
 20 21  2  0
  8  4  1  0
 20  9  1  0
 19 12  1  0
  5 22  1  0
  6 23  1  0
  7 24  1  0
 10 25  1  0
 13 26  1  0
 18 27  1  0
M  END
>  <UniqueID>  (48) 
43

>  <SMILES>  (48) 
O=C(N=c1[nH]cco1)c1coc2cc(Cl)c(F)cc2c1=O

>  <Energy>  (48) 
73.91241104713441

>  <Genealogy>  (48) 
O=C(N=c1[nH]cco1)c1coc2cc(Cl)c(F)cc2c1=O (3D coordinates assigned)
O=C(N=c1[nH]cco1)c1coc2cc(Cl)c(F)cc2c1=O (optimized conformer: 73.91241104713441 kcal/mol)

>  <smiles>  (48) 
O=C(N=c1[nH]cco1)c1coc2cc(Cl)c(F)cc2c1=O

>  <score_type>  (48) 
oracle

>  <origin>  (48) 
adg

>  <m_score__min__energy>  (48) 
-6.6600000000000001

>  <m_primary>  (48) 
energy

$$$$
48:0
     RDKit          3D

 33 35  0  0  0  0  0  0  0  0999 V2000
   58.1760   27.4360   43.4320 C   0  0  0  0  0  0  0  0  0  0  0  0
   58.6720   28.2150   44.5790 N   0  0  0  0  0  0  0  0  0  0  0  0
   59.4200   27.5650   45.5210 C   0  0  0  0  0  0  0  0  0  0  0  0
   59.9240   28.2370   46.6290 C   0  0  0  0  0  0  0  0  0  0  0  0
   59.6630   29.5970   46.8040 C   0  0  0  0  0  0  0  0  0  0  0  0
   60.2370   30.2890   47.9270 N   0  0  0  0  0  0  0  0  0  0  0  0
   61.1370   31.4050   47.8040 C   0  0  0  0  0  0  0  0  0  0  0  0
   62.4190   31.2030   47.2680 C   0  0  0  0  0  0  0  0  0  0  0  0
   63.3030   32.2760   47.1230 C   0  0  0  0  0  0  0  0  0  0  0  0
   62.9120   33.5630   47.5010 C   0  0  0  0  0  0  0  0  0  0  0  0
   63.7690   34.6030   47.3580 F   0  0  0  0  0  0  0  0  0  0  0  0
   61.6320   33.7790   48.0200 C   0  0  0  0  0  0  0  0  0  0  0  0
   60.7450   32.7070   48.1670 C   0  0  0  0  0  0  0  0  0  0  0  0
   58.8940   30.2780   45.8400 C   0  0  0  0  0  0  0  0  0  0  0  0
   58.5870   31.6470   45.9840 C   0  0  0  0  0  0  0  0  0  0  0  0
   57.8230   32.3090   45.0240 C   0  0  0  0  0  0  0  0  0  0  0  0
   57.4200   34.1650   45.2360 Br  0  0  0  0  0  0  0  0  0  0  0  0
   57.3480   31.6180   43.9120 C   0  0  0  0  0  0  0  0  0  0  0  0
   57.6260   30.2610   43.7540 C   0  0  0  0  0  0  0  0  0  0  0  0
   58.3980   29.5610   44.7130 C   0  0  0  0  0  0  0  0  0  0  0  0
   57.6186   26.5606   43.7968 H   0  0  0  0  0  0  0  0  0  0  0  0
   57.5118   28.0651   42.8212 H   0  0  0  0  0  0  0  0  0  0  0  0
   59.0270   27.1003   42.8212 H   0  0  0  0  0  0  0  0  0  0  0  0
   59.6267   26.4914   45.4002 H   0  0  0  0  0  0  0  0  0  0  0  0
   60.5303   27.6952   47.3699 H   0  0  0  0  0  0  0  0  0  0  0  0
   59.9330   30.0030   48.8860 H   0  0  0  0  0  0  0  0  0  0  0  0
   62.7297   30.1937   46.9602 H   0  0  0  0  0  0  0  0  0  0  0  0
   64.3086   32.1068   46.7104 H   0  0  0  0  0  0  0  0  0  0  0  0
   61.3219   34.7929   48.3131 H   0  0  0  0  0  0  0  0  0  0  0  0
   59.7360   32.8828   48.5684 H   0  0  0  0  0  0  0  0  0  0  0  0
   58.9540   32.1979   46.8625 H   0  0  0  0  0  0  0  0  0  0  0  0
   56.7502   32.1458   43.1543 H   0  0  0  0  0  0  0  0  0  0  0  0
   57.2407   29.7270   42.8729 H   0  0  0  0  0  0  0  0  0  0  0  0
  1  2  1  0
  2  3  2  0
  3  4  1  0
  4  5  2  0
  5  6  1  0
  6  7  1  0
  7  8  2  0
  8  9  1  0
  9 10  2  0
 10 11  1  0
 10 12  1  0
 12 13  2  0
  5 14  1  0
 14 15  2  0
 15 16  1  0
 16 17  1  0
 16 18  2  0
 18 19  1  0
 19 20  2  0
 20  2  1  0
 13  7  1  0
 20 14  1  0
  1 21  1  0
  1 22  1  0
  1 23  1  0
  3 24  1  0
  4 25  1  0
  6 26  1  0
  8 27  1  0
  9 28  1  0
 12 29  1  0
 13 30  1  0
 15 31  1  0
 18 32  1  0
 19 33  1  0
M  CHG  1   2   1
M  END
>  <UniqueID>  (49) 
44

>  <SMILES>  (49) 
C[n+]1ccc(Nc2ccc(F)cc2)c2cc(Br)ccc21

>  <Energy>  (49) 
50.10216405264448

>  <Genealogy>  (49) 
C[n+]1ccc(Nc2ccc(F)cc2)c2cc(Br)ccc21 (3D coordinates assigned)
C[n+]1ccc(Nc2ccc(F)cc2)c2cc(Br)ccc21 (optimized conformer: 50.10216405264448 kcal/mol)

>  <smiles>  (49) 
C[n+]1ccc(Nc2ccc(F)cc2)c2cc(Br)ccc21

>  <score_type>  (49) 
oracle

>  <origin>  (49) 
adg

>  <m_score__min__energy>  (49) 
-5.6799999999999997

>  <m_primary>  (49) 
energy

$$$$
49:0
     RDKit          3D

 57 60  0  0  0  0  0  0  0  0999 V2000
   56.7420   21.1590   42.7070 C   0  0  0  0  0  0  0  0  0  0  0  0
   55.9060   22.2400   43.0490 O   0  0  0  0  0  0  0  0  0  0  0  0
   56.3000   23.1100   44.0410 C   0  0  0  0  0  0  0  0  0  0  0  0
   55.6730   23.2110   45.2660 C   0  0  0  0  0  0  0  0  0  0  0  0
   56.0760   24.0850   46.2500 C   0  0  0  0  0  0  0  0  0  0  0  0
   57.1640   24.8910   45.9790 C   0  0  0  0  0  0  0  0  0  0  0  0
   57.7090   25.8760   46.9360 C   0  0  0  0  0  0  0  0  0  0  0  0
   57.5400   27.2780   46.4810 C   0  0  0  0  0  0  0  0  0  0  0  0
   58.3610   28.3100   46.8950 C   0  0  0  0  0  0  0  0  0  0  0  0
   58.1690   29.6200   46.4430 C   0  0  0  0  0  0  0  0  0  0  0  0
   59.0370   30.7380   46.8750 C   0  0  0  0  0  0  0  0  0  0  0  0
   59.1450   31.8380   45.8720 C   0  0  0  0  0  0  0  0  0  0  0  0
   58.6480   33.1650   46.3350 C   0  0  0  0  0  0  0  0  0  0  0  0
   59.2020   33.5530   47.5890 N   0  0  0  0  0  0  0  0  0  0  0  0
   60.1560   34.6070   47.5350 C   0  0  0  0  0  0  0  0  0  0  0  0
   61.5460   34.1590   47.7870 C   0  0  0  0  0  0  0  0  0  0  0  0
   62.0880   34.2170   49.0730 C   0  0  0  0  0  0  0  0  0  0  0  0
   63.3830   33.8100   49.3280 C   0  0  0  0  0  0  0  0  0  0  0  0
   64.1980   33.3310   48.3360 C   0  0  0  0  0  0  0  0  0  0  0  0
   63.6840   33.2660   47.0580 C   0  0  0  0  0  0  0  0  0  0  0  0
   62.3840   33.6750   46.8060 C   0  0  0  0  0  0  0  0  0  0  0  0
   59.4390   32.5140   48.5290 C   0  0  0  0  0  0  0  0  0  0  0  0
   58.6410   31.2600   48.2390 C   0  0  0  0  0  0  0  0  0  0  0  0
   57.1340   29.7810   45.5870 N   0  0  0  0  0  0  0  0  0  0  0  0
   56.3440   28.7650   45.1940 C   0  0  0  0  0  0  0  0  0  0  0  0
   55.3870   29.0650   44.3680 N   0  0  0  0  0  0  0  0  0  0  0  0
   56.5080   27.4980   45.6140 N   0  0  0  0  0  0  0  0  0  0  0  0
   57.8100   24.8020   44.7440 C   0  0  0  0  0  0  0  0  0  0  0  0
   57.3910   23.9200   43.7700 C   0  0  0  0  0  0  0  0  0  0  0  0
   57.1136   20.6785   43.6240 H   0  0  0  0  0  0  0  0  0  0  0  0
   56.1721   20.4278   42.1150 H   0  0  0  0  0  0  0  0  0  0  0  0
   57.5931   21.5267   42.1150 H   0  0  0  0  0  0  0  0  0  0  0  0
   54.8084   22.5610   45.4660 H   0  0  0  0  0  0  0  0  0  0  0  0
   55.5514   24.1393   47.2153 H   0  0  0  0  0  0  0  0  0  0  0  0
   57.1903   25.7544   47.8984 H   0  0  0  0  0  0  0  0  0  0  0  0
   58.7888   25.6862   47.0260 H   0  0  0  0  0  0  0  0  0  0  0  0
   59.1826   28.0968   47.5946 H   0  0  0  0  0  0  0  0  0  0  0  0
   60.0481   30.3125   46.9565 H   0  0  0  0  0  0  0  0  0  0  0  0
   60.2048   31.9472   45.5984 H   0  0  0  0  0  0  0  0  0  0  0  0
   58.5031   31.5474   45.0273 H   0  0  0  0  0  0  0  0  0  0  0  0
   58.9145   33.9224   45.5831 H   0  0  0  0  0  0  0  0  0  0  0  0
   57.5585   33.0851   46.4637 H   0  0  0  0  0  0  0  0  0  0  0  0
   60.1133   35.0645   46.5356 H   0  0  0  0  0  0  0  0  0  0  0  0
   59.8962   35.3200   48.3313 H   0  0  0  0  0  0  0  0  0  0  0  0
   61.4700   34.5951   49.9007 H   0  0  0  0  0  0  0  0  0  0  0  0
   63.7707   33.8721   50.3555 H   0  0  0  0  0  0  0  0  0  0  0  0
   65.2275   33.0092   48.5518 H   0  0  0  0  0  0  0  0  0  0  0  0
   64.3084   32.8879   46.2351 H   0  0  0  0  0  0  0  0  0  0  0  0
   62.0038   33.6103   45.7758 H   0  0  0  0  0  0  0  0  0  0  0  0
   60.5093   32.2608   48.5091 H   0  0  0  0  0  0  0  0  0  0  0  0
   59.1228   32.8844   49.5153 H   0  0  0  0  0  0  0  0  0  0  0  0
   58.8564   30.4990   49.0035 H   0  0  0  0  0  0  0  0  0  0  0  0
   57.5650   31.4881   48.2553 H   0  0  0  0  0  0  0  0  0  0  0  0
   56.9740   30.7510   45.2390 H   0  0  0  0  0  0  0  0  0  0  0  0
   54.3850   28.9740   44.5560 H   0  0  0  0  0  0  0  0  0  0  0  0
   58.6746   25.4516   44.5431 H   0  0  0  0  0  0  0  0  0  0  0  0
   57.9101   23.8611   42.8020 H   0  0  0  0  0  0  0  0  0  0  0  0
  1  2  1  0
  2  3  1  0
  3  4  2  0
  4  5  1  0
  5  6  2  0
  6  7  1  0
  7  8  1  0
  8  9  1  0
  9 10  2  0
 10 11  1  0
 11 12  1  0
 12 13  1  0
 13 14  1  0
 14 15  1  0
 15 16  1  0
 16 17  2  0
 17 18  1  0
 18 19  2  0
 19 20  1  0
 20 21  2  0
 14 22  1  0
 22 23  1  0
 10 24  1  0
 24 25  1  0
 25 26  2  3
 25 27  1  0
  6 28  1  0
 28 29  2  0
 29  3  1  0
 27  8  2  0
 23 11  1  0
 21 16  1  0
  1 30  1  0
  1 31  1  0
  1 32  1  0
  4 33  1  0
  5 34  1  0
  7 35  1  0
  7 36  1  0
  9 37  1  0
 11 38  1  0
 12 39  1  0
 12 40  1  0
 13 41  1  0
 13 42  1  0
 15 43  1  0
 15 44  1  0
 17 45  1  0
 18 46  1  0
 19 47  1  0
 20 48  1  0
 21 49  1  0
 22 50  1  0
 22 51  1  0
 23 52  1  0
 23 53  1  0
 24 54  1  0
 26 55  1  0
 28 56  1  0
 29 57  1  0
M  END
>  <smiles>  (50) 
COc1ccc(Cc2cc(C3CCN(Cc4ccccc4)CC3)[nH]c(=N)n2)cc1

>  <score_type>  (50) 
oracle

>  <origin>  (50) 
adg

>  <m_score__min__energy>  (50) 
-8.7300000000000004

>  <m_primary>  (50) 
energy

$$$$
50:0
     RDKit          3D

 32 33  0  0  0  0  0  0  0  0999 V2000
   57.7100   26.8850   47.4590 O   0  0  0  0  0  0  0  0  0  0  0  0
   56.8570   26.5290   46.6000 C   0  0  0  0  0  0  0  0  0  0  0  0
   56.3710   27.4820   45.6390 N   0  0  0  0  0  0  0  0  0  0  0  0
   56.8720   28.8590   45.5840 C   0  0  1  0  0  0  0  0  0  0  0  0
   58.2810   28.8750   44.9650 C   0  0  0  0  0  0  0  0  0  0  0  0
   59.1920   29.8440   45.6770 C   0  0  0  0  0  0  0  0  0  0  0  0
   60.3260   29.3730   46.3600 C   0  0  0  0  0  0  0  0  0  0  0  0
   61.1570   30.2650   47.0450 C   0  0  0  0  0  0  0  0  0  0  0  0
   60.8570   31.6310   47.0580 C   0  0  0  0  0  0  0  0  0  0  0  0
   59.7260   32.1050   46.3900 C   0  0  0  0  0  0  0  0  0  0  0  0
   58.8930   31.2160   45.7030 C   0  0  0  0  0  0  0  0  0  0  0  0
   55.9180   29.7210   44.8010 C   0  0  0  0  0  0  0  0  0  0  0  0
   54.8220   29.2540   44.3910 O   0  0  0  0  0  0  0  0  0  0  0  0
   56.2480   31.0410   44.5180 O   0  0  0  0  0  0  0  0  0  0  0  0
   56.3670   25.1330   46.5900 C   0  0  0  0  0  0  0  0  0  0  0  0
   57.1080   24.1000   47.1840 C   0  0  0  0  0  0  0  0  0  0  0  0
   56.5970   22.8000   47.1450 C   0  0  0  0  0  0  0  0  0  0  0  0
   57.2390   21.8530   47.6680 O   0  0  0  0  0  0  0  0  0  0  0  0
   55.4060   22.5590   46.5410 N   0  0  0  0  0  0  0  0  0  0  0  0
   54.6970   23.5670   45.9690 C   0  0  0  0  0  0  0  0  0  0  0  0
   53.5950   23.3240   45.4130 O   0  0  0  0  0  0  0  0  0  0  0  0
   55.1780   24.8370   45.9970 N   0  0  0  0  0  0  0  0  0  0  0  0
   55.7230   27.1540   44.8870 H   0  0  0  0  0  0  0  0  0  0  0  0
   56.9409   29.2689   46.6025 H   0  0  0  0  0  0  0  0  0  0  0  0
   58.7117   27.8651   45.0329 H   0  0  0  0  0  0  0  0  0  0  0  0
   58.1914   29.1956   43.9166 H   0  0  0  0  0  0  0  0  0  0  0  0
   60.5610   28.2984   46.3558 H   0  0  0  0  0  0  0  0  0  0  0  0
   62.0467   29.8923   47.5737 H   0  0  0  0  0  0  0  0  0  0  0  0
   61.5125   32.3325   47.5948 H   0  0  0  0  0  0  0  0  0  0  0  0
   59.4899   33.1793   46.4041 H   0  0  0  0  0  0  0  0  0  0  0  0
   58.0008   31.5926   45.1814 H   0  0  0  0  0  0  0  0  0  0  0  0
   58.0720   24.3094   47.6707 H   0  0  0  0  0  0  0  0  0  0  0  0
  1  2  2  0
  2  3  1  0
  3  4  1  0
  4  5  1  0
  5  6  1  0
  6  7  2  0
  7  8  1  0
  8  9  2  0
  9 10  1  0
 10 11  2  0
  4 12  1  0
 12 13  2  0
 12 14  1  0
  2 15  1  0
 15 16  2  0
 16 17  1  0
 17 18  2  0
 17 19  1  0
 19 20  1  0
 20 21  2  0
 20 22  1  0
 11  6  1  0
 22 15  1  0
  3 23  1  0
  4 24  1  1
  5 25  1  0
  5 26  1  0
  7 27  1  0
  8 28  1  0
  9 29  1  0
 10 30  1  0
 11 31  1  0
 16 32  1  0
M  CHG  3  14  -1  19  -1  22  -1
M  END
>  <UniqueID>  (51) 
45

>  <SMILES>  (51) 
O=C(N[C@@H](Cc1ccccc1)C(=O)[O-])c1cc(=O)[n-]c(=O)[n-]1

>  <Energy>  (51) 
30.852442111468793

>  <Genealogy>  (51) 
O=C(NC(Cc1ccccc1)C(=O)[O-])c1cc(=O)[n-]c(=O)[n-]1 (protonated)
O=C(N[C@@H](Cc1ccccc1)C(=O)[O-])c1cc(=O)[n-]c(=O)[n-]1 (chirality)
O=C(N[C@@H](Cc1ccccc1)C(=O)[O-])c1cc(=O)[n-]c(=O)[n-]1 (3D coordinates assigned)
O=C(N[C@@H](Cc1ccccc1)C(=O)[O-])c1cc(=O)[n-]c(=O)[n-]1 (optimized conformer: 30.852442111468793 kcal/mol)

>  <smiles>  (51) 
O=C(NC(Cc1ccccc1)C(=O)O)c1cc(=O)[nH]c(=O)[nH]1

>  <score_type>  (51) 
oracle

>  <origin>  (51) 
adg

>  <m_score__min__energy>  (51) 
-12.23

>  <m_primary>  (51) 
energy

$$$$
51:0
     RDKit          3D

 48 51  0  0  0  0  0  0  0  0999 V2000
   59.6390   35.5940   45.2510 C   0  0  0  0  0  0  0  0  0  0  0  0
   59.2610   34.6680   46.3780 C   0  0  0  0  0  0  0  0  0  0  0  0
   60.0820   34.6300   47.5200 C   0  0  0  0  0  0  0  0  0  0  0  0
   59.7540   33.8180   48.6050 C   0  0  0  0  0  0  0  0  0  0  0  0
   58.6070   33.0300   48.5670 C   0  0  0  0  0  0  0  0  0  0  0  0
   57.7850   33.0430   47.4400 C   0  0  0  0  0  0  0  0  0  0  0  0
   58.1020   33.8440   46.3250 C   0  0  0  0  0  0  0  0  0  0  0  0
   57.2060   33.7980   45.1430 C   0  0  0  0  0  0  0  0  0  0  0  0
   56.4650   34.7800   44.8700 O   0  0  0  0  0  0  0  0  0  0  0  0
   57.2410   32.6630   44.2670 N   0  0  0  0  0  0  0  0  0  0  0  0
   57.4510   31.2990   44.6580 C   0  0  0  0  0  0  0  0  0  0  0  0
   56.5800   30.3050   44.1490 C   0  0  0  0  0  0  0  0  0  0  0  0
   56.7430   28.9530   44.5010 C   0  0  0  0  0  0  0  0  0  0  0  0
   57.8090   28.6250   45.3380 C   0  0  0  0  0  0  0  0  0  0  0  0
   58.6820   29.5710   45.8000 C   0  0  0  0  0  0  0  0  0  0  0  0
   58.5280   30.9240   45.4960 C   0  0  0  0  0  0  0  0  0  0  0  0
   59.5710   28.8770   46.6060 C   0  0  0  0  0  0  0  0  0  0  0  0
   60.7070   29.4170   47.3700 C   0  0  0  0  0  0  0  0  0  0  0  0
   61.0920   28.8010   48.4000 O   0  0  0  0  0  0  0  0  0  0  0  0
   61.3760   30.6140   46.9390 N   0  0  0  0  0  0  0  0  0  0  0  0
   62.2200   31.4130   47.7830 C   0  0  0  0  0  0  0  0  0  0  0  0
   62.0970   31.2990   49.1770 C   0  0  0  0  0  0  0  0  0  0  0  0
   62.8950   32.0750   50.0230 C   0  0  0  0  0  0  0  0  0  0  0  0
   63.8100   32.9830   49.4840 C   0  0  0  0  0  0  0  0  0  0  0  0
   63.9210   33.1220   48.0980 C   0  0  0  0  0  0  0  0  0  0  0  0
   63.1270   32.3450   47.2470 C   0  0  0  0  0  0  0  0  0  0  0  0
   59.2080   27.5710   46.6290 N   0  0  0  0  0  0  0  0  0  0  0  0
   58.1460   27.4250   45.8440 N   0  0  0  0  0  0  0  0  0  0  0  0
   57.4530   26.1590   45.6390 C   0  0  0  0  0  0  0  0  0  0  0  0
   60.0241   36.5375   45.6652 H   0  0  0  0  0  0  0  0  0  0  0  0
   60.4159   35.1208   44.6326 H   0  0  0  0  0  0  0  0  0  0  0  0
   58.7529   35.7997   44.6326 H   0  0  0  0  0  0  0  0  0  0  0  0
   60.9918   35.2471   47.5572 H   0  0  0  0  0  0  0  0  0  0  0  0
   60.4030   33.8000   49.4930 H   0  0  0  0  0  0  0  0  0  0  0  0
   58.3483   32.3957   49.4276 H   0  0  0  0  0  0  0  0  0  0  0  0
   56.8784   32.4204   47.4216 H   0  0  0  0  0  0  0  0  0  0  0  0
   55.7650   30.5942   43.4692 H   0  0  0  0  0  0  0  0  0  0  0  0
   56.0534   28.1810   44.1289 H   0  0  0  0  0  0  0  0  0  0  0  0
   59.2231   31.6769   45.8958 H   0  0  0  0  0  0  0  0  0  0  0  0
   61.1370   31.0020   45.9990 H   0  0  0  0  0  0  0  0  0  0  0  0
   61.3686   30.5951   49.6060 H   0  0  0  0  0  0  0  0  0  0  0  0
   62.8024   31.9706   51.1141 H   0  0  0  0  0  0  0  0  0  0  0  0
   64.4425   33.5880   50.1502 H   0  0  0  0  0  0  0  0  0  0  0  0
   64.6345   33.8442   47.6747 H   0  0  0  0  0  0  0  0  0  0  0  0
   63.2123   32.4633   46.1567 H   0  0  0  0  0  0  0  0  0  0  0  0
   57.2087   25.7126   46.6142 H   0  0  0  0  0  0  0  0  0  0  0  0
   56.5259   26.3358   45.0740 H   0  0  0  0  0  0  0  0  0  0  0  0
   58.1015   25.4733   45.0740 H   0  0  0  0  0  0  0  0  0  0  0  0
  1  2  1  0
  2  3  2  0
  3  4  1  0
  4  5  2  0
  5  6  1  0
  6  7  2  0
  7  8  1  0
  8  9  2  0
  8 10  1  0
 10 11  1  0
 11 12  2  0
 12 13  1  0
 13 14  2  0
 14 15  1  0
 15 16  2  0
 15 17  1  0
 17 18  1  0
 18 19  2  0
 18 20  1  0
 20 21  1  0
 21 22  2  0
 22 23  1  0
 23 24  2  0
 24 25  1  0
 25 26  2  0
 17 27  2  0
 27 28  1  0
 28 29  1  0
  7  2  1  0
 16 11  1  0
 26 21  1  0
 28 14  1  0
  1 30  1  0
  1 31  1  0
  1 32  1  0
  3 33  1  0
  4 34  1  0
  5 35  1  0
  6 36  1  0
 12 37  1  0
 13 38  1  0
 16 39  1  0
 20 40  1  0
 22 41  1  0
 23 42  1  0
 24 43  1  0
 25 44  1  0
 26 45  1  0
 29 46  1  0
 29 47  1  0
 29 48  1  0
M  CHG  1  10  -1
M  END
>  <UniqueID>  (52) 
46

>  <SMILES>  (52) 
Cc1ccccc1C(=O)[N-]c1ccc2c(c1)c(C(=O)Nc1ccccc1)nn2C

>  <Energy>  (52) 
105.0515226832427

>  <Genealogy>  (52) 
Cc1ccccc1C(=O)[N-]c1ccc2c(c1)c(C(=O)Nc1ccccc1)nn2C (protonated)
Cc1ccccc1C(=O)[N-]c1ccc2c(c1)c(C(=O)Nc1ccccc1)nn2C (3D coordinates assigned)
Cc1ccccc1C(=O)[N-]c1ccc2c(c1)c(C(=O)Nc1ccccc1)nn2C (optimized conformer: 105.0515226832427 kcal/mol)

>  <smiles>  (52) 
Cc1ccccc1C(=O)Nc1ccc2c(c1)c(C(=O)Nc1ccccc1)nn2C

>  <score_type>  (52) 
oracle

>  <origin>  (52) 
adg

>  <m_score__min__energy>  (52) 
-10.99

>  <m_primary>  (52) 
energy

$$$$
52:0
     RDKit          3D

 50 52  0  0  1  0  0  0  0  0999 V2000
   64.7320   33.1140   49.4910 C   0  0  0  0  0  0  0  0  0  0  0  0
   63.7180   33.2630   48.4660 N   0  0  0  0  0  0  0  0  0  0  0  0
   63.3310   31.9780   47.9240 C   0  0  0  0  0  0  0  0  0  0  0  0
   62.6010   34.0370   48.9580 C   0  0  0  0  0  0  0  0  0  0  0  0
   61.4060   33.9760   48.0860 C   0  0  0  0  0  0  0  0  0  0  0  0
   60.1400   33.7040   48.6120 C   0  0  0  0  0  0  0  0  0  0  0  0
   59.0340   33.6500   47.7870 C   0  0  0  0  0  0  0  0  0  0  0  0
   59.1760   33.8670   46.4160 C   0  0  0  0  0  0  0  0  0  0  0  0
   57.9590   33.7950   45.5900 C   0  0  0  0  0  0  0  0  0  0  0  0
   57.2340   32.5300   45.7540 N   0  0  0  0  0  0  0  0  0  0  0  0
   57.9660   31.3540   45.4200 C   0  0  0  0  0  0  0  0  0  0  0  0
   59.1570   31.5310   45.0180 O   0  0  0  0  0  0  0  0  0  0  0  0
   57.3670   30.0280   45.5370 C   0  0  0  0  0  0  0  0  0  0  0  0
   57.8420   28.9470   46.2510 C   0  0  0  0  0  0  0  0  0  0  0  0
   56.9300   27.9340   46.0480 C   0  0  0  0  0  0  0  0  0  0  0  0
   56.9540   26.7200   46.5230 N   0  0  0  0  0  0  0  0  0  0  0  0
   56.7670   25.6020   45.6500 C   0  0  0  0  0  0  0  0  0  0  0  0
   57.8200   24.8690   45.1450 C   0  0  0  0  0  0  0  0  0  0  0  0
   57.5340   23.8130   44.3130 C   0  0  0  0  0  0  0  0  0  0  0  0
   56.2300   23.5040   43.9980 C   0  0  0  0  0  0  0  0  0  0  0  0
   55.1780   24.2350   44.4990 C   0  0  0  0  0  0  0  0  0  0  0  0
   55.4400   25.3030   45.3400 C   0  0  0  0  0  0  0  0  0  0  0  0
   54.3960   26.0370   45.8450 O   0  0  0  0  0  0  0  0  0  0  0  0
   55.9530   28.4090   45.2410 N   0  0  0  0  0  0  0  0  0  0  0  0
   56.2180   29.6770   44.9310 N   0  0  0  0  0  0  0  0  0  0  0  0
   60.4190   34.1360   45.8780 C   0  0  0  0  0  0  0  0  0  0  0  0
   61.5110   34.1860   46.7220 C   0  0  0  0  0  0  0  0  0  0  0  0
   64.2629   33.1829   50.4836 H   0  0  0  0  0  0  0  0  0  0  0  0
   65.2207   32.1344   49.3836 H   0  0  0  0  0  0  0  0  0  0  0  0
   65.4819   33.9116   49.3836 H   0  0  0  0  0  0  0  0  0  0  0  0
   63.1210   31.2806   48.7483 H   0  0  0  0  0  0  0  0  0  0  0  0
   62.4290   32.0974   47.3059 H   0  0  0  0  0  0  0  0  0  0  0  0
   64.1489   31.5794   47.3059 H   0  0  0  0  0  0  0  0  0  0  0  0
   62.3254   33.6560   49.9524 H   0  0  0  0  0  0  0  0  0  0  0  0
   62.9252   35.0877   48.9869 H   0  0  0  0  0  0  0  0  0  0  0  0
   60.0237   33.5315   49.6921 H   0  0  0  0  0  0  0  0  0  0  0  0
   58.0416   33.4360   48.2104 H   0  0  0  0  0  0  0  0  0  0  0  0
   57.2917   34.6219   45.8747 H   0  0  0  0  0  0  0  0  0  0  0  0
   58.2691   33.8646   44.5369 H   0  0  0  0  0  0  0  0  0  0  0  0
   56.2640   32.4750   46.0870 H   0  0  0  0  0  0  0  0  0  0  0  0
   58.7590   28.9029   46.8569 H   0  0  0  0  0  0  0  0  0  0  0  0
   58.8595   25.1222   45.4007 H   0  0  0  0  0  0  0  0  0  0  0  0
   58.3537   23.2099   43.8955 H   0  0  0  0  0  0  0  0  0  0  0  0
   56.0248   22.6538   43.3309 H   0  0  0  0  0  0  0  0  0  0  0  0
   54.1424   23.9745   44.2350 H   0  0  0  0  0  0  0  0  0  0  0  0
   54.3940   26.5210   46.7210 H   0  0  0  0  0  0  0  0  0  0  0  0
   55.1290   27.8480   44.9240 H   0  0  0  0  0  0  0  0  0  0  0  0
   55.6400   30.3040   44.3230 H   0  0  0  0  0  0  0  0  0  0  0  0
   60.5371   34.3072   44.7978 H   0  0  0  0  0  0  0  0  0  0  0  0
   62.5014   34.4008   46.2941 H   0  0  0  0  0  0  0  0  0  0  0  0
  1  2  1  0
  2  3  1  0
  2  4  1  0
  4  5  1  0
  5  6  2  0
  6  7  1  0
  7  8  2  0
  8  9  1  0
  9 10  1  0
 10 11  1  0
 11 12  2  0
 11 13  1  0
 13 14  2  0
 14 15  1  0
 15 16  2  0
 16 17  1  0
 17 18  2  0
 18 19  1  0
 19 20  2  0
 20 21  1  0
 21 22  2  0
 22 23  1  0
 15 24  1  0
 24 25  1  0
  8 26  1  0
 26 27  2  0
 27  5  1  0
 25 13  1  0
 22 17  1  0
  1 28  1  0
  1 29  1  0
  1 30  1  0
  3 31  1  0
  3 32  1  0
  3 33  1  0
  4 34  1  0
  4 35  1  0
  6 36  1  0
  7 37  1  0
  9 38  1  0
  9 39  1  0
 10 40  1  0
 14 41  1  0
 18 42  1  0
 19 43  1  0
 20 44  1  0
 21 45  1  0
 23 46  1  0
 24 47  1  0
 25 48  1  0
 26 49  1  0
 27 50  1  0
M  END
>  <smiles>  (53) 
CN(C)Cc1ccc(CNC(=O)c2cc(=Nc3ccccc3O)[nH][nH]2)cc1

>  <score_type>  (53) 
oracle

>  <origin>  (53) 
adg

>  <m_score__min__energy>  (53) 
-9.6400000000000006

>  <m_primary>  (53) 
energy

$$$$
53:0
     RDKit          3D

 35 37  0  0  0  0  0  0  0  0999 V2000
   58.0920   32.6730   42.0220 O   0  0  0  0  0  0  0  0  0  0  0  0
   58.1340   32.6730   43.2810 C   0  0  0  0  0  0  0  0  0  0  0  0
   58.7580   33.7100   44.0390 N   0  0  0  0  0  0  0  0  0  0  0  0
   58.6430   33.3540   45.2810 C   0  0  0  0  0  0  0  0  0  0  0  0
   59.1690   34.1700   46.4210 C   0  0  0  0  0  0  0  0  0  0  0  0
   60.4330   33.5550   46.9690 C   0  0  0  0  0  0  0  0  0  0  0  0
   61.6600   33.8330   46.3390 C   0  0  0  0  0  0  0  0  0  0  0  0
   62.8510   33.3020   46.8390 C   0  0  0  0  0  0  0  0  0  0  0  0
   62.8340   32.4970   47.9790 C   0  0  0  0  0  0  0  0  0  0  0  0
   61.6260   32.2240   48.6240 C   0  0  0  0  0  0  0  0  0  0  0  0
   60.4250   32.7510   48.1310 C   0  0  0  0  0  0  0  0  0  0  0  0
   58.9380   32.3850   49.0000 Cl  0  0  0  0  0  0  0  0  0  0  0  0
   57.9460   32.0770   45.3840 C   0  0  0  0  0  0  0  0  0  0  0  0
   57.7190   31.4370   46.4450 O   0  0  0  0  0  0  0  0  0  0  0  0
   57.5770   31.6370   44.0860 N   0  0  0  0  0  0  0  0  0  0  0  0
   57.2850   30.2660   43.6750 C   0  0  0  0  0  0  0  0  0  0  0  0
   58.0030   29.2840   44.5640 C   0  0  0  0  0  0  0  0  0  0  0  0
   59.4030   29.3390   44.6790 C   0  0  0  0  0  0  0  0  0  0  0  0
   60.0780   28.4580   45.5300 C   0  0  0  0  0  0  0  0  0  0  0  0
   59.3610   27.5180   46.2760 C   0  0  0  0  0  0  0  0  0  0  0  0
   57.9700   27.4580   46.1730 C   0  0  0  0  0  0  0  0  0  0  0  0
   57.2880   28.3380   45.3240 C   0  0  0  0  0  0  0  0  0  0  0  0
   55.9350   28.2600   45.2420 F   0  0  0  0  0  0  0  0  0  0  0  0
   59.3854   35.1890   46.0678 H   0  0  0  0  0  0  0  0  0  0  0  0
   58.4117   34.1990   47.2182 H   0  0  0  0  0  0  0  0  0  0  0  0
   61.6814   34.4739   45.4452 H   0  0  0  0  0  0  0  0  0  0  0  0
   63.8038   33.5185   46.3336 H   0  0  0  0  0  0  0  0  0  0  0  0
   63.7728   32.0774   48.3696 H   0  0  0  0  0  0  0  0  0  0  0  0
   61.6172   31.5917   49.5241 H   0  0  0  0  0  0  0  0  0  0  0  0
   56.2012   30.0907   43.7433 H   0  0  0  0  0  0  0  0  0  0  0  0
   57.6276   30.1246   42.6393 H   0  0  0  0  0  0  0  0  0  0  0  0
   59.9709   30.0793   44.0963 H   0  0  0  0  0  0  0  0  0  0  0  0
   61.1739   28.5048   45.6124 H   0  0  0  0  0  0  0  0  0  0  0  0
   59.8931   26.8252   46.9445 H   0  0  0  0  0  0  0  0  0  0  0  0
   57.4081   26.7171   46.7607 H   0  0  0  0  0  0  0  0  0  0  0  0
  1  2  2  0
  2  3  1  0
  3  4  2  0
  4  5  1  0
  5  6  1  0
  6  7  2  0
  7  8  1  0
  8  9  2  0
  9 10  1  0
 10 11  2  0
 11 12  1  0
  4 13  1  0
 13 14  2  0
 13 15  1  0
 15 16  1  0
 16 17  1  0
 17 18  2  0
 18 19  1  0
 19 20  2  0
 20 21  1  0
 21 22  2  0
 22 23  1  0
 15  2  1  0
 22 17  1  0
 11  6  1  0
  5 24  1  0
  5 25  1  0
  7 26  1  0
  8 27  1  0
  9 28  1  0
 10 29  1  0
 16 30  1  0
 16 31  1  0
 18 32  1  0
 19 33  1  0
 20 34  1  0
 21 35  1  0
M  END
>  <UniqueID>  (54) 
47

>  <SMILES>  (54) 
O=C1N=C(Cc2ccccc2Cl)C(=O)N1Cc1ccccc1F

>  <Energy>  (54) 
65.05209237003376

>  <Genealogy>  (54) 
O=C1N=C(Cc2ccccc2Cl)C(=O)N1Cc1ccccc1F (3D coordinates assigned)
O=C1N=C(Cc2ccccc2Cl)C(=O)N1Cc1ccccc1F (nonaromatic ring conformer: 65.05209237003376 kcal/mol)

>  <smiles>  (54) 
O=C1N=C(Cc2ccccc2Cl)C(=O)N1Cc1ccccc1F

>  <score_type>  (54) 
oracle

>  <origin>  (54) 
adg

>  <m_score__min__energy>  (54) 
-8.0600000000000005

>  <m_primary>  (54) 
energy

$$$$
54:0
     RDKit          3D

 59 61  0  0  0  0  0  0  0  0999 V2000
   63.3810   33.8430   46.1260 C   0  0  0  0  0  0  0  0  0  0  0  0
   63.3830   33.0420   47.4270 C   0  0  0  0  0  0  0  0  0  0  0  0
   62.7820   33.8310   48.6010 C   0  0  0  0  0  0  0  0  0  0  0  0
   61.3930   33.4220   48.8730 N   0  0  0  0  0  0  0  0  0  0  0  0
   60.8940   33.5210   50.2220 C   0  0  0  0  0  0  0  0  0  0  0  0
   61.7630   33.3630   51.3120 C   0  0  0  0  0  0  0  0  0  0  0  0
   61.2830   33.4530   52.6200 C   0  0  0  0  0  0  0  0  0  0  0  0
   59.9190   33.6990   52.8680 C   0  0  0  0  0  0  0  0  0  0  0  0
   59.3900   33.8060   54.2550 C   0  0  0  0  0  0  0  0  0  0  0  0
   59.3000   32.6150   55.1620 C   0  0  0  0  0  0  0  0  0  0  0  0
   59.0120   34.9250   54.6960 O   0  0  0  0  0  0  0  0  0  0  0  0
   59.0500   33.8450   51.7700 C   0  0  0  0  0  0  0  0  0  0  0  0
   59.5320   33.7530   50.4620 C   0  0  0  0  0  0  0  0  0  0  0  0
   60.5120   32.9440   47.8260 C   0  0  0  0  0  0  0  0  0  0  0  0
   59.8600   33.8440   47.0440 N   0  0  0  0  0  0  0  0  0  0  0  0
   59.0350   33.4700   46.0350 C   0  0  0  0  0  0  0  0  0  0  0  0
   58.3860   34.5520   45.2210 C   0  0  0  0  0  0  0  0  0  0  0  0
   58.8320   32.0960   45.7740 C   0  0  0  0  0  0  0  0  0  0  0  0
   57.9770   31.6350   44.6500 C   0  0  0  0  0  0  0  0  0  0  0  0
   58.2110   32.0200   43.4720 O   0  0  0  0  0  0  0  0  0  0  0  0
   56.8960   30.7860   44.9090 O   0  0  0  0  0  0  0  0  0  0  0  0
   55.9760   30.3740   43.9060 C   0  0  0  0  0  0  0  0  0  0  0  0
   56.6420   29.3520   43.0010 C   0  0  0  0  0  0  0  0  0  0  0  0
   59.5150   31.1680   46.5960 C   0  0  0  0  0  0  0  0  0  0  0  0
   59.3350   29.7050   46.4300 C   0  0  0  0  0  0  0  0  0  0  0  0
   59.4850   29.1290   45.1590 C   0  0  0  0  0  0  0  0  0  0  0  0
   59.3350   27.7500   44.9870 C   0  0  0  0  0  0  0  0  0  0  0  0
   59.0280   26.9370   46.0810 C   0  0  0  0  0  0  0  0  0  0  0  0
   58.8480   25.2050   45.8630 Cl  0  0  0  0  0  0  0  0  0  0  0  0
   58.8670   27.5030   47.3490 C   0  0  0  0  0  0  0  0  0  0  0  0
   59.0170   28.8830   47.5310 C   0  0  0  0  0  0  0  0  0  0  0  0
   58.8480   29.5430   49.1540 Cl  0  0  0  0  0  0  0  0  0  0  0  0
   60.3330   31.6120   47.5920 N   0  0  0  0  0  0  0  0  0  0  0  0
   63.3783   34.9184   46.3575 H   0  0  0  0  0  0  0  0  0  0  0  0
   64.2798   33.5959   45.5419 H   0  0  0  0  0  0  0  0  0  0  0  0
   62.4835   33.5914   45.5419 H   0  0  0  0  0  0  0  0  0  0  0  0
   62.7933   32.1254   47.2785 H   0  0  0  0  0  0  0  0  0  0  0  0
   64.4290   32.8118   47.6778 H   0  0  0  0  0  0  0  0  0  0  0  0
   63.3898   33.6518   49.5002 H   0  0  0  0  0  0  0  0  0  0  0  0
   62.7811   34.8982   48.3345 H   0  0  0  0  0  0  0  0  0  0  0  0
   62.8307   33.1667   51.1348 H   0  0  0  0  0  0  0  0  0  0  0  0
   61.9769   33.3306   53.4647 H   0  0  0  0  0  0  0  0  0  0  0  0
   59.3253   32.9492   56.2097 H   0  0  0  0  0  0  0  0  0  0  0  0
   58.3588   32.0788   54.9708 H   0  0  0  0  0  0  0  0  0  0  0  0
   60.1500   31.9434   54.9708 H   0  0  0  0  0  0  0  0  0  0  0  0
   57.9803   34.0335   51.9438 H   0  0  0  0  0  0  0  0  0  0  0  0
   58.8388   33.8632   49.6151 H   0  0  0  0  0  0  0  0  0  0  0  0
   57.9383   35.2984   45.8937 H   0  0  0  0  0  0  0  0  0  0  0  0
   59.1423   35.0371   44.5865 H   0  0  0  0  0  0  0  0  0  0  0  0
   57.6019   34.1132   44.5865 H   0  0  0  0  0  0  0  0  0  0  0  0
   55.0924   29.9230   44.3812 H   0  0  0  0  0  0  0  0  0  0  0  0
   55.6659   31.2456   43.3109 H   0  0  0  0  0  0  0  0  0  0  0  0
   57.1401   28.5876   43.6154 H   0  0  0  0  0  0  0  0  0  0  0  0
   55.8816   28.8738   42.3661 H   0  0  0  0  0  0  0  0  0  0  0  0
   57.3866   29.8545   42.3661 H   0  0  0  0  0  0  0  0  0  0  0  0
   59.7218   29.7659   44.2940 H   0  0  0  0  0  0  0  0  0  0  0  0
   59.4588   27.3043   43.9890 H   0  0  0  0  0  0  0  0  0  0  0  0
   58.6213   26.8611   48.2078 H   0  0  0  0  0  0  0  0  0  0  0  0
   60.8060   30.9000   48.1880 H   0  0  0  0  0  0  0  0  0  0  0  0
  1  2  1  0
  2  3  1  0
  3  4  1  0
  4  5  1  0
  5  6  2  0
  6  7  1  0
  7  8  2  0
  8  9  1  0
  9 10  1  0
  9 11  2  0
  8 12  1  0
 12 13  2  0
  4 14  1  0
 14 15  2  0
 15 16  1  0
 16 17  1  0
 16 18  2  0
 18 19  1  0
 19 20  2  0
 19 21  1  0
 21 22  1  0
 22 23  1  0
 18 24  1  0
 24 25  1  0
 25 26  2  0
 26 27  1  0
 27 28  2  0
 28 29  1  0
 28 30  1  0
 30 31  2  0
 31 32  1  0
 24 33  2  0
 13  5  1  0
 33 14  1  0
 31 25  1  0
  1 34  1  0
  1 35  1  0
  1 36  1  0
  2 37  1  0
  2 38  1  0
  3 39  1  0
  3 40  1  0
  6 41  1  0
  7 42  1  0
 10 43  1  0
 10 44  1  0
 10 45  1  0
 12 46  1  0
 13 47  1  0
 17 48  1  0
 17 49  1  0
 17 50  1  0
 22 51  1  0
 22 52  1  0
 23 53  1  0
 23 54  1  0
 23 55  1  0
 26 56  1  0
 27 57  1  0
 30 58  1  0
 33 59  1  0
M  CHG  1  33   1
M  END
>  <UniqueID>  (55) 
48

>  <SMILES>  (55) 
CCCN(c1ccc(C(C)=O)cc1)c1nc(C)c(C(=O)OCC)c(-c2ccc(Cl)cc2Cl)[nH+]1

>  <Energy>  (55) 
70.59114192062242

>  <Genealogy>  (55) 
CCCN(c1ccc(C(C)=O)cc1)c1nc(C)c(C(=O)OCC)c(-c2ccc(Cl)cc2Cl)[nH+]1 (protonated)
CCCN(c1ccc(C(C)=O)cc1)c1nc(C)c(C(=O)OCC)c(-c2ccc(Cl)cc2Cl)[nH+]1 (3D coordinates assigned)
CCCN(c1ccc(C(C)=O)cc1)c1nc(C)c(C(=O)OCC)c(-c2ccc(Cl)cc2Cl)[nH+]1 (optimized conformer: 70.59114192062242 kcal/mol)

>  <smiles>  (55) 
CCCN(c1ccc(C(C)=O)cc1)c1nc(C)c(C(=O)OCC)c(-c2ccc(Cl)cc2Cl)n1

>  <score_type>  (55) 
oracle

>  <origin>  (55) 
adg

>  <m_score__min__energy>  (55) 
-7.4900000000000002

>  <m_primary>  (55) 
energy

$$$$
55:0
     RDKit          3D

 37 39  0  0  0  0  0  0  0  0999 V2000
   57.7480   33.2160   44.1090 C   0  0  0  0  0  0  0  0  0  0  0  0
   57.7500   31.7250   44.1950 C   0  0  0  0  0  0  0  0  0  0  0  0
   57.1730   30.9390   43.3160 O   0  0  0  0  0  0  0  0  0  0  0  0
   57.3280   29.6840   43.6310 N   0  0  0  0  0  0  0  0  0  0  0  0
   58.0340   29.6450   44.7780 C   0  0  0  0  0  0  0  0  0  0  0  0
   58.5050   28.3880   45.3960 C   0  0  0  0  0  0  0  0  0  0  0  0
   59.8880   28.2160   45.5890 C   0  0  0  0  0  0  0  0  0  0  0  0
   60.3920   27.0210   46.1000 C   0  0  0  0  0  0  0  0  0  0  0  0
   59.5270   25.9750   46.4120 C   0  0  0  0  0  0  0  0  0  0  0  0
   58.1520   26.1240   46.2250 C   0  0  0  0  0  0  0  0  0  0  0  0
   57.6180   27.3290   45.7290 C   0  0  0  0  0  0  0  0  0  0  0  0
   56.1440   27.4620   45.6220 C   0  0  0  0  0  0  0  0  0  0  0  0
   55.3940   26.5150   45.9820 O   0  0  0  0  0  0  0  0  0  0  0  0
   55.5620   28.6420   45.1730 O   0  0  0  0  0  0  0  0  0  0  0  0
   58.3320   30.9410   45.1750 C   0  0  0  0  0  0  0  0  0  0  0  0
   59.0700   31.3870   46.3750 C   0  0  0  0  0  0  0  0  0  0  0  0
   58.4330   31.7690   47.3930 O   0  0  0  0  0  0  0  0  0  0  0  0
   60.5040   31.3360   46.4040 N   0  0  0  0  0  0  0  0  0  0  0  0
   61.3210   32.1920   47.2200 C   0  0  0  0  0  0  0  0  0  0  0  0
   60.7540   33.3410   47.7950 C   0  0  0  0  0  0  0  0  0  0  0  0
   61.5200   34.1730   48.6160 C   0  0  0  0  0  0  0  0  0  0  0  0
   62.8540   33.8580   48.8840 C   0  0  0  0  0  0  0  0  0  0  0  0
   63.4220   32.7060   48.3340 C   0  0  0  0  0  0  0  0  0  0  0  0
   62.6610   31.8710   47.5100 C   0  0  0  0  0  0  0  0  0  0  0  0
   57.7474   33.6418   45.1233 H   0  0  0  0  0  0  0  0  0  0  0  0
   58.6457   33.5534   43.5702 H   0  0  0  0  0  0  0  0  0  0  0  0
   56.8494   33.5510   43.5702 H   0  0  0  0  0  0  0  0  0  0  0  0
   60.5788   29.0331   45.3340 H   0  0  0  0  0  0  0  0  0  0  0  0
   61.4744   26.9040   46.2570 H   0  0  0  0  0  0  0  0  0  0  0  0
   59.9282   25.0298   46.8065 H   0  0  0  0  0  0  0  0  0  0  0  0
   57.4771   25.2900   46.4680 H   0  0  0  0  0  0  0  0  0  0  0  0
   60.9770   30.6010   45.8300 H   0  0  0  0  0  0  0  0  0  0  0  0
   59.7003   33.5876   47.5979 H   0  0  0  0  0  0  0  0  0  0  0  0
   61.0714   35.0778   49.0520 H   0  0  0  0  0  0  0  0  0  0  0  0
   63.4567   34.5160   49.5272 H   0  0  0  0  0  0  0  0  0  0  0  0
   64.4710   32.4551   48.5499 H   0  0  0  0  0  0  0  0  0  0  0  0
   63.1106   30.9605   47.0870 H   0  0  0  0  0  0  0  0  0  0  0  0
  1  2  1  0
  2  3  1  0
  3  4  1  0
  4  5  2  0
  5  6  1  0
  6  7  2  0
  7  8  1  0
  8  9  2  0
  9 10  1  0
 10 11  2  0
 11 12  1  0
 12 13  2  0
 12 14  1  0
  5 15  1  0
 15 16  1  0
 16 17  2  0
 16 18  1  0
 18 19  1  0
 19 20  2  0
 20 21  1  0
 21 22  2  0
 22 23  1  0
 23 24  2  0
 15  2  2  0
 24 19  1  0
 11  6  1  0
  1 25  1  0
  1 26  1  0
  1 27  1  0
  7 28  1  0
  8 29  1  0
  9 30  1  0
 10 31  1  0
 18 32  1  0
 20 33  1  0
 21 34  1  0
 22 35  1  0
 23 36  1  0
 24 37  1  0
M  CHG  1  14  -1
M  END
>  <UniqueID>  (56) 
49

>  <SMILES>  (56) 
Cc1onc(-c2ccccc2C(=O)[O-])c1C(=O)Nc1ccccc1

>  <Energy>  (56) 
83.66810887594686

>  <Genealogy>  (56) 
Cc1onc(-c2ccccc2C(=O)[O-])c1C(=O)Nc1ccccc1 (protonated)
Cc1onc(-c2ccccc2C(=O)[O-])c1C(=O)Nc1ccccc1 (3D coordinates assigned)
Cc1onc(-c2ccccc2C(=O)[O-])c1C(=O)Nc1ccccc1 (optimized conformer: 83.66810887594686 kcal/mol)

>  <smiles>  (56) 
Cc1onc(-c2ccccc2C(=O)O)c1C(=O)Nc1ccccc1

>  <score_type>  (56) 
oracle

>  <origin>  (56) 
adg

>  <m_score__min__energy>  (56) 
-11.369999999999999

>  <m_primary>  (56) 
energy

$$$$
56:0
     RDKit          3D

 40 43  0  0  0  0  0  0  0  0999 V2000
   57.6990   25.2740   47.2270 C   0  0  0  0  0  0  0  0  0  0  0  0
   58.0410   26.4790   46.4020 C   0  0  0  0  0  0  0  0  0  0  0  0
   59.3820   26.7950   46.1370 C   0  0  0  0  0  0  0  0  0  0  0  0
   59.7080   27.9390   45.3940 C   0  0  0  0  0  0  0  0  0  0  0  0
   61.1450   28.2900   45.1410 C   0  0  0  0  0  0  0  0  0  0  0  0
   58.6870   28.7920   44.9540 C   0  0  0  0  0  0  0  0  0  0  0  0
   57.3420   28.4940   45.2250 C   0  0  0  0  0  0  0  0  0  0  0  0
   56.2530   29.4390   44.7860 C   0  0  0  0  0  0  0  0  0  0  0  0
   56.8270   30.5740   44.0410 N   0  0  0  0  0  0  0  0  0  0  0  0
   56.8100   30.6130   42.6620 C   0  0  0  0  0  0  0  0  0  0  0  0
   56.2650   29.6880   42.0000 O   0  0  0  0  0  0  0  0  0  0  0  0
   57.3990   31.6870   41.9650 C   0  0  0  0  0  0  0  0  0  0  0  0
   58.0100   32.7150   42.6850 C   0  0  0  0  0  0  0  0  0  0  0  0
   58.0030   32.6260   44.0350 N   0  0  0  0  0  0  0  0  0  0  0  0
   58.5010   33.4290   44.9840 C   0  0  0  0  0  0  0  0  0  0  0  0
   59.1930   34.6330   44.8580 C   0  0  0  0  0  0  0  0  0  0  0  0
   59.6070   35.2660   46.0450 C   0  0  0  0  0  0  0  0  0  0  0  0
   59.3210   34.6900   47.3040 C   0  0  0  0  0  0  0  0  0  0  0  0
   58.6200   33.4720   47.3900 C   0  0  0  0  0  0  0  0  0  0  0  0
   58.2220   32.8660   46.2020 C   0  0  0  0  0  0  0  0  0  0  0  0
   57.5470   31.7040   46.0570 N   0  0  0  0  0  0  0  0  0  0  0  0
   57.4390   31.6010   44.7050 C   0  0  0  0  0  0  0  0  0  0  0  0
   57.0270   27.3380   45.9560 C   0  0  0  0  0  0  0  0  0  0  0  0
   57.7711   25.5282   48.2948 H   0  0  0  0  0  0  0  0  0  0  0  0
   56.6735   24.9503   46.9956 H   0  0  0  0  0  0  0  0  0  0  0  0
   58.4015   24.4598   46.9956 H   0  0  0  0  0  0  0  0  0  0  0  0
   60.1825   26.1416   46.5142 H   0  0  0  0  0  0  0  0  0  0  0  0
   61.6659   28.4172   46.1014 H   0  0  0  0  0  0  0  0  0  0  0  0
   61.6243   27.4825   44.5681 H   0  0  0  0  0  0  0  0  0  0  0  0
   61.1981   29.2275   44.5681 H   0  0  0  0  0  0  0  0  0  0  0  0
   58.9414   29.7025   44.3917 H   0  0  0  0  0  0  0  0  0  0  0  0
   55.5455   28.9008   44.1381 H   0  0  0  0  0  0  0  0  0  0  0  0
   55.7334   29.8228   45.6763 H   0  0  0  0  0  0  0  0  0  0  0  0
   57.3775   31.7149   40.8656 H   0  0  0  0  0  0  0  0  0  0  0  0
   58.4805   33.5673   42.1729 H   0  0  0  0  0  0  0  0  0  0  0  0
   59.4066   35.0701   43.8714 H   0  0  0  0  0  0  0  0  0  0  0  0
   60.1577   36.2168   45.9926 H   0  0  0  0  0  0  0  0  0  0  0  0
   59.6486   35.1973   48.2234 H   0  0  0  0  0  0  0  0  0  0  0  0
   58.3942   33.0143   48.3644 H   0  0  0  0  0  0  0  0  0  0  0  0
   55.9759   27.1042   46.1808 H   0  0  0  0  0  0  0  0  0  0  0  0
  1  2  1  0
  2  3  2  0
  3  4  1  0
  4  5  1  0
  4  6  2  0
  6  7  1  0
  7  8  1  0
  8  9  1  0
  9 10  1  0
 10 11  2  0
 10 12  1  0
 12 13  2  0
 13 14  1  0
 14 15  1  0
 15 16  2  0
 16 17  1  0
 17 18  2  0
 18 19  1  0
 19 20  2  0
 20 21  1  0
 21 22  2  0
  7 23  2  0
 23  2  1  0
 22  9  1  0
 22 14  1  0
 20 15  1  0
  1 24  1  0
  1 25  1  0
  1 26  1  0
  3 27  1  0
  5 28  1  0
  5 29  1  0
  5 30  1  0
  6 31  1  0
  8 32  1  0
  8 33  1  0
 12 34  1  0
 13 35  1  0
 16 36  1  0
 17 37  1  0
 18 38  1  0
 19 39  1  0
 23 40  1  0
M  END
>  <UniqueID>  (57) 
50

>  <SMILES>  (57) 
Cc1cc(C)cc(Cn2c(=O)ccn3c4ccccc4nc23)c1

>  <Energy>  (57) 
87.76999758870477

>  <Genealogy>  (57) 
Cc1cc(C)cc(Cn2c(=O)ccn3c4ccccc4nc23)c1 (3D coordinates assigned)
Cc1cc(C)cc(Cn2c(=O)ccn3c4ccccc4nc23)c1 (optimized conformer: 87.76999758870477 kcal/mol)

>  <smiles>  (57) 
Cc1cc(C)cc(Cn2c(=O)ccn3c4ccccc4nc23)c1

>  <score_type>  (57) 
oracle

>  <origin>  (57) 
adg

>  <m_score__min__energy>  (57) 
-8.0500000000000007

>  <m_primary>  (57) 
energy

$$$$
57:0
     RDKit          3D

 45 47  0  0  0  0  0  0  0  0999 V2000
   57.8720   31.8460   42.7410 O   0  0  0  0  0  0  0  0  0  0  0  0
   57.1700   31.3380   43.6570 C   0  0  0  0  0  0  0  0  0  0  0  0
   56.3370   30.1290   43.3640 C   0  0  0  0  0  0  0  0  0  0  0  0
   55.9130   29.5130   44.5780 O   0  0  0  0  0  0  0  0  0  0  0  0
   56.6620   28.5360   45.2440 C   0  0  0  0  0  0  0  0  0  0  0  0
   56.1220   27.4600   45.6210 O   0  0  0  0  0  0  0  0  0  0  0  0
   58.0870   28.7660   45.5040 C   0  0  0  0  0  0  0  0  0  0  0  0
   59.1210   28.5710   44.5960 C   0  0  0  0  0  0  0  0  0  0  0  0
   60.3820   28.8680   45.1270 C   0  0  0  0  0  0  0  0  0  0  0  0
   60.3460   29.2930   46.4490 C   0  0  0  0  0  0  0  0  0  0  0  0
   58.7430   29.3010   46.9580 S   0  0  0  0  0  0  0  0  0  0  0  0
   57.1260   31.9370   44.9610 N   0  0  0  0  0  0  0  0  0  0  0  0
   58.1020   32.8710   45.4530 C   0  0  0  0  0  0  0  0  0  0  0  0
   58.3320   34.0610   44.7490 C   0  0  0  0  0  0  0  0  0  0  0  0
   59.2530   34.9970   45.2230 C   0  0  0  0  0  0  0  0  0  0  0  0
   59.9440   34.7600   46.4130 C   0  0  0  0  0  0  0  0  0  0  0  0
   59.7160   33.5830   47.1380 C   0  0  0  0  0  0  0  0  0  0  0  0
   60.5810   33.2910   48.6480 S   0  0  0  0  0  0  0  0  0  0  0  0
   59.5990   32.8690   49.7060 O   0  0  0  0  0  0  0  0  0  0  0  0
   61.2120   34.5800   49.0990 O   0  0  0  0  0  0  0  0  0  0  0  0
   61.8240   32.0670   48.4870 N   0  0  0  0  0  0  0  0  0  0  0  0
   62.4030   32.0240   47.1320 C   0  0  0  0  0  0  0  0  0  0  0  0
   63.5060   33.0860   46.9100 C   0  0  0  0  0  0  0  0  0  0  0  0
   63.8980   33.7440   48.0990 O   0  0  0  0  0  0  0  0  0  0  0  0
   64.1500   32.7930   49.1070 C   0  0  0  0  0  0  0  0  0  0  0  0
   62.8380   32.1340   49.5620 C   0  0  0  0  0  0  0  0  0  0  0  0
   58.7860   32.6470   46.6630 C   0  0  0  0  0  0  0  0  0  0  0  0
   55.4534   30.4297   42.7820 H   0  0  0  0  0  0  0  0  0  0  0  0
   56.9400   29.4100   42.7900 H   0  0  0  0  0  0  0  0  0  0  0  0
   58.9646   28.2193   43.5655 H   0  0  0  0  0  0  0  0  0  0  0  0
   61.3144   28.7736   44.5510 H   0  0  0  0  0  0  0  0  0  0  0  0
   61.2168   29.5759   47.0586 H   0  0  0  0  0  0  0  0  0  0  0  0
   56.3070   31.7120   45.5720 H   0  0  0  0  0  0  0  0  0  0  0  0
   57.7830   34.2588   43.8165 H   0  0  0  0  0  0  0  0  0  0  0  0
   59.4347   35.9231   44.6579 H   0  0  0  0  0  0  0  0  0  0  0  0
   60.6696   35.4997   46.7824 H   0  0  0  0  0  0  0  0  0  0  0  0
   62.8387   31.0272   46.9688 H   0  0  0  0  0  0  0  0  0  0  0  0
   61.5916   32.2399   46.4213 H   0  0  0  0  0  0  0  0  0  0  0  0
   64.3877   32.5886   46.4795 H   0  0  0  0  0  0  0  0  0  0  0  0
   63.0907   33.8505   46.2369 H   0  0  0  0  0  0  0  0  0  0  0  0
   64.8270   32.0198   48.7147 H   0  0  0  0  0  0  0  0  0  0  0  0
   64.6123   33.2990   49.9674 H   0  0  0  0  0  0  0  0  0  0  0  0
   63.0583   31.1109   49.9009 H   0  0  0  0  0  0  0  0  0  0  0  0
   62.4212   32.7525   50.3706 H   0  0  0  0  0  0  0  0  0  0  0  0
   58.5895   31.7313   47.2399 H   0  0  0  0  0  0  0  0  0  0  0  0
  1  2  2  0
  2  3  1  0
  3  4  1  0
  4  5  1  0
  5  6  2  0
  5  7  1  0
  7  8  2  0
  8  9  1  0
  9 10  2  0
 10 11  1  0
  2 12  1  0
 12 13  1  0
 13 14  2  0
 14 15  1  0
 15 16  2  0
 16 17  1  0
 17 18  1  0
 18 19  2  0
 18 20  2  0
 18 21  1  0
 21 22  1  0
 22 23  1  0
 23 24  1  0
 24 25  1  0
 25 26  1  0
 17 27  2  0
 11  7  1  0
 27 13  1  0
 26 21  1  0
  3 28  1  0
  3 29  1  0
  8 30  1  0
  9 31  1  0
 10 32  1  0
 12 33  1  0
 14 34  1  0
 15 35  1  0
 16 36  1  0
 22 37  1  0
 22 38  1  0
 23 39  1  0
 23 40  1  0
 25 41  1  0
 25 42  1  0
 26 43  1  0
 26 44  1  0
 27 45  1  0
M  END
>  <UniqueID>  (58) 
51

>  <SMILES>  (58) 
O=C(COC(=O)c1cccs1)Nc1cccc(S(=O)(=O)N2CCOCC2)c1

>  <Energy>  (58) 
81.68776669212367

>  <Genealogy>  (58) 
O=C(COC(=O)c1cccs1)Nc1cccc(S(=O)(=O)N2CCOCC2)c1 (3D coordinates assigned)
O=C(COC(=O)c1cccs1)Nc1cccc(S(=O)(=O)N2CCOCC2)c1 (nonaromatic ring conformer: 81.68776669212367 kcal/mol)

>  <smiles>  (58) 
O=C(COC(=O)c1cccs1)Nc1cccc(S(=O)(=O)N2CCOCC2)c1

>  <score_type>  (58) 
oracle

>  <origin>  (58) 
adg

>  <m_score__min__energy>  (58) 
-9.1799999999999997

>  <m_primary>  (58) 
energy

$$$$
58:0
     RDKit          3D

 47 50  0  0  0  0  0  0  0  0999 V2000
   59.9180   34.5650   47.9210 C   0  0  0  0  0  0  0  0  0  0  0  0
   59.6510   34.6270   46.1610 S   0  0  0  0  0  0  0  0  0  0  0  0
   59.6660   36.0540   45.6940 O   0  0  0  0  0  0  0  0  0  0  0  0
   60.7640   33.8840   45.4790 O   0  0  0  0  0  0  0  0  0  0  0  0
   58.1650   33.8820   45.7510 O   0  0  0  0  0  0  0  0  0  0  0  0
   57.9990   32.5050   45.5460 C   0  0  0  0  0  0  0  0  0  0  0  0
   56.8530   32.0900   44.8720 C   0  0  0  0  0  0  0  0  0  0  0  0
   56.6290   30.7440   44.6000 C   0  0  0  0  0  0  0  0  0  0  0  0
   55.4620   30.3780   43.9340 O   0  0  0  0  0  0  0  0  0  0  0  0
   57.5570   29.7680   45.0030 C   0  0  0  0  0  0  0  0  0  0  0  0
   57.2140   28.3530   44.7570 C   0  0  0  0  0  0  0  0  0  0  0  0
   57.7470   27.7440   43.7910 O   0  0  0  0  0  0  0  0  0  0  0  0
   56.2800   27.6910   45.6210 N   0  0  0  0  0  0  0  0  0  0  0  0
   56.4340   26.3970   46.2210 C   0  0  0  0  0  0  0  0  0  0  0  0
   55.5470   25.3770   45.8510 C   0  0  0  0  0  0  0  0  0  0  0  0
   55.6730   24.0960   46.3990 C   0  0  0  0  0  0  0  0  0  0  0  0
   56.6960   23.8210   47.3090 C   0  0  0  0  0  0  0  0  0  0  0  0
   56.8200   22.5790   47.8380 F   0  0  0  0  0  0  0  0  0  0  0  0
   57.6030   24.8250   47.6640 C   0  0  0  0  0  0  0  0  0  0  0  0
   57.4800   26.1070   47.1180 C   0  0  0  0  0  0  0  0  0  0  0  0
   58.7410   30.1700   45.6890 C   0  0  0  0  0  0  0  0  0  0  0  0
   59.7680   29.2770   46.0810 C   0  0  0  0  0  0  0  0  0  0  0  0
   59.7430   28.0560   45.7690 O   0  0  0  0  0  0  0  0  0  0  0  0
   60.8550   29.7490   46.8120 C   0  0  0  0  0  0  0  0  0  0  0  0
   60.9290   31.1080   47.1340 C   0  0  0  0  0  0  0  0  0  0  0  0
   62.0420   31.6460   47.9470 C   0  0  0  0  0  0  0  0  0  0  0  0
   62.2570   31.2140   49.2700 C   0  0  0  0  0  0  0  0  0  0  0  0
   63.3200   31.7300   50.0180 C   0  0  0  0  0  0  0  0  0  0  0  0
   64.1790   32.6790   49.4550 C   0  0  0  0  0  0  0  0  0  0  0  0
   65.5120   33.3250   50.3950 Cl  0  0  0  0  0  0  0  0  0  0  0  0
   63.9770   33.1090   48.1410 C   0  0  0  0  0  0  0  0  0  0  0  0
   62.9160   32.5960   47.3900 C   0  0  0  0  0  0  0  0  0  0  0  0
   59.9790   31.9360   46.7100 O   0  0  0  0  0  0  0  0  0  0  0  0
   58.9290   31.5470   45.9930 C   0  0  0  0  0  0  0  0  0  0  0  0
   58.9748   34.7840   48.4429 H   0  0  0  0  0  0  0  0  0  0  0  0
   60.2689   33.5615   48.2035 H   0  0  0  0  0  0  0  0  0  0  0  0
   60.6752   35.3112   48.2035 H   0  0  0  0  0  0  0  0  0  0  0  0
   56.1136   32.8379   44.5497 H   0  0  0  0  0  0  0  0  0  0  0  0
   54.7469   25.5849   45.1253 H   0  0  0  0  0  0  0  0  0  0  0  0
   54.9652   23.3042   46.1127 H   0  0  0  0  0  0  0  0  0  0  0  0
   58.4144   24.6060   48.3737 H   0  0  0  0  0  0  0  0  0  0  0  0
   58.2023   26.8907   47.3901 H   0  0  0  0  0  0  0  0  0  0  0  0
   61.6489   29.0588   47.1335 H   0  0  0  0  0  0  0  0  0  0  0  0
   61.5852   30.4667   49.7175 H   0  0  0  0  0  0  0  0  0  0  0  0
   63.4807   31.3887   51.0513 H   0  0  0  0  0  0  0  0  0  0  0  0
   64.6546   33.8529   47.6967 H   0  0  0  0  0  0  0  0  0  0  0  0
   62.7636   32.9379   46.3557 H   0  0  0  0  0  0  0  0  0  0  0  0
  1  2  1  0
  2  3  2  0
  2  4  2  0
  2  5  1  0
  5  6  1  0
  6  7  2  0
  7  8  1  0
  8  9  1  0
  8 10  2  0
 10 11  1  0
 11 12  2  0
 11 13  1  0
 13 14  1  0
 14 15  2  0
 15 16  1  0
 16 17  2  0
 17 18  1  0
 17 19  1  0
 19 20  2  0
 10 21  1  0
 21 22  1  0
 22 23  2  0
 22 24  1  0
 24 25  2  0
 25 26  1  0
 26 27  2  0
 27 28  1  0
 28 29  2  0
 29 30  1  0
 29 31  1  0
 31 32  2  0
 25 33  1  0
 33 34  1  0
 34  6  1  0
 20 14  1  0
 34 21  2  0
 32 26  1  0
  1 35  1  0
  1 36  1  0
  1 37  1  0
  7 38  1  0
 15 39  1  0
 16 40  1  0
 19 41  1  0
 20 42  1  0
 24 43  1  0
 27 44  1  0
 28 45  1  0
 31 46  1  0
 32 47  1  0
M  CHG  2   9  -1  13  -1
M  END
>  <UniqueID>  (59) 
52

>  <SMILES>  (59) 
CS(=O)(=O)Oc1cc([O-])c(C(=O)[N-]c2ccc(F)cc2)c2c(=O)cc(-c3ccc(Cl)cc3)oc12

>  <Energy>  (59) 
74.91289834010185

>  <Genealogy>  (59) 
CS(=O)(=O)Oc1cc([O-])c(C(=O)[N-]c2ccc(F)cc2)c2c(=O)cc(-c3ccc(Cl)cc3)oc12 (protonated)
CS(=O)(=O)Oc1cc([O-])c(C(=O)[N-]c2ccc(F)cc2)c2c(=O)cc(-c3ccc(Cl)cc3)oc12 (3D coordinates assigned)
CS(=O)(=O)Oc1cc([O-])c(C(=O)[N-]c2ccc(F)cc2)c2c(=O)cc(-c3ccc(Cl)cc3)oc12 (optimized conformer: 74.91289834010185 kcal/mol)

>  <smiles>  (59) 
CS(=O)(=O)Oc1cc(O)c(C(=O)Nc2ccc(F)cc2)c2c(=O)cc(-c3ccc(Cl)cc3)oc12

>  <score_type>  (59) 
oracle

>  <origin>  (59) 
adg

>  <m_score__min__energy>  (59) 
-13.27

>  <m_primary>  (59) 
energy

$$$$
59:0
     RDKit          3D

 37 39  0  0  1  0  0  0  0  0999 V2000
   59.4700   22.2130   44.7090 C   0  0  0  0  0  0  0  0  0  0  0  0
   59.4800   23.2260   45.6920 O   0  0  0  0  0  0  0  0  0  0  0  0
   58.6610   24.3250   45.6680 C   0  0  0  0  0  0  0  0  0  0  0  0
   57.3260   24.2000   45.3030 C   0  0  0  0  0  0  0  0  0  0  0  0
   56.5560   25.3490   45.3000 C   0  0  0  0  0  0  0  0  0  0  0  0
   57.1170   26.5680   45.6530 C   0  0  0  0  0  0  0  0  0  0  0  0
   56.2490   27.6650   45.6170 O   0  0  0  0  0  0  0  0  0  0  0  0
   56.5820   28.7930   44.8430 C   0  0  0  0  0  0  0  0  0  0  0  0
   56.5930   30.0810   45.2310 N   0  0  0  0  0  0  0  0  0  0  0  0
   56.9750   30.8460   44.1700 C   0  0  0  0  0  0  0  0  0  0  0  0
   57.1080   32.1430   44.1420 N   0  0  0  0  0  0  0  0  0  0  0  0
   58.1110   32.6770   45.0180 C   0  0  0  0  0  0  0  0  0  0  0  0
   58.3840   33.9940   45.0350 N   0  0  0  0  0  0  0  0  0  0  0  0
   59.3300   34.4850   45.8620 C   0  0  0  0  0  0  0  0  0  0  0  0
   59.6100   35.7150   45.9020 O   0  0  0  0  0  0  0  0  0  0  0  0
   60.0160   33.6130   46.6920 C   0  0  0  0  0  0  0  0  0  0  0  0
   59.6920   32.2790   46.6300 C   0  0  0  0  0  0  0  0  0  0  0  0
   60.4260   31.3210   47.5240 C   0  0  0  0  0  0  0  0  0  0  0  0
   58.7580   31.7880   45.8140 N   0  0  0  0  0  0  0  0  0  0  0  0
   57.1940   29.9980   43.1360 N   0  0  0  0  0  0  0  0  0  0  0  0
   56.9590   28.7620   43.5400 N   0  0  0  0  0  0  0  0  0  0  0  0
   58.4440   26.6940   46.0180 C   0  0  0  0  0  0  0  0  0  0  0  0
   59.2110   25.5460   46.0190 C   0  0  0  0  0  0  0  0  0  0  0  0
   59.4603   21.2277   45.1980 H   0  0  0  0  0  0  0  0  0  0  0  0
   58.5729   22.3198   44.0815 H   0  0  0  0  0  0  0  0  0  0  0  0
   60.3691   22.3021   44.0815 H   0  0  0  0  0  0  0  0  0  0  0  0
   56.8981   23.2249   45.0271 H   0  0  0  0  0  0  0  0  0  0  0  0
   55.4945   25.2962   45.0166 H   0  0  0  0  0  0  0  0  0  0  0  0
   60.7948   33.9768   47.3784 H   0  0  0  0  0  0  0  0  0  0  0  0
   60.2297   31.5771   48.5756 H   0  0  0  0  0  0  0  0  0  0  0  0
   60.0800   30.2959   47.3256 H   0  0  0  0  0  0  0  0  0  0  0  0
   61.5059   31.3883   47.3256 H   0  0  0  0  0  0  0  0  0  0  0  0
   58.5100   30.7810   45.7620 H   0  0  0  0  0  0  0  0  0  0  0  0
   57.4990   30.2240   42.1650 H   0  0  0  0  0  0  0  0  0  0  0  0
   57.0290   27.8710   43.0030 H   0  0  0  0  0  0  0  0  0  0  0  0
   58.8714   27.6686   46.2962 H   0  0  0  0  0  0  0  0  0  0  0  0
   60.2724   25.6022   46.3022 H   0  0  0  0  0  0  0  0  0  0  0  0
  1  2  1  0
  2  3  1  0
  3  4  2  0
  4  5  1  0
  5  6  2  0
  6  7  1  0
  7  8  1  0
  8  9  2  0
  9 10  1  0
 10 11  2  0
 11 12  1  0
 12 13  2  0
 13 14  1  0
 14 15  2  0
 14 16  1  0
 16 17  2  0
 17 18  1  0
 17 19  1  0
 10 20  1  0
 20 21  1  0
  6 22  1  0
 22 23  2  0
 23  3  1  0
 21  8  1  0
 19 12  1  0
  1 24  1  0
  1 25  1  0
  1 26  1  0
  4 27  1  0
  5 28  1  0
 16 29  1  0
 18 30  1  0
 18 31  1  0
 18 32  1  0
 19 33  1  0
 20 34  1  0
 21 35  1  0
 22 36  1  0
 23 37  1  0
M  END
>  <smiles>  (60) 
COc1ccc(Oc2nc(=Nc3nc(=O)cc(C)[nH]3)[nH][nH]2)cc1

>  <score_type>  (60) 
oracle

>  <origin>  (60) 
adg

>  <m_score__min__energy>  (60) 
-7.3600000000000003

>  <m_primary>  (60) 
energy

$$$$
60:0
     RDKit          3D

 57 59  0  0  0  0  0  0  0  0999 V2000
   66.9700   32.9040   50.4940 C   0  0  0  0  0  0  0  0  0  0  0  0
   65.5910   32.3510   50.1570 C   0  0  0  0  0  0  0  0  0  0  0  0
   64.6390   33.4100   50.0540 O   0  0  0  0  0  0  0  0  0  0  0  0
   63.5680   33.4650   49.1460 C   0  0  0  0  0  0  0  0  0  0  0  0
   62.2560   33.8150   49.5260 C   0  0  0  0  0  0  0  0  0  0  0  0
   61.2430   33.8980   48.5650 C   0  0  0  0  0  0  0  0  0  0  0  0
   61.5190   33.6230   47.2120 C   0  0  0  0  0  0  0  0  0  0  0  0
   60.5000   33.7020   46.2010 N   0  0  0  0  0  0  0  0  0  0  0  0
   58.8390   33.2760   46.4770 S   0  0  0  0  0  0  0  0  0  0  0  0
   58.0690   34.5400   46.7430 O   0  0  0  0  0  0  0  0  0  0  0  0
   58.7230   32.3800   47.6800 O   0  0  0  0  0  0  0  0  0  0  0  0
   58.1610   32.4720   45.0650 C   0  0  0  0  0  0  0  0  0  0  0  0
   58.4910   32.9240   43.7790 C   0  0  0  0  0  0  0  0  0  0  0  0
   57.9580   32.2930   42.6530 C   0  0  0  0  0  0  0  0  0  0  0  0
   57.0750   31.2200   42.8000 C   0  0  0  0  0  0  0  0  0  0  0  0
   56.6010   30.5940   41.6940 F   0  0  0  0  0  0  0  0  0  0  0  0
   56.7120   30.7800   44.0850 C   0  0  0  0  0  0  0  0  0  0  0  0
   55.7480   29.6810   44.2680 C   0  0  0  0  0  0  0  0  0  0  0  0
   54.7400   29.6210   43.5180 O   0  0  0  0  0  0  0  0  0  0  0  0
   55.9470   28.6500   45.2450 N   0  0  0  0  0  0  0  0  0  0  0  0
   57.0750   27.7220   45.2940 C   0  0  0  0  0  0  0  0  0  0  0  0
   57.5860   27.5170   46.7240 C   0  0  0  0  0  0  0  0  0  0  0  0
   58.9140   28.1930   46.9460 C   0  0  0  0  0  0  0  0  0  0  0  0
   59.0800   29.0810   47.9430 C   0  0  0  0  0  0  0  0  0  0  0  0
   60.4000   29.7890   48.0890 C   0  0  0  0  0  0  0  0  0  0  0  0
   60.9050   30.3040   46.7270 C   0  0  0  0  0  0  0  0  0  0  0  0
   60.6410   29.3330   45.5460 C   0  0  0  0  0  0  0  0  0  0  0  0
   60.0580   27.9770   45.9830 C   0  0  0  0  0  0  0  0  0  0  0  0
   57.2810   31.3910   45.2130 C   0  0  0  0  0  0  0  0  0  0  0  0
   62.8150   33.2340   46.8480 C   0  0  0  0  0  0  0  0  0  0  0  0
   63.8310   33.1670   47.8050 C   0  0  0  0  0  0  0  0  0  0  0  0
   67.0890   32.9517   51.5865 H   0  0  0  0  0  0  0  0  0  0  0  0
   67.7426   32.2462   50.0694 H   0  0  0  0  0  0  0  0  0  0  0  0
   67.0741   33.9134   50.0694 H   0  0  0  0  0  0  0  0  0  0  0  0
   65.6406   31.8143   49.1981 H   0  0  0  0  0  0  0  0  0  0  0  0
   65.2765   31.6667   50.9587 H   0  0  0  0  0  0  0  0  0  0  0  0
   62.0283   34.0235   50.5818 H   0  0  0  0  0  0  0  0  0  0  0  0
   60.2239   34.1800   48.8683 H   0  0  0  0  0  0  0  0  0  0  0  0
   60.7110   34.2170   45.3180 H   0  0  0  0  0  0  0  0  0  0  0  0
   59.1723   33.7789   43.6568 H   0  0  0  0  0  0  0  0  0  0  0  0
   58.2342   32.6418   41.6470 H   0  0  0  0  0  0  0  0  0  0  0  0
   56.7543   26.7510   44.8886 H   0  0  0  0  0  0  0  0  0  0  0  0
   57.8943   28.1502   44.6978 H   0  0  0  0  0  0  0  0  0  0  0  0
   56.8515   27.9353   47.4279 H   0  0  0  0  0  0  0  0  0  0  0  0
   57.7203   26.4376   46.8876 H   0  0  0  0  0  0  0  0  0  0  0  0
   58.2586   29.2876   48.6449 H   0  0  0  0  0  0  0  0  0  0  0  0
   60.2769   30.6419   48.7727 H   0  0  0  0  0  0  0  0  0  0  0  0
   61.1368   29.0770   48.4892 H   0  0  0  0  0  0  0  0  0  0  0  0
   60.4013   31.2574   46.5097 H   0  0  0  0  0  0  0  0  0  0  0  0
   61.9965   30.4105   46.8126 H   0  0  0  0  0  0  0  0  0  0  0  0
   59.9309   29.8106   44.8549 H   0  0  0  0  0  0  0  0  0  0  0  0
   61.6125   29.1293   45.0719 H   0  0  0  0  0  0  0  0  0  0  0  0
   59.6921   27.4356   45.0982 H   0  0  0  0  0  0  0  0  0  0  0  0
   60.8435   27.3897   46.4811 H   0  0  0  0  0  0  0  0  0  0  0  0
   57.0351   31.0196   46.2188 H   0  0  0  0  0  0  0  0  0  0  0  0
   63.0343   32.9794   45.8006 H   0  0  0  0  0  0  0  0  0  0  0  0
   64.8475   32.8771   47.5007 H   0  0  0  0  0  0  0  0  0  0  0  0
  1  2  1  0
  2  3  1  0
  3  4  1  0
  4  5  2  0
  5  6  1  0
  6  7  2  0
  7  8  1  0
  8  9  1  0
  9 10  2  0
  9 11  2  0
  9 12  1  0
 12 13  2  0
 13 14  1  0
 14 15  2  0
 15 16  1  0
 15 17  1  0
 17 18  1  0
 18 19  2  0
 18 20  1  0
 20 21  1  0
 21 22  1  0
 22 23  1  0
 23 24  2  0
 24 25  1  0
 25 26  1  0
 26 27  1  0
 27 28  1  0
 17 29  2  0
  7 30  1  0
 30 31  2  0
 31  4  1  0
 29 12  1  0
 28 23  1  0
  1 32  1  0
  1 33  1  0
  1 34  1  0
  2 35  1  0
  2 36  1  0
  5 37  1  0
  6 38  1  0
  8 39  1  0
 13 40  1  0
 14 41  1  0
 21 42  1  0
 21 43  1  0
 22 44  1  0
 22 45  1  0
 24 46  1  0
 25 47  1  0
 25 48  1  0
 26 49  1  0
 26 50  1  0
 27 51  1  0
 27 52  1  0
 28 53  1  0
 28 54  1  0
 29 55  1  0
 30 56  1  0
 31 57  1  0
M  CHG  1  20  -1
M  END
>  <UniqueID>  (61) 
53

>  <SMILES>  (61) 
CCOc1ccc(NS(=O)(=O)c2ccc(F)c(C(=O)[N-]CCC3=CCCCC3)c2)cc1

>  <Energy>  (61) 
59.45501299895225

>  <Genealogy>  (61) 
CCOc1ccc(NS(=O)(=O)c2ccc(F)c(C(=O)[N-]CCC3=CCCCC3)c2)cc1 (protonated)
CCOc1ccc(NS(=O)(=O)c2ccc(F)c(C(=O)[N-]CCC3=CCCCC3)c2)cc1 (3D coordinates assigned)
CCOc1ccc(NS(=O)(=O)c2ccc(F)c(C(=O)[N-]CCC3=CCCCC3)c2)cc1 (nonaromatic ring conformer: 59.45501299895225 kcal/mol)

>  <smiles>  (61) 
CCOc1ccc(NS(=O)(=O)c2ccc(F)c(C(=O)NCCC3=CCCCC3)c2)cc1

>  <score_type>  (61) 
oracle

>  <origin>  (61) 
adg

>  <m_score__min__energy>  (61) 
-11.94

>  <m_primary>  (61) 
energy

$$$$
61:0
     RDKit          3D

 59 62  0  0  0  0  0  0  0  0999 V2000
   58.6380   30.7420   48.8400 O   0  0  0  0  0  0  0  0  0  0  0  0
   59.5660   30.3180   48.0960 C   0  0  0  0  0  0  0  0  0  0  0  0
   60.9170   30.4440   48.5580 N   0  0  0  0  0  0  0  0  0  0  0  0
   61.7680   31.5860   48.3820 C   0  0  0  0  0  0  0  0  0  0  0  0
   62.6090   31.6800   47.2550 C   0  0  0  0  0  0  0  0  0  0  0  0
   63.4630   32.7730   47.0990 C   0  0  0  0  0  0  0  0  0  0  0  0
   63.4840   33.7870   48.0570 C   0  0  0  0  0  0  0  0  0  0  0  0
   62.6420   33.7170   49.1700 C   0  0  0  0  0  0  0  0  0  0  0  0
   61.7660   32.6290   49.3400 C   0  0  0  0  0  0  0  0  0  0  0  0
   60.9130   32.5820   50.5060 N   0  0  0  0  0  0  0  0  0  0  0  0
   60.1650   33.7810   50.9270 C   0  0  0  0  0  0  0  0  0  0  0  0
   58.8410   33.4320   51.6540 C   0  0  0  0  0  0  0  0  0  0  0  0
   58.6140   32.0420   51.7890 O   0  0  0  0  0  0  0  0  0  0  0  0
   59.7540   31.4310   52.3570 C   0  0  0  0  0  0  0  0  0  0  0  0
   60.8510   31.3440   51.2990 C   0  0  0  0  0  0  0  0  0  0  0  0
   59.2260   29.6040   46.8300 C   0  0  0  0  0  0  0  0  0  0  0  0
   59.9070   28.4190   46.4910 C   0  0  0  0  0  0  0  0  0  0  0  0
   59.6470   27.7670   45.2810 C   0  0  0  0  0  0  0  0  0  0  0  0
   58.6890   28.2700   44.3980 C   0  0  0  0  0  0  0  0  0  0  0  0
   58.4660   27.6260   43.2240 F   0  0  0  0  0  0  0  0  0  0  0  0
   57.9790   29.4360   44.7280 C   0  0  0  0  0  0  0  0  0  0  0  0
   56.7230   30.0800   43.6600 S   0  0  0  0  0  0  0  0  0  0  0  0
   56.2440   29.0030   42.7260 O   0  0  0  0  0  0  0  0  0  0  0  0
   55.5540   30.5320   44.4910 O   0  0  0  0  0  0  0  0  0  0  0  0
   57.3170   31.4200   42.7250 N   0  0  0  0  0  0  0  0  0  0  0  0
   58.2100   32.2540   43.5390 C   0  0  0  0  0  0  0  0  0  0  0  0
   57.3950   33.1540   44.4720 C   0  0  0  0  0  0  0  0  0  0  0  0
   58.2610   33.7110   45.5730 C   0  0  0  0  0  0  0  0  0  0  0  0
   58.1080   33.2510   46.8970 C   0  0  0  0  0  0  0  0  0  0  0  0
   58.8870   33.7920   47.9270 C   0  0  0  0  0  0  0  0  0  0  0  0
   59.8180   34.7960   47.6440 C   0  0  0  0  0  0  0  0  0  0  0  0
   59.9690   35.2650   46.3330 C   0  0  0  0  0  0  0  0  0  0  0  0
   59.1910   34.7290   45.3000 C   0  0  0  0  0  0  0  0  0  0  0  0
   58.2690   30.1070   45.9260 C   0  0  0  0  0  0  0  0  0  0  0  0
   62.5923   30.8867   46.4932 H   0  0  0  0  0  0  0  0  0  0  0  0
   64.1205   32.8350   46.2193 H   0  0  0  0  0  0  0  0  0  0  0  0
   64.1644   34.6428   47.9360 H   0  0  0  0  0  0  0  0  0  0  0  0
   62.6642   34.5206   49.9209 H   0  0  0  0  0  0  0  0  0  0  0  0
   60.7969   34.3693   51.6086 H   0  0  0  0  0  0  0  0  0  0  0  0
   59.9081   34.3491   50.0207 H   0  0  0  0  0  0  0  0  0  0  0  0
   58.8689   33.8783   52.6590 H   0  0  0  0  0  0  0  0  0  0  0  0
   58.0219   33.8326   51.0387 H   0  0  0  0  0  0  0  0  0  0  0  0
   60.1089   32.0314   53.2076 H   0  0  0  0  0  0  0  0  0  0  0  0
   59.4973   30.4212   52.7098 H   0  0  0  0  0  0  0  0  0  0  0  0
   61.8194   31.1855   51.7961 H   0  0  0  0  0  0  0  0  0  0  0  0
   60.6242   30.5050   50.6248 H   0  0  0  0  0  0  0  0  0  0  0  0
   60.6513   28.0016   47.1851 H   0  0  0  0  0  0  0  0  0  0  0  0
   60.2007   26.8521   45.0233 H   0  0  0  0  0  0  0  0  0  0  0  0
   57.8690   31.0270   41.9260 H   0  0  0  0  0  0  0  0  0  0  0  0
   58.8637   31.6053   44.1406 H   0  0  0  0  0  0  0  0  0  0  0  0
   58.8153   32.8856   42.8722 H   0  0  0  0  0  0  0  0  0  0  0  0
   56.9717   33.9863   43.8906 H   0  0  0  0  0  0  0  0  0  0  0  0
   56.5916   32.5548   44.9254 H   0  0  0  0  0  0  0  0  0  0  0  0
   57.3734   32.4637   47.1217 H   0  0  0  0  0  0  0  0  0  0  0  0
   58.7667   33.4275   48.9578 H   0  0  0  0  0  0  0  0  0  0  0  0
   60.4329   35.2183   48.4524 H   0  0  0  0  0  0  0  0  0  0  0  0
   60.7008   36.0566   46.1145 H   0  0  0  0  0  0  0  0  0  0  0  0
   59.3077   35.1051   44.2729 H   0  0  0  0  0  0  0  0  0  0  0  0
   57.7401   31.0418   46.1635 H   0  0  0  0  0  0  0  0  0  0  0  0
  1  2  2  0
  2  3  1  0
  3  4  1  0
  4  5  2  0
  5  6  1  0
  6  7  2  0
  7  8  1  0
  8  9  2  0
  9 10  1  0
 10 11  1  0
 11 12  1  0
 12 13  1  0
 13 14  1  0
 14 15  1  0
  2 16  1  0
 16 17  2  0
 17 18  1  0
 18 19  2  0
 19 20  1  0
 19 21  1  0
 21 22  1  0
 22 23  2  0
 22 24  2  0
 22 25  1  0
 25 26  1  0
 26 27  1  0
 27 28  1  0
 28 29  2  0
 29 30  1  0
 30 31  2  0
 31 32  1  0
 32 33  2  0
 21 34  2  0
  9  4  1  0
 15 10  1  0
 34 16  1  0
 33 28  1  0
  5 35  1  0
  6 36  1  0
  7 37  1  0
  8 38  1  0
 11 39  1  0
 11 40  1  0
 12 41  1  0
 12 42  1  0
 14 43  1  0
 14 44  1  0
 15 45  1  0
 15 46  1  0
 17 47  1  0
 18 48  1  0
 25 49  1  0
 26 50  1  0
 26 51  1  0
 27 52  1  0
 27 53  1  0
 29 54  1  0
 30 55  1  0
 31 56  1  0
 32 57  1  0
 33 58  1  0
 34 59  1  0
M  CHG  1   3  -1
M  END
>  <UniqueID>  (62) 
54

>  <SMILES>  (62) 
O=C([N-]c1ccccc1N1CCOCC1)c1ccc(F)c(S(=O)(=O)NCCc2ccccc2)c1

>  <Energy>  (62) 
77.20663598013118

>  <Genealogy>  (62) 
O=C([N-]c1ccccc1N1CCOCC1)c1ccc(F)c(S(=O)(=O)NCCc2ccccc2)c1 (protonated)
O=C([N-]c1ccccc1N1CCOCC1)c1ccc(F)c(S(=O)(=O)NCCc2ccccc2)c1 (3D coordinates assigned)
O=C([N-]c1ccccc1N1CCOCC1)c1ccc(F)c(S(=O)(=O)NCCc2ccccc2)c1 (nonaromatic ring conformer: 77.20663598013118 kcal/mol)

>  <smiles>  (62) 
O=C(Nc1ccccc1N1CCOCC1)c1ccc(F)c(S(=O)(=O)NCCc2ccccc2)c1

>  <score_type>  (62) 
oracle

>  <origin>  (62) 
adg

>  <m_score__min__energy>  (62) 
-11.77

>  <m_primary>  (62) 
energy

$$$$
62:0
     RDKit          3D

 43 43  0  0  0  0  0  0  0  0999 V2000
   58.3810   27.2110   43.6190 C   0  0  0  0  0  0  0  0  0  0  0  0
   58.9230   26.8760   45.0120 C   0  0  0  0  0  0  0  0  0  0  0  0
   58.1090   27.5150   46.1860 C   0  0  2  0  0  0  0  0  0  0  0  0
   59.0760   27.9140   47.3160 C   0  0  0  0  0  0  0  0  0  0  0  0
   57.1450   26.5540   46.7500 N   0  0  0  0  0  0  0  0  0  0  0  0
   56.1160   25.7840   46.1030 C   0  0  0  0  0  0  0  0  0  0  0  0
   55.0140   26.3470   45.8940 O   0  0  0  0  0  0  0  0  0  0  0  0
   56.2580   24.3180   45.7620 C   0  0  0  0  0  0  0  0  0  0  0  0
   57.1500   24.0060   44.5420 C   0  0  0  0  0  0  0  0  0  0  0  0
   56.3240   23.5300   43.3320 C   0  0  0  0  0  0  0  0  0  0  0  0
   58.2940   23.0230   44.8510 C   0  0  0  0  0  0  0  0  0  0  0  0
   57.3770   28.7800   45.7670 C   0  0  0  0  0  0  0  0  0  0  0  0
   57.8610   29.8990   46.0960 O   0  0  0  0  0  0  0  0  0  0  0  0
   56.2210   28.7380   44.9090 N   0  0  0  0  0  0  0  0  0  0  0  0
   55.5140   29.9490   44.5000 C   0  0  0  0  0  0  0  0  0  0  0  0
   56.4800   30.9490   43.9460 C   0  0  0  0  0  0  0  0  0  0  0  0
   57.0620   30.9020   42.6890 C   0  0  0  0  0  0  0  0  0  0  0  0
   57.9800   31.9380   42.4690 C   0  0  0  0  0  0  0  0  0  0  0  0
   58.1380   32.7870   43.5560 C   0  0  0  0  0  0  0  0  0  0  0  0
   57.1280   32.2520   44.7880 S   0  0  0  0  0  0  0  0  0  0  0  0
   57.4490   27.7870   43.7170 H   0  0  0  0  0  0  0  0  0  0  0  0
   59.1246   27.8073   43.0699 H   0  0  0  0  0  0  0  0  0  0  0  0
   58.1802   26.2793   43.0699 H   0  0  0  0  0  0  0  0  0  0  0  0
   58.9066   25.7830   45.1352 H   0  0  0  0  0  0  0  0  0  0  0  0
   59.9387   27.2949   45.0659 H   0  0  0  0  0  0  0  0  0  0  0  0
   58.6027   27.7187   48.2896 H   0  0  0  0  0  0  0  0  0  0  0  0
   60.0006   27.3239   47.2328 H   0  0  0  0  0  0  0  0  0  0  0  0
   59.3154   28.9844   47.2328 H   0  0  0  0  0  0  0  0  0  0  0  0
   56.6872   23.8062   46.6360 H   0  0  0  0  0  0  0  0  0  0  0  0
   55.2490   23.9691   45.4971 H   0  0  0  0  0  0  0  0  0  0  0  0
   57.6261   24.9619   44.2781 H   0  0  0  0  0  0  0  0  0  0  0  0
   55.4216   23.0100   43.6858 H   0  0  0  0  0  0  0  0  0  0  0  0
   56.0319   24.3982   42.7231 H   0  0  0  0  0  0  0  0  0  0  0  0
   56.9287   22.8419   42.7231 H   0  0  0  0  0  0  0  0  0  0  0  0
   58.4086   22.9246   45.9406 H   0  0  0  0  0  0  0  0  0  0  0  0
   58.0600   22.0399   44.4166 H   0  0  0  0  0  0  0  0  0  0  0  0
   59.2307   23.4023   44.4166 H   0  0  0  0  0  0  0  0  0  0  0  0
   55.8900   27.8270   44.5170 H   0  0  0  0  0  0  0  0  0  0  0  0
   54.7726   29.6939   43.7285 H   0  0  0  0  0  0  0  0  0  0  0  0
   55.0101   30.3837   45.3758 H   0  0  0  0  0  0  0  0  0  0  0  0
   56.8275   30.1306   41.9407 H   0  0  0  0  0  0  0  0  0  0  0  0
   58.5251   32.0665   41.5222 H   0  0  0  0  0  0  0  0  0  0  0  0
   58.8078   33.6583   43.6027 H   0  0  0  0  0  0  0  0  0  0  0  0
  1  2  1  0
  2  3  1  0
  3  4  1  0
  3  5  1  1
  5  6  1  0
  6  7  2  0
  6  8  1  0
  8  9  1  0
  9 10  1  0
  9 11  1  0
  3 12  1  0
 12 13  2  0
 12 14  1  0
 14 15  1  0
 15 16  1  0
 16 17  2  0
 17 18  1  0
 18 19  2  0
 19 20  1  0
 20 16  1  0
  1 21  1  0
  1 22  1  0
  1 23  1  0
  2 24  1  0
  2 25  1  0
  4 26  1  0
  4 27  1  0
  4 28  1  0
  8 29  1  0
  8 30  1  0
  9 31  1  0
 10 32  1  0
 10 33  1  0
 10 34  1  0
 11 35  1  0
 11 36  1  0
 11 37  1  0
 14 38  1  0
 15 39  1  0
 15 40  1  0
 17 41  1  0
 18 42  1  0
 19 43  1  0
M  CHG  1   5  -1
M  END
>  <UniqueID>  (63) 
55

>  <SMILES>  (63) 
CC[C@](C)([N-]C(=O)CC(C)C)C(=O)NCc1cccs1

>  <Energy>  (63) 
59.73441351457462

>  <Genealogy>  (63) 
CCC(C)([N-]C(=O)CC(C)C)C(=O)NCc1cccs1 (protonated)
CC[C@](C)([N-]C(=O)CC(C)C)C(=O)NCc1cccs1 (chirality)
CC[C@](C)([N-]C(=O)CC(C)C)C(=O)NCc1cccs1 (3D coordinates assigned)
CC[C@](C)([N-]C(=O)CC(C)C)C(=O)NCc1cccs1 (optimized conformer: 59.73441351457462 kcal/mol)

>  <smiles>  (63) 
CCC(C)(NC(=O)CC(C)C)C(=O)NCc1cccs1

>  <score_type>  (63) 
oracle

>  <origin>  (63) 
adg

>  <m_score__min__energy>  (63) 
-9.8000000000000007

>  <m_primary>  (63) 
energy

$$$$
63:0
     RDKit          3D

 64 67  0  0  0  0  0  0  0  0999 V2000
   54.5700   24.6180   45.5890 C   0  0  0  0  0  0  0  0  0  0  0  0
   55.1460   25.7490   46.2410 O   0  0  0  0  0  0  0  0  0  0  0  0
   56.5120   26.0710   46.2140 C   0  0  0  0  0  0  0  0  0  0  0  0
   57.4690   25.3330   46.9270 C   0  0  0  0  0  0  0  0  0  0  0  0
   58.8140   25.6940   46.8790 C   0  0  0  0  0  0  0  0  0  0  0  0
   59.2290   26.7900   46.1060 C   0  0  0  0  0  0  0  0  0  0  0  0
   60.5810   27.1530   46.0940 C   0  0  0  0  0  0  0  0  0  0  0  0
   61.0000   28.2550   45.3600 C   0  0  0  0  0  0  0  0  0  0  0  0
   60.0880   28.9950   44.6120 C   0  0  0  0  0  0  0  0  0  0  0  0
   58.7240   28.6350   44.5560 C   0  0  0  0  0  0  0  0  0  0  0  0
   57.7290   29.4540   43.7370 C   0  0  0  0  0  0  0  0  0  0  0  0
   57.0050   30.8810   44.5590 S   0  0  0  0  0  0  0  0  0  0  0  0
   57.4350   30.9010   46.0000 O   0  0  0  0  0  0  0  0  0  0  0  0
   55.5040   30.8110   44.4890 O   0  0  0  0  0  0  0  0  0  0  0  0
   57.5580   32.3440   43.7990 N   0  0  0  0  0  0  0  0  0  0  0  0
   57.6510   33.4200   44.7920 C   0  0  0  0  0  0  0  0  0  0  0  0
   59.1240   33.7160   45.1460 C   0  0  0  0  0  0  0  0  0  0  0  0
   59.7330   32.5880   46.0180 C   0  0  0  0  0  0  0  0  0  0  0  0
   60.9120   33.1050   46.8560 C   0  0  0  0  0  0  0  0  0  0  0  0
   60.5250   34.2050   47.7840 N   0  0  0  0  0  0  0  0  0  0  0  0
   60.4120   33.7590   49.1930 C   0  0  0  0  0  0  0  0  0  0  0  0
   59.2210   32.8070   49.3680 C   0  0  0  0  0  0  0  0  0  0  0  0
   59.6310   31.3590   49.2910 C   0  0  0  0  0  0  0  0  0  0  0  0
   60.7570   30.9050   49.9990 C   0  0  0  0  0  0  0  0  0  0  0  0
   61.1170   29.5530   49.9590 C   0  0  0  0  0  0  0  0  0  0  0  0
   60.3530   28.6460   49.2170 C   0  0  0  0  0  0  0  0  0  0  0  0
   59.2270   29.0890   48.5180 C   0  0  0  0  0  0  0  0  0  0  0  0
   58.8640   30.4400   48.5540 C   0  0  0  0  0  0  0  0  0  0  0  0
   59.3270   34.9670   47.3530 C   0  0  0  0  0  0  0  0  0  0  0  0
   59.2670   35.1020   45.8270 C   0  0  0  0  0  0  0  0  0  0  0  0
   58.2820   27.5370   45.3550 C   0  0  0  0  0  0  0  0  0  0  0  0
   56.9200   27.1680   45.4450 C   0  0  0  0  0  0  0  0  0  0  0  0
   54.2069   23.9051   46.3440 H   0  0  0  0  0  0  0  0  0  0  0  0
   53.7292   24.9461   44.9602 H   0  0  0  0  0  0  0  0  0  0  0  0
   55.3298   24.1309   44.9602 H   0  0  0  0  0  0  0  0  0  0  0  0
   57.1560   24.4655   47.5266 H   0  0  0  0  0  0  0  0  0  0  0  0
   59.5555   25.1164   47.4505 H   0  0  0  0  0  0  0  0  0  0  0  0
   61.3127   26.5644   46.6669 H   0  0  0  0  0  0  0  0  0  0  0  0
   62.0609   28.5456   45.3696 H   0  0  0  0  0  0  0  0  0  0  0  0
   60.4368   29.8766   44.0543 H   0  0  0  0  0  0  0  0  0  0  0  0
   58.2508   29.8139   42.8380 H   0  0  0  0  0  0  0  0  0  0  0  0
   56.8880   28.7751   43.5324 H   0  0  0  0  0  0  0  0  0  0  0  0
   58.5190   32.1410   43.4430 H   0  0  0  0  0  0  0  0  0  0  0  0
   57.1892   34.3301   44.3814 H   0  0  0  0  0  0  0  0  0  0  0  0
   57.1268   33.1021   45.7053 H   0  0  0  0  0  0  0  0  0  0  0  0
   59.6950   33.7472   44.2063 H   0  0  0  0  0  0  0  0  0  0  0  0
   58.9569   32.1986   46.6933 H   0  0  0  0  0  0  0  0  0  0  0  0
   60.1024   31.7949   45.3513 H   0  0  0  0  0  0  0  0  0  0  0  0
   61.3138   32.2703   47.4492 H   0  0  0  0  0  0  0  0  0  0  0  0
   61.6607   33.5091   46.1588 H   0  0  0  0  0  0  0  0  0  0  0  0
   61.3364   33.2373   49.4817 H   0  0  0  0  0  0  0  0  0  0  0  0
   60.2557   34.6412   49.8312 H   0  0  0  0  0  0  0  0  0  0  0  0
   58.7608   32.9927   50.3497 H   0  0  0  0  0  0  0  0  0  0  0  0
   58.5122   33.0003   48.5493 H   0  0  0  0  0  0  0  0  0  0  0  0
   61.3576   31.6148   50.5867 H   0  0  0  0  0  0  0  0  0  0  0  0
   62.0015   29.2033   50.5116 H   0  0  0  0  0  0  0  0  0  0  0  0
   60.6386   27.5842   49.1838 H   0  0  0  0  0  0  0  0  0  0  0  0
   58.6246   28.3742   47.9382 H   0  0  0  0  0  0  0  0  0  0  0  0
   57.9757   30.7839   48.0039 H   0  0  0  0  0  0  0  0  0  0  0  0
   58.4251   34.4424   47.7013 H   0  0  0  0  0  0  0  0  0  0  0  0
   59.3848   35.9761   47.7871 H   0  0  0  0  0  0  0  0  0  0  0  0
   58.4025   35.7258   45.5558 H   0  0  0  0  0  0  0  0  0  0  0  0
   60.2032   35.5647   45.4814 H   0  0  0  0  0  0  0  0  0  0  0  0
   56.1657   27.7544   44.9000 H   0  0  0  0  0  0  0  0  0  0  0  0
  1  2  1  0
  2  3  1  0
  3  4  2  0
  4  5  1  0
  5  6  2  0
  6  7  1  0
  7  8  2  0
  8  9  1  0
  9 10  2  0
 10 11  1  0
 11 12  1  0
 12 13  2  0
 12 14  2  0
 12 15  1  0
 15 16  1  0
 16 17  1  0
 17 18  1  0
 18 19  1  0
 19 20  1  0
 20 21  1  0
 21 22  1  0
 22 23  1  0
 23 24  2  0
 24 25  1  0
 25 26  2  0
 26 27  1  0
 27 28  2  0
 20 29  1  0
 29 30  1  0
 10 31  1  0
 31 32  2  0
 32  3  1  0
 31  6  1  0
 30 17  1  0
 28 23  1  0
  1 33  1  0
  1 34  1  0
  1 35  1  0
  4 36  1  0
  5 37  1  0
  7 38  1  0
  8 39  1  0
  9 40  1  0
 11 41  1  0
 11 42  1  0
 15 43  1  0
 16 44  1  0
 16 45  1  0
 17 46  1  0
 18 47  1  0
 18 48  1  0
 19 49  1  0
 19 50  1  0
 21 51  1  0
 21 52  1  0
 22 53  1  0
 22 54  1  0
 24 55  1  0
 25 56  1  0
 26 57  1  0
 27 58  1  0
 28 59  1  0
 29 60  1  0
 29 61  1  0
 30 62  1  0
 30 63  1  0
 32 64  1  0
M  END
>  <UniqueID>  (64) 
56

>  <SMILES>  (64) 
COc1ccc2cccc(CS(=O)(=O)NCC3CCN(CCc4ccccc4)CC3)c2c1

>  <Energy>  (64) 
76.93990912449271

>  <Genealogy>  (64) 
COc1ccc2cccc(CS(=O)(=O)NCC3CCN(CCc4ccccc4)CC3)c2c1 (3D coordinates assigned)
COc1ccc2cccc(CS(=O)(=O)NCC3CCN(CCc4ccccc4)CC3)c2c1 (nonaromatic ring conformer: 76.93990912449271 kcal/mol)

>  <smiles>  (64) 
COc1ccc2cccc(CS(=O)(=O)NCC3CCN(CCc4ccccc4)CC3)c2c1

>  <score_type>  (64) 
oracle

>  <origin>  (64) 
adg

>  <m_score__min__energy>  (64) 
-11.34

>  <m_primary>  (64) 
energy

$$$$
64:0
     RDKit          3D

 37 39  0  0  0  0  0  0  0  0999 V2000
   57.4790   33.4490   47.0900 C   0  0  0  0  0  0  0  0  0  0  0  0
   58.3040   33.6790   45.8920 N   0  0  0  0  0  0  0  0  0  0  0  0
   59.2850   34.7530   46.1420 C   0  0  0  0  0  0  0  0  0  0  0  0
   58.8890   32.4210   45.3510 C   0  0  1  0  0  0  0  0  0  0  0  0
   58.8560   31.3010   46.4210 C   0  0  0  0  0  0  0  0  0  0  0  0
   57.8600   30.2230   45.9270 C   0  0  2  0  0  0  0  0  0  0  0  0
   58.4420   28.8250   46.0030 C   0  0  0  0  0  0  0  0  0  0  0  0
   59.8350   28.6400   45.9420 C   0  0  0  0  0  0  0  0  0  0  0  0
   60.3810   27.3550   46.0020 C   0  0  0  0  0  0  0  0  0  0  0  0
   59.5430   26.2410   46.1170 C   0  0  0  0  0  0  0  0  0  0  0  0
   60.0760   24.9960   46.1750 F   0  0  0  0  0  0  0  0  0  0  0  0
   58.1580   26.4120   46.1730 C   0  0  0  0  0  0  0  0  0  0  0  0
   57.6070   27.6960   46.1130 C   0  0  0  0  0  0  0  0  0  0  0  0
   57.5540   30.6300   44.5280 C   0  0  0  0  0  0  0  0  0  0  0  0
   56.7820   29.9230   43.6010 C   0  0  0  0  0  0  0  0  0  0  0  0
   56.6390   30.4390   42.3050 C   0  0  0  0  0  0  0  0  0  0  0  0
   57.2710   31.6440   41.9520 C   0  0  0  0  0  0  0  0  0  0  0  0
   58.0310   32.3450   42.8990 C   0  0  0  0  0  0  0  0  0  0  0  0
   58.1340   31.8340   44.1980 C   0  0  0  0  0  0  0  0  0  0  0  0
   58.0863   33.6183   47.9914 H   0  0  0  0  0  0  0  0  0  0  0  0
   56.6261   34.1436   47.0867 H   0  0  0  0  0  0  0  0  0  0  0  0
   57.1084   32.4133   47.0867 H   0  0  0  0  0  0  0  0  0  0  0  0
   59.4102   34.8901   47.2262 H   0  0  0  0  0  0  0  0  0  0  0  0
   60.2511   34.4789   45.6931 H   0  0  0  0  0  0  0  0  0  0  0  0
   58.9248   35.6904   45.6931 H   0  0  0  0  0  0  0  0  0  0  0  0
   59.9007   32.7185   45.0378 H   0  0  0  0  0  0  0  0  0  0  0  0
   59.8580   30.8625   46.5383 H   0  0  0  0  0  0  0  0  0  0  0  0
   58.5438   31.7026   47.3963 H   0  0  0  0  0  0  0  0  0  0  0  0
   56.9576   30.1709   46.5538 H   0  0  0  0  0  0  0  0  0  0  0  0
   60.4986   29.5120   45.8465 H   0  0  0  0  0  0  0  0  0  0  0  0
   61.4717   27.2194   45.9587 H   0  0  0  0  0  0  0  0  0  0  0  0
   57.4996   25.5355   46.2644 H   0  0  0  0  0  0  0  0  0  0  0  0
   56.5153   27.8250   46.1519 H   0  0  0  0  0  0  0  0  0  0  0  0
   56.2951   28.9780   43.8836 H   0  0  0  0  0  0  0  0  0  0  0  0
   56.0313   29.8999   41.5633 H   0  0  0  0  0  0  0  0  0  0  0  0
   57.1690   32.0380   40.9301 H   0  0  0  0  0  0  0  0  0  0  0  0
   58.5384   33.2819   42.6254 H   0  0  0  0  0  0  0  0  0  0  0  0
  1  2  1  0
  2  3  1  0
  2  4  1  0
  4  5  1  0
  5  6  1  0
  6  7  1  0
  7  8  2  0
  8  9  1  0
  9 10  2  0
 10 11  1  0
 10 12  1  0
 12 13  2  0
  6 14  1  0
 14 15  2  0
 15 16  1  0
 16 17  2  0
 17 18  1  0
 18 19  2  0
 19  4  1  0
 13  7  1  0
 19 14  1  0
  1 20  1  0
  1 21  1  0
  1 22  1  0
  3 23  1  0
  3 24  1  0
  3 25  1  0
  4 26  1  6
  5 27  1  0
  5 28  1  0
  6 29  1  1
  8 30  1  0
  9 31  1  0
 12 32  1  0
 13 33  1  0
 15 34  1  0
 16 35  1  0
 17 36  1  0
 18 37  1  0
M  END
>  <UniqueID>  (65) 
57

>  <SMILES>  (65) 
CN(C)[C@H]1C[C@H](c2ccc(F)cc2)c2ccccc21

>  <Energy>  (65) 
53.01235393077712

>  <Genealogy>  (65) 
CN(C)[C@H]1C[C@H](c2ccc(F)cc2)c2ccccc21 (chirality)
CN(C)[C@H]1C[C@H](c2ccc(F)cc2)c2ccccc21 (3D coordinates assigned)
CN(C)[C@H]1C[C@H](c2ccc(F)cc2)c2ccccc21 (nonaromatic ring conformer: 53.01235393077712 kcal/mol)

>  <smiles>  (65) 
CN(C)C1CC(c2ccc(F)cc2)c2ccccc21

>  <score_type>  (65) 
oracle

>  <origin>  (65) 
adg

>  <m_score__min__energy>  (65) 
-6.7999999999999998

>  <m_primary>  (65) 
energy

$$$$
65:0
     RDKit          3D

 40 42  0  0  0  0  0  0  0  0999 V2000
   59.3950   30.0160   50.8470 C   0  0  0  0  0  0  0  0  0  0  0  0
   58.3890   30.7560   51.3070 C   0  0  0  0  0  0  0  0  0  0  0  0
   57.0400   30.3310   51.2580 N   0  0  0  0  0  0  0  0  0  0  0  0
   56.3120   31.2300   51.8250 C   0  0  0  0  0  0  0  0  0  0  0  0
   57.0780   32.4040   52.3520 C   0  0  0  0  0  0  0  0  0  0  0  0
   58.5350   32.0840   51.9740 C   0  0  2  0  0  0  0  0  0  0  0  0
   59.1120   33.1260   51.0500 C   0  0  0  0  0  0  0  0  0  0  0  0
   59.7610   34.0980   51.5250 O   0  0  0  0  0  0  0  0  0  0  0  0
   58.9820   32.9720   49.6290 N   0  0  0  0  0  0  0  0  0  0  0  0
   59.6430   33.8830   48.6850 C   0  0  0  0  0  0  0  0  0  0  0  0
   61.1080   33.5330   48.5080 C   0  0  0  0  0  0  0  0  0  0  0  0
   62.1200   34.2060   49.2220 C   0  0  0  0  0  0  0  0  0  0  0  0
   63.4590   33.8420   49.0610 C   0  0  0  0  0  0  0  0  0  0  0  0
   63.8040   32.7980   48.1990 C   0  0  0  0  0  0  0  0  0  0  0  0
   62.8080   32.1130   47.5000 C   0  0  0  0  0  0  0  0  0  0  0  0
   61.4670   32.4740   47.6550 C   0  0  0  0  0  0  0  0  0  0  0  0
   58.9380   33.8810   47.3430 C   0  0  0  0  0  0  0  0  0  0  0  0
   59.4520   34.6400   46.2750 C   0  0  0  0  0  0  0  0  0  0  0  0
   58.8170   34.6300   45.0280 C   0  0  0  0  0  0  0  0  0  0  0  0
   57.6680   33.8610   44.8340 C   0  0  0  0  0  0  0  0  0  0  0  0
   57.1510   33.1000   45.8840 C   0  0  0  0  0  0  0  0  0  0  0  0
   57.7820   33.1060   47.1320 C   0  0  0  0  0  0  0  0  0  0  0  0
   60.4270   30.3917   50.9083 H   0  0  0  0  0  0  0  0  0  0  0  0
   59.1945   29.0286   50.4055 H   0  0  0  0  0  0  0  0  0  0  0  0
   55.2191   31.1426   51.9146 H   0  0  0  0  0  0  0  0  0  0  0  0
   56.7442   33.3371   51.8747 H   0  0  0  0  0  0  0  0  0  0  0  0
   56.9398   32.5544   53.4329 H   0  0  0  0  0  0  0  0  0  0  0  0
   59.2289   32.0737   52.8275 H   0  0  0  0  0  0  0  0  0  0  0  0
   58.4290   32.1600   49.2680 H   0  0  0  0  0  0  0  0  0  0  0  0
   59.5825   34.8950   49.1118 H   0  0  0  0  0  0  0  0  0  0  0  0
   61.8539   35.0223   49.9097 H   0  0  0  0  0  0  0  0  0  0  0  0
   64.2438   34.3787   49.6143 H   0  0  0  0  0  0  0  0  0  0  0  0
   64.8595   32.5159   48.0711 H   0  0  0  0  0  0  0  0  0  0  0  0
   63.0796   31.2873   46.8258 H   0  0  0  0  0  0  0  0  0  0  0  0
   60.6869   31.9262   47.1061 H   0  0  0  0  0  0  0  0  0  0  0  0
   60.3589   35.2451   46.4215 H   0  0  0  0  0  0  0  0  0  0  0  0
   59.2236   35.2287   44.1997 H   0  0  0  0  0  0  0  0  0  0  0  0
   57.1698   33.8547   43.8533 H   0  0  0  0  0  0  0  0  0  0  0  0
   56.2457   32.4946   45.7294 H   0  0  0  0  0  0  0  0  0  0  0  0
   57.3722   32.5010   47.9543 H   0  0  0  0  0  0  0  0  0  0  0  0
  1  2  2  0
  2  3  1  0
  3  4  2  0
  4  5  1  0
  5  6  1  0
  6  7  1  0
  7  8  2  0
  7  9  1  0
  9 10  1  0
 10 11  1  0
 11 12  2  0
 12 13  1  0
 13 14  2  0
 14 15  1  0
 15 16  2  0
 10 17  1  0
 17 18  2  0
 18 19  1  0
 19 20  2  0
 20 21  1  0
 21 22  2  0
  6  2  1  0
 16 11  1  0
 22 17  1  0
  1 23  1  0
  1 24  1  0
  4 25  1  0
  5 26  1  0
  5 27  1  0
  6 28  1  1
  9 29  1  0
 10 30  1  0
 12 31  1  0
 13 32  1  0
 14 33  1  0
 15 34  1  0
 16 35  1  0
 18 36  1  0
 19 37  1  0
 20 38  1  0
 21 39  1  0
 22 40  1  0
M  END
>  <UniqueID>  (66) 
58

>  <SMILES>  (66) 
C=C1N=CC[C@@H]1C(=O)NC(c1ccccc1)c1ccccc1

>  <Energy>  (66) 
49.82950148013326

>  <Genealogy>  (66) 
C=C1N=CC[C@@H]1C(=O)NC(c1ccccc1)c1ccccc1 (chirality)
C=C1N=CC[C@@H]1C(=O)NC(c1ccccc1)c1ccccc1 (3D coordinates assigned)
C=C1N=CC[C@@H]1C(=O)NC(c1ccccc1)c1ccccc1 (nonaromatic ring conformer: 49.82950148013326 kcal/mol)

>  <smiles>  (66) 
C=C1N=CCC1C(=O)NC(c1ccccc1)c1ccccc1

>  <score_type>  (66) 
oracle

>  <origin>  (66) 
adg

>  <m_score__min__energy>  (66) 
-7.6799999999999997

>  <m_primary>  (66) 
energy

$$$$
66:0
     RDKit          3D

 36 37  0  0  0  0  0  0  0  0999 V2000
   57.7440   20.4980   45.2880 N   0  0  0  0  0  0  0  0  0  0  0  0
   56.9770   20.6490   46.8310 S   0  0  0  0  0  0  0  0  0  0  0  0
   57.4050   19.5230   47.7300 O   0  0  0  0  0  0  0  0  0  0  0  0
   55.4880   20.5820   46.6410 O   0  0  0  0  0  0  0  0  0  0  0  0
   57.3740   22.1530   47.5460 O   0  0  0  0  0  0  0  0  0  0  0  0
   57.2550   23.4010   46.9180 C   0  0  0  0  0  0  0  0  0  0  0  0
   58.0680   23.6620   45.8110 C   0  0  0  0  0  0  0  0  0  0  0  0
   57.9980   24.8910   45.1490 C   0  0  0  0  0  0  0  0  0  0  0  0
   57.1220   25.8910   45.5970 C   0  0  0  0  0  0  0  0  0  0  0  0
   57.0500   27.1370   44.8820 N   0  0  0  0  0  0  0  0  0  0  0  0
   58.1780   27.8140   44.3130 C   0  0  0  0  0  0  0  0  0  0  0  0
   59.2970   27.2390   44.2260 O   0  0  0  0  0  0  0  0  0  0  0  0
   58.0140   29.1380   43.8040 N   0  0  0  0  0  0  0  0  0  0  0  0
   56.9130   30.2750   44.5050 S   0  0  0  0  0  0  0  0  0  0  0  0
   56.2950   31.1050   43.4150 O   0  0  0  0  0  0  0  0  0  0  0  0
   55.8270   29.5250   45.2260 O   0  0  0  0  0  0  0  0  0  0  0  0
   57.7750   31.3370   45.6140 C   0  0  0  0  0  0  0  0  0  0  0  0
   57.5270   32.7170   45.5930 C   0  0  0  0  0  0  0  0  0  0  0  0
   58.2060   33.5670   46.4730 C   0  0  0  0  0  0  0  0  0  0  0  0
   59.1330   33.0430   47.3780 C   0  0  0  0  0  0  0  0  0  0  0  0
   60.0640   34.2060   48.5730 Br  0  0  0  0  0  0  0  0  0  0  0  0
   59.3880   31.6670   47.3980 C   0  0  0  0  0  0  0  0  0  0  0  0
   58.7100   30.8160   46.5210 C   0  0  0  0  0  0  0  0  0  0  0  0
   56.2850   25.6230   46.6950 C   0  0  0  0  0  0  0  0  0  0  0  0
   56.3530   24.3910   47.3530 C   0  0  0  0  0  0  0  0  0  0  0  0
   57.4180   19.6070   44.8530 H   0  0  0  0  0  0  0  0  0  0  0  0
   58.7680   20.3960   45.4620 H   0  0  0  0  0  0  0  0  0  0  0  0
   58.7699   22.8923   45.4574 H   0  0  0  0  0  0  0  0  0  0  0  0
   58.6341   25.0754   44.2707 H   0  0  0  0  0  0  0  0  0  0  0  0
   56.1040   27.5440   44.6960 H   0  0  0  0  0  0  0  0  0  0  0  0
   56.7968   33.1324   44.8829 H   0  0  0  0  0  0  0  0  0  0  0  0
   58.0098   34.6492   46.4524 H   0  0  0  0  0  0  0  0  0  0  0  0
   60.1231   31.2548   48.1050 H   0  0  0  0  0  0  0  0  0  0  0  0
   58.9100   29.7345   46.5419 H   0  0  0  0  0  0  0  0  0  0  0  0
   55.5724   26.3874   47.0383 H   0  0  0  0  0  0  0  0  0  0  0  0
   55.6985   24.1942   48.2149 H   0  0  0  0  0  0  0  0  0  0  0  0
  1  2  1  0
  2  3  2  0
  2  4  2  0
  2  5  1  0
  5  6  1  0
  6  7  2  0
  7  8  1  0
  8  9  2  0
  9 10  1  0
 10 11  1  0
 11 12  2  0
 11 13  1  0
 13 14  1  0
 14 15  2  0
 14 16  2  0
 14 17  1  0
 17 18  2  0
 18 19  1  0
 19 20  2  0
 20 21  1  0
 20 22  1  0
 22 23  2  0
  9 24  1  0
 24 25  2  0
 25  6  1  0
 23 17  1  0
  1 26  1  0
  1 27  1  0
  7 28  1  0
  8 29  1  0
 10 30  1  0
 18 31  1  0
 19 32  1  0
 22 33  1  0
 23 34  1  0
 24 35  1  0
 25 36  1  0
M  CHG  1  13  -1
M  END
>  <UniqueID>  (67) 
59

>  <SMILES>  (67) 
NS(=O)(=O)Oc1ccc(NC(=O)[N-]S(=O)(=O)c2ccc(Br)cc2)cc1

>  <Energy>  (67) 
38.72999154287118

>  <Genealogy>  (67) 
NS(=O)(=O)Oc1ccc(NC(=O)[N-]S(=O)(=O)c2ccc(Br)cc2)cc1 (protonated)
NS(=O)(=O)Oc1ccc(NC(=O)[N-]S(=O)(=O)c2ccc(Br)cc2)cc1 (3D coordinates assigned)
NS(=O)(=O)Oc1ccc(NC(=O)[N-]S(=O)(=O)c2ccc(Br)cc2)cc1 (optimized conformer: 38.72999154287118 kcal/mol)

>  <smiles>  (67) 
NS(=O)(=O)Oc1ccc(NC(=O)NS(=O)(=O)c2ccc(Br)cc2)cc1

>  <score_type>  (67) 
oracle

>  <origin>  (67) 
adg

>  <m_score__min__energy>  (67) 
-10.390000000000001

>  <m_primary>  (67) 
energy

$$$$
67:0
     RDKit          3D

 48 50  0  0  0  0  0  0  0  0999 V2000
   58.7110   34.5950   46.5070 C   0  0  0  0  0  0  0  0  0  0  0  0
   57.6990   33.8010   45.6830 C   0  0  0  0  0  0  0  0  0  0  0  0
   58.3300   33.2000   44.4170 C   0  0  0  0  0  0  0  0  0  0  0  0
   57.3580   32.3860   43.6530 N   0  0  0  0  0  0  0  0  0  0  0  0
   58.0320   31.6210   42.5920 C   0  0  0  0  0  0  0  0  0  0  0  0
   56.4850   31.5300   44.4940 C   0  0  0  0  0  0  0  0  0  0  0  0
   57.1730   30.3010   45.0650 C   0  0  0  0  0  0  0  0  0  0  0  0
   58.5370   30.3590   45.4060 C   0  0  0  0  0  0  0  0  0  0  0  0
   59.1970   29.2350   45.9260 C   0  0  0  0  0  0  0  0  0  0  0  0
   60.6560   29.3140   46.3110 C   0  0  0  0  0  0  0  0  0  0  0  0
   60.8850   29.9840   47.6790 C   0  0  2  0  0  0  0  0  0  0  0  0
   59.5940   30.3170   48.3210 N   0  0  0  0  0  0  0  0  0  0  0  0
   59.5640   31.7780   48.5330 C   0  0  0  0  0  0  0  0  0  0  0  0
   60.8750   32.2830   48.0770 C   0  0  0  0  0  0  0  0  0  0  0  0
   61.3650   33.5900   48.1390 C   0  0  0  0  0  0  0  0  0  0  0  0
   62.6650   33.8400   47.6730 C   0  0  0  0  0  0  0  0  0  0  0  0
   63.4460   32.7870   47.1580 C   0  0  0  0  0  0  0  0  0  0  0  0
   62.9280   31.4830   47.1120 C   0  0  0  0  0  0  0  0  0  0  0  0
   61.6270   31.2660   47.5750 C   0  0  0  0  0  0  0  0  0  0  0  0
   58.4840   28.0410   46.1040 C   0  0  0  0  0  0  0  0  0  0  0  0
   57.1360   27.9670   45.7520 C   0  0  0  0  0  0  0  0  0  0  0  0
   56.4800   29.0830   45.2250 C   0  0  0  0  0  0  0  0  0  0  0  0
   55.1430   28.9700   44.8600 O   0  0  0  0  0  0  0  0  0  0  0  0
   58.5138   34.4403   47.5781 H   0  0  0  0  0  0  0  0  0  0  0  0
   59.7284   34.2516   46.2681 H   0  0  0  0  0  0  0  0  0  0  0  0
   58.6196   35.6649   46.2681 H   0  0  0  0  0  0  0  0  0  0  0  0
   57.2997   32.9844   46.3024 H   0  0  0  0  0  0  0  0  0  0  0  0
   56.9012   34.4905   45.3697 H   0  0  0  0  0  0  0  0  0  0  0  0
   58.6912   34.0179   43.7763 H   0  0  0  0  0  0  0  0  0  0  0  0
   59.1581   32.5447   44.7251 H   0  0  0  0  0  0  0  0  0  0  0  0
   58.6943   30.8693   43.0462 H   0  0  0  0  0  0  0  0  0  0  0  0
   57.2789   31.1172   41.9683 H   0  0  0  0  0  0  0  0  0  0  0  0
   58.6267   32.3047   41.9683 H   0  0  0  0  0  0  0  0  0  0  0  0
   56.1130   32.1369   45.3327 H   0  0  0  0  0  0  0  0  0  0  0  0
   55.6802   31.1637   43.8397 H   0  0  0  0  0  0  0  0  0  0  0  0
   59.0930   31.2973   45.2631 H   0  0  0  0  0  0  0  0  0  0  0  0
   61.0638   28.2931   46.3486 H   0  0  0  0  0  0  0  0  0  0  0  0
   61.1616   29.9321   45.5545 H   0  0  0  0  0  0  0  0  0  0  0  0
   61.4662   29.2556   48.2634 H   0  0  0  0  0  0  0  0  0  0  0  0
   59.5520   29.8440   49.2550 H   0  0  0  0  0  0  0  0  0  0  0  0
   58.7536   32.2329   47.9446 H   0  0  0  0  0  0  0  0  0  0  0  0
   59.3810   32.0281   49.5884 H   0  0  0  0  0  0  0  0  0  0  0  0
   60.7461   34.4043   48.5438 H   0  0  0  0  0  0  0  0  0  0  0  0
   63.0748   34.8602   47.7100 H   0  0  0  0  0  0  0  0  0  0  0  0
   64.4636   32.9868   46.7912 H   0  0  0  0  0  0  0  0  0  0  0  0
   63.5320   30.6511   46.7206 H   0  0  0  0  0  0  0  0  0  0  0  0
   58.9897   27.1586   46.5231 H   0  0  0  0  0  0  0  0  0  0  0  0
   56.5860   27.0244   45.8901 H   0  0  0  0  0  0  0  0  0  0  0  0
  1  2  1  0
  2  3  1  0
  3  4  1  0
  4  5  1  0
  4  6  1  0
  6  7  1  0
  7  8  2  0
  8  9  1  0
  9 10  1  0
 10 11  1  0
 11 12  1  0
 12 13  1  0
 13 14  1  0
 14 15  2  0
 15 16  1  0
 16 17  2  0
 17 18  1  0
 18 19  2  0
  9 20  2  0
 20 21  1  0
 21 22  2  0
 22 23  1  0
 22  7  1  0
 19 11  1  0
 19 14  1  0
  1 24  1  0
  1 25  1  0
  1 26  1  0
  2 27  1  0
  2 28  1  0
  3 29  1  0
  3 30  1  0
  5 31  1  0
  5 32  1  0
  5 33  1  0
  6 34  1  0
  6 35  1  0
  8 36  1  0
 10 37  1  0
 10 38  1  0
 11 39  1  1
 12 40  1  0
 13 41  1  0
 13 42  1  0
 15 43  1  0
 16 44  1  0
 17 45  1  0
 18 46  1  0
 20 47  1  0
 21 48  1  0
M  CHG  1  23  -1
M  END
>  <UniqueID>  (68) 
60

>  <SMILES>  (68) 
CCCN(C)Cc1cc(C[C@@H]2NCc3ccccc32)ccc1[O-]

>  <Energy>  (68) 
54.66245807288173

>  <Genealogy>  (68) 
CCCN(C)Cc1cc(CC2NCc3ccccc32)ccc1[O-] (protonated)
CCCN(C)Cc1cc(C[C@@H]2NCc3ccccc32)ccc1[O-] (chirality)
CCCN(C)Cc1cc(C[C@@H]2NCc3ccccc32)ccc1[O-] (3D coordinates assigned)
CCCN(C)Cc1cc(C[C@@H]2NCc3ccccc32)ccc1[O-] (nonaromatic ring conformer: 54.66245807288173 kcal/mol)

>  <smiles>  (68) 
CCCN(C)Cc1cc(CC2NCc3ccccc32)ccc1O

>  <score_type>  (68) 
oracle

>  <origin>  (68) 
adg

>  <m_score__min__energy>  (68) 
-10.99

>  <m_primary>  (68) 
energy

$$$$
68:0
     RDKit          3D

 32 34  0  0  0  0  0  0  0  0999 V2000
   55.6690   28.0140   54.4490 O   0  0  0  0  0  0  0  0  0  0  0  0
   55.4900   29.0170   53.7070 C   0  0  0  0  0  0  0  0  0  0  0  0
   54.4070   29.0190   52.7660 N   0  0  0  0  0  0  0  0  0  0  0  0
   53.4610   30.0760   52.5500 C   0  0  0  0  0  0  0  0  0  0  0  0
   52.5140   30.3440   53.5470 C   0  0  0  0  0  0  0  0  0  0  0  0
   51.5610   31.3520   53.3660 C   0  0  0  0  0  0  0  0  0  0  0  0
   51.5380   32.0880   52.1780 C   0  0  0  0  0  0  0  0  0  0  0  0
   50.5910   33.0890   51.9980 O   0  0  0  0  0  0  0  0  0  0  0  0
   52.4640   31.8110   51.1670 C   0  0  0  0  0  0  0  0  0  0  0  0
   53.4180   30.8050   51.3460 C   0  0  0  0  0  0  0  0  0  0  0  0
   56.4340   30.1690   53.7560 C   0  0  0  0  0  0  0  0  0  0  0  0
   56.9350   30.5810   55.0020 C   0  0  0  0  0  0  0  0  0  0  0  0
   57.8150   31.6530   55.1000 C   0  0  0  0  0  0  0  0  0  0  0  0
   58.2170   32.3480   53.9560 C   0  0  0  0  0  0  0  0  0  0  0  0
   59.1010   33.4330   54.0790 C   0  0  0  0  0  0  0  0  0  0  0  0
   59.5070   34.1390   52.9490 C   0  0  0  0  0  0  0  0  0  0  0  0
   59.0360   33.7730   51.6890 C   0  0  0  0  0  0  0  0  0  0  0  0
   58.1580   32.6960   51.5500 C   0  0  0  0  0  0  0  0  0  0  0  0
   57.7320   31.9570   52.6790 C   0  0  0  0  0  0  0  0  0  0  0  0
   56.8420   30.8500   52.5820 C   0  0  0  0  0  0  0  0  0  0  0  0
   56.3600   30.3940   51.3480 O   0  0  0  0  0  0  0  0  0  0  0  0
   52.5198   29.7582   54.4780 H   0  0  0  0  0  0  0  0  0  0  0  0
   50.8293   31.5655   54.1591 H   0  0  0  0  0  0  0  0  0  0  0  0
   52.4415   32.3858   50.2294 H   0  0  0  0  0  0  0  0  0  0  0  0
   54.1372   30.5822   50.5440 H   0  0  0  0  0  0  0  0  0  0  0  0
   56.6266   30.0478   55.9134 H   0  0  0  0  0  0  0  0  0  0  0  0
   58.1978   31.9565   56.0856 H   0  0  0  0  0  0  0  0  0  0  0  0
   59.4739   33.7261   55.0715 H   0  0  0  0  0  0  0  0  0  0  0  0
   60.2004   34.9868   53.0510 H   0  0  0  0  0  0  0  0  0  0  0  0
   59.3575   34.3353   50.7999 H   0  0  0  0  0  0  0  0  0  0  0  0
   57.7929   32.4186   50.5501 H   0  0  0  0  0  0  0  0  0  0  0  0
   55.6480   29.6900   51.2250 H   0  0  0  0  0  0  0  0  0  0  0  0
  1  2  2  0
  2  3  1  0
  3  4  1  0
  4  5  2  0
  5  6  1  0
  6  7  2  0
  7  8  1  0
  7  9  1  0
  9 10  2  0
  2 11  1  0
 11 12  2  0
 12 13  1  0
 13 14  2  0
 14 15  1  0
 15 16  2  0
 16 17  1  0
 17 18  2  0
 18 19  1  0
 19 20  2  0
 20 21  1  0
 10  4  1  0
 20 11  1  0
 19 14  1  0
  5 22  1  0
  6 23  1  0
  9 24  1  0
 10 25  1  0
 12 26  1  0
 13 27  1  0
 15 28  1  0
 16 29  1  0
 17 30  1  0
 18 31  1  0
 21 32  1  0
M  CHG  2   3  -1   8  -1
M  END
>  <UniqueID>  (69) 
61

>  <SMILES>  (69) 
O=C([N-]c1ccc([O-])cc1)c1ccc2ccccc2c1O

>  <Energy>  (69) 
48.35359435714214

>  <Genealogy>  (69) 
O=C([N-]c1ccc([O-])cc1)c1ccc2ccccc2c1O (protonated)
O=C([N-]c1ccc([O-])cc1)c1ccc2ccccc2c1O (3D coordinates assigned)
O=C([N-]c1ccc([O-])cc1)c1ccc2ccccc2c1O (optimized conformer: 48.35359435714214 kcal/mol)

>  <smiles>  (69) 
O=C(Nc1ccc(O)cc1)c1ccc2ccccc2c1O

>  <score_type>  (69) 
oracle

>  <origin>  (69) 
adg

>  <m_score__min__energy>  (69) 
-11.27

>  <m_primary>  (69) 
energy

$$$$
69:0
     RDKit          3D

 44 48  0  0  1  0  0  0  0  0999 V2000
   59.0860   27.4910   43.6960 O   0  0  0  0  0  0  0  0  0  0  0  0
   58.2380   28.3790   43.9880 C   0  0  0  0  0  0  0  0  0  0  0  0
   56.9630   28.2180   44.4190 N   0  0  0  0  0  0  0  0  0  0  0  0
   56.4280   29.4590   44.6060 C   0  0  0  0  0  0  0  0  0  0  0  0
   55.1410   29.7620   45.0430 O   0  0  0  0  0  0  0  0  0  0  0  0
   57.3920   30.3870   44.2840 C   0  0  0  0  0  0  0  0  0  0  0  0
   57.3330   31.8430   44.3100 C   0  0  0  0  0  0  0  0  0  0  0  0
   59.8520   30.5560   47.7150 C   0  0  0  0  0  0  0  0  0  0  0  0
   60.5610   31.6270   48.2090 C   0  0  0  0  0  0  0  0  0  0  0  0
   59.3380   34.1560   45.9350 N   0  0  0  0  0  0  0  0  0  0  0  0
   59.6530   33.0940   46.6550 N   0  0  0  0  0  0  0  0  0  0  0  0
   60.4780   32.9040   47.6950 C   0  0  0  0  0  0  0  0  0  0  0  0
   61.2450   33.9500   48.2680 N   0  0  0  0  0  0  0  0  0  0  0  0
   62.6650   34.0990   48.1240 C   0  0  0  0  0  0  0  0  0  0  0  0
   63.4520   32.8750   47.8830 C   0  0  0  0  0  0  0  0  0  0  0  0
   63.2800   33.8380   46.7630 C   0  0  0  0  0  0  0  0  0  0  0  0
   58.4460   33.8510   44.9760 C   0  0  0  0  0  0  0  0  0  0  0  0
   58.1720   32.5100   45.0890 C   0  0  0  0  0  0  0  0  0  0  0  0
   59.9730   29.3830   48.2400 N   0  0  0  0  0  0  0  0  0  0  0  0
   59.4830   28.2110   47.5670 C   0  0  0  0  0  0  0  0  0  0  0  0
   60.3330   27.2510   47.0570 C   0  0  0  0  0  0  0  0  0  0  0  0
   59.8150   26.1350   46.4140 C   0  0  0  0  0  0  0  0  0  0  0  0
   58.4470   26.0010   46.2960 C   0  0  0  0  0  0  0  0  0  0  0  0
   57.6090   26.9340   46.7930 N   0  0  0  0  0  0  0  0  0  0  0  0
   58.1060   28.0340   47.4260 C   0  0  0  0  0  0  0  0  0  0  0  0
   59.0350   30.8100   46.6650 N   0  0  0  0  0  0  0  0  0  0  0  0
   58.9400   32.0650   46.1450 C   0  0  0  0  0  0  0  0  0  0  0  0
   58.4970   29.6870   43.9060 N   0  0  0  0  0  0  0  0  0  0  0  0
   56.4970   27.3170   44.5720 H   0  0  0  0  0  0  0  0  0  0  0  0
   54.9390   30.0820   45.9950 H   0  0  0  0  0  0  0  0  0  0  0  0
   56.6009   32.3816   43.6905 H   0  0  0  0  0  0  0  0  0  0  0  0
   61.2326   31.4546   49.0630 H   0  0  0  0  0  0  0  0  0  0  0  0
   60.7520   34.6830   48.8480 H   0  0  0  0  0  0  0  0  0  0  0  0
   62.7028   34.9289   48.8450 H   0  0  0  0  0  0  0  0  0  0  0  0
   64.4383   32.7586   48.3559 H   0  0  0  0  0  0  0  0  0  0  0  0
   63.2580   31.7995   48.0084 H   0  0  0  0  0  0  0  0  0  0  0  0
   64.1321   34.4410   46.4161 H   0  0  0  0  0  0  0  0  0  0  0  0
   62.9052   33.7817   45.7303 H   0  0  0  0  0  0  0  0  0  0  0  0
   58.0163   34.5455   44.2391 H   0  0  0  0  0  0  0  0  0  0  0  0
   61.4217   27.3701   47.1600 H   0  0  0  0  0  0  0  0  0  0  0  0
   60.4871   25.3670   46.0036 H   0  0  0  0  0  0  0  0  0  0  0  0
   58.0323   25.1180   45.7878 H   0  0  0  0  0  0  0  0  0  0  0  0
   57.4153   28.7892   47.8294 H   0  0  0  0  0  0  0  0  0  0  0  0
   59.4160   30.1160   43.5970 H   0  0  0  0  0  0  0  0  0  0  0  0
  1  2  2  0
  2  3  1  0
  3  4  1  0
  4  5  1  0
  4  6  2  0
  6  7  1  0
  7  8  2  0
  8  9  1  0
  9 10  2  0
 10 11  1  0
 11 12  1  0
 12 13  1  0
 13 14  1  0
 14 15  1  0
 15 16  1  0
 12 17  2  0
 17 18  1  0
 18 19  2  0
 19 20  1  0
 20 21  2  0
 21 22  1  0
 22 23  2  0
 23 24  1  0
 24 25  2  0
 18 26  1  0
 26 27  2  0
  6 28  1  0
 28  2  1  0
 27  8  1  0
 27 11  1  0
 16 14  1  0
 25 20  1  0
  3 29  1  0
  5 30  1  0
  7 31  1  0
  9 32  1  0
 13 33  1  0
 14 34  1  0
 15 35  1  0
 15 36  1  0
 16 37  1  0
 16 38  1  0
 17 39  1  0
 21 40  1  0
 22 41  1  0
 23 42  1  0
 25 43  1  0
 28 44  1  0
M  END
>  <smiles>  (70) 
O=c1[nH]c(O)c(C=c2cnn3c(NC4CC4)cc(=Nc4cccnc4)nc23)[nH]1

>  <score_type>  (70) 
oracle

>  <origin>  (70) 
adg

>  <m_score__min__energy>  (70) 
-9.0299999999999994

>  <m_primary>  (70) 
energy

$$$$
70:0
     RDKit          3D

 31 33  0  0  0  0  0  0  0  0999 V2000
   55.1570   29.3640   44.7500 O   0  0  0  0  0  0  0  0  0  0  0  0
   56.3570   29.1820   45.0940 C   0  0  0  0  0  0  0  0  0  0  0  0
   57.3970   30.1790   44.6890 C   0  0  0  0  0  0  0  0  0  0  0  0
   56.9240   31.5120   44.8870 O   0  0  0  0  0  0  0  0  0  0  0  0
   57.7100   32.5960   45.3100 C   0  0  0  0  0  0  0  0  0  0  0  0
   58.3870   33.4420   44.4080 C   0  0  0  0  0  0  0  0  0  0  0  0
   59.1600   34.5060   44.8860 C   0  0  0  0  0  0  0  0  0  0  0  0
   59.2610   34.7370   46.2610 C   0  0  0  0  0  0  0  0  0  0  0  0
   58.5900   33.9050   47.1590 C   0  0  0  0  0  0  0  0  0  0  0  0
   57.8170   32.8400   46.6850 C   0  0  0  0  0  0  0  0  0  0  0  0
   56.7370   28.0570   45.9030 N   0  0  0  0  0  0  0  0  0  0  0  0
   56.3820   26.8210   45.7150 C   0  0  0  0  0  0  0  0  0  0  0  0
   57.2440   25.9030   45.2050 N   0  0  0  0  0  0  0  0  0  0  0  0
   56.4940   24.7920   45.1720 C   0  0  0  0  0  0  0  0  0  0  0  0
   56.8670   23.5240   44.7340 C   0  0  0  0  0  0  0  0  0  0  0  0
   55.9000   22.5020   44.7910 C   0  0  0  0  0  0  0  0  0  0  0  0
   54.6020   22.7730   45.2810 C   0  0  0  0  0  0  0  0  0  0  0  0
   54.2600   24.0690   45.7150 C   0  0  0  0  0  0  0  0  0  0  0  0
   55.2430   25.0540   45.6430 C   0  0  0  0  0  0  0  0  0  0  0  0
   55.1400   26.3420   45.9980 N   0  0  0  0  0  0  0  0  0  0  0  0
   58.3016   30.0233   45.2951 H   0  0  0  0  0  0  0  0  0  0  0  0
   57.6234   30.0394   43.6216 H   0  0  0  0  0  0  0  0  0  0  0  0
   58.3073   33.2651   43.3252 H   0  0  0  0  0  0  0  0  0  0  0  0
   59.6890   35.1617   44.1787 H   0  0  0  0  0  0  0  0  0  0  0  0
   59.8689   35.5739   46.6352 H   0  0  0  0  0  0  0  0  0  0  0  0
   58.6693   34.0872   48.2409 H   0  0  0  0  0  0  0  0  0  0  0  0
   57.2891   32.1891   47.3976 H   0  0  0  0  0  0  0  0  0  0  0  0
   57.8814   23.3276   44.3567 H   0  0  0  0  0  0  0  0  0  0  0  0
   56.1560   21.4872   44.4524 H   0  0  0  0  0  0  0  0  0  0  0  0
   53.8545   21.9671   45.3237 H   0  0  0  0  0  0  0  0  0  0  0  0
   53.2535   24.2951   46.0968 H   0  0  0  0  0  0  0  0  0  0  0  0
  1  2  2  0
  2  3  1  0
  3  4  1  0
  4  5  1  0
  5  6  2  0
  6  7  1  0
  7  8  2  0
  8  9  1  0
  9 10  2  0
  2 11  1  0
 11 12  2  3
 12 13  1  0
 13 14  1  0
 14 15  2  0
 15 16  1  0
 16 17  2  0
 17 18  1  0
 18 19  2  0
 19 20  1  0
 10  5  1  0
 20 12  1  0
 19 14  1  0
  3 21  1  0
  3 22  1  0
  6 23  1  0
  7 24  1  0
  8 25  1  0
  9 26  1  0
 10 27  1  0
 15 28  1  0
 16 29  1  0
 17 30  1  0
 18 31  1  0
M  CHG  2  13  -1  20  -1
M  END
>  <UniqueID>  (71) 
62

>  <SMILES>  (71) 
O=C(COc1ccccc1)N=c1[n-]c2ccccc2[n-]1

>  <Energy>  (71) 
69.77289973829939

>  <Genealogy>  (71) 
O=C(COc1ccccc1)N=c1[n-]c2ccccc2[n-]1 (protonated)
O=C(COc1ccccc1)N=c1[n-]c2ccccc2[n-]1 (3D coordinates assigned)
O=C(COc1ccccc1)N=c1[n-]c2ccccc2[n-]1 (optimized conformer: 69.77289973829939 kcal/mol)

>  <smiles>  (71) 
O=C(COc1ccccc1)N=c1[nH]c2ccccc2[nH]1

>  <score_type>  (71) 
oracle

>  <origin>  (71) 
adg

>  <m_score__min__energy>  (71) 
-10.869999999999999

>  <m_primary>  (71) 
energy

$$$$
71:0
     RDKit          3D

 66 69  0  0  0  0  0  0  0  0999 V2000
   64.5990   33.0530   49.6690 C   0  0  0  0  0  0  0  0  0  0  0  0
   63.5090   33.3660   48.6870 C   0  0  0  0  0  0  0  0  0  0  0  0
   63.8230   33.5730   47.3360 C   0  0  0  0  0  0  0  0  0  0  0  0
   62.8080   33.8230   46.4080 C   0  0  0  0  0  0  0  0  0  0  0  0
   61.4740   33.8610   46.8210 C   0  0  0  0  0  0  0  0  0  0  0  0
   61.1450   33.6570   48.1700 C   0  0  0  0  0  0  0  0  0  0  0  0
   59.7050   33.6310   48.6010 C   0  0  0  0  0  0  0  0  0  0  0  0
   59.4200   32.3820   49.3130 N   0  0  0  0  0  0  0  0  0  0  0  0
   58.7690   32.4070   50.5900 C   0  0  0  0  0  0  0  0  0  0  0  0
   59.1600   33.3390   51.5520 C   0  0  0  0  0  0  0  0  0  0  0  0
   58.5110   33.3820   52.7840 C   0  0  0  0  0  0  0  0  0  0  0  0
   57.4690   32.4960   53.0640 C   0  0  0  0  0  0  0  0  0  0  0  0
   57.0470   31.5380   52.1090 C   0  0  0  0  0  0  0  0  0  0  0  0
   55.9620   30.6010   52.4020 N   0  0  0  0  0  0  0  0  0  0  0  0
   56.2770   29.3460   53.1220 C   0  0  0  0  0  0  0  0  0  0  0  0
   55.0570   28.4840   53.4580 C   0  0  0  0  0  0  0  0  0  0  0  0
   54.0810   28.5040   52.3710 N   0  0  0  0  0  0  0  0  0  0  0  0
   53.5380   29.8540   52.2410 C   0  0  0  0  0  0  0  0  0  0  0  0
   54.6200   30.8590   51.8270 C   0  0  0  0  0  0  0  0  0  0  0  0
   57.7250   31.5140   50.8670 C   0  0  0  0  0  0  0  0  0  0  0  0
   59.7520   30.8610   48.5470 S   0  0  0  0  0  0  0  0  0  0  0  0
   61.2400   30.6880   48.4180 O   0  0  0  0  0  0  0  0  0  0  0  0
   59.2050   29.7290   49.3700 O   0  0  0  0  0  0  0  0  0  0  0  0
   58.9810   30.8460   46.9660 C   0  0  0  0  0  0  0  0  0  0  0  0
   58.8120   32.0460   46.2700 C   0  0  0  0  0  0  0  0  0  0  0  0
   58.2200   32.0530   45.0050 C   0  0  0  0  0  0  0  0  0  0  0  0
   57.7830   30.8530   44.4040 C   0  0  0  0  0  0  0  0  0  0  0  0
   57.1700   30.8560   43.0860 N   0  0  0  0  0  0  0  0  0  0  0  0
   57.4260   31.9520   42.1440 C   0  0  0  0  0  0  0  0  0  0  0  0
   56.2810   29.7620   42.6730 C   0  0  0  0  0  0  0  0  0  0  0  0
   57.9620   29.6480   45.1200 C   0  0  0  0  0  0  0  0  0  0  0  0
   58.5540   29.6470   46.3860 C   0  0  0  0  0  0  0  0  0  0  0  0
   62.1670   33.3920   49.0970 C   0  0  0  0  0  0  0  0  0  0  0  0
   64.2129   33.1639   50.6930 H   0  0  0  0  0  0  0  0  0  0  0  0
   64.9438   32.0196   49.5170 H   0  0  0  0  0  0  0  0  0  0  0  0
   65.4396   33.7461   49.5170 H   0  0  0  0  0  0  0  0  0  0  0  0
   64.8716   33.5385   47.0055 H   0  0  0  0  0  0  0  0  0  0  0  0
   63.0602   33.9901   45.3504 H   0  0  0  0  0  0  0  0  0  0  0  0
   60.6782   34.0516   46.0859 H   0  0  0  0  0  0  0  0  0  0  0  0
   59.5083   34.4838   49.2674 H   0  0  0  0  0  0  0  0  0  0  0  0
   59.0598   33.6968   47.7126 H   0  0  0  0  0  0  0  0  0  0  0  0
   59.9805   34.0396   51.3377 H   0  0  0  0  0  0  0  0  0  0  0  0
   58.8213   34.1181   53.5403 H   0  0  0  0  0  0  0  0  0  0  0  0
   56.9674   32.5424   54.0419 H   0  0  0  0  0  0  0  0  0  0  0  0
   56.9560   28.7506   52.4939 H   0  0  0  0  0  0  0  0  0  0  0  0
   56.7265   29.6401   54.0819 H   0  0  0  0  0  0  0  0  0  0  0  0
   55.3852   27.4477   53.6266 H   0  0  0  0  0  0  0  0  0  0  0  0
   54.5805   28.8916   54.3618 H   0  0  0  0  0  0  0  0  0  0  0  0
   53.3000   27.8450   52.6010 H   0  0  0  0  0  0  0  0  0  0  0  0
   54.5270   28.2000   51.4720 H   0  0  0  0  0  0  0  0  0  0  0  0
   52.7453   29.8482   51.4784 H   0  0  0  0  0  0  0  0  0  0  0  0
   53.1391   30.1606   53.2192 H   0  0  0  0  0  0  0  0  0  0  0  0
   54.7073   30.8354   50.7307 H   0  0  0  0  0  0  0  0  0  0  0  0
   54.2994   31.8366   52.2163 H   0  0  0  0  0  0  0  0  0  0  0  0
   57.4267   30.7800   50.1040 H   0  0  0  0  0  0  0  0  0  0  0  0
   59.1475   32.9913   46.7215 H   0  0  0  0  0  0  0  0  0  0  0  0
   58.0927   33.0058   44.4703 H   0  0  0  0  0  0  0  0  0  0  0  0
   57.6414   32.8740   42.7040 H   0  0  0  0  0  0  0  0  0  0  0  0
   58.2889   31.6974   41.5110 H   0  0  0  0  0  0  0  0  0  0  0  0
   56.5397   32.1060   41.5110 H   0  0  0  0  0  0  0  0  0  0  0  0
   55.8752   29.2626   43.5652 H   0  0  0  0  0  0  0  0  0  0  0  0
   55.4540   30.1685   42.0723 H   0  0  0  0  0  0  0  0  0  0  0  0
   56.8481   29.0357   42.0723 H   0  0  0  0  0  0  0  0  0  0  0  0
   57.6310   28.6981   44.6750 H   0  0  0  0  0  0  0  0  0  0  0  0
   58.6847   28.6991   46.9287 H   0  0  0  0  0  0  0  0  0  0  0  0
   61.9137   33.2037   50.1508 H   0  0  0  0  0  0  0  0  0  0  0  0
  1  2  1  0
  2  3  2  0
  3  4  1  0
  4  5  2  0
  5  6  1  0
  6  7  1  0
  7  8  1  0
  8  9  1  0
  9 10  2  0
 10 11  1  0
 11 12  2  0
 12 13  1  0
 13 14  1  0
 14 15  1  0
 15 16  1  0
 16 17  1  0
 17 18  1  0
 18 19  1  0
 13 20  2  0
  8 21  1  0
 21 22  2  0
 21 23  2  0
 21 24  1  0
 24 25  2  0
 25 26  1  0
 26 27  2  0
 27 28  1  0
 28 29  1  0
 28 30  1  0
 27 31  1  0
 31 32  2  0
  6 33  2  0
 33  2  1  0
 20  9  1  0
 32 24  1  0
 19 14  1  0
  1 34  1  0
  1 35  1  0
  1 36  1  0
  3 37  1  0
  4 38  1  0
  5 39  1  0
  7 40  1  0
  7 41  1  0
 10 42  1  0
 11 43  1  0
 12 44  1  0
 15 45  1  0
 15 46  1  0
 16 47  1  0
 16 48  1  0
 17 49  1  0
 17 50  1  0
 18 51  1  0
 18 52  1  0
 19 53  1  0
 19 54  1  0
 20 55  1  0
 25 56  1  0
 26 57  1  0
 29 58  1  0
 29 59  1  0
 29 60  1  0
 30 61  1  0
 30 62  1  0
 30 63  1  0
 31 64  1  0
 32 65  1  0
 33 66  1  0
M  CHG  1  17   1
M  END
>  <UniqueID>  (72) 
63

>  <SMILES>  (72) 
Cc1cccc(CN(c2cccc(N3CC[NH2+]CC3)c2)S(=O)(=O)c2ccc(N(C)C)cc2)c1

>  <Energy>  (72) 
79.1832156845574

>  <Genealogy>  (72) 
Cc1cccc(CN(c2cccc(N3CC[NH2+]CC3)c2)S(=O)(=O)c2ccc(N(C)C)cc2)c1 (protonated)
Cc1cccc(CN(c2cccc(N3CC[NH2+]CC3)c2)S(=O)(=O)c2ccc(N(C)C)cc2)c1 (3D coordinates assigned)
Cc1cccc(CN(c2cccc(N3CC[NH2+]CC3)c2)S(=O)(=O)c2ccc(N(C)C)cc2)c1 (nonaromatic ring conformer: 79.1832156845574 kcal/mol)

>  <smiles>  (72) 
Cc1cccc(CN(c2cccc(N3CCNCC3)c2)S(=O)(=O)c2ccc(N(C)C)cc2)c1

>  <score_type>  (72) 
oracle

>  <origin>  (72) 
adg

>  <m_score__min__energy>  (72) 
-8.3000000000000007

>  <m_primary>  (72) 
energy

$$$$
72:0
     RDKit          3D

 29 30  0  0  0  0  0  0  0  0999 V2000
   59.0520   31.1700   47.7690 C   0  0  0  0  0  0  0  0  0  0  0  0
   58.7470   32.2290   46.7440 C   0  0  0  0  0  0  0  0  0  0  0  0
   58.6890   33.5740   47.1520 C   0  0  0  0  0  0  0  0  0  0  0  0
   58.4520   34.5870   46.2200 C   0  0  0  0  0  0  0  0  0  0  0  0
   58.2680   34.2710   44.8740 C   0  0  0  0  0  0  0  0  0  0  0  0
   58.3020   32.9390   44.4580 C   0  0  0  0  0  0  0  0  0  0  0  0
   58.5120   31.9080   45.3850 C   0  0  0  0  0  0  0  0  0  0  0  0
   58.5210   30.5500   44.9190 N   0  0  0  0  0  0  0  0  0  0  0  0
   57.3210   29.7670   44.8130 C   0  0  0  0  0  0  0  0  0  0  0  0
   56.1980   30.3390   44.8700 O   0  0  0  0  0  0  0  0  0  0  0  0
   57.3850   28.3000   44.6080 C   0  0  0  0  0  0  0  0  0  0  0  0
   57.7660   27.7590   43.3640 C   0  0  0  0  0  0  0  0  0  0  0  0
   57.8310   26.3730   43.1850 C   0  0  0  0  0  0  0  0  0  0  0  0
   57.5230   25.5140   44.2430 C   0  0  0  0  0  0  0  0  0  0  0  0
   57.1540   26.0390   45.4830 C   0  0  0  0  0  0  0  0  0  0  0  0
   57.0880   27.4240   45.6680 C   0  0  0  0  0  0  0  0  0  0  0  0
   58.9308   31.5907   48.7781 H   0  0  0  0  0  0  0  0  0  0  0  0
   58.3610   30.3241   47.6390 H   0  0  0  0  0  0  0  0  0  0  0  0
   60.0871   30.8212   47.6390 H   0  0  0  0  0  0  0  0  0  0  0  0
   58.8313   33.8297   48.2124 H   0  0  0  0  0  0  0  0  0  0  0  0
   58.4104   35.6361   46.5482 H   0  0  0  0  0  0  0  0  0  0  0  0
   58.0960   35.0719   44.1399 H   0  0  0  0  0  0  0  0  0  0  0  0
   58.1629   32.6961   43.3942 H   0  0  0  0  0  0  0  0  0  0  0  0
   59.3830   30.2080   44.4360 H   0  0  0  0  0  0  0  0  0  0  0  0
   58.0138   28.4304   42.5286 H   0  0  0  0  0  0  0  0  0  0  0  0
   58.1252   25.9587   42.2094 H   0  0  0  0  0  0  0  0  0  0  0  0
   57.5712   24.4245   44.0991 H   0  0  0  0  0  0  0  0  0  0  0  0
   56.9147   25.3620   46.3163 H   0  0  0  0  0  0  0  0  0  0  0  0
   56.8019   27.8310   46.6491 H   0  0  0  0  0  0  0  0  0  0  0  0
  1  2  1  0
  2  3  2  0
  3  4  1  0
  4  5  2  0
  5  6  1  0
  6  7  2  0
  7  8  1  0
  8  9  1  0
  9 10  2  0
  9 11  1  0
 11 12  2  0
 12 13  1  0
 13 14  2  0
 14 15  1  0
 15 16  2  0
  7  2  1  0
 16 11  1  0
  1 17  1  0
  1 18  1  0
  1 19  1  0
  3 20  1  0
  4 21  1  0
  5 22  1  0
  6 23  1  0
  8 24  1  0
 12 25  1  0
 13 26  1  0
 14 27  1  0
 15 28  1  0
 16 29  1  0
M  END
>  <UniqueID>  (73) 
64

>  <SMILES>  (73) 
Cc1ccccc1NC(=O)c1ccccc1

>  <Energy>  (73) 
37.323899582382275

>  <Genealogy>  (73) 
Cc1ccccc1NC(=O)c1ccccc1 (3D coordinates assigned)
Cc1ccccc1NC(=O)c1ccccc1 (optimized conformer: 37.323899582382275 kcal/mol)

>  <smiles>  (73) 
Cc1ccccc1NC(=O)c1ccccc1

>  <score_type>  (73) 
oracle

>  <origin>  (73) 
adg

>  <m_score__min__energy>  (73) 
-6.3600000000000003

>  <m_primary>  (73) 
energy

$$$$
73:0
     RDKit          3D

 36 38  0  0  0  0  0  0  0  0999 V2000
   59.7830   29.0600   49.1420 C   0  0  0  0  0  0  0  0  0  0  0  0
   59.3250   30.3460   48.4670 C   0  0  0  0  0  0  0  0  0  0  0  0
   59.6770   30.3490   47.0330 N   0  0  0  0  0  0  0  0  0  0  0  0
   61.0960   30.4610   46.6630 C   0  0  0  0  0  0  0  0  0  0  0  0
   61.6690   31.7310   47.1290 C   0  0  0  0  0  0  0  0  0  0  0  0
   62.1230   32.7290   47.5000 N   0  0  0  0  0  0  0  0  0  0  0  0
   58.7900   29.6720   46.1170 C   0  0  0  0  0  0  0  0  0  0  0  0
   58.6590   28.3160   46.2140 N   0  0  0  0  0  0  0  0  0  0  0  0
   57.9610   27.5810   45.3030 C   0  0  0  0  0  0  0  0  0  0  0  0
   57.3930   28.1870   44.2270 N   0  0  0  0  0  0  0  0  0  0  0  0
   57.4960   29.5310   44.1030 C   0  0  0  0  0  0  0  0  0  0  0  0
   56.8650   30.4600   42.8620 S   0  0  0  0  0  0  0  0  0  0  0  0
   57.3920   31.9270   43.5030 C   0  0  0  0  0  0  0  0  0  0  0  0
   58.0580   31.7000   44.7130 C   0  0  0  0  0  0  0  0  0  0  0  0
   58.4320   32.8300   45.5810 C   0  0  0  0  0  0  0  0  0  0  0  0
   58.0960   32.8120   46.9450 C   0  0  0  0  0  0  0  0  0  0  0  0
   58.5280   33.8410   47.7890 C   0  0  0  0  0  0  0  0  0  0  0  0
   59.3110   34.8810   47.2810 C   0  0  0  0  0  0  0  0  0  0  0  0
   59.6680   34.8910   45.9300 C   0  0  0  0  0  0  0  0  0  0  0  0
   59.2380   33.8640   45.0840 C   0  0  0  0  0  0  0  0  0  0  0  0
   58.1470   30.3240   45.0370 C   0  0  0  0  0  0  0  0  0  0  0  0
   59.7391   29.1834   50.2342 H   0  0  0  0  0  0  0  0  0  0  0  0
   59.1243   28.2325   48.8397 H   0  0  0  0  0  0  0  0  0  0  0  0
   60.8165   28.8352   48.8397 H   0  0  0  0  0  0  0  0  0  0  0  0
   58.2335   30.4361   48.5690 H   0  0  0  0  0  0  0  0  0  0  0  0
   59.8303   31.1940   48.9522 H   0  0  0  0  0  0  0  0  0  0  0  0
   61.6521   29.6282   47.1182 H   0  0  0  0  0  0  0  0  0  0  0  0
   61.1733   30.4261   45.5663 H   0  0  0  0  0  0  0  0  0  0  0  0
   57.8570   26.4944   45.4388 H   0  0  0  0  0  0  0  0  0  0  0  0
   56.8790   27.6240   43.5140 H   0  0  0  0  0  0  0  0  0  0  0  0
   57.2362   32.9129   43.0407 H   0  0  0  0  0  0  0  0  0  0  0  0
   57.4919   31.9870   47.3504 H   0  0  0  0  0  0  0  0  0  0  0  0
   58.2510   33.8313   48.8535 H   0  0  0  0  0  0  0  0  0  0  0  0
   59.6463   35.6917   47.9445 H   0  0  0  0  0  0  0  0  0  0  0  0
   60.2880   35.7077   45.5316 H   0  0  0  0  0  0  0  0  0  0  0  0
   59.5333   33.8674   44.0244 H   0  0  0  0  0  0  0  0  0  0  0  0
  1  2  1  0
  2  3  1  0
  3  4  1  0
  4  5  1  0
  5  6  3  0
  3  7  1  0
  7  8  2  0
  8  9  1  0
  9 10  2  0
 10 11  1  0
 11 12  1  0
 12 13  1  0
 13 14  2  0
 14 15  1  0
 15 16  2  0
 16 17  1  0
 17 18  2  0
 18 19  1  0
 19 20  2  0
 14 21  1  0
 21  7  1  0
 21 11  2  0
 20 15  1  0
  1 22  1  0
  1 23  1  0
  1 24  1  0
  2 25  1  0
  2 26  1  0
  4 27  1  0
  4 28  1  0
  9 29  1  0
 10 30  1  0
 13 31  1  0
 16 32  1  0
 17 33  1  0
 18 34  1  0
 19 35  1  0
 20 36  1  0
M  CHG  1  10   1
M  END
>  <UniqueID>  (74) 
65

>  <SMILES>  (74) 
CCN(CC#N)c1nc[nH+]c2scc(-c3ccccc3)c12

>  <Energy>  (74) 
79.0926676464631

>  <Genealogy>  (74) 
CCN(CC#N)c1nc[nH+]c2scc(-c3ccccc3)c12 (protonated)
CCN(CC#N)c1nc[nH+]c2scc(-c3ccccc3)c12 (3D coordinates assigned)
CCN(CC#N)c1nc[nH+]c2scc(-c3ccccc3)c12 (optimized conformer: 79.0926676464631 kcal/mol)

>  <smiles>  (74) 
CCN(CC#N)c1ncnc2scc(-c3ccccc3)c12

>  <score_type>  (74) 
oracle

>  <origin>  (74) 
adg

>  <m_score__min__energy>  (74) 
-5.2300000000000004

>  <m_primary>  (74) 
energy

$$$$
74:0
     RDKit          3D

 25 27  0  0  0  0  0  0  0  0999 V2000
   55.8960   28.1210   45.2530 O   0  0  0  0  0  0  0  0  0  0  0  0
   56.5380   29.0880   44.7650 C   0  0  0  0  0  0  0  0  0  0  0  0
   56.2110   29.5570   43.4140 C   0  0  0  0  0  0  0  0  0  0  0  0
   56.7860   30.6410   42.8990 C   0  0  0  0  0  0  0  0  0  0  0  0
   57.7760   31.4760   43.6580 C   0  0  2  0  0  0  0  0  0  0  0  0
   58.2120   31.0170   44.9880 C   0  0  2  0  0  0  0  0  0  0  0  0
   57.6600   29.7000   45.5570 C   0  0  0  0  0  0  0  0  0  0  0  0
   57.1560   32.0500   44.8760 N   0  0  0  0  0  0  0  0  0  0  0  0
   57.7750   33.6530   45.2260 S   0  0  0  0  0  0  0  0  0  0  0  0
   58.7170   34.0480   44.1230 O   0  0  0  0  0  0  0  0  0  0  0  0
   56.6230   34.6170   45.2190 O   0  0  0  0  0  0  0  0  0  0  0  0
   58.6250   33.8290   46.7610 C   0  0  0  0  0  0  0  0  0  0  0  0
   58.4580   33.0240   47.8800 C   0  0  0  0  0  0  0  0  0  0  0  0
   59.3110   33.3680   48.9340 C   0  0  0  0  0  0  0  0  0  0  0  0
   60.1570   34.4310   48.6430 C   0  0  0  0  0  0  0  0  0  0  0  0
   59.8460   34.9420   47.0700 S   0  0  0  0  0  0  0  0  0  0  0  0
   55.4753   29.0011   42.8143 H   0  0  0  0  0  0  0  0  0  0  0  0
   56.5245   30.9380   41.8726 H   0  0  0  0  0  0  0  0  0  0  0  0
   58.3396   31.8225   42.7792 H   0  0  0  0  0  0  0  0  0  0  0  0
   59.2119   30.9058   45.4327 H   0  0  0  0  0  0  0  0  0  0  0  0
   58.4849   28.9735   45.5982 H   0  0  0  0  0  0  0  0  0  0  0  0
   57.2428   29.9424   46.5455 H   0  0  0  0  0  0  0  0  0  0  0  0
   57.7302   32.2009   47.9323 H   0  0  0  0  0  0  0  0  0  0  0  0
   59.3119   32.8460   49.9022 H   0  0  0  0  0  0  0  0  0  0  0  0
   60.9032   34.8648   49.3249 H   0  0  0  0  0  0  0  0  0  0  0  0
  1  2  2  0
  2  3  1  0
  3  4  2  0
  4  5  1  0
  5  6  1  0
  6  7  1  0
  6  8  1  0
  8  9  1  0
  9 10  2  0
  9 11  2  0
  9 12  1  0
 12 13  2  0
 13 14  1  0
 14 15  2  0
 15 16  1  0
  7  2  1  0
 16 12  1  0
  8  5  1  0
  3 17  1  0
  4 18  1  0
  5 19  1  6
  6 20  1  1
  7 21  1  0
  7 22  1  0
 13 23  1  0
 14 24  1  0
 15 25  1  0
M  END
>  <UniqueID>  (75) 
66

>  <SMILES>  (75) 
O=C1C=C[C@@H]2[C@H](C1)N2S(=O)(=O)c1cccs1

>  <Energy>  (75) 
394.99555270331786

>  <Genealogy>  (75) 
O=C1C=C[C@@H]2[C@H](C1)N2S(=O)(=O)c1cccs1 (chirality)
O=C1C=C[C@@H]2[C@H](C1)N2S(=O)(=O)c1cccs1 (3D coordinates assigned)
O=C1C=C[C@@H]2[C@H](C1)N2S(=O)(=O)c1cccs1 (nonaromatic ring conformer: 394.99555270331786 kcal/mol)

>  <smiles>  (75) 
O=C1C=CC2C(C1)N2S(=O)(=O)c1cccs1

>  <score_type>  (75) 
oracle

>  <origin>  (75) 
adg

>  <m_score__min__energy>  (75) 
-7.5

>  <m_primary>  (75) 
energy

$$$$
75:0
     RDKit          3D

 60 63  0  0  0  0  0  0  0  0999 V2000
   55.8990   24.4670   45.2650 C   0  0  0  0  0  0  0  0  0  0  0  0
   55.9010   25.4110   46.3310 O   0  0  0  0  0  0  0  0  0  0  0  0
   56.6920   26.5690   46.3620 C   0  0  0  0  0  0  0  0  0  0  0  0
   57.8810   26.6490   47.1080 C   0  0  0  0  0  0  0  0  0  0  0  0
   58.6260   27.8290   47.1170 C   0  0  0  0  0  0  0  0  0  0  0  0
   58.1930   28.9480   46.4000 C   0  0  0  0  0  0  0  0  0  0  0  0
   58.9750   30.1430   46.4580 N   0  0  0  0  0  0  0  0  0  0  0  0
   59.3770   30.9510   47.9400 S   0  0  0  0  0  0  0  0  0  0  0  0
   58.1490   31.6520   48.4500 O   0  0  0  0  0  0  0  0  0  0  0  0
   59.8480   29.9550   48.9640 O   0  0  0  0  0  0  0  0  0  0  0  0
   60.6850   32.0970   47.6290 C   0  0  0  0  0  0  0  0  0  0  0  0
   61.8980   31.9290   48.3100 C   0  0  0  0  0  0  0  0  0  0  0  0
   62.9680   32.8170   48.1090 C   0  0  0  0  0  0  0  0  0  0  0  0
   64.2200   32.6420   48.7930 N   0  0  0  0  0  0  0  0  0  0  0  0
   64.5180   33.2190   50.0750 C   0  0  0  0  0  0  0  0  0  0  0  0
   63.8570   34.2080   50.4950 O   0  0  0  0  0  0  0  0  0  0  0  0
   65.6040   32.6140   50.9310 C   0  0  0  0  0  0  0  0  0  0  0  0
   66.5290   33.6640   51.5400 C   0  0  0  0  0  0  0  0  0  0  0  0
   67.7020   33.0870   50.7590 C   0  0  0  0  0  0  0  0  0  0  0  0
   66.7840   32.0340   50.1490 C   0  0  0  0  0  0  0  0  0  0  0  0
   62.8260   33.8560   47.1810 C   0  0  0  0  0  0  0  0  0  0  0  0
   61.6190   34.0370   46.5020 C   0  0  0  0  0  0  0  0  0  0  0  0
   60.5390   33.1720   46.7270 C   0  0  0  0  0  0  0  0  0  0  0  0
   59.3000   33.4070   46.0460 N   0  0  0  0  0  0  0  0  0  0  0  0
   58.8700   32.6140   44.9100 C   0  0  0  0  0  0  0  0  0  0  0  0
   57.3690   32.8530   44.7920 C   0  0  0  0  0  0  0  0  0  0  0  0
   57.0780   34.0970   45.6290 C   0  0  0  0  0  0  0  0  0  0  0  0
   58.2350   34.2140   46.6120 C   0  0  0  0  0  0  0  0  0  0  0  0
   57.0260   28.8710   45.6170 C   0  0  0  0  0  0  0  0  0  0  0  0
   56.6550   29.9800   44.8380 O   0  0  0  0  0  0  0  0  0  0  0  0
   56.5170   29.9630   43.4210 C   0  0  0  0  0  0  0  0  0  0  0  0
   56.2760   27.6780   45.6170 C   0  0  0  0  0  0  0  0  0  0  0  0
   55.8968   23.4475   45.6781 H   0  0  0  0  0  0  0  0  0  0  0  0
   55.0012   24.6140   44.6467 H   0  0  0  0  0  0  0  0  0  0  0  0
   56.7974   24.6102   44.6467 H   0  0  0  0  0  0  0  0  0  0  0  0
   58.2251   25.7789   47.6863 H   0  0  0  0  0  0  0  0  0  0  0  0
   59.5617   27.8789   47.6931 H   0  0  0  0  0  0  0  0  0  0  0  0
   62.0141   31.0900   49.0119 H   0  0  0  0  0  0  0  0  0  0  0  0
   64.9680   32.0840   48.3210 H   0  0  0  0  0  0  0  0  0  0  0  0
   64.9919   31.9537   51.5629 H   0  0  0  0  0  0  0  0  0  0  0  0
   66.2741   34.6988   51.2676 H   0  0  0  0  0  0  0  0  0  0  0  0
   66.5926   33.7828   52.6317 H   0  0  0  0  0  0  0  0  0  0  0  0
   68.1373   33.7815   50.0254 H   0  0  0  0  0  0  0  0  0  0  0  0
   68.6222   32.7860   51.2811 H   0  0  0  0  0  0  0  0  0  0  0  0
   66.6790   32.1077   49.0565 H   0  0  0  0  0  0  0  0  0  0  0  0
   67.0327   30.9653   50.2259 H   0  0  0  0  0  0  0  0  0  0  0  0
   63.6701   34.5337   46.9856 H   0  0  0  0  0  0  0  0  0  0  0  0
   61.5150   34.8648   45.7851 H   0  0  0  0  0  0  0  0  0  0  0  0
   59.3848   32.9423   43.9950 H   0  0  0  0  0  0  0  0  0  0  0  0
   59.1044   31.5477   45.0442 H   0  0  0  0  0  0  0  0  0  0  0  0
   57.0899   33.0241   43.7419 H   0  0  0  0  0  0  0  0  0  0  0  0
   56.7922   31.9848   45.1435 H   0  0  0  0  0  0  0  0  0  0  0  0
   57.0293   34.9885   44.9865 H   0  0  0  0  0  0  0  0  0  0  0  0
   56.1113   34.0193   46.1481 H   0  0  0  0  0  0  0  0  0  0  0  0
   58.5549   35.2621   46.7079 H   0  0  0  0  0  0  0  0  0  0  0  0
   57.9536   33.8742   47.6196 H   0  0  0  0  0  0  0  0  0  0  0  0
   55.4571   29.8324   43.1574 H   0  0  0  0  0  0  0  0  0  0  0  0
   56.8838   30.9131   43.0054 H   0  0  0  0  0  0  0  0  0  0  0  0
   57.1035   29.1303   43.0054 H   0  0  0  0  0  0  0  0  0  0  0  0
   55.3517   27.6178   45.0237 H   0  0  0  0  0  0  0  0  0  0  0  0
  1  2  1  0
  2  3  1  0
  3  4  2  0
  4  5  1  0
  5  6  2  0
  6  7  1  0
  7  8  1  0
  8  9  2  0
  8 10  2  0
  8 11  1  0
 11 12  2  0
 12 13  1  0
 13 14  1  0
 14 15  1  0
 15 16  2  0
 15 17  1  0
 17 18  1  0
 18 19  1  0
 19 20  1  0
 13 21  2  0
 21 22  1  0
 22 23  2  0
 23 24  1  0
 24 25  1  0
 25 26  1  0
 26 27  1  0
 27 28  1  0
  6 29  1  0
 29 30  1  0
 30 31  1  0
 29 32  2  0
 32  3  1  0
 23 11  1  0
 28 24  1  0
 20 17  1  0
  1 33  1  0
  1 34  1  0
  1 35  1  0
  4 36  1  0
  5 37  1  0
 12 38  1  0
 14 39  1  0
 17 40  1  0
 18 41  1  0
 18 42  1  0
 19 43  1  0
 19 44  1  0
 20 45  1  0
 20 46  1  0
 21 47  1  0
 22 48  1  0
 25 49  1  0
 25 50  1  0
 26 51  1  0
 26 52  1  0
 27 53  1  0
 27 54  1  0
 28 55  1  0
 28 56  1  0
 31 57  1  0
 31 58  1  0
 31 59  1  0
 32 60  1  0
M  CHG  1   7  -1
M  END
>  <UniqueID>  (76) 
67

>  <SMILES>  (76) 
COc1ccc([N-]S(=O)(=O)c2cc(NC(=O)C3CCC3)ccc2N2CCCC2)c(OC)c1

>  <Energy>  (76) 
137.83150437670477

>  <Genealogy>  (76) 
COc1ccc([N-]S(=O)(=O)c2cc(NC(=O)C3CCC3)ccc2N2CCCC2)c(OC)c1 (protonated)
COc1ccc([N-]S(=O)(=O)c2cc(NC(=O)C3CCC3)ccc2N2CCCC2)c(OC)c1 (3D coordinates assigned)
COc1ccc([N-]S(=O)(=O)c2cc(NC(=O)C3CCC3)ccc2N2CCCC2)c(OC)c1 (nonaromatic ring conformer: 137.83150437670477 kcal/mol)

>  <smiles>  (76) 
COc1ccc(NS(=O)(=O)c2cc(NC(=O)C3CCC3)ccc2N2CCCC2)c(OC)c1

>  <score_type>  (76) 
oracle

>  <origin>  (76) 
adg

>  <m_score__min__energy>  (76) 
-9.7300000000000004

>  <m_primary>  (76) 
energy

$$$$
76:0
     RDKit          3D

 46 48  0  0  0  0  0  0  0  0999 V2000
   58.0094   28.4632   43.4453 H   0  0  0  0  0  0  0  0  0  0  0  0
   57.3460   29.0690   44.0800 C   0  0  0  0  0  0  0  0  0  0  0  0
   57.0560   30.4490   43.6530 C   0  0  0  0  0  0  0  0  0  0  0  0
   56.2690   30.6240   42.6850 O   0  0  0  0  0  0  0  0  0  0  0  0
   57.6940   31.6240   44.2900 C   0  0  0  0  0  0  0  0  0  0  0  0
   57.7770   31.6870   45.6900 C   0  0  0  0  0  0  0  0  0  0  0  0
   57.4149   30.8443   46.2972 H   0  0  0  0  0  0  0  0  0  0  0  0
   58.3170   32.8140   46.3180 C   0  0  0  0  0  0  0  0  0  0  0  0
   58.3934   32.8474   47.4148 H   0  0  0  0  0  0  0  0  0  0  0  0
   58.7590   33.8960   45.5560 C   0  0  0  0  0  0  0  0  0  0  0  0
   59.2850   35.0190   46.1820 O   0  0  0  0  0  0  0  0  0  0  0  0
   58.6740   33.8490   44.1620 C   0  0  0  0  0  0  0  0  0  0  0  0
   59.0186   34.7050   43.5632 H   0  0  0  0  0  0  0  0  0  0  0  0
   58.1520   32.7170   43.5240 C   0  0  0  0  0  0  0  0  0  0  0  0
   58.0710   32.7040   42.1360 O   0  0  0  0  0  0  0  0  0  0  0  0
   56.8540   28.5030   45.1920 C   0  0  0  0  0  0  0  0  0  0  0  0
   56.1837   29.1094   45.8189 H   0  0  0  0  0  0  0  0  0  0  0  0
   57.1480   27.1170   45.6390 C   0  0  0  0  0  0  0  0  0  0  0  0
   56.0900   26.2580   46.0060 C   0  0  0  0  0  0  0  0  0  0  0  0
   54.7730   26.7040   45.9970 O   0  0  0  0  0  0  0  0  0  0  0  0
   56.3470   24.9310   46.3560 C   0  0  0  0  0  0  0  0  0  0  0  0
   55.5203   24.2868   46.6899 H   0  0  0  0  0  0  0  0  0  0  0  0
   57.6400   24.4130   46.2870 C   0  0  0  0  0  0  0  0  0  0  0  0
   57.8390   23.0690   46.6380 O   0  0  0  0  0  0  0  0  0  0  0  0
   57.7430   21.9780   45.7280 C   0  0  0  0  0  0  0  0  0  0  0  0
   57.6602   21.0368   46.2914 H   0  0  0  0  0  0  0  0  0  0  0  0
   56.8526   22.1059   45.0948 H   0  0  0  0  0  0  0  0  0  0  0  0
   58.6420   21.9485   45.0948 H   0  0  0  0  0  0  0  0  0  0  0  0
   58.6910   25.2450   45.8700 C   0  0  0  0  0  0  0  0  0  0  0  0
   59.7022   24.8267   45.7588 H   0  0  0  0  0  0  0  0  0  0  0  0
   58.4690   26.6080   45.5920 C   0  0  0  0  0  0  0  0  0  0  0  0
   59.6090   27.4820   45.2090 C   0  0  0  0  0  0  0  0  0  0  0  0
   59.8457   27.5511   44.1370 H   0  0  0  0  0  0  0  0  0  0  0  0
   60.3780   28.1960   46.0500 C   0  0  0  0  0  0  0  0  0  0  0  0
   61.3592   28.5176   45.6707 H   0  0  0  0  0  0  0  0  0  0  0  0
   60.0360   28.5940   47.4390 C   0  0  0  0  0  0  0  0  0  0  0  0
   60.4030   27.8180   48.5540 C   0  0  0  0  0  0  0  0  0  0  0  0
   60.9763   26.8904   48.4093 H   0  0  0  0  0  0  0  0  0  0  0  0
   60.0440   28.2180   49.8440 C   0  0  0  0  0  0  0  0  0  0  0  0
   60.3511   27.6150   50.7112 H   0  0  0  0  0  0  0  0  0  0  0  0
   59.2960   29.3820   50.0340 C   0  0  0  0  0  0  0  0  0  0  0  0
   58.9420   29.7800   51.3160 O   0  0  0  0  0  0  0  0  0  0  0  0
   58.9010   30.1450   48.9310 C   0  0  0  0  0  0  0  0  0  0  0  0
   58.3059   31.0582   49.0792 H   0  0  0  0  0  0  0  0  0  0  0  0
   59.2620   29.7480   47.6390 C   0  0  0  0  0  0  0  0  0  0  0  0
   58.9371   30.3443   46.7737 H   0  0  0  0  0  0  0  0  0  0  0  0
  1  2  1  0
  2  3  1  0
  3  4  2  0
  3  5  1  0
  5  6  2  0
  6  7  1  0
  6  8  1  0
  8  9  1  0
  8 10  2  0
 10 11  1  0
 10 12  1  0
 12 13  1  0
 12 14  2  0
 14 15  1  0
  2 16  2  3
 16 17  1  0
 16 18  1  0
 18 19  2  0
 19 20  1  0
 19 21  1  0
 21 22  1  0
 21 23  2  0
 23 24  1  0
 24 25  1  0
 25 26  1  0
 25 27  1  0
 25 28  1  0
 23 29  1  0
 29 30  1  0
 29 31  2  0
 31 32  1  0
 32 33  1  0
 32 34  2  0
 34 35  1  0
 34 36  1  0
 36 37  2  0
 37 38  1  0
 37 39  1  0
 39 40  1  0
 39 41  2  0
 41 42  1  0
 41 43  1  0
 43 44  1  0
 43 45  2  0
 45 46  1  0
 14  5  1  0
 31 18  1  0
 45 36  1  0
M  CHG  4  11  -1  15  -1  20  -1  42  -1
M  END
>  <UniqueID>  (77) 
68

>  <SMILES>  (77) 
COc1cc([O-])c(C=CC(=O)c2ccc([O-])cc2[O-])c(/C=C\c2ccc([O-])cc2)c1

>  <Energy>  (77) 
72.07781362725673

>  <Genealogy>  (77) 
COc1cc([O-])c(C=CC(=O)c2ccc([O-])cc2[O-])c(C=Cc2ccc([O-])cc2)c1 (protonated)
COc1cc([O-])c(C=CC(=O)c2ccc([O-])cc2[O-])c(/C=C\c2ccc([O-])cc2)c1 (cis-trans isomerization)
COc1cc([O-])c(C=CC(=O)c2ccc([O-])cc2[O-])c(/C=C\c2ccc([O-])cc2)c1 (3D coordinates assigned)
COc1cc([O-])c(C=CC(=O)c2ccc([O-])cc2[O-])c(/C=C\c2ccc([O-])cc2)c1 (optimized conformer: 72.07781362725673 kcal/mol)

>  <smiles>  (77) 
COc1cc(O)c(C=CC(=O)c2ccc(O)cc2O)c(C=Cc2ccc(O)cc2)c1

>  <score_type>  (77) 
oracle

>  <origin>  (77) 
adg

>  <m_score__min__energy>  (77) 
-18.289999999999999

>  <m_primary>  (77) 
energy

$$$$
77:0
     RDKit          3D

 45 48  0  0  0  0  0  0  0  0999 V2000
   56.2860   21.8640   43.6630 O   0  0  0  0  0  0  0  0  0  0  0  0
   55.8040   23.0270   43.6120 C   0  0  0  0  0  0  0  0  0  0  0  0
   54.7420   23.2780   42.7510 O   0  0  0  0  0  0  0  0  0  0  0  0
   56.3590   24.1090   44.4530 C   0  0  0  0  0  0  0  0  0  0  0  0
   55.5230   24.8680   45.2910 C   0  0  0  0  0  0  0  0  0  0  0  0
   56.0540   25.8900   46.0830 C   0  0  0  0  0  0  0  0  0  0  0  0
   57.4280   26.1650   46.0670 C   0  0  0  0  0  0  0  0  0  0  0  0
   57.9430   27.2360   46.8750 N   0  0  0  0  0  0  0  0  0  0  0  0
   59.0780   27.1090   47.7480 C   0  0  0  0  0  0  0  0  0  0  0  0
   59.5130   25.9680   48.0600 O   0  0  0  0  0  0  0  0  0  0  0  0
   59.6860   28.3440   48.3730 C   0  0  2  0  0  0  0  0  0  0  0  0
   58.6040   29.3730   48.8160 C   0  0  0  0  0  0  0  0  0  0  0  0
   58.7300   30.7380   48.1210 C   0  0  0  0  0  0  0  0  0  0  0  0
   58.9170   30.5770   46.6000 C   0  0  1  0  0  0  0  0  0  0  0  0
   60.1370   29.6850   46.2320 C   0  0  0  0  0  0  0  0  0  0  0  0
   60.7510   28.9530   47.4390 C   0  0  0  0  0  0  0  0  0  0  0  0
   57.7190   30.0220   46.0290 O   0  0  0  0  0  0  0  0  0  0  0  0
   57.1490   30.9120   45.1290 C   0  0  0  0  0  0  0  0  0  0  0  0
   56.0940   30.6870   44.4820 O   0  0  0  0  0  0  0  0  0  0  0  0
   57.9450   32.1080   45.0640 C   0  0  0  0  0  0  0  0  0  0  0  0
   57.7780   33.2740   44.3190 C   0  0  0  0  0  0  0  0  0  0  0  0
   58.7320   34.2940   44.4730 C   0  0  0  0  0  0  0  0  0  0  0  0
   59.8160   34.1270   45.3580 C   0  0  0  0  0  0  0  0  0  0  0  0
   59.9550   32.9390   46.0960 C   0  0  0  0  0  0  0  0  0  0  0  0
   58.9990   31.9320   45.9280 C   0  0  0  0  0  0  0  0  0  0  0  0
   58.2620   25.4240   45.2130 C   0  0  0  0  0  0  0  0  0  0  0  0
   57.7330   24.4020   44.4190 C   0  0  0  0  0  0  0  0  0  0  0  0
   54.4441   24.6561   45.3235 H   0  0  0  0  0  0  0  0  0  0  0  0
   55.3870   26.4841   46.7250 H   0  0  0  0  0  0  0  0  0  0  0  0
   57.4100   28.1350   46.8970 H   0  0  0  0  0  0  0  0  0  0  0  0
   60.1979   28.0431   49.2990 H   0  0  0  0  0  0  0  0  0  0  0  0
   57.6126   28.9558   48.5854 H   0  0  0  0  0  0  0  0  0  0  0  0
   58.7458   29.5458   49.8931 H   0  0  0  0  0  0  0  0  0  0  0  0
   57.8171   31.3219   48.3099 H   0  0  0  0  0  0  0  0  0  0  0  0
   59.6129   31.2538   48.5266 H   0  0  0  0  0  0  0  0  0  0  0  0
   59.8096   28.9331   45.4989 H   0  0  0  0  0  0  0  0  0  0  0  0
   60.9141   30.3512   45.8290 H   0  0  0  0  0  0  0  0  0  0  0  0
   61.3972   28.1438   47.0679 H   0  0  0  0  0  0  0  0  0  0  0  0
   61.3185   29.6934   48.0219 H   0  0  0  0  0  0  0  0  0  0  0  0
   56.9267   33.3919   43.6325 H   0  0  0  0  0  0  0  0  0  0  0  0
   58.6323   35.2276   43.8999 H   0  0  0  0  0  0  0  0  0  0  0  0
   60.5577   34.9313   45.4718 H   0  0  0  0  0  0  0  0  0  0  0  0
   60.7973   32.8041   46.7906 H   0  0  0  0  0  0  0  0  0  0  0  0
   59.3378   25.6493   45.1688 H   0  0  0  0  0  0  0  0  0  0  0  0
   58.3980   23.8223   43.7620 H   0  0  0  0  0  0  0  0  0  0  0  0
  1  2  2  0
  2  3  1  0
  2  4  1  0
  4  5  2  0
  5  6  1  0
  6  7  2  0
  7  8  1  0
  8  9  1  0
  9 10  2  0
  9 11  1  0
 11 12  1  0
 12 13  1  0
 13 14  1  0
 14 15  1  0
 15 16  1  0
 14 17  1  6
 17 18  1  0
 18 19  2  0
 18 20  1  0
 20 21  2  0
 21 22  1  0
 22 23  2  0
 23 24  1  0
 24 25  2  0
  7 26  1  0
 26 27  2  0
 27  4  1  0
 16 11  1  0
 25 20  1  0
 25 14  1  0
  5 28  1  0
  6 29  1  0
  8 30  1  0
 11 31  1  1
 12 32  1  0
 12 33  1  0
 13 34  1  0
 13 35  1  0
 15 36  1  0
 15 37  1  0
 16 38  1  0
 16 39  1  0
 21 40  1  0
 22 41  1  0
 23 42  1  0
 24 43  1  0
 26 44  1  0
 27 45  1  0
M  CHG  1   3  -1
M  END
>  <UniqueID>  (78) 
69

>  <SMILES>  (78) 
O=C([O-])c1ccc(NC(=O)C2CCC3(CC2)OC(=O)c2ccccc23)cc1

>  <Energy>  (78) 
80.915255416837

>  <Genealogy>  (78) 
O=C([O-])c1ccc(NC(=O)C2CCC3(CC2)OC(=O)c2ccccc23)cc1 (protonated)
O=C([O-])c1ccc(NC(=O)C2CCC3(CC2)OC(=O)c2ccccc23)cc1 (3D coordinates assigned)
O=C([O-])c1ccc(NC(=O)C2CCC3(CC2)OC(=O)c2ccccc23)cc1 (nonaromatic ring conformer: 80.915255416837 kcal/mol)

>  <smiles>  (78) 
O=C(O)c1ccc(NC(=O)C2CCC3(CC2)OC(=O)c2ccccc23)cc1

>  <score_type>  (78) 
oracle

>  <origin>  (78) 
adg

>  <m_score__min__energy>  (78) 
-10.140000000000001

>  <m_primary>  (78) 
energy

$$$$
78:0
     RDKit          3D

 44 46  0  0  0  0  0  0  0  0999 V2000
   57.3890   28.8720   43.8200 C   0  0  0  0  0  0  0  0  0  0  0  0
   56.6790   30.2030   44.0000 C   0  0  0  0  0  0  0  0  0  0  0  0
   57.0380   30.7660   45.2580 O   0  0  0  0  0  0  0  0  0  0  0  0
   57.8040   31.9310   45.4220 C   0  0  0  0  0  0  0  0  0  0  0  0
   57.4130   33.1650   44.8740 C   0  0  0  0  0  0  0  0  0  0  0  0
   58.1890   34.3020   45.0900 C   0  0  0  0  0  0  0  0  0  0  0  0
   59.3530   34.2030   45.8520 C   0  0  0  0  0  0  0  0  0  0  0  0
   59.7260   33.0050   46.3740 N   0  0  0  0  0  0  0  0  0  0  0  0
   58.9920   31.8720   46.1730 C   0  0  0  0  0  0  0  0  0  0  0  0
   59.4370   30.6280   46.7390 N   0  0  0  0  0  0  0  0  0  0  0  0
   58.5110   29.8320   47.5580 C   0  0  0  0  0  0  0  0  0  0  0  0
   59.0710   28.4330   47.8410 C   0  0  0  0  0  0  0  0  0  0  0  0
   59.6610   27.8670   46.6200 N   0  0  0  0  0  0  0  0  0  0  0  0
   59.5050   26.4690   46.3160 C   0  0  0  0  0  0  0  0  0  0  0  0
   60.5200   25.7850   46.0120 O   0  0  0  0  0  0  0  0  0  0  0  0
   58.1740   25.8200   46.3340 C   0  0  0  0  0  0  0  0  0  0  0  0
   58.0610   24.4210   46.2770 C   0  0  0  0  0  0  0  0  0  0  0  0
   56.8010   23.8200   46.2820 C   0  0  0  0  0  0  0  0  0  0  0  0
   55.6600   24.6210   46.3320 C   0  0  0  0  0  0  0  0  0  0  0  0
   55.7810   25.9750   46.3700 N   0  0  0  0  0  0  0  0  0  0  0  0
   56.9960   26.5850   46.3700 C   0  0  0  0  0  0  0  0  0  0  0  0
   60.5910   28.6700   45.8090 C   0  0  0  0  0  0  0  0  0  0  0  0
   60.7480   30.0870   46.3690 C   0  0  0  0  0  0  0  0  0  0  0  0
   57.6182   28.4424   44.8063 H   0  0  0  0  0  0  0  0  0  0  0  0
   56.7390   28.1823   43.2617 H   0  0  0  0  0  0  0  0  0  0  0  0
   58.3239   29.0277   43.2617 H   0  0  0  0  0  0  0  0  0  0  0  0
   56.9759   30.8891   43.1931 H   0  0  0  0  0  0  0  0  0  0  0  0
   55.5908   30.0458   43.9657 H   0  0  0  0  0  0  0  0  0  0  0  0
   56.4935   33.2331   44.2741 H   0  0  0  0  0  0  0  0  0  0  0  0
   57.8861   35.2695   44.6631 H   0  0  0  0  0  0  0  0  0  0  0  0
   59.9700   35.0960   46.0307 H   0  0  0  0  0  0  0  0  0  0  0  0
   60.6090   32.9560   46.9300 H   0  0  0  0  0  0  0  0  0  0  0  0
   58.3437   30.3500   48.5138 H   0  0  0  0  0  0  0  0  0  0  0  0
   57.5681   29.7203   47.0026 H   0  0  0  0  0  0  0  0  0  0  0  0
   59.8443   28.5018   48.6203 H   0  0  0  0  0  0  0  0  0  0  0  0
   58.2531   27.7805   48.1807 H   0  0  0  0  0  0  0  0  0  0  0  0
   58.9665   23.7983   46.2284 H   0  0  0  0  0  0  0  0  0  0  0  0
   56.7087   22.7244   46.2468 H   0  0  0  0  0  0  0  0  0  0  0  0
   54.6625   24.1574   46.3407 H   0  0  0  0  0  0  0  0  0  0  0  0
   57.0571   27.6829   46.3983 H   0  0  0  0  0  0  0  0  0  0  0  0
   61.5748   28.1779   45.8018 H   0  0  0  0  0  0  0  0  0  0  0  0
   60.1823   28.7457   44.7906 H   0  0  0  0  0  0  0  0  0  0  0  0
   61.3942   30.0575   47.2587 H   0  0  0  0  0  0  0  0  0  0  0  0
   61.2004   30.7309   45.6004 H   0  0  0  0  0  0  0  0  0  0  0  0
  1  2  1  0
  2  3  1  0
  3  4  1  0
  4  5  2  0
  5  6  1  0
  6  7  2  0
  7  8  1  0
  8  9  2  0
  9 10  1  0
 10 11  1  0
 11 12  1  0
 12 13  1  0
 13 14  1  0
 14 15  2  0
 14 16  1  0
 16 17  2  0
 17 18  1  0
 18 19  2  0
 19 20  1  0
 20 21  2  0
 13 22  1  0
 22 23  1  0
  9  4  1  0
 23 10  1  0
 21 16  1  0
  1 24  1  0
  1 25  1  0
  1 26  1  0
  2 27  1  0
  2 28  1  0
  5 29  1  0
  6 30  1  0
  7 31  1  0
  8 32  1  0
 11 33  1  0
 11 34  1  0
 12 35  1  0
 12 36  1  0
 17 37  1  0
 18 38  1  0
 19 39  1  0
 21 40  1  0
 22 41  1  0
 22 42  1  0
 23 43  1  0
 23 44  1  0
M  CHG  1   8   1
M  END
>  <UniqueID>  (79) 
70

>  <SMILES>  (79) 
CCOc1ccc[nH+]c1N1CCN(C(=O)c2cccnc2)CC1

>  <Energy>  (79) 
52.563607246009504

>  <Genealogy>  (79) 
CCOc1ccc[nH+]c1N1CCN(C(=O)c2cccnc2)CC1 (protonated)
CCOc1ccc[nH+]c1N1CCN(C(=O)c2cccnc2)CC1 (3D coordinates assigned)
CCOc1ccc[nH+]c1N1CCN(C(=O)c2cccnc2)CC1 (nonaromatic ring conformer: 52.563607246009504 kcal/mol)

>  <smiles>  (79) 
CCOc1cccnc1N1CCN(C(=O)c2cccnc2)CC1

>  <score_type>  (79) 
oracle

>  <origin>  (79) 
adg

>  <m_score__min__energy>  (79) 
-5.5499999999999998

>  <m_primary>  (79) 
energy

$$$$
79:0
     RDKit          3D

 46 48  0  0  0  0  0  0  0  0999 V2000
   60.6360   27.6760   45.9650 C   0  0  0  0  0  0  0  0  0  0  0  0
   59.4880   28.4970   45.4660 C   0  0  0  0  0  0  0  0  0  0  0  0
   59.3930   29.8380   45.6650 N   0  0  0  0  0  0  0  0  0  0  0  0
   58.2110   30.1670   45.1140 C   0  0  0  0  0  0  0  0  0  0  0  0
   57.5400   31.3870   45.0890 C   0  0  0  0  0  0  0  0  0  0  0  0
   58.1220   32.5890   45.6160 N   0  0  0  0  0  0  0  0  0  0  0  0
   58.0470   33.8400   44.8540 C   0  0  0  0  0  0  0  0  0  0  0  0
   59.2560   34.7550   45.1660 C   0  0  0  0  0  0  0  0  0  0  0  0
   60.0460   34.3120   46.2580 O   0  0  0  0  0  0  0  0  0  0  0  0
   59.2200   33.9490   47.3440 C   0  0  0  0  0  0  0  0  0  0  0  0
   58.5170   32.6270   47.0280 C   0  0  0  0  0  0  0  0  0  0  0  0
   56.2760   31.3990   44.5640 N   0  0  0  0  0  0  0  0  0  0  0  0
   55.6940   30.2580   44.0700 C   0  0  0  0  0  0  0  0  0  0  0  0
   56.3640   29.0680   44.1000 N   0  0  0  0  0  0  0  0  0  0  0  0
   57.6170   29.0540   44.6170 C   0  0  0  0  0  0  0  0  0  0  0  0
   58.4070   27.9860   44.8110 N   0  0  0  0  0  0  0  0  0  0  0  0
   58.0900   26.5840   44.5310 C   0  0  0  0  0  0  0  0  0  0  0  0
   57.5000   25.9160   45.7800 C   0  0  0  0  0  0  0  0  0  0  0  0
   56.0440   25.5390   45.6210 C   0  0  0  0  0  0  0  0  0  0  0  0
   55.1470   26.3380   46.0120 O   0  0  0  0  0  0  0  0  0  0  0  0
   55.6640   24.2760   45.0350 N   0  0  0  0  0  0  0  0  0  0  0  0
   54.2400   23.9510   44.8980 C   0  0  0  0  0  0  0  0  0  0  0  0
   56.6830   23.3240   44.5780 C   0  0  0  0  0  0  0  0  0  0  0  0
   60.6360   27.6760   47.0650 H   0  0  0  0  0  0  0  0  0  0  0  0
   60.5353   26.6438   45.5983 H   0  0  0  0  0  0  0  0  0  0  0  0
   61.5802   28.1049   45.5983 H   0  0  0  0  0  0  0  0  0  0  0  0
   60.0600   30.4560   46.1770 H   0  0  0  0  0  0  0  0  0  0  0  0
   58.0411   33.6063   43.7791 H   0  0  0  0  0  0  0  0  0  0  0  0
   57.1255   34.3686   45.1394 H   0  0  0  0  0  0  0  0  0  0  0  0
   59.8954   34.8007   44.2721 H   0  0  0  0  0  0  0  0  0  0  0  0
   58.8487   35.7380   45.4449 H   0  0  0  0  0  0  0  0  0  0  0  0
   59.8342   33.8309   48.2489 H   0  0  0  0  0  0  0  0  0  0  0  0
   58.4681   34.7340   47.5123 H   0  0  0  0  0  0  0  0  0  0  0  0
   59.2022   31.7921   47.2363 H   0  0  0  0  0  0  0  0  0  0  0  0
   57.6175   32.5396   47.6551 H   0  0  0  0  0  0  0  0  0  0  0  0
   54.6798   30.3024   43.6465 H   0  0  0  0  0  0  0  0  0  0  0  0
   57.3580   26.5334   43.7115 H   0  0  0  0  0  0  0  0  0  0  0  0
   59.0119   26.0575   44.2432 H   0  0  0  0  0  0  0  0  0  0  0  0
   58.0762   25.0038   45.9941 H   0  0  0  0  0  0  0  0  0  0  0  0
   57.5616   26.6451   46.6013 H   0  0  0  0  0  0  0  0  0  0  0  0
   53.7897   23.8482   45.8963 H   0  0  0  0  0  0  0  0  0  0  0  0
   53.7315   24.7562   44.3475 H   0  0  0  0  0  0  0  0  0  0  0  0
   54.1311   23.0049   44.3475 H   0  0  0  0  0  0  0  0  0  0  0  0
   57.1736   22.8657   45.4493 H   0  0  0  0  0  0  0  0  0  0  0  0
   56.2065   22.5401   43.9711 H   0  0  0  0  0  0  0  0  0  0  0  0
   57.4328   23.8527   43.9711 H   0  0  0  0  0  0  0  0  0  0  0  0
  1  2  1  0
  2  3  2  0
  3  4  1  0
  4  5  2  0
  5  6  1  0
  6  7  1  0
  7  8  1  0
  8  9  1  0
  9 10  1  0
 10 11  1  0
  5 12  1  0
 12 13  2  0
 13 14  1  0
 14 15  2  0
 15 16  1  0
 16 17  1  0
 17 18  1  0
 18 19  1  0
 19 20  2  0
 19 21  1  0
 21 22  1  0
 21 23  1  0
 16  2  1  0
 15  4  1  0
 11  6  1  0
  1 24  1  0
  1 25  1  0
  1 26  1  0
  3 27  1  0
  7 28  1  0
  7 29  1  0
  8 30  1  0
  8 31  1  0
 10 32  1  0
 10 33  1  0
 11 34  1  0
 11 35  1  0
 13 36  1  0
 17 37  1  0
 17 38  1  0
 18 39  1  0
 18 40  1  0
 22 41  1  0
 22 42  1  0
 22 43  1  0
 23 44  1  0
 23 45  1  0
 23 46  1  0
M  CHG  1   3   1
M  END
>  <UniqueID>  (80) 
71

>  <SMILES>  (80) 
Cc1[nH+]c2c(N3CCOCC3)ncnc2n1CCC(=O)N(C)C

>  <Energy>  (80) 
92.90186884791689

>  <Genealogy>  (80) 
Cc1[nH+]c2c(N3CCOCC3)ncnc2n1CCC(=O)N(C)C (protonated)
Cc1[nH+]c2c(N3CCOCC3)ncnc2n1CCC(=O)N(C)C (3D coordinates assigned)
Cc1[nH+]c2c(N3CCOCC3)ncnc2n1CCC(=O)N(C)C (nonaromatic ring conformer: 92.90186884791689 kcal/mol)

>  <smiles>  (80) 
Cc1nc2c(N3CCOCC3)ncnc2n1CCC(=O)N(C)C

>  <score_type>  (80) 
oracle

>  <origin>  (80) 
adg

>  <m_score__min__energy>  (80) 
-5.9100000000000001

>  <m_primary>  (80) 
energy

$$$$
80:0
     RDKit          3D

 60 65  0  0  0  0  0  0  0  0999 V2000
   58.2450   30.9450   51.3670 O   0  0  0  0  0  0  0  0  0  0  0  0
   59.2890   30.9460   50.6600 C   0  0  0  0  0  0  0  0  0  0  0  0
   59.5710   29.8070   49.7550 C   0  0  0  0  0  0  0  0  0  0  0  0
   60.3580   28.7350   50.1830 C   0  0  0  0  0  0  0  0  0  0  0  0
   60.6100   27.6910   49.3530 N   0  0  0  0  0  0  0  0  0  0  0  0
   60.0930   27.6310   48.0900 C   0  0  0  0  0  0  0  0  0  0  0  0
   60.3860   26.5310   47.2750 C   0  0  0  0  0  0  0  0  0  0  0  0
   59.8690   26.4430   45.9890 C   0  0  0  0  0  0  0  0  0  0  0  0
   59.0350   27.4470   45.4870 C   0  0  0  0  0  0  0  0  0  0  0  0
   58.5140   27.3270   44.1890 C   0  0  0  0  0  0  0  0  0  0  0  0
   57.6660   28.3050   43.6760 C   0  0  0  0  0  0  0  0  0  0  0  0
   57.3310   29.4140   44.4490 C   0  0  0  0  0  0  0  0  0  0  0  0
   57.8450   29.5570   45.7390 C   0  0  0  0  0  0  0  0  0  0  0  0
   58.7130   28.5810   46.2890 C   0  0  0  0  0  0  0  0  0  0  0  0
   59.2640   28.6770   47.6030 C   0  0  0  0  0  0  0  0  0  0  0  0
   59.0270   29.7710   48.4630 C   0  0  0  0  0  0  0  0  0  0  0  0
   60.1840   32.0670   50.7320 N   0  0  0  0  0  0  0  0  0  0  0  0
   61.6160   31.8380   50.9440 C   0  0  0  0  0  0  0  0  0  0  0  0
   62.3670   32.1140   49.6690 C   0  0  0  0  0  0  0  0  0  0  0  0
   63.2970   33.1650   49.6050 C   0  0  0  0  0  0  0  0  0  0  0  0
   63.9370   33.4660   48.3990 C   0  0  0  0  0  0  0  0  0  0  0  0
   63.6410   32.7320   47.2480 C   0  0  0  0  0  0  0  0  0  0  0  0
   62.7100   31.6920   47.3020 C   0  0  0  0  0  0  0  0  0  0  0  0
   62.0740   31.3810   48.5090 C   0  0  0  0  0  0  0  0  0  0  0  0
   59.6750   33.4250   50.5160 C   0  0  0  0  0  0  0  0  0  0  0  0
   59.5550   33.7050   49.0420 C   0  0  0  0  0  0  0  0  0  0  0  0
   60.4520   34.5770   48.4070 C   0  0  0  0  0  0  0  0  0  0  0  0
   60.3520   34.8210   47.0330 C   0  0  0  0  0  0  0  0  0  0  0  0
   59.3580   34.1880   46.2750 C   0  0  0  0  0  0  0  0  0  0  0  0
   59.2520   34.4210   44.8960 C   0  0  0  0  0  0  0  0  0  0  0  0
   58.2670   33.7720   44.1490 C   0  0  0  0  0  0  0  0  0  0  0  0
   57.3780   32.8900   44.7700 C   0  0  0  0  0  0  0  0  0  0  0  0
   57.4680   32.6530   46.1440 C   0  0  0  0  0  0  0  0  0  0  0  0
   58.4540   33.3000   46.9080 C   0  0  0  0  0  0  0  0  0  0  0  0
   58.5550   33.0690   48.2880 C   0  0  0  0  0  0  0  0  0  0  0  0
   60.7766   28.7370   51.2002 H   0  0  0  0  0  0  0  0  0  0  0  0
   61.2170   26.9180   49.7070 H   0  0  0  0  0  0  0  0  0  0  0  0
   61.0328   25.7276   47.6574 H   0  0  0  0  0  0  0  0  0  0  0  0
   60.1178   25.5758   45.3597 H   0  0  0  0  0  0  0  0  0  0  0  0
   58.7774   26.4545   43.5731 H   0  0  0  0  0  0  0  0  0  0  0  0
   57.2601   28.2016   42.6589 H   0  0  0  0  0  0  0  0  0  0  0  0
   56.6574   30.1818   44.0406 H   0  0  0  0  0  0  0  0  0  0  0  0
   57.5726   30.4393   46.3368 H   0  0  0  0  0  0  0  0  0  0  0  0
   58.4055   30.6089   48.1140 H   0  0  0  0  0  0  0  0  0  0  0  0
   61.9805   32.5089   51.7358 H   0  0  0  0  0  0  0  0  0  0  0  0
   61.7777   30.7920   51.2434 H   0  0  0  0  0  0  0  0  0  0  0  0
   63.5224   33.7531   50.5068 H   0  0  0  0  0  0  0  0  0  0  0  0
   64.6741   34.2814   48.3565 H   0  0  0  0  0  0  0  0  0  0  0  0
   64.1413   32.9731   46.2985 H   0  0  0  0  0  0  0  0  0  0  0  0
   62.4764   31.1165   46.3941 H   0  0  0  0  0  0  0  0  0  0  0  0
   61.3428   30.5602   48.5485 H   0  0  0  0  0  0  0  0  0  0  0  0
   58.6853   33.5215   50.9862 H   0  0  0  0  0  0  0  0  0  0  0  0
   60.3744   34.1466   50.9634 H   0  0  0  0  0  0  0  0  0  0  0  0
   61.2396   35.0725   48.9936 H   0  0  0  0  0  0  0  0  0  0  0  0
   61.0560   35.5120   46.5462 H   0  0  0  0  0  0  0  0  0  0  0  0
   59.9464   35.1165   44.4019 H   0  0  0  0  0  0  0  0  0  0  0  0
   58.1902   33.9556   43.0671 H   0  0  0  0  0  0  0  0  0  0  0  0
   56.6053   32.3810   44.1752 H   0  0  0  0  0  0  0  0  0  0  0  0
   56.7657   31.9587   46.6285 H   0  0  0  0  0  0  0  0  0  0  0  0
   57.8477   32.3866   48.7820 H   0  0  0  0  0  0  0  0  0  0  0  0
  1  2  2  0
  2  3  1  0
  3  4  2  0
  4  5  1  0
  5  6  2  0
  6  7  1  0
  7  8  2  0
  8  9  1  0
  9 10  2  0
 10 11  1  0
 11 12  2  0
 12 13  1  0
 13 14  2  0
 14 15  1  0
 15 16  2  0
  2 17  1  0
 17 18  1  0
 18 19  1  0
 19 20  2  0
 20 21  1  0
 21 22  2  0
 22 23  1  0
 23 24  2  0
 17 25  1  0
 25 26  1  0
 26 27  2  0
 27 28  1  0
 28 29  2  0
 29 30  1  0
 30 31  2  0
 31 32  1  0
 32 33  2  0
 33 34  1  0
 34 35  2  0
 16  3  1  0
 24 19  1  0
 35 26  1  0
 15  6  1  0
 34 29  1  0
 14  9  1  0
  4 36  1  0
  5 37  1  0
  7 38  1  0
  8 39  1  0
 10 40  1  0
 11 41  1  0
 12 42  1  0
 13 43  1  0
 16 44  1  0
 18 45  1  0
 18 46  1  0
 20 47  1  0
 21 48  1  0
 22 49  1  0
 23 50  1  0
 24 51  1  0
 25 52  1  0
 25 53  1  0
 27 54  1  0
 28 55  1  0
 30 56  1  0
 31 57  1  0
 32 58  1  0
 33 59  1  0
 35 60  1  0
M  CHG  1   5   1
M  END
>  <UniqueID>  (81) 
72

>  <SMILES>  (81) 
O=C(c1c[nH+]c2ccc3ccccc3c2c1)N(Cc1ccccc1)Cc1ccc2ccccc2c1

>  <Energy>  (81) 
82.85930763160279

>  <Genealogy>  (81) 
O=C(c1c[nH+]c2ccc3ccccc3c2c1)N(Cc1ccccc1)Cc1ccc2ccccc2c1 (protonated)
O=C(c1c[nH+]c2ccc3ccccc3c2c1)N(Cc1ccccc1)Cc1ccc2ccccc2c1 (3D coordinates assigned)
O=C(c1c[nH+]c2ccc3ccccc3c2c1)N(Cc1ccccc1)Cc1ccc2ccccc2c1 (optimized conformer: 82.85930763160279 kcal/mol)

>  <smiles>  (81) 
O=C(c1cnc2ccc3ccccc3c2c1)N(Cc1ccccc1)Cc1ccc2ccccc2c1

>  <score_type>  (81) 
oracle

>  <origin>  (81) 
adg

>  <m_score__min__energy>  (81) 
-9.1699999999999999

>  <m_primary>  (81) 
energy

$$$$
81:0
     RDKit          3D

 52 55  0  0  0  0  0  0  0  0999 V2000
   56.6660   22.5990   43.2410 C   0  0  0  0  0  0  0  0  0  0  0  0
   57.3240   21.5640   44.0470 N   0  0  0  0  0  0  0  0  0  0  0  0
   56.3460   20.5520   44.4670 C   0  0  0  0  0  0  0  0  0  0  0  0
   58.0690   22.2880   45.4510 S   0  0  0  0  0  0  0  0  0  0  0  0
   59.5620   22.1370   45.3610 O   0  0  0  0  0  0  0  0  0  0  0  0
   57.6040   21.5690   46.6880 O   0  0  0  0  0  0  0  0  0  0  0  0
   57.6670   24.0020   45.5920 C   0  0  0  0  0  0  0  0  0  0  0  0
   56.3480   24.4000   45.8420 C   0  0  0  0  0  0  0  0  0  0  0  0
   56.0300   25.7560   45.9530 C   0  0  0  0  0  0  0  0  0  0  0  0
   57.0220   26.7330   45.7970 C   0  0  0  0  0  0  0  0  0  0  0  0
   56.6540   28.1130   45.9290 N   0  0  0  0  0  0  0  0  0  0  0  0
   56.3350   29.0170   44.8640 C   0  0  0  0  0  0  0  0  0  0  0  0
   55.1420   29.3520   44.6360 O   0  0  0  0  0  0  0  0  0  0  0  0
   57.4420   29.6500   44.0830 C   0  0  0  0  0  0  0  0  0  0  0  0
   58.2350   30.5380   44.9530 N   0  0  0  0  0  0  0  0  0  0  0  0
   59.4400   30.1040   45.4550 C   0  0  0  0  0  0  0  0  0  0  0  0
   59.8970   28.9630   45.1730 O   0  0  0  0  0  0  0  0  0  0  0  0
   60.1510   30.9450   46.2910 C   0  0  0  0  0  0  0  0  0  0  0  0
   61.3410   30.7030   46.8820 N   0  0  0  0  0  0  0  0  0  0  0  0
   61.6020   31.8150   47.5980 C   0  0  0  0  0  0  0  0  0  0  0  0
   62.7220   32.0400   48.3980 C   0  0  0  0  0  0  0  0  0  0  0  0
   62.8120   33.2620   49.0830 C   0  0  0  0  0  0  0  0  0  0  0  0
   61.7930   34.2280   48.9550 C   0  0  0  0  0  0  0  0  0  0  0  0
   60.6690   33.9840   48.1470 C   0  0  0  0  0  0  0  0  0  0  0  0
   60.5950   32.7590   47.4710 C   0  0  0  0  0  0  0  0  0  0  0  0
   59.6560   32.1820   46.6160 C   0  0  0  0  0  0  0  0  0  0  0  0
   58.4530   32.6240   46.1380 N   0  0  0  0  0  0  0  0  0  0  0  0
   57.9340   33.9510   46.5010 C   0  0  0  0  0  0  0  0  0  0  0  0
   57.7370   31.7810   45.3080 C   0  0  0  0  0  0  0  0  0  0  0  0
   56.6080   32.1440   44.8700 O   0  0  0  0  0  0  0  0  0  0  0  0
   58.3510   26.3320   45.5730 C   0  0  0  0  0  0  0  0  0  0  0  0
   58.6680   24.9740   45.4650 C   0  0  0  0  0  0  0  0  0  0  0  0
   56.1960   23.3382   43.9063 H   0  0  0  0  0  0  0  0  0  0  0  0
   57.4123   23.0991   42.6063 H   0  0  0  0  0  0  0  0  0  0  0  0
   55.8965   22.1354   42.6063 H   0  0  0  0  0  0  0  0  0  0  0  0
   56.3079   20.5126   45.5656 H   0  0  0  0  0  0  0  0  0  0  0  0
   55.3529   20.8169   44.0750 H   0  0  0  0  0  0  0  0  0  0  0  0
   56.6446   19.5686   44.0750 H   0  0  0  0  0  0  0  0  0  0  0  0
   55.5587   23.6417   45.9515 H   0  0  0  0  0  0  0  0  0  0  0  0
   54.9937   26.0585   46.1643 H   0  0  0  0  0  0  0  0  0  0  0  0
   58.0943   28.8640   43.6746 H   0  0  0  0  0  0  0  0  0  0  0  0
   57.0100   30.2426   43.2631 H   0  0  0  0  0  0  0  0  0  0  0  0
   61.9280   29.8430   46.8060 H   0  0  0  0  0  0  0  0  0  0  0  0
   63.5129   31.2810   48.4897 H   0  0  0  0  0  0  0  0  0  0  0  0
   63.6826   33.4671   49.7233 H   0  0  0  0  0  0  0  0  0  0  0  0
   61.8786   35.1833   49.4935 H   0  0  0  0  0  0  0  0  0  0  0  0
   59.8701   34.7336   48.0482 H   0  0  0  0  0  0  0  0  0  0  0  0
   57.8978   34.0435   47.5965 H   0  0  0  0  0  0  0  0  0  0  0  0
   58.5944   34.7283   46.0890 H   0  0  0  0  0  0  0  0  0  0  0  0
   56.9215   34.0740   46.0890 H   0  0  0  0  0  0  0  0  0  0  0  0
   59.1440   27.0889   45.4824 H   0  0  0  0  0  0  0  0  0  0  0  0
   59.7081   24.6677   45.2795 H   0  0  0  0  0  0  0  0  0  0  0  0
  1  2  1  0
  2  3  1  0
  2  4  1  0
  4  5  2  0
  4  6  2  0
  4  7  1  0
  7  8  2  0
  8  9  1  0
  9 10  2  0
 10 11  1  0
 11 12  1  0
 12 13  2  0
 12 14  1  0
 14 15  1  0
 15 16  1  0
 16 17  2  0
 16 18  1  0
 18 19  1  0
 19 20  1  0
 20 21  2  0
 21 22  1  0
 22 23  2  0
 23 24  1  0
 24 25  2  0
 25 26  1  0
 26 27  1  0
 27 28  1  0
 27 29  1  0
 29 30  2  0
 10 31  1  0
 31 32  2  0
 32  7  1  0
 29 15  1  0
 26 18  2  0
 25 20  1  0
  1 33  1  0
  1 34  1  0
  1 35  1  0
  3 36  1  0
  3 37  1  0
  3 38  1  0
  8 39  1  0
  9 40  1  0
 14 41  1  0
 14 42  1  0
 19 43  1  0
 21 44  1  0
 22 45  1  0
 23 46  1  0
 24 47  1  0
 28 48  1  0
 28 49  1  0
 28 50  1  0
 31 51  1  0
 32 52  1  0
M  CHG  1  11  -1
M  END
>  <UniqueID>  (82) 
73

>  <SMILES>  (82) 
CN(C)S(=O)(=O)c1ccc([N-]C(=O)Cn2c(=O)c3[nH]c4ccccc4c3n(C)c2=O)cc1

>  <Energy>  (82) 
107.76707392426913

>  <Genealogy>  (82) 
CN(C)S(=O)(=O)c1ccc([N-]C(=O)Cn2c(=O)c3[nH]c4ccccc4c3n(C)c2=O)cc1 (protonated)
CN(C)S(=O)(=O)c1ccc([N-]C(=O)Cn2c(=O)c3[nH]c4ccccc4c3n(C)c2=O)cc1 (3D coordinates assigned)
CN(C)S(=O)(=O)c1ccc([N-]C(=O)Cn2c(=O)c3[nH]c4ccccc4c3n(C)c2=O)cc1 (optimized conformer: 107.76707392426913 kcal/mol)

>  <smiles>  (82) 
CN(C)S(=O)(=O)c1ccc(NC(=O)Cn2c(=O)c3[nH]c4ccccc4c3n(C)c2=O)cc1

>  <score_type>  (82) 
oracle

>  <origin>  (82) 
adg

>  <m_score__min__energy>  (82) 
-10.9

>  <m_primary>  (82) 
energy

$$$$
82:0
     RDKit          3D

 41 43  0  0  0  0  0  0  0  0999 V2000
   55.1610   27.3470   45.9990 H   0  0  0  0  0  0  0  0  0  0  0  0
   54.9180   26.3320   45.9850 N   0  0  0  0  0  0  0  0  0  0  0  0
   55.9330   25.3340   46.0490 C   0  0  0  0  0  0  0  0  0  0  0  0
   55.7990   24.3500   46.8240 O   0  0  0  0  0  0  0  0  0  0  0  0
   57.1390   25.4330   45.1650 C   0  0  0  0  0  0  0  0  0  0  0  0
   56.8679   25.9811   44.2506 H   0  0  0  0  0  0  0  0  0  0  0  0
   57.4758   24.4136   44.9253 H   0  0  0  0  0  0  0  0  0  0  0  0
   58.2880   26.1670   45.8630 C   0  0  0  0  0  0  0  0  0  0  0  0
   59.2371   25.6701   45.6132 H   0  0  0  0  0  0  0  0  0  0  0  0
   58.1138   26.1398   46.9488 H   0  0  0  0  0  0  0  0  0  0  0  0
   58.3520   27.5620   45.4360 N   0  0  0  0  0  0  0  0  0  0  0  0
   59.3700   28.0820   44.7670 N   0  0  0  0  0  0  0  0  0  0  0  0
   59.1150   29.3930   44.5860 C   0  0  0  0  0  0  0  0  0  0  0  0
   59.7694   30.1047   44.0613 H   0  0  0  0  0  0  0  0  0  0  0  0
   57.9010   29.6980   45.1650 C   0  0  0  0  0  0  0  0  0  0  0  0
   57.3120   31.0100   45.1970 N   0  0  0  0  0  0  0  0  0  0  0  0
   57.9170   32.1540   45.3310 C   0  0  0  0  0  0  0  0  0  0  0  0
   59.0610   32.2710   46.0570 N   0  0  0  0  0  0  0  0  0  0  0  0
   59.6930   33.4650   46.2190 C   0  0  0  0  0  0  0  0  0  0  0  0
   60.9490   33.5300   47.0120 C   0  0  0  0  0  0  0  0  0  0  0  0
   62.1970   33.4860   46.3600 C   0  0  0  0  0  0  0  0  0  0  0  0
   62.2361   33.4282   45.2622 H   0  0  0  0  0  0  0  0  0  0  0  0
   63.3840   33.5150   47.0930 C   0  0  0  0  0  0  0  0  0  0  0  0
   64.3518   33.4856   46.5709 H   0  0  0  0  0  0  0  0  0  0  0  0
   63.3470   33.5810   48.4830 C   0  0  0  0  0  0  0  0  0  0  0  0
   64.5030   33.6040   49.1920 F   0  0  0  0  0  0  0  0  0  0  0  0
   62.1200   33.6200   49.1500 C   0  0  0  0  0  0  0  0  0  0  0  0
   62.0970   33.6674   50.2487 H   0  0  0  0  0  0  0  0  0  0  0  0
   60.9110   33.5990   48.4250 C   0  0  0  0  0  0  0  0  0  0  0  0
   59.6680   33.6570   49.0780 O   0  0  0  0  0  0  0  0  0  0  0  0
   58.8810   32.5240   49.4300 C   0  0  0  0  0  0  0  0  0  0  0  0
   58.8246   32.4428   50.5255 H   0  0  0  0  0  0  0  0  0  0  0  0
   57.8675   32.6393   49.0182 H   0  0  0  0  0  0  0  0  0  0  0  0
   59.3428   31.6145   49.0182 H   0  0  0  0  0  0  0  0  0  0  0  0
   59.1400   34.6080   45.6220 C   0  0  0  0  0  0  0  0  0  0  0  0
   59.6222   35.5899   45.7374 H   0  0  0  0  0  0  0  0  0  0  0  0
   57.9680   34.4750   44.8800 C   0  0  0  0  0  0  0  0  0  0  0  0
   57.5180   35.3566   44.4002 H   0  0  0  0  0  0  0  0  0  0  0  0
   57.3810   33.2570   44.7490 N   0  0  0  0  0  0  0  0  0  0  0  0
   57.4400   28.5140   45.7110 C   0  0  0  0  0  0  0  0  0  0  0  0
   56.5013   28.3754   46.2674 H   0  0  0  0  0  0  0  0  0  0  0  0
  1  2  1  0
  2  3  1  0
  3  4  2  0
  3  5  1  0
  5  6  1  0
  5  7  1  0
  5  8  1  0
  8  9  1  0
  8 10  1  0
  8 11  1  0
 11 12  1  0
 12 13  2  0
 13 14  1  0
 13 15  1  0
 15 16  1  0
 16 17  2  0
 17 18  1  0
 18 19  2  0
 19 20  1  0
 20 21  2  0
 21 22  1  0
 21 23  1  0
 23 24  1  0
 23 25  2  0
 25 26  1  0
 25 27  1  0
 27 28  1  0
 27 29  2  0
 29 30  1  0
 30 31  1  0
 31 32  1  0
 31 33  1  0
 31 34  1  0
 19 35  1  0
 35 36  1  0
 35 37  2  0
 37 38  1  0
 37 39  1  0
 15 40  2  0
 40 41  1  0
 40 11  1  0
 39 17  1  0
 29 20  1  0
M  CHG  2   2  -1  39  -1
M  END
>  <UniqueID>  (83) 
74

>  <SMILES>  (83) 
COc1cc(F)ccc1-c1cc[n-]/c(=N/c2cnn(CCC([NH-])=O)c2)n1

>  <Energy>  (83) 
77.14842113184585

>  <Genealogy>  (83) 
COc1cc(F)ccc1-c1cc[n-]c(=Nc2cnn(CCC([NH-])=O)c2)n1 (protonated)
COc1cc(F)ccc1-c1cc[n-]/c(=N/c2cnn(CCC([NH-])=O)c2)n1 (cis-trans isomerization)
COc1cc(F)ccc1-c1cc[n-]/c(=N/c2cnn(CCC([NH-])=O)c2)n1 (3D coordinates assigned)
COc1cc(F)ccc1-c1cc[n-]/c(=N/c2cnn(CCC([NH-])=O)c2)n1 (optimized conformer: 77.14842113184585 kcal/mol)

>  <smiles>  (83) 
COc1cc(F)ccc1-c1cc[nH]c(=Nc2cnn(CCC(N)=O)c2)n1

>  <score_type>  (83) 
oracle

>  <origin>  (83) 
adg

>  <m_score__min__energy>  (83) 
-12.32

>  <m_primary>  (83) 
energy

$$$$
83:0
     RDKit          3D

 25 27  0  0  0  0  0  0  0  0999 V2000
   63.5851   30.9093   47.5165 H   0  0  0  0  0  0  0  0  0  0  0  0
   63.1930   31.9370   47.5300 C   0  0  0  0  0  0  0  0  0  0  0  0
   62.0470   32.3160   47.0130 O   0  0  0  0  0  0  0  0  0  0  0  0
   61.9000   33.6050   47.2130 C   0  0  0  0  0  0  0  0  0  0  0  0
   60.7300   34.3750   46.7530 C   0  0  0  0  0  0  0  0  0  0  0  0
   60.2940   35.3120   47.4720 O   0  0  0  0  0  0  0  0  0  0  0  0
   60.0280   34.0360   45.5520 N   0  0  0  0  0  0  0  0  0  0  0  0
   59.1520   33.0820   45.4290 C   0  0  0  0  0  0  0  0  0  0  0  0
   57.6930   33.2720   44.5970 S   0  0  0  0  0  0  0  0  0  0  0  0
   57.2440   31.6770   44.8820 C   0  0  0  0  0  0  0  0  0  0  0  0
   56.0830   31.0170   44.4850 C   0  0  0  0  0  0  0  0  0  0  0  0
   55.3034   31.5397   43.9114 H   0  0  0  0  0  0  0  0  0  0  0  0
   55.9360   29.6650   44.8380 C   0  0  0  0  0  0  0  0  0  0  0  0
   54.7910   28.9730   44.4620 O   0  0  0  0  0  0  0  0  0  0  0  0
   56.9460   29.0070   45.5700 C   0  0  0  0  0  0  0  0  0  0  0  0
   56.8223   27.9481   45.8409 H   0  0  0  0  0  0  0  0  0  0  0  0
   58.1100   29.6950   45.9560 C   0  0  0  0  0  0  0  0  0  0  0  0
   58.9005   29.1840   46.5252 H   0  0  0  0  0  0  0  0  0  0  0  0
   58.2430   31.0390   45.6030 C   0  0  0  0  0  0  0  0  0  0  0  0
   59.3130   31.8180   45.9060 N   0  0  0  0  0  0  0  0  0  0  0  0
   60.1550   31.4670   46.4140 H   0  0  0  0  0  0  0  0  0  0  0  0
   63.0000   34.1040   47.8860 C   0  0  0  0  0  0  0  0  0  0  0  0
   63.1754   35.1458   48.1924 H   0  0  0  0  0  0  0  0  0  0  0  0
   63.8310   33.0240   48.0930 C   0  0  0  0  0  0  0  0  0  0  0  0
   64.8054   33.0275   48.6035 H   0  0  0  0  0  0  0  0  0  0  0  0
  1  2  1  0
  2  3  1  0
  3  4  1  0
  4  5  1  0
  5  6  2  0
  5  7  1  0
  7  8  2  0
  8  9  1  0
  9 10  1  0
 10 11  2  0
 11 12  1  0
 11 13  1  0
 13 14  1  0
 13 15  2  0
 15 16  1  0
 15 17  1  0
 17 18  1  0
 17 19  2  0
 19 20  1  0
 20 21  1  0
  4 22  2  0
 22 23  1  0
 22 24  1  0
 24 25  1  0
 24  2  2  0
 20  8  1  0
 19 10  1  0
M  CHG  1  14  -1
M  END
>  <UniqueID>  (84) 
75

>  <SMILES>  (84) 
O=C(/N=c1\[nH]c2ccc([O-])cc2s1)c1ccco1

>  <Energy>  (84) 
94.80806891512124

>  <Genealogy>  (84) 
O=C(N=c1[nH]c2ccc([O-])cc2s1)c1ccco1 (protonated)
O=C(/N=c1\[nH]c2ccc([O-])cc2s1)c1ccco1 (cis-trans isomerization)
O=C(/N=c1\[nH]c2ccc([O-])cc2s1)c1ccco1 (3D coordinates assigned)
O=C(/N=c1\[nH]c2ccc([O-])cc2s1)c1ccco1 (optimized conformer: 94.80806891512124 kcal/mol)

>  <smiles>  (84) 
O=C(N=c1[nH]c2ccc(O)cc2s1)c1ccco1

>  <score_type>  (84) 
oracle

>  <origin>  (84) 
adg

>  <m_score__min__energy>  (84) 
-9.8599999999999994

>  <m_primary>  (84) 
energy

$$$$
84:0
     RDKit          3D

 53 56  0  0  0  0  0  0  0  0999 V2000
   58.1380   32.7080   42.5820 C   0  0  0  0  0  0  0  0  0  0  0  0
   57.5470   33.2350   43.7650 O   0  0  0  0  0  0  0  0  0  0  0  0
   58.2670   33.6680   44.8890 C   0  0  0  0  0  0  0  0  0  0  0  0
   59.0170   34.8600   44.8810 C   0  0  0  0  0  0  0  0  0  0  0  0
   59.7040   35.2680   46.0240 C   0  0  0  0  0  0  0  0  0  0  0  0
   59.6700   34.4870   47.1790 C   0  0  0  0  0  0  0  0  0  0  0  0
   58.9490   33.2840   47.2040 C   0  0  0  0  0  0  0  0  0  0  0  0
   58.9630   32.4470   48.4560 C   0  0  0  0  0  0  0  0  0  0  0  0
   58.2110   32.8940   46.0610 C   0  0  0  0  0  0  0  0  0  0  0  0
   57.4310   31.6920   46.0560 N   0  0  0  0  0  0  0  0  0  0  0  0
   57.3450   30.7700   44.9620 C   0  0  0  0  0  0  0  0  0  0  0  0
   56.2070   30.4740   44.5110 O   0  0  0  0  0  0  0  0  0  0  0  0
   58.5620   30.0770   44.3980 C   0  0  0  0  0  0  0  0  0  0  0  0
   58.7000   28.7180   44.9770 N   0  0  0  0  0  0  0  0  0  0  0  0
   58.1920   27.6520   44.2680 C   0  0  0  0  0  0  0  0  0  0  0  0
   57.5970   27.8550   43.1720 O   0  0  0  0  0  0  0  0  0  0  0  0
   58.3130   26.3660   44.7300 N   0  0  0  0  0  0  0  0  0  0  0  0
   57.7550   25.2490   43.9360 C   0  0  0  0  0  0  0  0  0  0  0  0
   56.5290   24.6840   44.6070 C   0  0  0  0  0  0  0  0  0  0  0  0
   56.0160   23.4380   44.2180 C   0  0  0  0  0  0  0  0  0  0  0  0
   54.8930   22.9140   44.8610 C   0  0  0  0  0  0  0  0  0  0  0  0
   54.2930   23.6400   45.8910 C   0  0  0  0  0  0  0  0  0  0  0  0
   54.8020   24.8450   46.2600 N   0  0  0  0  0  0  0  0  0  0  0  0
   55.8950   25.3780   45.6500 C   0  0  0  0  0  0  0  0  0  0  0  0
   58.9230   26.1210   45.9300 C   0  0  0  0  0  0  0  0  0  0  0  0
   59.0110   24.9390   46.3690 O   0  0  0  0  0  0  0  0  0  0  0  0
   59.4590   27.1770   46.6780 C   0  0  0  0  0  0  0  0  0  0  0  0
   60.1030   26.9370   47.9080 C   0  0  0  0  0  0  0  0  0  0  0  0
   60.6510   27.9880   48.6370 C   0  0  0  0  0  0  0  0  0  0  0  0
   60.5660   29.2880   48.1510 C   0  0  0  0  0  0  0  0  0  0  0  0
   59.9280   29.5460   46.9370 C   0  0  0  0  0  0  0  0  0  0  0  0
   59.3520   28.4960   46.1750 C   0  0  0  0  0  0  0  0  0  0  0  0
   58.9335   31.9987   42.8542 H   0  0  0  0  0  0  0  0  0  0  0  0
   57.3709   32.1887   41.9889 H   0  0  0  0  0  0  0  0  0  0  0  0
   58.5664   33.5294   41.9889 H   0  0  0  0  0  0  0  0  0  0  0  0
   59.0611   35.4725   43.9683 H   0  0  0  0  0  0  0  0  0  0  0  0
   60.2744   36.2085   46.0146 H   0  0  0  0  0  0  0  0  0  0  0  0
   60.2127   34.8169   48.0772 H   0  0  0  0  0  0  0  0  0  0  0  0
   58.9520   33.1052   49.3372 H   0  0  0  0  0  0  0  0  0  0  0  0
   58.0756   31.7972   48.4726 H   0  0  0  0  0  0  0  0  0  0  0  0
   59.8716   31.8272   48.4726 H   0  0  0  0  0  0  0  0  0  0  0  0
   58.4593   29.9966   43.3058 H   0  0  0  0  0  0  0  0  0  0  0  0
   59.4563   30.6649   44.6521 H   0  0  0  0  0  0  0  0  0  0  0  0
   57.4830   25.6167   42.9356 H   0  0  0  0  0  0  0  0  0  0  0  0
   58.5134   24.4563   43.8558 H   0  0  0  0  0  0  0  0  0  0  0  0
   56.4984   22.8736   43.4063 H   0  0  0  0  0  0  0  0  0  0  0  0
   54.4850   21.9382   44.5587 H   0  0  0  0  0  0  0  0  0  0  0  0
   53.4077   23.2367   46.4044 H   0  0  0  0  0  0  0  0  0  0  0  0
   56.2829   26.3548   45.9746 H   0  0  0  0  0  0  0  0  0  0  0  0
   60.1732   25.9099   48.2954 H   0  0  0  0  0  0  0  0  0  0  0  0
   61.1509   27.7906   49.5967 H   0  0  0  0  0  0  0  0  0  0  0  0
   61.0038   30.1171   48.7263 H   0  0  0  0  0  0  0  0  0  0  0  0
   59.8705   30.5795   46.5646 H   0  0  0  0  0  0  0  0  0  0  0  0
  1  2  1  0
  2  3  1  0
  3  4  2  0
  4  5  1  0
  5  6  2  0
  6  7  1  0
  7  8  1  0
  7  9  2  0
  9 10  1  0
 10 11  1  0
 11 12  2  0
 11 13  1  0
 13 14  1  0
 14 15  1  0
 15 16  2  0
 15 17  1  0
 17 18  1  0
 18 19  1  0
 19 20  2  0
 20 21  1  0
 21 22  2  0
 22 23  1  0
 23 24  2  0
 17 25  1  0
 25 26  2  0
 25 27  1  0
 27 28  2  0
 28 29  1  0
 29 30  2  0
 30 31  1  0
 31 32  2  0
  9  3  1  0
 32 14  1  0
 24 19  1  0
 32 27  1  0
  1 33  1  0
  1 34  1  0
  1 35  1  0
  4 36  1  0
  5 37  1  0
  6 38  1  0
  8 39  1  0
  8 40  1  0
  8 41  1  0
 13 42  1  0
 13 43  1  0
 18 44  1  0
 18 45  1  0
 20 46  1  0
 21 47  1  0
 22 48  1  0
 24 49  1  0
 28 50  1  0
 29 51  1  0
 30 52  1  0
 31 53  1  0
M  CHG  1  10  -1
M  END
>  <UniqueID>  (85) 
76

>  <SMILES>  (85) 
COc1cccc(C)c1[N-]C(=O)Cn1c(=O)n(Cc2cccnc2)c(=O)c2ccccc21

>  <Energy>  (85) 
78.94926980631901

>  <Genealogy>  (85) 
COc1cccc(C)c1[N-]C(=O)Cn1c(=O)n(Cc2cccnc2)c(=O)c2ccccc21 (protonated)
COc1cccc(C)c1[N-]C(=O)Cn1c(=O)n(Cc2cccnc2)c(=O)c2ccccc21 (3D coordinates assigned)
COc1cccc(C)c1[N-]C(=O)Cn1c(=O)n(Cc2cccnc2)c(=O)c2ccccc21 (optimized conformer: 78.94926980631901 kcal/mol)

>  <smiles>  (85) 
COc1cccc(C)c1NC(=O)Cn1c(=O)n(Cc2cccnc2)c(=O)c2ccccc21

>  <score_type>  (85) 
oracle

>  <origin>  (85) 
adg

>  <m_score__min__energy>  (85) 
-10.630000000000001

>  <m_primary>  (85) 
energy

$$$$
85:0
     RDKit          3D

 32 34  0  0  0  0  0  0  0  0999 V2000
   55.1970   24.5920   45.5250 C   0  0  0  0  0  0  0  0  0  0  0  0
   55.5170   25.8970   45.9980 O   0  0  0  0  0  0  0  0  0  0  0  0
   56.8020   26.4590   45.9610 C   0  0  0  0  0  0  0  0  0  0  0  0
   57.9700   25.6740   45.9800 C   0  0  0  0  0  0  0  0  0  0  0  0
   59.2260   26.2830   45.9460 C   0  0  0  0  0  0  0  0  0  0  0  0
   59.3310   27.6750   45.8910 C   0  0  0  0  0  0  0  0  0  0  0  0
   58.1770   28.4730   45.8700 C   0  0  0  0  0  0  0  0  0  0  0  0
   58.2840   29.9060   45.8120 N   0  0  0  0  0  0  0  0  0  0  0  0
   57.3930   30.8270   45.1700 C   0  0  0  0  0  0  0  0  0  0  0  0
   56.3770   30.4910   44.5050 O   0  0  0  0  0  0  0  0  0  0  0  0
   57.8710   32.1930   45.3520 C   0  0  0  0  0  0  0  0  0  0  0  0
   57.3440   33.4050   44.9120 C   0  0  0  0  0  0  0  0  0  0  0  0
   58.0350   34.5840   45.2430 C   0  0  0  0  0  0  0  0  0  0  0  0
   59.2300   34.5320   46.0020 C   0  0  0  0  0  0  0  0  0  0  0  0
   59.9210   35.7390   46.3310 N   0  0  0  0  0  0  0  0  0  0  0  0
   59.7380   33.2880   46.4310 C   0  0  0  0  0  0  0  0  0  0  0  0
   59.0340   32.1360   46.0870 C   0  0  0  0  0  0  0  0  0  0  0  0
   59.3050   30.7330   46.3820 C   0  0  0  0  0  0  0  0  0  0  0  0
   60.2640   30.3070   47.0780 O   0  0  0  0  0  0  0  0  0  0  0  0
   56.9160   27.8540   45.9040 C   0  0  0  0  0  0  0  0  0  0  0  0
   55.0326   23.9216   46.3815 H   0  0  0  0  0  0  0  0  0  0  0  0
   54.2833   24.6372   44.9141 H   0  0  0  0  0  0  0  0  0  0  0  0
   56.0279   24.2094   44.9141 H   0  0  0  0  0  0  0  0  0  0  0  0
   57.8932   24.5775   46.0218 H   0  0  0  0  0  0  0  0  0  0  0  0
   60.1357   25.6648   45.9626 H   0  0  0  0  0  0  0  0  0  0  0  0
   60.3237   28.1480   45.8640 H   0  0  0  0  0  0  0  0  0  0  0  0
   56.4153   33.4387   44.3234 H   0  0  0  0  0  0  0  0  0  0  0  0
   57.6438   35.5564   44.9093 H   0  0  0  0  0  0  0  0  0  0  0  0
   59.5720   36.3650   47.0910 H   0  0  0  0  0  0  0  0  0  0  0  0
   60.7880   36.0150   45.8180 H   0  0  0  0  0  0  0  0  0  0  0  0
   60.6645   33.2290   47.0209 H   0  0  0  0  0  0  0  0  0  0  0  0
   56.0067   28.4728   45.8856 H   0  0  0  0  0  0  0  0  0  0  0  0
  1  2  1  0
  2  3  1  0
  3  4  2  0
  4  5  1  0
  5  6  2  0
  6  7  1  0
  7  8  1  0
  8  9  1  0
  9 10  2  0
  9 11  1  0
 11 12  2  0
 12 13  1  0
 13 14  2  0
 14 15  1  0
 14 16  1  0
 16 17  2  0
 17 18  1  0
 18 19  2  0
  7 20  2  0
 20  3  1  0
 18  8  1  0
 17 11  1  0
  1 21  1  0
  1 22  1  0
  1 23  1  0
  4 24  1  0
  5 25  1  0
  6 26  1  0
 12 27  1  0
 13 28  1  0
 15 29  1  0
 15 30  1  0
 16 31  1  0
 20 32  1  0
M  END
>  <UniqueID>  (86) 
77

>  <SMILES>  (86) 
COc1cccc(N2C(=O)c3ccc(N)cc3C2=O)c1

>  <Energy>  (86) 
69.87815249963525

>  <Genealogy>  (86) 
COc1cccc(N2C(=O)c3ccc(N)cc3C2=O)c1 (3D coordinates assigned)
COc1cccc(N2C(=O)c3ccc(N)cc3C2=O)c1 (nonaromatic ring conformer: 69.87815249963525 kcal/mol)

>  <smiles>  (86) 
COc1cccc(N2C(=O)c3ccc(N)cc3C2=O)c1

>  <score_type>  (86) 
oracle

>  <origin>  (86) 
adg

>  <m_score__min__energy>  (86) 
-7.1299999999999999

>  <m_primary>  (86) 
energy

$$$$
86:0
     RDKit          3D

 30 31  0  0  0  0  0  0  0  0999 V2000
   57.7910   28.1960   43.4460 C   0  0  0  0  0  0  0  0  0  0  0  0
   57.3090   28.6250   44.6120 C   0  0  0  0  0  0  0  0  0  0  0  0
   57.9680   27.8290   46.2250 Br  0  0  0  0  0  0  0  0  0  0  0  0
   56.2900   29.6910   44.6920 C   0  0  0  0  0  0  0  0  0  0  0  0
   55.0860   29.3790   44.8860 O   0  0  0  0  0  0  0  0  0  0  0  0
   56.6610   31.0640   44.4990 N   0  0  0  0  0  0  0  0  0  0  0  0
   57.5680   31.8280   45.3090 C   0  0  0  0  0  0  0  0  0  0  0  0
   58.5460   31.2170   46.1130 C   0  0  0  0  0  0  0  0  0  0  0  0
   59.4250   31.9980   46.8680 C   0  0  0  0  0  0  0  0  0  0  0  0
   59.3440   33.3950   46.8320 C   0  0  0  0  0  0  0  0  0  0  0  0
   60.2530   34.1430   47.5950 O   0  0  0  0  0  0  0  0  0  0  0  0
   61.6040   33.8200   47.7960 C   0  0  0  0  0  0  0  0  0  0  0  0
   62.1820   33.7910   49.0750 C   0  0  0  0  0  0  0  0  0  0  0  0
   63.5280   33.4450   49.2140 C   0  0  0  0  0  0  0  0  0  0  0  0
   64.2690   33.1270   48.1180 N   0  0  0  0  0  0  0  0  0  0  0  0
   63.7260   33.1300   46.8700 C   0  0  0  0  0  0  0  0  0  0  0  0
   62.3840   33.4700   46.6900 C   0  0  0  0  0  0  0  0  0  0  0  0
   58.3940   34.0060   45.9950 C   0  0  0  0  0  0  0  0  0  0  0  0
   57.5160   33.2250   45.2380 C   0  0  0  0  0  0  0  0  0  0  0  0
   57.4289   28.6369   42.5055 H   0  0  0  0  0  0  0  0  0  0  0  0
   58.5509   27.4010   43.4240 H   0  0  0  0  0  0  0  0  0  0  0  0
   58.6196   30.1200   46.1479 H   0  0  0  0  0  0  0  0  0  0  0  0
   60.1863   31.5113   47.4953 H   0  0  0  0  0  0  0  0  0  0  0  0
   61.5793   34.0389   49.9611 H   0  0  0  0  0  0  0  0  0  0  0  0
   63.9902   33.4295   50.2121 H   0  0  0  0  0  0  0  0  0  0  0  0
   65.2740   32.8690   48.2370 H   0  0  0  0  0  0  0  0  0  0  0  0
   64.3460   32.8639   46.0012 H   0  0  0  0  0  0  0  0  0  0  0  0
   61.9424   33.4625   45.6826 H   0  0  0  0  0  0  0  0  0  0  0  0
   58.3414   35.1031   45.9356 H   0  0  0  0  0  0  0  0  0  0  0  0
   56.7792   33.7116   44.5820 H   0  0  0  0  0  0  0  0  0  0  0  0
  1  2  2  0
  2  3  1  0
  2  4  1  0
  4  5  2  0
  4  6  1  0
  6  7  1  0
  7  8  2  0
  8  9  1  0
  9 10  2  0
 10 11  1  0
 11 12  1  0
 12 13  2  0
 13 14  1  0
 14 15  2  0
 15 16  1  0
 16 17  2  0
 10 18  1  0
 18 19  2  0
 19  7  1  0
 17 12  1  0
  1 20  1  0
  1 21  1  0
  8 22  1  0
  9 23  1  0
 13 24  1  0
 14 25  1  0
 15 26  1  0
 16 27  1  0
 17 28  1  0
 18 29  1  0
 19 30  1  0
M  CHG  2   6  -1  15   1
M  END
>  <UniqueID>  (87) 
78

>  <SMILES>  (87) 
C=C(Br)C(=O)[N-]c1ccc(Oc2cc[nH+]cc2)cc1

>  <Energy>  (87) 
39.036409925437106

>  <Genealogy>  (87) 
C=C(Br)C(=O)[N-]c1ccc(Oc2cc[nH+]cc2)cc1 (protonated)
C=C(Br)C(=O)[N-]c1ccc(Oc2cc[nH+]cc2)cc1 (3D coordinates assigned)
C=C(Br)C(=O)[N-]c1ccc(Oc2cc[nH+]cc2)cc1 (optimized conformer: 39.036409925437106 kcal/mol)

>  <smiles>  (87) 
C=C(Br)C(=O)Nc1ccc(Oc2ccncc2)cc1

>  <score_type>  (87) 
oracle

>  <origin>  (87) 
adg

>  <m_score__min__energy>  (87) 
-7.8200000000000003

>  <m_primary>  (87) 
energy

$$$$
87:0
     RDKit          3D

 42 44  0  0  0  0  0  0  0  0999 V2000
   59.9700   34.1250   45.3610 O   0  0  0  0  0  0  0  0  0  0  0  0
   60.1050   33.4780   46.4350 C   0  0  0  0  0  0  0  0  0  0  0  0
   59.0490   32.4710   46.8130 C   0  0  0  0  0  0  0  0  0  0  0  0
   59.2730   31.1240   46.1130 C   0  0  0  0  0  0  0  0  0  0  0  0
   58.2510   30.8720   45.0310 C   0  0  0  0  0  0  0  0  0  0  0  0
   58.3640   31.5140   43.7870 C   0  0  0  0  0  0  0  0  0  0  0  0
   57.3930   31.3130   42.8010 C   0  0  0  0  0  0  0  0  0  0  0  0
   56.3090   30.4660   43.0440 C   0  0  0  0  0  0  0  0  0  0  0  0
   56.2000   29.8080   44.2710 C   0  0  0  0  0  0  0  0  0  0  0  0
   55.1500   28.9830   44.5050 F   0  0  0  0  0  0  0  0  0  0  0  0
   57.1680   30.0070   45.2620 C   0  0  0  0  0  0  0  0  0  0  0  0
   61.3000   33.6480   47.2150 N   0  0  0  0  0  0  0  0  0  0  0  0
   61.2520   33.7960   48.6750 C   0  0  0  0  0  0  0  0  0  0  0  0
   62.2150   32.7980   49.3190 C   0  0  0  0  0  0  0  0  0  0  0  0
   63.6340   32.8260   48.6780 C   0  0  0  0  0  0  0  0  0  0  0  0
   64.6540   33.1190   49.6920 N   0  0  0  0  0  0  0  0  0  0  0  0
   64.4590   33.6220   50.9280 C   0  0  0  0  0  0  0  0  0  0  0  0
   65.6320   33.8180   51.5690 N   0  0  0  0  0  0  0  0  0  0  0  0
   66.5440   33.4140   50.6550 C   0  0  0  0  0  0  0  0  0  0  0  0
   65.9580   32.9950   49.5190 N   0  0  0  0  0  0  0  0  0  0  0  0
   63.7630   33.8300   47.5120 C   0  0  0  0  0  0  0  0  0  0  0  0
   62.5950   33.7110   46.5240 C   0  0  0  0  0  0  0  0  0  0  0  0
   59.0775   32.3161   47.9017 H   0  0  0  0  0  0  0  0  0  0  0  0
   58.0715   32.8638   46.4962 H   0  0  0  0  0  0  0  0  0  0  0  0
   60.2761   31.1208   45.6617 H   0  0  0  0  0  0  0  0  0  0  0  0
   59.1731   30.3288   46.8665 H   0  0  0  0  0  0  0  0  0  0  0  0
   59.2189   32.1769   43.5877 H   0  0  0  0  0  0  0  0  0  0  0  0
   57.4830   31.8235   41.8308 H   0  0  0  0  0  0  0  0  0  0  0  0
   55.5420   30.3175   42.2696 H   0  0  0  0  0  0  0  0  0  0  0  0
   57.0806   29.4841   46.2258 H   0  0  0  0  0  0  0  0  0  0  0  0
   61.5464   34.8196   48.9499 H   0  0  0  0  0  0  0  0  0  0  0  0
   60.2294   33.6013   49.0304 H   0  0  0  0  0  0  0  0  0  0  0  0
   62.3079   33.0396   50.3881 H   0  0  0  0  0  0  0  0  0  0  0  0
   61.8012   31.7910   49.1616 H   0  0  0  0  0  0  0  0  0  0  0  0
   63.7942   31.8217   48.2587 H   0  0  0  0  0  0  0  0  0  0  0  0
   63.4716   33.8442   51.3589 H   0  0  0  0  0  0  0  0  0  0  0  0
   67.6314   33.4266   50.8205 H   0  0  0  0  0  0  0  0  0  0  0  0
   66.4320   32.6480   48.6550 H   0  0  0  0  0  0  0  0  0  0  0  0
   63.7800   34.8508   47.9216 H   0  0  0  0  0  0  0  0  0  0  0  0
   64.6932   33.6055   46.9695 H   0  0  0  0  0  0  0  0  0  0  0  0
   62.6011   34.5867   45.8583 H   0  0  0  0  0  0  0  0  0  0  0  0
   62.7236   32.7795   45.9532 H   0  0  0  0  0  0  0  0  0  0  0  0
  1  2  2  0
  2  3  1  0
  3  4  1  0
  4  5  1  0
  5  6  2  0
  6  7  1  0
  7  8  2  0
  8  9  1  0
  9 10  1  0
  9 11  2  0
  2 12  1  0
 12 13  1  0
 13 14  1  0
 14 15  1  0
 15 16  1  0
 16 17  1  0
 17 18  2  0
 18 19  1  0
 19 20  2  0
 15 21  1  0
 21 22  1  0
 11  5  1  0
 22 12  1  0
 20 16  1  0
  3 23  1  0
  3 24  1  0
  4 25  1  0
  4 26  1  0
  6 27  1  0
  7 28  1  0
  8 29  1  0
 11 30  1  0
 13 31  1  0
 13 32  1  0
 14 33  1  0
 14 34  1  0
 15 35  1  0
 17 36  1  0
 19 37  1  0
 20 38  1  0
 21 39  1  0
 21 40  1  0
 22 41  1  0
 22 42  1  0
M  CHG  1  20   1
M  END
>  <UniqueID>  (88) 
79

>  <SMILES>  (88) 
O=C(CCc1cccc(F)c1)N1CCC(n2cnc[nH+]2)CC1

>  <Energy>  (88) 
75.95418269580671

>  <Genealogy>  (88) 
O=C(CCc1cccc(F)c1)N1CCC(n2cnc[nH+]2)CC1 (protonated)
O=C(CCc1cccc(F)c1)N1CCC(n2cnc[nH+]2)CC1 (3D coordinates assigned)
O=C(CCc1cccc(F)c1)N1CCC(n2cnc[nH+]2)CC1 (nonaromatic ring conformer: 75.95418269580671 kcal/mol)

>  <smiles>  (88) 
O=C(CCc1cccc(F)c1)N1CCC(n2cncn2)CC1

>  <score_type>  (88) 
oracle

>  <origin>  (88) 
adg

>  <m_score__min__energy>  (88) 
-6.2000000000000002

>  <m_primary>  (88) 
energy

$$$$
88:0
     RDKit          3D

 37 39  0  0  1  0  0  0  0  0999 V2000
   58.0540   34.2110   45.6960 C   0  0  0  0  0  0  0  0  0  0  0  0
   57.5140   33.1610   46.4490 O   0  0  0  0  0  0  0  0  0  0  0  0
   58.0520   31.8920   46.5070 C   0  0  0  0  0  0  0  0  0  0  0  0
   58.8850   31.5730   47.5600 C   0  0  0  0  0  0  0  0  0  0  0  0
   59.4380   30.3350   47.6590 C   0  0  0  0  0  0  0  0  0  0  0  0
   60.2530   30.0140   48.6820 N   0  0  0  0  0  0  0  0  0  0  0  0
   60.8020   28.7790   48.7770 C   0  0  0  0  0  0  0  0  0  0  0  0
   60.5310   27.8400   47.8240 N   0  0  0  0  0  0  0  0  0  0  0  0
   59.7140   28.1560   46.7910 C   0  0  0  0  0  0  0  0  0  0  0  0
   59.4800   27.2430   45.9070 N   0  0  0  0  0  0  0  0  0  0  0  0
   58.4170   26.3040   46.1330 C   0  0  0  0  0  0  0  0  0  0  0  0
   58.6790   24.9990   46.5060 C   0  0  0  0  0  0  0  0  0  0  0  0
   57.6230   24.1470   46.7080 C   0  0  0  0  0  0  0  0  0  0  0  0
   56.3170   24.5330   46.5550 C   0  0  0  0  0  0  0  0  0  0  0  0
   56.0380   25.8200   46.1870 C   0  0  0  0  0  0  0  0  0  0  0  0
   54.7410   26.2990   46.0090 O   0  0  0  0  0  0  0  0  0  0  0  0
   57.0860   26.6950   45.9790 C   0  0  0  0  0  0  0  0  0  0  0  0
   59.1390   29.4070   46.6670 C   0  0  0  0  0  0  0  0  0  0  0  0
   58.2980   29.7290   45.6040 C   0  0  0  0  0  0  0  0  0  0  0  0
   57.7430   30.9900   45.5150 C   0  0  0  0  0  0  0  0  0  0  0  0
   56.8990   31.3810   44.4880 O   0  0  0  0  0  0  0  0  0  0  0  0
   57.4460   31.5710   43.2050 C   0  0  0  0  0  0  0  0  0  0  0  0
   58.4504   34.9818   46.3732 H   0  0  0  0  0  0  0  0  0  0  0  0
   58.8666   33.8272   45.0616 H   0  0  0  0  0  0  0  0  0  0  0  0
   57.2692   34.6487   45.0616 H   0  0  0  0  0  0  0  0  0  0  0  0
   59.1041   32.3292   48.3282 H   0  0  0  0  0  0  0  0  0  0  0  0
   60.4370   30.7540   49.3910 H   0  0  0  0  0  0  0  0  0  0  0  0
   61.4645   28.5336   49.6201 H   0  0  0  0  0  0  0  0  0  0  0  0
   59.7139   24.6506   46.6382 H   0  0  0  0  0  0  0  0  0  0  0  0
   57.8336   23.1092   47.0056 H   0  0  0  0  0  0  0  0  0  0  0  0
   55.5016   23.8149   46.7265 H   0  0  0  0  0  0  0  0  0  0  0  0
   54.1760   26.6780   46.7550 H   0  0  0  0  0  0  0  0  0  0  0  0
   56.8652   27.7312   45.6831 H   0  0  0  0  0  0  0  0  0  0  0  0
   58.0755   28.9763   44.8333 H   0  0  0  0  0  0  0  0  0  0  0  0
   58.4814   31.9307   43.2974 H   0  0  0  0  0  0  0  0  0  0  0  0
   57.4367   30.6170   42.6575 H   0  0  0  0  0  0  0  0  0  0  0  0
   56.8473   32.3138   42.6575 H   0  0  0  0  0  0  0  0  0  0  0  0
  1  2  1  0
  2  3  1  0
  3  4  2  0
  4  5  1  0
  5  6  1  0
  6  7  1  0
  7  8  2  0
  8  9  1  0
  9 10  2  0
 10 11  1  0
 11 12  2  0
 12 13  1  0
 13 14  2  0
 14 15  1  0
 15 16  1  0
 15 17  2  0
  9 18  1  0
 18 19  1  0
 19 20  2  0
 20 21  1  0
 21 22  1  0
 20  3  1  0
 18  5  2  0
 17 11  1  0
  1 23  1  0
  1 24  1  0
  1 25  1  0
  4 26  1  0
  6 27  1  0
  7 28  1  0
 12 29  1  0
 13 30  1  0
 14 31  1  0
 16 32  1  0
 17 33  1  0
 19 34  1  0
 22 35  1  0
 22 36  1  0
 22 37  1  0
M  END
>  <smiles>  (89) 
COc1cc2[nH]cnc(=Nc3cccc(O)c3)c2cc1OC

>  <score_type>  (89) 
oracle

>  <origin>  (89) 
adg

>  <m_score__min__energy>  (89) 
-7.2199999999999998

>  <m_primary>  (89) 
energy

$$$$
89:0
     RDKit          3D

 56 60  0  0  0  0  0  0  0  0999 V2000
   53.4900   23.7170   44.4860 C   0  0  0  0  0  0  0  0  0  0  0  0
   54.2150   22.5520   44.8730 O   0  0  0  0  0  0  0  0  0  0  0  0
   55.6130   22.4370   44.8380 C   0  0  0  0  0  0  0  0  0  0  0  0
   56.2610   21.4160   44.1140 C   0  0  0  0  0  0  0  0  0  0  0  0
   57.6540   21.3400   44.0930 C   0  0  0  0  0  0  0  0  0  0  0  0
   58.4250   22.2900   44.7740 C   0  0  0  0  0  0  0  0  0  0  0  0
   59.9230   22.2080   44.7590 C   0  0  0  0  0  0  0  0  0  0  0  0
   57.7860   23.2970   45.5110 C   0  0  0  0  0  0  0  0  0  0  0  0
   56.3810   23.3700   45.5560 C   0  0  0  0  0  0  0  0  0  0  0  0
   55.7070   24.4200   46.2640 N   0  0  0  0  0  0  0  0  0  0  0  0
   56.1490   25.7770   46.4000 C   0  0  0  0  0  0  0  0  0  0  0  0
   55.4230   26.7280   46.0030 O   0  0  0  0  0  0  0  0  0  0  0  0
   57.4320   26.0360   46.9860 N   0  0  0  0  0  0  0  0  0  0  0  0
   58.0710   27.3230   47.0010 C   0  0  0  0  0  0  0  0  0  0  0  0
   58.9460   27.6960   48.0350 C   0  0  0  0  0  0  0  0  0  0  0  0
   59.5290   28.9670   48.0450 C   0  0  0  0  0  0  0  0  0  0  0  0
   59.2410   29.8940   47.0270 C   0  0  0  0  0  0  0  0  0  0  0  0
   59.8500   31.2480   47.0400 C   0  0  0  0  0  0  0  0  0  0  0  0
   59.3370   32.2700   46.2210 C   0  0  0  0  0  0  0  0  0  0  0  0
   59.9030   33.5450   46.2430 C   0  0  0  0  0  0  0  0  0  0  0  0
   60.9860   33.8200   47.0810 C   0  0  0  0  0  0  0  0  0  0  0  0
   61.5180   32.8160   47.9070 C   0  0  0  0  0  0  0  0  0  0  0  0
   62.6620   33.1080   48.7990 C   0  0  0  0  0  0  0  0  0  0  0  0
   63.9120   32.6120   48.5870 N   0  0  0  0  0  0  0  0  0  0  0  0
   64.6100   33.1250   49.6090 C   0  0  0  0  0  0  0  0  0  0  0  0
   65.9620   32.9500   49.8920 C   0  0  0  0  0  0  0  0  0  0  0  0
   66.4810   33.5970   51.0300 C   0  0  0  0  0  0  0  0  0  0  0  0
   65.6420   34.3940   51.8430 C   0  0  0  0  0  0  0  0  0  0  0  0
   64.2790   34.5490   51.5240 C   0  0  0  0  0  0  0  0  0  0  0  0
   63.8020   33.8930   50.3910 C   0  0  0  0  0  0  0  0  0  0  0  0
   62.5560   33.9010   49.9000 N   0  0  0  0  0  0  0  0  0  0  0  0
   60.9450   31.5310   47.8770 C   0  0  0  0  0  0  0  0  0  0  0  0
   58.3500   29.5230   46.0030 C   0  0  0  0  0  0  0  0  0  0  0  0
   57.7660   28.2530   45.9980 C   0  0  0  0  0  0  0  0  0  0  0  0
   53.1548   24.2556   45.3846 H   0  0  0  0  0  0  0  0  0  0  0  0
   54.1405   24.3717   43.8874 H   0  0  0  0  0  0  0  0  0  0  0  0
   52.6154   23.4226   43.8874 H   0  0  0  0  0  0  0  0  0  0  0  0
   55.6648   20.6745   43.5621 H   0  0  0  0  0  0  0  0  0  0  0  0
   58.1493   20.5293   43.5384 H   0  0  0  0  0  0  0  0  0  0  0  0
   60.2994   22.1874   45.7924 H   0  0  0  0  0  0  0  0  0  0  0  0
   60.2348   21.2914   44.2368 H   0  0  0  0  0  0  0  0  0  0  0  0
   60.3330   23.0850   44.2368 H   0  0  0  0  0  0  0  0  0  0  0  0
   58.3880   24.0367   46.0590 H   0  0  0  0  0  0  0  0  0  0  0  0
   57.8810   25.2570   47.5190 H   0  0  0  0  0  0  0  0  0  0  0  0
   59.1739   26.9838   48.8417 H   0  0  0  0  0  0  0  0  0  0  0  0
   60.2187   29.2442   48.8558 H   0  0  0  0  0  0  0  0  0  0  0  0
   58.4837   32.0626   45.5586 H   0  0  0  0  0  0  0  0  0  0  0  0
   59.4947   34.3368   45.5978 H   0  0  0  0  0  0  0  0  0  0  0  0
   61.4249   34.8286   47.0943 H   0  0  0  0  0  0  0  0  0  0  0  0
   66.6023   32.3281   49.2491 H   0  0  0  0  0  0  0  0  0  0  0  0
   67.5441   33.4819   51.2878 H   0  0  0  0  0  0  0  0  0  0  0  0
   66.0564   34.8958   52.7298 H   0  0  0  0  0  0  0  0  0  0  0  0
   63.6147   35.1659   52.1470 H   0  0  0  0  0  0  0  0  0  0  0  0
   61.3587   30.7373   48.5164 H   0  0  0  0  0  0  0  0  0  0  0  0
   58.1115   30.2372   45.2011 H   0  0  0  0  0  0  0  0  0  0  0  0
   57.0603   27.9810   45.1992 H   0  0  0  0  0  0  0  0  0  0  0  0
  1  2  1  0
  2  3  1  0
  3  4  2  0
  4  5  1  0
  5  6  2  0
  6  7  1  0
  6  8  1  0
  8  9  2  0
  9 10  1  0
 10 11  1  0
 11 12  2  0
 11 13  1  0
 13 14  1  0
 14 15  2  0
 15 16  1  0
 16 17  2  0
 17 18  1  0
 18 19  2  0
 19 20  1  0
 20 21  2  0
 21 22  1  0
 22 23  1  0
 23 24  2  0
 24 25  1  0
 25 26  2  0
 26 27  1  0
 27 28  2  0
 28 29  1  0
 29 30  2  0
 30 31  1  0
 22 32  2  0
 17 33  1  0
 33 34  2  0
  9  3  1  0
 34 14  1  0
 32 18  1  0
 31 23  1  0
 30 25  1  0
  1 35  1  0
  1 36  1  0
  1 37  1  0
  4 38  1  0
  5 39  1  0
  7 40  1  0
  7 41  1  0
  7 42  1  0
  8 43  1  0
 13 44  1  0
 15 45  1  0
 16 46  1  0
 19 47  1  0
 20 48  1  0
 21 49  1  0
 26 50  1  0
 27 51  1  0
 28 52  1  0
 29 53  1  0
 32 54  1  0
 33 55  1  0
 34 56  1  0
M  CHG  2  10  -1  31  -1
M  END
>  <UniqueID>  (90) 
80

>  <SMILES>  (90) 
COc1ccc(C)cc1[N-]C(=O)Nc1ccc(-c2cccc(-c3nc4ccccc4[n-]3)c2)cc1

>  <Energy>  (90) 
109.29156138872581

>  <Genealogy>  (90) 
COc1ccc(C)cc1[N-]C(=O)Nc1ccc(-c2cccc(-c3nc4ccccc4[n-]3)c2)cc1 (protonated)
COc1ccc(C)cc1[N-]C(=O)Nc1ccc(-c2cccc(-c3nc4ccccc4[n-]3)c2)cc1 (3D coordinates assigned)
COc1ccc(C)cc1[N-]C(=O)Nc1ccc(-c2cccc(-c3nc4ccccc4[n-]3)c2)cc1 (optimized conformer: 109.29156138872581 kcal/mol)

>  <smiles>  (90) 
COc1ccc(C)cc1NC(=O)Nc1ccc(-c2cccc(-c3nc4ccccc4[nH]3)c2)cc1

>  <score_type>  (90) 
oracle

>  <origin>  (90) 
adg

>  <m_score__min__energy>  (90) 
-11.949999999999999

>  <m_primary>  (90) 
energy

$$$$
90:0
     RDKit          3D

 48 51  0  0  0  0  0  0  0  0999 V2000
   54.7350   22.3980   47.8650 C   0  0  0  0  0  0  0  0  0  0  0  0
   55.7380   23.4380   47.4750 C   0  0  0  0  0  0  0  0  0  0  0  0
   56.9200   23.5800   48.1110 N   0  0  0  0  0  0  0  0  0  0  0  0
   57.5230   24.6030   47.4760 C   0  0  0  0  0  0  0  0  0  0  0  0
   56.7030   25.0670   46.4670 C   0  0  0  0  0  0  0  0  0  0  0  0
   57.0180   26.1810   45.5520 C   0  0  0  0  0  0  0  0  0  0  0  0
   56.5950   27.4520   45.7300 N   0  0  0  0  0  0  0  0  0  0  0  0
   57.0300   28.2850   44.7440 C   0  0  0  0  0  0  0  0  0  0  0  0
   56.6620   29.7140   44.7320 C   0  0  0  0  0  0  0  0  0  0  0  0
   55.4520   30.0340   44.8700 O   0  0  0  0  0  0  0  0  0  0  0  0
   57.6300   30.7480   44.5180 N   0  0  0  0  0  0  0  0  0  0  0  0
   57.8970   31.8450   45.4050 C   0  0  0  0  0  0  0  0  0  0  0  0
   57.3870   33.1290   45.1400 C   0  0  0  0  0  0  0  0  0  0  0  0
   57.7010   34.2000   45.9800 C   0  0  0  0  0  0  0  0  0  0  0  0
   58.5400   34.0060   47.0790 C   0  0  0  0  0  0  0  0  0  0  0  0
   59.0640   32.7390   47.3430 C   0  0  0  0  0  0  0  0  0  0  0  0
   58.7460   31.6520   46.5110 C   0  0  0  0  0  0  0  0  0  0  0  0
   59.2730   30.3490   46.8090 N   0  0  0  0  0  0  0  0  0  0  0  0
   58.9040   29.7080   48.0760 C   0  0  0  0  0  0  0  0  0  0  0  0
   59.5810   28.3390   48.2070 C   0  0  0  0  0  0  0  0  0  0  0  0
   59.5200   27.6190   46.9310 N   0  0  0  0  0  0  0  0  0  0  0  0
   60.2980   28.2890   45.8700 C   0  0  0  0  0  0  0  0  0  0  0  0
   60.3930   29.8220   46.0240 C   0  0  0  0  0  0  0  0  0  0  0  0
   57.7940   27.6710   43.7520 C   0  0  0  0  0  0  0  0  0  0  0  0
   57.9360   26.0440   44.1480 S   0  0  0  0  0  0  0  0  0  0  0  0
   55.5710   24.3280   46.4690 N   0  0  0  0  0  0  0  0  0  0  0  0
   54.4190   24.4610   45.5760 C   0  0  0  0  0  0  0  0  0  0  0  0
   54.6769   22.3377   48.9618 H   0  0  0  0  0  0  0  0  0  0  0  0
   53.7490   22.6694   47.4599 H   0  0  0  0  0  0  0  0  0  0  0  0
   55.0419   21.4224   47.4599 H   0  0  0  0  0  0  0  0  0  0  0  0
   58.5159   25.0067   47.7232 H   0  0  0  0  0  0  0  0  0  0  0  0
   56.7377   33.2904   44.2669 H   0  0  0  0  0  0  0  0  0  0  0  0
   57.2865   35.1981   45.7752 H   0  0  0  0  0  0  0  0  0  0  0  0
   58.7883   34.8517   47.7372 H   0  0  0  0  0  0  0  0  0  0  0  0
   59.7291   32.5909   48.2066 H   0  0  0  0  0  0  0  0  0  0  0  0
   59.2216   30.3494   48.9113 H   0  0  0  0  0  0  0  0  0  0  0  0
   57.8133   29.5670   48.0969 H   0  0  0  0  0  0  0  0  0  0  0  0
   60.6334   28.4802   48.4944 H   0  0  0  0  0  0  0  0  0  0  0  0
   59.0570   27.7518   48.9755 H   0  0  0  0  0  0  0  0  0  0  0  0
   58.5180   27.5590   46.6300 H   0  0  0  0  0  0  0  0  0  0  0  0
   61.3183   27.8779   45.8791 H   0  0  0  0  0  0  0  0  0  0  0  0
   59.7693   28.0995   44.9242 H   0  0  0  0  0  0  0  0  0  0  0  0
   61.3359   30.0733   46.5316 H   0  0  0  0  0  0  0  0  0  0  0  0
   60.3578   30.2744   45.0219 H   0  0  0  0  0  0  0  0  0  0  0  0
   58.2263   28.1635   42.8685 H   0  0  0  0  0  0  0  0  0  0  0  0
   53.5018   24.5669   46.1740 H   0  0  0  0  0  0  0  0  0  0  0  0
   54.5477   25.3503   44.9414 H   0  0  0  0  0  0  0  0  0  0  0  0
   54.3417   23.5658   44.9414 H   0  0  0  0  0  0  0  0  0  0  0  0
  1  2  1  0
  2  3  2  0
  3  4  1  0
  4  5  2  0
  5  6  1  0
  6  7  2  0
  7  8  1  0
  8  9  1  0
  9 10  2  0
  9 11  1  0
 11 12  1  0
 12 13  2  0
 13 14  1  0
 14 15  2  0
 15 16  1  0
 16 17  2  0
 17 18  1  0
 18 19  1  0
 19 20  1  0
 20 21  1  0
 21 22  1  0
 22 23  1  0
  8 24  2  0
 24 25  1  0
  5 26  1  0
 26 27  1  0
 26  2  1  0
 25  6  1  0
 17 12  1  0
 23 18  1  0
  1 28  1  0
  1 29  1  0
  1 30  1  0
  4 31  1  0
 13 32  1  0
 14 33  1  0
 15 34  1  0
 16 35  1  0
 19 36  1  0
 19 37  1  0
 20 38  1  0
 20 39  1  0
 21 40  1  0
 22 41  1  0
 22 42  1  0
 23 43  1  0
 23 44  1  0
 24 45  1  0
 27 46  1  0
 27 47  1  0
 27 48  1  0
M  CHG  1  11  -1
M  END
>  <UniqueID>  (91) 
81

>  <SMILES>  (91) 
Cc1ncc(-c2nc(C(=O)[N-]c3ccccc3N3CCNCC3)cs2)n1C

>  <Energy>  (91) 
123.44156027580966

>  <Genealogy>  (91) 
Cc1ncc(-c2nc(C(=O)[N-]c3ccccc3N3CCNCC3)cs2)n1C (protonated)
Cc1ncc(-c2nc(C(=O)[N-]c3ccccc3N3CCNCC3)cs2)n1C (3D coordinates assigned)
Cc1ncc(-c2nc(C(=O)[N-]c3ccccc3N3CCNCC3)cs2)n1C (nonaromatic ring conformer: 123.44156027580966 kcal/mol)

>  <smiles>  (91) 
Cc1ncc(-c2nc(C(=O)Nc3ccccc3N3CCNCC3)cs2)n1C

>  <score_type>  (91) 
oracle

>  <origin>  (91) 
adg

>  <m_score__min__energy>  (91) 
-10.890000000000001

>  <m_primary>  (91) 
energy

$$$$
91:0
     RDKit          3D

 59 61  0  0  0  0  0  0  0  0999 V2000
   57.4370   22.2940   44.1550 C   0  0  0  0  0  0  0  0  0  0  0  0
   56.8180   23.1050   45.1470 O   0  0  0  0  0  0  0  0  0  0  0  0
   57.3830   24.2730   45.6850 C   0  0  0  0  0  0  0  0  0  0  0  0
   58.7660   24.5300   45.6260 C   0  0  0  0  0  0  0  0  0  0  0  0
   59.2900   25.7030   46.1710 C   0  0  0  0  0  0  0  0  0  0  0  0
   58.4450   26.6370   46.7780 C   0  0  0  0  0  0  0  0  0  0  0  0
   59.1210   28.1110   47.4630 S   0  0  0  0  0  0  0  0  0  0  0  0
   60.3980   27.7580   48.1730 O   0  0  0  0  0  0  0  0  0  0  0  0
   58.1630   28.7240   48.4460 O   0  0  0  0  0  0  0  0  0  0  0  0
   59.4350   29.2580   46.1920 N   0  0  0  0  0  0  0  0  0  0  0  0
   60.7990   29.7630   46.0020 C   0  0  0  0  0  0  0  0  0  0  0  0
   61.1270   30.7890   47.0440 C   0  0  0  0  0  0  0  0  0  0  0  0
   61.8610   31.7700   46.7450 O   0  0  0  0  0  0  0  0  0  0  0  0
   60.6300   30.6380   48.3790 N   0  0  0  0  0  0  0  0  0  0  0  0
   61.0330   31.5500   49.4490 C   0  0  0  0  0  0  0  0  0  0  0  0
   60.0780   32.7420   49.5350 C   0  0  0  0  0  0  0  0  0  0  0  0
   58.4030   32.2760   48.9730 S   0  0  0  0  0  0  0  0  0  0  0  0
   58.4900   33.1810   47.4250 C   0  0  0  0  0  0  0  0  0  0  0  0
   57.4020   33.1650   46.5420 C   0  0  0  0  0  0  0  0  0  0  0  0
   57.4630   33.8790   45.3410 C   0  0  0  0  0  0  0  0  0  0  0  0
   58.6060   34.6220   45.0260 C   0  0  0  0  0  0  0  0  0  0  0  0
   59.6890   34.6470   45.9090 C   0  0  0  0  0  0  0  0  0  0  0  0
   59.6300   33.9310   47.1100 C   0  0  0  0  0  0  0  0  0  0  0  0
   58.3630   29.6900   45.3350 C   0  0  0  0  0  0  0  0  0  0  0  0
   58.5790   30.6900   44.3710 C   0  0  0  0  0  0  0  0  0  0  0  0
   57.5360   31.0960   43.5320 C   0  0  0  0  0  0  0  0  0  0  0  0
   56.2760   30.5030   43.6420 C   0  0  0  0  0  0  0  0  0  0  0  0
   56.0570   29.5020   44.5910 C   0  0  0  0  0  0  0  0  0  0  0  0
   57.0950   29.0950   45.4350 C   0  0  0  0  0  0  0  0  0  0  0  0
   57.0680   26.3870   46.8460 C   0  0  0  0  0  0  0  0  0  0  0  0
   56.5290   25.2050   46.2990 C   0  0  0  0  0  0  0  0  0  0  0  0
   55.1550   24.9200   46.3480 O   0  0  0  0  0  0  0  0  0  0  0  0
   54.3830   24.4770   45.2370 C   0  0  0  0  0  0  0  0  0  0  0  0
   58.0351   21.5103   44.6429 H   0  0  0  0  0  0  0  0  0  0  0  0
   56.6632   21.8275   43.5276 H   0  0  0  0  0  0  0  0  0  0  0  0
   58.0911   22.9173   43.5276 H   0  0  0  0  0  0  0  0  0  0  0  0
   59.4375   23.8019   45.1475 H   0  0  0  0  0  0  0  0  0  0  0  0
   60.3723   25.8935   46.1228 H   0  0  0  0  0  0  0  0  0  0  0  0
   61.5092   28.9267   46.0808 H   0  0  0  0  0  0  0  0  0  0  0  0
   60.8715   30.2286   45.0080 H   0  0  0  0  0  0  0  0  0  0  0  0
   59.9940   29.8350   48.5880 H   0  0  0  0  0  0  0  0  0  0  0  0
   61.0222   31.0093   50.4069 H   0  0  0  0  0  0  0  0  0  0  0  0
   62.0446   31.9235   49.2317 H   0  0  0  0  0  0  0  0  0  0  0  0
   60.0251   33.0868   50.5782 H   0  0  0  0  0  0  0  0  0  0  0  0
   60.4569   33.5440   48.8845 H   0  0  0  0  0  0  0  0  0  0  0  0
   56.4987   32.5900   46.7939 H   0  0  0  0  0  0  0  0  0  0  0  0
   56.6123   33.8565   44.6440 H   0  0  0  0  0  0  0  0  0  0  0  0
   58.6522   35.1866   44.0831 H   0  0  0  0  0  0  0  0  0  0  0  0
   60.5881   35.2297   45.6599 H   0  0  0  0  0  0  0  0  0  0  0  0
   60.4802   33.9573   47.8075 H   0  0  0  0  0  0  0  0  0  0  0  0
   59.5715   31.1548   44.2761 H   0  0  0  0  0  0  0  0  0  0  0  0
   57.7083   31.8839   42.7840 H   0  0  0  0  0  0  0  0  0  0  0  0
   55.4570   30.8242   42.9817 H   0  0  0  0  0  0  0  0  0  0  0  0
   55.0657   29.0327   44.6747 H   0  0  0  0  0  0  0  0  0  0  0  0
   56.9175   28.3056   46.1802 H   0  0  0  0  0  0  0  0  0  0  0  0
   56.4032   27.1180   47.3295 H   0  0  0  0  0  0  0  0  0  0  0  0
   53.4822   23.9601   45.5993 H   0  0  0  0  0  0  0  0  0  0  0  0
   54.0881   25.3433   44.6266 H   0  0  0  0  0  0  0  0  0  0  0  0
   54.9822   23.7853   44.6266 H   0  0  0  0  0  0  0  0  0  0  0  0
  1  2  1  0
  2  3  1  0
  3  4  2  0
  4  5  1  0
  5  6  2  0
  6  7  1  0
  7  8  2  0
  7  9  2  0
  7 10  1  0
 10 11  1  0
 11 12  1  0
 12 13  2  0
 12 14  1  0
 14 15  1  0
 15 16  1  0
 16 17  1  0
 17 18  1  0
 18 19  2  0
 19 20  1  0
 20 21  2  0
 21 22  1  0
 22 23  2  0
 10 24  1  0
 24 25  2  0
 25 26  1  0
 26 27  2  0
 27 28  1  0
 28 29  2  0
  6 30  1  0
 30 31  2  0
 31 32  1  0
 32 33  1  0
 31  3  1  0
 23 18  1  0
 29 24  1  0
  1 34  1  0
  1 35  1  0
  1 36  1  0
  4 37  1  0
  5 38  1  0
 11 39  1  0
 11 40  1  0
 14 41  1  0
 15 42  1  0
 15 43  1  0
 16 44  1  0
 16 45  1  0
 19 46  1  0
 20 47  1  0
 21 48  1  0
 22 49  1  0
 23 50  1  0
 25 51  1  0
 26 52  1  0
 27 53  1  0
 28 54  1  0
 29 55  1  0
 30 56  1  0
 33 57  1  0
 33 58  1  0
 33 59  1  0
M  END
>  <UniqueID>  (92) 
82

>  <SMILES>  (92) 
COc1ccc(S(=O)(=O)N(CC(=O)NCCSc2ccccc2)c2ccccc2)cc1OC

>  <Energy>  (92) 
55.056927167818294

>  <Genealogy>  (92) 
COc1ccc(S(=O)(=O)N(CC(=O)NCCSc2ccccc2)c2ccccc2)cc1OC (3D coordinates assigned)
COc1ccc(S(=O)(=O)N(CC(=O)NCCSc2ccccc2)c2ccccc2)cc1OC (optimized conformer: 55.056927167818294 kcal/mol)

>  <smiles>  (92) 
COc1ccc(S(=O)(=O)N(CC(=O)NCCSc2ccccc2)c2ccccc2)cc1OC

>  <score_type>  (92) 
oracle

>  <origin>  (92) 
adg

>  <m_score__min__energy>  (92) 
-9.4600000000000009

>  <m_primary>  (92) 
energy

$$$$
92:0
     RDKit          3D

 47 49  0  0  0  0  0  0  0  0999 V2000
   59.7490   34.2060   49.7130 C   0  0  0  0  0  0  0  0  0  0  0  0
   59.3140   32.8270   50.1410 C   0  0  0  0  0  0  0  0  0  0  0  0
   58.6110   32.6760   51.3540 C   0  0  0  0  0  0  0  0  0  0  0  0
   58.3410   33.7480   52.1410 F   0  0  0  0  0  0  0  0  0  0  0  0
   58.1740   31.4160   51.7660 C   0  0  0  0  0  0  0  0  0  0  0  0
   58.4240   30.2920   50.9820 C   0  0  0  0  0  0  0  0  0  0  0  0
   59.1350   30.4200   49.7890 C   0  0  0  0  0  0  0  0  0  0  0  0
   59.6190   31.6730   49.3660 C   0  0  0  0  0  0  0  0  0  0  0  0
   60.4080   31.7350   48.0660 C   0  0  0  0  0  0  0  0  0  0  0  0
   59.6270   32.3080   46.9380 N   0  0  0  0  0  0  0  0  0  0  0  0
   60.0470   33.4600   46.2990 C   0  0  0  0  0  0  0  0  0  0  0  0
   61.3010   34.2010   46.6990 C   0  0  0  0  0  0  0  0  0  0  0  0
   59.2860   33.9990   45.2530 C   0  0  0  0  0  0  0  0  0  0  0  0
   58.1440   33.3500   44.8150 C   0  0  0  0  0  0  0  0  0  0  0  0
   57.7580   32.1450   45.3930 C   0  0  0  0  0  0  0  0  0  0  0  0
   56.5910   31.4950   44.8620 N   0  0  0  0  0  0  0  0  0  0  0  0
   56.5040   29.8950   44.1960 S   0  0  0  0  0  0  0  0  0  0  0  0
   56.7100   29.9710   42.7100 O   0  0  0  0  0  0  0  0  0  0  0  0
   55.1440   29.3100   44.4670 O   0  0  0  0  0  0  0  0  0  0  0  0
   57.7770   28.8900   44.8840 C   0  0  0  0  0  0  0  0  0  0  0  0
   57.4440   27.8820   45.7980 C   0  0  0  0  0  0  0  0  0  0  0  0
   58.4390   27.0600   46.3330 C   0  0  0  0  0  0  0  0  0  0  0  0
   59.7800   27.2380   45.9570 C   0  0  0  0  0  0  0  0  0  0  0  0
   60.7990   26.3910   46.4960 N   0  0  0  0  0  0  0  0  0  0  0  0
   60.1140   28.2480   45.0440 C   0  0  0  0  0  0  0  0  0  0  0  0
   59.1180   29.0730   44.5130 C   0  0  0  0  0  0  0  0  0  0  0  0
   58.5090   31.6390   46.4760 C   0  0  0  0  0  0  0  0  0  0  0  0
   58.1370   30.5740   47.0380 O   0  0  0  0  0  0  0  0  0  0  0  0
   59.9433   34.8220   50.6034 H   0  0  0  0  0  0  0  0  0  0  0  0
   60.6670   34.1308   49.1117 H   0  0  0  0  0  0  0  0  0  0  0  0
   58.9540   34.6711   49.1117 H   0  0  0  0  0  0  0  0  0  0  0  0
   57.6289   31.3100   52.7155 H   0  0  0  0  0  0  0  0  0  0  0  0
   58.0611   29.3046   51.3035 H   0  0  0  0  0  0  0  0  0  0  0  0
   59.3203   29.5299   49.1699 H   0  0  0  0  0  0  0  0  0  0  0  0
   61.2999   32.3584   48.2269 H   0  0  0  0  0  0  0  0  0  0  0  0
   60.6717   30.7028   47.7922 H   0  0  0  0  0  0  0  0  0  0  0  0
   61.3690   34.2412   47.7962 H   0  0  0  0  0  0  0  0  0  0  0  0
   62.1805   33.6775   46.2961 H   0  0  0  0  0  0  0  0  0  0  0  0
   61.2667   35.2240   46.2961 H   0  0  0  0  0  0  0  0  0  0  0  0
   59.5970   34.9412   44.7781 H   0  0  0  0  0  0  0  0  0  0  0  0
   57.5399   33.7888   44.0072 H   0  0  0  0  0  0  0  0  0  0  0  0
   56.3950   27.7371   46.0957 H   0  0  0  0  0  0  0  0  0  0  0  0
   58.1710   26.2709   47.0510 H   0  0  0  0  0  0  0  0  0  0  0  0
   61.2210   25.6240   45.9230 H   0  0  0  0  0  0  0  0  0  0  0  0
   61.1350   26.5240   47.4770 H   0  0  0  0  0  0  0  0  0  0  0  0
   61.1626   28.3918   44.7446 H   0  0  0  0  0  0  0  0  0  0  0  0
   59.3864   29.8683   43.8020 H   0  0  0  0  0  0  0  0  0  0  0  0
  1  2  1  0
  2  3  2  0
  3  4  1  0
  3  5  1  0
  5  6  2  0
  6  7  1  0
  7  8  2  0
  8  9  1  0
  9 10  1  0
 10 11  1  0
 11 12  1  0
 11 13  2  0
 13 14  1  0
 14 15  2  0
 15 16  1  0
 16 17  1  0
 17 18  2  0
 17 19  2  0
 17 20  1  0
 20 21  2  0
 21 22  1  0
 22 23  2  0
 23 24  1  0
 23 25  1  0
 25 26  2  0
 15 27  1  0
 27 28  2  0
  8  2  1  0
 27 10  1  0
 26 20  1  0
  1 29  1  0
  1 30  1  0
  1 31  1  0
  5 32  1  0
  6 33  1  0
  7 34  1  0
  9 35  1  0
  9 36  1  0
 12 37  1  0
 12 38  1  0
 12 39  1  0
 13 40  1  0
 14 41  1  0
 21 42  1  0
 22 43  1  0
 24 44  1  0
 24 45  1  0
 25 46  1  0
 26 47  1  0
M  CHG  1  16  -1
M  END
>  <UniqueID>  (93) 
83

>  <SMILES>  (93) 
Cc1c(F)cccc1Cn1c(C)ccc([N-]S(=O)(=O)c2ccc(N)cc2)c1=O

>  <Energy>  (93) 
63.623070050131474

>  <Genealogy>  (93) 
Cc1c(F)cccc1Cn1c(C)ccc([N-]S(=O)(=O)c2ccc(N)cc2)c1=O (protonated)
Cc1c(F)cccc1Cn1c(C)ccc([N-]S(=O)(=O)c2ccc(N)cc2)c1=O (3D coordinates assigned)
Cc1c(F)cccc1Cn1c(C)ccc([N-]S(=O)(=O)c2ccc(N)cc2)c1=O (optimized conformer: 63.623070050131474 kcal/mol)

>  <smiles>  (93) 
Cc1c(F)cccc1Cn1c(C)ccc(NS(=O)(=O)c2ccc(N)cc2)c1=O

>  <score_type>  (93) 
oracle

>  <origin>  (93) 
adg

>  <m_score__min__energy>  (93) 
-10.4

>  <m_primary>  (93) 
energy

$$$$
93:0
     RDKit          3D

 34 36  0  0  0  0  0  0  0  0999 V2000
   56.3020   29.8770   42.7060 O   0  0  0  0  0  0  0  0  0  0  0  0
   56.4180   29.9970   44.1990 S   0  0  0  0  0  0  0  0  0  0  0  0
   55.2340   29.3620   44.8700 O   0  0  0  0  0  0  0  0  0  0  0  0
   56.5080   31.6610   44.6390 N   0  0  0  0  0  0  0  0  0  0  0  0
   57.5260   32.1850   45.2520 C   0  0  0  0  0  0  0  0  0  0  0  0
   57.4740   33.6410   45.6130 C   0  0  0  0  0  0  0  0  0  0  0  0
   58.8250   34.3080   45.3400 C   0  0  0  0  0  0  0  0  0  0  0  0
   59.7470   34.1350   46.5170 C   0  0  0  0  0  0  0  0  0  0  0  0
   59.2760   34.3490   47.8240 C   0  0  0  0  0  0  0  0  0  0  0  0
   60.1420   34.2200   48.9130 C   0  0  0  0  0  0  0  0  0  0  0  0
   61.4840   33.8870   48.7070 C   0  0  0  0  0  0  0  0  0  0  0  0
   61.9640   33.6870   47.4090 C   0  0  0  0  0  0  0  0  0  0  0  0
   63.6510   33.2800   47.1520 Cl  0  0  0  0  0  0  0  0  0  0  0  0
   61.1000   33.8140   46.3160 C   0  0  0  0  0  0  0  0  0  0  0  0
   58.6700   31.4030   45.6540 N   0  0  0  0  0  0  0  0  0  0  0  0
   58.8560   29.9960   45.4070 C   0  0  0  0  0  0  0  0  0  0  0  0
   60.0350   29.3680   45.8440 C   0  0  0  0  0  0  0  0  0  0  0  0
   60.2390   28.0040   45.6180 C   0  0  0  0  0  0  0  0  0  0  0  0
   59.2680   27.2530   44.9540 C   0  0  0  0  0  0  0  0  0  0  0  0
   58.0910   27.8640   44.5150 C   0  0  0  0  0  0  0  0  0  0  0  0
   57.8850   29.2310   44.7410 C   0  0  0  0  0  0  0  0  0  0  0  0
   56.6974   34.1359   45.0114 H   0  0  0  0  0  0  0  0  0  0  0  0
   57.2401   33.7347   46.6837 H   0  0  0  0  0  0  0  0  0  0  0  0
   59.2824   33.8483   44.4515 H   0  0  0  0  0  0  0  0  0  0  0  0
   58.6628   35.3827   45.1707 H   0  0  0  0  0  0  0  0  0  0  0  0
   58.2226   34.6188   47.9900 H   0  0  0  0  0  0  0  0  0  0  0  0
   59.7670   34.3808   49.9345 H   0  0  0  0  0  0  0  0  0  0  0  0
   62.1626   33.7823   49.5664 H   0  0  0  0  0  0  0  0  0  0  0  0
   61.4814   33.6620   45.2955 H   0  0  0  0  0  0  0  0  0  0  0  0
   59.4290   31.9070   46.1670 H   0  0  0  0  0  0  0  0  0  0  0  0
   60.8035   29.9549   46.3682 H   0  0  0  0  0  0  0  0  0  0  0  0
   61.1654   27.5221   45.9637 H   0  0  0  0  0  0  0  0  0  0  0  0
   59.4296   26.1795   44.7763 H   0  0  0  0  0  0  0  0  0  0  0  0
   57.3259   27.2716   43.9918 H   0  0  0  0  0  0  0  0  0  0  0  0
  1  2  2  0
  2  3  2  0
  2  4  1  0
  4  5  2  0
  5  6  1  0
  6  7  1  0
  7  8  1  0
  8  9  2  0
  9 10  1  0
 10 11  2  0
 11 12  1  0
 12 13  1  0
 12 14  2  0
  5 15  1  0
 15 16  1  0
 16 17  2  0
 17 18  1  0
 18 19  2  0
 19 20  1  0
 20 21  2  0
 21  2  1  0
 14  8  1  0
 21 16  1  0
  6 22  1  0
  6 23  1  0
  7 24  1  0
  7 25  1  0
  9 26  1  0
 10 27  1  0
 11 28  1  0
 14 29  1  0
 15 30  1  0
 17 31  1  0
 18 32  1  0
 19 33  1  0
 20 34  1  0
M  END
>  <UniqueID>  (94) 
84

>  <SMILES>  (94) 
O=S1(=O)N=C(CCc2cccc(Cl)c2)Nc2ccccc21

>  <Energy>  (94) 
37.32130448245739

>  <Genealogy>  (94) 
O=S1(=O)N=C(CCc2cccc(Cl)c2)Nc2ccccc21 (3D coordinates assigned)
O=S1(=O)N=C(CCc2cccc(Cl)c2)Nc2ccccc21 (nonaromatic ring conformer: 37.32130448245739 kcal/mol)

>  <smiles>  (94) 
O=S1(=O)N=C(CCc2cccc(Cl)c2)Nc2ccccc21

>  <score_type>  (94) 
oracle

>  <origin>  (94) 
adg

>  <m_score__min__energy>  (94) 
-9.4000000000000004

>  <m_primary>  (94) 
energy

$$$$
94:0
     RDKit          3D

 59 63  0  0  0  0  0  0  0  0999 V2000
   57.2690   29.3360   52.0080 O   0  0  0  0  0  0  0  0  0  0  0  0
   57.2040   30.5430   51.6430 C   0  0  0  0  0  0  0  0  0  0  0  0
   58.4120   31.2020   51.2430 N   0  0  0  0  0  0  0  0  0  0  0  0
   59.3150   30.7590   50.2190 C   0  0  0  0  0  0  0  0  0  0  0  0
   59.8300   29.4490   50.2020 C   0  0  0  0  0  0  0  0  0  0  0  0
   60.6770   29.0380   49.1700 C   0  0  0  0  0  0  0  0  0  0  0  0
   61.0400   29.9390   48.1660 C   0  0  0  0  0  0  0  0  0  0  0  0
   60.5790   31.2670   48.2070 C   0  0  0  0  0  0  0  0  0  0  0  0
   60.9600   32.2000   47.2310 O   0  0  0  0  0  0  0  0  0  0  0  0
   60.0400   32.9080   46.4460 C   0  0  0  0  0  0  0  0  0  0  0  0
   60.1510   34.2990   46.3000 C   0  0  0  0  0  0  0  0  0  0  0  0
   59.2170   34.9970   45.5050 C   0  0  0  0  0  0  0  0  0  0  0  0
   58.1950   34.3310   44.8890 N   0  0  0  0  0  0  0  0  0  0  0  0
   58.0720   32.9860   45.0360 C   0  0  0  0  0  0  0  0  0  0  0  0
   57.0440   32.2050   44.4890 C   0  0  0  0  0  0  0  0  0  0  0  0
   57.1360   30.8540   44.8500 C   0  0  0  0  0  0  0  0  0  0  0  0
   56.1250   29.8240   44.5020 C   0  0  0  0  0  0  0  0  0  0  0  0
   55.3830   30.0320   43.5060 O   0  0  0  0  0  0  0  0  0  0  0  0
   55.9200   28.6130   45.2460 N   0  0  0  0  0  0  0  0  0  0  0  0
   56.8700   27.5320   45.5130 C   0  0  0  0  0  0  0  0  0  0  0  0
   58.0180   27.5900   44.5160 C   0  0  0  0  0  0  0  0  0  0  0  0
   59.2010   26.9880   45.2470 C   0  0  0  0  0  0  0  0  0  0  0  0
   59.0090   27.3720   46.7080 C   0  0  0  0  0  0  0  0  0  0  0  0
   57.5220   27.6730   46.8920 C   0  0  0  0  0  0  0  0  0  0  0  0
   58.4890   30.6660   45.8550 S   0  0  0  0  0  0  0  0  0  0  0  0
   58.9730   32.2740   45.8030 C   0  0  0  0  0  0  0  0  0  0  0  0
   59.7340   31.6720   49.2450 C   0  0  0  0  0  0  0  0  0  0  0  0
   55.9470   31.2440   51.6730 N   0  0  0  0  0  0  0  0  0  0  0  0
   54.7080   30.6230   52.0450 C   0  0  0  0  0  0  0  0  0  0  0  0
   54.6040   29.8620   53.2190 C   0  0  0  0  0  0  0  0  0  0  0  0
   53.3810   29.2950   53.5870 C   0  0  0  0  0  0  0  0  0  0  0  0
   52.2420   29.4710   52.7820 C   0  0  0  0  0  0  0  0  0  0  0  0
   50.9120   28.8900   53.1990 C   0  0  0  0  0  0  0  0  0  0  0  0
   49.9490   29.8860   53.2660 F   0  0  0  0  0  0  0  0  0  0  0  0
   50.5210   27.9390   52.2720 F   0  0  0  0  0  0  0  0  0  0  0  0
   51.0010   28.2930   54.4480 F   0  0  0  0  0  0  0  0  0  0  0  0
   52.3400   30.2800   51.6360 C   0  0  0  0  0  0  0  0  0  0  0  0
   53.5630   30.8490   51.2720 C   0  0  0  0  0  0  0  0  0  0  0  0
   59.5643   28.7458   51.0050 H   0  0  0  0  0  0  0  0  0  0  0  0
   61.0577   28.0062   49.1479 H   0  0  0  0  0  0  0  0  0  0  0  0
   61.6883   29.6088   47.3410 H   0  0  0  0  0  0  0  0  0  0  0  0
   60.9633   34.8437   46.8035 H   0  0  0  0  0  0  0  0  0  0  0  0
   59.3124   36.0857   45.3802 H   0  0  0  0  0  0  0  0  0  0  0  0
   56.2495   32.6098   43.8448 H   0  0  0  0  0  0  0  0  0  0  0  0
   56.2974   26.5952   45.4455 H   0  0  0  0  0  0  0  0  0  0  0  0
   57.7795   27.0031   43.6167 H   0  0  0  0  0  0  0  0  0  0  0  0
   58.2200   28.6167   44.1768 H   0  0  0  0  0  0  0  0  0  0  0  0
   59.2075   25.8938   45.1339 H   0  0  0  0  0  0  0  0  0  0  0  0
   60.1586   27.3550   44.8492 H   0  0  0  0  0  0  0  0  0  0  0  0
   59.3109   26.5401   47.3613 H   0  0  0  0  0  0  0  0  0  0  0  0
   59.6246   28.2447   46.9716 H   0  0  0  0  0  0  0  0  0  0  0  0
   57.0749   26.9573   47.5976 H   0  0  0  0  0  0  0  0  0  0  0  0
   57.3705   28.6834   47.2997 H   0  0  0  0  0  0  0  0  0  0  0  0
   59.3958   32.7175   49.2962 H   0  0  0  0  0  0  0  0  0  0  0  0
   55.9000   32.2260   51.3130 H   0  0  0  0  0  0  0  0  0  0  0  0
   55.4900   29.7108   53.8532 H   0  0  0  0  0  0  0  0  0  0  0  0
   53.3089   28.7065   54.5136 H   0  0  0  0  0  0  0  0  0  0  0  0
   51.4469   30.4663   51.0214 H   0  0  0  0  0  0  0  0  0  0  0  0
   53.6266   31.4786   50.3722 H   0  0  0  0  0  0  0  0  0  0  0  0
  1  2  2  0
  2  3  1  0
  3  4  1  0
  4  5  2  0
  5  6  1  0
  6  7  2  0
  7  8  1  0
  8  9  1  0
  9 10  1  0
 10 11  2  0
 11 12  1  0
 12 13  2  0
 13 14  1  0
 14 15  1  0
 15 16  2  0
 16 17  1  0
 17 18  2  0
 17 19  1  0
 19 20  1  0
 20 21  1  0
 21 22  1  0
 22 23  1  0
 23 24  1  0
 16 25  1  0
 25 26  1  0
  8 27  2  0
  2 28  1  0
 28 29  1  0
 29 30  2  0
 30 31  1  0
 31 32  2  0
 32 33  1  0
 33 34  1  0
 33 35  1  0
 33 36  1  0
 32 37  1  0
 37 38  2  0
 27  4  1  0
 38 29  1  0
 26 10  1  0
 26 14  2  0
 24 20  1  0
  5 39  1  0
  6 40  1  0
  7 41  1  0
 11 42  1  0
 12 43  1  0
 15 44  1  0
 20 45  1  0
 21 46  1  0
 21 47  1  0
 22 48  1  0
 22 49  1  0
 23 50  1  0
 23 51  1  0
 24 52  1  0
 24 53  1  0
 27 54  1  0
 28 55  1  0
 30 56  1  0
 31 57  1  0
 37 58  1  0
 38 59  1  0
M  CHG  2   3  -1  19  -1
M  END
>  <UniqueID>  (95) 
85

>  <SMILES>  (95) 
O=C([N-]c1cccc(Oc2ccnc3cc(C(=O)[N-]C4CCCC4)sc23)c1)Nc1ccc(C(F)(F)F)cc1

>  <Energy>  (95) 
112.30923634829779

>  <Genealogy>  (95) 
O=C([N-]c1cccc(Oc2ccnc3cc(C(=O)[N-]C4CCCC4)sc23)c1)Nc1ccc(C(F)(F)F)cc1 (protonated)
O=C([N-]c1cccc(Oc2ccnc3cc(C(=O)[N-]C4CCCC4)sc23)c1)Nc1ccc(C(F)(F)F)cc1 (3D coordinates assigned)
O=C([N-]c1cccc(Oc2ccnc3cc(C(=O)[N-]C4CCCC4)sc23)c1)Nc1ccc(C(F)(F)F)cc1 (nonaromatic ring conformer: 112.30923634829779 kcal/mol)

>  <smiles>  (95) 
O=C(Nc1ccc(C(F)(F)F)cc1)Nc1cccc(Oc2ccnc3cc(C(=O)NC4CCCC4)sc23)c1

>  <score_type>  (95) 
oracle

>  <origin>  (95) 
adg

>  <m_score__min__energy>  (95) 
-12.35

>  <m_primary>  (95) 
energy

$$$$
95:0
     RDKit          3D

 48 51  0  0  0  0  0  0  0  0999 V2000
   59.9830   27.6310   48.6930 C   0  0  0  0  0  0  0  0  0  0  0  0
   60.2880   29.0910   48.7490 C   0  0  0  0  0  0  0  0  0  0  0  0
   59.8990   29.9590   49.7440 C   0  0  0  0  0  0  0  0  0  0  0  0
   60.4100   31.1690   49.4510 N   0  0  0  0  0  0  0  0  0  0  0  0
   60.3460   32.3980   50.2470 C   0  0  0  0  0  0  0  0  0  0  0  0
   59.3850   33.4430   49.6560 C   0  0  0  0  0  0  0  0  0  0  0  0
   60.0930   34.5650   49.0200 N   0  0  0  0  0  0  0  0  0  0  0  0
   60.7360   34.1960   47.7460 C   0  0  0  0  0  0  0  0  0  0  0  0
   59.7000   33.9440   46.6870 C   0  0  0  0  0  0  0  0  0  0  0  0
   59.1240   32.6750   46.5350 C   0  0  0  0  0  0  0  0  0  0  0  0
   58.1860   32.4550   45.5160 C   0  0  0  0  0  0  0  0  0  0  0  0
   57.6620   31.0980   45.2780 C   0  0  0  0  0  0  0  0  0  0  0  0
   56.5730   30.8290   44.5260 N   0  0  0  0  0  0  0  0  0  0  0  0
   56.4890   29.4850   44.5590 C   0  0  0  0  0  0  0  0  0  0  0  0
   57.5280   28.9890   45.3230 C   0  0  0  0  0  0  0  0  0  0  0  0
   57.8470   27.5720   45.6230 C   0  0  0  0  0  0  0  0  0  0  0  0
   59.1800   27.1160   45.6250 C   0  0  0  0  0  0  0  0  0  0  0  0
   59.4730   25.7820   45.9230 C   0  0  0  0  0  0  0  0  0  0  0  0
   58.4440   24.8880   46.2220 C   0  0  0  0  0  0  0  0  0  0  0  0
   57.1180   25.3250   46.2240 C   0  0  0  0  0  0  0  0  0  0  0  0
   56.8150   26.6580   45.9270 C   0  0  0  0  0  0  0  0  0  0  0  0
   55.5160   27.0480   45.9350 F   0  0  0  0  0  0  0  0  0  0  0  0
   58.2260   30.0100   45.7520 O   0  0  0  0  0  0  0  0  0  0  0  0
   57.8030   33.5300   44.7000 C   0  0  0  0  0  0  0  0  0  0  0  0
   58.3740   34.7880   44.9050 C   0  0  0  0  0  0  0  0  0  0  0  0
   59.3030   34.9650   45.8800 N   0  0  0  0  0  0  0  0  0  0  0  0
   61.1340   30.9940   48.3270 C   0  0  0  0  0  0  0  0  0  0  0  0
   61.0800   29.7270   47.8630 N   0  0  0  0  0  0  0  0  0  0  0  0
   59.9001   27.2342   49.7156 H   0  0  0  0  0  0  0  0  0  0  0  0
   59.0329   27.4750   48.1611 H   0  0  0  0  0  0  0  0  0  0  0  0
   60.7912   27.1077   48.1611 H   0  0  0  0  0  0  0  0  0  0  0  0
   59.2823   29.7089   50.6198 H   0  0  0  0  0  0  0  0  0  0  0  0
   60.0060   32.1421   51.2614 H   0  0  0  0  0  0  0  0  0  0  0  0
   61.3529   32.8408   50.2530 H   0  0  0  0  0  0  0  0  0  0  0  0
   58.7516   32.9529   48.9019 H   0  0  0  0  0  0  0  0  0  0  0  0
   58.7867   33.8519   50.4835 H   0  0  0  0  0  0  0  0  0  0  0  0
   60.8490   34.8630   49.6810 H   0  0  0  0  0  0  0  0  0  0  0  0
   61.3933   35.0161   47.4214 H   0  0  0  0  0  0  0  0  0  0  0  0
   61.3218   33.2772   47.8963 H   0  0  0  0  0  0  0  0  0  0  0  0
   59.4066   31.8554   47.2121 H   0  0  0  0  0  0  0  0  0  0  0  0
   55.7182   28.8803   44.0588 H   0  0  0  0  0  0  0  0  0  0  0  0
   59.9964   27.8149   45.3903 H   0  0  0  0  0  0  0  0  0  0  0  0
   60.5172   25.4361   45.9218 H   0  0  0  0  0  0  0  0  0  0  0  0
   58.6777   23.8389   46.4561 H   0  0  0  0  0  0  0  0  0  0  0  0
   56.3086   24.6185   46.4600 H   0  0  0  0  0  0  0  0  0  0  0  0
   57.0580   33.3831   43.9041 H   0  0  0  0  0  0  0  0  0  0  0  0
   58.0707   35.6375   44.2754 H   0  0  0  0  0  0  0  0  0  0  0  0
   61.7070   31.7970   47.8403 H   0  0  0  0  0  0  0  0  0  0  0  0
  1  2  1  0
  2  3  2  0
  3  4  1  0
  4  5  1  0
  5  6  1  0
  6  7  1  0
  7  8  1  0
  8  9  1  0
  9 10  2  0
 10 11  1  0
 11 12  1  0
 12 13  2  0
 13 14  1  0
 14 15  2  0
 15 16  1  0
 16 17  2  0
 17 18  1  0
 18 19  2  0
 19 20  1  0
 20 21  2  0
 21 22  1  0
 15 23  1  0
 11 24  2  0
 24 25  1  0
 25 26  2  0
  4 27  1  0
 27 28  2  0
 28  2  1  0
 26  9  1  0
 23 12  1  0
 21 16  1  0
  1 29  1  0
  1 30  1  0
  1 31  1  0
  3 32  1  0
  5 33  1  0
  5 34  1  0
  6 35  1  0
  6 36  1  0
  7 37  1  0
  8 38  1  0
  8 39  1  0
 10 40  1  0
 14 41  1  0
 17 42  1  0
 18 43  1  0
 19 44  1  0
 20 45  1  0
 24 46  1  0
 25 47  1  0
 27 48  1  0
M  END
>  <UniqueID>  (96) 
86

>  <SMILES>  (96) 
Cc1cn(CCNCc2cc(-c3ncc(-c4ccccc4F)o3)ccn2)cn1

>  <Energy>  (96) 
105.89339089396275

>  <Genealogy>  (96) 
Cc1cn(CCNCc2cc(-c3ncc(-c4ccccc4F)o3)ccn2)cn1 (3D coordinates assigned)
Cc1cn(CCNCc2cc(-c3ncc(-c4ccccc4F)o3)ccn2)cn1 (optimized conformer: 105.89339089396275 kcal/mol)

>  <smiles>  (96) 
Cc1cn(CCNCc2cc(-c3ncc(-c4ccccc4F)o3)ccn2)cn1

>  <score_type>  (96) 
oracle

>  <origin>  (96) 
adg

>  <m_score__min__energy>  (96) 
-7.9800000000000004

>  <m_primary>  (96) 
energy

$$$$
