0:0
     RDKit          3D

 37 39  0  0  0  0  0  0  0  0999 V2000
   67.1250   31.1030   51.3850 C   0  0  0  0  0  0  0  0  0  0  0  0
   66.2950   32.1180   51.1580 C   0  0  0  0  0  0  0  0  0  0  0  0
   65.1150   32.0180   50.2780 C   0  0  0  0  0  0  0  0  0  0  0  0
   64.2120   31.1920   50.5780 O   0  0  0  0  0  0  0  0  0  0  0  0
   65.0070   32.7940   49.0720 N   0  0  0  0  0  0  0  0  0  0  0  0
   63.7640   33.0450   48.3910 C   0  0  0  0  0  0  0  0  0  0  0  0
   62.5300   32.9670   49.0630 C   0  0  0  0  0  0  0  0  0  0  0  0
   61.3380   33.2350   48.3830 C   0  0  0  0  0  0  0  0  0  0  0  0
   61.3580   33.6100   47.0370 C   0  0  0  0  0  0  0  0  0  0  0  0
   60.1390   33.8560   46.3870 O   0  0  0  0  0  0  0  0  0  0  0  0
   59.2240   32.8750   45.9760 C   0  0  0  0  0  0  0  0  0  0  0  0
   58.2220   33.2310   45.0710 C   0  0  0  0  0  0  0  0  0  0  0  0
   57.3000   32.2820   44.6270 C   0  0  0  0  0  0  0  0  0  0  0  0
   57.3750   30.9520   45.0750 C   0  0  0  0  0  0  0  0  0  0  0  0
   58.3980   30.5770   45.9740 C   0  0  0  0  0  0  0  0  0  0  0  0
   59.3170   31.5430   46.4110 C   0  0  0  0  0  0  0  0  0  0  0  0
   58.5590   29.1580   46.4770 C   0  0  0  0  0  0  0  0  0  0  0  0
   57.5200   28.1930   45.9750 C   0  0  0  0  0  0  0  0  0  0  0  0
   57.5570   26.9930   46.3560 O   0  0  0  0  0  0  0  0  0  0  0  0
   56.4940   28.6040   45.0730 N   0  0  0  0  0  0  0  0  0  0  0  0
   56.4010   29.9470   44.6100 C   0  0  0  0  0  0  0  0  0  0  0  0
   55.4800   30.2620   43.8100 O   0  0  0  0  0  0  0  0  0  0  0  0
   62.5890   33.6910   46.3620 C   0  0  0  0  0  0  0  0  0  0  0  0
   63.7820   33.4230   47.0410 C   0  0  0  0  0  0  0  0  0  0  0  0
   67.9893   31.2379   52.0519 H   0  0  0  0  0  0  0  0  0  0  0  0
   66.9468   30.1290   50.9058 H   0  0  0  0  0  0  0  0  0  0  0  0
   66.4989   33.0799   51.6512 H   0  0  0  0  0  0  0  0  0  0  0  0
   65.8880   33.0940   48.5970 H   0  0  0  0  0  0  0  0  0  0  0  0
   62.5031   32.6939   50.1282 H   0  0  0  0  0  0  0  0  0  0  0  0
   60.3771   33.1500   48.9116 H   0  0  0  0  0  0  0  0  0  0  0  0
   58.1589   34.2666   44.7055 H   0  0  0  0  0  0  0  0  0  0  0  0
   56.5092   32.5770   43.9216 H   0  0  0  0  0  0  0  0  0  0  0  0
   60.1210   31.2531   47.1035 H   0  0  0  0  0  0  0  0  0  0  0  0
   59.5474   28.7924   46.1616 H   0  0  0  0  0  0  0  0  0  0  0  0
   58.4426   29.2001   47.5700 H   0  0  0  0  0  0  0  0  0  0  0  0
   62.6137   33.9659   45.2972 H   0  0  0  0  0  0  0  0  0  0  0  0
   64.7423   33.5095   46.5115 H   0  0  0  0  0  0  0  0  0  0  0  0
  1  2  2  0
  2  3  1  0
  3  4  2  0
  3  5  1  0
  5  6  1  0
  6  7  2  0
  7  8  1  0
  8  9  2  0
  9 10  1  0
 10 11  1  0
 11 12  2  0
 12 13  1  0
 13 14  2  0
 14 15  1  0
 15 16  2  0
 15 17  1  0
 17 18  1  0
 18 19  2  0
 18 20  1  0
 20 21  1  0
 21 22  2  0
  9 23  1  0
 23 24  2  0
 24  6  1  0
 16 11  1  0
 21 14  1  0
  1 25  1  0
  1 26  1  0
  2 27  1  0
  5 28  1  0
  7 29  1  0
  8 30  1  0
 12 31  1  0
 13 32  1  0
 16 33  1  0
 17 34  1  0
 17 35  1  0
 23 36  1  0
 24 37  1  0
M  CHG  1  20  -1
M  END
>  <UniqueID>  (1) 
1

>  <SMILES>  (1) 
C=CC(=O)Nc1ccc(Oc2ccc3c(c2)CC(=O)[N-]C3=O)cc1

>  <Energy>  (1) 
49.95344208869444

>  <Genealogy>  (1) 
C=CC(=O)Nc1ccc(Oc2ccc3c(c2)CC(=O)[N-]C3=O)cc1 (protonated)
C=CC(=O)Nc1ccc(Oc2ccc3c(c2)CC(=O)[N-]C3=O)cc1 (3D coordinates assigned)
C=CC(=O)Nc1ccc(Oc2ccc3c(c2)CC(=O)[N-]C3=O)cc1 (nonaromatic ring conformer: 49.95344208869444 kcal/mol)

>  <smiles>  (1) 
C=CC(=O)Nc1ccc(Oc2ccc3c(c2)CC(=O)NC3=O)cc1

>  <score_type>  (1) 
oracle

>  <origin>  (1) 
adg

>  <m_score__min__energy>  (1) 
-9.3000000000000007

>  <m_primary>  (1) 
energy

$$$$
1:0
     RDKit          3D

 60 63  0  0  0  0  0  0  0  0999 V2000
   57.0960   22.1970   44.7960 C   0  0  0  0  0  0  0  0  0  0  0  0
   56.0240   23.2020   45.0950 C   0  0  0  0  0  0  0  0  0  0  0  0
   54.7360   22.8410   44.8530 N   0  0  0  0  0  0  0  0  0  0  0  0
   53.7020   23.6810   45.1010 C   0  0  0  0  0  0  0  0  0  0  0  0
   52.5220   23.3130   44.8650 O   0  0  0  0  0  0  0  0  0  0  0  0
   53.9380   24.9150   45.6080 N   0  0  0  0  0  0  0  0  0  0  0  0
   55.2010   25.3370   45.8670 C   0  0  0  0  0  0  0  0  0  0  0  0
   55.3740   26.4870   46.3510 O   0  0  0  0  0  0  0  0  0  0  0  0
   56.2990   24.4970   45.6030 C   0  0  0  0  0  0  0  0  0  0  0  0
   57.9430   25.0810   45.9670 S   0  0  0  0  0  0  0  0  0  0  0  0
   58.9350   24.0860   45.4360 O   0  0  0  0  0  0  0  0  0  0  0  0
   58.1850   25.2250   47.4430 O   0  0  0  0  0  0  0  0  0  0  0  0
   58.2100   26.6080   45.1820 N   0  0  0  0  0  0  0  0  0  0  0  0
   59.2690   27.3420   45.8680 C   0  0  0  0  0  0  0  0  0  0  0  0
   58.9820   28.8130   45.7860 C   0  0  0  0  0  0  0  0  0  0  0  0
   58.6620   29.4060   44.5540 C   0  0  0  0  0  0  0  0  0  0  0  0
   58.3610   30.7690   44.4850 C   0  0  0  0  0  0  0  0  0  0  0  0
   58.3650   31.5520   45.6480 C   0  0  0  0  0  0  0  0  0  0  0  0
   57.9660   33.2660   45.5830 S   0  0  0  0  0  0  0  0  0  0  0  0
   57.8660   33.6820   44.1410 O   0  0  0  0  0  0  0  0  0  0  0  0
   56.6420   33.5180   46.2530 O   0  0  0  0  0  0  0  0  0  0  0  0
   59.2180   34.1860   46.3820 N   0  0  0  0  0  0  0  0  0  0  0  0
   60.5640   33.6640   46.0450 C   0  0  0  0  0  0  0  0  0  0  0  0
   61.1590   32.8050   47.1700 C   0  0  0  0  0  0  0  0  0  0  0  0
   61.2920   33.5750   48.4320 N   0  0  0  0  0  0  0  0  0  0  0  0
   61.3940   32.6750   49.6010 C   0  0  0  0  0  0  0  0  0  0  0  0
   60.1260   32.7010   50.4160 C   0  0  0  0  0  0  0  0  0  0  0  0
   59.0480   31.8610   50.0880 C   0  0  0  0  0  0  0  0  0  0  0  0
   57.8850   31.8730   50.8650 C   0  0  0  0  0  0  0  0  0  0  0  0
   57.7930   32.7170   51.9750 C   0  0  0  0  0  0  0  0  0  0  0  0
   58.8630   33.5500   52.3110 C   0  0  0  0  0  0  0  0  0  0  0  0
   60.0270   33.5420   51.5370 C   0  0  0  0  0  0  0  0  0  0  0  0
   60.2220   34.5880   48.6190 C   0  0  0  0  0  0  0  0  0  0  0  0
   58.9500   34.2390   47.8340 C   0  0  0  0  0  0  0  0  0  0  0  0
   58.6640   30.9580   46.8800 C   0  0  0  0  0  0  0  0  0  0  0  0
   58.9670   29.5960   46.9520 C   0  0  0  0  0  0  0  0  0  0  0  0
   57.5090   21.8098   45.7392 H   0  0  0  0  0  0  0  0  0  0  0  0
   56.6684   21.3667   44.2148 H   0  0  0  0  0  0  0  0  0  0  0  0
   57.8970   22.6772   44.2148 H   0  0  0  0  0  0  0  0  0  0  0  0
   59.3073   27.0327   46.9229 H   0  0  0  0  0  0  0  0  0  0  0  0
   60.2367   27.1269   45.3913 H   0  0  0  0  0  0  0  0  0  0  0  0
   58.6482   28.7951   43.6393 H   0  0  0  0  0  0  0  0  0  0  0  0
   58.1202   31.2289   43.5152 H   0  0  0  0  0  0  0  0  0  0  0  0
   60.4870   33.0503   45.1354 H   0  0  0  0  0  0  0  0  0  0  0  0
   61.2296   34.5268   45.8949 H   0  0  0  0  0  0  0  0  0  0  0  0
   60.5008   31.9414   47.3462 H   0  0  0  0  0  0  0  0  0  0  0  0
   62.1619   32.4770   46.8593 H   0  0  0  0  0  0  0  0  0  0  0  0
   61.5747   31.6484   49.2497 H   0  0  0  0  0  0  0  0  0  0  0  0
   62.2249   33.0176   50.2352 H   0  0  0  0  0  0  0  0  0  0  0  0
   59.1191   31.1921   49.2176 H   0  0  0  0  0  0  0  0  0  0  0  0
   57.0418   31.2173   50.6020 H   0  0  0  0  0  0  0  0  0  0  0  0
   56.8774   32.7255   52.5846 H   0  0  0  0  0  0  0  0  0  0  0  0
   58.7894   34.2130   53.1857 H   0  0  0  0  0  0  0  0  0  0  0  0
   60.8688   34.1968   51.8067 H   0  0  0  0  0  0  0  0  0  0  0  0
   59.9731   34.6471   49.6888 H   0  0  0  0  0  0  0  0  0  0  0  0
   60.5983   35.5504   48.2419 H   0  0  0  0  0  0  0  0  0  0  0  0
   58.5803   33.2580   48.1670 H   0  0  0  0  0  0  0  0  0  0  0  0
   58.1985   35.0199   48.0220 H   0  0  0  0  0  0  0  0  0  0  0  0
   58.6604   31.5668   47.7961 H   0  0  0  0  0  0  0  0  0  0  0  0
   59.1945   29.1355   47.9247 H   0  0  0  0  0  0  0  0  0  0  0  0
  1  2  1  0
  2  3  1  0
  3  4  1  0
  4  5  2  0
  4  6  1  0
  6  7  1  0
  7  8  2  0
  7  9  1  0
  9 10  1  0
 10 11  2  0
 10 12  2  0
 10 13  1  0
 13 14  1  0
 14 15  1  0
 15 16  2  0
 16 17  1  0
 17 18  2  0
 18 19  1  0
 19 20  2  0
 19 21  2  0
 19 22  1  0
 22 23  1  0
 23 24  1  0
 24 25  1  0
 25 26  1  0
 26 27  1  0
 27 28  2  0
 28 29  1  0
 29 30  2  0
 30 31  1  0
 31 32  2  0
 25 33  1  0
 33 34  1  0
 18 35  1  0
 35 36  2  0
  9  2  2  0
 36 15  1  0
 34 22  1  0
 32 27  1  0
  1 37  1  0
  1 38  1  0
  1 39  1  0
 14 40  1  0
 14 41  1  0
 16 42  1  0
 17 43  1  0
 23 44  1  0
 23 45  1  0
 24 46  1  0
 24 47  1  0
 26 48  1  0
 26 49  1  0
 28 50  1  0
 29 51  1  0
 30 52  1  0
 31 53  1  0
 32 54  1  0
 33 55  1  0
 33 56  1  0
 34 57  1  0
 34 58  1  0
 35 59  1  0
 36 60  1  0
M  CHG  3   3  -1   6  -1  13  -1
M  END
>  <UniqueID>  (2) 
2

>  <SMILES>  (2) 
Cc1[n-]c(=O)[n-]c(=O)c1S(=O)(=O)[N-]Cc1ccc(S(=O)(=O)N2CCN(Cc3ccccc3)CC2)cc1

>  <Energy>  (2) 
76.33722980551597

>  <Genealogy>  (2) 
Cc1[n-]c(=O)[n-]c(=O)c1S(=O)(=O)[N-]Cc1ccc(S(=O)(=O)N2CCN(Cc3ccccc3)CC2)cc1 (protonated)
Cc1[n-]c(=O)[n-]c(=O)c1S(=O)(=O)[N-]Cc1ccc(S(=O)(=O)N2CCN(Cc3ccccc3)CC2)cc1 (3D coordinates assigned)
Cc1[n-]c(=O)[n-]c(=O)c1S(=O)(=O)[N-]Cc1ccc(S(=O)(=O)N2CCN(Cc3ccccc3)CC2)cc1 (nonaromatic ring conformer: 76.33722980551597 kcal/mol)

>  <smiles>  (2) 
Cc1[nH]c(=O)[nH]c(=O)c1S(=O)(=O)NCc1ccc(S(=O)(=O)N2CCN(Cc3ccccc3)CC2)cc1

>  <score_type>  (2) 
oracle

>  <origin>  (2) 
adg

>  <m_score__min__energy>  (2) 
-15.6

>  <m_primary>  (2) 
energy

$$$$
2:0
     RDKit          3D

 49 52  0  0  0  0  0  0  0  0999 V2000
   58.4400   28.7810   49.8210 H   0  0  0  0  0  0  0  0  0  0  0  0
   58.5860   28.5260   48.7610 C   0  0  0  0  0  0  0  0  0  0  0  0
   58.4592   27.4870   48.4227 H   0  0  0  0  0  0  0  0  0  0  0  0
   58.9190   29.4830   47.8800 C   0  0  0  0  0  0  0  0  0  0  0  0
   59.1400   29.3240   46.5020 C   0  0  0  0  0  0  0  0  0  0  0  0
   59.3020   28.2150   45.7550 C   0  0  0  0  0  0  0  0  0  0  0  0
   60.0788   28.2426   44.9766 H   0  0  0  0  0  0  0  0  0  0  0  0
   58.5300   26.9700   45.8900 C   0  0  0  0  0  0  0  0  0  0  0  0
   59.0670   25.7370   45.9630 N   0  0  0  0  0  0  0  0  0  0  0  0
   57.9880   24.9250   45.9380 C   0  0  0  0  0  0  0  0  0  0  0  0
   58.0820   23.6720   46.0040 O   0  0  0  0  0  0  0  0  0  0  0  0
   56.8020   25.5610   45.8270 N   0  0  0  0  0  0  0  0  0  0  0  0
   57.1660   26.8530   45.7840 C   0  0  0  0  0  0  0  0  0  0  0  0
   56.2690   27.9030   45.6430 O   0  0  0  0  0  0  0  0  0  0  0  0
   59.1830   30.6010   45.9670 C   0  0  0  0  0  0  0  0  0  0  0  0
   59.2887   30.8628   44.9039 H   0  0  0  0  0  0  0  0  0  0  0  0
   59.0680   31.4810   47.0220 C   0  0  0  0  0  0  0  0  0  0  0  0
   59.0790   32.9750   46.8840 C   0  0  0  0  0  0  0  0  0  0  0  0
   59.0824   33.4355   47.8830 H   0  0  0  0  0  0  0  0  0  0  0  0
   59.9795   33.2858   46.3339 H   0  0  0  0  0  0  0  0  0  0  0  0
   58.1832   33.2990   46.3339 H   0  0  0  0  0  0  0  0  0  0  0  0
   58.9090   30.8080   48.1830 N   0  0  0  0  0  0  0  0  0  0  0  0
   58.7140   31.4010   49.4790 C   0  0  0  0  0  0  0  0  0  0  0  0
   59.4680   32.5190   49.8610 C   0  0  0  0  0  0  0  0  0  0  0  0
   60.2151   32.9382   49.1710 H   0  0  0  0  0  0  0  0  0  0  0  0
   59.2740   33.1020   51.1140 C   0  0  0  0  0  0  0  0  0  0  0  0
   59.8704   33.9778   51.4095 H   0  0  0  0  0  0  0  0  0  0  0  0
   58.3250   32.5770   51.9940 C   0  0  0  0  0  0  0  0  0  0  0  0
   58.1753   33.0441   52.9786 H   0  0  0  0  0  0  0  0  0  0  0  0
   57.5590   31.4540   51.6290 C   0  0  0  0  0  0  0  0  0  0  0  0
   56.5490   30.8980   52.5610 C   0  0  0  0  0  0  0  0  0  0  0  0
   56.6760   31.0660   53.8050 O   0  0  0  0  0  0  0  0  0  0  0  0
   55.4270   30.1660   52.0530 N   0  0  0  0  0  0  0  0  0  0  0  0
   54.2960   29.7490   52.8710 C   0  0  0  0  0  0  0  0  0  0  0  0
   53.9449   28.7640   52.5297 H   0  0  0  0  0  0  0  0  0  0  0  0
   54.6161   29.6914   53.9218 H   0  0  0  0  0  0  0  0  0  0  0  0
   53.1730   30.7440   52.7550 C   0  0  0  0  0  0  0  0  0  0  0  0
   52.4440   31.1140   53.8950 C   0  0  0  0  0  0  0  0  0  0  0  0
   52.7072   30.6898   54.8752 H   0  0  0  0  0  0  0  0  0  0  0  0
   51.3840   32.0200   53.7900 C   0  0  0  0  0  0  0  0  0  0  0  0
   50.8171   32.3077   54.6877 H   0  0  0  0  0  0  0  0  0  0  0  0
   51.0430   32.5610   52.5470 C   0  0  0  0  0  0  0  0  0  0  0  0
   49.9880   33.4610   52.4490 O   0  0  0  0  0  0  0  0  0  0  0  0
   51.7630   32.1910   51.4030 C   0  0  0  0  0  0  0  0  0  0  0  0
   51.4260   32.7220   50.1640 O   0  0  0  0  0  0  0  0  0  0  0  0
   52.8230   31.2840   51.5070 C   0  0  0  0  0  0  0  0  0  0  0  0
   53.3847   30.9926   50.6072 H   0  0  0  0  0  0  0  0  0  0  0  0
   57.7640   30.8720   50.3650 C   0  0  0  0  0  0  0  0  0  0  0  0
   57.1732   29.9929   50.0683 H   0  0  0  0  0  0  0  0  0  0  0  0
  1  2  1  0
  2  3  1  0
  2  4  2  0
  4  5  1  0
  5  6  2  0
  6  7  1  0
  6  8  1  0
  8  9  1  0
  9 10  1  0
 10 11  2  0
 10 12  1  0
 12 13  1  0
 13 14  1  0
  5 15  1  0
 15 16  1  0
 15 17  2  0
 17 18  1  0
 18 19  1  0
 18 20  1  0
 18 21  1  0
 17 22  1  0
 22 23  1  0
 23 24  2  0
 24 25  1  0
 24 26  1  0
 26 27  1  0
 26 28  2  0
 28 29  1  0
 28 30  1  0
 30 31  1  0
 31 32  2  0
 31 33  1  0
 33 34  1  0
 34 35  1  0
 34 36  1  0
 34 37  1  0
 37 38  2  0
 38 39  1  0
 38 40  1  0
 40 41  1  0
 40 42  2  0
 42 43  1  0
 42 44  1  0
 44 45  1  0
 44 46  2  0
 46 47  1  0
 30 48  2  0
 48 49  1  0
 22  4  1  0
 48 23  1  0
 13  8  2  0
 46 37  1  0
M  CHG  6   9  -1  12  -1  14  -1  33  -1  43  -1  45  -1
M  END
>  <UniqueID>  (3) 
3

>  <SMILES>  (3) 
C=c1/c(=C\c2[n-]c(=O)[n-]c2[O-])cc(C)n1-c1cccc(C(=O)[N-]Cc2ccc([O-])c([O-])c2)c1

>  <Energy>  (3) 
126.66143609570926

>  <Genealogy>  (3) 
C=c1c(=Cc2[n-]c(=O)[n-]c2[O-])cc(C)n1-c1cccc(C(=O)[N-]Cc2ccc([O-])c([O-])c2)c1 (protonated)
C=c1/c(=C\c2[n-]c(=O)[n-]c2[O-])cc(C)n1-c1cccc(C(=O)[N-]Cc2ccc([O-])c([O-])c2)c1 (cis-trans isomerization)
C=c1/c(=C\c2[n-]c(=O)[n-]c2[O-])cc(C)n1-c1cccc(C(=O)[N-]Cc2ccc([O-])c([O-])c2)c1 (3D coordinates assigned)
C=c1/c(=C\c2[n-]c(=O)[n-]c2[O-])cc(C)n1-c1cccc(C(=O)[N-]Cc2ccc([O-])c([O-])c2)c1 (optimized conformer: 126.66143609570926 kcal/mol)

>  <smiles>  (3) 
C=c1c(=Cc2[nH]c(=O)[nH]c2O)cc(C)n1-c1cccc(C(=O)NCc2ccc(O)c(O)c2)c1

>  <score_type>  (3) 
oracle

>  <origin>  (3) 
adg

>  <m_score__min__energy>  (3) 
-23.199999999999999

>  <m_primary>  (3) 
energy

$$$$
3:0
     RDKit          3D

 38 39  0  0  0  0  0  0  0  0999 V2000
   57.8850   25.8950   43.4300 O   0  0  0  0  0  0  0  0  0  0  0  0
   57.5270   25.7970   44.6360 C   0  0  0  0  0  0  0  0  0  0  0  0
   57.0780   24.4780   45.1780 C   0  0  0  0  0  0  0  0  0  0  0  0
   55.5820   24.4210   45.2100 C   0  0  0  0  0  0  0  0  0  0  0  0
   54.8720   23.3140   44.9340 N   0  0  0  0  0  0  0  0  0  0  0  0
   53.5960   23.6960   45.1550 C   0  0  0  0  0  0  0  0  0  0  0  0
   52.6180   22.9210   44.9940 O   0  0  0  0  0  0  0  0  0  0  0  0
   53.4510   24.9730   45.5670 N   0  0  0  0  0  0  0  0  0  0  0  0
   54.7160   25.4200   45.6060 C   0  0  0  0  0  0  0  0  0  0  0  0
   55.0580   26.7100   46.0020 O   0  0  0  0  0  0  0  0  0  0  0  0
   57.5930   26.9290   45.5050 N   0  0  0  0  0  0  0  0  0  0  0  0
   58.6020   27.0800   46.5450 C   0  0  0  0  0  0  0  0  0  0  0  0
   58.5670   28.4740   47.0830 C   0  0  0  0  0  0  0  0  0  0  0  0
   59.0230   28.7110   48.2330 O   0  0  0  0  0  0  0  0  0  0  0  0
   57.9600   29.5170   46.3130 N   0  0  0  0  0  0  0  0  0  0  0  0
   58.4840   30.0130   45.0420 C   0  0  2  0  0  0  0  0  0  0  0  0
   57.8240   31.3560   44.6820 C   0  0  0  0  0  0  0  0  0  0  0  0
   56.2990   31.2240   44.4900 C   0  0  0  0  0  0  0  0  0  0  0  0
   55.8600   29.8730   43.8780 C   0  0  2  0  0  0  0  0  0  0  0  0
   55.4340   29.0060   44.8990 O   0  0  0  0  0  0  0  0  0  0  0  0
   56.9970   29.2200   43.0720 C   0  0  0  0  0  0  0  0  0  0  0  0
   58.2480   28.9570   43.9330 C   0  0  0  0  0  0  0  0  0  0  0  0
   57.4598   23.6709   44.5355 H   0  0  0  0  0  0  0  0  0  0  0  0
   57.4663   24.3560   46.1999 H   0  0  0  0  0  0  0  0  0  0  0  0
   55.1590   27.4640   45.3340 H   0  0  0  0  0  0  0  0  0  0  0  0
   58.3974   26.3688   47.3589 H   0  0  0  0  0  0  0  0  0  0  0  0
   59.5963   26.8788   46.1196 H   0  0  0  0  0  0  0  0  0  0  0  0
   59.5667   30.1839   45.1342 H   0  0  0  0  0  0  0  0  0  0  0  0
   58.0180   32.0743   45.4922 H   0  0  0  0  0  0  0  0  0  0  0  0
   58.2553   31.6994   43.7301 H   0  0  0  0  0  0  0  0  0  0  0  0
   55.8154   31.3331   45.4719 H   0  0  0  0  0  0  0  0  0  0  0  0
   55.9968   32.0092   43.7814 H   0  0  0  0  0  0  0  0  0  0  0  0
   55.0275   30.0670   43.1856 H   0  0  0  0  0  0  0  0  0  0  0  0
   56.2520   28.6230   45.3120 H   0  0  0  0  0  0  0  0  0  0  0  0
   56.6386   28.2622   42.6669 H   0  0  0  0  0  0  0  0  0  0  0  0
   57.2817   29.9148   42.2681 H   0  0  0  0  0  0  0  0  0  0  0  0
   58.1381   27.9724   44.4109 H   0  0  0  0  0  0  0  0  0  0  0  0
   59.1149   29.0060   43.2576 H   0  0  0  0  0  0  0  0  0  0  0  0
  1  2  2  0
  2  3  1  0
  3  4  1  0
  4  5  1  0
  5  6  1  0
  6  7  2  0
  6  8  1  0
  8  9  1  0
  9 10  1  0
  2 11  1  0
 11 12  1  0
 12 13  1  0
 13 14  2  0
 13 15  1  0
 15 16  1  0
 16 17  1  0
 17 18  1  0
 18 19  1  0
 19 20  1  0
 19 21  1  0
 21 22  1  0
  9  4  2  0
 22 16  1  0
  3 23  1  0
  3 24  1  0
 10 25  1  0
 12 26  1  0
 12 27  1  0
 16 28  1  1
 17 29  1  0
 17 30  1  0
 18 31  1  0
 18 32  1  0
 19 33  1  6
 20 34  1  0
 21 35  1  0
 21 36  1  0
 22 37  1  0
 22 38  1  0
M  CHG  4   5  -1   8  -1  11  -1  15  -1
M  END
>  <UniqueID>  (4) 
4

>  <SMILES>  (4) 
O=C(Cc1[n-]c(=O)[n-]c1O)[N-]CC(=O)[N-]C1CCC(O)CC1

>  <Energy>  (4) 
60.0423273314879

>  <Genealogy>  (4) 
O=C(Cc1[n-]c(=O)[n-]c1O)[N-]CC(=O)[N-]C1CCC(O)CC1 (protonated)
O=C(Cc1[n-]c(=O)[n-]c1O)[N-]CC(=O)[N-]C1CCC(O)CC1 (3D coordinates assigned)
O=C(Cc1[n-]c(=O)[n-]c1O)[N-]CC(=O)[N-]C1CCC(O)CC1 (nonaromatic ring conformer: 60.0423273314879 kcal/mol)

>  <smiles>  (4) 
O=C(Cc1[nH]c(=O)[nH]c1O)NCC(=O)NC1CCC(O)CC1

>  <score_type>  (4) 
oracle

>  <origin>  (4) 
adg

>  <m_score__min__energy>  (4) 
-14.720000000000001

>  <m_primary>  (4) 
energy

$$$$
4:0
     RDKit          3D

 64 67  0  0  0  0  0  0  0  0999 V2000
   56.0918   31.7904   43.0073 H   0  0  0  0  0  0  0  0  0  0  0  0
   57.0290   31.6220   43.5580 C   0  0  0  0  0  0  0  0  0  0  0  0
   57.2350   30.3060   44.2000 C   0  0  0  0  0  0  0  0  0  0  0  0
   56.2960   29.8370   44.8930 O   0  0  0  0  0  0  0  0  0  0  0  0
   58.4590   29.5610   44.0460 N   0  0  0  0  0  0  0  0  0  0  0  0
   59.2820   30.0100   43.5870 H   0  0  0  0  0  0  0  0  0  0  0  0
   58.6570   28.2380   44.5740 C   0  0  0  0  0  0  0  0  0  0  0  0
   57.7830   27.2090   44.1930 C   0  0  0  0  0  0  0  0  0  0  0  0
   56.9704   27.4176   43.4816 H   0  0  0  0  0  0  0  0  0  0  0  0
   57.9380   25.9220   44.7110 C   0  0  0  0  0  0  0  0  0  0  0  0
   57.2533   25.1193   44.3999 H   0  0  0  0  0  0  0  0  0  0  0  0
   58.9600   25.6510   45.6230 C   0  0  0  0  0  0  0  0  0  0  0  0
   59.0781   24.6350   46.0278 H   0  0  0  0  0  0  0  0  0  0  0  0
   59.8370   26.6700   46.0250 C   0  0  0  0  0  0  0  0  0  0  0  0
   60.9050   26.3860   47.0490 C   0  0  0  0  0  0  0  0  0  0  0  0
   61.7688   27.0414   46.8642 H   0  0  0  0  0  0  0  0  0  0  0  0
   61.2086   25.3319   46.9675 H   0  0  0  0  0  0  0  0  0  0  0  0
   60.3640   26.6450   48.4700 C   0  0  0  0  0  0  0  0  0  0  0  0
   61.0378   26.1558   49.1888 H   0  0  0  0  0  0  0  0  0  0  0  0
   59.3418   26.2394   48.4949 H   0  0  0  0  0  0  0  0  0  0  0  0
   60.2590   28.0750   48.8340 N   0  0  0  0  0  0  0  0  0  0  0  0
   60.7150   28.3620   50.2090 C   0  0  0  0  0  0  0  0  0  0  0  0
   61.6971   27.8950   50.3742 H   0  0  0  0  0  0  0  0  0  0  0  0
   59.9886   27.9547   50.9277 H   0  0  0  0  0  0  0  0  0  0  0  0
   60.8310   29.8760   50.4050 C   0  0  0  0  0  0  0  0  0  0  0  0
   61.6488   30.2647   49.7804 H   0  0  0  0  0  0  0  0  0  0  0  0
   61.0414   30.0931   51.4626 H   0  0  0  0  0  0  0  0  0  0  0  0
   59.5710   30.5190   50.0160 N   0  0  0  0  0  0  0  0  0  0  0  0
   59.0050   31.5750   50.8140 C   0  0  0  0  0  0  0  0  0  0  0  0
   59.6460   32.8230   50.8600 C   0  0  0  0  0  0  0  0  0  0  0  0
   60.5798   32.9786   50.2999 H   0  0  0  0  0  0  0  0  0  0  0  0
   59.1060   33.8680   51.6120 C   0  0  0  0  0  0  0  0  0  0  0  0
   59.6154   34.8424   51.6445 H   0  0  0  0  0  0  0  0  0  0  0  0
   57.9210   33.6770   52.3220 C   0  0  0  0  0  0  0  0  0  0  0  0
   57.4937   34.5039   52.9083 H   0  0  0  0  0  0  0  0  0  0  0  0
   57.2750   32.4390   52.2910 C   0  0  0  0  0  0  0  0  0  0  0  0
   56.3408   32.2952   52.8537 H   0  0  0  0  0  0  0  0  0  0  0  0
   57.8140   31.3720   51.5420 C   0  0  0  0  0  0  0  0  0  0  0  0
   57.2070   30.1070   51.5120 O   0  0  0  0  0  0  0  0  0  0  0  0
   56.8610   29.3470   52.6670 C   0  0  0  0  0  0  0  0  0  0  0  0
   57.1202   29.9164   53.5718 H   0  0  0  0  0  0  0  0  0  0  0  0
   55.7804   29.1412   52.6603 H   0  0  0  0  0  0  0  0  0  0  0  0
   57.4153   28.3969   52.6603 H   0  0  0  0  0  0  0  0  0  0  0  0
   58.9790   30.1670   48.7220 C   0  0  0  0  0  0  0  0  0  0  0  0
   59.5940   30.5857   47.9118 H   0  0  0  0  0  0  0  0  0  0  0  0
   57.9609   30.5791   48.6612 H   0  0  0  0  0  0  0  0  0  0  0  0
   58.9210   28.6450   48.5830 C   0  0  0  0  0  0  0  0  0  0  0  0
   58.5958   28.3822   47.5656 H   0  0  0  0  0  0  0  0  0  0  0  0
   58.2068   28.2378   49.3138 H   0  0  0  0  0  0  0  0  0  0  0  0
   59.6690   27.9680   45.5140 C   0  0  0  0  0  0  0  0  0  0  0  0
   60.3325   28.7781   45.8507 H   0  0  0  0  0  0  0  0  0  0  0  0
   57.9220   32.6220   43.6100 C   0  0  0  0  0  0  0  0  0  0  0  0
   58.3787   32.9626   42.6690 H   0  0  0  0  0  0  0  0  0  0  0  0
   58.3260   33.2930   44.8720 C   0  0  0  0  0  0  0  0  0  0  0  0
   59.2820   34.3280   44.9070 C   0  0  0  0  0  0  0  0  0  0  0  0
   59.7529   34.6695   43.9734 H   0  0  0  0  0  0  0  0  0  0  0  0
   59.6350   34.9230   46.1220 C   0  0  0  0  0  0  0  0  0  0  0  0
   60.3745   35.7372   46.1396 H   0  0  0  0  0  0  0  0  0  0  0  0
   59.0520   34.4870   47.3120 C   0  0  0  0  0  0  0  0  0  0  0  0
   59.3285   34.9606   48.2656 H   0  0  0  0  0  0  0  0  0  0  0  0
   58.1180   33.4500   47.2930 C   0  0  0  0  0  0  0  0  0  0  0  0
   57.6631   33.1027   48.2324 H   0  0  0  0  0  0  0  0  0  0  0  0
   57.7600   32.8520   46.0800 C   0  0  0  0  0  0  0  0  0  0  0  0
   57.0294   32.0298   46.0719 H   0  0  0  0  0  0  0  0  0  0  0  0
  1  2  1  0
  2  3  1  0
  3  4  2  0
  3  5  1  0
  5  6  1  0
  5  7  1  0
  7  8  2  0
  8  9  1  0
  8 10  1  0
 10 11  1  0
 10 12  2  0
 12 13  1  0
 12 14  1  0
 14 15  1  0
 15 16  1  0
 15 17  1  0
 15 18  1  0
 18 19  1  0
 18 20  1  0
 18 21  1  0
 21 22  1  0
 22 23  1  0
 22 24  1  0
 22 25  1  0
 25 26  1  0
 25 27  1  0
 25 28  1  0
 28 29  1  0
 29 30  2  0
 30 31  1  0
 30 32  1  0
 32 33  1  0
 32 34  2  0
 34 35  1  0
 34 36  1  0
 36 37  1  0
 36 38  2  0
 38 39  1  0
 39 40  1  0
 40 41  1  0
 40 42  1  0
 40 43  1  0
 28 44  1  0
 44 45  1  0
 44 46  1  0
 44 47  1  0
 47 48  1  0
 47 49  1  0
 14 50  2  0
 50 51  1  0
  2 52  2  0
 52 53  1  0
 52 54  1  0
 54 55  2  0
 55 56  1  0
 55 57  1  0
 57 58  1  0
 57 59  2  0
 59 60  1  0
 59 61  1  0
 61 62  1  0
 61 63  2  0
 63 64  1  0
 50  7  1  0
 63 54  1  0
 47 21  1  0
 38 29  1  0
M  END
>  <UniqueID>  (5) 
5

>  <SMILES>  (5) 
COc1ccccc1N1CCN(CCc2cccc(NC(=O)/C=C/c3ccccc3)c2)CC1

>  <Energy>  (5) 
79.83376511122263

>  <Genealogy>  (5) 
COc1ccccc1N1CCN(CCc2cccc(NC(=O)/C=C/c3ccccc3)c2)CC1 (cis-trans isomerization)
COc1ccccc1N1CCN(CCc2cccc(NC(=O)/C=C/c3ccccc3)c2)CC1 (3D coordinates assigned)
COc1ccccc1N1CCN(CCc2cccc(NC(=O)/C=C/c3ccccc3)c2)CC1 (nonaromatic ring conformer: 79.83376511122263 kcal/mol)

>  <smiles>  (5) 
COc1ccccc1N1CCN(CCc2cccc(NC(=O)C=Cc3ccccc3)c2)CC1

>  <score_type>  (5) 
oracle

>  <origin>  (5) 
adg

>  <m_score__min__energy>  (5) 
-9.4299999999999997

>  <m_primary>  (5) 
energy

$$$$
5:0
     RDKit          3D

 33 34  0  0  0  0  0  0  0  0999 V2000
   59.1240   28.9850   45.7950 O   0  0  0  0  0  0  0  0  0  0  0  0
   57.8880   28.9740   45.5450 C   0  0  0  0  0  0  0  0  0  0  0  0
   57.1940   27.7300   45.3620 N   0  0  0  0  0  0  0  0  0  0  0  0
   57.8340   26.4410   45.3680 C   0  0  0  0  0  0  0  0  0  0  0  0
   59.0880   26.3530   45.4630 O   0  0  0  0  0  0  0  0  0  0  0  0
   57.0200   25.2080   45.2960 C   0  0  0  0  0  0  0  0  0  0  0  0
   57.6460   24.0040   44.9280 C   0  0  0  0  0  0  0  0  0  0  0  0
   56.9040   22.8290   44.7910 C   0  0  0  0  0  0  0  0  0  0  0  0
   55.5270   22.8410   45.0160 C   0  0  0  0  0  0  0  0  0  0  0  0
   54.7880   21.6730   44.8700 O   0  0  0  0  0  0  0  0  0  0  0  0
   54.8920   24.0270   45.3920 C   0  0  0  0  0  0  0  0  0  0  0  0
   55.6260   25.2100   45.5500 C   0  0  0  0  0  0  0  0  0  0  0  0
   54.9460   26.3500   45.9840 O   0  0  0  0  0  0  0  0  0  0  0  0
   57.1530   30.2060   45.4900 N   0  0  0  0  0  0  0  0  0  0  0  0
   57.7620   31.5090   45.4510 C   0  0  0  0  0  0  0  0  0  0  0  0
   57.3720   32.4720   44.5050 C   0  0  0  0  0  0  0  0  0  0  0  0
   57.9620   33.7370   44.5020 C   0  0  0  0  0  0  0  0  0  0  0  0
   58.9350   34.0630   45.4520 C   0  0  0  0  0  0  0  0  0  0  0  0
   59.5110   35.3280   45.4350 O   0  0  0  0  0  0  0  0  0  0  0  0
   59.3220   33.1240   46.4200 C   0  0  0  0  0  0  0  0  0  0  0  0
   60.3180   33.4970   47.3860 N   0  0  0  0  0  0  0  0  0  0  0  0
   61.5580   33.6160   47.1200 C   0  0  0  0  0  0  0  0  0  0  0  0
   63.1260   33.7660   46.7820 S   0  0  0  0  0  0  0  0  0  0  0  0
   58.7220   31.8480   46.4170 C   0  0  0  0  0  0  0  0  0  0  0  0
   56.1650   27.7710   45.1860 H   0  0  0  0  0  0  0  0  0  0  0  0
   58.7308   23.9875   44.7463 H   0  0  0  0  0  0  0  0  0  0  0  0
   57.4057   21.8927   44.5053 H   0  0  0  0  0  0  0  0  0  0  0  0
   53.8058   24.0323   45.5656 H   0  0  0  0  0  0  0  0  0  0  0  0
   54.0190   26.3220   46.3880 H   0  0  0  0  0  0  0  0  0  0  0  0
   56.1120   30.1530   45.5690 H   0  0  0  0  0  0  0  0  0  0  0  0
   56.5977   32.2277   43.7629 H   0  0  0  0  0  0  0  0  0  0  0  0
   57.6604   34.4804   43.7494 H   0  0  0  0  0  0  0  0  0  0  0  0
   59.0096   31.1100   47.1803 H   0  0  0  0  0  0  0  0  0  0  0  0
  1  2  2  0
  2  3  1  0
  3  4  1  0
  4  5  2  0
  4  6  1  0
  6  7  2  0
  7  8  1  0
  8  9  2  0
  9 10  1  0
  9 11  1  0
 11 12  2  0
 12 13  1  0
  2 14  1  0
 14 15  1  0
 15 16  2  0
 16 17  1  0
 17 18  2  0
 18 19  1  0
 18 20  1  0
 20 21  1  0
 21 22  2  0
 22 23  2  0
 20 24  2  0
 12  6  1  0
 24 15  1  0
  3 25  1  0
  7 26  1  0
  8 27  1  0
 11 28  1  0
 13 29  1  0
 14 30  1  0
 16 31  1  0
 17 32  1  0
 24 33  1  0
M  CHG  2  10  -1  19  -1
M  END
>  <UniqueID>  (6) 
6

>  <SMILES>  (6) 
O=C(NC(=O)c1ccc([O-])cc1O)Nc1ccc([O-])c(N=C=S)c1

>  <Energy>  (6) 
44.44359134267883

>  <Genealogy>  (6) 
O=C(NC(=O)c1ccc([O-])cc1O)Nc1ccc([O-])c(N=C=S)c1 (protonated)
O=C(NC(=O)c1ccc([O-])cc1O)Nc1ccc([O-])c(N=C=S)c1 (3D coordinates assigned)
O=C(NC(=O)c1ccc([O-])cc1O)Nc1ccc([O-])c(N=C=S)c1 (optimized conformer: 44.44359134267883 kcal/mol)

>  <smiles>  (6) 
O=C(NC(=O)c1ccc(O)cc1O)Nc1ccc(O)c(N=C=S)c1

>  <score_type>  (6) 
oracle

>  <origin>  (6) 
adg

>  <m_score__min__energy>  (6) 
-11.33

>  <m_primary>  (6) 
energy

$$$$
6:0
     RDKit          3D

 36 38  0  0  0  0  0  0  0  0999 V2000
   59.5318   25.8268   46.9758 H   0  0  0  0  0  0  0  0  0  0  0  0
   58.4640   25.9210   46.7290 C   0  0  0  0  0  0  0  0  0  0  0  0
   57.9910   27.0750   46.1890 N   0  0  0  0  0  0  0  0  0  0  0  0
   56.6820   27.2520   45.8610 C   0  0  0  0  0  0  0  0  0  0  0  0
   56.3420   28.4000   45.3370 N   0  0  0  0  0  0  0  0  0  0  0  0
   57.1590   29.5430   45.0460 C   0  0  0  0  0  0  0  0  0  0  0  0
   56.6950   30.7080   45.1770 O   0  0  0  0  0  0  0  0  0  0  0  0
   58.4950   29.3680   44.3860 C   0  0  0  0  0  0  0  0  0  0  0  0
   58.4880   28.4218   43.8251 H   0  0  0  0  0  0  0  0  0  0  0  0
   58.6530   30.2341   43.7265 H   0  0  0  0  0  0  0  0  0  0  0  0
   59.8810   29.3280   45.5810 S   0  0  0  0  0  0  0  0  0  0  0  0
   59.3470   30.7700   46.4980 C   0  0  0  0  0  0  0  0  0  0  0  0
   59.0960   30.6670   47.8280 N   0  0  0  0  0  0  0  0  0  0  0  0
   58.6830   31.7370   48.5560 C   0  0  0  0  0  0  0  0  0  0  0  0
   58.4270   31.5560   49.9970 C   0  0  0  0  0  0  0  0  0  0  0  0
   57.8090   30.5060   50.4890 O   0  0  0  0  0  0  0  0  0  0  0  0
   57.7270   30.6360   51.7930 C   0  0  0  0  0  0  0  0  0  0  0  0
   57.2610   29.9083   52.4737 H   0  0  0  0  0  0  0  0  0  0  0  0
   58.3130   31.8220   52.1800 C   0  0  0  0  0  0  0  0  0  0  0  0
   58.4007   32.2125   53.2046 H   0  0  0  0  0  0  0  0  0  0  0  0
   58.7670   32.4200   51.0240 C   0  0  0  0  0  0  0  0  0  0  0  0
   59.2906   33.3834   50.9358 H   0  0  0  0  0  0  0  0  0  0  0  0
   58.5150   32.9750   47.9190 C   0  0  0  0  0  0  0  0  0  0  0  0
   58.1750   33.8553   48.4842 H   0  0  0  0  0  0  0  0  0  0  0  0
   58.7890   33.0680   46.5480 C   0  0  0  0  0  0  0  0  0  0  0  0
   58.6310   34.3770   45.8300 C   0  0  0  0  0  0  0  0  0  0  0  0
   57.3050   34.5900   45.4940 F   0  0  0  0  0  0  0  0  0  0  0  0
   59.3890   34.3690   44.6740 F   0  0  0  0  0  0  0  0  0  0  0  0
   59.0560   35.4090   46.6470 F   0  0  0  0  0  0  0  0  0  0  0  0
   59.2020   31.9640   45.8690 N   0  0  0  0  0  0  0  0  0  0  0  0
   55.7640   26.2050   46.1410 C   0  0  0  0  0  0  0  0  0  0  0  0
   54.3940   26.3400   45.9620 O   0  0  0  0  0  0  0  0  0  0  0  0
   56.2430   25.0060   46.6770 C   0  0  0  0  0  0  0  0  0  0  0  0
   55.5476   24.1755   46.8685 H   0  0  0  0  0  0  0  0  0  0  0  0
   57.5980   24.8580   46.9700 C   0  0  0  0  0  0  0  0  0  0  0  0
   57.9779   23.9134   47.3863 H   0  0  0  0  0  0  0  0  0  0  0  0
  1  2  1  0
  2  3  1  0
  3  4  1  0
  4  5  2  0
  5  6  1  0
  6  7  2  0
  6  8  1  0
  8  9  1  0
  8 10  1  0
  8 11  1  0
 11 12  1  0
 12 13  2  0
 13 14  1  0
 14 15  1  0
 15 16  1  0
 16 17  1  0
 17 18  1  0
 17 19  2  0
 19 20  1  0
 19 21  1  0
 21 22  1  0
 14 23  2  0
 23 24  1  0
 23 25  1  0
 25 26  1  0
 26 27  1  0
 26 28  1  0
 26 29  1  0
 25 30  2  0
  4 31  1  0
 31 32  1  0
 31 33  2  0
 33 34  1  0
 33 35  1  0
 35 36  1  0
 35  2  2  0
 30 12  1  0
 21 15  2  0
M  CHG  2   3  -1  32  -1
M  END
>  <UniqueID>  (7) 
7

>  <SMILES>  (7) 
O=C(CSc1nc(-c2ccco2)cc(C(F)(F)F)n1)/N=c1/[n-]cccc1[O-]

>  <Energy>  (7) 
69.75388485257223

>  <Genealogy>  (7) 
O=C(CSc1nc(-c2ccco2)cc(C(F)(F)F)n1)N=c1[n-]cccc1[O-] (protonated)
O=C(CSc1nc(-c2ccco2)cc(C(F)(F)F)n1)/N=c1/[n-]cccc1[O-] (cis-trans isomerization)
O=C(CSc1nc(-c2ccco2)cc(C(F)(F)F)n1)/N=c1/[n-]cccc1[O-] (3D coordinates assigned)
O=C(CSc1nc(-c2ccco2)cc(C(F)(F)F)n1)/N=c1/[n-]cccc1[O-] (optimized conformer: 69.75388485257223 kcal/mol)

>  <smiles>  (7) 
O=C(CSc1nc(-c2ccco2)cc(C(F)(F)F)n1)N=c1[nH]cccc1O

>  <score_type>  (7) 
oracle

>  <origin>  (7) 
adg

>  <m_score__min__energy>  (7) 
-12.93

>  <m_primary>  (7) 
energy

$$$$
7:0
     RDKit          3D

 51 53  0  0  0  0  0  0  0  0999 V2000
   58.4260   27.5270   46.9290 O   0  0  0  0  0  0  0  0  0  0  0  0
   57.4150   27.1740   46.2630 C   0  0  0  0  0  0  0  0  0  0  0  0
   56.8100   28.0950   45.3410 N   0  0  0  0  0  0  0  0  0  0  0  0
   57.1770   29.5150   45.3110 C   0  0  1  0  0  0  0  0  0  0  0  0
   58.7000   29.6740   45.1760 C   0  0  0  0  0  0  0  0  0  0  0  0
   59.1170   31.1550   45.2360 C   0  0  0  0  0  0  0  0  0  0  0  0
   58.1550   32.1160   44.4800 C   0  0  2  0  0  0  0  0  0  0  0  0
   57.3330   32.9850   45.4610 C   0  0  0  0  0  0  0  0  0  0  0  0
   57.6900   34.4010   45.3340 N   0  0  0  0  0  0  0  0  0  0  0  0
   59.2920   34.7110   45.9360 S   0  0  0  0  0  0  0  0  0  0  0  0
   60.2940   33.8290   45.2450 O   0  0  0  0  0  0  0  0  0  0  0  0
   59.6390   36.1490   45.6690 O   0  0  0  0  0  0  0  0  0  0  0  0
   59.3370   34.4140   47.6970 C   0  0  0  0  0  0  0  0  0  0  0  0
   59.7790   33.0050   47.9790 C   0  0  0  0  0  0  0  0  0  0  0  0
   58.8550   32.0520   48.4390 C   0  0  0  0  0  0  0  0  0  0  0  0
   59.2600   30.7330   48.6710 C   0  0  0  0  0  0  0  0  0  0  0  0
   60.5850   30.3570   48.4390 C   0  0  0  0  0  0  0  0  0  0  0  0
   61.5070   31.2970   47.9690 C   0  0  0  0  0  0  0  0  0  0  0  0
   61.1060   32.6160   47.7360 C   0  0  0  0  0  0  0  0  0  0  0  0
   57.2520   31.3520   43.4860 C   0  0  0  0  0  0  0  0  0  0  0  0
   56.4300   30.2350   44.1580 C   0  0  0  0  0  0  0  0  0  0  0  0
   56.8880   25.7970   46.4210 C   0  0  0  0  0  0  0  0  0  0  0  0
   57.7160   24.7980   46.9590 C   0  0  0  0  0  0  0  0  0  0  0  0
   57.2390   23.4940   47.1080 C   0  0  0  0  0  0  0  0  0  0  0  0
   55.9310   23.1970   46.7290 C   0  0  0  0  0  0  0  0  0  0  0  0
   55.1300   24.1740   46.2300 N   0  0  0  0  0  0  0  0  0  0  0  0
   55.5640   25.4540   46.0730 C   0  0  0  0  0  0  0  0  0  0  0  0
   54.7610   26.3210   45.6390 O   0  0  0  0  0  0  0  0  0  0  0  0
   56.1390   27.7260   44.6300 H   0  0  0  0  0  0  0  0  0  0  0  0
   56.8741   29.9832   46.2592 H   0  0  0  0  0  0  0  0  0  0  0  0
   59.0202   29.2507   44.2125 H   0  0  0  0  0  0  0  0  0  0  0  0
   59.1792   29.1449   46.0129 H   0  0  0  0  0  0  0  0  0  0  0  0
   60.1192   31.2501   44.7927 H   0  0  0  0  0  0  0  0  0  0  0  0
   59.0919   31.4493   46.2956 H   0  0  0  0  0  0  0  0  0  0  0  0
   58.7755   32.8026   43.8854 H   0  0  0  0  0  0  0  0  0  0  0  0
   56.2625   32.8627   45.2397 H   0  0  0  0  0  0  0  0  0  0  0  0
   57.5539   32.6586   46.4880 H   0  0  0  0  0  0  0  0  0  0  0  0
   60.0428   35.1160   48.1652 H   0  0  0  0  0  0  0  0  0  0  0  0
   58.3281   34.5612   48.1099 H   0  0  0  0  0  0  0  0  0  0  0  0
   57.8095   32.3438   48.6174 H   0  0  0  0  0  0  0  0  0  0  0  0
   58.5343   29.9915   49.0364 H   0  0  0  0  0  0  0  0  0  0  0  0
   60.9032   29.3208   48.6262 H   0  0  0  0  0  0  0  0  0  0  0  0
   62.5491   30.9985   47.7823 H   0  0  0  0  0  0  0  0  0  0  0  0
   61.8328   33.3516   47.3610 H   0  0  0  0  0  0  0  0  0  0  0  0
   57.8877   30.9012   42.7097 H   0  0  0  0  0  0  0  0  0  0  0  0
   56.5403   32.0764   43.0632 H   0  0  0  0  0  0  0  0  0  0  0  0
   56.1699   29.4880   43.3935 H   0  0  0  0  0  0  0  0  0  0  0  0
   55.5427   30.7119   44.5998 H   0  0  0  0  0  0  0  0  0  0  0  0
   58.7439   25.0437   47.2641 H   0  0  0  0  0  0  0  0  0  0  0  0
   57.8894   22.7087   47.5206 H   0  0  0  0  0  0  0  0  0  0  0  0
   55.5474   22.1714   46.8340 H   0  0  0  0  0  0  0  0  0  0  0  0
  1  2  2  0
  2  3  1  0
  3  4  1  0
  4  5  1  0
  5  6  1  0
  6  7  1  0
  7  8  1  0
  8  9  1  0
  9 10  1  0
 10 11  2  0
 10 12  2  0
 10 13  1  0
 13 14  1  0
 14 15  2  0
 15 16  1  0
 16 17  2  0
 17 18  1  0
 18 19  2  0
  7 20  1  0
 20 21  1  0
  2 22  1  0
 22 23  2  0
 23 24  1  0
 24 25  2  0
 25 26  1  0
 26 27  1  0
 27 28  2  0
 21  4  1  0
 27 22  1  0
 19 14  1  0
  3 29  1  0
  4 30  1  1
  5 31  1  0
  5 32  1  0
  6 33  1  0
  6 34  1  0
  7 35  1  6
  8 36  1  0
  8 37  1  0
 13 38  1  0
 13 39  1  0
 15 40  1  0
 16 41  1  0
 17 42  1  0
 18 43  1  0
 19 44  1  0
 20 45  1  0
 20 46  1  0
 21 47  1  0
 21 48  1  0
 23 49  1  0
 24 50  1  0
 25 51  1  0
M  CHG  2   9  -1  26  -1
M  END
>  <UniqueID>  (8) 
8

>  <SMILES>  (8) 
O=C(NC1CCC(C[N-]S(=O)(=O)Cc2ccccc2)CC1)c1ccc[n-]c1=O

>  <Energy>  (8) 
53.970773580202625

>  <Genealogy>  (8) 
O=C(NC1CCC(C[N-]S(=O)(=O)Cc2ccccc2)CC1)c1ccc[n-]c1=O (protonated)
O=C(NC1CCC(C[N-]S(=O)(=O)Cc2ccccc2)CC1)c1ccc[n-]c1=O (3D coordinates assigned)
O=C(NC1CCC(C[N-]S(=O)(=O)Cc2ccccc2)CC1)c1ccc[n-]c1=O (nonaromatic ring conformer: 53.970773580202625 kcal/mol)

>  <smiles>  (8) 
O=C(NC1CCC(CNS(=O)(=O)Cc2ccccc2)CC1)c1ccc[nH]c1=O

>  <score_type>  (8) 
oracle

>  <origin>  (8) 
adg

>  <m_score__min__energy>  (8) 
-12.41

>  <m_primary>  (8) 
energy

$$$$
8:0
     RDKit          3D

 46 48  0  0  0  0  0  0  0  0999 V2000
   57.2270   34.2250   45.2630 C   0  0  0  0  0  0  0  0  0  0  0  0
   58.3210   33.8220   46.1990 C   0  0  0  0  0  0  0  0  0  0  0  0
   59.6580   34.0410   45.8640 C   0  0  0  0  0  0  0  0  0  0  0  0
   60.6530   33.6190   46.7520 C   0  0  0  0  0  0  0  0  0  0  0  0
   62.0990   33.8690   46.4390 C   0  0  0  0  0  0  0  0  0  0  0  0
   60.2980   33.0250   47.9250 N   0  0  0  0  0  0  0  0  0  0  0  0
   58.9910   32.8170   48.2320 C   0  0  0  0  0  0  0  0  0  0  0  0
   58.5340   32.0200   49.7720 S   0  0  0  0  0  0  0  0  0  0  0  0
   59.2680   30.4600   49.2700 C   0  0  0  0  0  0  0  0  0  0  0  0
   60.0830   29.7300   50.0540 N   0  0  0  0  0  0  0  0  0  0  0  0
   60.4150   28.6460   49.3640 N   0  0  0  0  0  0  0  0  0  0  0  0
   59.7920   28.7240   48.1700 C   0  0  0  0  0  0  0  0  0  0  0  0
   59.9850   27.7260   47.0670 C   0  0  0  0  0  0  0  0  0  0  0  0
   58.7010   26.9770   46.7970 C   0  0  0  0  0  0  0  0  0  0  0  0
   58.3930   25.8340   47.5560 C   0  0  0  0  0  0  0  0  0  0  0  0
   57.1950   25.1440   47.3450 C   0  0  0  0  0  0  0  0  0  0  0  0
   56.2890   25.5870   46.3760 C   0  0  0  0  0  0  0  0  0  0  0  0
   56.5740   26.7250   45.6210 C   0  0  0  0  0  0  0  0  0  0  0  0
   57.7740   27.4230   45.8210 C   0  0  0  0  0  0  0  0  0  0  0  0
   58.0260   28.5990   45.0520 N   0  0  0  0  0  0  0  0  0  0  0  0
   56.7440   29.6510   44.5640 S   0  0  0  0  0  0  0  0  0  0  0  0
   56.5450   29.5560   42.8010 C   0  0  0  0  0  0  0  0  0  0  0  0
   57.0700   31.0670   44.9470 O   0  0  0  0  0  0  0  0  0  0  0  0
   55.4710   29.2340   45.2460 O   0  0  0  0  0  0  0  0  0  0  0  0
   59.0760   29.8620   48.0830 N   0  0  0  0  0  0  0  0  0  0  0  0
   58.2990   30.3240   47.0100 N   0  0  0  0  0  0  0  0  0  0  0  0
   58.0170   33.2090   47.3700 N   0  0  0  0  0  0  0  0  0  0  0  0
   56.3495   34.5483   45.8422 H   0  0  0  0  0  0  0  0  0  0  0  0
   57.5738   35.0544   44.6291 H   0  0  0  0  0  0  0  0  0  0  0  0
   56.9529   33.3688   44.6291 H   0  0  0  0  0  0  0  0  0  0  0  0
   59.9245   34.5365   44.9188 H   0  0  0  0  0  0  0  0  0  0  0  0
   62.6655   33.9669   47.3768 H   0  0  0  0  0  0  0  0  0  0  0  0
   62.4988   33.0266   45.8554 H   0  0  0  0  0  0  0  0  0  0  0  0
   62.1928   34.7967   45.8554 H   0  0  0  0  0  0  0  0  0  0  0  0
   61.0350   32.7270   48.6020 H   0  0  0  0  0  0  0  0  0  0  0  0
   60.2952   28.2531   46.1527 H   0  0  0  0  0  0  0  0  0  0  0  0
   60.7584   27.0056   47.3718 H   0  0  0  0  0  0  0  0  0  0  0  0
   59.0995   25.4800   48.3212 H   0  0  0  0  0  0  0  0  0  0  0  0
   56.9646   24.2500   47.9431 H   0  0  0  0  0  0  0  0  0  0  0  0
   55.3508   25.0376   46.2090 H   0  0  0  0  0  0  0  0  0  0  0  0
   55.8550   27.0761   44.8662 H   0  0  0  0  0  0  0  0  0  0  0  0
   55.5753   29.0931   42.5659 H   0  0  0  0  0  0  0  0  0  0  0  0
   56.5813   30.5686   42.3728 H   0  0  0  0  0  0  0  0  0  0  0  0
   57.3552   28.9475   42.3728 H   0  0  0  0  0  0  0  0  0  0  0  0
   57.5150   29.7460   46.6300 H   0  0  0  0  0  0  0  0  0  0  0  0
   58.4850   31.2520   46.5780 H   0  0  0  0  0  0  0  0  0  0  0  0
  1  2  1  0
  2  3  2  0
  3  4  1  0
  4  5  1  0
  4  6  2  0
  6  7  1  0
  7  8  1  0
  8  9  1  0
  9 10  2  0
 10 11  1  0
 11 12  2  0
 12 13  1  0
 13 14  1  0
 14 15  2  0
 15 16  1  0
 16 17  2  0
 17 18  1  0
 18 19  2  0
 19 20  1  0
 20 21  1  0
 21 22  1  0
 21 23  2  0
 21 24  2  0
 12 25  1  0
 25 26  1  0
  7 27  2  0
 27  2  1  0
 25  9  1  0
 19 14  1  0
  1 28  1  0
  1 29  1  0
  1 30  1  0
  3 31  1  0
  5 32  1  0
  5 33  1  0
  5 34  1  0
  6 35  1  0
 13 36  1  0
 13 37  1  0
 15 38  1  0
 16 39  1  0
 17 40  1  0
 18 41  1  0
 22 42  1  0
 22 43  1  0
 22 44  1  0
 26 45  1  0
 26 46  1  0
M  CHG  2   6   1  20  -1
M  END
>  <UniqueID>  (9) 
9

>  <SMILES>  (9) 
Cc1cc(C)[nH+]c(Sc2nnc(Cc3ccccc3[N-]S(C)(=O)=O)n2N)n1

>  <Energy>  (9) 
82.28681653331562

>  <Genealogy>  (9) 
Cc1cc(C)[nH+]c(Sc2nnc(Cc3ccccc3[N-]S(C)(=O)=O)n2N)n1 (protonated)
Cc1cc(C)[nH+]c(Sc2nnc(Cc3ccccc3[N-]S(C)(=O)=O)n2N)n1 (3D coordinates assigned)
Cc1cc(C)[nH+]c(Sc2nnc(Cc3ccccc3[N-]S(C)(=O)=O)n2N)n1 (optimized conformer: 82.28681653331562 kcal/mol)

>  <smiles>  (9) 
Cc1cc(C)nc(Sc2nnc(Cc3ccccc3NS(C)(=O)=O)n2N)n1

>  <score_type>  (9) 
oracle

>  <origin>  (9) 
adg

>  <m_score__min__energy>  (9) 
-8.8699999999999992

>  <m_primary>  (9) 
energy

$$$$
9:0
     RDKit          3D

 40 42  0  0  0  0  0  0  0  0999 V2000
   58.7880   26.4920   47.4900 C   0  0  0  0  0  0  0  0  0  0  0  0
   58.3750   26.3350   46.2210 C   0  0  0  0  0  0  0  0  0  0  0  0
   57.3690   25.4620   45.7920 C   0  0  0  0  0  0  0  0  0  0  0  0
   56.6060   24.6510   46.5510 C   0  0  0  0  0  0  0  0  0  0  0  0
   55.3060   24.0990   46.1050 C   0  0  0  0  0  0  0  0  0  0  0  0
   54.2330   24.9600   45.8330 C   0  0  0  0  0  0  0  0  0  0  0  0
   54.3860   26.3390   45.9450 O   0  0  0  0  0  0  0  0  0  0  0  0
   53.0340   24.4530   45.4480 N   0  0  0  0  0  0  0  0  0  0  0  0
   52.8450   23.1130   45.3320 C   0  0  0  0  0  0  0  0  0  0  0  0
   51.7270   22.6660   44.9670 O   0  0  0  0  0  0  0  0  0  0  0  0
   53.8590   22.2570   45.6140 N   0  0  0  0  0  0  0  0  0  0  0  0
   55.0760   22.7140   46.0050 C   0  0  0  0  0  0  0  0  0  0  0  0
   55.9820   21.8870   46.2930 O   0  0  0  0  0  0  0  0  0  0  0  0
   57.2640   25.6300   44.4200 C   0  0  0  0  0  0  0  0  0  0  0  0
   58.2060   26.5720   44.0630 C   0  0  0  0  0  0  0  0  0  0  0  0
   58.3790   27.0970   42.6690 C   0  0  0  0  0  0  0  0  0  0  0  0
   58.8850   27.0070   45.1520 N   0  0  0  0  0  0  0  0  0  0  0  0
   59.9200   28.0550   45.1440 C   0  0  0  0  0  0  0  0  0  0  0  0
   59.2960   29.4180   45.3020 C   0  0  0  0  0  0  0  0  0  0  0  0
   59.8890   30.3810   46.1330 C   0  0  0  0  0  0  0  0  0  0  0  0
   59.3180   31.6480   46.2690 C   0  0  0  0  0  0  0  0  0  0  0  0
   58.1410   31.9780   45.5760 C   0  0  0  0  0  0  0  0  0  0  0  0
   57.5330   33.3190   45.7130 C   0  0  0  0  0  0  0  0  0  0  0  0
   56.6590   33.5400   46.5940 O   0  0  0  0  0  0  0  0  0  0  0  0
   57.9160   34.3580   44.8720 O   0  0  0  0  0  0  0  0  0  0  0  0
   57.5460   31.0120   44.7470 C   0  0  0  0  0  0  0  0  0  0  0  0
   58.1180   29.7440   44.6120 C   0  0  0  0  0  0  0  0  0  0  0  0
   59.5899   27.2080   47.7228 H   0  0  0  0  0  0  0  0  0  0  0  0
   58.3242   25.9045   48.2960 H   0  0  0  0  0  0  0  0  0  0  0  0
   56.9679   24.3848   47.5551 H   0  0  0  0  0  0  0  0  0  0  0  0
   56.5650   25.1124   43.7466 H   0  0  0  0  0  0  0  0  0  0  0  0
   58.7230   28.1410   42.7104 H   0  0  0  0  0  0  0  0  0  0  0  0
   59.1235   26.4865   42.1370 H   0  0  0  0  0  0  0  0  0  0  0  0
   57.4174   27.0486   42.1370 H   0  0  0  0  0  0  0  0  0  0  0  0
   60.6192   27.8790   45.9748 H   0  0  0  0  0  0  0  0  0  0  0  0
   60.4541   28.0187   44.1830 H   0  0  0  0  0  0  0  0  0  0  0  0
   60.8105   30.1359   46.6813 H   0  0  0  0  0  0  0  0  0  0  0  0
   59.7932   32.3934   46.9236 H   0  0  0  0  0  0  0  0  0  0  0  0
   56.6231   31.2556   44.2002 H   0  0  0  0  0  0  0  0  0  0  0  0
   57.6418   28.9964   43.9606 H   0  0  0  0  0  0  0  0  0  0  0  0
  1  2  2  0
  2  3  1  0
  3  4  2  3
  4  5  1  0
  5  6  2  0
  6  7  1  0
  6  8  1  0
  8  9  1  0
  9 10  2  0
  9 11  1  0
 11 12  1  0
 12 13  2  0
  3 14  1  0
 14 15  2  0
 15 16  1  0
 15 17  1  0
 17 18  1  0
 18 19  1  0
 19 20  2  0
 20 21  1  0
 21 22  2  0
 22 23  1  0
 23 24  2  0
 23 25  1  0
 22 26  1  0
 26 27  2  0
 17  2  1  0
 27 19  1  0
 12  5  1  0
  1 28  1  0
  1 29  1  0
  4 30  1  0
 14 31  1  0
 16 32  1  0
 16 33  1  0
 16 34  1  0
 18 35  1  0
 18 36  1  0
 20 37  1  0
 21 38  1  0
 26 39  1  0
 27 40  1  0
M  CHG  4   7  -1   8  -1  11  -1  25  -1
M  END
>  <UniqueID>  (10) 
10

>  <SMILES>  (10) 
C=c1c(=Cc2c([O-])[n-]c(=O)[n-]c2=O)cc(C)n1Cc1ccc(C(=O)[O-])cc1

>  <Energy>  (10) 
81.7729252595162

>  <Genealogy>  (10) 
C=c1c(=Cc2c([O-])[n-]c(=O)[n-]c2=O)cc(C)n1Cc1ccc(C(=O)[O-])cc1 (protonated)
C=c1c(=Cc2c([O-])[n-]c(=O)[n-]c2=O)cc(C)n1Cc1ccc(C(=O)[O-])cc1 (3D coordinates assigned)
C=c1c(=Cc2c([O-])[n-]c(=O)[n-]c2=O)cc(C)n1Cc1ccc(C(=O)[O-])cc1 (optimized conformer: 81.7729252595162 kcal/mol)

>  <smiles>  (10) 
C=c1c(=Cc2c(O)[nH]c(=O)[nH]c2=O)cc(C)n1Cc1ccc(C(=O)O)cc1

>  <score_type>  (10) 
oracle

>  <origin>  (10) 
adg

>  <m_score__min__energy>  (10) 
-16.210000000000001

>  <m_primary>  (10) 
energy

$$$$
10:0
     RDKit          3D

 59 60  0  0  0  0  0  0  0  0999 V2000
   56.6430   23.6450   43.6190 C   0  0  0  0  0  0  0  0  0  0  0  0
   55.6100   23.4850   44.7300 C   0  0  0  0  0  0  0  0  0  0  0  0
   56.1680   23.8460   46.1170 C   0  0  0  0  0  0  0  0  0  0  0  0
   56.9250   25.1170   46.0870 N   0  0  0  0  0  0  0  0  0  0  0  0
   56.2720   26.3060   45.9030 C   0  0  0  0  0  0  0  0  0  0  0  0
   55.0150   26.3360   45.7770 O   0  0  0  0  0  0  0  0  0  0  0  0
   56.9850   27.5010   45.8440 C   0  0  0  0  0  0  0  0  0  0  0  0
   56.2840   28.7340   45.6160 N   0  0  0  0  0  0  0  0  0  0  0  0
   56.6720   29.6120   44.7380 C   0  0  0  0  0  0  0  0  0  0  0  0
   57.5440   30.5970   45.0830 N   0  0  0  0  0  0  0  0  0  0  0  0
   57.9640   31.5250   44.1800 C   0  0  0  0  0  0  0  0  0  0  0  0
   58.8660   32.5250   44.5600 O   0  0  0  0  0  0  0  0  0  0  0  0
   58.4430   33.8410   44.9190 C   0  0  0  0  0  0  0  0  0  0  0  0
   57.1500   33.7840   45.7500 C   0  0  0  0  0  0  0  0  0  0  0  0
   57.4200   33.4630   47.2250 C   0  0  0  0  0  0  0  0  0  0  0  0
   58.3420   32.3330   47.3530 N   0  0  0  0  0  0  0  0  0  0  0  0
   58.8750   31.9100   48.6170 C   0  0  0  0  0  0  0  0  0  0  0  0
   58.7090   32.6140   49.6500 O   0  0  0  0  0  0  0  0  0  0  0  0
   59.6510   30.6290   48.7200 C   0  0  0  0  0  0  0  0  0  0  0  0
   60.2100   30.2800   47.4680 O   0  0  0  0  0  0  0  0  0  0  0  0
   61.2560   31.1710   47.1370 C   0  0  0  0  0  0  0  0  0  0  0  0
   57.4920   31.4650   42.8670 C   0  0  0  0  0  0  0  0  0  0  0  0
   57.8900   32.3750   41.9420 F   0  0  0  0  0  0  0  0  0  0  0  0
   56.5980   30.4470   42.5250 C   0  0  0  0  0  0  0  0  0  0  0  0
   56.2060   29.5430   43.4630 N   0  0  0  0  0  0  0  0  0  0  0  0
   58.3820   27.4710   45.9770 C   0  0  0  0  0  0  0  0  0  0  0  0
   59.1120   28.7130   45.9790 N   0  0  0  0  0  0  0  0  0  0  0  0
   59.0250   26.2610   46.1150 N   0  0  0  0  0  0  0  0  0  0  0  0
   60.5000   26.1850   46.1810 C   0  0  0  0  0  0  0  0  0  0  0  0
   61.0090   26.7290   47.5130 C   0  0  0  0  0  0  0  0  0  0  0  0
   58.2930   25.0990   46.1990 C   0  0  0  0  0  0  0  0  0  0  0  0
   58.8860   23.9970   46.3820 O   0  0  0  0  0  0  0  0  0  0  0  0
   57.6377   23.7991   44.0626 H   0  0  0  0  0  0  0  0  0  0  0  0
   56.6556   22.7381   42.9966 H   0  0  0  0  0  0  0  0  0  0  0  0
   56.3806   24.5132   42.9966 H   0  0  0  0  0  0  0  0  0  0  0  0
   54.7552   24.1423   44.5128 H   0  0  0  0  0  0  0  0  0  0  0  0
   55.3130   22.4262   44.7571 H   0  0  0  0  0  0  0  0  0  0  0  0
   55.3307   23.9460   46.8234 H   0  0  0  0  0  0  0  0  0  0  0  0
   56.8537   23.0451   46.4305 H   0  0  0  0  0  0  0  0  0  0  0  0
   59.2328   34.3260   45.5114 H   0  0  0  0  0  0  0  0  0  0  0  0
   58.2504   34.4154   44.0008 H   0  0  0  0  0  0  0  0  0  0  0  0
   56.6456   34.7595   45.6868 H   0  0  0  0  0  0  0  0  0  0  0  0
   56.5216   32.9796   45.3400 H   0  0  0  0  0  0  0  0  0  0  0  0
   57.8621   34.3454   47.7106 H   0  0  0  0  0  0  0  0  0  0  0  0
   56.4678   33.1962   47.7068 H   0  0  0  0  0  0  0  0  0  0  0  0
   58.6030   31.8080   46.4880 H   0  0  0  0  0  0  0  0  0  0  0  0
   60.4604   30.7554   49.4541 H   0  0  0  0  0  0  0  0  0  0  0  0
   58.9685   29.8271   49.0381 H   0  0  0  0  0  0  0  0  0  0  0  0
   61.7123   31.5596   48.0594 H   0  0  0  0  0  0  0  0  0  0  0  0
   62.0173   30.6397   46.5470 H   0  0  0  0  0  0  0  0  0  0  0  0
   60.8525   32.0071   46.5470 H   0  0  0  0  0  0  0  0  0  0  0  0
   56.2113   30.3766   41.4976 H   0  0  0  0  0  0  0  0  0  0  0  0
   60.1530   28.7560   45.9640 H   0  0  0  0  0  0  0  0  0  0  0  0
   58.6260   29.6290   46.1040 H   0  0  0  0  0  0  0  0  0  0  0  0
   60.8126   25.1355   46.0764 H   0  0  0  0  0  0  0  0  0  0  0  0
   60.9222   26.7919   45.3665 H   0  0  0  0  0  0  0  0  0  0  0  0
   60.5129   26.1988   48.3393 H   0  0  0  0  0  0  0  0  0  0  0  0
   62.0963   26.5765   47.5799 H   0  0  0  0  0  0  0  0  0  0  0  0
   60.7847   27.8038   47.5799 H   0  0  0  0  0  0  0  0  0  0  0  0
  1  2  1  0
  2  3  1  0
  3  4  1  0
  4  5  1  0
  5  6  2  0
  5  7  1  0
  7  8  1  0
  8  9  2  3
  9 10  1  0
 10 11  2  0
 11 12  1  0
 12 13  1  0
 13 14  1  0
 14 15  1  0
 15 16  1  0
 16 17  1  0
 17 18  2  0
 17 19  1  0
 19 20  1  0
 20 21  1  0
 11 22  1  0
 22 23  1  0
 22 24  2  0
 24 25  1  0
  7 26  2  0
 26 27  1  0
 26 28  1  0
 28 29  1  0
 29 30  1  0
 28 31  1  0
 31 32  2  0
 31  4  1  0
 25  9  1  0
  1 33  1  0
  1 34  1  0
  1 35  1  0
  2 36  1  0
  2 37  1  0
  3 38  1  0
  3 39  1  0
 13 40  1  0
 13 41  1  0
 14 42  1  0
 14 43  1  0
 15 44  1  0
 15 45  1  0
 16 46  1  0
 19 47  1  0
 19 48  1  0
 21 49  1  0
 21 50  1  0
 21 51  1  0
 24 52  1  0
 27 53  1  0
 27 54  1  0
 29 55  1  0
 29 56  1  0
 30 57  1  0
 30 58  1  0
 30 59  1  0
M  CHG  1  25  -1
M  END
>  <UniqueID>  (11) 
11

>  <SMILES>  (11) 
CCCn1c(=O)c(N=c2nc(OCCCNC(=O)COC)c(F)c[n-]2)c(N)n(CC)c1=O

>  <Energy>  (11) 
61.347150411632335

>  <Genealogy>  (11) 
CCCn1c(=O)c(N=c2nc(OCCCNC(=O)COC)c(F)c[n-]2)c(N)n(CC)c1=O (protonated)
CCCn1c(=O)c(N=c2nc(OCCCNC(=O)COC)c(F)c[n-]2)c(N)n(CC)c1=O (3D coordinates assigned)
CCCn1c(=O)c(N=c2nc(OCCCNC(=O)COC)c(F)c[n-]2)c(N)n(CC)c1=O (optimized conformer: 61.347150411632335 kcal/mol)

>  <smiles>  (11) 
CCCn1c(=O)c(N=c2nc(OCCCNC(=O)COC)c(F)c[nH]2)c(N)n(CC)c1=O

>  <score_type>  (11) 
oracle

>  <origin>  (11) 
adg

>  <m_score__min__energy>  (11) 
-7.9699999999999998

>  <m_primary>  (11) 
energy

$$$$
11:0
     RDKit          3D

 44 47  0  0  0  0  0  0  0  0999 V2000
   58.4000   30.2130   44.4240 C   0  0  0  0  0  0  0  0  0  0  0  0
   58.5900   29.6510   45.6280 C   0  0  0  0  0  0  0  0  0  0  0  0
   58.1900   28.3690   46.0420 C   0  0  0  0  0  0  0  0  0  0  0  0
   57.6930   27.3270   45.3460 C   0  0  0  0  0  0  0  0  0  0  0  0
   57.1540   26.0860   45.9260 C   0  0  0  0  0  0  0  0  0  0  0  0
   57.9030   25.0660   46.3850 N   0  0  0  0  0  0  0  0  0  0  0  0
   56.9940   24.2400   46.9450 C   0  0  0  0  0  0  0  0  0  0  0  0
   57.3110   23.1450   47.4790 O   0  0  0  0  0  0  0  0  0  0  0  0
   55.7200   24.6840   46.8980 N   0  0  0  0  0  0  0  0  0  0  0  0
   55.8420   25.8600   46.2630 C   0  0  0  0  0  0  0  0  0  0  0  0
   54.7770   26.7140   46.0040 O   0  0  0  0  0  0  0  0  0  0  0  0
   58.4300   28.3100   47.4050 C   0  0  0  0  0  0  0  0  0  0  0  0
   59.0120   29.5080   47.7620 C   0  0  0  0  0  0  0  0  0  0  0  0
   59.4730   29.8560   49.1460 C   0  0  0  0  0  0  0  0  0  0  0  0
   59.1200   30.3170   46.6860 N   0  0  0  0  0  0  0  0  0  0  0  0
   59.6300   31.6620   46.7090 C   0  0  0  0  0  0  0  0  0  0  0  0
   58.7990   32.7400   46.3750 C   0  0  0  0  0  0  0  0  0  0  0  0
   59.2960   34.0430   46.4060 C   0  0  0  0  0  0  0  0  0  0  0  0
   60.6200   34.2810   46.7820 C   0  0  0  0  0  0  0  0  0  0  0  0
   61.4630   33.2140   47.1420 C   0  0  0  0  0  0  0  0  0  0  0  0
   62.8650   33.4770   47.5420 C   0  0  0  0  0  0  0  0  0  0  0  0
   63.5950   34.1980   46.8080 O   0  0  0  0  0  0  0  0  0  0  0  0
   63.4010   32.9380   48.7590 N   0  0  0  0  0  0  0  0  0  0  0  0
   64.8130   33.0900   49.0990 C   0  0  0  0  0  0  0  0  0  0  0  0
   65.0590   33.4620   50.5510 C   0  0  0  0  0  0  0  0  0  0  0  0
   65.3100   32.0390   50.0770 C   0  0  0  0  0  0  0  0  0  0  0  0
   60.9580   31.9020   47.0930 C   0  0  0  0  0  0  0  0  0  0  0  0
   58.7657   31.2319   44.2287 H   0  0  0  0  0  0  0  0  0  0  0  0
   57.8786   29.6547   43.6325 H   0  0  0  0  0  0  0  0  0  0  0  0
   57.6899   27.4114   44.2492 H   0  0  0  0  0  0  0  0  0  0  0  0
   58.2002   27.4682   48.0747 H   0  0  0  0  0  0  0  0  0  0  0  0
   58.8218   29.3644   49.8838 H   0  0  0  0  0  0  0  0  0  0  0  0
   60.5088   29.5126   49.2847 H   0  0  0  0  0  0  0  0  0  0  0  0
   59.4265   30.9462   49.2847 H   0  0  0  0  0  0  0  0  0  0  0  0
   57.7528   32.5582   46.0879 H   0  0  0  0  0  0  0  0  0  0  0  0
   58.6434   34.8855   46.1335 H   0  0  0  0  0  0  0  0  0  0  0  0
   61.0065   35.3108   46.7967 H   0  0  0  0  0  0  0  0  0  0  0  0
   62.7580   32.5550   49.4880 H   0  0  0  0  0  0  0  0  0  0  0  0
   65.1523   33.4812   48.1285 H   0  0  0  0  0  0  0  0  0  0  0  0
   65.9066   34.1109   50.8166 H   0  0  0  0  0  0  0  0  0  0  0  0
   64.4573   33.9214   51.3491 H   0  0  0  0  0  0  0  0  0  0  0  0
   66.3392   31.6584   49.9996 H   0  0  0  0  0  0  0  0  0  0  0  0
   64.9652   31.0424   50.3899 H   0  0  0  0  0  0  0  0  0  0  0  0
   61.6100   31.0567   47.3581 H   0  0  0  0  0  0  0  0  0  0  0  0
  1  2  2  0
  2  3  1  0
  3  4  2  3
  4  5  1  0
  5  6  1  0
  6  7  1  0
  7  8  2  0
  7  9  1  0
  9 10  1  0
 10 11  1  0
  3 12  1  0
 12 13  2  0
 13 14  1  0
 13 15  1  0
 15 16  1  0
 16 17  2  0
 17 18  1  0
 18 19  2  0
 19 20  1  0
 20 21  1  0
 21 22  2  0
 21 23  1  0
 23 24  1  0
 24 25  1  0
 25 26  1  0
 20 27  2  0
 15  2  1  0
 27 16  1  0
 10  5  2  0
 26 24  1  0
  1 28  1  0
  1 29  1  0
  4 30  1  0
 12 31  1  0
 14 32  1  0
 14 33  1  0
 14 34  1  0
 17 35  1  0
 18 36  1  0
 19 37  1  0
 23 38  1  0
 24 39  1  0
 25 40  1  0
 25 41  1  0
 26 42  1  0
 26 43  1  0
 27 44  1  0
M  CHG  3   6  -1   9  -1  11  -1
M  END
>  <UniqueID>  (12) 
12

>  <SMILES>  (12) 
C=c1c(=Cc2[n-]c(=O)[n-]c2[O-])cc(C)n1-c1cccc(C(=O)NC2CC2)c1

>  <Energy>  (12) 
386.96801750149433

>  <Genealogy>  (12) 
C=c1c(=Cc2[n-]c(=O)[n-]c2[O-])cc(C)n1-c1cccc(C(=O)NC2CC2)c1 (protonated)
C=c1c(=Cc2[n-]c(=O)[n-]c2[O-])cc(C)n1-c1cccc(C(=O)NC2CC2)c1 (3D coordinates assigned)
C=c1c(=Cc2[n-]c(=O)[n-]c2[O-])cc(C)n1-c1cccc(C(=O)NC2CC2)c1 (nonaromatic ring conformer: 386.96801750149433 kcal/mol)

>  <smiles>  (12) 
C=c1c(=Cc2[nH]c(=O)[nH]c2O)cc(C)n1-c1cccc(C(=O)NC2CC2)c1

>  <score_type>  (12) 
oracle

>  <origin>  (12) 
adg

>  <m_score__min__energy>  (12) 
-16.210000000000001

>  <m_primary>  (12) 
energy

$$$$
12:0
     RDKit          3D

 47 50  0  0  0  0  0  0  0  0999 V2000
   58.1950   31.6350   49.5890 O   0  0  0  0  0  0  0  0  0  0  0  0
   58.8690   31.9150   48.5580 C   0  0  0  0  0  0  0  0  0  0  0  0
   59.4210   33.3120   48.3890 C   0  0  0  0  0  0  0  0  0  0  0  0
   60.8940   33.3110   48.0280 C   0  0  0  0  0  0  0  0  0  0  0  0
   61.2680   33.8190   46.7700 C   0  0  0  0  0  0  0  0  0  0  0  0
   62.6050   33.8500   46.3790 C   0  0  0  0  0  0  0  0  0  0  0  0
   63.5970   33.3670   47.2270 C   0  0  0  0  0  0  0  0  0  0  0  0
   63.2600   32.8330   48.4790 C   0  0  0  0  0  0  0  0  0  0  0  0
   64.2660   32.3330   49.3190 C   0  0  0  0  0  0  0  0  0  0  0  0
   63.9390   31.7850   50.5590 C   0  0  0  0  0  0  0  0  0  0  0  0
   62.6080   31.7250   50.9700 C   0  0  0  0  0  0  0  0  0  0  0  0
   61.5940   32.2190   50.1470 C   0  0  0  0  0  0  0  0  0  0  0  0
   61.8990   32.7900   48.8910 C   0  0  0  0  0  0  0  0  0  0  0  0
   59.0760   30.8970   47.5540 N   0  0  0  0  0  0  0  0  0  0  0  0
   59.5340   31.2400   46.1970 C   0  0  0  0  0  0  0  0  0  0  0  0
   58.8540   30.3490   45.1470 C   0  0  0  0  0  0  0  0  0  0  0  0
   58.8040   28.9430   45.5690 N   0  0  0  0  0  0  0  0  0  0  0  0
   58.2630   27.9630   44.6670 C   0  0  0  0  0  0  0  0  0  0  0  0
   58.5730   28.0100   43.4460 O   0  0  0  0  0  0  0  0  0  0  0  0
   57.3110   26.9320   45.1390 C   0  0  0  0  0  0  0  0  0  0  0  0
   57.6250   25.5690   45.0680 C   0  0  0  0  0  0  0  0  0  0  0  0
   56.6910   24.6310   45.5050 C   0  0  0  0  0  0  0  0  0  0  0  0
   55.4640   25.0720   45.9970 C   0  0  0  0  0  0  0  0  0  0  0  0
   54.6030   24.2470   46.3990 O   0  0  0  0  0  0  0  0  0  0  0  0
   55.2000   26.4040   46.0390 N   0  0  0  0  0  0  0  0  0  0  0  0
   56.0940   27.3030   45.6210 N   0  0  0  0  0  0  0  0  0  0  0  0
   59.4080   28.5420   46.8430 C   0  0  0  0  0  0  0  0  0  0  0  0
   58.9390   29.4860   47.9500 C   0  0  0  0  0  0  0  0  0  0  0  0
   58.8614   33.8187   47.5889 H   0  0  0  0  0  0  0  0  0  0  0  0
   59.3113   33.8349   49.3505 H   0  0  0  0  0  0  0  0  0  0  0  0
   60.4940   34.1969   46.0858 H   0  0  0  0  0  0  0  0  0  0  0  0
   62.8778   34.2584   45.3948 H   0  0  0  0  0  0  0  0  0  0  0  0
   64.6508   33.4043   46.9136 H   0  0  0  0  0  0  0  0  0  0  0  0
   65.3174   32.3733   48.9982 H   0  0  0  0  0  0  0  0  0  0  0  0
   64.7334   31.3990   51.2147 H   0  0  0  0  0  0  0  0  0  0  0  0
   62.3557   31.2866   51.9468 H   0  0  0  0  0  0  0  0  0  0  0  0
   60.5470   32.1631   50.4798 H   0  0  0  0  0  0  0  0  0  0  0  0
   59.2890   32.2921   45.9895 H   0  0  0  0  0  0  0  0  0  0  0  0
   60.6210   31.0803   46.1423 H   0  0  0  0  0  0  0  0  0  0  0  0
   57.8268   30.7088   44.9872 H   0  0  0  0  0  0  0  0  0  0  0  0
   59.4435   30.4052   44.2200 H   0  0  0  0  0  0  0  0  0  0  0  0
   58.5978   25.2423   44.6718 H   0  0  0  0  0  0  0  0  0  0  0  0
   56.9197   23.5559   45.4620 H   0  0  0  0  0  0  0  0  0  0  0  0
   59.1034   27.5132   47.0852 H   0  0  0  0  0  0  0  0  0  0  0  0
   60.5038   28.5906   46.7601 H   0  0  0  0  0  0  0  0  0  0  0  0
   57.8817   29.2786   48.1716 H   0  0  0  0  0  0  0  0  0  0  0  0
   59.5674   29.3152   48.8365 H   0  0  0  0  0  0  0  0  0  0  0  0
  1  2  2  0
  2  3  1  0
  3  4  1  0
  4  5  2  0
  5  6  1  0
  6  7  2  0
  7  8  1  0
  8  9  2  0
  9 10  1  0
 10 11  2  0
 11 12  1  0
 12 13  2  0
  2 14  1  0
 14 15  1  0
 15 16  1  0
 16 17  1  0
 17 18  1  0
 18 19  2  0
 18 20  1  0
 20 21  1  0
 21 22  2  0
 22 23  1  0
 23 24  2  0
 23 25  1  0
 25 26  1  0
 17 27  1  0
 27 28  1  0
 13  4  1  0
 28 14  1  0
 13  8  1  0
 26 20  2  0
  3 29  1  0
  3 30  1  0
  5 31  1  0
  6 32  1  0
  7 33  1  0
  9 34  1  0
 10 35  1  0
 11 36  1  0
 12 37  1  0
 15 38  1  0
 15 39  1  0
 16 40  1  0
 16 41  1  0
 21 42  1  0
 22 43  1  0
 27 44  1  0
 27 45  1  0
 28 46  1  0
 28 47  1  0
M  CHG  1  25  -1
M  END
>  <UniqueID>  (13) 
13

>  <SMILES>  (13) 
O=C(Cc1cccc2ccccc12)N1CCN(C(=O)c2ccc(=O)[n-]n2)CC1

>  <Energy>  (13) 
62.822227862226434

>  <Genealogy>  (13) 
O=C(Cc1cccc2ccccc12)N1CCN(C(=O)c2ccc(=O)[n-]n2)CC1 (protonated)
O=C(Cc1cccc2ccccc12)N1CCN(C(=O)c2ccc(=O)[n-]n2)CC1 (3D coordinates assigned)
O=C(Cc1cccc2ccccc12)N1CCN(C(=O)c2ccc(=O)[n-]n2)CC1 (nonaromatic ring conformer: 62.822227862226434 kcal/mol)

>  <smiles>  (13) 
O=C(Cc1cccc2ccccc12)N1CCN(C(=O)c2ccc(=O)[nH]n2)CC1

>  <score_type>  (13) 
oracle

>  <origin>  (13) 
adg

>  <m_score__min__energy>  (13) 
-11.07

>  <m_primary>  (13) 
energy

$$$$
13:0
     RDKit          3D

 30 32  0  0  0  0  0  0  0  0999 V2000
   54.8400   30.4090   43.7510 O   0  0  0  0  0  0  0  0  0  0  0  0
   55.8360   30.1050   44.4550 C   0  0  0  0  0  0  0  0  0  0  0  0
   55.9990   28.8270   44.8810 N   0  0  0  0  0  0  0  0  0  0  0  0
   57.0700   28.4670   45.6410 C   0  0  0  0  0  0  0  0  0  0  0  0
   57.1910   27.0650   46.1040 C   0  0  0  0  0  0  0  0  0  0  0  0
   58.4630   26.5580   46.4250 C   0  0  0  0  0  0  0  0  0  0  0  0
   58.6130   25.2380   46.8590 C   0  0  0  0  0  0  0  0  0  0  0  0
   57.4960   24.4100   46.9850 C   0  0  0  0  0  0  0  0  0  0  0  0
   57.6540   23.0970   47.4120 O   0  0  0  0  0  0  0  0  0  0  0  0
   56.2210   24.9050   46.6880 C   0  0  0  0  0  0  0  0  0  0  0  0
   55.1080   24.0830   46.8280 O   0  0  0  0  0  0  0  0  0  0  0  0
   56.0620   26.2290   46.2580 C   0  0  0  0  0  0  0  0  0  0  0  0
   54.7800   26.7120   46.0110 O   0  0  0  0  0  0  0  0  0  0  0  0
   58.0090   29.4430   46.0060 C   0  0  0  0  0  0  0  0  0  0  0  0
   57.8370   30.7590   45.5480 C   0  0  0  0  0  0  0  0  0  0  0  0
   58.7960   31.8380   45.8950 C   0  0  0  0  0  0  0  0  0  0  0  0
   58.5670   33.1530   45.4440 C   0  0  0  0  0  0  0  0  0  0  0  0
   59.4650   34.1780   45.7560 C   0  0  0  0  0  0  0  0  0  0  0  0
   60.6040   33.9040   46.5150 C   0  0  0  0  0  0  0  0  0  0  0  0
   60.8510   32.6040   46.9580 C   0  0  0  0  0  0  0  0  0  0  0  0
   59.9570   31.5740   46.6500 C   0  0  0  0  0  0  0  0  0  0  0  0
   56.7470   31.0540   44.7870 N   0  0  0  0  0  0  0  0  0  0  0  0
   59.3473   27.2059   46.3337 H   0  0  0  0  0  0  0  0  0  0  0  0
   59.6134   24.8506   47.1019 H   0  0  0  0  0  0  0  0  0  0  0  0
   58.8676   29.1812   46.6418 H   0  0  0  0  0  0  0  0  0  0  0  0
   57.6740   33.3750   44.8413 H   0  0  0  0  0  0  0  0  0  0  0  0
   59.2737   35.2021   45.4028 H   0  0  0  0  0  0  0  0  0  0  0  0
   61.3068   34.7128   46.7639 H   0  0  0  0  0  0  0  0  0  0  0  0
   61.7519   32.3889   47.5514 H   0  0  0  0  0  0  0  0  0  0  0  0
   60.1609   30.5510   46.9991 H   0  0  0  0  0  0  0  0  0  0  0  0
  1  2  2  0
  2  3  1  0
  3  4  2  0
  4  5  1  0
  5  6  2  0
  6  7  1  0
  7  8  2  0
  8  9  1  0
  8 10  1  0
 10 11  1  0
 10 12  2  0
 12 13  1  0
  4 14  1  0
 14 15  2  0
 15 16  1  0
 16 17  2  0
 17 18  1  0
 18 19  2  0
 19 20  1  0
 20 21  2  0
 15 22  1  0
 22  2  1  0
 12  5  1  0
 21 16  1  0
  6 23  1  0
  7 24  1  0
 14 25  1  0
 17 26  1  0
 18 27  1  0
 19 28  1  0
 20 29  1  0
 21 30  1  0
M  CHG  4   9  -1  11  -1  13  -1  22  -1
M  END
>  <UniqueID>  (14) 
14

>  <SMILES>  (14) 
O=c1nc(-c2ccc([O-])c([O-])c2[O-])cc(-c2ccccc2)[n-]1

>  <Energy>  (14) 
44.598454638247254

>  <Genealogy>  (14) 
O=c1nc(-c2ccc([O-])c([O-])c2[O-])cc(-c2ccccc2)[n-]1 (protonated)
O=c1nc(-c2ccc([O-])c([O-])c2[O-])cc(-c2ccccc2)[n-]1 (3D coordinates assigned)
O=c1nc(-c2ccc([O-])c([O-])c2[O-])cc(-c2ccccc2)[n-]1 (optimized conformer: 44.598454638247254 kcal/mol)

>  <smiles>  (14) 
O=c1nc(-c2ccc(O)c(O)c2O)cc(-c2ccccc2)[nH]1

>  <score_type>  (14) 
oracle

>  <origin>  (14) 
adg

>  <m_score__min__energy>  (14) 
-17.449999999999999

>  <m_primary>  (14) 
energy

$$$$
14:0
     RDKit          3D

 51 53  0  0  0  0  0  0  0  0999 V2000
   59.5460   28.0700   47.7320 O   0  0  0  0  0  0  0  0  0  0  0  0
   58.7140   27.5950   46.9120 C   0  0  0  0  0  0  0  0  0  0  0  0
   58.4940   28.2400   45.6550 N   0  0  0  0  0  0  0  0  0  0  0  0
   58.1900   29.6330   45.5200 C   0  0  0  0  0  0  0  0  0  0  0  0
   59.0830   30.5700   46.0490 C   0  0  0  0  0  0  0  0  0  0  0  0
   58.7940   31.9400   45.9880 C   0  0  0  0  0  0  0  0  0  0  0  0
   59.8920   33.0890   46.7500 S   0  0  0  0  0  0  0  0  0  0  0  0
   59.1070   34.1590   47.4580 O   0  0  0  0  0  0  0  0  0  0  0  0
   60.7190   33.7330   45.6720 O   0  0  0  0  0  0  0  0  0  0  0  0
   60.9460   32.2610   47.8770 N   0  0  0  0  0  0  0  0  0  0  0  0
   61.3380   33.1250   49.0050 C   0  0  0  0  0  0  0  0  0  0  0  0
   62.3800   34.1910   48.5930 C   0  0  0  0  0  0  0  0  0  0  0  0
   63.0660   33.8810   47.3910 O   0  0  0  0  0  0  0  0  0  0  0  0
   63.3920   32.5110   47.3520 C   0  0  0  0  0  0  0  0  0  0  0  0
   62.1170   31.6630   47.1980 C   0  0  0  0  0  0  0  0  0  0  0  0
   57.6170   32.3730   45.3650 C   0  0  0  0  0  0  0  0  0  0  0  0
   56.7380   31.4430   44.8040 C   0  0  0  0  0  0  0  0  0  0  0  0
   57.0190   30.0710   44.8750 C   0  0  0  0  0  0  0  0  0  0  0  0
   56.1490   29.1490   44.2930 O   0  0  0  0  0  0  0  0  0  0  0  0
   58.0390   26.3610   47.1900 N   0  0  0  0  0  0  0  0  0  0  0  0
   57.3480   25.5170   46.2080 C   0  0  1  0  0  0  0  0  0  0  0  0
   57.9310   24.0800   46.1840 C   0  0  0  0  0  0  0  0  0  0  0  0
   57.5500   23.2730   44.9640 C   0  0  0  0  0  0  0  0  0  0  0  0
   58.1610   22.0300   44.7220 C   0  0  0  0  0  0  0  0  0  0  0  0
   57.7750   21.2540   43.6250 C   0  0  0  0  0  0  0  0  0  0  0  0
   56.7840   21.7160   42.7560 C   0  0  0  0  0  0  0  0  0  0  0  0
   56.1830   22.9570   42.9790 C   0  0  0  0  0  0  0  0  0  0  0  0
   56.5640   23.7360   44.0770 C   0  0  0  0  0  0  0  0  0  0  0  0
   55.8480   25.5770   46.3700 C   0  0  0  0  0  0  0  0  0  0  0  0
   55.1980   24.5640   46.7390 O   0  0  0  0  0  0  0  0  0  0  0  0
   55.1550   26.7250   46.0000 O   0  0  0  0  0  0  0  0  0  0  0  0
   60.0188   30.2295   46.5163 H   0  0  0  0  0  0  0  0  0  0  0  0
   60.4419   33.6355   49.3877 H   0  0  0  0  0  0  0  0  0  0  0  0
   61.7960   32.4865   49.7748 H   0  0  0  0  0  0  0  0  0  0  0  0
   61.8605   35.1513   48.4589 H   0  0  0  0  0  0  0  0  0  0  0  0
   63.1339   34.2307   49.3931 H   0  0  0  0  0  0  0  0  0  0  0  0
   64.0595   32.3209   46.4986 H   0  0  0  0  0  0  0  0  0  0  0  0
   63.8937   32.2356   48.2914 H   0  0  0  0  0  0  0  0  0  0  0  0
   61.8888   31.5626   46.1266 H   0  0  0  0  0  0  0  0  0  0  0  0
   62.3094   30.6868   47.6671 H   0  0  0  0  0  0  0  0  0  0  0  0
   57.3841   33.4470   45.3172 H   0  0  0  0  0  0  0  0  0  0  0  0
   55.8211   31.7888   44.3042 H   0  0  0  0  0  0  0  0  0  0  0  0
   56.2020   28.1610   44.5080 H   0  0  0  0  0  0  0  0  0  0  0  0
   57.5412   25.9276   45.2059 H   0  0  0  0  0  0  0  0  0  0  0  0
   59.0280   24.1529   46.2197 H   0  0  0  0  0  0  0  0  0  0  0  0
   57.5082   23.5546   47.0531 H   0  0  0  0  0  0  0  0  0  0  0  0
   58.9473   21.6660   45.3997 H   0  0  0  0  0  0  0  0  0  0  0  0
   58.2520   20.2791   43.4462 H   0  0  0  0  0  0  0  0  0  0  0  0
   56.4768   21.1026   41.8961 H   0  0  0  0  0  0  0  0  0  0  0  0
   55.4080   23.3229   42.2894 H   0  0  0  0  0  0  0  0  0  0  0  0
   56.0900   24.7141   44.2462 H   0  0  0  0  0  0  0  0  0  0  0  0
  1  2  2  0
  2  3  1  0
  3  4  1  0
  4  5  2  0
  5  6  1  0
  6  7  1  0
  7  8  2  0
  7  9  2  0
  7 10  1  0
 10 11  1  0
 11 12  1  0
 12 13  1  0
 13 14  1  0
 14 15  1  0
  6 16  2  0
 16 17  1  0
 17 18  2  0
 18 19  1  0
  2 20  1  0
 20 21  1  0
 21 22  1  0
 22 23  1  0
 23 24  2  0
 24 25  1  0
 25 26  2  0
 26 27  1  0
 27 28  2  0
 21 29  1  0
 29 30  2  0
 29 31  1  0
 18  4  1  0
 28 23  1  0
 15 10  1  0
  5 32  1  0
 11 33  1  0
 11 34  1  0
 12 35  1  0
 12 36  1  0
 14 37  1  0
 14 38  1  0
 15 39  1  0
 15 40  1  0
 16 41  1  0
 17 42  1  0
 19 43  1  0
 21 44  1  6
 22 45  1  0
 22 46  1  0
 24 47  1  0
 25 48  1  0
 26 49  1  0
 27 50  1  0
 28 51  1  0
M  CHG  3   3  -1  20  -1  31  -1
M  END
>  <UniqueID>  (15) 
15

>  <SMILES>  (15) 
O=C([N-]c1cc(S(=O)(=O)N2CCOCC2)ccc1O)[N-][C@@H](Cc1ccccc1)C(=O)[O-]

>  <Energy>  (15) 
67.68018554666543

>  <Genealogy>  (15) 
O=C([N-]c1cc(S(=O)(=O)N2CCOCC2)ccc1O)[N-]C(Cc1ccccc1)C(=O)[O-] (protonated)
O=C([N-]c1cc(S(=O)(=O)N2CCOCC2)ccc1O)[N-][C@@H](Cc1ccccc1)C(=O)[O-] (chirality)
O=C([N-]c1cc(S(=O)(=O)N2CCOCC2)ccc1O)[N-][C@@H](Cc1ccccc1)C(=O)[O-] (3D coordinates assigned)
O=C([N-]c1cc(S(=O)(=O)N2CCOCC2)ccc1O)[N-][C@@H](Cc1ccccc1)C(=O)[O-] (nonaromatic ring conformer: 67.68018554666543 kcal/mol)

>  <smiles>  (15) 
O=C(Nc1cc(S(=O)(=O)N2CCOCC2)ccc1O)NC(Cc1ccccc1)C(=O)O

>  <score_type>  (15) 
oracle

>  <origin>  (15) 
adg

>  <m_score__min__energy>  (15) 
-14.1

>  <m_primary>  (15) 
energy

$$$$
15:0
     RDKit          3D

 36 37  0  0  0  0  0  0  0  0999 V2000
   54.0640   28.9660   44.4860 H   0  0  0  0  0  0  0  0  0  0  0  0
   54.7930   29.5910   44.1620 O   0  0  0  0  0  0  0  0  0  0  0  0
   56.1290   29.3890   44.5040 C   0  0  0  0  0  0  0  0  0  0  0  0
   57.1140   30.2950   44.0900 C   0  0  0  0  0  0  0  0  0  0  0  0
   56.8333   31.1740   43.4912 H   0  0  0  0  0  0  0  0  0  0  0  0
   58.4520   30.0860   44.4350 C   0  0  0  0  0  0  0  0  0  0  0  0
   59.2167   30.8155   44.1300 H   0  0  0  0  0  0  0  0  0  0  0  0
   58.8250   28.9460   45.1710 C   0  0  0  0  0  0  0  0  0  0  0  0
   60.2270   28.7170   45.5850 C   0  0  0  0  0  0  0  0  0  0  0  0
   60.5852   27.6770   45.5900 H   0  0  0  0  0  0  0  0  0  0  0  0
   61.1000   29.6670   45.9550 C   0  0  0  0  0  0  0  0  0  0  0  0
   62.0599   29.7064   45.4192 H   0  0  0  0  0  0  0  0  0  0  0  0
   60.8790   30.6620   47.0200 C   0  0  0  0  0  0  0  0  0  0  0  0
   61.7150   31.5950   47.1650 O   0  0  0  0  0  0  0  0  0  0  0  0
   59.7320   30.6120   47.8190 O   0  0  0  0  0  0  0  0  0  0  0  0
   59.5190   31.5050   48.9080 C   0  0  0  0  0  0  0  0  0  0  0  0
   59.3235   30.9246   49.8217 H   0  0  0  0  0  0  0  0  0  0  0  0
   60.4160   32.1268   49.0447 H   0  0  0  0  0  0  0  0  0  0  0  0
   58.3220   32.4100   48.6180 C   0  0  0  0  0  0  0  0  0  0  0  0
   57.4174   31.7908   48.5272 H   0  0  0  0  0  0  0  0  0  0  0  0
   58.2186   33.1276   49.4453 H   0  0  0  0  0  0  0  0  0  0  0  0
   58.5210   33.1820   47.3370 C   0  0  0  0  0  0  0  0  0  0  0  0
   57.7210   32.8890   46.2190 C   0  0  0  0  0  0  0  0  0  0  0  0
   56.9753   32.0824   46.2769 H   0  0  0  0  0  0  0  0  0  0  0  0
   57.8670   33.6160   45.0340 C   0  0  0  0  0  0  0  0  0  0  0  0
   57.2398   33.3772   44.1624 H   0  0  0  0  0  0  0  0  0  0  0  0
   58.8070   34.6440   44.9550 C   0  0  0  0  0  0  0  0  0  0  0  0
   58.9217   35.2133   44.0208 H   0  0  0  0  0  0  0  0  0  0  0  0
   59.6030   34.9510   46.0620 C   0  0  0  0  0  0  0  0  0  0  0  0
   60.3418   35.7634   45.9977 H   0  0  0  0  0  0  0  0  0  0  0  0
   59.4630   34.2280   47.2520 C   0  0  0  0  0  0  0  0  0  0  0  0
   60.2630   34.5540   48.3410 O   0  0  0  0  0  0  0  0  0  0  0  0
   57.8300   28.0610   45.6130 C   0  0  0  0  0  0  0  0  0  0  0  0
   58.1053   27.1928   46.2298 H   0  0  0  0  0  0  0  0  0  0  0  0
   56.4900   28.2760   45.2740 C   0  0  0  0  0  0  0  0  0  0  0  0
   55.5180   27.3780   45.7010 O   0  0  0  0  0  0  0  0  0  0  0  0
  1  2  1  0
  2  3  1  0
  3  4  2  0
  4  5  1  0
  4  6  1  0
  6  7  1  0
  6  8  2  0
  8  9  1  0
  9 10  1  0
  9 11  2  0
 11 12  1  0
 11 13  1  0
 13 14  2  0
 13 15  1  0
 15 16  1  0
 16 17  1  0
 16 18  1  0
 16 19  1  0
 19 20  1  0
 19 21  1  0
 19 22  1  0
 22 23  2  0
 23 24  1  0
 23 25  1  0
 25 26  1  0
 25 27  2  0
 27 28  1  0
 27 29  1  0
 29 30  1  0
 29 31  2  0
 31 32  1  0
  8 33  1  0
 33 34  1  0
 33 35  2  0
 35 36  1  0
 35  3  1  0
 31 22  1  0
M  CHG  2  32  -1  36  -1
M  END
>  <UniqueID>  (16) 
16

>  <SMILES>  (16) 
O=C(/C=C\c1ccc(O)c([O-])c1)OCCc1ccccc1[O-]

>  <Energy>  (16) 
37.407583659049976

>  <Genealogy>  (16) 
O=C(C=Cc1ccc(O)c([O-])c1)OCCc1ccccc1[O-] (protonated)
O=C(/C=C\c1ccc(O)c([O-])c1)OCCc1ccccc1[O-] (cis-trans isomerization)
O=C(/C=C\c1ccc(O)c([O-])c1)OCCc1ccccc1[O-] (3D coordinates assigned)
O=C(/C=C\c1ccc(O)c([O-])c1)OCCc1ccccc1[O-] (optimized conformer: 37.407583659049976 kcal/mol)

>  <smiles>  (16) 
O=C(C=Cc1ccc(O)c(O)c1)OCCc1ccccc1O

>  <score_type>  (16) 
oracle

>  <origin>  (16) 
adg

>  <m_score__min__energy>  (16) 
-12.99

>  <m_primary>  (16) 
energy

$$$$
16:0
     RDKit          3D

 44 46  0  0  0  0  0  0  0  0999 V2000
   51.0190   33.5470   49.2840 H   0  0  0  0  0  0  0  0  0  0  0  0
   50.4940   32.7060   48.9550 N   0  0  0  0  0  0  0  0  0  0  0  0
   50.9950   31.3910   49.1870 C   0  0  0  0  0  0  0  0  0  0  0  0
   50.7430   30.4890   48.3430 O   0  0  0  0  0  0  0  0  0  0  0  0
   51.8000   31.0740   50.3990 C   0  0  0  0  0  0  0  0  0  0  0  0
   52.7960   30.0810   50.3250 C   0  0  0  0  0  0  0  0  0  0  0  0
   52.9687   29.5548   49.3746 H   0  0  0  0  0  0  0  0  0  0  0  0
   53.5670   29.7560   51.4430 C   0  0  0  0  0  0  0  0  0  0  0  0
   54.3474   28.9850   51.3624 H   0  0  0  0  0  0  0  0  0  0  0  0
   53.3550   30.4020   52.6620 C   0  0  0  0  0  0  0  0  0  0  0  0
   54.1610   30.0560   53.7570 O   0  0  0  0  0  0  0  0  0  0  0  0
   55.4580   29.5290   53.6780 C   0  0  0  0  0  0  0  0  0  0  0  0
   56.1670   29.7080   52.5310 N   0  0  0  0  0  0  0  0  0  0  0  0
   57.4240   29.2060   52.3620 C   0  0  0  0  0  0  0  0  0  0  0  0
   58.0930   29.4140   51.2640 N   0  0  0  0  0  0  0  0  0  0  0  0
   58.5200   30.6840   50.7420 C   0  0  0  0  0  0  0  0  0  0  0  0
   58.7800   30.7930   49.3740 C   0  0  0  0  0  0  0  0  0  0  0  0
   58.6749   29.9095   48.7272 H   0  0  0  0  0  0  0  0  0  0  0  0
   59.1720   32.0130   48.8200 C   0  0  0  0  0  0  0  0  0  0  0  0
   59.3882   32.0809   47.7436 H   0  0  0  0  0  0  0  0  0  0  0  0
   59.2920   33.1570   49.6320 C   0  0  0  0  0  0  0  0  0  0  0  0
   59.6900   34.4000   49.1140 O   0  0  0  0  0  0  0  0  0  0  0  0
   60.2230   34.5950   47.8080 C   0  0  0  0  0  0  0  0  0  0  0  0
   61.2535   34.9720   47.8851 H   0  0  0  0  0  0  0  0  0  0  0  0
   60.2222   33.6383   47.2650 H   0  0  0  0  0  0  0  0  0  0  0  0
   59.6050   35.3253   47.2650 H   0  0  0  0  0  0  0  0  0  0  0  0
   59.0010   33.0670   51.0020 C   0  0  0  0  0  0  0  0  0  0  0  0
   59.1130   34.2280   51.7840 O   0  0  0  0  0  0  0  0  0  0  0  0
   58.6580   34.3430   53.1280 C   0  0  0  0  0  0  0  0  0  0  0  0
   59.4901   34.1327   53.8161 H   0  0  0  0  0  0  0  0  0  0  0  0
   58.2863   35.3633   53.3032 H   0  0  0  0  0  0  0  0  0  0  0  0
   57.8461   33.6218   53.3032 H   0  0  0  0  0  0  0  0  0  0  0  0
   58.6020   31.8320   51.5500 C   0  0  0  0  0  0  0  0  0  0  0  0
   58.3524   31.7651   52.6192 H   0  0  0  0  0  0  0  0  0  0  0  0
   58.0230   28.4900   53.4030 C   0  0  0  0  0  0  0  0  0  0  0  0
   59.0450   28.0991   53.2902 H   0  0  0  0  0  0  0  0  0  0  0  0
   57.3150   28.2750   54.5860 C   0  0  0  0  0  0  0  0  0  0  0  0
   57.7732   27.7021   55.4057 H   0  0  0  0  0  0  0  0  0  0  0  0
   56.0240   28.7880   54.7280 C   0  0  0  0  0  0  0  0  0  0  0  0
   55.4558   28.6133   55.6536 H   0  0  0  0  0  0  0  0  0  0  0  0
   52.3810   31.4110   52.7450 C   0  0  0  0  0  0  0  0  0  0  0  0
   52.2275   31.9440   53.6949 H   0  0  0  0  0  0  0  0  0  0  0  0
   51.6040   31.7440   51.6290 C   0  0  0  0  0  0  0  0  0  0  0  0
   50.6510   32.7470   51.7650 O   0  0  0  0  0  0  0  0  0  0  0  0
  1  2  1  0
  2  3  1  0
  3  4  2  0
  3  5  1  0
  5  6  2  0
  6  7  1  0
  6  8  1  0
  8  9  1  0
  8 10  2  0
 10 11  1  0
 11 12  1  0
 12 13  1  0
 13 14  1  0
 14 15  2  0
 15 16  1  0
 16 17  2  0
 17 18  1  0
 17 19  1  0
 19 20  1  0
 19 21  2  0
 21 22  1  0
 22 23  1  0
 23 24  1  0
 23 25  1  0
 23 26  1  0
 21 27  1  0
 27 28  1  0
 28 29  1  0
 29 30  1  0
 29 31  1  0
 29 32  1  0
 27 33  2  0
 33 34  1  0
 14 35  1  0
 35 36  1  0
 35 37  2  0
 37 38  1  0
 37 39  1  0
 39 40  1  0
 10 41  1  0
 41 42  1  0
 41 43  2  0
 43 44  1  0
 43  5  1  0
 39 12  2  0
 33 16  1  0
M  CHG  3   2  -1  13  -1  44  -1
M  END
>  <UniqueID>  (17) 
17

>  <SMILES>  (17) 
COc1ccc(/N=c2/cccc(Oc3ccc(C([NH-])=O)c([O-])c3)[n-]2)cc1OC

>  <Energy>  (17) 
61.45885979455114

>  <Genealogy>  (17) 
COc1ccc(N=c2cccc(Oc3ccc(C([NH-])=O)c([O-])c3)[n-]2)cc1OC (protonated)
COc1ccc(/N=c2/cccc(Oc3ccc(C([NH-])=O)c([O-])c3)[n-]2)cc1OC (cis-trans isomerization)
COc1ccc(/N=c2/cccc(Oc3ccc(C([NH-])=O)c([O-])c3)[n-]2)cc1OC (3D coordinates assigned)
COc1ccc(/N=c2/cccc(Oc3ccc(C([NH-])=O)c([O-])c3)[n-]2)cc1OC (optimized conformer: 61.45885979455114 kcal/mol)

>  <smiles>  (17) 
COc1ccc(N=c2cccc(Oc3ccc(C(N)=O)c(O)c3)[nH]2)cc1OC

>  <score_type>  (17) 
oracle

>  <origin>  (17) 
adg

>  <m_score__min__energy>  (17) 
-15.85

>  <m_primary>  (17) 
energy

$$$$
17:0
     RDKit          3D

 36 38  0  0  0  0  0  0  0  0999 V2000
   59.4060   28.7850   44.7500 O   0  0  0  0  0  0  0  0  0  0  0  0
   58.4820   28.9210   45.5950 C   0  0  0  0  0  0  0  0  0  0  0  0
   58.3440   30.1420   46.3310 N   0  0  0  0  0  0  0  0  0  0  0  0
   58.1770   31.4400   45.7430 C   0  0  0  0  0  0  0  0  0  0  0  0
   57.9100   31.5070   44.3690 C   0  0  0  0  0  0  0  0  0  0  0  0
   57.7240   32.7400   43.7410 C   0  0  0  0  0  0  0  0  0  0  0  0
   57.8280   33.9200   44.4750 C   0  0  0  0  0  0  0  0  0  0  0  0
   58.1280   33.8730   45.8380 C   0  0  0  0  0  0  0  0  0  0  0  0
   58.3060   32.6390   46.4920 C   0  0  0  0  0  0  0  0  0  0  0  0
   58.7220   32.6360   47.9170 C   0  0  0  0  0  0  0  0  0  0  0  0
   58.1980   31.8100   48.7090 O   0  0  0  0  0  0  0  0  0  0  0  0
   59.7750   33.4780   48.4100 N   0  0  0  0  0  0  0  0  0  0  0  0
   61.1520   33.1230   48.6270 C   0  0  0  0  0  0  0  0  0  0  0  0
   62.1990   33.8280   48.0040 C   0  0  0  0  0  0  0  0  0  0  0  0
   63.5290   33.4780   48.2470 C   0  0  0  0  0  0  0  0  0  0  0  0
   63.8300   32.4340   49.1240 C   0  0  0  0  0  0  0  0  0  0  0  0
   65.1220   32.0980   49.3600 F   0  0  0  0  0  0  0  0  0  0  0  0
   62.8000   31.7430   49.7640 C   0  0  0  0  0  0  0  0  0  0  0  0
   61.4630   32.0840   49.5270 C   0  0  0  0  0  0  0  0  0  0  0  0
   60.4620   31.3730   50.1900 O   0  0  0  0  0  0  0  0  0  0  0  0
   57.5540   27.8120   45.8510 C   0  0  0  0  0  0  0  0  0  0  0  0
   57.9070   26.5700   46.3490 C   0  0  0  0  0  0  0  0  0  0  0  0
   56.7400   25.8420   46.4270 C   0  0  0  0  0  0  0  0  0  0  0  0
   55.7480   26.6820   45.9730 C   0  0  0  0  0  0  0  0  0  0  0  0
   54.4050   26.3410   45.8850 O   0  0  0  0  0  0  0  0  0  0  0  0
   56.2270   27.8880   45.6170 N   0  0  0  0  0  0  0  0  0  0  0  0
   57.8464   30.5801   43.7801 H   0  0  0  0  0  0  0  0  0  0  0  0
   57.4951   32.7801   42.6658 H   0  0  0  0  0  0  0  0  0  0  0  0
   57.6735   34.8901   43.9799 H   0  0  0  0  0  0  0  0  0  0  0  0
   58.2262   34.8096   46.4065 H   0  0  0  0  0  0  0  0  0  0  0  0
   61.9683   34.6595   47.3218 H   0  0  0  0  0  0  0  0  0  0  0  0
   64.3410   34.0259   47.7465 H   0  0  0  0  0  0  0  0  0  0  0  0
   63.0403   30.9251   50.4592 H   0  0  0  0  0  0  0  0  0  0  0  0
   59.4800   31.4790   49.9640 H   0  0  0  0  0  0  0  0  0  0  0  0
   58.9163   26.2321   46.6267 H   0  0  0  0  0  0  0  0  0  0  0  0
   56.6248   24.8061   46.7785 H   0  0  0  0  0  0  0  0  0  0  0  0
  1  2  2  0
  2  3  1  0
  3  4  1  0
  4  5  2  0
  5  6  1  0
  6  7  2  0
  7  8  1  0
  8  9  2  0
  9 10  1  0
 10 11  2  0
 10 12  1  0
 12 13  1  0
 13 14  2  0
 14 15  1  0
 15 16  2  0
 16 17  1  0
 16 18  1  0
 18 19  2  0
 19 20  1  0
  2 21  1  0
 21 22  2  0
 22 23  1  0
 23 24  2  0
 24 25  1  0
 24 26  1  0
  9  4  1  0
 19 13  1  0
 26 21  1  0
  5 27  1  0
  6 28  1  0
  7 29  1  0
  8 30  1  0
 14 31  1  0
 15 32  1  0
 18 33  1  0
 20 34  1  0
 22 35  1  0
 23 36  1  0
M  CHG  4   3  -1  12  -1  25  -1  26  -1
M  END
>  <UniqueID>  (18) 
18

>  <SMILES>  (18) 
O=C([N-]c1ccccc1C(=O)[N-]c1ccc(F)cc1O)c1ccc([O-])[n-]1

>  <Energy>  (18) 
77.94209779064357

>  <Genealogy>  (18) 
O=C([N-]c1ccccc1C(=O)[N-]c1ccc(F)cc1O)c1ccc([O-])[n-]1 (protonated)
O=C([N-]c1ccccc1C(=O)[N-]c1ccc(F)cc1O)c1ccc([O-])[n-]1 (3D coordinates assigned)
O=C([N-]c1ccccc1C(=O)[N-]c1ccc(F)cc1O)c1ccc([O-])[n-]1 (optimized conformer: 77.94209779064357 kcal/mol)

>  <smiles>  (18) 
O=C(Nc1ccccc1C(=O)Nc1ccc(F)cc1O)c1ccc(O)[nH]1

>  <score_type>  (18) 
oracle

>  <origin>  (18) 
adg

>  <m_score__min__energy>  (18) 
-14.83

>  <m_primary>  (18) 
energy

$$$$
18:0
     RDKit          3D

 64 67  0  0  0  0  0  0  0  0999 V2000
   61.0570   32.8540   47.8830 N   0  0  0  0  0  0  0  0  0  0  0  0
   62.2120   32.6080   48.6960 C   0  0  0  0  0  0  0  0  0  0  0  0
   63.2360   33.5690   48.7240 C   0  0  0  0  0  0  0  0  0  0  0  0
   64.3990   33.3460   49.4630 C   0  0  0  0  0  0  0  0  0  0  0  0
   64.5500   32.1660   50.1880 C   0  0  0  0  0  0  0  0  0  0  0  0
   63.5320   31.2100   50.1890 C   0  0  0  0  0  0  0  0  0  0  0  0
   62.3520   31.4220   49.4570 C   0  0  0  0  0  0  0  0  0  0  0  0
   61.0690   30.2060   49.5410 S   0  0  0  0  0  0  0  0  0  0  0  0
   61.4600   29.1010   50.4810 O   0  0  0  0  0  0  0  0  0  0  0  0
   59.8260   30.8580   50.0780 O   0  0  0  0  0  0  0  0  0  0  0  0
   60.8230   29.5330   47.9580 N   0  0  0  0  0  0  0  0  0  0  0  0
   60.1370   28.2980   47.6940 C   0  0  0  0  0  0  0  0  0  0  0  0
   58.8330   28.0600   48.1590 C   0  0  0  0  0  0  0  0  0  0  0  0
   58.1790   26.8640   47.8460 C   0  0  0  0  0  0  0  0  0  0  0  0
   58.8250   25.8760   47.0870 C   0  0  0  0  0  0  0  0  0  0  0  0
   58.1070   24.6280   46.7370 C   0  0  0  0  0  0  0  0  0  0  0  0
   57.7150   23.8740   47.6660 O   0  0  0  0  0  0  0  0  0  0  0  0
   57.7910   24.2630   45.3830 N   0  0  0  0  0  0  0  0  0  0  0  0
   56.9270   24.9990   44.4620 C   0  0  0  0  0  0  0  0  0  0  0  0
   57.7710   25.8870   43.5360 C   0  0  0  0  0  0  0  0  0  0  0  0
   58.0240   27.2410   44.1510 C   0  0  0  0  0  0  0  0  0  0  0  0
   57.0250   27.8740   44.9070 C   0  0  0  0  0  0  0  0  0  0  0  0
   57.2790   29.1040   45.5210 C   0  0  0  0  0  0  0  0  0  0  0  0
   58.5350   29.7140   45.3910 C   0  0  0  0  0  0  0  0  0  0  0  0
   58.8800   31.2350   46.2120 S   0  0  0  0  0  0  0  0  0  0  0  0
   58.6480   31.0530   47.6860 O   0  0  0  0  0  0  0  0  0  0  0  0
   60.3290   31.5850   46.0160 O   0  0  0  0  0  0  0  0  0  0  0  0
   57.8810   32.5530   45.6330 N   0  0  0  0  0  0  0  0  0  0  0  0
   58.4570   33.2390   44.4560 C   0  0  0  0  0  0  0  0  0  0  0  0
   59.0930   34.5950   44.8040 C   0  0  0  0  0  0  0  0  0  0  0  0
   59.6290   34.5630   46.1060 O   0  0  0  0  0  0  0  0  0  0  0  0
   58.5810   34.5100   47.0570 C   0  0  0  0  0  0  0  0  0  0  0  0
   57.4840   33.4750   46.7130 C   0  0  0  0  0  0  0  0  0  0  0  0
   59.5230   29.0980   44.6110 C   0  0  0  0  0  0  0  0  0  0  0  0
   59.2710   27.8690   43.9970 C   0  0  0  0  0  0  0  0  0  0  0  0
   60.1630   26.0740   46.7140 C   0  0  0  0  0  0  0  0  0  0  0  0
   60.8060   27.2810   46.9990 C   0  0  0  0  0  0  0  0  0  0  0  0
   60.1300   32.4230   48.0860 H   0  0  0  0  0  0  0  0  0  0  0  0
   61.1390   33.4060   47.0000 H   0  0  0  0  0  0  0  0  0  0  0  0
   63.1204   34.5055   48.1586 H   0  0  0  0  0  0  0  0  0  0  0  0
   65.1972   34.1028   49.4729 H   0  0  0  0  0  0  0  0  0  0  0  0
   65.4722   31.9871   50.7603 H   0  0  0  0  0  0  0  0  0  0  0  0
   63.6553   30.2829   50.7680 H   0  0  0  0  0  0  0  0  0  0  0  0
   61.0010   30.1780   47.1570 H   0  0  0  0  0  0  0  0  0  0  0  0
   58.3238   28.8180   48.7723 H   0  0  0  0  0  0  0  0  0  0  0  0
   57.1502   26.6964   48.1975 H   0  0  0  0  0  0  0  0  0  0  0  0
   56.3516   24.2847   43.8548 H   0  0  0  0  0  0  0  0  0  0  0  0
   56.2432   25.6352   45.0431 H   0  0  0  0  0  0  0  0  0  0  0  0
   58.7359   25.3932   43.3487 H   0  0  0  0  0  0  0  0  0  0  0  0
   57.2173   26.0318   42.5966 H   0  0  0  0  0  0  0  0  0  0  0  0
   56.0383   27.4004   45.0168 H   0  0  0  0  0  0  0  0  0  0  0  0
   56.4899   29.5957   46.1089 H   0  0  0  0  0  0  0  0  0  0  0  0
   59.2300   32.5916   44.0162 H   0  0  0  0  0  0  0  0  0  0  0  0
   57.6343   33.4319   43.7517 H   0  0  0  0  0  0  0  0  0  0  0  0
   59.8969   34.8139   44.0858 H   0  0  0  0  0  0  0  0  0  0  0  0
   58.3203   35.3763   44.7539 H   0  0  0  0  0  0  0  0  0  0  0  0
   59.0117   34.2483   48.0348 H   0  0  0  0  0  0  0  0  0  0  0  0
   58.1004   35.4994   47.0627 H   0  0  0  0  0  0  0  0  0  0  0  0
   57.2637   32.8847   47.6147 H   0  0  0  0  0  0  0  0  0  0  0  0
   56.6032   34.0329   46.3625 H   0  0  0  0  0  0  0  0  0  0  0  0
   60.5011   29.5844   44.4818 H   0  0  0  0  0  0  0  0  0  0  0  0
   60.0533   27.3903   43.3896 H   0  0  0  0  0  0  0  0  0  0  0  0
   60.7093   25.2735   46.1937 H   0  0  0  0  0  0  0  0  0  0  0  0
   61.8460   27.4346   46.6753 H   0  0  0  0  0  0  0  0  0  0  0  0
  1  2  1  0
  2  3  2  0
  3  4  1  0
  4  5  2  0
  5  6  1  0
  6  7  2  0
  7  8  1  0
  8  9  2  0
  8 10  2  0
  8 11  1  0
 11 12  1  0
 12 13  2  0
 13 14  1  0
 14 15  2  0
 15 16  1  0
 16 17  2  0
 16 18  1  0
 18 19  1  0
 19 20  1  0
 20 21  1  0
 21 22  2  0
 22 23  1  0
 23 24  2  0
 24 25  1  0
 25 26  2  0
 25 27  2  0
 25 28  1  0
 28 29  1  0
 29 30  1  0
 30 31  1  0
 31 32  1  0
 32 33  1  0
 24 34  1  0
 34 35  2  0
 15 36  1  0
 36 37  2  0
  7  2  1  0
 37 12  1  0
 35 21  1  0
 33 28  1  0
  1 38  1  0
  1 39  1  0
  3 40  1  0
  4 41  1  0
  5 42  1  0
  6 43  1  0
 11 44  1  0
 13 45  1  0
 14 46  1  0
 19 47  1  0
 19 48  1  0
 20 49  1  0
 20 50  1  0
 22 51  1  0
 23 52  1  0
 29 53  1  0
 29 54  1  0
 30 55  1  0
 30 56  1  0
 32 57  1  0
 32 58  1  0
 33 59  1  0
 33 60  1  0
 34 61  1  0
 35 62  1  0
 36 63  1  0
 37 64  1  0
M  CHG  1  18  -1
M  END
>  <UniqueID>  (19) 
19

>  <SMILES>  (19) 
Nc1ccccc1S(=O)(=O)Nc1ccc(C(=O)[N-]CCc2ccc(S(=O)(=O)N3CCOCC3)cc2)cc1

>  <Energy>  (19) 
85.31431052403244

>  <Genealogy>  (19) 
Nc1ccccc1S(=O)(=O)Nc1ccc(C(=O)[N-]CCc2ccc(S(=O)(=O)N3CCOCC3)cc2)cc1 (protonated)
Nc1ccccc1S(=O)(=O)Nc1ccc(C(=O)[N-]CCc2ccc(S(=O)(=O)N3CCOCC3)cc2)cc1 (3D coordinates assigned)
Nc1ccccc1S(=O)(=O)Nc1ccc(C(=O)[N-]CCc2ccc(S(=O)(=O)N3CCOCC3)cc2)cc1 (nonaromatic ring conformer: 85.31431052403244 kcal/mol)

>  <smiles>  (19) 
Nc1ccccc1S(=O)(=O)Nc1ccc(C(=O)NCCc2ccc(S(=O)(=O)N3CCOCC3)cc2)cc1

>  <score_type>  (19) 
oracle

>  <origin>  (19) 
adg

>  <m_score__min__energy>  (19) 
-12.210000000000001

>  <m_primary>  (19) 
energy

$$$$
19:0
     RDKit          3D

 40 42  0  0  0  0  0  0  0  0999 V2000
   56.3240   29.7090   45.0780 O   0  0  0  0  0  0  0  0  0  0  0  0
   57.1610   28.9320   45.6140 C   0  0  0  0  0  0  0  0  0  0  0  0
   58.4590   29.4260   45.9870 N   0  0  0  0  0  0  0  0  0  0  0  0
   58.8020   30.8220   45.9560 C   0  0  0  0  0  0  0  0  0  0  0  0
   58.1370   31.6770   45.0590 C   0  0  0  0  0  0  0  0  0  0  0  0
   58.3840   33.0490   45.0690 C   0  0  0  0  0  0  0  0  0  0  0  0
   59.2870   33.5910   45.9830 C   0  0  0  0  0  0  0  0  0  0  0  0
   59.5890   35.3190   45.9960 Cl  0  0  0  0  0  0  0  0  0  0  0  0
   59.9530   32.7580   46.8850 C   0  0  0  0  0  0  0  0  0  0  0  0
   59.7280   31.3680   46.8820 C   0  0  0  0  0  0  0  0  0  0  0  0
   60.4990   30.5170   47.8240 C   0  0  0  0  0  0  0  0  0  0  0  0
   61.2890   29.6350   47.3890 O   0  0  0  0  0  0  0  0  0  0  0  0
   60.3730   30.7200   49.2350 N   0  0  0  0  0  0  0  0  0  0  0  0
   59.2180   30.2720   49.9990 C   0  0  0  0  0  0  0  0  0  0  0  0
   58.7220   31.3990   50.8610 C   0  0  0  0  0  0  0  0  0  0  0  0
   59.3930   32.6340   50.8550 C   0  0  0  0  0  0  0  0  0  0  0  0
   58.9200   33.6980   51.6280 C   0  0  0  0  0  0  0  0  0  0  0  0
   57.7700   33.5440   52.4040 C   0  0  0  0  0  0  0  0  0  0  0  0
   57.0850   32.3260   52.4050 C   0  0  0  0  0  0  0  0  0  0  0  0
   57.5520   31.2550   51.6320 C   0  0  0  0  0  0  0  0  0  0  0  0
   56.8470   30.0570   51.6360 O   0  0  0  0  0  0  0  0  0  0  0  0
   56.8080   27.5120   45.8320 C   0  0  0  0  0  0  0  0  0  0  0  0
   57.7780   26.5760   46.2220 C   0  0  0  0  0  0  0  0  0  0  0  0
   57.3880   25.2490   46.4110 C   0  0  0  0  0  0  0  0  0  0  0  0
   58.2340   24.3840   46.7620 O   0  0  0  0  0  0  0  0  0  0  0  0
   56.0940   24.8870   46.2160 N   0  0  0  0  0  0  0  0  0  0  0  0
   55.1650   25.8020   45.8370 C   0  0  0  0  0  0  0  0  0  0  0  0
   53.9710   25.4490   45.6610 O   0  0  0  0  0  0  0  0  0  0  0  0
   55.5240   27.0980   45.6480 N   0  0  0  0  0  0  0  0  0  0  0  0
   59.2000   28.7440   46.2670 H   0  0  0  0  0  0  0  0  0  0  0  0
   57.4147   31.2590   44.3423 H   0  0  0  0  0  0  0  0  0  0  0  0
   57.8656   33.7053   44.3545 H   0  0  0  0  0  0  0  0  0  0  0  0
   60.6612   33.1927   47.6057 H   0  0  0  0  0  0  0  0  0  0  0  0
   58.4204   29.9593   49.3090 H   0  0  0  0  0  0  0  0  0  0  0  0
   59.5055   29.4219   50.6351 H   0  0  0  0  0  0  0  0  0  0  0  0
   60.2949   32.7638   50.2388 H   0  0  0  0  0  0  0  0  0  0  0  0
   59.4552   34.6590   51.6248 H   0  0  0  0  0  0  0  0  0  0  0  0
   57.4028   34.3818   53.0150 H   0  0  0  0  0  0  0  0  0  0  0  0
   56.1768   32.2079   53.0143 H   0  0  0  0  0  0  0  0  0  0  0  0
   58.8235   26.8814   46.3755 H   0  0  0  0  0  0  0  0  0  0  0  0
  1  2  2  0
  2  3  1  0
  3  4  1  0
  4  5  2  0
  5  6  1  0
  6  7  2  0
  7  8  1  0
  7  9  1  0
  9 10  2  0
 10 11  1  0
 11 12  2  0
 11 13  1  0
 13 14  1  0
 14 15  1  0
 15 16  2  0
 16 17  1  0
 17 18  2  0
 18 19  1  0
 19 20  2  0
 20 21  1  0
  2 22  1  0
 22 23  2  0
 23 24  1  0
 24 25  2  0
 24 26  1  0
 26 27  1  0
 27 28  2  0
 27 29  1  0
 10  4  1  0
 20 15  1  0
 29 22  1  0
  3 30  1  0
  5 31  1  0
  6 32  1  0
  9 33  1  0
 14 34  1  0
 14 35  1  0
 16 36  1  0
 17 37  1  0
 18 38  1  0
 19 39  1  0
 23 40  1  0
M  CHG  4  13  -1  21  -1  26  -1  29  -1
M  END
>  <UniqueID>  (20) 
20

>  <SMILES>  (20) 
O=C(Nc1ccc(Cl)cc1C(=O)[N-]Cc1ccccc1[O-])c1cc(=O)[n-]c(=O)[n-]1

>  <Energy>  (20) 
50.29814174365236

>  <Genealogy>  (20) 
O=C(Nc1ccc(Cl)cc1C(=O)[N-]Cc1ccccc1[O-])c1cc(=O)[n-]c(=O)[n-]1 (protonated)
O=C(Nc1ccc(Cl)cc1C(=O)[N-]Cc1ccccc1[O-])c1cc(=O)[n-]c(=O)[n-]1 (3D coordinates assigned)
O=C(Nc1ccc(Cl)cc1C(=O)[N-]Cc1ccccc1[O-])c1cc(=O)[n-]c(=O)[n-]1 (optimized conformer: 50.29814174365236 kcal/mol)

>  <smiles>  (20) 
O=C(Nc1ccc(Cl)cc1C(=O)NCc1ccccc1O)c1cc(=O)[nH]c(=O)[nH]1

>  <score_type>  (20) 
oracle

>  <origin>  (20) 
adg

>  <m_score__min__energy>  (20) 
-15.640000000000001

>  <m_primary>  (20) 
energy

$$$$
20:0
     RDKit          3D

 61 64  0  0  0  0  0  0  0  0999 V2000
   56.9759   29.4310   42.5343 H   0  0  0  0  0  0  0  0  0  0  0  0
   57.0800   29.7070   43.5940 C   0  0  0  0  0  0  0  0  0  0  0  0
   55.8830   29.7160   44.4490 C   0  0  0  0  0  0  0  0  0  0  0  0
   55.1770   30.7550   44.5170 O   0  0  0  0  0  0  0  0  0  0  0  0
   55.5210   28.5950   45.1880 O   0  0  0  0  0  0  0  0  0  0  0  0
   58.2910   30.0240   44.0650 C   0  0  0  0  0  0  0  0  0  0  0  0
   59.1360   30.0672   43.3621 H   0  0  0  0  0  0  0  0  0  0  0  0
   58.5400   30.3190   45.4940 C   0  0  0  0  0  0  0  0  0  0  0  0
   58.6910   29.4300   46.5570 C   0  0  0  0  0  0  0  0  0  0  0  0
   58.6880   27.9570   46.4330 C   0  0  0  0  0  0  0  0  0  0  0  0
   57.5340   27.2250   46.7450 C   0  0  0  0  0  0  0  0  0  0  0  0
   56.6073   27.7523   47.0154 H   0  0  0  0  0  0  0  0  0  0  0  0
   57.5560   25.8280   46.7140 C   0  0  0  0  0  0  0  0  0  0  0  0
   56.6458   25.2602   46.9571 H   0  0  0  0  0  0  0  0  0  0  0  0
   58.7380   25.1450   46.3730 C   0  0  0  0  0  0  0  0  0  0  0  0
   58.8310   23.7440   46.3890 O   0  0  0  0  0  0  0  0  0  0  0  0
   59.2340   22.9370   45.2800 C   0  0  0  0  0  0  0  0  0  0  0  0
   60.0467   23.4449   44.7401 H   0  0  0  0  0  0  0  0  0  0  0  0
   59.5776   21.9627   45.6577 H   0  0  0  0  0  0  0  0  0  0  0  0
   58.0790   22.7120   44.3380 C   0  0  0  0  0  0  0  0  0  0  0  0
   57.1830   23.7570   44.0600 C   0  0  0  0  0  0  0  0  0  0  0  0
   57.3132   24.7345   44.5475 H   0  0  0  0  0  0  0  0  0  0  0  0
   56.1260   23.5600   43.1660 C   0  0  0  0  0  0  0  0  0  0  0  0
   55.4322   24.3846   42.9454 H   0  0  0  0  0  0  0  0  0  0  0  0
   55.9500   22.3180   42.5530 C   0  0  0  0  0  0  0  0  0  0  0  0
   55.1197   22.1659   41.8476 H   0  0  0  0  0  0  0  0  0  0  0  0
   56.8280   21.2680   42.8350 C   0  0  0  0  0  0  0  0  0  0  0  0
   56.6859   20.2891   42.3539 H   0  0  0  0  0  0  0  0  0  0  0  0
   57.8870   21.4600   43.7280 C   0  0  0  0  0  0  0  0  0  0  0  0
   58.5716   20.6291   43.9537 H   0  0  0  0  0  0  0  0  0  0  0  0
   59.8750   25.8820   46.0190 C   0  0  0  0  0  0  0  0  0  0  0  0
   60.7915   25.3574   45.7111 H   0  0  0  0  0  0  0  0  0  0  0  0
   59.8540   27.2780   46.0540 C   0  0  0  0  0  0  0  0  0  0  0  0
   60.7558   27.8466   45.7831 H   0  0  0  0  0  0  0  0  0  0  0  0
   58.9270   30.1050   47.7190 N   0  0  0  0  0  0  0  0  0  0  0  0
   59.3620   29.4770   48.9700 C   0  0  0  0  0  0  0  0  0  0  0  0
   58.9668   30.0475   49.8234 H   0  0  0  0  0  0  0  0  0  0  0  0
   58.9845   28.4447   49.0127 H   0  0  0  0  0  0  0  0  0  0  0  0
   60.4611   29.4675   49.0127 H   0  0  0  0  0  0  0  0  0  0  0  0
   58.8980   31.4330   47.4040 C   0  0  0  0  0  0  0  0  0  0  0  0
   59.0290   32.5880   48.2320 C   0  0  0  0  0  0  0  0  0  0  0  0
   59.0030   32.5840   49.7550 C   0  0  0  0  0  0  0  0  0  0  0  0
   57.9617   32.6888   50.0936 H   0  0  0  0  0  0  0  0  0  0  0  0
   59.4380   31.6351   50.1019 H   0  0  0  0  0  0  0  0  0  0  0  0
   59.8070   33.6950   50.3230 N   0  0  0  0  0  0  0  0  0  0  0  0
   59.5790   34.5870   49.8270 H   0  0  0  0  0  0  0  0  0  0  0  0
   59.5320   33.8830   51.7590 C   0  0  0  0  0  0  0  0  0  0  0  0
   60.2976   33.3596   52.3505 H   0  0  0  0  0  0  0  0  0  0  0  0
   59.5535   34.9563   51.9990 H   0  0  0  0  0  0  0  0  0  0  0  0
   58.5397   33.4734   51.9990 H   0  0  0  0  0  0  0  0  0  0  0  0
   61.2440   33.4330   50.1250 C   0  0  0  0  0  0  0  0  0  0  0  0
   61.7385   33.3428   51.1034 H   0  0  0  0  0  0  0  0  0  0  0  0
   61.3718   32.4967   49.5619 H   0  0  0  0  0  0  0  0  0  0  0  0
   61.6940   34.2639   49.5619 H   0  0  0  0  0  0  0  0  0  0  0  0
   59.0340   33.8520   47.5810 C   0  0  0  0  0  0  0  0  0  0  0  0
   59.1850   35.0250   48.3140 O   0  0  0  0  0  0  0  0  0  0  0  0
   58.8700   33.9540   46.1890 C   0  0  0  0  0  0  0  0  0  0  0  0
   58.8917   34.9437   45.7095 H   0  0  0  0  0  0  0  0  0  0  0  0
   58.6800   32.8130   45.4090 C   0  0  0  0  0  0  0  0  0  0  0  0
   58.5173   32.8910   44.3239 H   0  0  0  0  0  0  0  0  0  0  0  0
   58.7020   31.5720   46.0420 C   0  0  0  0  0  0  0  0  0  0  0  0
  1  2  1  0
  2  3  1  0
  3  4  2  0
  3  5  1  0
  2  6  2  0
  6  7  1  0
  6  8  1  0
  8  9  2  0
  9 10  1  0
 10 11  2  0
 11 12  1  0
 11 13  1  0
 13 14  1  0
 13 15  2  0
 15 16  1  0
 16 17  1  0
 17 18  1  0
 17 19  1  0
 17 20  1  0
 20 21  2  0
 21 22  1  0
 21 23  1  0
 23 24  1  0
 23 25  2  0
 25 26  1  0
 25 27  1  0
 27 28  1  0
 27 29  2  0
 29 30  1  0
 15 31  1  0
 31 32  1  0
 31 33  2  0
 33 34  1  0
  9 35  1  0
 35 36  1  0
 36 37  1  0
 36 38  1  0
 36 39  1  0
 35 40  1  0
 40 41  2  0
 41 42  1  0
 42 43  1  0
 42 44  1  0
 42 45  1  0
 45 46  1  0
 45 47  1  0
 47 48  1  0
 47 49  1  0
 47 50  1  0
 45 51  1  0
 51 52  1  0
 51 53  1  0
 51 54  1  0
 41 55  1  0
 55 56  1  0
 55 57  2  0
 57 58  1  0
 57 59  1  0
 59 60  1  0
 59 61  2  0
 61  8  1  0
 33 10  1  0
 61 40  1  0
 29 20  1  0
M  CHG  3   5  -1  45   1  56  -1
M  END
>  <UniqueID>  (21) 
21

>  <SMILES>  (21) 
Cn1c(-c2ccc(OCc3ccccc3)cc2)c(/C=C/C(=O)[O-])c2ccc([O-])c(C[NH+](C)C)c21

>  <Energy>  (21) 
114.38937193575119

>  <Genealogy>  (21) 
Cn1c(-c2ccc(OCc3ccccc3)cc2)c(C=CC(=O)[O-])c2ccc([O-])c(C[NH+](C)C)c21 (protonated)
Cn1c(-c2ccc(OCc3ccccc3)cc2)c(/C=C/C(=O)[O-])c2ccc([O-])c(C[NH+](C)C)c21 (cis-trans isomerization)
Cn1c(-c2ccc(OCc3ccccc3)cc2)c(/C=C/C(=O)[O-])c2ccc([O-])c(C[NH+](C)C)c21 (3D coordinates assigned)
Cn1c(-c2ccc(OCc3ccccc3)cc2)c(/C=C/C(=O)[O-])c2ccc([O-])c(C[NH+](C)C)c21 (optimized conformer: 114.38937193575119 kcal/mol)

>  <smiles>  (21) 
CN(C)Cc1c(O)ccc2c(C=CC(=O)O)c(-c3ccc(OCc4ccccc4)cc3)n(C)c12

>  <score_type>  (21) 
oracle

>  <origin>  (21) 
adg

>  <m_score__min__energy>  (21) 
-11.68

>  <m_primary>  (21) 
energy

$$$$
21:0
     RDKit          3D

 48 51  0  0  0  0  0  0  0  0999 V2000
   55.1430   25.3370   46.1390 O   0  0  0  0  0  0  0  0  0  0  0  0
   56.1170   26.1130   46.3300 C   0  0  0  0  0  0  0  0  0  0  0  0
   57.0950   25.7900   47.2680 C   0  0  0  0  0  0  0  0  0  0  0  0
   58.1570   26.6690   47.4760 C   0  0  0  0  0  0  0  0  0  0  0  0
   58.2420   27.8660   46.7480 C   0  0  0  0  0  0  0  0  0  0  0  0
   59.3340   28.8210   47.0620 C   0  0  0  0  0  0  0  0  0  0  0  0
   59.4580   29.3620   48.3510 C   0  0  0  0  0  0  0  0  0  0  0  0
   60.4790   30.2710   48.6410 C   0  0  0  0  0  0  0  0  0  0  0  0
   61.3950   30.6490   47.6440 C   0  0  0  0  0  0  0  0  0  0  0  0
   62.4310   31.6090   47.8840 N   0  0  0  0  0  0  0  0  0  0  0  0
   62.3420   33.2980   47.4980 S   0  0  0  0  0  0  0  0  0  0  0  0
   63.6460   33.9680   47.8270 O   0  0  0  0  0  0  0  0  0  0  0  0
   62.0830   33.4410   46.0250 O   0  0  0  0  0  0  0  0  0  0  0  0
   61.0040   34.0790   48.3920 C   0  0  0  0  0  0  0  0  0  0  0  0
   59.7730   34.1580   47.5330 C   0  0  0  0  0  0  0  0  0  0  0  0
   59.7930   34.8940   46.3350 C   0  0  0  0  0  0  0  0  0  0  0  0
   58.6620   34.9310   45.5130 C   0  0  0  0  0  0  0  0  0  0  0  0
   57.5090   34.2290   45.8740 C   0  0  0  0  0  0  0  0  0  0  0  0
   57.4840   33.4900   47.0600 C   0  0  0  0  0  0  0  0  0  0  0  0
   58.6100   33.4540   47.8870 C   0  0  0  0  0  0  0  0  0  0  0  0
   61.2900   30.0840   46.3690 C   0  0  0  0  0  0  0  0  0  0  0  0
   60.2670   29.1770   46.0770 C   0  0  0  0  0  0  0  0  0  0  0  0
   57.2420   28.1420   45.7800 C   0  0  0  0  0  0  0  0  0  0  0  0
   57.2800   29.3380   44.9080 C   0  0  0  0  0  0  0  0  0  0  0  0
   56.9050   29.2280   43.5590 C   0  0  0  0  0  0  0  0  0  0  0  0
   56.9500   30.3470   42.7210 C   0  0  0  0  0  0  0  0  0  0  0  0
   57.3850   31.5780   43.2180 C   0  0  0  0  0  0  0  0  0  0  0  0
   57.4310   32.6600   42.4040 F   0  0  0  0  0  0  0  0  0  0  0  0
   57.7820   31.6910   44.5530 C   0  0  0  0  0  0  0  0  0  0  0  0
   57.7330   30.5760   45.3960 C   0  0  0  0  0  0  0  0  0  0  0  0
   56.2130   27.2640   45.6150 N   0  0  0  0  0  0  0  0  0  0  0  0
   57.0300   24.8517   47.8383 H   0  0  0  0  0  0  0  0  0  0  0  0
   58.9333   26.4228   48.2154 H   0  0  0  0  0  0  0  0  0  0  0  0
   58.7473   29.0688   49.1377 H   0  0  0  0  0  0  0  0  0  0  0  0
   60.5662   30.6923   49.6534 H   0  0  0  0  0  0  0  0  0  0  0  0
   60.7791   33.4906   49.2938 H   0  0  0  0  0  0  0  0  0  0  0  0
   61.3095   35.0983   48.6709 H   0  0  0  0  0  0  0  0  0  0  0  0
   60.7009   35.4423   46.0434 H   0  0  0  0  0  0  0  0  0  0  0  0
   58.6802   35.5140   44.5804 H   0  0  0  0  0  0  0  0  0  0  0  0
   56.6213   34.2580   45.2250 H   0  0  0  0  0  0  0  0  0  0  0  0
   56.5768   32.9360   47.3429 H   0  0  0  0  0  0  0  0  0  0  0  0
   58.5855   32.8715   48.8198 H   0  0  0  0  0  0  0  0  0  0  0  0
   62.0178   30.3553   45.5901 H   0  0  0  0  0  0  0  0  0  0  0  0
   60.1934   28.7405   45.0700 H   0  0  0  0  0  0  0  0  0  0  0  0
   56.5745   28.2577   43.1598 H   0  0  0  0  0  0  0  0  0  0  0  0
   56.6423   30.2576   41.6687 H   0  0  0  0  0  0  0  0  0  0  0  0
   58.1336   32.6582   44.9415 H   0  0  0  0  0  0  0  0  0  0  0  0
   58.0503   30.6682   46.4452 H   0  0  0  0  0  0  0  0  0  0  0  0
  1  2  2  0
  2  3  1  0
  3  4  2  0
  4  5  1  0
  5  6  1  0
  6  7  2  0
  7  8  1  0
  8  9  2  0
  9 10  1  0
 10 11  1  0
 11 12  2  0
 11 13  2  0
 11 14  1  0
 14 15  1  0
 15 16  2  0
 16 17  1  0
 17 18  2  0
 18 19  1  0
 19 20  2  0
  9 21  1  0
 21 22  2  0
  5 23  2  0
 23 24  1  0
 24 25  2  0
 25 26  1  0
 26 27  2  0
 27 28  1  0
 27 29  1  0
 29 30  2  0
 23 31  1  0
 31  2  1  0
 22  6  1  0
 30 24  1  0
 20 15  1  0
  3 32  1  0
  4 33  1  0
  7 34  1  0
  8 35  1  0
 14 36  1  0
 14 37  1  0
 16 38  1  0
 17 39  1  0
 18 40  1  0
 19 41  1  0
 20 42  1  0
 21 43  1  0
 22 44  1  0
 25 45  1  0
 26 46  1  0
 29 47  1  0
 30 48  1  0
M  CHG  2  10  -1  31  -1
M  END
>  <UniqueID>  (22) 
22

>  <SMILES>  (22) 
O=c1ccc(-c2ccc([N-]S(=O)(=O)Cc3ccccc3)cc2)c(-c2ccc(F)cc2)[n-]1

>  <Energy>  (22) 
61.26422315855683

>  <Genealogy>  (22) 
O=c1ccc(-c2ccc([N-]S(=O)(=O)Cc3ccccc3)cc2)c(-c2ccc(F)cc2)[n-]1 (protonated)
O=c1ccc(-c2ccc([N-]S(=O)(=O)Cc3ccccc3)cc2)c(-c2ccc(F)cc2)[n-]1 (3D coordinates assigned)
O=c1ccc(-c2ccc([N-]S(=O)(=O)Cc3ccccc3)cc2)c(-c2ccc(F)cc2)[n-]1 (optimized conformer: 61.26422315855683 kcal/mol)

>  <smiles>  (22) 
O=c1ccc(-c2ccc(NS(=O)(=O)Cc3ccccc3)cc2)c(-c2ccc(F)cc2)[nH]1

>  <score_type>  (22) 
oracle

>  <origin>  (22) 
adg

>  <m_score__min__energy>  (22) 
-12.4

>  <m_primary>  (22) 
energy

$$$$
22:0
     RDKit          3D

 51 54  0  0  0  0  0  0  0  0999 V2000
   64.6800   32.7090   49.4870 C   0  0  0  0  0  0  0  0  0  0  0  0
   64.1600   32.5590   48.1690 O   0  0  0  0  0  0  0  0  0  0  0  0
   62.8120   32.7260   47.8230 C   0  0  0  0  0  0  0  0  0  0  0  0
   62.4730   33.7660   46.9510 C   0  0  0  0  0  0  0  0  0  0  0  0
   61.1410   33.9910   46.5970 C   0  0  0  0  0  0  0  0  0  0  0  0
   60.1240   33.1750   47.1090 C   0  0  0  0  0  0  0  0  0  0  0  0
   58.7680   33.4520   46.7310 N   0  0  0  0  0  0  0  0  0  0  0  0
   58.2050   33.6550   45.1050 S   0  0  0  0  0  0  0  0  0  0  0  0
   57.0410   34.6060   45.0990 O   0  0  0  0  0  0  0  0  0  0  0  0
   59.3070   34.2430   44.2720 O   0  0  0  0  0  0  0  0  0  0  0  0
   57.7490   32.0950   44.4280 C   0  0  0  0  0  0  0  0  0  0  0  0
   57.3860   31.9810   43.0780 C   0  0  0  0  0  0  0  0  0  0  0  0
   57.0120   30.7420   42.5550 C   0  0  0  0  0  0  0  0  0  0  0  0
   57.0220   29.6070   43.3700 C   0  0  0  0  0  0  0  0  0  0  0  0
   57.4060   29.6980   44.7160 C   0  0  0  0  0  0  0  0  0  0  0  0
   57.3990   28.5120   45.5280 N   0  0  0  0  0  0  0  0  0  0  0  0
   58.2270   28.3110   46.6810 C   0  0  0  0  0  0  0  0  0  0  0  0
   59.0960   29.1590   47.0070 O   0  0  0  0  0  0  0  0  0  0  0  0
   58.1280   27.0310   47.4530 C   0  0  0  0  0  0  0  0  0  0  0  0
   57.4410   25.9930   46.6220 C   0  0  0  0  0  0  0  0  0  0  0  0
   56.0900   26.0410   46.4570 N   0  0  0  0  0  0  0  0  0  0  0  0
   55.4280   25.0860   45.7520 C   0  0  0  0  0  0  0  0  0  0  0  0
   54.1750   25.1700   45.6220 O   0  0  0  0  0  0  0  0  0  0  0  0
   56.1440   24.0190   45.1840 C   0  0  0  0  0  0  0  0  0  0  0  0
   55.5170   22.9970   44.4470 C   0  0  0  0  0  0  0  0  0  0  0  0
   56.2820   21.9560   43.9110 C   0  0  0  0  0  0  0  0  0  0  0  0
   57.6680   21.9260   44.1050 C   0  0  0  0  0  0  0  0  0  0  0  0
   58.2980   22.9370   44.8380 C   0  0  0  0  0  0  0  0  0  0  0  0
   57.5430   23.9830   45.3770 C   0  0  0  0  0  0  0  0  0  0  0  0
   58.1530   24.9640   46.0920 N   0  0  0  0  0  0  0  0  0  0  0  0
   57.7450   30.9560   45.2460 C   0  0  0  0  0  0  0  0  0  0  0  0
   60.4610   32.1140   47.9670 C   0  0  0  0  0  0  0  0  0  0  0  0
   61.7950   31.8910   48.3220 C   0  0  0  0  0  0  0  0  0  0  0  0
   63.8920   32.4817   50.2201 H   0  0  0  0  0  0  0  0  0  0  0  0
   65.5236   32.0176   49.6292 H   0  0  0  0  0  0  0  0  0  0  0  0
   65.0258   33.7435   49.6292 H   0  0  0  0  0  0  0  0  0  0  0  0
   63.2627   34.4124   46.5405 H   0  0  0  0  0  0  0  0  0  0  0  0
   60.8889   34.8139   45.9120 H   0  0  0  0  0  0  0  0  0  0  0  0
   57.3961   32.8698   42.4300 H   0  0  0  0  0  0  0  0  0  0  0  0
   56.7093   30.6591   41.5007 H   0  0  0  0  0  0  0  0  0  0  0  0
   56.7261   28.6334   42.9523 H   0  0  0  0  0  0  0  0  0  0  0  0
   56.8550   27.6890   45.1790 H   0  0  0  0  0  0  0  0  0  0  0  0
   59.1381   26.6816   47.7130 H   0  0  0  0  0  0  0  0  0  0  0  0
   57.5491   27.2037   48.3723 H   0  0  0  0  0  0  0  0  0  0  0  0
   54.4280   23.0169   44.2929 H   0  0  0  0  0  0  0  0  0  0  0  0
   55.7924   21.1573   43.3345 H   0  0  0  0  0  0  0  0  0  0  0  0
   58.2635   21.1048   43.6796 H   0  0  0  0  0  0  0  0  0  0  0  0
   59.3870   22.9091   44.9903 H   0  0  0  0  0  0  0  0  0  0  0  0
   58.0089   31.0470   46.3100 H   0  0  0  0  0  0  0  0  0  0  0  0
   59.6721   31.4563   48.3609 H   0  0  0  0  0  0  0  0  0  0  0  0
   62.0507   31.0589   48.9945 H   0  0  0  0  0  0  0  0  0  0  0  0
  1  2  1  0
  2  3  1  0
  3  4  2  0
  4  5  1  0
  5  6  2  0
  6  7  1  0
  7  8  1  0
  8  9  2  0
  8 10  2  0
  8 11  1  0
 11 12  2  0
 12 13  1  0
 13 14  2  0
 14 15  1  0
 15 16  1  0
 16 17  1  0
 17 18  2  0
 17 19  1  0
 19 20  1  0
 20 21  2  0
 21 22  1  0
 22 23  2  0
 22 24  1  0
 24 25  2  0
 25 26  1  0
 26 27  2  0
 27 28  1  0
 28 29  2  0
 29 30  1  0
 15 31  2  0
  6 32  1  0
 32 33  2  0
 33  3  1  0
 31 11  1  0
 30 20  1  0
 29 24  1  0
  1 34  1  0
  1 35  1  0
  1 36  1  0
  4 37  1  0
  5 38  1  0
 12 39  1  0
 13 40  1  0
 14 41  1  0
 16 42  1  0
 19 43  1  0
 19 44  1  0
 25 45  1  0
 26 46  1  0
 27 47  1  0
 28 48  1  0
 31 49  1  0
 32 50  1  0
 33 51  1  0
M  CHG  2   7  -1  30  -1
M  END
>  <UniqueID>  (23) 
23

>  <SMILES>  (23) 
COc1ccc([N-]S(=O)(=O)c2cccc(NC(=O)Cc3nc(=O)c4ccccc4[n-]3)c2)cc1

>  <Energy>  (23) 
63.696847724553706

>  <Genealogy>  (23) 
COc1ccc([N-]S(=O)(=O)c2cccc(NC(=O)Cc3nc(=O)c4ccccc4[n-]3)c2)cc1 (protonated)
COc1ccc([N-]S(=O)(=O)c2cccc(NC(=O)Cc3nc(=O)c4ccccc4[n-]3)c2)cc1 (3D coordinates assigned)
COc1ccc([N-]S(=O)(=O)c2cccc(NC(=O)Cc3nc(=O)c4ccccc4[n-]3)c2)cc1 (optimized conformer: 63.696847724553706 kcal/mol)

>  <smiles>  (23) 
COc1ccc(NS(=O)(=O)c2cccc(NC(=O)Cc3nc(=O)c4ccccc4[nH]3)c2)cc1

>  <score_type>  (23) 
oracle

>  <origin>  (23) 
adg

>  <m_score__min__energy>  (23) 
-11.98

>  <m_primary>  (23) 
energy

$$$$
23:0
     RDKit          3D

 43 46  0  0  0  0  0  0  0  0999 V2000
   57.8800   25.5520   44.2630 C   0  0  0  0  0  0  0  0  0  0  0  0
   57.2710   25.2960   45.6640 C   0  0  1  0  0  0  0  0  0  0  0  0
   57.3010   23.7890   45.9890 C   0  0  0  0  0  0  0  0  0  0  0  0
   57.8290   22.8510   45.0720 C   0  0  0  0  0  0  0  0  0  0  0  0
   57.7960   21.4810   45.3480 C   0  0  0  0  0  0  0  0  0  0  0  0
   57.2090   21.0170   46.5240 C   0  0  0  0  0  0  0  0  0  0  0  0
   56.6450   21.9200   47.4240 C   0  0  0  0  0  0  0  0  0  0  0  0
   56.6780   23.2920   47.1570 C   0  0  0  0  0  0  0  0  0  0  0  0
   58.0660   26.0010   46.6670 N   0  0  0  0  0  0  0  0  0  0  0  0
   58.3340   27.4040   46.7620 C   0  0  0  0  0  0  0  0  0  0  0  0
   59.1900   27.7820   47.6060 O   0  0  0  0  0  0  0  0  0  0  0  0
   57.7040   28.4180   45.8810 C   0  0  0  0  0  0  0  0  0  0  0  0
   58.4460   29.5810   45.5880 C   0  0  0  0  0  0  0  0  0  0  0  0
   57.8980   30.6160   44.8130 C   0  0  0  0  0  0  0  0  0  0  0  0
   58.6320   31.8080   44.5000 N   0  0  0  0  0  0  0  0  0  0  0  0
   58.2950   33.3880   45.1310 S   0  0  0  0  0  0  0  0  0  0  0  0
   56.8170   33.6570   45.0910 O   0  0  0  0  0  0  0  0  0  0  0  0
   59.0220   34.4200   44.3140 O   0  0  0  0  0  0  0  0  0  0  0  0
   58.8510   33.4670   46.7910 C   0  0  0  0  0  0  0  0  0  0  0  0
   59.6400   34.4670   47.3390 C   0  0  0  0  0  0  0  0  0  0  0  0
   59.9310   34.2510   48.6920 C   0  0  0  0  0  0  0  0  0  0  0  0
   59.3720   33.0860   49.2030 C   0  0  0  0  0  0  0  0  0  0  0  0
   58.5160   32.3230   47.9720 S   0  0  0  0  0  0  0  0  0  0  0  0
   56.5960   30.4910   44.3330 C   0  0  0  0  0  0  0  0  0  0  0  0
   55.8470   29.3500   44.6130 C   0  0  0  0  0  0  0  0  0  0  0  0
   56.3870   28.3010   45.3670 C   0  0  0  0  0  0  0  0  0  0  0  0
   55.5220   27.1920   45.6420 N   0  0  0  0  0  0  0  0  0  0  0  0
   55.8430   25.8040   45.7380 C   0  0  0  0  0  0  0  0  0  0  0  0
   54.8900   24.9890   45.8680 O   0  0  0  0  0  0  0  0  0  0  0  0
   58.8889   25.9761   44.3737 H   0  0  0  0  0  0  0  0  0  0  0  0
   57.9398   24.6029   43.7102 H   0  0  0  0  0  0  0  0  0  0  0  0
   57.2437   26.2588   43.7102 H   0  0  0  0  0  0  0  0  0  0  0  0
   58.2716   23.2041   44.1289 H   0  0  0  0  0  0  0  0  0  0  0  0
   58.2345   20.7672   44.6351 H   0  0  0  0  0  0  0  0  0  0  0  0
   57.1908   19.9389   46.7418 H   0  0  0  0  0  0  0  0  0  0  0  0
   56.1727   21.5520   48.3468 H   0  0  0  0  0  0  0  0  0  0  0  0
   56.2132   23.9940   47.8649 H   0  0  0  0  0  0  0  0  0  0  0  0
   59.4717   29.6791   45.9732 H   0  0  0  0  0  0  0  0  0  0  0  0
   59.9994   35.3379   46.7712 H   0  0  0  0  0  0  0  0  0  0  0  0
   60.5441   34.9386   49.2932 H   0  0  0  0  0  0  0  0  0  0  0  0
   59.4722   32.7241   50.2369 H   0  0  0  0  0  0  0  0  0  0  0  0
   56.1565   31.2985   43.7290 H   0  0  0  0  0  0  0  0  0  0  0  0
   54.8165   29.2722   44.2362 H   0  0  0  0  0  0  0  0  0  0  0  0
  2  1  1  6
  2  3  1  0
  3  4  2  0
  4  5  1  0
  5  6  2  0
  6  7  1  0
  7  8  2  0
  2  9  1  0
  9 10  1  0
 10 11  2  0
 10 12  1  0
 12 13  2  0
 13 14  1  0
 14 15  1  0
 15 16  1  0
 16 17  2  0
 16 18  2  0
 16 19  1  0
 19 20  2  0
 20 21  1  0
 21 22  2  0
 22 23  1  0
 14 24  2  0
 24 25  1  0
 25 26  2  0
 26 27  1  0
 27 28  1  0
 28 29  2  0
 28  2  1  0
  8  3  1  0
 26 12  1  0
 23 19  1  0
  1 30  1  0
  1 31  1  0
  1 32  1  0
  4 33  1  0
  5 34  1  0
  6 35  1  0
  7 36  1  0
  8 37  1  0
 13 38  1  0
 20 39  1  0
 21 40  1  0
 22 41  1  0
 24 42  1  0
 25 43  1  0
M  CHG  3   9  -1  15  -1  27  -1
M  END
>  <UniqueID>  (24) 
24

>  <SMILES>  (24) 
C[C@@]1(c2ccccc2)[N-]C(=O)c2cc([N-]S(=O)(=O)c3cccs3)ccc2[N-]C1=O

>  <Energy>  (24) 
95.12744836189599

>  <Genealogy>  (24) 
CC1(c2ccccc2)[N-]C(=O)c2cc([N-]S(=O)(=O)c3cccs3)ccc2[N-]C1=O (protonated)
C[C@@]1(c2ccccc2)[N-]C(=O)c2cc([N-]S(=O)(=O)c3cccs3)ccc2[N-]C1=O (chirality)
C[C@@]1(c2ccccc2)[N-]C(=O)c2cc([N-]S(=O)(=O)c3cccs3)ccc2[N-]C1=O (3D coordinates assigned)
C[C@@]1(c2ccccc2)[N-]C(=O)c2cc([N-]S(=O)(=O)c3cccs3)ccc2[N-]C1=O (nonaromatic ring conformer: 95.12744836189599 kcal/mol)

>  <smiles>  (24) 
CC1(c2ccccc2)NC(=O)c2cc(NS(=O)(=O)c3cccs3)ccc2NC1=O

>  <score_type>  (24) 
oracle

>  <origin>  (24) 
adg

>  <m_score__min__energy>  (24) 
-12.039999999999999

>  <m_primary>  (24) 
energy

$$$$
24:0
     RDKit          3D

 56 58  0  0  0  0  0  0  0  0999 V2000
   57.8460   26.1570   46.7090 C   0  0  0  0  0  0  0  0  0  0  0  0
   57.5600   27.5410   46.8840 O   0  0  0  0  0  0  0  0  0  0  0  0
   58.5300   28.5460   47.0470 C   0  0  0  0  0  0  0  0  0  0  0  0
   58.9010   29.0060   48.3270 C   0  0  0  0  0  0  0  0  0  0  0  0
   59.9090   29.9630   48.4720 C   0  0  0  0  0  0  0  0  0  0  0  0
   60.5650   30.4670   47.3480 C   0  0  0  0  0  0  0  0  0  0  0  0
   60.2030   30.0280   46.0730 C   0  0  0  0  0  0  0  0  0  0  0  0
   59.1710   29.0890   45.9050 C   0  0  0  0  0  0  0  0  0  0  0  0
   58.8300   28.6740   44.5250 C   0  0  0  0  0  0  0  0  0  0  0  0
   57.5730   28.5330   44.0940 C   0  0  0  0  0  0  0  0  0  0  0  0
   56.4290   29.8600   44.2360 S   0  0  0  0  0  0  0  0  0  0  0  0
   55.1540   29.3550   44.8560 O   0  0  0  0  0  0  0  0  0  0  0  0
   56.1230   30.3980   42.8650 O   0  0  0  0  0  0  0  0  0  0  0  0
   57.0930   31.1310   45.2170 N   0  0  0  0  0  0  0  0  0  0  0  0
   57.9480   31.9930   44.4020 C   0  0  0  0  0  0  0  0  0  0  0  0
   57.6260   33.4660   44.6750 C   0  0  0  0  0  0  0  0  0  0  0  0
   58.0850   33.9090   46.0420 C   0  0  0  0  0  0  0  0  0  0  0  0
   57.3770   33.6360   47.0470 O   0  0  0  0  0  0  0  0  0  0  0  0
   59.3780   34.4930   46.2550 N   0  0  0  0  0  0  0  0  0  0  0  0
   60.4470   33.9540   47.0450 C   0  0  0  0  0  0  0  0  0  0  0  0
   60.2570   33.7830   48.4170 C   0  0  0  0  0  0  0  0  0  0  0  0
   61.2920   33.3040   49.2260 C   0  0  0  0  0  0  0  0  0  0  0  0
   62.5640   33.0020   48.6810 C   0  0  0  0  0  0  0  0  0  0  0  0
   63.6510   32.5110   49.5230 N   0  0  0  0  0  0  0  0  0  0  0  0
   63.4250   31.3270   50.3800 C   0  0  0  0  0  0  0  0  0  0  0  0
   64.6290   30.9620   51.2540 C   0  0  0  0  0  0  0  0  0  0  0  0
   65.8370   31.1660   50.5600 O   0  0  0  0  0  0  0  0  0  0  0  0
   66.0180   32.5510   50.3870 C   0  0  0  0  0  0  0  0  0  0  0  0
   64.9920   33.1200   49.4030 C   0  0  0  0  0  0  0  0  0  0  0  0
   62.7460   33.2150   47.2930 C   0  0  0  0  0  0  0  0  0  0  0  0
   61.7050   33.6900   46.4910 C   0  0  0  0  0  0  0  0  0  0  0  0
   57.9454   25.6758   47.6932 H   0  0  0  0  0  0  0  0  0  0  0  0
   57.0272   25.6813   46.1493 H   0  0  0  0  0  0  0  0  0  0  0  0
   58.7863   26.0448   46.1493 H   0  0  0  0  0  0  0  0  0  0  0  0
   58.3932   28.6086   49.2182 H   0  0  0  0  0  0  0  0  0  0  0  0
   60.1862   30.3200   49.4749 H   0  0  0  0  0  0  0  0  0  0  0  0
   61.3673   31.2101   47.4666 H   0  0  0  0  0  0  0  0  0  0  0  0
   60.7307   30.4209   45.1914 H   0  0  0  0  0  0  0  0  0  0  0  0
   59.6507   28.4721   43.8210 H   0  0  0  0  0  0  0  0  0  0  0  0
   57.2521   27.5803   43.6474 H   0  0  0  0  0  0  0  0  0  0  0  0
   59.0019   31.7992   44.6503 H   0  0  0  0  0  0  0  0  0  0  0  0
   57.7674   31.7766   43.3387 H   0  0  0  0  0  0  0  0  0  0  0  0
   58.1276   34.0842   43.9159 H   0  0  0  0  0  0  0  0  0  0  0  0
   56.5333   33.5849   44.6322 H   0  0  0  0  0  0  0  0  0  0  0  0
   59.2832   34.0275   48.8665 H   0  0  0  0  0  0  0  0  0  0  0  0
   61.1157   33.1595   50.3021 H   0  0  0  0  0  0  0  0  0  0  0  0
   62.5677   31.5327   51.0378 H   0  0  0  0  0  0  0  0  0  0  0  0
   63.2436   30.4741   49.7094 H   0  0  0  0  0  0  0  0  0  0  0  0
   64.6221   31.5908   52.1565 H   0  0  0  0  0  0  0  0  0  0  0  0
   64.5558   29.8983   51.5247 H   0  0  0  0  0  0  0  0  0  0  0  0
   65.9013   33.0531   51.3587 H   0  0  0  0  0  0  0  0  0  0  0  0
   67.0258   32.7247   49.9819 H   0  0  0  0  0  0  0  0  0  0  0  0
   64.8997   34.2010   49.5843 H   0  0  0  0  0  0  0  0  0  0  0  0
   65.3580   32.8933   48.3908 H   0  0  0  0  0  0  0  0  0  0  0  0
   63.7246   33.0027   46.8378 H   0  0  0  0  0  0  0  0  0  0  0  0
   61.8753   33.8576   45.4173 H   0  0  0  0  0  0  0  0  0  0  0  0
  1  2  1  0
  2  3  1  0
  3  4  2  0
  4  5  1  0
  5  6  2  0
  6  7  1  0
  7  8  2  0
  8  9  1  0
  9 10  2  3
 10 11  1  0
 11 12  2  0
 11 13  2  0
 11 14  1  0
 14 15  1  0
 15 16  1  0
 16 17  1  0
 17 18  2  0
 17 19  1  0
 19 20  1  0
 20 21  2  0
 21 22  1  0
 22 23  2  0
 23 24  1  0
 24 25  1  0
 25 26  1  0
 26 27  1  0
 27 28  1  0
 28 29  1  0
 23 30  1  0
 30 31  2  0
  8  3  1  0
 31 20  1  0
 29 24  1  0
  1 32  1  0
  1 33  1  0
  1 34  1  0
  4 35  1  0
  5 36  1  0
  6 37  1  0
  7 38  1  0
  9 39  1  0
 10 40  1  0
 15 41  1  0
 15 42  1  0
 16 43  1  0
 16 44  1  0
 21 45  1  0
 22 46  1  0
 25 47  1  0
 25 48  1  0
 26 49  1  0
 26 50  1  0
 28 51  1  0
 28 52  1  0
 29 53  1  0
 29 54  1  0
 30 55  1  0
 31 56  1  0
M  CHG  2  14  -1  19  -1
M  END
>  <UniqueID>  (25) 
25

>  <SMILES>  (25) 
COc1ccccc1C=CS(=O)(=O)[N-]CCC(=O)[N-]c1ccc(N2CCOCC2)cc1

>  <Energy>  (25) 
69.09267421565171

>  <Genealogy>  (25) 
COc1ccccc1C=CS(=O)(=O)[N-]CCC(=O)[N-]c1ccc(N2CCOCC2)cc1 (protonated)
COc1ccccc1C=CS(=O)(=O)[N-]CCC(=O)[N-]c1ccc(N2CCOCC2)cc1 (3D coordinates assigned)
COc1ccccc1C=CS(=O)(=O)[N-]CCC(=O)[N-]c1ccc(N2CCOCC2)cc1 (nonaromatic ring conformer: 69.09267421565171 kcal/mol)

>  <smiles>  (25) 
COc1ccccc1C=CS(=O)(=O)NCCC(=O)Nc1ccc(N2CCOCC2)cc1

>  <score_type>  (25) 
oracle

>  <origin>  (25) 
adg

>  <m_score__min__energy>  (25) 
-12.68

>  <m_primary>  (25) 
energy

$$$$
25:0
     RDKit          3D

 35 36  0  0  1  0  0  0  0  0999 V2000
   61.1280   33.9620   49.7940 C   0  0  0  0  0  0  0  0  0  0  0  0
   60.5080   33.8540   48.4660 C   0  0  0  0  0  0  0  0  0  0  0  0
   61.1780   34.1590   47.2980 C   0  0  0  0  0  0  0  0  0  0  0  0
   60.6040   34.0610   46.0480 C   0  0  0  0  0  0  0  0  0  0  0  0
   59.2910   33.6330   46.0040 C   0  0  0  0  0  0  0  0  0  0  0  0
   58.7250   33.5310   44.8480 N   0  0  0  0  0  0  0  0  0  0  0  0
   57.5040   32.8270   44.6490 C   0  0  0  0  0  0  0  0  0  0  0  0
   56.5380   33.1460   45.4010 O   0  0  0  0  0  0  0  0  0  0  0  0
   57.3980   31.7940   43.6220 C   0  0  0  0  0  0  0  0  0  0  0  0
   57.8140   32.1000   42.2860 C   0  0  0  0  0  0  0  0  0  0  0  0
   58.1380   32.3580   41.1840 N   0  0  0  0  0  0  0  0  0  0  0  0
   56.8960   30.6140   43.9090 C   0  0  0  0  0  0  0  0  0  0  0  0
   57.5650   29.5830   44.6740 C   0  0  0  0  0  0  0  0  0  0  0  0
   57.7930   28.3730   44.0520 C   0  0  0  0  0  0  0  0  0  0  0  0
   57.4020   28.1780   42.6950 N   0  0  0  0  0  0  0  0  0  0  0  0
   58.3890   27.3780   44.7350 N   0  0  0  0  0  0  0  0  0  0  0  0
   58.7850   27.4870   46.0160 C   0  0  0  0  0  0  0  0  0  0  0  0
   59.3410   26.5550   46.6490 O   0  0  0  0  0  0  0  0  0  0  0  0
   58.5550   28.6770   46.6140 N   0  0  0  0  0  0  0  0  0  0  0  0
   57.9660   29.7010   45.9820 C   0  0  0  0  0  0  0  0  0  0  0  0
   57.7700   30.8770   46.6800 O   0  0  0  0  0  0  0  0  0  0  0  0
   58.5960   33.3240   47.1190 N   0  0  0  0  0  0  0  0  0  0  0  0
   59.1890   33.4310   48.3270 C   0  0  0  0  0  0  0  0  0  0  0  0
   60.3594   33.8281   50.5695 H   0  0  0  0  0  0  0  0  0  0  0  0
   61.8985   33.1845   49.9033 H   0  0  0  0  0  0  0  0  0  0  0  0
   61.5902   34.9542   49.9033 H   0  0  0  0  0  0  0  0  0  0  0  0
   62.2224   34.4972   47.3681 H   0  0  0  0  0  0  0  0  0  0  0  0
   61.1623   34.3105   45.1336 H   0  0  0  0  0  0  0  0  0  0  0  0
   55.8848   30.3914   43.5376 H   0  0  0  0  0  0  0  0  0  0  0  0
   57.6340   28.9070   41.9890 H   0  0  0  0  0  0  0  0  0  0  0  0
   56.8900   27.3040   42.4330 H   0  0  0  0  0  0  0  0  0  0  0  0
   58.8640   28.7550   47.6060 H   0  0  0  0  0  0  0  0  0  0  0  0
   57.0210   31.5310   46.5160 H   0  0  0  0  0  0  0  0  0  0  0  0
   57.5950   32.9990   47.0670 H   0  0  0  0  0  0  0  0  0  0  0  0
   58.6126   33.1763   49.2286 H   0  0  0  0  0  0  0  0  0  0  0  0
  1  2  1  0
  2  3  1  0
  3  4  2  0
  4  5  1  0
  5  6  2  0
  6  7  1  0
  7  8  2  0
  7  9  1  0
  9 10  1  0
 10 11  3  0
  9 12  2  0
 12 13  1  0
 13 14  1  0
 14 15  1  0
 14 16  2  0
 16 17  1  0
 17 18  2  0
 17 19  1  0
 19 20  1  0
 20 21  1  0
  5 22  1  0
 22 23  1  0
 23  2  2  0
 20 13  2  0
  1 24  1  0
  1 25  1  0
  1 26  1  0
  3 27  1  0
  4 28  1  0
 12 29  1  0
 15 30  1  0
 15 31  1  0
 19 32  1  0
 21 33  1  0
 22 34  1  0
 23 35  1  0
M  END
>  <smiles>  (26) 
Cc1ccc(=NC(=O)C(C#N)=Cc2c(N)nc(=O)[nH]c2O)[nH]c1

>  <score_type>  (26) 
oracle

>  <origin>  (26) 
adg

>  <m_score__min__energy>  (26) 
-8.5399999999999991

>  <m_primary>  (26) 
energy

$$$$
26:0
     RDKit          3D

 51 53  0  0  0  0  0  0  0  0999 V2000
   63.3160   33.9030   46.2270 C   0  0  0  0  0  0  0  0  0  0  0  0
   63.3770   33.6730   47.7030 C   0  0  0  0  0  0  0  0  0  0  0  0
   64.5110   33.1120   48.3010 C   0  0  0  0  0  0  0  0  0  0  0  0
   64.5220   32.9530   49.6880 C   0  0  0  0  0  0  0  0  0  0  0  0
   63.4550   33.3530   50.4260 N   0  0  0  0  0  0  0  0  0  0  0  0
   62.3630   33.9060   49.8360 C   0  0  0  0  0  0  0  0  0  0  0  0
   61.3570   34.2720   50.5690 N   0  0  0  0  0  0  0  0  0  0  0  0
   59.8240   33.4570   50.5770 S   0  0  0  0  0  0  0  0  0  0  0  0
   58.8950   34.1350   51.5460 O   0  0  0  0  0  0  0  0  0  0  0  0
   60.0220   32.0350   51.0210 O   0  0  0  0  0  0  0  0  0  0  0  0
   59.1420   33.4660   48.9530 C   0  0  0  0  0  0  0  0  0  0  0  0
   58.3140   32.4140   48.5390 C   0  0  0  0  0  0  0  0  0  0  0  0
   57.8280   32.3770   47.2300 C   0  0  0  0  0  0  0  0  0  0  0  0
   58.1840   33.3750   46.3150 C   0  0  0  0  0  0  0  0  0  0  0  0
   57.6900   33.2960   44.9710 N   0  0  0  0  0  0  0  0  0  0  0  0
   57.9830   32.2520   44.0320 C   0  0  0  0  0  0  0  0  0  0  0  0
   58.1150   32.5550   42.8170 O   0  0  0  0  0  0  0  0  0  0  0  0
   58.0770   30.8280   44.4400 C   0  0  0  0  0  0  0  0  0  0  0  0
   59.2770   30.3000   44.9500 C   0  0  0  0  0  0  0  0  0  0  0  0
   59.3480   28.9630   45.3540 C   0  0  0  0  0  0  0  0  0  0  0  0
   58.2210   28.1320   45.2590 C   0  0  0  0  0  0  0  0  0  0  0  0
   58.2830   26.7130   45.7520 C   0  0  0  0  0  0  0  0  0  0  0  0
   57.2640   26.5080   46.7830 N   0  0  0  0  0  0  0  0  0  0  0  0
   55.9790   25.5150   46.1580 S   0  0  0  0  0  0  0  0  0  0  0  0
   56.4780   24.7610   44.6240 C   0  0  0  0  0  0  0  0  0  0  0  0
   55.6710   24.4330   47.1540 O   0  0  0  0  0  0  0  0  0  0  0  0
   54.7440   26.3420   45.9320 O   0  0  0  0  0  0  0  0  0  0  0  0
   57.0170   28.6620   44.7710 C   0  0  0  0  0  0  0  0  0  0  0  0
   56.9460   29.9980   44.3650 C   0  0  0  0  0  0  0  0  0  0  0  0
   58.9920   34.4440   46.7390 C   0  0  0  0  0  0  0  0  0  0  0  0
   59.4680   34.4870   48.0510 C   0  0  0  0  0  0  0  0  0  0  0  0
   62.3360   34.0640   48.4840 N   0  0  0  0  0  0  0  0  0  0  0  0
   63.0386   34.9491   46.0301 H   0  0  0  0  0  0  0  0  0  0  0  0
   64.3004   33.6948   45.7825 H   0  0  0  0  0  0  0  0  0  0  0  0
   62.5641   33.2343   45.7825 H   0  0  0  0  0  0  0  0  0  0  0  0
   65.3737   32.8034   47.6923 H   0  0  0  0  0  0  0  0  0  0  0  0
   65.3955   32.5035   50.1830 H   0  0  0  0  0  0  0  0  0  0  0  0
   58.0461   31.6155   49.2465 H   0  0  0  0  0  0  0  0  0  0  0  0
   57.1621   31.5595   46.9165 H   0  0  0  0  0  0  0  0  0  0  0  0
   60.1656   30.9432   45.0316 H   0  0  0  0  0  0  0  0  0  0  0  0
   60.2926   28.5604   45.7485 H   0  0  0  0  0  0  0  0  0  0  0  0
   58.0992   26.0254   44.9133 H   0  0  0  0  0  0  0  0  0  0  0  0
   59.2784   26.5163   46.1770 H   0  0  0  0  0  0  0  0  0  0  0  0
   56.8430   27.4380   47.0130 H   0  0  0  0  0  0  0  0  0  0  0  0
   57.0738   23.8607   44.8347 H   0  0  0  0  0  0  0  0  0  0  0  0
   55.5852   24.4826   44.0448 H   0  0  0  0  0  0  0  0  0  0  0  0
   57.0832   25.4739   44.0448 H   0  0  0  0  0  0  0  0  0  0  0  0
   56.1240   28.0229   44.7075 H   0  0  0  0  0  0  0  0  0  0  0  0
   55.9968   30.4026   43.9837 H   0  0  0  0  0  0  0  0  0  0  0  0
   59.2501   35.2491   46.0353 H   0  0  0  0  0  0  0  0  0  0  0  0
   60.1010   35.3253   48.3773 H   0  0  0  0  0  0  0  0  0  0  0  0
  1  2  1  0
  2  3  1  0
  3  4  2  0
  4  5  1  0
  5  6  1  0
  6  7  2  3
  7  8  1  0
  8  9  2  0
  8 10  2  0
  8 11  1  0
 11 12  2  0
 12 13  1  0
 13 14  2  0
 14 15  1  0
 15 16  1  0
 16 17  2  0
 16 18  1  0
 18 19  2  0
 19 20  1  0
 20 21  2  0
 21 22  1  0
 22 23  1  0
 23 24  1  0
 24 25  1  0
 24 26  2  0
 24 27  2  0
 21 28  1  0
 28 29  2  0
 14 30  1  0
 30 31  2  0
  6 32  1  0
 32  2  2  0
 31 11  1  0
 29 18  1  0
  1 33  1  0
  1 34  1  0
  1 35  1  0
  3 36  1  0
  4 37  1  0
 12 38  1  0
 13 39  1  0
 19 40  1  0
 20 41  1  0
 22 42  1  0
 22 43  1  0
 23 44  1  0
 25 45  1  0
 25 46  1  0
 25 47  1  0
 28 48  1  0
 29 49  1  0
 30 50  1  0
 31 51  1  0
M  CHG  2   5  -1  15  -1
M  END
>  <UniqueID>  (27) 
26

>  <SMILES>  (27) 
Cc1cc[n-]c(=NS(=O)(=O)c2ccc([N-]C(=O)c3ccc(CNS(C)(=O)=O)cc3)cc2)n1

>  <Energy>  (27) 
52.316577280252744

>  <Genealogy>  (27) 
Cc1cc[n-]c(=NS(=O)(=O)c2ccc([N-]C(=O)c3ccc(CNS(C)(=O)=O)cc3)cc2)n1 (protonated)
Cc1cc[n-]c(=NS(=O)(=O)c2ccc([N-]C(=O)c3ccc(CNS(C)(=O)=O)cc3)cc2)n1 (3D coordinates assigned)
Cc1cc[n-]c(=NS(=O)(=O)c2ccc([N-]C(=O)c3ccc(CNS(C)(=O)=O)cc3)cc2)n1 (optimized conformer: 52.316577280252744 kcal/mol)

>  <smiles>  (27) 
Cc1cc[nH]c(=NS(=O)(=O)c2ccc(NC(=O)c3ccc(CNS(C)(=O)=O)cc3)cc2)n1

>  <score_type>  (27) 
oracle

>  <origin>  (27) 
adg

>  <m_score__min__energy>  (27) 
-12.16

>  <m_primary>  (27) 
energy

$$$$
27:0
     RDKit          3D

 58 61  0  0  0  0  0  0  0  0999 V2000
   55.8538   25.5937   46.6434 H   0  0  0  0  0  0  0  0  0  0  0  0
   56.4370   26.4800   46.3530 C   0  0  0  0  0  0  0  0  0  0  0  0
   55.8610   27.4490   45.5990 N   0  0  0  0  0  0  0  0  0  0  0  0
   56.5420   28.5590   45.2160 C   0  0  0  0  0  0  0  0  0  0  0  0
   55.9020   29.5300   44.4380 C   0  0  0  0  0  0  0  0  0  0  0  0
   54.8520   29.3902   44.1413 H   0  0  0  0  0  0  0  0  0  0  0  0
   56.5920   30.6760   44.0370 C   0  0  0  0  0  0  0  0  0  0  0  0
   56.0842   31.4368   43.4260 H   0  0  0  0  0  0  0  0  0  0  0  0
   57.9250   30.8580   44.4100 C   0  0  0  0  0  0  0  0  0  0  0  0
   58.4650   31.7615   44.0906 H   0  0  0  0  0  0  0  0  0  0  0  0
   58.5760   29.8960   45.1880 C   0  0  0  0  0  0  0  0  0  0  0  0
   59.6261   30.0471   45.4785 H   0  0  0  0  0  0  0  0  0  0  0  0
   57.8940   28.7320   45.6030 C   0  0  0  0  0  0  0  0  0  0  0  0
   58.5160   27.7370   46.3930 C   0  0  0  0  0  0  0  0  0  0  0  0
   59.7630   27.8890   46.7540 N   0  0  0  0  0  0  0  0  0  0  0  0
   60.2690   28.3660   48.0420 C   0  0  0  0  0  0  0  0  0  0  0  0
   61.1151   29.0472   47.8688 H   0  0  0  0  0  0  0  0  0  0  0  0
   60.5948   27.5014   48.6389 H   0  0  0  0  0  0  0  0  0  0  0  0
   59.1670   29.1130   48.8090 C   0  0  0  0  0  0  0  0  0  0  0  0
   58.7859   28.4582   49.6065 H   0  0  0  0  0  0  0  0  0  0  0  0
   58.3769   29.3748   48.0898 H   0  0  0  0  0  0  0  0  0  0  0  0
   59.6740   30.4170   49.4420 C   0  0  0  0  0  0  0  0  0  0  0  0
   60.5172   30.7947   48.8451 H   0  0  0  0  0  0  0  0  0  0  0  0
   59.9793   30.1915   50.4744 H   0  0  0  0  0  0  0  0  0  0  0  0
   58.5860   31.5030   49.5020 C   0  0  0  0  0  0  0  0  0  0  0  0
   57.6241   31.0561   49.2104 H   0  0  0  0  0  0  0  0  0  0  0  0
   58.8795   32.3106   48.8152 H   0  0  0  0  0  0  0  0  0  0  0  0
   58.4420   32.1130   50.9120 C   0  0  0  0  0  0  0  0  0  0  0  0
   58.0823   33.1473   50.8080 H   0  0  0  0  0  0  0  0  0  0  0  0
   59.4320   32.0592   51.3885 H   0  0  0  0  0  0  0  0  0  0  0  0
   57.4620   31.3460   51.8210 C   0  0  0  0  0  0  0  0  0  0  0  0
   56.7127   30.8577   51.1806 H   0  0  0  0  0  0  0  0  0  0  0  0
   57.0301   32.0900   52.5066 H   0  0  0  0  0  0  0  0  0  0  0  0
   58.1100   30.2670   52.7070 C   0  0  0  0  0  0  0  0  0  0  0  0
   58.2175   30.6723   53.7239 H   0  0  0  0  0  0  0  0  0  0  0  0
   59.0778   30.0158   52.2484 H   0  0  0  0  0  0  0  0  0  0  0  0
   57.3020   28.9610   52.7890 C   0  0  0  0  0  0  0  0  0  0  0  0
   57.3292   28.5883   53.8236 H   0  0  0  0  0  0  0  0  0  0  0  0
   57.7522   28.2328   52.0983 H   0  0  0  0  0  0  0  0  0  0  0  0
   55.9070   29.1670   52.3940 N   0  0  0  0  0  0  0  0  0  0  0  0
   54.8670   29.3290   53.1690 C   0  0  0  0  0  0  0  0  0  0  0  0
   54.7580   28.6790   54.4170 C   0  0  0  0  0  0  0  0  0  0  0  0
   55.5608   28.0105   54.7613 H   0  0  0  0  0  0  0  0  0  0  0  0
   53.6310   28.8850   55.2140 C   0  0  0  0  0  0  0  0  0  0  0  0
   53.5476   28.3766   56.1859 H   0  0  0  0  0  0  0  0  0  0  0  0
   52.6380   29.7090   54.7960 N   0  0  0  0  0  0  0  0  0  0  0  0
   52.6980   30.3580   53.6050 C   0  0  0  0  0  0  0  0  0  0  0  0
   51.6470   31.1970   53.2210 C   0  0  0  0  0  0  0  0  0  0  0  0
   50.7794   31.3279   53.8844 H   0  0  0  0  0  0  0  0  0  0  0  0
   51.6960   31.8700   51.9960 C   0  0  0  0  0  0  0  0  0  0  0  0
   50.6490   32.7020   51.6200 O   0  0  0  0  0  0  0  0  0  0  0  0
   52.7970   31.7070   51.1530 C   0  0  0  0  0  0  0  0  0  0  0  0
   52.8329   32.2392   50.1910 H   0  0  0  0  0  0  0  0  0  0  0  0
   53.8540   30.8710   51.5250 C   0  0  0  0  0  0  0  0  0  0  0  0
   54.7165   30.7476   50.8535 H   0  0  0  0  0  0  0  0  0  0  0  0
   53.8200   30.1850   52.7570 C   0  0  0  0  0  0  0  0  0  0  0  0
   57.7640   26.6010   46.7620 C   0  0  0  0  0  0  0  0  0  0  0  0
   58.2253   25.8108   47.3726 H   0  0  0  0  0  0  0  0  0  0  0  0
  1  2  1  0
  2  3  1  0
  3  4  1  0
  4  5  2  0
  5  6  1  0
  5  7  1  0
  7  8  1  0
  7  9  2  0
  9 10  1  0
  9 11  1  0
 11 12  1  0
 11 13  2  0
 13 14  1  0
 14 15  2  0
 15 16  1  0
 16 17  1  0
 16 18  1  0
 16 19  1  0
 19 20  1  0
 19 21  1  0
 19 22  1  0
 22 23  1  0
 22 24  1  0
 22 25  1  0
 25 26  1  0
 25 27  1  0
 25 28  1  0
 28 29  1  0
 28 30  1  0
 28 31  1  0
 31 32  1  0
 31 33  1  0
 31 34  1  0
 34 35  1  0
 34 36  1  0
 34 37  1  0
 37 38  1  0
 37 39  1  0
 37 40  1  0
 40 41  2  0
 41 42  1  0
 42 43  1  0
 42 44  2  0
 44 45  1  0
 44 46  1  0
 46 47  1  0
 47 48  2  0
 48 49  1  0
 48 50  1  0
 50 51  1  0
 50 52  2  0
 52 53  1  0
 52 54  1  0
 54 55  1  0
 54 56  2  0
 14 57  1  0
 57 58  1  0
 57  2  2  0
 13  4  1  0
 56 41  1  0
 56 47  1  0
M  CHG  3   3  -1  46  -1  51  -1
M  END
>  <UniqueID>  (28) 
27

>  <SMILES>  (28) 
[O-]c1ccc2/c(=N/CCCCCCCC/N=c3\cc[n-]c4ccccc34)cc[n-]c2c1

>  <Energy>  (28) 
68.23467257288317

>  <Genealogy>  (28) 
[O-]c1ccc2c(=NCCCCCCCCN=c3cc[n-]c4ccccc34)cc[n-]c2c1 (protonated)
[O-]c1ccc2/c(=N/CCCCCCCC/N=c3\cc[n-]c4ccccc34)cc[n-]c2c1 (cis-trans isomerization)
[O-]c1ccc2/c(=N/CCCCCCCC/N=c3\cc[n-]c4ccccc34)cc[n-]c2c1 (3D coordinates assigned)
[O-]c1ccc2/c(=N/CCCCCCCC/N=c3\cc[n-]c4ccccc34)cc[n-]c2c1 (optimized conformer: 68.23467257288317 kcal/mol)

>  <smiles>  (28) 
Oc1ccc2c(=NCCCCCCCCN=c3cc[nH]c4ccccc34)cc[nH]c2c1

>  <score_type>  (28) 
oracle

>  <origin>  (28) 
adg

>  <m_score__min__energy>  (28) 
-15.67

>  <m_primary>  (28) 
energy

$$$$
28:0
     RDKit          3D

 65 69  0  0  0  0  0  0  0  0999 V2000
   50.2800   32.3060   50.9290 H   0  0  0  0  0  0  0  0  0  0  0  0
   51.0170   32.7240   51.5370 N   0  0  0  0  0  0  0  0  0  0  0  0
   51.3110   31.5960   52.8160 S   0  0  0  0  0  0  0  0  0  0  0  0
   50.3340   30.4570   52.7200 O   0  0  0  0  0  0  0  0  0  0  0  0
   51.1260   32.2870   54.1390 O   0  0  0  0  0  0  0  0  0  0  0  0
   52.9540   30.9760   52.6830 C   0  0  0  0  0  0  0  0  0  0  0  0
   53.6670   31.0640   51.4790 C   0  0  0  0  0  0  0  0  0  0  0  0
   53.2140   31.5584   50.6070 H   0  0  0  0  0  0  0  0  0  0  0  0
   54.9200   30.5380   51.3880 N   0  0  0  0  0  0  0  0  0  0  0  0
   55.5170   29.9030   52.4350 C   0  0  0  0  0  0  0  0  0  0  0  0
   56.8310   29.3460   52.2430 N   0  0  0  0  0  0  0  0  0  0  0  0
   57.8460   29.9540   51.7030 C   0  0  0  0  0  0  0  0  0  0  0  0
   58.0290   29.9530   50.3550 N   0  0  0  0  0  0  0  0  0  0  0  0
   59.0600   30.6130   49.7640 C   0  0  0  0  0  0  0  0  0  0  0  0
   59.2400   30.5090   48.3360 N   0  0  0  0  0  0  0  0  0  0  0  0
   58.7120   31.5560   47.5080 C   0  0  0  0  0  0  0  0  0  0  0  0
   58.6250   32.8700   47.9970 C   0  0  0  0  0  0  0  0  0  0  0  0
   58.9874   33.1030   49.0091 H   0  0  0  0  0  0  0  0  0  0  0  0
   58.0800   33.8820   47.2030 C   0  0  0  0  0  0  0  0  0  0  0  0
   58.0299   34.9132   47.5827 H   0  0  0  0  0  0  0  0  0  0  0  0
   57.5960   33.5810   45.9190 C   0  0  0  0  0  0  0  0  0  0  0  0
   57.0260   34.5740   45.1260 O   0  0  0  0  0  0  0  0  0  0  0  0
   56.2210   35.1030   45.4410 H   0  0  0  0  0  0  0  0  0  0  0  0
   57.6970   32.2750   45.4250 C   0  0  0  0  0  0  0  0  0  0  0  0
   57.3321   32.0412   44.4140 H   0  0  0  0  0  0  0  0  0  0  0  0
   58.2610   31.2660   46.2140 C   0  0  0  0  0  0  0  0  0  0  0  0
   58.3502   30.2439   45.8174 H   0  0  0  0  0  0  0  0  0  0  0  0
   60.0490   29.4500   47.7180 C   0  0  0  0  0  0  0  0  0  0  0  0
   60.0646   29.5956   46.6278 H   0  0  0  0  0  0  0  0  0  0  0  0
   61.0712   29.5010   48.1212 H   0  0  0  0  0  0  0  0  0  0  0  0
   59.4580   28.0710   48.0350 C   0  0  0  0  0  0  0  0  0  0  0  0
   60.0085   27.6344   48.8814 H   0  0  0  0  0  0  0  0  0  0  0  0
   58.3940   28.2048   48.2799 H   0  0  0  0  0  0  0  0  0  0  0  0
   59.5530   27.1190   46.8390 C   0  0  0  0  0  0  0  0  0  0  0  0
   60.5987   27.0481   46.5052 H   0  0  0  0  0  0  0  0  0  0  0  0
   59.2003   26.1183   47.1292 H   0  0  0  0  0  0  0  0  0  0  0  0
   58.7150   27.6480   45.7400 N   0  0  0  0  0  0  0  0  0  0  0  0
   57.3080   27.8260   46.1320 C   0  0  1  0  0  0  0  0  0  0  0  0
   57.1917   28.2187   47.1529 H   0  0  0  0  0  0  0  0  0  0  0  0
   56.6600   28.8250   45.1390 C   0  0  0  0  0  0  0  0  0  0  0  0
   56.7023   29.8330   45.5773 H   0  0  0  0  0  0  0  0  0  0  0  0
   55.6243   28.4961   44.9684 H   0  0  0  0  0  0  0  0  0  0  0  0
   57.3730   28.8540   43.7600 C   0  0  0  0  0  0  0  0  0  0  0  0
   58.1189   29.6623   43.7774 H   0  0  0  0  0  0  0  0  0  0  0  0
   56.5853   29.0062   43.0074 H   0  0  0  0  0  0  0  0  0  0  0  0
   58.0990   27.5340   43.3730 C   0  0  0  0  0  0  0  0  0  0  0  0
   58.9720   27.7837   42.7521 H   0  0  0  0  0  0  0  0  0  0  0  0
   57.3744   26.9076   42.8321 H   0  0  0  0  0  0  0  0  0  0  0  0
   58.5850   26.7210   44.6060 C   0  0  2  0  0  0  0  0  0  0  0  0
   59.5295   26.2231   44.3416 H   0  0  0  0  0  0  0  0  0  0  0  0
   57.5340   25.6870   45.0300 C   0  0  0  0  0  0  0  0  0  0  0  0
   58.0103   24.8216   45.5139 H   0  0  0  0  0  0  0  0  0  0  0  0
   56.9677   25.2855   44.1767 H   0  0  0  0  0  0  0  0  0  0  0  0
   56.6520   26.4390   46.0150 C   0  0  0  0  0  0  0  0  0  0  0  0
   56.6373   25.9315   46.9908 H   0  0  0  0  0  0  0  0  0  0  0  0
   55.6051   26.4963   45.6822 H   0  0  0  0  0  0  0  0  0  0  0  0
   59.9650   31.3140   50.5760 C   0  0  0  0  0  0  0  0  0  0  0  0
   60.8190   31.8478   50.1335 H   0  0  0  0  0  0  0  0  0  0  0  0
   59.7590   31.3200   51.9580 C   0  0  0  0  0  0  0  0  0  0  0  0
   60.4490   31.8714   52.6137 H   0  0  0  0  0  0  0  0  0  0  0  0
   58.7080   30.6460   52.4930 N   0  0  0  0  0  0  0  0  0  0  0  0
   54.8470   29.8290   53.6700 C   0  0  0  0  0  0  0  0  0  0  0  0
   55.3324   29.3575   54.5373 H   0  0  0  0  0  0  0  0  0  0  0  0
   53.5590   30.3600   53.7850 C   0  0  0  0  0  0  0  0  0  0  0  0
   53.0205   30.2938   54.7419 H   0  0  0  0  0  0  0  0  0  0  0  0
  1  2  1  0
  2  3  1  0
  3  4  2  0
  3  5  2  0
  3  6  1  0
  6  7  2  0
  7  8  1  0
  7  9  1  0
  9 10  2  0
 10 11  1  0
 11 12  2  0
 12 13  1  0
 13 14  2  0
 14 15  1  0
 15 16  1  0
 16 17  2  0
 17 18  1  0
 17 19  1  0
 19 20  1  0
 19 21  2  0
 21 22  1  0
 22 23  1  0
 21 24  1  0
 24 25  1  0
 24 26  2  0
 26 27  1  0
 15 28  1  0
 28 29  1  0
 28 30  1  0
 28 31  1  0
 31 32  1  0
 31 33  1  0
 31 34  1  0
 34 35  1  0
 34 36  1  0
 34 37  1  0
 37 38  1  0
 38 39  1  1
 38 40  1  0
 40 41  1  0
 40 42  1  0
 40 43  1  0
 43 44  1  0
 43 45  1  0
 43 46  1  0
 46 47  1  0
 46 48  1  0
 46 49  1  0
 49 50  1  6
 49 51  1  0
 51 52  1  0
 51 53  1  0
 51 54  1  0
 54 55  1  0
 54 56  1  0
 14 57  1  0
 57 58  1  0
 57 59  2  0
 59 60  1  0
 59 61  1  0
 10 62  1  0
 62 63  1  0
 62 64  2  0
 64 65  1  0
 64  6  1  0
 61 12  1  0
 26 16  1  0
 49 37  1  0
 54 38  1  0
M  CHG  2   2  -1  61  -1
M  END
>  <UniqueID>  (29) 
28

>  <SMILES>  (29) 
[NH-]S(=O)(=O)c1ccc(/N=c2\nc(N(CCCN3[C@@H]4CCC[C@H]3CC4)c3ccc(O)cc3)cc[n-]2)nc1

>  <Energy>  (29) 
98.65801162224983

>  <Genealogy>  (29) 
[NH-]S(=O)(=O)c1ccc(N=c2nc(N(CCCN3C4CCCC3CC4)c3ccc(O)cc3)cc[n-]2)nc1 (protonated)
[NH-]S(=O)(=O)c1ccc(N=c2nc(N(CCCN3[C@@H]4CCC[C@H]3CC4)c3ccc(O)cc3)cc[n-]2)nc1 (chirality)
[NH-]S(=O)(=O)c1ccc(/N=c2\nc(N(CCCN3[C@@H]4CCC[C@H]3CC4)c3ccc(O)cc3)cc[n-]2)nc1 (cis-trans isomerization)
[NH-]S(=O)(=O)c1ccc(/N=c2\nc(N(CCCN3[C@@H]4CCC[C@H]3CC4)c3ccc(O)cc3)cc[n-]2)nc1 (3D coordinates assigned)
[NH-]S(=O)(=O)c1ccc(/N=c2\nc(N(CCCN3[C@@H]4CCC[C@H]3CC4)c3ccc(O)cc3)cc[n-]2)nc1 (nonaromatic ring conformer: 98.65801162224983 kcal/mol)

>  <smiles>  (29) 
NS(=O)(=O)c1ccc(N=c2nc(N(CCCN3C4CCCC3CC4)c3ccc(O)cc3)cc[nH]2)nc1

>  <score_type>  (29) 
oracle

>  <origin>  (29) 
adg

>  <m_score__min__energy>  (29) 
-13.880000000000001

>  <m_primary>  (29) 
energy

$$$$
29:0
     RDKit          3D

 45 47  0  0  0  0  0  0  0  0999 V2000
   56.8720   23.1420   47.3200 H   0  0  0  0  0  0  0  0  0  0  0  0
   57.4470   22.5310   46.7500 O   0  0  0  0  0  0  0  0  0  0  0  0
   57.1260   22.2440   45.4250 C   0  0  0  0  0  0  0  0  0  0  0  0
   57.9340   21.3470   44.7130 C   0  0  0  0  0  0  0  0  0  0  0  0
   58.7605   20.8313   45.2238 H   0  0  0  0  0  0  0  0  0  0  0  0
   57.6960   21.1050   43.3620 C   0  0  0  0  0  0  0  0  0  0  0  0
   58.3267   20.3974   42.8038 H   0  0  0  0  0  0  0  0  0  0  0  0
   56.6510   21.7690   42.7270 C   0  0  0  0  0  0  0  0  0  0  0  0
   56.4646   21.6029   41.6557 H   0  0  0  0  0  0  0  0  0  0  0  0
   55.8610   22.6220   43.4290 N   0  0  0  0  0  0  0  0  0  0  0  0
   56.0390   22.8690   44.7560 C   0  0  0  0  0  0  0  0  0  0  0  0
   55.2150   23.7060   45.3260 N   0  0  0  0  0  0  0  0  0  0  0  0
   55.3760   25.0990   45.6230 C   0  0  0  0  0  0  0  0  0  0  0  0
   54.3850   25.8120   45.9380 O   0  0  0  0  0  0  0  0  0  0  0  0
   56.7120   25.7390   45.4380 C   0  0  0  0  0  0  0  0  0  0  0  0
   57.4842   24.9571   45.3898 H   0  0  0  0  0  0  0  0  0  0  0  0
   56.7013   26.3202   44.5041 H   0  0  0  0  0  0  0  0  0  0  0  0
   57.0820   26.8640   46.8290 S   0  0  0  0  0  0  0  0  0  0  0  0
   58.3370   27.8150   45.9480 C   0  0  0  0  0  0  0  0  0  0  0  0
   59.6760   27.4480   46.1340 C   0  0  0  0  0  0  0  0  0  0  0  0
   59.9208   26.5880   46.7747 H   0  0  0  0  0  0  0  0  0  0  0  0
   60.7020   28.1620   45.5150 C   0  0  0  0  0  0  0  0  0  0  0  0
   61.7482   27.8507   45.6511 H   0  0  0  0  0  0  0  0  0  0  0  0
   60.4020   29.2700   44.7240 C   0  0  0  0  0  0  0  0  0  0  0  0
   61.2117   29.8328   44.2366 H   0  0  0  0  0  0  0  0  0  0  0  0
   59.0740   29.6660   44.5500 C   0  0  0  0  0  0  0  0  0  0  0  0
   58.8466   30.5504   43.9367 H   0  0  0  0  0  0  0  0  0  0  0  0
   58.0230   28.9470   45.1500 C   0  0  0  0  0  0  0  0  0  0  0  0
   56.6350   29.4280   44.9470 C   0  0  0  0  0  0  0  0  0  0  0  0
   55.6890   28.5940   44.8950 O   0  0  0  0  0  0  0  0  0  0  0  0
   56.3510   30.8270   44.8580 N   0  0  0  0  0  0  0  0  0  0  0  0
   57.1510   31.7690   44.0850 C   0  0  0  0  0  0  0  0  0  0  0  0
   57.8757   31.2139   43.4712 H   0  0  0  0  0  0  0  0  0  0  0  0
   56.4876   32.3591   43.4356 H   0  0  0  0  0  0  0  0  0  0  0  0
   57.8890   32.6960   45.0110 C   0  0  0  0  0  0  0  0  0  0  0  0
   58.5920   33.7950   44.4900 C   0  0  0  0  0  0  0  0  0  0  0  0
   58.6263   33.9580   43.4027 H   0  0  0  0  0  0  0  0  0  0  0  0
   59.2480   34.6820   45.3480 C   0  0  0  0  0  0  0  0  0  0  0  0
   59.7961   35.5415   44.9346 H   0  0  0  0  0  0  0  0  0  0  0  0
   59.2090   34.4790   46.7310 C   0  0  0  0  0  0  0  0  0  0  0  0
   59.8450   35.3400   47.5620 F   0  0  0  0  0  0  0  0  0  0  0  0
   58.5110   33.3880   47.2570 C   0  0  0  0  0  0  0  0  0  0  0  0
   58.4821   33.2274   48.3448 H   0  0  0  0  0  0  0  0  0  0  0  0
   57.8490   32.5000   46.4020 C   0  0  0  0  0  0  0  0  0  0  0  0
   57.2957   31.6460   46.8198 H   0  0  0  0  0  0  0  0  0  0  0  0
  1  2  1  0
  2  3  1  0
  3  4  2  0
  4  5  1  0
  4  6  1  0
  6  7  1  0
  6  8  2  0
  8  9  1  0
  8 10  1  0
 10 11  1  0
 11 12  2  0
 12 13  1  0
 13 14  2  0
 13 15  1  0
 15 16  1  0
 15 17  1  0
 15 18  1  0
 18 19  1  0
 19 20  2  0
 20 21  1  0
 20 22  1  0
 22 23  1  0
 22 24  2  0
 24 25  1  0
 24 26  1  0
 26 27  1  0
 26 28  2  0
 28 29  1  0
 29 30  2  0
 29 31  1  0
 31 32  1  0
 32 33  1  0
 32 34  1  0
 32 35  1  0
 35 36  2  0
 36 37  1  0
 36 38  1  0
 38 39  1  0
 38 40  2  0
 40 41  1  0
 40 42  1  0
 42 43  1  0
 42 44  2  0
 44 45  1  0
 11  3  1  0
 28 19  1  0
 44 35  1  0
M  CHG  2  10  -1  31  -1
M  END
>  <UniqueID>  (30) 
29

>  <SMILES>  (30) 
O=C(CSc1ccccc1C(=O)[N-]Cc1ccc(F)cc1)/N=c1/[n-]cccc1O

>  <Energy>  (30) 
55.88607375987464

>  <Genealogy>  (30) 
O=C(CSc1ccccc1C(=O)[N-]Cc1ccc(F)cc1)N=c1[n-]cccc1O (protonated)
O=C(CSc1ccccc1C(=O)[N-]Cc1ccc(F)cc1)/N=c1/[n-]cccc1O (cis-trans isomerization)
O=C(CSc1ccccc1C(=O)[N-]Cc1ccc(F)cc1)/N=c1/[n-]cccc1O (3D coordinates assigned)
O=C(CSc1ccccc1C(=O)[N-]Cc1ccc(F)cc1)/N=c1/[n-]cccc1O (optimized conformer: 55.88607375987464 kcal/mol)

>  <smiles>  (30) 
O=C(CSc1ccccc1C(=O)NCc1ccc(F)cc1)N=c1[nH]cccc1O

>  <score_type>  (30) 
oracle

>  <origin>  (30) 
adg

>  <m_score__min__energy>  (30) 
-12.51

>  <m_primary>  (30) 
energy

$$$$
30:0
     RDKit          3D

 48 51  0  0  0  0  0  0  0  0999 V2000
   58.8660   28.1180   47.4140 C   0  0  0  0  0  0  0  0  0  0  0  0
   58.3660   28.2570   46.1770 C   0  0  0  0  0  0  0  0  0  0  0  0
   57.8360   27.2390   45.3780 C   0  0  0  0  0  0  0  0  0  0  0  0
   57.7800   25.9220   45.6590 C   0  0  0  0  0  0  0  0  0  0  0  0
   56.5460   25.1130   45.5390 C   0  0  0  0  0  0  0  0  0  0  0  0
   55.2900   25.7220   45.6880 C   0  0  0  0  0  0  0  0  0  0  0  0
   55.1910   27.0760   45.9840 O   0  0  0  0  0  0  0  0  0  0  0  0
   54.1580   24.9840   45.5520 N   0  0  0  0  0  0  0  0  0  0  0  0
   54.2140   23.6600   45.2590 C   0  0  0  0  0  0  0  0  0  0  0  0
   53.1520   22.9950   45.1450 O   0  0  0  0  0  0  0  0  0  0  0  0
   55.4160   23.0530   45.0840 N   0  0  0  0  0  0  0  0  0  0  0  0
   56.5780   23.7460   45.2060 C   0  0  0  0  0  0  0  0  0  0  0  0
   57.6720   23.1570   45.0020 O   0  0  0  0  0  0  0  0  0  0  0  0
   57.4030   27.8460   44.2070 C   0  0  0  0  0  0  0  0  0  0  0  0
   57.6840   29.1920   44.3320 C   0  0  0  0  0  0  0  0  0  0  0  0
   57.3780   30.2260   43.2910 C   0  0  0  0  0  0  0  0  0  0  0  0
   58.2620   29.4440   45.5280 N   0  0  0  0  0  0  0  0  0  0  0  0
   58.6970   30.7330   45.9960 C   0  0  0  0  0  0  0  0  0  0  0  0
   60.0440   30.9500   46.3170 C   0  0  0  0  0  0  0  0  0  0  0  0
   60.4680   32.2040   46.7650 C   0  0  0  0  0  0  0  0  0  0  0  0
   59.5500   33.2580   46.9060 C   0  0  0  0  0  0  0  0  0  0  0  0
   60.0090   34.5830   47.3880 C   0  0  0  0  0  0  0  0  0  0  0  0
   59.6190   35.6240   46.7970 O   0  0  0  0  0  0  0  0  0  0  0  0
   60.8490   34.7230   48.5430 N   0  0  0  0  0  0  0  0  0  0  0  0
   62.0000   33.9250   48.8540 C   0  0  0  0  0  0  0  0  0  0  0  0
   63.0340   33.8400   47.9120 C   0  0  0  0  0  0  0  0  0  0  0  0
   64.1710   33.0720   48.1770 C   0  0  0  0  0  0  0  0  0  0  0  0
   64.2760   32.3690   49.3800 C   0  0  0  0  0  0  0  0  0  0  0  0
   63.2370   32.4220   50.3130 C   0  0  0  0  0  0  0  0  0  0  0  0
   62.0960   33.1890   50.0520 C   0  0  0  0  0  0  0  0  0  0  0  0
   61.0770   33.1730   50.9480 F   0  0  0  0  0  0  0  0  0  0  0  0
   58.2040   33.0410   46.5610 C   0  0  0  0  0  0  0  0  0  0  0  0
   57.7810   31.7870   46.1130 C   0  0  0  0  0  0  0  0  0  0  0  0
   59.2580   28.9946   47.9505 H   0  0  0  0  0  0  0  0  0  0  0  0
   58.8840   27.1274   47.8918 H   0  0  0  0  0  0  0  0  0  0  0  0
   58.7001   25.4217   45.9954 H   0  0  0  0  0  0  0  0  0  0  0  0
   56.9284   27.3510   43.3469 H   0  0  0  0  0  0  0  0  0  0  0  0
   57.0987   31.1696   43.7825 H   0  0  0  0  0  0  0  0  0  0  0  0
   58.2666   30.3885   42.6633 H   0  0  0  0  0  0  0  0  0  0  0  0
   56.5441   29.8787   42.6633 H   0  0  0  0  0  0  0  0  0  0  0  0
   60.7702   30.1300   46.2159 H   0  0  0  0  0  0  0  0  0  0  0  0
   61.5282   32.3669   47.0090 H   0  0  0  0  0  0  0  0  0  0  0  0
   62.9501   34.3812   46.9580 H   0  0  0  0  0  0  0  0  0  0  0  0
   64.9841   33.0208   47.4379 H   0  0  0  0  0  0  0  0  0  0  0  0
   65.1764   31.7739   49.5926 H   0  0  0  0  0  0  0  0  0  0  0  0
   63.3162   31.8594   51.2549 H   0  0  0  0  0  0  0  0  0  0  0  0
   57.4792   33.8642   46.6444 H   0  0  0  0  0  0  0  0  0  0  0  0
   56.7248   31.6265   45.8511 H   0  0  0  0  0  0  0  0  0  0  0  0
  1  2  2  0
  2  3  1  0
  3  4  2  3
  4  5  1  0
  5  6  2  0
  6  7  1  0
  6  8  1  0
  8  9  1  0
  9 10  2  0
  9 11  1  0
 11 12  1  0
 12 13  2  0
  3 14  1  0
 14 15  2  0
 15 16  1  0
 15 17  1  0
 17 18  1  0
 18 19  2  0
 19 20  1  0
 20 21  2  0
 21 22  1  0
 22 23  2  0
 22 24  1  0
 24 25  1  0
 25 26  2  0
 26 27  1  0
 27 28  2  0
 28 29  1  0
 29 30  2  0
 30 31  1  0
 21 32  1  0
 32 33  2  0
 17  2  1  0
 33 18  1  0
 12  5  1  0
 30 25  1  0
  1 34  1  0
  1 35  1  0
  4 36  1  0
 14 37  1  0
 16 38  1  0
 16 39  1  0
 16 40  1  0
 19 41  1  0
 20 42  1  0
 26 43  1  0
 27 44  1  0
 28 45  1  0
 29 46  1  0
 32 47  1  0
 33 48  1  0
M  CHG  4   7  -1   8  -1  11  -1  24  -1
M  END
>  <UniqueID>  (31) 
30

>  <SMILES>  (31) 
C=c1c(=Cc2c([O-])[n-]c(=O)[n-]c2=O)cc(C)n1-c1ccc(C(=O)[N-]c2ccccc2F)cc1

>  <Energy>  (31) 
106.04466586837633

>  <Genealogy>  (31) 
C=c1c(=Cc2c([O-])[n-]c(=O)[n-]c2=O)cc(C)n1-c1ccc(C(=O)[N-]c2ccccc2F)cc1 (protonated)
C=c1c(=Cc2c([O-])[n-]c(=O)[n-]c2=O)cc(C)n1-c1ccc(C(=O)[N-]c2ccccc2F)cc1 (3D coordinates assigned)
C=c1c(=Cc2c([O-])[n-]c(=O)[n-]c2=O)cc(C)n1-c1ccc(C(=O)[N-]c2ccccc2F)cc1 (optimized conformer: 106.04466586837633 kcal/mol)

>  <smiles>  (31) 
C=c1c(=Cc2c(O)[nH]c(=O)[nH]c2=O)cc(C)n1-c1ccc(C(=O)Nc2ccccc2F)cc1

>  <score_type>  (31) 
oracle

>  <origin>  (31) 
adg

>  <m_score__min__energy>  (31) 
-17.390000000000001

>  <m_primary>  (31) 
energy

$$$$
31:0
     RDKit          3D

 40 42  0  0  0  0  0  0  0  0999 V2000
   55.8754   31.6275   52.6588 H   0  0  0  0  0  0  0  0  0  0  0  0
   56.6640   31.1900   52.0290 C   0  0  0  0  0  0  0  0  0  0  0  0
   56.6430   29.9570   51.7710 O   0  0  0  0  0  0  0  0  0  0  0  0
   57.7280   32.0480   51.4990 C   0  0  0  0  0  0  0  0  0  0  0  0
   58.4880   31.8310   50.0140 S   0  0  0  0  0  0  0  0  0  0  0  0
   59.5300   33.1490   50.1610 C   0  0  0  0  0  0  0  0  0  0  0  0
   60.5200   33.5860   49.1580 C   0  0  0  0  0  0  0  0  0  0  0  0
   61.3330   34.5000   49.4560 O   0  0  0  0  0  0  0  0  0  0  0  0
   60.5530   33.0380   47.8310 N   0  0  0  0  0  0  0  0  0  0  0  0
   59.7090   33.3060   46.8770 C   0  0  0  0  0  0  0  0  0  0  0  0
   58.7930   32.3830   46.4700 N   0  0  0  0  0  0  0  0  0  0  0  0
   57.9020   32.6250   45.4710 C   0  0  0  0  0  0  0  0  0  0  0  0
   56.9800   31.6200   45.1480 O   0  0  0  0  0  0  0  0  0  0  0  0
   56.6510   31.2160   43.8240 C   0  0  0  0  0  0  0  0  0  0  0  0
   55.8013   31.8108   43.4576 H   0  0  0  0  0  0  0  0  0  0  0  0
   57.5154   31.3741   43.1624 H   0  0  0  0  0  0  0  0  0  0  0  0
   56.2800   29.7620   43.8330 C   0  0  0  0  0  0  0  0  0  0  0  0
   56.1620   29.1590   42.7340 O   0  0  0  0  0  0  0  0  0  0  0  0
   56.0140   29.0480   45.0480 N   0  0  0  0  0  0  0  0  0  0  0  0
   56.7810   27.9500   45.5620 C   0  0  0  0  0  0  0  0  0  0  0  0
   58.1680   28.0960   45.6850 C   0  0  0  0  0  0  0  0  0  0  0  0
   58.6451   29.0446   45.3978 H   0  0  0  0  0  0  0  0  0  0  0  0
   58.9500   27.0450   46.1700 C   0  0  0  0  0  0  0  0  0  0  0  0
   60.0397   27.1660   46.2588 H   0  0  0  0  0  0  0  0  0  0  0  0
   58.3490   25.8410   46.5420 C   0  0  0  0  0  0  0  0  0  0  0  0
   58.9685   25.0070   46.9035 H   0  0  0  0  0  0  0  0  0  0  0  0
   56.9610   25.6930   46.4560 C   0  0  0  0  0  0  0  0  0  0  0  0
   56.2240   24.1720   46.9290 Cl  0  0  0  0  0  0  0  0  0  0  0  0
   56.1680   26.7550   45.9940 C   0  0  0  0  0  0  0  0  0  0  0  0
   54.7820   26.6320   45.9950 O   0  0  0  0  0  0  0  0  0  0  0  0
   57.9320   33.8650   44.8120 C   0  0  0  0  0  0  0  0  0  0  0  0
   57.2209   34.0804   44.0009 H   0  0  0  0  0  0  0  0  0  0  0  0
   58.8740   34.8220   45.1970 C   0  0  0  0  0  0  0  0  0  0  0  0
   58.9111   35.7946   44.6844 H   0  0  0  0  0  0  0  0  0  0  0  0
   59.7680   34.5440   46.2320 C   0  0  0  0  0  0  0  0  0  0  0  0
   60.5130   35.2934   46.5375 H   0  0  0  0  0  0  0  0  0  0  0  0
   59.2710   33.7880   51.3710 C   0  0  0  0  0  0  0  0  0  0  0  0
   59.8008   34.6937   51.7013 H   0  0  0  0  0  0  0  0  0  0  0  0
   58.2710   33.1650   52.1250 C   0  0  0  0  0  0  0  0  0  0  0  0
   57.9467   33.5225   53.1135 H   0  0  0  0  0  0  0  0  0  0  0  0
  1  2  1  0
  2  3  2  0
  2  4  1  0
  4  5  1  0
  5  6  1  0
  6  7  1  0
  7  8  2  0
  7  9  1  0
  9 10  2  0
 10 11  1  0
 11 12  1  0
 12 13  1  0
 13 14  1  0
 14 15  1  0
 14 16  1  0
 14 17  1  0
 17 18  2  0
 17 19  1  0
 19 20  1  0
 20 21  2  0
 21 22  1  0
 21 23  1  0
 23 24  1  0
 23 25  2  0
 25 26  1  0
 25 27  1  0
 27 28  1  0
 27 29  2  0
 29 30  1  0
 12 31  2  0
 31 32  1  0
 31 33  1  0
 33 34  1  0
 33 35  2  0
 35 36  1  0
  6 37  2  0
 37 38  1  0
 37 39  1  0
 39 40  1  0
 39  4  2  0
 35 10  1  0
 29 20  1  0
M  CHG  3  11  -1  19  -1  30  -1
M  END
>  <UniqueID>  (32) 
31

>  <SMILES>  (32) 
O=Cc1ccc(C(=O)/N=c2/cccc(OCC(=O)[N-]c3cccc(Cl)c3[O-])[n-]2)s1

>  <Energy>  (32) 
78.93355059325013

>  <Genealogy>  (32) 
O=Cc1ccc(C(=O)N=c2cccc(OCC(=O)[N-]c3cccc(Cl)c3[O-])[n-]2)s1 (protonated)
O=Cc1ccc(C(=O)/N=c2/cccc(OCC(=O)[N-]c3cccc(Cl)c3[O-])[n-]2)s1 (cis-trans isomerization)
O=Cc1ccc(C(=O)/N=c2/cccc(OCC(=O)[N-]c3cccc(Cl)c3[O-])[n-]2)s1 (3D coordinates assigned)
O=Cc1ccc(C(=O)/N=c2/cccc(OCC(=O)[N-]c3cccc(Cl)c3[O-])[n-]2)s1 (optimized conformer: 78.93355059325013 kcal/mol)

>  <smiles>  (32) 
O=Cc1ccc(C(=O)N=c2cccc(OCC(=O)Nc3cccc(Cl)c3O)[nH]2)s1

>  <score_type>  (32) 
oracle

>  <origin>  (32) 
adg

>  <m_score__min__energy>  (32) 
-15.77

>  <m_primary>  (32) 
energy

$$$$
32:0
     RDKit          3D

 42 44  0  0  0  0  0  0  0  0999 V2000
   63.2210   34.1440   46.3000 C   0  0  0  0  0  0  0  0  0  0  0  0
   63.0910   33.4620   47.6330 C   0  0  0  0  0  0  0  0  0  0  0  0
   64.0930   32.8150   48.2500 N   0  0  0  0  0  0  0  0  0  0  0  0
   63.6320   32.3380   49.3910 N   0  0  0  0  0  0  0  0  0  0  0  0
   62.3100   32.6760   49.5230 C   0  0  0  0  0  0  0  0  0  0  0  0
   61.6690   32.3170   50.5360 O   0  0  0  0  0  0  0  0  0  0  0  0
   61.9300   33.3960   48.4190 C   0  0  0  0  0  0  0  0  0  0  0  0
   60.6790   33.9440   47.9810 C   0  0  0  0  0  0  0  0  0  0  0  0
   60.2410   34.9240   48.7170 O   0  0  0  0  0  0  0  0  0  0  0  0
   59.8440   33.5920   46.8760 C   0  0  0  0  0  0  0  0  0  0  0  0
   59.4240   34.6340   46.0390 C   0  0  0  0  0  0  0  0  0  0  0  0
   59.8440   35.9480   46.2400 O   0  0  0  0  0  0  0  0  0  0  0  0
   58.5970   34.4260   45.0010 N   0  0  0  0  0  0  0  0  0  0  0  0
   58.1430   33.1800   44.7370 C   0  0  0  0  0  0  0  0  0  0  0  0
   57.3810   33.0650   43.7570 O   0  0  0  0  0  0  0  0  0  0  0  0
   58.5000   32.0980   45.5030 C   0  0  0  0  0  0  0  0  0  0  0  0
   58.0550   30.7380   45.2830 C   0  0  0  0  0  0  0  0  0  0  0  0
   56.8810   30.5180   44.8170 O   0  0  0  0  0  0  0  0  0  0  0  0
   58.8150   29.5750   45.5390 N   0  0  0  0  0  0  0  0  0  0  0  0
   58.2300   28.3050   45.2670 C   0  0  0  0  0  0  0  0  0  0  0  0
   58.6340   27.6680   44.0930 C   0  0  0  0  0  0  0  0  0  0  0  0
   58.1380   26.4370   43.7250 C   0  0  0  0  0  0  0  0  0  0  0  0
   57.2160   25.8510   44.5720 C   0  0  0  0  0  0  0  0  0  0  0  0
   56.8010   26.4740   45.7500 C   0  0  0  0  0  0  0  0  0  0  0  0
   55.8800   25.8370   46.5490 O   0  0  0  0  0  0  0  0  0  0  0  0
   57.3080   27.7090   46.1070 C   0  0  0  0  0  0  0  0  0  0  0  0
   59.3540   32.3510   46.5670 C   0  0  0  0  0  0  0  0  0  0  0  0
   59.7130   31.2730   47.3520 O   0  0  0  0  0  0  0  0  0  0  0  0
   63.4249   35.2139   46.4539 H   0  0  0  0  0  0  0  0  0  0  0  0
   64.0489   33.6904   45.7353 H   0  0  0  0  0  0  0  0  0  0  0  0
   62.2843   34.0268   45.7353 H   0  0  0  0  0  0  0  0  0  0  0  0
   65.0810   32.7120   47.8730 H   0  0  0  0  0  0  0  0  0  0  0  0
   64.2190   31.7900   50.0630 H   0  0  0  0  0  0  0  0  0  0  0  0
   59.7780   36.3920   47.1670 H   0  0  0  0  0  0  0  0  0  0  0  0
   58.2970   35.2390   44.3850 H   0  0  0  0  0  0  0  0  0  0  0  0
   59.7730   29.6220   45.9150 H   0  0  0  0  0  0  0  0  0  0  0  0
   59.3699   28.1634   43.4426 H   0  0  0  0  0  0  0  0  0  0  0  0
   58.4614   25.9417   42.7976 H   0  0  0  0  0  0  0  0  0  0  0  0
   56.7983   24.8675   44.3106 H   0  0  0  0  0  0  0  0  0  0  0  0
   55.0070   26.3100   46.7440 H   0  0  0  0  0  0  0  0  0  0  0  0
   56.9864   28.2046   47.0349 H   0  0  0  0  0  0  0  0  0  0  0  0
   60.0840   31.4960   48.2880 H   0  0  0  0  0  0  0  0  0  0  0  0
  1  2  1  0
  2  3  1  0
  3  4  1  0
  4  5  1  0
  5  6  2  0
  5  7  1  0
  7  8  1  0
  8  9  2  0
  8 10  1  0
 10 11  2  0
 11 12  1  0
 11 13  1  0
 13 14  1  0
 14 15  2  0
 14 16  1  0
 16 17  1  0
 17 18  2  0
 17 19  1  0
 19 20  1  0
 20 21  2  0
 21 22  1  0
 22 23  2  0
 23 24  1  0
 24 25  1  0
 24 26  2  0
 16 27  2  0
 27 28  1  0
  7  2  2  0
 27 10  1  0
 26 20  1  0
  1 29  1  0
  1 30  1  0
  1 31  1  0
  3 32  1  0
  4 33  1  0
 12 34  1  0
 13 35  1  0
 19 36  1  0
 21 37  1  0
 22 38  1  0
 23 39  1  0
 25 40  1  0
 26 41  1  0
 28 42  1  0
M  END
>  <smiles>  (33) 
Cc1[nH][nH]c(=O)c1C(=O)c1c(O)[nH]c(=O)c(C(=O)Nc2cccc(O)c2)c1O

>  <score_type>  (33) 
oracle

>  <origin>  (33) 
adg

>  <m_score__min__energy>  (33) 
-8.3399999999999999

>  <m_primary>  (33) 
energy

$$$$
33:0
     RDKit          3D

 43 46  0  0  0  0  0  0  0  0999 V2000
   56.9150   19.1300   44.1480 H   0  0  0  0  0  0  0  0  0  0  0  0
   56.0680   19.7420   44.1520 N   0  0  0  0  0  0  0  0  0  0  0  0
   56.1570   21.0170   44.3470 C   0  0  0  0  0  0  0  0  0  0  0  0
   56.4940   21.5010   45.5730 N   0  0  0  0  0  0  0  0  0  0  0  0
   56.6000   22.8390   45.7910 C   0  0  0  0  0  0  0  0  0  0  0  0
   56.3510   23.7390   44.7510 C   0  0  0  0  0  0  0  0  0  0  0  0
   55.9890   23.2200   43.5030 C   0  0  0  0  0  0  0  0  0  0  0  0
   55.7717   23.9002   42.6663 H   0  0  0  0  0  0  0  0  0  0  0  0
   55.9060   21.8760   43.3250 N   0  0  0  0  0  0  0  0  0  0  0  0
   56.3970   25.2260   44.9930 C   0  0  0  0  0  0  0  0  0  0  0  0
   56.7651   25.7188   44.0811 H   0  0  0  0  0  0  0  0  0  0  0  0
   55.3779   25.5502   45.2506 H   0  0  0  0  0  0  0  0  0  0  0  0
   57.2780   25.5980   46.1180 N   0  0  0  0  0  0  0  0  0  0  0  0
   57.6170   26.9940   46.2780 C   0  0  0  0  0  0  0  0  0  0  0  0
   57.1620   27.9030   45.3720 N   0  0  0  0  0  0  0  0  0  0  0  0
   57.4420   29.2340   45.4460 C   0  0  0  0  0  0  0  0  0  0  0  0
   56.8490   30.1230   44.3840 C   0  0  0  0  0  0  0  0  0  0  0  0
   57.4755   30.0772   43.4810 H   0  0  0  0  0  0  0  0  0  0  0  0
   55.8309   29.7758   44.1542 H   0  0  0  0  0  0  0  0  0  0  0  0
   56.7850   31.5020   44.8560 N   0  0  0  0  0  0  0  0  0  0  0  0
   57.5570   32.5740   44.3090 C   0  0  0  0  0  0  0  0  0  0  0  0
   58.0510   32.4730   43.1520 O   0  0  0  0  0  0  0  0  0  0  0  0
   57.7510   33.7590   45.0940 N   0  0  0  0  0  0  0  0  0  0  0  0
   58.5580   33.8840   46.1050 C   0  0  0  0  0  0  0  0  0  0  0  0
   58.2140   33.6520   47.3920 N   0  0  0  0  0  0  0  0  0  0  0  0
   59.2610   33.8650   48.2330 C   0  0  0  0  0  0  0  0  0  0  0  0
   59.1808   33.7296   49.3217 H   0  0  0  0  0  0  0  0  0  0  0  0
   60.4420   34.2670   47.6150 C   0  0  0  0  0  0  0  0  0  0  0  0
   61.3936   34.4863   48.1213 H   0  0  0  0  0  0  0  0  0  0  0  0
   60.1600   34.3590   45.9580 S   0  0  0  0  0  0  0  0  0  0  0  0
   58.2380   29.7100   46.5150 C   0  0  0  0  0  0  0  0  0  0  0  0
   58.5660   31.0580   46.6910 O   0  0  0  0  0  0  0  0  0  0  0  0
   58.0650   31.8250   46.2690 H   0  0  0  0  0  0  0  0  0  0  0  0
   58.7280   28.7930   47.4480 C   0  0  0  0  0  0  0  0  0  0  0  0
   59.3570   29.1444   48.2792 H   0  0  0  0  0  0  0  0  0  0  0  0
   58.4270   27.4370   47.3350 C   0  0  0  0  0  0  0  0  0  0  0  0
   58.8215   26.7190   48.0691 H   0  0  0  0  0  0  0  0  0  0  0  0
   57.8320   24.5890   47.0410 C   0  0  0  0  0  0  0  0  0  0  0  0
   58.8192   24.2739   46.6722 H   0  0  0  0  0  0  0  0  0  0  0  0
   57.9083   25.0457   48.0388 H   0  0  0  0  0  0  0  0  0  0  0  0
   56.9290   23.3580   47.1510 C   0  0  0  0  0  0  0  0  0  0  0  0
   57.4491   22.5754   47.7229 H   0  0  0  0  0  0  0  0  0  0  0  0
   55.9974   23.6400   47.6634 H   0  0  0  0  0  0  0  0  0  0  0  0
  1  2  1  0
  2  3  2  3
  3  4  1  0
  4  5  2  0
  5  6  1  0
  6  7  2  0
  7  8  1  0
  7  9  1  0
  6 10  1  0
 10 11  1  0
 10 12  1  0
 10 13  1  0
 13 14  1  0
 14 15  2  0
 15 16  1  0
 16 17  1  0
 17 18  1  0
 17 19  1  0
 17 20  1  0
 20 21  1  0
 21 22  2  0
 21 23  1  0
 23 24  2  0
 24 25  1  0
 25 26  1  0
 26 27  1  0
 26 28  2  0
 28 29  1  0
 28 30  1  0
 16 31  2  0
 31 32  1  0
 32 33  1  0
 31 34  1  0
 34 35  1  0
 34 36  2  0
 36 37  1  0
 13 38  1  0
 38 39  1  0
 38 40  1  0
 38 41  1  0
 41 42  1  0
 41 43  1  0
  9  3  1  0
 36 14  1  0
 41  5  1  0
 30 24  1  0
M  CHG  3   9  -1  20  -1  25  -1
M  END
>  <UniqueID>  (34) 
32

>  <SMILES>  (34) 
N=c1nc2c(c[n-]1)CN(c1ccc(O)c(C[N-]C(=O)/N=c3\[n-]ccs3)n1)CC2

>  <Energy>  (34) 
84.13724577908532

>  <Genealogy>  (34) 
N=c1nc2c(c[n-]1)CN(c1ccc(O)c(C[N-]C(=O)N=c3[n-]ccs3)n1)CC2 (protonated)
N=c1nc2c(c[n-]1)CN(c1ccc(O)c(C[N-]C(=O)/N=c3\[n-]ccs3)n1)CC2 (cis-trans isomerization)
N=c1nc2c(c[n-]1)CN(c1ccc(O)c(C[N-]C(=O)/N=c3\[n-]ccs3)n1)CC2 (3D coordinates assigned)
N=c1nc2c(c[n-]1)CN(c1ccc(O)c(C[N-]C(=O)/N=c3\[n-]ccs3)n1)CC2 (nonaromatic ring conformer: 84.13724577908532 kcal/mol)

>  <smiles>  (34) 
N=c1nc2c(c[nH]1)CN(c1ccc(O)c(CNC(=O)N=c3[nH]ccs3)n1)CC2

>  <score_type>  (34) 
oracle

>  <origin>  (34) 
adg

>  <m_score__min__energy>  (34) 
-11.15

>  <m_primary>  (34) 
energy

$$$$
34:0
     RDKit          3D

 45 47  0  0  0  0  0  0  0  0999 V2000
   61.9940   34.4810   49.3960 C   0  0  0  0  0  0  0  0  0  0  0  0
   60.9810   33.3830   49.1950 C   0  0  0  0  0  0  0  0  0  0  0  0
   59.8670   33.3280   50.0480 C   0  0  0  0  0  0  0  0  0  0  0  0
   58.8980   32.3400   49.8870 C   0  0  0  0  0  0  0  0  0  0  0  0
   59.0340   31.3850   48.8840 C   0  0  0  0  0  0  0  0  0  0  0  0
   60.1410   31.4050   48.0270 C   0  0  0  0  0  0  0  0  0  0  0  0
   60.2550   30.3710   47.0380 N   0  0  0  0  0  0  0  0  0  0  0  0
   60.0850   28.9820   47.3590 C   0  0  0  0  0  0  0  0  0  0  0  0
   59.8850   28.6200   48.5500 O   0  0  0  0  0  0  0  0  0  0  0  0
   60.0770   27.9590   46.2680 C   0  0  0  0  0  0  0  0  0  0  0  0
   59.8750   28.7610   44.6420 S   0  0  0  0  0  0  0  0  0  0  0  0
   58.1010   28.9900   44.7990 C   0  0  0  0  0  0  0  0  0  0  0  0
   57.2790   28.0580   45.3220 N   0  0  0  0  0  0  0  0  0  0  0  0
   56.0460   28.5420   45.2520 N   0  0  0  0  0  0  0  0  0  0  0  0
   56.1470   29.7560   44.6830 C   0  0  0  0  0  0  0  0  0  0  0  0
   55.1560   30.4970   44.4460 O   0  0  0  0  0  0  0  0  0  0  0  0
   57.4190   30.0790   44.3890 N   0  0  0  0  0  0  0  0  0  0  0  0
   57.9120   31.2670   43.6880 C   0  0  0  0  0  0  0  0  0  0  0  0
   58.1060   32.4030   44.6540 C   0  0  0  0  0  0  0  0  0  0  0  0
   58.8630   33.5280   44.2890 C   0  0  0  0  0  0  0  0  0  0  0  0
   59.0220   34.5900   45.1850 C   0  0  0  0  0  0  0  0  0  0  0  0
   58.4260   34.5360   46.4490 C   0  0  0  0  0  0  0  0  0  0  0  0
   57.6690   33.4210   46.8170 C   0  0  0  0  0  0  0  0  0  0  0  0
   57.5080   32.3570   45.9240 C   0  0  0  0  0  0  0  0  0  0  0  0
   61.1030   32.4410   48.1400 C   0  0  0  0  0  0  0  0  0  0  0  0
   62.2450   32.5420   47.1550 C   0  0  0  0  0  0  0  0  0  0  0  0
   62.1466   34.6464   50.4727 H   0  0  0  0  0  0  0  0  0  0  0  0
   62.9474   34.1899   48.9310 H   0  0  0  0  0  0  0  0  0  0  0  0
   61.6272   35.4079   48.9310 H   0  0  0  0  0  0  0  0  0  0  0  0
   59.7583   34.0720   50.8509 H   0  0  0  0  0  0  0  0  0  0  0  0
   58.0237   32.3148   50.5540 H   0  0  0  0  0  0  0  0  0  0  0  0
   58.2651   30.6077   48.7634 H   0  0  0  0  0  0  0  0  0  0  0  0
   60.2240   30.6510   46.0310 H   0  0  0  0  0  0  0  0  0  0  0  0
   61.0277   27.4060   46.2833 H   0  0  0  0  0  0  0  0  0  0  0  0
   59.2351   27.2703   46.4321 H   0  0  0  0  0  0  0  0  0  0  0  0
   58.8732   31.0316   43.2076 H   0  0  0  0  0  0  0  0  0  0  0  0
   57.1735   31.5658   42.9295 H   0  0  0  0  0  0  0  0  0  0  0  0
   59.3324   33.5741   43.2953 H   0  0  0  0  0  0  0  0  0  0  0  0
   59.6166   35.4689   44.8952 H   0  0  0  0  0  0  0  0  0  0  0  0
   58.5532   35.3713   47.1533 H   0  0  0  0  0  0  0  0  0  0  0  0
   57.1989   33.3800   47.8107 H   0  0  0  0  0  0  0  0  0  0  0  0
   56.9109   31.4809   46.2172 H   0  0  0  0  0  0  0  0  0  0  0  0
   63.1953   32.6260   47.7027 H   0  0  0  0  0  0  0  0  0  0  0  0
   62.2645   31.6421   46.5227 H   0  0  0  0  0  0  0  0  0  0  0  0
   62.1063   33.4314   46.5227 H   0  0  0  0  0  0  0  0  0  0  0  0
  1  2  1  0
  2  3  2  0
  3  4  1  0
  4  5  2  0
  5  6  1  0
  6  7  1  0
  7  8  1  0
  8  9  2  0
  8 10  1  0
 10 11  1  0
 11 12  1  0
 12 13  2  0
 13 14  1  0
 14 15  1  0
 15 16  2  0
 15 17  1  0
 17 18  1  0
 18 19  1  0
 19 20  2  0
 20 21  1  0
 21 22  2  0
 22 23  1  0
 23 24  2  0
  6 25  2  0
 25 26  1  0
 25  2  1  0
 17 12  1  0
 24 19  1  0
  1 27  1  0
  1 28  1  0
  1 29  1  0
  3 30  1  0
  4 31  1  0
  5 32  1  0
  7 33  1  0
 10 34  1  0
 10 35  1  0
 18 36  1  0
 18 37  1  0
 20 38  1  0
 21 39  1  0
 22 40  1  0
 23 41  1  0
 24 42  1  0
 26 43  1  0
 26 44  1  0
 26 45  1  0
M  CHG  1  14  -1
M  END
>  <UniqueID>  (35) 
33

>  <SMILES>  (35) 
Cc1cccc(NC(=O)CSc2n[n-]c(=O)n2Cc2ccccc2)c1C

>  <Energy>  (35) 
82.07689555007505

>  <Genealogy>  (35) 
Cc1cccc(NC(=O)CSc2n[n-]c(=O)n2Cc2ccccc2)c1C (protonated)
Cc1cccc(NC(=O)CSc2n[n-]c(=O)n2Cc2ccccc2)c1C (3D coordinates assigned)
Cc1cccc(NC(=O)CSc2n[n-]c(=O)n2Cc2ccccc2)c1C (optimized conformer: 82.07689555007505 kcal/mol)

>  <smiles>  (35) 
Cc1cccc(NC(=O)CSc2n[nH]c(=O)n2Cc2ccccc2)c1C

>  <score_type>  (35) 
oracle

>  <origin>  (35) 
adg

>  <m_score__min__energy>  (35) 
-10.82

>  <m_primary>  (35) 
energy

$$$$
35:0
     RDKit          3D

 44 46  0  0  0  0  0  0  0  0999 V2000
   63.2560   31.9530   49.2670 C   0  0  0  0  0  0  0  0  0  0  0  0
   63.2160   33.4170   49.4230 N   0  0  0  0  0  0  0  0  0  0  0  0
   64.1240   33.8190   50.5090 C   0  0  0  0  0  0  0  0  0  0  0  0
   61.8430   33.8780   49.7160 C   0  0  0  0  0  0  0  0  0  0  0  0
   61.0320   33.9680   48.4500 C   0  0  0  0  0  0  0  0  0  0  0  0
   59.6480   34.1930   48.5020 C   0  0  0  0  0  0  0  0  0  0  0  0
   58.8970   34.2520   47.3250 C   0  0  0  0  0  0  0  0  0  0  0  0
   59.5180   34.0800   46.0730 C   0  0  0  0  0  0  0  0  0  0  0  0
   58.7730   34.1230   44.8400 N   0  0  0  0  0  0  0  0  0  0  0  0
   57.4870   33.4580   44.6280 C   0  0  0  0  0  0  0  0  0  0  0  0
   57.6090   31.9890   44.8880 C   0  0  0  0  0  0  0  0  0  0  0  0
   56.5450   31.1450   44.8440 N   0  0  0  0  0  0  0  0  0  0  0  0
   57.1040   29.9610   45.1300 C   0  0  0  0  0  0  0  0  0  0  0  0
   56.4730   28.7230   45.2230 C   0  0  0  0  0  0  0  0  0  0  0  0
   57.2660   27.5930   45.5390 C   0  0  0  0  0  0  0  0  0  0  0  0
   56.6600   26.2440   45.6600 C   0  0  0  0  0  0  0  0  0  0  0  0
   57.4200   25.0580   45.4160 N   0  0  0  0  0  0  0  0  0  0  0  0
   55.4520   26.1330   46.0010 O   0  0  0  0  0  0  0  0  0  0  0  0
   58.6610   27.7640   45.7640 C   0  0  0  0  0  0  0  0  0  0  0  0
   59.2580   29.0330   45.6600 C   0  0  0  0  0  0  0  0  0  0  0  0
   58.4390   30.1090   45.3370 C   0  0  0  0  0  0  0  0  0  0  0  0
   58.7920   31.3940   45.1930 N   0  0  0  0  0  0  0  0  0  0  0  0
   60.9040   33.8580   46.0280 C   0  0  0  0  0  0  0  0  0  0  0  0
   61.6540   33.7980   47.2050 C   0  0  0  0  0  0  0  0  0  0  0  0
   63.2690   31.4787   50.2594 H   0  0  0  0  0  0  0  0  0  0  0  0
   62.3666   31.6189   48.7125 H   0  0  0  0  0  0  0  0  0  0  0  0
   64.1623   31.6680   48.7125 H   0  0  0  0  0  0  0  0  0  0  0  0
   63.6504   33.6093   51.4794 H   0  0  0  0  0  0  0  0  0  0  0  0
   65.0638   33.2528   50.4297 H   0  0  0  0  0  0  0  0  0  0  0  0
   64.3366   34.8953   50.4297 H   0  0  0  0  0  0  0  0  0  0  0  0
   61.3620   33.1668   50.4036 H   0  0  0  0  0  0  0  0  0  0  0  0
   61.8947   34.8761   50.1755 H   0  0  0  0  0  0  0  0  0  0  0  0
   59.1513   34.3237   49.4748 H   0  0  0  0  0  0  0  0  0  0  0  0
   57.8134   34.4340   47.3769 H   0  0  0  0  0  0  0  0  0  0  0  0
   59.1840   34.6340   44.0260 H   0  0  0  0  0  0  0  0  0  0  0  0
   56.7404   33.8863   45.3129 H   0  0  0  0  0  0  0  0  0  0  0  0
   57.1747   33.6105   43.5843 H   0  0  0  0  0  0  0  0  0  0  0  0
   55.3901   28.6257   45.0559 H   0  0  0  0  0  0  0  0  0  0  0  0
   56.9530   24.1240   45.4520 H   0  0  0  0  0  0  0  0  0  0  0  0
   58.4560   25.0840   45.2850 H   0  0  0  0  0  0  0  0  0  0  0  0
   59.2801   26.8923   46.0226 H   0  0  0  0  0  0  0  0  0  0  0  0
   60.3364   29.1697   45.8285 H   0  0  0  0  0  0  0  0  0  0  0  0
   61.4039   33.7301   45.0565 H   0  0  0  0  0  0  0  0  0  0  0  0
   62.7378   33.6165   47.1548 H   0  0  0  0  0  0  0  0  0  0  0  0
  1  2  1  0
  2  3  1  0
  2  4  1  0
  4  5  1  0
  5  6  2  0
  6  7  1  0
  7  8  2  0
  8  9  1  0
  9 10  1  0
 10 11  1  0
 11 12  2  0
 12 13  1  0
 13 14  2  0
 14 15  1  0
 15 16  1  0
 16 17  1  0
 16 18  2  0
 15 19  2  0
 19 20  1  0
 20 21  2  0
 21 22  1  0
  8 23  1  0
 23 24  2  0
 24  5  1  0
 22 11  1  0
 21 13  1  0
  1 25  1  0
  1 26  1  0
  1 27  1  0
  3 28  1  0
  3 29  1  0
  3 30  1  0
  4 31  1  0
  4 32  1  0
  6 33  1  0
  7 34  1  0
  9 35  1  0
 10 36  1  0
 10 37  1  0
 14 38  1  0
 17 39  1  0
 17 40  1  0
 19 41  1  0
 20 42  1  0
 23 43  1  0
 24 44  1  0
M  CHG  1  22  -1
M  END
>  <UniqueID>  (36) 
34

>  <SMILES>  (36) 
CN(C)Cc1ccc(NCc2nc3cc(C(N)=O)ccc3[n-]2)cc1

>  <Energy>  (36) 
79.66824743880107

>  <Genealogy>  (36) 
CN(C)Cc1ccc(NCc2nc3cc(C(N)=O)ccc3[n-]2)cc1 (protonated)
CN(C)Cc1ccc(NCc2nc3cc(C(N)=O)ccc3[n-]2)cc1 (3D coordinates assigned)
CN(C)Cc1ccc(NCc2nc3cc(C(N)=O)ccc3[n-]2)cc1 (optimized conformer: 79.66824743880107 kcal/mol)

>  <smiles>  (36) 
CN(C)Cc1ccc(NCc2nc3cc(C(N)=O)ccc3[nH]2)cc1

>  <score_type>  (36) 
oracle

>  <origin>  (36) 
adg

>  <m_score__min__energy>  (36) 
-8.6999999999999993

>  <m_primary>  (36) 
energy

$$$$
36:0
     RDKit          3D

 61 65  0  0  0  0  0  0  0  0999 V2000
   57.3930   33.1710   43.9700 O   0  0  0  0  0  0  0  0  0  0  0  0
   57.9110   32.4890   44.9000 C   0  0  0  0  0  0  0  0  0  0  0  0
   58.5920   33.2000   46.0050 C   0  0  0  0  0  0  0  0  0  0  0  0
   58.5330   32.6760   47.3070 C   0  0  0  0  0  0  0  0  0  0  0  0
   59.2000   33.3130   48.3680 C   0  0  0  0  0  0  0  0  0  0  0  0
   59.1750   32.7250   49.7570 C   0  0  0  0  0  0  0  0  0  0  0  0
   59.5800   31.2730   49.7610 C   0  0  0  0  0  0  0  0  0  0  0  0
   58.8490   30.4060   49.0110 N   0  0  0  0  0  0  0  0  0  0  0  0
   59.1390   29.1080   48.9440 N   0  0  0  0  0  0  0  0  0  0  0  0
   60.1970   28.5830   49.6120 C   0  0  0  0  0  0  0  0  0  0  0  0
   60.4320   27.3480   49.5210 O   0  0  0  0  0  0  0  0  0  0  0  0
   61.0140   29.4160   50.3940 C   0  0  0  0  0  0  0  0  0  0  0  0
   60.6780   30.7860   50.5130 C   0  0  0  0  0  0  0  0  0  0  0  0
   61.5120   31.6950   51.2730 N   0  0  0  0  0  0  0  0  0  0  0  0
   62.2950   31.0290   52.3220 C   0  0  0  0  0  0  0  0  0  0  0  0
   63.1030   29.8750   51.7390 C   0  0  0  0  0  0  0  0  0  0  0  0
   62.1580   28.8160   51.1790 C   0  0  0  0  0  0  0  0  0  0  0  0
   59.9550   34.4670   48.1050 C   0  0  0  0  0  0  0  0  0  0  0  0
   60.0350   34.9790   46.8090 C   0  0  0  0  0  0  0  0  0  0  0  0
   59.3690   34.3460   45.7580 C   0  0  0  0  0  0  0  0  0  0  0  0
   59.5410   34.8140   44.4950 F   0  0  0  0  0  0  0  0  0  0  0  0
   57.8090   31.0470   44.8640 N   0  0  0  0  0  0  0  0  0  0  0  0
   58.8260   30.1910   45.4940 C   0  0  0  0  0  0  0  0  0  0  0  0
   59.0600   28.9280   44.6510 C   0  0  0  0  0  0  0  0  0  0  0  0
   57.7520   28.1330   44.3090 C   0  0  0  0  0  0  0  0  0  0  0  0
   57.8150   27.8510   42.9210 O   0  0  0  0  0  0  0  0  0  0  0  0
   57.6760   26.8150   45.0960 C   0  0  0  0  0  0  0  0  0  0  0  0
   57.7640   25.5720   44.4290 C   0  0  0  0  0  0  0  0  0  0  0  0
   57.7570   24.3710   45.1460 C   0  0  0  0  0  0  0  0  0  0  0  0
   57.6860   24.3850   46.5410 C   0  0  0  0  0  0  0  0  0  0  0  0
   57.6300   25.6020   47.2230 C   0  0  0  0  0  0  0  0  0  0  0  0
   57.6330   26.8080   46.5120 C   0  0  0  0  0  0  0  0  0  0  0  0
   56.4820   28.9750   44.6390 C   0  0  0  0  0  0  0  0  0  0  0  0
   56.6470   30.4320   44.2010 C   0  0  0  0  0  0  0  0  0  0  0  0
   57.9588   31.7575   47.4984 H   0  0  0  0  0  0  0  0  0  0  0  0
   59.8709   33.2899   50.3947 H   0  0  0  0  0  0  0  0  0  0  0  0
   58.1448   32.7922   50.1368 H   0  0  0  0  0  0  0  0  0  0  0  0
   60.9210   32.4100   51.7500 H   0  0  0  0  0  0  0  0  0  0  0  0
   62.1590   32.1870   50.6150 H   0  0  0  0  0  0  0  0  0  0  0  0
   62.9821   31.7573   52.7774 H   0  0  0  0  0  0  0  0  0  0  0  0
   61.6047   30.6306   53.0802 H   0  0  0  0  0  0  0  0  0  0  0  0
   63.7489   30.2519   50.9323 H   0  0  0  0  0  0  0  0  0  0  0  0
   63.7226   29.4281   52.5304 H   0  0  0  0  0  0  0  0  0  0  0  0
   62.7289   28.1492   50.5161 H   0  0  0  0  0  0  0  0  0  0  0  0
   61.7275   28.2690   52.0308 H   0  0  0  0  0  0  0  0  0  0  0  0
   60.4869   34.9709   48.9255 H   0  0  0  0  0  0  0  0  0  0  0  0
   60.6260   35.8862   46.6147 H   0  0  0  0  0  0  0  0  0  0  0  0
   59.7693   30.7506   45.5779 H   0  0  0  0  0  0  0  0  0  0  0  0
   58.4730   29.8932   46.4924 H   0  0  0  0  0  0  0  0  0  0  0  0
   59.5390   29.2270   43.7070 H   0  0  0  0  0  0  0  0  0  0  0  0
   59.6896   28.2572   45.2540 H   0  0  0  0  0  0  0  0  0  0  0  0
   57.0000   27.3640   42.6380 H   0  0  0  0  0  0  0  0  0  0  0  0
   57.8390   25.5488   43.3318 H   0  0  0  0  0  0  0  0  0  0  0  0
   57.8076   23.4121   44.6094 H   0  0  0  0  0  0  0  0  0  0  0  0
   57.6742   23.4385   47.1014 H   0  0  0  0  0  0  0  0  0  0  0  0
   57.5834   25.6133   48.3220 H   0  0  0  0  0  0  0  0  0  0  0  0
   57.6016   27.7616   47.0594 H   0  0  0  0  0  0  0  0  0  0  0  0
   55.6182   28.5397   44.1151 H   0  0  0  0  0  0  0  0  0  0  0  0
   56.3287   28.9568   45.7281 H   0  0  0  0  0  0  0  0  0  0  0  0
   56.7928   30.4670   43.1113 H   0  0  0  0  0  0  0  0  0  0  0  0
   55.7424   30.9905   44.4835 H   0  0  0  0  0  0  0  0  0  0  0  0
  1  2  2  0
  2  3  1  0
  3  4  2  0
  4  5  1  0
  5  6  1  0
  6  7  1  0
  7  8  2  0
  8  9  1  0
  9 10  1  0
 10 11  2  0
 10 12  1  0
 12 13  2  0
 13 14  1  0
 14 15  1  0
 15 16  1  0
 16 17  1  0
  5 18  2  0
 18 19  1  0
 19 20  2  0
 20 21  1  0
  2 22  1  0
 22 23  1  0
 23 24  1  0
 24 25  1  0
 25 26  1  0
 25 27  1  0
 27 28  2  0
 28 29  1  0
 29 30  2  0
 30 31  1  0
 31 32  2  0
 25 33  1  0
 33 34  1  0
 20  3  1  0
 34 22  1  0
 13  7  1  0
 32 27  1  0
 17 12  1  0
  4 35  1  0
  6 36  1  0
  6 37  1  0
 14 38  1  0
 14 39  1  0
 15 40  1  0
 15 41  1  0
 16 42  1  0
 16 43  1  0
 17 44  1  0
 17 45  1  0
 18 46  1  0
 19 47  1  0
 23 48  1  0
 23 49  1  0
 24 50  1  0
 24 51  1  0
 26 52  1  0
 28 53  1  0
 29 54  1  0
 30 55  1  0
 31 56  1  0
 32 57  1  0
 33 58  1  0
 33 59  1  0
 34 60  1  0
 34 61  1  0
M  CHG  2   9  -1  14   1
M  END
>  <UniqueID>  (37) 
35

>  <SMILES>  (37) 
O=C(c1cc(Cc2n[n-]c(=O)c3c2[NH2+]CCC3)ccc1F)N1CCC(O)(c2ccccc2)CC1

>  <Energy>  (37) 
87.14662661558633

>  <Genealogy>  (37) 
O=C(c1cc(Cc2n[n-]c(=O)c3c2[NH2+]CCC3)ccc1F)N1CCC(O)(c2ccccc2)CC1 (protonated)
O=C(c1cc(Cc2n[n-]c(=O)c3c2[NH2+]CCC3)ccc1F)N1CCC(O)(c2ccccc2)CC1 (3D coordinates assigned)
O=C(c1cc(Cc2n[n-]c(=O)c3c2[NH2+]CCC3)ccc1F)N1CCC(O)(c2ccccc2)CC1 (nonaromatic ring conformer: 87.14662661558633 kcal/mol)

>  <smiles>  (37) 
O=C(c1cc(Cc2n[nH]c(=O)c3c2NCCC3)ccc1F)N1CCC(O)(c2ccccc2)CC1

>  <score_type>  (37) 
oracle

>  <origin>  (37) 
adg

>  <m_score__min__energy>  (37) 
-11.449999999999999

>  <m_primary>  (37) 
energy

$$$$
37:0
     RDKit          3D

 47 49  0  0  0  0  0  0  0  0999 V2000
   57.9720   29.9800   44.2680 C   0  0  0  0  0  0  0  0  0  0  0  0
   58.2100   29.6710   45.5520 C   0  0  0  0  0  0  0  0  0  0  0  0
   58.1670   28.3960   46.1250 C   0  0  0  0  0  0  0  0  0  0  0  0
   57.9090   27.2300   45.5000 C   0  0  0  0  0  0  0  0  0  0  0  0
   57.3110   26.0520   46.1570 C   0  0  0  0  0  0  0  0  0  0  0  0
   57.9880   25.0430   46.7320 N   0  0  0  0  0  0  0  0  0  0  0  0
   57.0350   24.2680   47.2870 C   0  0  0  0  0  0  0  0  0  0  0  0
   57.2930   23.2140   47.9260 O   0  0  0  0  0  0  0  0  0  0  0  0
   55.7780   24.7290   47.1120 N   0  0  0  0  0  0  0  0  0  0  0  0
   55.9710   25.8600   46.4080 C   0  0  0  0  0  0  0  0  0  0  0  0
   54.9420   26.7040   46.0080 O   0  0  0  0  0  0  0  0  0  0  0  0
   58.5160   28.5590   47.4610 C   0  0  0  0  0  0  0  0  0  0  0  0
   58.7350   29.9080   47.6510 C   0  0  0  0  0  0  0  0  0  0  0  0
   59.2070   30.5240   48.9330 C   0  0  0  0  0  0  0  0  0  0  0  0
   58.5550   30.5820   46.4950 N   0  0  0  0  0  0  0  0  0  0  0  0
   58.7690   31.9880   46.3010 C   0  0  0  0  0  0  0  0  0  0  0  0
   57.6930   32.8120   45.9410 C   0  0  0  0  0  0  0  0  0  0  0  0
   57.8960   34.1770   45.7250 C   0  0  0  0  0  0  0  0  0  0  0  0
   59.1730   34.7240   45.8660 C   0  0  0  0  0  0  0  0  0  0  0  0
   60.2520   33.9080   46.2190 C   0  0  0  0  0  0  0  0  0  0  0  0
   60.0580   32.5300   46.4360 C   0  0  0  0  0  0  0  0  0  0  0  0
   61.1080   31.6660   46.7820 O   0  0  0  0  0  0  0  0  0  0  0  0
   62.3460   32.0560   47.3780 C   0  0  0  0  0  0  0  0  0  0  0  0
   62.1820   32.3370   48.8800 C   0  0  0  0  0  0  0  0  0  0  0  0
   61.7530   33.7810   49.1940 C   0  0  0  0  0  0  0  0  0  0  0  0
   60.2980   33.8840   49.6500 C   0  0  0  0  0  0  0  0  0  0  0  0
   58.0365   31.0257   43.9329 H   0  0  0  0  0  0  0  0  0  0  0  0
   57.7124   29.1876   43.5506 H   0  0  0  0  0  0  0  0  0  0  0  0
   58.1603   27.1517   44.4320 H   0  0  0  0  0  0  0  0  0  0  0  0
   59.0220   24.9120   46.7980 H   0  0  0  0  0  0  0  0  0  0  0  0
   58.6010   27.7665   48.2191 H   0  0  0  0  0  0  0  0  0  0  0  0
   58.7829   29.9705   49.7837 H   0  0  0  0  0  0  0  0  0  0  0  0
   60.3052   30.4806   48.9781 H   0  0  0  0  0  0  0  0  0  0  0  0
   58.8794   31.5731   48.9781 H   0  0  0  0  0  0  0  0  0  0  0  0
   56.6866   32.3824   45.8284 H   0  0  0  0  0  0  0  0  0  0  0  0
   57.0498   34.8211   45.4438 H   0  0  0  0  0  0  0  0  0  0  0  0
   59.3305   35.7998   45.6989 H   0  0  0  0  0  0  0  0  0  0  0  0
   61.2561   34.3438   46.3277 H   0  0  0  0  0  0  0  0  0  0  0  0
   63.0786   31.2466   47.2433 H   0  0  0  0  0  0  0  0  0  0  0  0
   62.6897   32.9793   46.8888 H   0  0  0  0  0  0  0  0  0  0  0  0
   61.4193   31.6529   49.2804 H   0  0  0  0  0  0  0  0  0  0  0  0
   63.1669   32.1849   49.3457 H   0  0  0  0  0  0  0  0  0  0  0  0
   62.3996   34.1733   49.9927 H   0  0  0  0  0  0  0  0  0  0  0  0
   61.8497   34.3630   48.2656 H   0  0  0  0  0  0  0  0  0  0  0  0
   60.2576   33.8869   50.7493 H   0  0  0  0  0  0  0  0  0  0  0  0
   59.8580   34.8155   49.2645 H   0  0  0  0  0  0  0  0  0  0  0  0
   59.7311   33.0237   49.2645 H   0  0  0  0  0  0  0  0  0  0  0  0
  1  2  2  0
  2  3  1  0
  3  4  2  3
  4  5  1  0
  5  6  1  0
  6  7  1  0
  7  8  2  0
  7  9  1  0
  9 10  1  0
 10 11  1  0
  3 12  1  0
 12 13  2  0
 13 14  1  0
 13 15  1  0
 15 16  1  0
 16 17  2  0
 17 18  1  0
 18 19  2  0
 19 20  1  0
 20 21  2  0
 21 22  1  0
 22 23  1  0
 23 24  1  0
 24 25  1  0
 25 26  1  0
 15  2  1  0
 21 16  1  0
 10  5  2  0
  1 27  1  0
  1 28  1  0
  4 29  1  0
  6 30  1  0
 12 31  1  0
 14 32  1  0
 14 33  1  0
 14 34  1  0
 17 35  1  0
 18 36  1  0
 19 37  1  0
 20 38  1  0
 23 39  1  0
 23 40  1  0
 24 41  1  0
 24 42  1  0
 25 43  1  0
 25 44  1  0
 26 45  1  0
 26 46  1  0
 26 47  1  0
M  CHG  2   9  -1  11  -1
M  END
>  <UniqueID>  (38) 
36

>  <SMILES>  (38) 
C=c1c(=Cc2[nH]c(=O)[n-]c2[O-])cc(C)n1-c1ccccc1OCCCC

>  <Energy>  (38) 
113.66739253103383

>  <Genealogy>  (38) 
C=c1c(=Cc2[nH]c(=O)[n-]c2[O-])cc(C)n1-c1ccccc1OCCCC (protonated)
C=c1c(=Cc2[nH]c(=O)[n-]c2[O-])cc(C)n1-c1ccccc1OCCCC (3D coordinates assigned)
C=c1c(=Cc2[nH]c(=O)[n-]c2[O-])cc(C)n1-c1ccccc1OCCCC (optimized conformer: 113.66739253103383 kcal/mol)

>  <smiles>  (38) 
C=c1c(=Cc2[nH]c(=O)[nH]c2O)cc(C)n1-c1ccccc1OCCCC

>  <score_type>  (38) 
oracle

>  <origin>  (38) 
adg

>  <m_score__min__energy>  (38) 
-13.9

>  <m_primary>  (38) 
energy

$$$$
38:0
     RDKit          3D

 70 74  0  0  0  0  0  0  0  0999 V2000
   62.6520   34.5800   49.7660 C   0  0  0  0  0  0  0  0  0  0  0  0
   62.5920   33.4130   50.6600 N   0  0  0  0  0  0  0  0  0  0  0  0
   63.2730   33.7030   51.9320 C   0  0  0  0  0  0  0  0  0  0  0  0
   63.1940   32.2570   50.0260 C   0  0  0  0  0  0  0  0  0  0  0  0
   64.3720   31.9090   50.3390 O   0  0  0  0  0  0  0  0  0  0  0  0
   62.4480   31.4340   49.0400 C   0  0  0  0  0  0  0  0  0  0  0  0
   62.4900   31.7220   47.6650 C   0  0  0  0  0  0  0  0  0  0  0  0
   61.7330   30.9710   46.7610 C   0  0  0  0  0  0  0  0  0  0  0  0
   60.9310   29.9160   47.2110 C   0  0  0  0  0  0  0  0  0  0  0  0
   59.9470   29.0040   46.0680 S   0  0  0  0  0  0  0  0  0  0  0  0
   60.6720   28.8810   44.7580 O   0  0  0  0  0  0  0  0  0  0  0  0
   59.7040   27.6140   46.5950 O   0  0  0  0  0  0  0  0  0  0  0  0
   58.4060   29.7980   45.8650 N   0  0  0  0  0  0  0  0  0  0  0  0
   57.2550   29.0060   45.4260 C   0  0  0  0  0  0  0  0  0  0  0  0
   56.6550   29.6390   44.1670 C   0  0  0  0  0  0  0  0  0  0  0  0
   56.3900   31.0290   44.3810 O   0  0  0  0  0  0  0  0  0  0  0  0
   57.2200   31.8270   45.1780 C   0  0  0  0  0  0  0  0  0  0  0  0
   57.0050   33.2080   45.2400 C   0  0  0  0  0  0  0  0  0  0  0  0
   57.7960   34.0020   46.0760 C   0  0  0  0  0  0  0  0  0  0  0  0
   58.8050   33.4160   46.8540 C   0  0  0  0  0  0  0  0  0  0  0  0
   59.6040   34.2340   47.7810 C   0  0  0  0  0  0  0  0  0  0  0  0
   60.4040   35.0760   47.2970 O   0  0  0  0  0  0  0  0  0  0  0  0
   59.4740   34.1540   49.2100 N   0  0  0  0  0  0  0  0  0  0  0  0
   59.3960   33.0850   49.9500 C   0  0  0  0  0  0  0  0  0  0  0  0
   59.9820   33.0210   51.1640 N   0  0  0  0  0  0  0  0  0  0  0  0
   59.6850   31.7820   51.5960 C   0  0  0  0  0  0  0  0  0  0  0  0
   58.9300   31.1410   50.6390 C   0  0  0  0  0  0  0  0  0  0  0  0
   58.4620   29.7190   50.6810 C   0  0  0  0  0  0  0  0  0  0  0  0
   57.3700   29.5780   51.6640 N   0  0  0  0  0  0  0  0  0  0  0  0
   56.6050   30.8450   51.7940 C   0  0  0  0  0  0  0  0  0  0  0  0
   55.7840   30.8760   53.0900 C   0  0  0  0  0  0  0  0  0  0  0  0
   56.7030   30.8200   54.3230 C   0  0  0  0  0  0  0  0  0  0  0  0
   58.0300   30.0900   54.0370 C   0  0  0  0  0  0  0  0  0  0  0  0
   57.8460   29.0150   52.9570 C   0  0  0  0  0  0  0  0  0  0  0  0
   58.7440   31.9580   49.5890 N   0  0  0  0  0  0  0  0  0  0  0  0
   59.0220   32.0320   46.7910 C   0  0  0  0  0  0  0  0  0  0  0  0
   58.2470   31.2310   45.9350 C   0  0  0  0  0  0  0  0  0  0  0  0
   60.8910   29.6190   48.5800 C   0  0  0  0  0  0  0  0  0  0  0  0
   61.6370   30.3760   49.4870 C   0  0  0  0  0  0  0  0  0  0  0  0
   62.6993   35.5002   50.3669 H   0  0  0  0  0  0  0  0  0  0  0  0
   63.5477   34.5101   49.1314 H   0  0  0  0  0  0  0  0  0  0  0  0
   61.7538   34.6023   49.1314 H   0  0  0  0  0  0  0  0  0  0  0  0
   61.5780   33.2280   50.8560 H   0  0  0  0  0  0  0  0  0  0  0  0
   62.6180   33.4241   52.7705 H   0  0  0  0  0  0  0  0  0  0  0  0
   64.2069   33.1245   51.9881 H   0  0  0  0  0  0  0  0  0  0  0  0
   63.5031   34.7772   51.9881 H   0  0  0  0  0  0  0  0  0  0  0  0
   63.1226   32.5436   47.2978 H   0  0  0  0  0  0  0  0  0  0  0  0
   61.7680   31.2110   45.6881 H   0  0  0  0  0  0  0  0  0  0  0  0
   57.5796   27.9792   45.2019 H   0  0  0  0  0  0  0  0  0  0  0  0
   56.4978   28.9834   46.2235 H   0  0  0  0  0  0  0  0  0  0  0  0
   57.3649   29.5301   43.3338 H   0  0  0  0  0  0  0  0  0  0  0  0
   55.7095   29.1296   43.9293 H   0  0  0  0  0  0  0  0  0  0  0  0
   56.2136   33.6692   44.6310 H   0  0  0  0  0  0  0  0  0  0  0  0
   57.6266   35.0878   46.1235 H   0  0  0  0  0  0  0  0  0  0  0  0
   59.9954   31.3502   52.5590 H   0  0  0  0  0  0  0  0  0  0  0  0
   58.0968   29.4257   49.6857 H   0  0  0  0  0  0  0  0  0  0  0  0
   59.3003   29.0706   50.9756 H   0  0  0  0  0  0  0  0  0  0  0  0
   57.3100   31.6894   51.7972 H   0  0  0  0  0  0  0  0  0  0  0  0
   55.9107   30.9176   50.9439 H   0  0  0  0  0  0  0  0  0  0  0  0
   55.1953   31.8047   53.1214 H   0  0  0  0  0  0  0  0  0  0  0  0
   55.1196   29.9995   53.1065 H   0  0  0  0  0  0  0  0  0  0  0  0
   56.9277   31.8483   54.6425 H   0  0  0  0  0  0  0  0  0  0  0  0
   56.1752   30.2589   55.1082 H   0  0  0  0  0  0  0  0  0  0  0  0
   58.7758   30.8216   53.6927 H   0  0  0  0  0  0  0  0  0  0  0  0
   58.3674   29.6016   54.9631 H   0  0  0  0  0  0  0  0  0  0  0  0
   58.8114   28.5151   52.7894 H   0  0  0  0  0  0  0  0  0  0  0  0
   57.0810   28.3104   53.3153 H   0  0  0  0  0  0  0  0  0  0  0  0
   59.8024   31.5712   47.4144 H   0  0  0  0  0  0  0  0  0  0  0  0
   60.2698   28.7865   48.9420 H   0  0  0  0  0  0  0  0  0  0  0  0
   61.5894   30.1421   50.5608 H   0  0  0  0  0  0  0  0  0  0  0  0
  1  2  1  0
  2  3  1  0
  2  4  1  0
  4  5  2  0
  4  6  1  0
  6  7  2  0
  7  8  1  0
  8  9  2  0
  9 10  1  0
 10 11  2  0
 10 12  2  0
 10 13  1  0
 13 14  1  0
 14 15  1  0
 15 16  1  0
 16 17  1  0
 17 18  2  0
 18 19  1  0
 19 20  2  0
 20 21  1  0
 21 22  2  0
 21 23  1  0
 23 24  2  3
 24 25  1  0
 25 26  1  0
 26 27  2  0
 27 28  1  0
 28 29  1  0
 29 30  1  0
 30 31  1  0
 31 32  1  0
 32 33  1  0
 33 34  1  0
 27 35  1  0
 20 36  1  0
 36 37  2  0
  9 38  1  0
 38 39  2  0
 39  6  1  0
 37 13  1  0
 37 17  1  0
 35 24  1  0
 34 29  1  0
  1 40  1  0
  1 41  1  0
  1 42  1  0
  2 43  1  0
  3 44  1  0
  3 45  1  0
  3 46  1  0
  7 47  1  0
  8 48  1  0
 14 49  1  0
 14 50  1  0
 15 51  1  0
 15 52  1  0
 18 53  1  0
 19 54  1  0
 26 55  1  0
 28 56  1  0
 28 57  1  0
 30 58  1  0
 30 59  1  0
 31 60  1  0
 31 61  1  0
 32 62  1  0
 32 63  1  0
 33 64  1  0
 33 65  1  0
 34 66  1  0
 34 67  1  0
 36 68  1  0
 38 69  1  0
 39 70  1  0
M  CHG  3   2   1  25  -1  35  -1
M  END
>  <UniqueID>  (39) 
37

>  <SMILES>  (39) 
C[NH+](C)C(=O)c1ccc(S(=O)(=O)N2CCOc3ccc(C(=O)N=c4[n-]cc(CN5CCCCC5)[n-]4)cc32)cc1

>  <Energy>  (39) 
126.63735818831819

>  <Genealogy>  (39) 
C[NH+](C)C(=O)c1ccc(S(=O)(=O)N2CCOc3ccc(C(=O)N=c4[n-]cc(CN5CCCCC5)[n-]4)cc32)cc1 (protonated)
C[NH+](C)C(=O)c1ccc(S(=O)(=O)N2CCOc3ccc(C(=O)N=c4[n-]cc(CN5CCCCC5)[n-]4)cc32)cc1 (3D coordinates assigned)
C[NH+](C)C(=O)c1ccc(S(=O)(=O)N2CCOc3ccc(C(=O)N=c4[n-]cc(CN5CCCCC5)[n-]4)cc32)cc1 (nonaromatic ring conformer: 126.63735818831819 kcal/mol)

>  <smiles>  (39) 
CN(C)C(=O)c1ccc(S(=O)(=O)N2CCOc3ccc(C(=O)N=c4[nH]cc(CN5CCCCC5)[nH]4)cc32)cc1

>  <score_type>  (39) 
oracle

>  <origin>  (39) 
adg

>  <m_score__min__energy>  (39) 
-9.8900000000000006

>  <m_primary>  (39) 
energy

$$$$
39:0
     RDKit          3D

 49 52  0  0  0  0  0  0  0  0999 V2000
   57.6685   33.2701   47.8118 H   0  0  0  0  0  0  0  0  0  0  0  0
   57.9160   33.2670   46.7400 C   0  0  0  0  0  0  0  0  0  0  0  0
   57.3840   32.3190   45.9220 N   0  0  0  0  0  0  0  0  0  0  0  0
   57.6630   32.2820   44.5870 C   0  0  0  0  0  0  0  0  0  0  0  0
   57.0750   31.1960   43.7340 C   0  0  0  0  0  0  0  0  0  0  0  0
   57.8888   30.5951   43.3020 H   0  0  0  0  0  0  0  0  0  0  0  0
   56.4771   31.6577   42.9344 H   0  0  0  0  0  0  0  0  0  0  0  0
   56.2070   30.3280   44.5310 N   0  0  0  0  0  0  0  0  0  0  0  0
   56.6140   29.3110   45.2300 C   0  0  0  0  0  0  0  0  0  0  0  0
   57.7510   29.4190   45.9660 N   0  0  0  0  0  0  0  0  0  0  0  0
   58.2070   28.3890   46.7280 C   0  0  0  0  0  0  0  0  0  0  0  0
   59.4840   28.5640   47.5050 C   0  0  0  0  0  0  0  0  0  0  0  0
   60.3158   28.1307   46.9303 H   0  0  0  0  0  0  0  0  0  0  0  0
   59.3745   28.0545   48.4737 H   0  0  0  0  0  0  0  0  0  0  0  0
   59.8320   30.3310   47.8170 S   0  0  0  0  0  0  0  0  0  0  0  0
   59.0430   30.3660   49.4280 C   0  0  0  0  0  0  0  0  0  0  0  0
   58.1410   31.6460   50.0410 S   0  0  0  0  0  0  0  0  0  0  0  0
   57.7780   30.8100   51.4550 C   0  0  0  0  0  0  0  0  0  0  0  0
   57.0090   31.2850   52.3880 N   0  0  0  0  0  0  0  0  0  0  0  0
   56.2090   30.5100   53.2940 C   0  0  0  0  0  0  0  0  0  0  0  0
   56.4480   30.5050   54.5340 O   0  0  0  0  0  0  0  0  0  0  0  0
   55.1100   29.6530   52.7490 C   0  0  0  0  0  0  0  0  0  0  0  0
   55.4385   29.1924   51.8057 H   0  0  0  0  0  0  0  0  0  0  0  0
   54.8651   28.8659   53.4774 H   0  0  0  0  0  0  0  0  0  0  0  0
   53.8900   30.4970   52.4960 C   0  0  0  0  0  0  0  0  0  0  0  0
   52.9280   30.6750   53.5040 C   0  0  0  0  0  0  0  0  0  0  0  0
   53.0927   30.2401   54.5009 H   0  0  0  0  0  0  0  0  0  0  0  0
   51.7610   31.4030   53.2460 C   0  0  0  0  0  0  0  0  0  0  0  0
   51.0134   31.5423   54.0408 H   0  0  0  0  0  0  0  0  0  0  0  0
   51.5440   31.9540   51.9780 C   0  0  0  0  0  0  0  0  0  0  0  0
   50.3810   32.6730   51.7220 O   0  0  0  0  0  0  0  0  0  0  0  0
   52.4940   31.7750   50.9680 C   0  0  0  0  0  0  0  0  0  0  0  0
   52.3244   32.2099   49.9720 H   0  0  0  0  0  0  0  0  0  0  0  0
   53.6600   31.0440   51.2210 C   0  0  0  0  0  0  0  0  0  0  0  0
   54.3993   30.8967   50.4199 H   0  0  0  0  0  0  0  0  0  0  0  0
   58.3280   29.5710   51.4780 N   0  0  0  0  0  0  0  0  0  0  0  0
   59.0400   29.3240   50.3470 C   0  0  0  0  0  0  0  0  0  0  0  0
   59.5707   28.3763   50.1733 H   0  0  0  0  0  0  0  0  0  0  0  0
   57.4900   27.1790   46.7490 C   0  0  0  0  0  0  0  0  0  0  0  0
   57.9160   26.0980   47.5180 O   0  0  0  0  0  0  0  0  0  0  0  0
   56.3300   27.0790   45.9780 C   0  0  0  0  0  0  0  0  0  0  0  0
   55.6640   26.0100   45.9630 O   0  0  0  0  0  0  0  0  0  0  0  0
   55.9150   28.1410   45.2380 N   0  0  0  0  0  0  0  0  0  0  0  0
   58.5270   33.2400   44.0310 C   0  0  0  0  0  0  0  0  0  0  0  0
   58.7630   33.2178   42.9568 H   0  0  0  0  0  0  0  0  0  0  0  0
   59.0830   34.2200   44.8540 C   0  0  0  0  0  0  0  0  0  0  0  0
   59.7598   34.9769   44.4309 H   0  0  0  0  0  0  0  0  0  0  0  0
   58.7770   34.2370   46.2190 C   0  0  0  0  0  0  0  0  0  0  0  0
   59.2097   35.0061   46.8757 H   0  0  0  0  0  0  0  0  0  0  0  0
  1  2  1  0
  2  3  2  0
  3  4  1  0
  4  5  1  0
  5  6  1  0
  5  7  1  0
  5  8  1  0
  8  9  2  0
  9 10  1  0
 10 11  1  0
 11 12  1  0
 12 13  1  0
 12 14  1  0
 12 15  1  0
 15 16  1  0
 16 17  1  0
 17 18  1  0
 18 19  2  0
 19 20  1  0
 20 21  2  0
 20 22  1  0
 22 23  1  0
 22 24  1  0
 22 25  1  0
 25 26  2  0
 26 27  1  0
 26 28  1  0
 28 29  1  0
 28 30  2  0
 30 31  1  0
 30 32  1  0
 32 33  1  0
 32 34  2  0
 34 35  1  0
 18 36  1  0
 36 37  1  0
 37 38  1  0
 11 39  2  0
 39 40  1  0
 39 41  1  0
 41 42  2  0
 41 43  1  0
  4 44  2  0
 44 45  1  0
 44 46  1  0
 46 47  1  0
 46 48  2  0
 48 49  1  0
 48  2  1  0
 43  9  1  0
 37 16  2  0
 34 25  1  0
M  CHG  5  10  -1  31  -1  36  -1  40  -1  43  -1
M  END
>  <UniqueID>  (40) 
38

>  <SMILES>  (40) 
O=C(Cc1ccc([O-])cc1)/N=c1\[n-]cc(SCc2[n-]/c(=N/Cc3ccccn3)[n-]c(=O)c2[O-])s1

>  <Energy>  (40) 
80.87227630058219

>  <Genealogy>  (40) 
O=C(Cc1ccc([O-])cc1)N=c1[n-]cc(SCc2[n-]c(=NCc3ccccn3)[n-]c(=O)c2[O-])s1 (protonated)
O=C(Cc1ccc([O-])cc1)/N=c1\[n-]cc(SCc2[n-]/c(=N/Cc3ccccn3)[n-]c(=O)c2[O-])s1 (cis-trans isomerization)
O=C(Cc1ccc([O-])cc1)/N=c1\[n-]cc(SCc2[n-]/c(=N/Cc3ccccn3)[n-]c(=O)c2[O-])s1 (3D coordinates assigned)
O=C(Cc1ccc([O-])cc1)/N=c1\[n-]cc(SCc2[n-]/c(=N/Cc3ccccn3)[n-]c(=O)c2[O-])s1 (optimized conformer: 80.87227630058219 kcal/mol)

>  <smiles>  (40) 
O=C(Cc1ccc(O)cc1)N=c1[nH]cc(SCc2[nH]c(=NCc3ccccn3)[nH]c(=O)c2O)s1

>  <score_type>  (40) 
oracle

>  <origin>  (40) 
adg

>  <m_score__min__energy>  (40) 
-19.850000000000001

>  <m_primary>  (40) 
energy

$$$$
40:0
     RDKit          3D

 43 45  0  0  0  0  0  0  0  0999 V2000
   60.6230   28.2610   49.0480 N   0  0  0  0  0  0  0  0  0  0  0  0
   60.4140   29.8380   49.7300 S   0  0  0  0  0  0  0  0  0  0  0  0
   59.0230   30.3320   49.4520 O   0  0  0  0  0  0  0  0  0  0  0  0
   60.5930   29.7320   51.2190 O   0  0  0  0  0  0  0  0  0  0  0  0
   61.6010   30.9740   49.0570 C   0  0  0  0  0  0  0  0  0  0  0  0
   62.6940   31.3660   49.8490 C   0  0  0  0  0  0  0  0  0  0  0  0
   63.6630   32.2350   49.3430 C   0  0  0  0  0  0  0  0  0  0  0  0
   63.5570   32.7200   48.0410 C   0  0  0  0  0  0  0  0  0  0  0  0
   62.4780   32.3440   47.2400 C   0  0  0  0  0  0  0  0  0  0  0  0
   61.4910   31.4790   47.7380 C   0  0  0  0  0  0  0  0  0  0  0  0
   60.3680   31.1160   46.8570 C   0  0  0  0  0  0  0  0  0  0  0  0
   59.1870   31.8690   46.8710 C   0  0  0  0  0  0  0  0  0  0  0  0
   58.1060   31.4960   46.0670 C   0  0  0  0  0  0  0  0  0  0  0  0
   58.2010   30.3680   45.2400 C   0  0  0  0  0  0  0  0  0  0  0  0
   56.8120   29.8070   44.3150 S   0  0  0  0  0  0  0  0  0  0  0  0
   55.9010   30.9480   43.9580 O   0  0  0  0  0  0  0  0  0  0  0  0
   57.3080   29.1660   43.0490 O   0  0  0  0  0  0  0  0  0  0  0  0
   55.9420   28.6330   45.2480 N   0  0  0  0  0  0  0  0  0  0  0  0
   56.5060   27.4020   45.7230 C   0  0  0  0  0  0  0  0  0  0  0  0
   57.9010   27.2960   45.7950 C   0  0  0  0  0  0  0  0  0  0  0  0
   58.5100   26.1290   46.2890 C   0  0  0  0  0  0  0  0  0  0  0  0
   59.9840   26.0390   46.3880 C   0  0  0  0  0  0  0  0  0  0  0  0
   60.6580   27.0110   46.8190 O   0  0  0  0  0  0  0  0  0  0  0  0
   60.6450   24.8780   46.0040 O   0  0  0  0  0  0  0  0  0  0  0  0
   57.6980   25.0560   46.6950 C   0  0  0  0  0  0  0  0  0  0  0  0
   56.3090   25.1450   46.5960 C   0  0  0  0  0  0  0  0  0  0  0  0
   55.7080   26.3060   46.1020 C   0  0  0  0  0  0  0  0  0  0  0  0
   54.3270   26.3400   45.9670 O   0  0  0  0  0  0  0  0  0  0  0  0
   59.3960   29.6380   45.2000 C   0  0  0  0  0  0  0  0  0  0  0  0
   60.4790   30.0150   45.9960 C   0  0  0  0  0  0  0  0  0  0  0  0
   59.7680   28.0410   48.4920 H   0  0  0  0  0  0  0  0  0  0  0  0
   61.4230   28.3140   48.3770 H   0  0  0  0  0  0  0  0  0  0  0  0
   62.7870   30.9848   50.8767 H   0  0  0  0  0  0  0  0  0  0  0  0
   64.5120   32.5374   49.9737 H   0  0  0  0  0  0  0  0  0  0  0  0
   64.3250   33.4002   47.6441 H   0  0  0  0  0  0  0  0  0  0  0  0
   62.4004   32.7278   46.2121 H   0  0  0  0  0  0  0  0  0  0  0  0
   59.1100   32.7564   47.5165 H   0  0  0  0  0  0  0  0  0  0  0  0
   57.1794   32.0885   46.0833 H   0  0  0  0  0  0  0  0  0  0  0  0
   58.5276   28.1361   45.4609 H   0  0  0  0  0  0  0  0  0  0  0  0
   58.1602   24.1407   47.0931 H   0  0  0  0  0  0  0  0  0  0  0  0
   55.6832   24.2961   46.9087 H   0  0  0  0  0  0  0  0  0  0  0  0
   59.4813   28.7635   44.5382 H   0  0  0  0  0  0  0  0  0  0  0  0
   61.4203   29.4478   45.9477 H   0  0  0  0  0  0  0  0  0  0  0  0
  1  2  1  0
  2  3  2  0
  2  4  2  0
  2  5  1  0
  5  6  2  0
  6  7  1  0
  7  8  2  0
  8  9  1  0
  9 10  2  0
 10 11  1  0
 11 12  2  0
 12 13  1  0
 13 14  2  0
 14 15  1  0
 15 16  2  0
 15 17  2  0
 15 18  1  0
 18 19  1  0
 19 20  2  0
 20 21  1  0
 21 22  1  0
 22 23  2  0
 22 24  1  0
 21 25  2  0
 25 26  1  0
 26 27  2  0
 27 28  1  0
 14 29  1  0
 29 30  2  0
 10  5  1  0
 30 11  1  0
 27 19  1  0
  1 31  1  0
  1 32  1  0
  6 33  1  0
  7 34  1  0
  8 35  1  0
  9 36  1  0
 12 37  1  0
 13 38  1  0
 20 39  1  0
 25 40  1  0
 26 41  1  0
 29 42  1  0
 30 43  1  0
M  CHG  3  18  -1  24  -1  28  -1
M  END
>  <UniqueID>  (41) 
39

>  <SMILES>  (41) 
NS(=O)(=O)c1ccccc1-c1ccc(S(=O)(=O)[N-]c2cc(C(=O)[O-])ccc2[O-])cc1

>  <Energy>  (41) 
59.33260420063723

>  <Genealogy>  (41) 
NS(=O)(=O)c1ccccc1-c1ccc(S(=O)(=O)[N-]c2cc(C(=O)[O-])ccc2[O-])cc1 (protonated)
NS(=O)(=O)c1ccccc1-c1ccc(S(=O)(=O)[N-]c2cc(C(=O)[O-])ccc2[O-])cc1 (3D coordinates assigned)
NS(=O)(=O)c1ccccc1-c1ccc(S(=O)(=O)[N-]c2cc(C(=O)[O-])ccc2[O-])cc1 (optimized conformer: 59.33260420063723 kcal/mol)

>  <smiles>  (41) 
NS(=O)(=O)c1ccccc1-c1ccc(S(=O)(=O)Nc2cc(C(=O)O)ccc2O)cc1

>  <score_type>  (41) 
oracle

>  <origin>  (41) 
adg

>  <m_score__min__energy>  (41) 
-16.18

>  <m_primary>  (41) 
energy

$$$$
41:0
     RDKit          3D

 84 90  0  0  0  0  0  0  0  0999 V2000
   55.0680   31.3060   51.6040 N   0  0  0  0  0  0  0  0  0  0  0  0
   55.0860   30.1840   52.4900 C   0  0  0  0  0  0  0  0  0  0  0  0
   53.9930   29.6820   52.8570 O   0  0  0  0  0  0  0  0  0  0  0  0
   56.3500   29.6070   52.9960 C   0  0  0  0  0  0  0  0  0  0  0  0
   56.3380   28.8860   54.2020 C   0  0  0  0  0  0  0  0  0  0  0  0
   57.5110   28.3170   54.7000 C   0  0  0  0  0  0  0  0  0  0  0  0
   58.7050   28.4500   53.9910 C   0  0  0  0  0  0  0  0  0  0  0  0
   58.7370   29.1670   52.7970 C   0  0  0  0  0  0  0  0  0  0  0  0
   57.5630   29.7530   52.2830 C   0  0  0  0  0  0  0  0  0  0  0  0
   57.5520   30.4590   51.0660 O   0  0  0  0  0  0  0  0  0  0  0  0
   58.6310   31.2150   50.5280 C   0  0  0  0  0  0  0  0  0  0  0  0
   58.5660   32.6450   51.0080 C   0  0  0  0  0  0  0  0  0  0  0  0
   57.7250   32.9600   51.8860 O   0  0  0  0  0  0  0  0  0  0  0  0
   59.3580   33.6810   50.4050 N   0  0  0  0  0  0  0  0  0  0  0  0
   60.7250   33.5110   49.9990 C   0  0  0  0  0  0  0  0  0  0  0  0
   61.6170   32.8640   50.8560 C   0  0  0  0  0  0  0  0  0  0  0  0
   62.9840   32.7610   50.5290 C   0  0  0  0  0  0  0  0  0  0  0  0
   63.4370   33.2890   49.3040 C   0  0  0  0  0  0  0  0  0  0  0  0
   62.5290   33.8580   48.4050 C   0  0  0  0  0  0  0  0  0  0  0  0
   61.1730   33.9580   48.7380 C   0  0  0  0  0  0  0  0  0  0  0  0
   60.2550   34.5040   47.7890 N   0  0  0  0  0  0  0  0  0  0  0  0
   59.3660   33.6800   47.0170 C   0  0  0  0  0  0  0  0  0  0  0  0
   59.0000   32.4210   47.5150 C   0  0  0  0  0  0  0  0  0  0  0  0
   58.1370   31.5980   46.7840 C   0  0  0  0  0  0  0  0  0  0  0  0
   57.6300   32.0120   45.5460 C   0  0  0  0  0  0  0  0  0  0  0  0
   56.7810   31.1080   44.8140 N   0  0  0  0  0  0  0  0  0  0  0  0
   56.7140   29.6800   44.9690 C   0  0  0  0  0  0  0  0  0  0  0  0
   55.5900   29.1280   44.8530 O   0  0  0  0  0  0  0  0  0  0  0  0
   57.9360   28.8630   45.2310 C   0  0  0  0  0  0  0  0  0  0  0  0
   59.1950   29.3500   44.8110 C   0  0  0  0  0  0  0  0  0  0  0  0
   60.3560   28.6050   45.0080 C   0  0  0  0  0  0  0  0  0  0  0  0
   60.2920   27.3530   45.6210 C   0  0  0  0  0  0  0  0  0  0  0  0
   59.0570   26.8390   46.0270 C   0  0  0  0  0  0  0  0  0  0  0  0
   57.8710   27.5700   45.8210 C   0  0  0  0  0  0  0  0  0  0  0  0
   56.6170   27.0400   46.2960 N   0  0  0  0  0  0  0  0  0  0  0  0
   56.2650   25.7850   46.3950 C   0  0  0  0  0  0  0  0  0  0  0  0
   55.2470   25.2140   45.6070 C   0  0  0  0  0  0  0  0  0  0  0  0
   54.9070   23.8740   45.7900 C   0  0  0  0  0  0  0  0  0  0  0  0
   55.5430   23.1290   46.7250 N   0  0  0  0  0  0  0  0  0  0  0  0
   56.5270   23.6490   47.5050 C   0  0  0  0  0  0  0  0  0  0  0  0
   56.9010   24.9840   47.3550 C   0  0  0  0  0  0  0  0  0  0  0  0
   58.0160   33.2630   45.0290 C   0  0  0  0  0  0  0  0  0  0  0  0
   58.8820   34.0920   45.7580 C   0  0  0  0  0  0  0  0  0  0  0  0
   59.2670   35.3060   45.2080 O   0  0  0  0  0  0  0  0  0  0  0  0
   64.8310   33.2650   48.9640 N   0  0  0  0  0  0  0  0  0  0  0  0
   65.7410   32.7930   49.7600 C   0  0  0  0  0  0  0  0  0  0  0  0
   65.3850   32.2190   51.0650 C   0  0  0  0  0  0  0  0  0  0  0  0
   66.3020   31.8510   51.8440 O   0  0  0  0  0  0  0  0  0  0  0  0
   63.9380   32.0000   51.4440 C   0  0  1  0  0  0  0  0  0  0  0  0
   63.7200   32.3430   52.9170 C   0  0  0  0  0  0  0  0  0  0  0  0
   63.2360   31.3580   53.7930 C   0  0  0  0  0  0  0  0  0  0  0  0
   63.0480   31.6400   55.1470 C   0  0  0  0  0  0  0  0  0  0  0  0
   63.3120   32.9140   55.6450 C   0  0  0  0  0  0  0  0  0  0  0  0
   63.7760   33.9100   54.7820 C   0  0  0  0  0  0  0  0  0  0  0  0
   63.9870   33.6390   53.4260 C   0  0  0  0  0  0  0  0  0  0  0  0
   64.6170   35.0880   52.3340 Br  0  0  0  0  0  0  0  0  0  0  0  0
   54.1730   31.6270   51.1780 H   0  0  0  0  0  0  0  0  0  0  0  0
   55.9340   31.8520   51.3940 H   0  0  0  0  0  0  0  0  0  0  0  0
   55.3962   28.7691   54.7582 H   0  0  0  0  0  0  0  0  0  0  0  0
   57.4941   27.7641   55.6508 H   0  0  0  0  0  0  0  0  0  0  0  0
   59.6252   27.9867   54.3764 H   0  0  0  0  0  0  0  0  0  0  0  0
   59.6858   29.2765   52.2513 H   0  0  0  0  0  0  0  0  0  0  0  0
   59.5827   30.7677   50.8508 H   0  0  0  0  0  0  0  0  0  0  0  0
   58.5601   31.2047   49.4303 H   0  0  0  0  0  0  0  0  0  0  0  0
   61.2488   32.4297   51.7971 H   0  0  0  0  0  0  0  0  0  0  0  0
   62.8822   34.2288   47.4315 H   0  0  0  0  0  0  0  0  0  0  0  0
   60.4530   35.4740   47.4500 H   0  0  0  0  0  0  0  0  0  0  0  0
   59.3931   32.0795   48.4840 H   0  0  0  0  0  0  0  0  0  0  0  0
   57.8533   30.6143   47.1862 H   0  0  0  0  0  0  0  0  0  0  0  0
   59.2591   30.3327   44.3209 H   0  0  0  0  0  0  0  0  0  0  0  0
   61.3264   29.0052   44.6791 H   0  0  0  0  0  0  0  0  0  0  0  0
   61.2115   26.7717   45.7844 H   0  0  0  0  0  0  0  0  0  0  0  0
   59.0111   25.8530   46.5126 H   0  0  0  0  0  0  0  0  0  0  0  0
   54.7240   25.8204   44.8529 H   0  0  0  0  0  0  0  0  0  0  0  0
   54.1184   23.4200   45.1719 H   0  0  0  0  0  0  0  0  0  0  0  0
   57.0278   23.0176   48.2537 H   0  0  0  0  0  0  0  0  0  0  0  0
   57.6937   25.4084   47.9886 H   0  0  0  0  0  0  0  0  0  0  0  0
   57.6374   33.5919   44.0500 H   0  0  0  0  0  0  0  0  0  0  0  0
   66.7967   32.8232   49.4525 H   0  0  0  0  0  0  0  0  0  0  0  0
   63.7059   30.9338   51.3048 H   0  0  0  0  0  0  0  0  0  0  0  0
   63.0027   30.3542   53.4083 H   0  0  0  0  0  0  0  0  0  0  0  0
   62.6892   30.8515   55.8249 H   0  0  0  0  0  0  0  0  0  0  0  0
   63.1561   33.1345   56.7113 H   0  0  0  0  0  0  0  0  0  0  0  0
   63.9776   34.9182   55.1731 H   0  0  0  0  0  0  0  0  0  0  0  0
  1  2  1  0
  2  3  2  0
  2  4  1  0
  4  5  2  0
  5  6  1  0
  6  7  2  0
  7  8  1  0
  8  9  2  0
  9 10  1  0
 10 11  1  0
 11 12  1  0
 12 13  2  0
 12 14  1  0
 14 15  1  0
 15 16  2  0
 16 17  1  0
 17 18  2  0
 18 19  1  0
 19 20  2  0
 20 21  1  0
 21 22  1  0
 22 23  2  0
 23 24  1  0
 24 25  2  0
 25 26  1  0
 26 27  1  0
 27 28  2  0
 27 29  1  0
 29 30  2  0
 30 31  1  0
 31 32  2  0
 32 33  1  0
 33 34  2  0
 34 35  1  0
 35 36  2  3
 36 37  1  0
 37 38  2  0
 38 39  1  0
 39 40  1  0
 40 41  2  0
 25 42  1  0
 42 43  2  0
 43 44  1  0
 18 45  1  0
 45 46  2  0
 46 47  1  0
 47 48  2  0
 47 49  1  0
 49 50  1  0
 50 51  2  0
 51 52  1  0
 52 53  2  0
 53 54  1  0
 54 55  2  0
 55 56  1  0
  9  4  1  0
 20 15  1  0
 43 22  1  0
 55 50  1  0
 49 17  1  0
 34 29  1  0
 41 36  1  0
  1 57  1  0
  1 58  1  0
  5 59  1  0
  6 60  1  0
  7 61  1  0
  8 62  1  0
 11 63  1  0
 11 64  1  0
 16 65  1  0
 19 66  1  0
 21 67  1  0
 23 68  1  0
 24 69  1  0
 30 70  1  0
 31 71  1  0
 32 72  1  0
 33 73  1  0
 37 74  1  0
 38 75  1  0
 40 76  1  0
 41 77  1  0
 42 78  1  0
 46 79  1  0
 49 80  1  1
 51 81  1  0
 52 82  1  0
 53 83  1  0
 54 84  1  0
M  CHG  4  14  -1  26  -1  39  -1  44  -1
M  END
>  <UniqueID>  (42) 
40

>  <SMILES>  (42) 
NC(=O)c1ccccc1OCC(=O)[N-]c1cc2c(cc1Nc1ccc([N-]C(=O)c3ccccc3N=c3cc[n-]cc3)cc1[O-])N=CC(=O)[C@H]2c1ccccc1Br

>  <Energy>  (42) 
144.82792098129207

>  <Genealogy>  (42) 
NC(=O)c1ccccc1OCC(=O)[N-]c1cc2c(cc1Nc1ccc([N-]C(=O)c3ccccc3N=c3cc[n-]cc3)cc1[O-])N=CC(=O)C2c1ccccc1Br (protonated)
NC(=O)c1ccccc1OCC(=O)[N-]c1cc2c(cc1Nc1ccc([N-]C(=O)c3ccccc3N=c3cc[n-]cc3)cc1[O-])N=CC(=O)[C@H]2c1ccccc1Br (chirality)
NC(=O)c1ccccc1OCC(=O)[N-]c1cc2c(cc1Nc1ccc([N-]C(=O)c3ccccc3N=c3cc[n-]cc3)cc1[O-])N=CC(=O)[C@H]2c1ccccc1Br (3D coordinates assigned)
NC(=O)c1ccccc1OCC(=O)[N-]c1cc2c(cc1Nc1ccc([N-]C(=O)c3ccccc3N=c3cc[n-]cc3)cc1[O-])N=CC(=O)[C@H]2c1ccccc1Br (nonaromatic ring conformer: 144.82792098129207 kcal/mol)

>  <smiles>  (42) 
NC(=O)c1ccccc1OCC(=O)Nc1cc2c(cc1Nc1ccc(NC(=O)c3ccccc3N=c3cc[nH]cc3)cc1O)N=CC(=O)C2c1ccccc1Br

>  <score_type>  (42) 
oracle

>  <origin>  (42) 
adg

>  <m_score__min__energy>  (42) 
-19.530000000000001

>  <m_primary>  (42) 
energy

$$$$
42:0
     RDKit          3D

 38 39  0  0  0  0  0  0  0  0999 V2000
   57.2770   28.4570   44.8980 C   0  0  0  0  0  0  0  0  0  0  0  0
   56.3400   29.5110   44.4990 C   0  0  0  0  0  0  0  0  0  0  0  0
   55.1600   29.3460   44.8550 O   0  0  0  0  0  0  0  0  0  0  0  0
   56.6090   30.6910   43.6940 C   0  0  0  0  0  0  0  0  0  0  0  0
   57.9080   31.3540   43.7840 C   0  0  0  0  0  0  0  0  0  0  0  0
   57.9200   32.3120   44.8520 N   0  0  0  0  0  0  0  0  0  0  0  0
   58.3870   31.8780   46.1070 C   0  0  0  0  0  0  0  0  0  0  0  0
   57.9040   32.9390   47.1380 C   0  0  0  0  0  0  0  0  0  0  0  0
   58.8450   34.0490   46.7770 N   0  0  0  0  0  0  0  0  0  0  0  0
   59.7000   34.3790   47.8600 C   0  0  0  0  0  0  0  0  0  0  0  0
   59.2810   34.9670   48.8480 O   0  0  0  0  0  0  0  0  0  0  0  0
   61.1770   34.0520   47.9000 C   0  0  0  0  0  0  0  0  0  0  0  0
   61.7570   33.2900   47.1270 C   0  0  0  0  0  0  0  0  0  0  0  0
   63.0470   32.7600   47.3960 C   0  0  0  0  0  0  0  0  0  0  0  0
   63.5930   33.2590   48.5840 C   0  0  0  0  0  0  0  0  0  0  0  0
   64.7620   32.8040   48.9450 O   0  0  0  0  0  0  0  0  0  0  0  0
   62.9970   34.1540   49.3550 N   0  0  0  0  0  0  0  0  0  0  0  0
   61.7310   34.5820   49.0270 N   0  0  0  0  0  0  0  0  0  0  0  0
   58.7590   34.5700   45.4640 C   0  0  0  0  0  0  0  0  0  0  0  0
   58.2030   33.6420   44.4390 C   0  0  0  0  0  0  0  0  0  0  0  0
   57.3238   28.4043   45.9957 H   0  0  0  0  0  0  0  0  0  0  0  0
   56.9340   27.4911   44.4989 H   0  0  0  0  0  0  0  0  0  0  0  0
   58.2765   28.6845   44.4989 H   0  0  0  0  0  0  0  0  0  0  0  0
   56.4747   30.3961   42.6428 H   0  0  0  0  0  0  0  0  0  0  0  0
   55.9133   31.4397   44.1008 H   0  0  0  0  0  0  0  0  0  0  0  0
   58.6860   30.5987   43.9688 H   0  0  0  0  0  0  0  0  0  0  0  0
   58.1009   31.8800   42.8374 H   0  0  0  0  0  0  0  0  0  0  0  0
   57.9671   30.8908   46.3500 H   0  0  0  0  0  0  0  0  0  0  0  0
   59.4825   31.7789   46.1157 H   0  0  0  0  0  0  0  0  0  0  0  0
   56.8523   33.2203   46.9806 H   0  0  0  0  0  0  0  0  0  0  0  0
   57.9222   32.6226   48.1913 H   0  0  0  0  0  0  0  0  0  0  0  0
   61.2558   33.0078   46.1893 H   0  0  0  0  0  0  0  0  0  0  0  0
   63.5596   32.0380   46.7434 H   0  0  0  0  0  0  0  0  0  0  0  0
   63.4980   34.5310   50.1670 H   0  0  0  0  0  0  0  0  0  0  0  0
   58.1177   35.4632   45.4955 H   0  0  0  0  0  0  0  0  0  0  0  0
   59.7938   34.7767   45.1535 H   0  0  0  0  0  0  0  0  0  0  0  0
   57.2642   34.0807   44.0700 H   0  0  0  0  0  0  0  0  0  0  0  0
   58.9987   33.5417   43.6861 H   0  0  0  0  0  0  0  0  0  0  0  0
  1  2  1  0
  2  3  2  0
  2  4  1  0
  4  5  1  0
  5  6  1  0
  6  7  1  0
  7  8  1  0
  8  9  1  0
  9 10  1  0
 10 11  2  0
 10 12  1  0
 12 13  1  0
 13 14  2  0
 14 15  1  0
 15 16  2  0
 15 17  1  0
 17 18  1  0
  9 19  1  0
 19 20  1  0
 20  6  1  0
 18 12  2  0
  1 21  1  0
  1 22  1  0
  1 23  1  0
  4 24  1  0
  4 25  1  0
  5 26  1  0
  5 27  1  0
  7 28  1  0
  7 29  1  0
  8 30  1  0
  8 31  1  0
 13 32  1  0
 14 33  1  0
 17 34  1  0
 19 35  1  0
 19 36  1  0
 20 37  1  0
 20 38  1  0
M  END
>  <smiles>  (43) 
CC(=O)CCN1CCN(C(=O)c2ccc(=O)[nH]n2)CC1

>  <score_type>  (43) 
oracle

>  <origin>  (43) 
adg

>  <m_score__min__energy>  (43) 
-7.46

>  <m_primary>  (43) 
energy

$$$$
43:0
     RDKit          3D

 75 80  0  0  1  0  0  0  0  0999 V2000
   56.9810   23.4540   48.3270 C   0  0  0  0  0  0  0  0  0  0  0  0
   57.3410   22.0780   48.5290 N   0  0  0  0  0  0  0  0  0  0  0  0
   56.7760   21.2380   47.5140 C   0  0  0  0  0  0  0  0  0  0  0  0
   55.3050   21.0160   47.6360 C   0  0  0  0  0  0  0  0  0  0  0  0
   54.8280   21.5700   48.8850 N   0  0  0  0  0  0  0  0  0  0  0  0
   53.5350   22.1670   48.8990 C   0  0  0  0  0  0  0  0  0  0  0  0
   53.0470   22.6760   49.9630 O   0  0  0  0  0  0  0  0  0  0  0  0
   52.6880   22.2390   47.7170 C   0  0  0  0  0  0  0  0  0  0  0  0
   51.4490   21.6380   47.7260 C   0  0  0  0  0  0  0  0  0  0  0  0
   50.6190   21.6920   46.6080 C   0  0  0  0  0  0  0  0  0  0  0  0
   51.0090   22.3520   45.4470 C   0  0  0  0  0  0  0  0  0  0  0  0
   52.2450   22.9510   45.4370 C   0  0  0  0  0  0  0  0  0  0  0  0
   52.7700   23.6600   44.3160 N   0  0  0  0  0  0  0  0  0  0  0  0
   54.0490   23.7220   44.0560 C   0  0  0  0  0  0  0  0  0  0  0  0
   55.0150   24.1790   44.8910 N   0  0  0  0  0  0  0  0  0  0  0  0
   56.1920   24.0640   44.2230 C   0  0  0  0  0  0  0  0  0  0  0  0
   57.4060   24.4420   44.7820 O   0  0  0  0  0  0  0  0  0  0  0  0
   57.7200   25.7910   44.7950 C   0  0  0  0  0  0  0  0  0  0  0  0
   57.7380   26.4010   46.0480 C   0  0  0  0  0  0  0  0  0  0  0  0
   58.0420   27.7430   46.1320 C   0  0  0  0  0  0  0  0  0  0  0  0
   58.3310   28.5000   45.0090 C   0  0  0  0  0  0  0  0  0  0  0  0
   58.6440   29.8760   45.2060 N   0  0  0  0  0  0  0  0  0  0  0  0
   57.6450   30.9070   45.1240 C   0  0  0  0  0  0  0  0  0  0  0  0
   56.4860   30.5280   44.8700 O   0  0  0  0  0  0  0  0  0  0  0  0
   58.0900   32.2920   45.3480 C   0  0  0  0  0  0  0  0  0  0  0  0
   59.2410   32.5280   46.2140 C   0  0  0  0  0  0  0  0  0  0  0  0
   59.6000   31.5630   46.9790 O   0  0  0  0  0  0  0  0  0  0  0  0
   60.0150   33.6990   46.3120 N   0  0  0  0  0  0  0  0  0  0  0  0
   61.1060   33.6620   47.2610 C   0  0  0  0  0  0  0  0  0  0  0  0
   62.3630   33.4420   46.7300 C   0  0  0  0  0  0  0  0  0  0  0  0
   63.4790   33.3880   47.5360 C   0  0  0  0  0  0  0  0  0  0  0  0
   63.2790   33.5680   48.9090 C   0  0  0  0  0  0  0  0  0  0  0  0
   64.3720   33.5160   49.6990 F   0  0  0  0  0  0  0  0  0  0  0  0
   62.0240   33.7860   49.4270 C   0  0  0  0  0  0  0  0  0  0  0  0
   60.8970   33.8390   48.6110 C   0  0  0  0  0  0  0  0  0  0  0  0
   57.0180   33.3690   45.4820 C   0  0  0  0  0  0  0  0  0  0  0  0
   57.7870   33.2890   44.2380 C   0  0  0  0  0  0  0  0  0  0  0  0
   58.3140   27.8990   43.7670 C   0  0  0  0  0  0  0  0  0  0  0  0
   58.0040   26.5390   43.6890 C   0  0  0  0  0  0  0  0  0  0  0  0
   57.9810   25.9410   42.4720 F   0  0  0  0  0  0  0  0  0  0  0  0
   55.9380   23.5470   43.0050 N   0  0  0  0  0  0  0  0  0  0  0  0
   54.6280   23.3370   42.9030 N   0  0  0  0  0  0  0  0  0  0  0  0
   53.0770   22.8980   46.5570 C   0  0  0  0  0  0  0  0  0  0  0  0
   55.5910   21.5500   50.1150 C   0  0  0  0  0  0  0  0  0  0  0  0
   57.0590   21.6670   49.8710 C   0  0  0  0  0  0  0  0  0  0  0  0
   56.8522   23.9463   49.3022 H   0  0  0  0  0  0  0  0  0  0  0  0
   57.7765   23.9620   47.7620 H   0  0  0  0  0  0  0  0  0  0  0  0
   56.0387   23.5073   47.7620 H   0  0  0  0  0  0  0  0  0  0  0  0
   56.9726   21.7023   46.5363 H   0  0  0  0  0  0  0  0  0  0  0  0
   57.2496   20.2517   47.6276 H   0  0  0  0  0  0  0  0  0  0  0  0
   54.7905   21.5086   46.7978 H   0  0  0  0  0  0  0  0  0  0  0  0
   55.0975   19.9360   47.6147 H   0  0  0  0  0  0  0  0  0  0  0  0
   51.1098   21.1080   48.6282 H   0  0  0  0  0  0  0  0  0  0  0  0
   49.6346   21.2024   46.6442 H   0  0  0  0  0  0  0  0  0  0  0  0
   50.3500   22.3927   44.5672 H   0  0  0  0  0  0  0  0  0  0  0  0
   57.5133   25.8210   46.9552 H   0  0  0  0  0  0  0  0  0  0  0  0
   58.0554   28.2266   47.1199 H   0  0  0  0  0  0  0  0  0  0  0  0
   59.6480   30.0850   45.4190 H   0  0  0  0  0  0  0  0  0  0  0  0
   59.8260   34.5420   45.7440 H   0  0  0  0  0  0  0  0  0  0  0  0
   62.4744   33.3076   45.6439 H   0  0  0  0  0  0  0  0  0  0  0  0
   64.4815   33.2114   47.1191 H   0  0  0  0  0  0  0  0  0  0  0  0
   61.9076   33.9218   50.5124 H   0  0  0  0  0  0  0  0  0  0  0  0
   59.8920   34.0132   49.0230 H   0  0  0  0  0  0  0  0  0  0  0  0
   55.9553   33.0850   45.4870 H   0  0  0  0  0  0  0  0  0  0  0  0
   56.8132   34.1662   46.2117 H   0  0  0  0  0  0  0  0  0  0  0  0
   57.2976   32.9461   43.3145 H   0  0  0  0  0  0  0  0  0  0  0  0
   58.3909   34.0034   43.6592 H   0  0  0  0  0  0  0  0  0  0  0  0
   58.5394   28.4775   42.8590 H   0  0  0  0  0  0  0  0  0  0  0  0
   56.6420   23.3390   42.2620 H   0  0  0  0  0  0  0  0  0  0  0  0
   54.1470   22.9380   42.0580 H   0  0  0  0  0  0  0  0  0  0  0  0
   54.0611   23.3882   46.5204 H   0  0  0  0  0  0  0  0  0  0  0  0
   55.2686   22.3919   50.7453 H   0  0  0  0  0  0  0  0  0  0  0  0
   55.4073   20.5851   50.6102 H   0  0  0  0  0  0  0  0  0  0  0  0
   57.4781   22.4089   50.5667 H   0  0  0  0  0  0  0  0  0  0  0  0
   57.5131   20.6777   50.0295 H   0  0  0  0  0  0  0  0  0  0  0  0
  1  2  1  0
  2  3  1  0
  3  4  1  0
  4  5  1  0
  5  6  1  0
  6  7  2  0
  6  8  1  0
  8  9  2  0
  9 10  1  0
 10 11  2  0
 11 12  1  0
 12 13  1  0
 13 14  2  0
 14 15  1  0
 15 16  2  0
 16 17  1  0
 17 18  1  0
 18 19  2  0
 19 20  1  0
 20 21  2  0
 21 22  1  0
 22 23  1  0
 23 24  2  0
 23 25  1  0
 25 26  1  0
 26 27  2  0
 26 28  1  0
 28 29  1  0
 29 30  2  0
 30 31  1  0
 31 32  2  0
 32 33  1  0
 32 34  1  0
 34 35  2  0
 25 36  1  0
 36 37  1  0
 21 38  1  0
 38 39  2  0
 39 40  1  0
 16 41  1  0
 41 42  1  0
 12 43  2  0
  5 44  1  0
 44 45  1  0
 45  2  1  0
 43  8  1  0
 42 14  1  0
 39 18  1  0
 37 25  1  0
 35 29  1  0
  1 46  1  0
  1 47  1  0
  1 48  1  0
  3 49  1  0
  3 50  1  0
  4 51  1  0
  4 52  1  0
  9 53  1  0
 10 54  1  0
 11 55  1  0
 19 56  1  0
 20 57  1  0
 22 58  1  0
 28 59  1  0
 30 60  1  0
 31 61  1  0
 34 62  1  0
 35 63  1  0
 36 64  1  0
 36 65  1  0
 37 66  1  0
 37 67  1  0
 38 68  1  0
 41 69  1  0
 42 70  1  0
 43 71  1  0
 44 72  1  0
 44 73  1  0
 45 74  1  0
 45 75  1  0
M  END
>  <smiles>  (44) 
CN1CCN(C(=O)c2cccc(N=c3nc(Oc4ccc(NC(=O)C5(C(=O)Nc6ccc(F)cc6)CC5)cc4F)[nH][nH]3)c2)CC1

>  <score_type>  (44) 
oracle

>  <origin>  (44) 
adg

>  <m_score__min__energy>  (44) 
-9.7100000000000009

>  <m_primary>  (44) 
energy

$$$$
44:0
     RDKit          3D

 43 45  0  0  0  0  0  0  0  0999 V2000
   59.7565   34.1020   44.0219 H   0  0  0  0  0  0  0  0  0  0  0  0
   58.8830   33.5140   44.3400 C   0  0  0  0  0  0  0  0  0  0  0  0
   58.0680   32.3720   43.4120 S   0  0  0  0  0  0  0  0  0  0  0  0
   56.9570   32.0330   44.6220 C   0  0  0  0  0  0  0  0  0  0  0  0
   56.0030   31.1600   44.4960 N   0  0  0  0  0  0  0  0  0  0  0  0
   56.1530   29.7310   44.5140 C   0  0  0  0  0  0  0  0  0  0  0  0
   55.1450   28.9750   44.5320 O   0  0  0  0  0  0  0  0  0  0  0  0
   57.4570   29.1460   44.4570 N   0  0  0  0  0  0  0  0  0  0  0  0
   58.3570   29.0240   45.5670 C   0  0  0  0  0  0  0  0  0  0  0  0
   59.4970   29.8370   45.5930 C   0  0  0  0  0  0  0  0  0  0  0  0
   59.6825   30.5428   44.7700 H   0  0  0  0  0  0  0  0  0  0  0  0
   60.4000   29.7590   46.6550 C   0  0  0  0  0  0  0  0  0  0  0  0
   61.2860   30.4107   46.6723 H   0  0  0  0  0  0  0  0  0  0  0  0
   60.1790   28.8550   47.6940 C   0  0  0  0  0  0  0  0  0  0  0  0
   60.8834   28.8048   48.5374 H   0  0  0  0  0  0  0  0  0  0  0  0
   59.0640   28.0130   47.6650 C   0  0  0  0  0  0  0  0  0  0  0  0
   58.8979   27.2975   48.4838 H   0  0  0  0  0  0  0  0  0  0  0  0
   58.1510   28.0750   46.5930 C   0  0  0  0  0  0  0  0  0  0  0  0
   57.0590   27.1970   46.5050 O   0  0  0  0  0  0  0  0  0  0  0  0
   56.9960   26.0660   45.6420 C   0  0  0  0  0  0  0  0  0  0  0  0
   56.9448   25.1473   46.2447 H   0  0  0  0  0  0  0  0  0  0  0  0
   56.1005   26.1385   45.0073 H   0  0  0  0  0  0  0  0  0  0  0  0
   57.8940   26.0386   45.0073 H   0  0  0  0  0  0  0  0  0  0  0  0
   57.1810   32.7650   45.7360 N   0  0  0  0  0  0  0  0  0  0  0  0
   58.2560   33.5840   45.5840 C   0  0  0  0  0  0  0  0  0  0  0  0
   58.6800   34.5330   46.6610 C   0  0  0  0  0  0  0  0  0  0  0  0
   59.4757   35.1883   46.2772 H   0  0  0  0  0  0  0  0  0  0  0  0
   57.8159   35.1393   46.9703 H   0  0  0  0  0  0  0  0  0  0  0  0
   59.1930   33.7680   47.8410 C   0  0  0  0  0  0  0  0  0  0  0  0
   60.0940   34.2740   48.5640 O   0  0  0  0  0  0  0  0  0  0  0  0
   58.6960   32.4500   48.1160 N   0  0  0  0  0  0  0  0  0  0  0  0
   57.9880   32.0310   47.4730 H   0  0  0  0  0  0  0  0  0  0  0  0
   59.1590   31.6600   49.2520 C   0  0  0  0  0  0  0  0  0  0  0  0
   58.8308   30.6175   49.1273 H   0  0  0  0  0  0  0  0  0  0  0  0
   60.2571   31.7057   49.2967 H   0  0  0  0  0  0  0  0  0  0  0  0
   58.5960   32.2060   50.5260 C   0  0  0  0  0  0  0  0  0  0  0  0
   59.2560   33.4730   51.4120 S   0  0  0  0  0  0  0  0  0  0  0  0
   58.1350   33.4210   52.6640 C   0  0  0  0  0  0  0  0  0  0  0  0
   58.1181   34.0851   53.5407 H   0  0  0  0  0  0  0  0  0  0  0  0
   57.2340   32.3970   52.4030 C   0  0  0  0  0  0  0  0  0  0  0  0
   56.3962   32.1475   53.0707 H   0  0  0  0  0  0  0  0  0  0  0  0
   57.4930   31.7120   51.2090 C   0  0  0  0  0  0  0  0  0  0  0  0
   56.8847   30.8690   50.8494 H   0  0  0  0  0  0  0  0  0  0  0  0
  1  2  1  0
  2  3  1  0
  3  4  1  0
  4  5  2  0
  5  6  1  0
  6  7  2  0
  6  8  1  0
  8  9  1  0
  9 10  2  0
 10 11  1  0
 10 12  1  0
 12 13  1  0
 12 14  2  0
 14 15  1  0
 14 16  1  0
 16 17  1  0
 16 18  2  0
 18 19  1  0
 19 20  1  0
 20 21  1  0
 20 22  1  0
 20 23  1  0
  4 24  1  0
 24 25  1  0
 25 26  1  0
 26 27  1  0
 26 28  1  0
 26 29  1  0
 29 30  2  0
 29 31  1  0
 31 32  1  0
 31 33  1  0
 33 34  1  0
 33 35  1  0
 33 36  1  0
 36 37  1  0
 37 38  1  0
 38 39  1  0
 38 40  2  0
 40 41  1  0
 40 42  1  0
 42 43  1  0
 25  2  2  0
 42 36  2  0
 18  9  1  0
M  CHG  2   8  -1  24  -1
M  END
>  <UniqueID>  (45) 
41

>  <SMILES>  (45) 
COc1ccccc1[N-]C(=O)/N=c1\[n-]c(CC(=O)NCc2cccs2)cs1

>  <Energy>  (45) 
100.62997357912519

>  <Genealogy>  (45) 
COc1ccccc1[N-]C(=O)N=c1[n-]c(CC(=O)NCc2cccs2)cs1 (protonated)
COc1ccccc1[N-]C(=O)/N=c1\[n-]c(CC(=O)NCc2cccs2)cs1 (cis-trans isomerization)
COc1ccccc1[N-]C(=O)/N=c1\[n-]c(CC(=O)NCc2cccs2)cs1 (3D coordinates assigned)
COc1ccccc1[N-]C(=O)/N=c1\[n-]c(CC(=O)NCc2cccs2)cs1 (optimized conformer: 100.62997357912519 kcal/mol)

>  <smiles>  (45) 
COc1ccccc1NC(=O)N=c1[nH]c(CC(=O)NCc2cccs2)cs1

>  <score_type>  (45) 
oracle

>  <origin>  (45) 
adg

>  <m_score__min__energy>  (45) 
-11.050000000000001

>  <m_primary>  (45) 
energy

$$$$
45:0
     RDKit          3D

 40 43  0  0  0  0  0  0  0  0999 V2000
   55.6050   29.7440   45.9360 H   0  0  0  0  0  0  0  0  0  0  0  0
   55.6300   28.9990   45.2500 O   0  0  0  0  0  0  0  0  0  0  0  0
   56.2520   27.7860   45.5350 C   0  0  0  0  0  0  0  0  0  0  0  0
   55.5140   26.7430   46.0020 N   0  0  0  0  0  0  0  0  0  0  0  0
   56.0910   25.5460   46.2820 C   0  0  0  0  0  0  0  0  0  0  0  0
   55.3880   24.5980   46.7170 O   0  0  0  0  0  0  0  0  0  0  0  0
   57.4220   25.3710   46.0880 N   0  0  0  0  0  0  0  0  0  0  0  0
   58.2020   26.3800   45.6230 C   0  0  0  0  0  0  0  0  0  0  0  0
   59.4320   26.1760   45.4360 O   0  0  0  0  0  0  0  0  0  0  0  0
   57.6330   27.6370   45.3520 C   0  0  0  0  0  0  0  0  0  0  0  0
   58.4360   28.7450   44.8030 C   0  0  0  0  0  0  0  0  0  0  0  0
   58.9757   28.5558   43.8633 H   0  0  0  0  0  0  0  0  0  0  0  0
   58.5670   29.9690   45.3510 C   0  0  0  0  0  0  0  0  0  0  0  0
   57.9930   31.1000   44.7950 C   0  0  0  0  0  0  0  0  0  0  0  0
   57.3540   31.1368   43.9004 H   0  0  0  0  0  0  0  0  0  0  0  0
   58.3740   32.1710   45.5750 C   0  0  0  0  0  0  0  0  0  0  0  0
   57.9970   33.5970   45.3110 C   0  0  0  0  0  0  0  0  0  0  0  0
   57.8580   34.1226   46.2673 H   0  0  0  0  0  0  0  0  0  0  0  0
   58.7964   34.0872   44.7360 H   0  0  0  0  0  0  0  0  0  0  0  0
   57.0598   33.6281   44.7360 H   0  0  0  0  0  0  0  0  0  0  0  0
   59.1510   31.7540   46.5980 N   0  0  0  0  0  0  0  0  0  0  0  0
   59.6950   32.5990   47.6270 C   0  0  0  0  0  0  0  0  0  0  0  0
   60.8430   33.3620   47.3800 C   0  0  0  0  0  0  0  0  0  0  0  0
   61.3230   33.3263   46.3909 H   0  0  0  0  0  0  0  0  0  0  0  0
   61.3800   34.1680   48.3860 C   0  0  0  0  0  0  0  0  0  0  0  0
   62.2810   34.7667   48.1867 H   0  0  0  0  0  0  0  0  0  0  0  0
   60.7760   34.2160   49.6450 C   0  0  0  0  0  0  0  0  0  0  0  0
   61.2018   34.8557   50.4321 H   0  0  0  0  0  0  0  0  0  0  0  0
   59.6270   33.4510   49.9110 C   0  0  0  0  0  0  0  0  0  0  0  0
   58.9890   33.4960   51.2430 C   0  0  0  0  0  0  0  0  0  0  0  0
   59.3950   34.2810   52.2570 N   0  0  0  0  0  0  0  0  0  0  0  0
   58.5600   34.0120   53.2490 N   0  0  0  0  0  0  0  0  0  0  0  0
   57.6820   33.1020   52.8580 N   0  0  0  0  0  0  0  0  0  0  0  0
   57.9230   32.7570   51.6040 N   0  0  0  0  0  0  0  0  0  0  0  0
   59.0920   32.6430   48.8930 C   0  0  0  0  0  0  0  0  0  0  0  0
   58.1933   32.0403   49.0905 H   0  0  0  0  0  0  0  0  0  0  0  0
   59.2640   30.4030   46.4940 C   0  0  0  0  0  0  0  0  0  0  0  0
   59.9030   29.6470   47.4010 C   0  0  0  0  0  0  0  0  0  0  0  0
   60.4109   30.1221   48.2533 H   0  0  0  0  0  0  0  0  0  0  0  0
   59.9187   28.5525   47.2919 H   0  0  0  0  0  0  0  0  0  0  0  0
  1  2  1  0
  2  3  1  0
  3  4  1  0
  4  5  1  0
  5  6  2  0
  5  7  1  0
  7  8  1  0
  8  9  2  0
  8 10  1  0
 10 11  1  0
 11 12  1  0
 11 13  2  0
 13 14  1  0
 14 15  1  0
 14 16  2  0
 16 17  1  0
 17 18  1  0
 17 19  1  0
 17 20  1  0
 16 21  1  0
 21 22  1  0
 22 23  2  0
 23 24  1  0
 23 25  1  0
 25 26  1  0
 25 27  2  0
 27 28  1  0
 27 29  1  0
 29 30  1  0
 30 31  1  0
 31 32  2  0
 32 33  1  0
 33 34  1  0
 29 35  2  0
 35 36  1  0
 21 37  1  0
 37 38  2  0
 38 39  1  0
 38 40  1  0
 10  3  2  0
 37 13  1  0
 35 22  1  0
 34 30  2  0
M  CHG  3   4  -1   7  -1  33  -1
M  END
>  <UniqueID>  (46) 
42

>  <SMILES>  (46) 
C=c1/c(=C\c2c(O)[n-]c(=O)[n-]c2=O)cc(C)n1-c1cccc(-c2nn[n-]n2)c1

>  <Energy>  (46) 
131.78278389559344

>  <Genealogy>  (46) 
C=c1c(=Cc2c(O)[n-]c(=O)[n-]c2=O)cc(C)n1-c1cccc(-c2nn[n-]n2)c1 (protonated)
C=c1/c(=C\c2c(O)[n-]c(=O)[n-]c2=O)cc(C)n1-c1cccc(-c2nn[n-]n2)c1 (cis-trans isomerization)
C=c1/c(=C\c2c(O)[n-]c(=O)[n-]c2=O)cc(C)n1-c1cccc(-c2nn[n-]n2)c1 (3D coordinates assigned)
C=c1/c(=C\c2c(O)[n-]c(=O)[n-]c2=O)cc(C)n1-c1cccc(-c2nn[n-]n2)c1 (optimized conformer: 131.78278389559344 kcal/mol)

>  <smiles>  (46) 
C=c1c(=Cc2c(O)[nH]c(=O)[nH]c2=O)cc(C)n1-c1cccc(-c2nn[nH]n2)c1

>  <score_type>  (46) 
oracle

>  <origin>  (46) 
adg

>  <m_score__min__energy>  (46) 
-13.970000000000001

>  <m_primary>  (46) 
energy

$$$$
46:0
     RDKit          3D

 60 63  0  0  0  0  0  0  0  0999 V2000
   60.5548   29.2224   47.2931 H   0  0  0  0  0  0  0  0  0  0  0  0
   59.6820   29.2790   46.6260 C   0  0  0  0  0  0  0  0  0  0  0  0
   58.7200   28.3280   46.6900 N   0  0  0  0  0  0  0  0  0  0  0  0
   57.6270   28.3400   45.8770 C   0  0  0  0  0  0  0  0  0  0  0  0
   56.6890   27.4460   46.0200 N   0  0  0  0  0  0  0  0  0  0  0  0
   56.7030   26.0940   45.5320 C   0  0  0  0  0  0  0  0  0  0  0  0
   56.1160   25.0390   46.2520 C   0  0  0  0  0  0  0  0  0  0  0  0
   55.5944   25.2456   47.1982 H   0  0  0  0  0  0  0  0  0  0  0  0
   56.1920   23.7280   45.7710 C   0  0  0  0  0  0  0  0  0  0  0  0
   55.7223   22.9087   46.3351 H   0  0  0  0  0  0  0  0  0  0  0  0
   56.8650   23.4550   44.5720 C   0  0  0  0  0  0  0  0  0  0  0  0
   56.9780   21.8090   43.9550 S   0  0  0  0  0  0  0  0  0  0  0  0
   55.9680   21.5910   42.8640 O   0  0  0  0  0  0  0  0  0  0  0  0
   58.3540   21.5780   43.3990 O   0  0  0  0  0  0  0  0  0  0  0  0
   56.6600   20.6560   45.2730 C   0  0  0  0  0  0  0  0  0  0  0  0
   56.7987   21.1588   46.2415 H   0  0  0  0  0  0  0  0  0  0  0  0
   55.6266   20.2871   45.1961 H   0  0  0  0  0  0  0  0  0  0  0  0
   57.3582   19.8095   45.1961 H   0  0  0  0  0  0  0  0  0  0  0  0
   57.4750   24.5020   43.8680 C   0  0  0  0  0  0  0  0  0  0  0  0
   58.0120   24.2931   42.9310 H   0  0  0  0  0  0  0  0  0  0  0  0
   57.4030   25.8110   44.3530 C   0  0  0  0  0  0  0  0  0  0  0  0
   57.8999   26.6247   43.8044 H   0  0  0  0  0  0  0  0  0  0  0  0
   57.4760   29.3790   44.9280 C   0  0  0  0  0  0  0  0  0  0  0  0
   56.2940   29.4360   44.0320 C   0  0  0  0  0  0  0  0  0  0  0  0
   55.1450   29.2030   44.4940 O   0  0  0  0  0  0  0  0  0  0  0  0
   56.4360   29.7690   42.6490 N   0  0  0  0  0  0  0  0  0  0  0  0
   55.6020   29.7570   42.0210 H   0  0  0  0  0  0  0  0  0  0  0  0
   57.3500   30.0950   42.2640 H   0  0  0  0  0  0  0  0  0  0  0  0
   58.4600   30.3890   44.8580 C   0  0  0  0  0  0  0  0  0  0  0  0
   58.3110   31.4210   43.9130 O   0  0  0  0  0  0  0  0  0  0  0  0
   57.8750   32.7490   44.1990 C   0  0  0  0  0  0  0  0  0  0  0  0
   58.1056   33.3983   43.3416 H   0  0  0  0  0  0  0  0  0  0  0  0
   56.7907   32.7355   44.3835 H   0  0  0  0  0  0  0  0  0  0  0  0
   58.5710   33.2800   45.4240 C   0  0  0  0  0  0  0  0  0  0  0  0
   57.8770   33.3640   46.6410 C   0  0  0  0  0  0  0  0  0  0  0  0
   56.8245   33.0487   46.6943 H   0  0  0  0  0  0  0  0  0  0  0  0
   58.5170   33.8460   47.7840 C   0  0  0  0  0  0  0  0  0  0  0  0
   57.9687   33.9048   48.7358 H   0  0  0  0  0  0  0  0  0  0  0  0
   59.8520   34.2540   47.7230 C   0  0  0  0  0  0  0  0  0  0  0  0
   60.3530   34.6273   48.6284 H   0  0  0  0  0  0  0  0  0  0  0  0
   60.5580   34.1890   46.5070 C   0  0  0  0  0  0  0  0  0  0  0  0
   61.8980   34.5920   46.3870 O   0  0  0  0  0  0  0  0  0  0  0  0
   63.0260   33.7140   46.3690 C   0  0  0  0  0  0  0  0  0  0  0  0
   62.9375   33.0308   45.5114 H   0  0  0  0  0  0  0  0  0  0  0  0
   63.9414   34.3180   46.2847 H   0  0  0  0  0  0  0  0  0  0  0  0
   63.0960   32.9060   47.6390 C   0  0  0  0  0  0  0  0  0  0  0  0
   62.2020   31.8420   47.8450 C   0  0  0  0  0  0  0  0  0  0  0  0
   61.4559   31.5964   47.0750 H   0  0  0  0  0  0  0  0  0  0  0  0
   62.2570   31.0940   49.0250 C   0  0  0  0  0  0  0  0  0  0  0  0
   61.5590   30.2578   49.1788 H   0  0  0  0  0  0  0  0  0  0  0  0
   63.1980   31.4080   50.0090 C   0  0  0  0  0  0  0  0  0  0  0  0
   63.2426   30.8167   50.9355 H   0  0  0  0  0  0  0  0  0  0  0  0
   64.0820   32.4720   49.8170 C   0  0  0  0  0  0  0  0  0  0  0  0
   64.8202   32.7198   50.5940 H   0  0  0  0  0  0  0  0  0  0  0  0
   64.0300   33.2230   48.6380 C   0  0  0  0  0  0  0  0  0  0  0  0
   64.7232   34.0647   48.4932 H   0  0  0  0  0  0  0  0  0  0  0  0
   59.9090   33.7010   45.3650 C   0  0  0  0  0  0  0  0  0  0  0  0
   60.4542   33.6472   44.4112 H   0  0  0  0  0  0  0  0  0  0  0  0
   59.5690   30.3280   45.7180 C   0  0  0  0  0  0  0  0  0  0  0  0
   60.3452   31.1062   45.6741 H   0  0  0  0  0  0  0  0  0  0  0  0
  1  2  1  0
  2  3  1  0
  3  4  1  0
  4  5  2  0
  5  6  1  0
  6  7  2  0
  7  8  1  0
  7  9  1  0
  9 10  1  0
  9 11  2  0
 11 12  1  0
 12 13  2  0
 12 14  2  0
 12 15  1  0
 15 16  1  0
 15 17  1  0
 15 18  1  0
 11 19  1  0
 19 20  1  0
 19 21  2  0
 21 22  1  0
  4 23  1  0
 23 24  1  0
 24 25  2  0
 24 26  1  0
 26 27  1  0
 26 28  1  0
 23 29  2  0
 29 30  1  0
 30 31  1  0
 31 32  1  0
 31 33  1  0
 31 34  1  0
 34 35  2  0
 35 36  1  0
 35 37  1  0
 37 38  1  0
 37 39  2  0
 39 40  1  0
 39 41  1  0
 41 42  1  0
 42 43  1  0
 43 44  1  0
 43 45  1  0
 43 46  1  0
 46 47  2  0
 47 48  1  0
 47 49  1  0
 49 50  1  0
 49 51  2  0
 51 52  1  0
 51 53  1  0
 53 54  1  0
 53 55  2  0
 55 56  1  0
 41 57  2  0
 57 58  1  0
 29 59  1  0
 59 60  1  0
 59  2  2  0
 21  6  1  0
 57 34  1  0
 55 46  1  0
M  CHG  1   3  -1
M  END
>  <UniqueID>  (47) 
43

>  <SMILES>  (47) 
CS(=O)(=O)c1ccc(/N=c2\[n-]ccc(OCc3cccc(OCc4ccccc4)c3)c2C(N)=O)cc1

>  <Energy>  (47) 
73.5419804777568

>  <Genealogy>  (47) 
CS(=O)(=O)c1ccc(N=c2[n-]ccc(OCc3cccc(OCc4ccccc4)c3)c2C(N)=O)cc1 (protonated)
CS(=O)(=O)c1ccc(/N=c2\[n-]ccc(OCc3cccc(OCc4ccccc4)c3)c2C(N)=O)cc1 (cis-trans isomerization)
CS(=O)(=O)c1ccc(/N=c2\[n-]ccc(OCc3cccc(OCc4ccccc4)c3)c2C(N)=O)cc1 (3D coordinates assigned)
CS(=O)(=O)c1ccc(/N=c2\[n-]ccc(OCc3cccc(OCc4ccccc4)c3)c2C(N)=O)cc1 (optimized conformer: 73.5419804777568 kcal/mol)

>  <smiles>  (47) 
CS(=O)(=O)c1ccc(N=c2[nH]ccc(OCc3cccc(OCc4ccccc4)c3)c2C(N)=O)cc1

>  <score_type>  (47) 
oracle

>  <origin>  (47) 
adg

>  <m_score__min__energy>  (47) 
-12.92

>  <m_primary>  (47) 
energy

$$$$
47:0
     RDKit          3D

 21 22  0  0  0  0  0  0  0  0999 V2000
   54.5103   29.8944   43.3144 H   0  0  0  0  0  0  0  0  0  0  0  0
   55.5180   29.8730   43.7550 C   0  0  0  0  0  0  0  0  0  0  0  0
   55.7780   29.2820   44.9500 N   0  0  0  0  0  0  0  0  0  0  0  0
   57.0310   25.9810   45.7800 C   0  0  0  0  0  0  0  0  0  0  0  0
   58.2080   26.5310   45.8490 N   0  0  0  0  0  0  0  0  0  0  0  0
   58.5000   27.7940   46.4640 C   0  0  0  0  0  0  0  0  0  0  0  0
   59.5670   27.9200   47.1190 O   0  0  0  0  0  0  0  0  0  0  0  0
   57.6070   28.9160   46.3710 N   0  0  0  0  0  0  0  0  0  0  0  0
   57.0870   29.3800   45.2740 C   0  0  0  0  0  0  0  0  0  0  0  0
   57.9650   30.2100   44.1110 S   0  0  0  0  0  0  0  0  0  0  0  0
   55.0470   24.6370   45.5960 C   0  0  0  0  0  0  0  0  0  0  0  0
   53.9960   23.5880   45.4770 C   0  0  0  0  0  0  0  0  0  0  0  0
   53.6787   23.2713   46.4815 H   0  0  0  0  0  0  0  0  0  0  0  0
   53.1321   23.9948   44.9308 H   0  0  0  0  0  0  0  0  0  0  0  0
   54.4011   22.7234   44.9308 H   0  0  0  0  0  0  0  0  0  0  0  0
   54.7980   25.9050   45.9910 N   0  0  0  0  0  0  0  0  0  0  0  0
   55.8990   26.6480   46.0870 N   0  0  0  0  0  0  0  0  0  0  0  0
   55.8720   27.6490   46.3810 H   0  0  0  0  0  0  0  0  0  0  0  0
   56.7000   24.3720   45.3780 S   0  0  0  0  0  0  0  0  0  0  0  0
   56.6180   30.4490   43.1290 C   0  0  0  0  0  0  0  0  0  0  0  0
   56.6097   30.9703   42.1604 H   0  0  0  0  0  0  0  0  0  0  0  0
  1  2  1  0
  2  3  1  0
  3  4  1  0
  4  5  2  0
  5  6  1  0
  6  7  2  0
  6  8  1  0
  8  9  2  0
  9 10  1  0
 10 11  1  0
 11 12  1  0
 12 13  1  0
 12 14  1  0
 12 15  1  0
 11 16  2  0
 16 17  1  0
 17 18  1  0
  4 19  1  0
 19 20  1  0
 20 21  1  0
 20  2  2  0
 17  9  1  0
M  CHG  1   3  -1
M  END
>  <UniqueID>  (48) 
44

>  <SMILES>  (48) 
Cc1n[nH]/c(=N/C(=O)/N=c2\[n-]ccs2)s1

>  <Energy>  (48) 
92.90468146761548

>  <Genealogy>  (48) 
Cc1n[nH]c(=NC(=O)N=c2[n-]ccs2)s1 (protonated)
Cc1n[nH]/c(=N/C(=O)/N=c2\[n-]ccs2)s1 (cis-trans isomerization)
Cc1n[nH]/c(=N/C(=O)/N=c2\[n-]ccs2)s1 (3D coordinates assigned)
Cc1n[nH]/c(=N/C(=O)/N=c2\[n-]ccs2)s1 (optimized conformer: 92.90468146761548 kcal/mol)

>  <smiles>  (48) 
Cc1n[nH]c(=NC(=O)N=c2[nH]ccs2)s1

>  <score_type>  (48) 
oracle

>  <origin>  (48) 
adg

>  <m_score__min__energy>  (48) 
-7.9500000000000002

>  <m_primary>  (48) 
energy

$$$$
48:0
     RDKit          3D

 48 51  0  0  0  0  0  0  0  0999 V2000
   58.7320   35.3130   51.5120 H   0  0  0  0  0  0  0  0  0  0  0  0
   58.5360   34.5050   52.0520 O   0  0  0  0  0  0  0  0  0  0  0  0
   59.3180   33.4780   51.5030 C   0  0  1  0  0  0  0  0  0  0  0  0
   59.9336   33.1706   52.3612 H   0  0  0  0  0  0  0  0  0  0  0  0
   58.4700   32.4480   50.7540 C   0  0  0  0  0  0  0  0  0  0  0  0
   57.3869   32.6337   50.8031 H   0  0  0  0  0  0  0  0  0  0  0  0
   58.4733   31.3906   51.0571 H   0  0  0  0  0  0  0  0  0  0  0  0
   59.1210   32.8850   49.4460 C   0  0  2  0  0  0  0  0  0  0  0  0
   58.4989   33.2049   48.5971 H   0  0  0  0  0  0  0  0  0  0  0  0
   59.8830   31.8240   48.7560 N   0  0  0  0  0  0  0  0  0  0  0  0
   59.4470   30.5470   48.7020 C   0  0  0  0  0  0  0  0  0  0  0  0
   58.5104   30.1844   49.1506 H   0  0  0  0  0  0  0  0  0  0  0  0
   60.3430   29.7600   48.0040 C   0  0  0  0  0  0  0  0  0  0  0  0
   60.2110   28.3260   47.6760 C   0  0  0  0  0  0  0  0  0  0  0  0
   60.9750   27.5010   48.2450 O   0  0  0  0  0  0  0  0  0  0  0  0
   59.2190   27.8280   46.6950 C   0  0  0  0  0  0  0  0  0  0  0  0
   59.4580   26.6600   45.9590 C   0  0  0  0  0  0  0  0  0  0  0  0
   60.3770   26.0793   46.1267 H   0  0  0  0  0  0  0  0  0  0  0  0
   58.5260   26.2380   45.0140 C   0  0  0  0  0  0  0  0  0  0  0  0
   58.7108   25.3211   44.4351 H   0  0  0  0  0  0  0  0  0  0  0  0
   57.3890   26.9530   44.8030 N   0  0  0  0  0  0  0  0  0  0  0  0
   56.7120   26.6070   44.0850 H   0  0  0  0  0  0  0  0  0  0  0  0
   57.1100   28.0930   45.4990 C   0  0  0  0  0  0  0  0  0  0  0  0
   55.9990   28.7260   45.2310 N   0  0  0  0  0  0  0  0  0  0  0  0
   55.7240   29.6810   44.1900 C   0  0  0  0  0  0  0  0  0  0  0  0
   54.7750   29.5030   43.3820 O   0  0  0  0  0  0  0  0  0  0  0  0
   56.6190   30.8320   44.0040 C   0  0  0  0  0  0  0  0  0  0  0  0
   56.9920   31.6240   45.0460 N   0  0  0  0  0  0  0  0  0  0  0  0
   57.8110   32.6250   44.6560 C   0  0  0  0  0  0  0  0  0  0  0  0
   58.4340   33.6000   45.6020 C   0  0  0  0  0  0  0  0  0  0  0  0
   57.7480   33.5770   46.8010 F   0  0  0  0  0  0  0  0  0  0  0  0
   59.7560   33.2620   45.8250 F   0  0  0  0  0  0  0  0  0  0  0  0
   58.3800   34.8760   45.0700 F   0  0  0  0  0  0  0  0  0  0  0  0
   58.1360   32.5400   43.0090 S   0  0  0  0  0  0  0  0  0  0  0  0
   57.1630   31.1900   42.7700 C   0  0  0  0  0  0  0  0  0  0  0  0
   56.9866   30.6798   41.8116 H   0  0  0  0  0  0  0  0  0  0  0  0
   58.0460   28.5590   46.4480 C   0  0  0  0  0  0  0  0  0  0  0  0
   57.8561   29.4949   46.9939 H   0  0  0  0  0  0  0  0  0  0  0  0
   61.3670   30.5890   47.5980 C   0  0  0  0  0  0  0  0  0  0  0  0
   62.2468   30.3045   47.0022 H   0  0  0  0  0  0  0  0  0  0  0  0
   61.0710   31.8490   48.0870 C   0  0  0  0  0  0  0  0  0  0  0  0
   61.9360   33.0470   47.8110 C   0  0  0  0  0  0  0  0  0  0  0  0
   62.2585   33.4936   48.7631 H   0  0  0  0  0  0  0  0  0  0  0  0
   62.8194   32.7363   47.2339 H   0  0  0  0  0  0  0  0  0  0  0  0
   61.3631   33.7878   47.2339 H   0  0  0  0  0  0  0  0  0  0  0  0
   59.9670   33.9120   50.1900 C   0  0  0  0  0  0  0  0  0  0  0  0
   59.7607   34.9551   49.9084 H   0  0  0  0  0  0  0  0  0  0  0  0
   61.0616   33.9209   50.0817 H   0  0  0  0  0  0  0  0  0  0  0  0
  1  2  1  0
  2  3  1  0
  3  4  1  1
  3  5  1  0
  5  6  1  0
  5  7  1  0
  5  8  1  0
  8  9  1  6
  8 10  1  0
 10 11  1  0
 11 12  1  0
 11 13  2  0
 13 14  1  0
 14 15  2  0
 14 16  1  0
 16 17  1  0
 17 18  1  0
 17 19  2  0
 19 20  1  0
 19 21  1  0
 21 22  1  0
 21 23  1  0
 23 24  2  0
 24 25  1  0
 25 26  2  0
 25 27  1  0
 27 28  1  0
 28 29  2  0
 29 30  1  0
 30 31  1  0
 30 32  1  0
 30 33  1  0
 29 34  1  0
 34 35  1  0
 35 36  1  0
 23 37  1  0
 37 38  1  0
 13 39  1  0
 39 40  1  0
 39 41  2  0
 41 42  1  0
 42 43  1  0
 42 44  1  0
 42 45  1  0
  8 46  1  0
 46 47  1  0
 46 48  1  0
 46  3  1  0
 41 10  1  0
 37 16  2  0
 35 27  2  0
M  END
>  <UniqueID>  (49) 
45

>  <SMILES>  (49) 
Cc1cc(C(=O)c2cc[nH]/c(=N/C(=O)c3csc(C(F)(F)F)n3)c2)cn1C1CC(O)C1

>  <Energy>  (49) 
181.43353189317762

>  <Genealogy>  (49) 
Cc1cc(C(=O)c2cc[nH]/c(=N/C(=O)c3csc(C(F)(F)F)n3)c2)cn1C1CC(O)C1 (cis-trans isomerization)
Cc1cc(C(=O)c2cc[nH]/c(=N/C(=O)c3csc(C(F)(F)F)n3)c2)cn1C1CC(O)C1 (3D coordinates assigned)
Cc1cc(C(=O)c2cc[nH]/c(=N/C(=O)c3csc(C(F)(F)F)n3)c2)cn1C1CC(O)C1 (nonaromatic ring conformer: 181.43353189317762 kcal/mol)

>  <smiles>  (49) 
Cc1cc(C(=O)c2cc[nH]c(=NC(=O)c3csc(C(F)(F)F)n3)c2)cn1C1CC(O)C1

>  <score_type>  (49) 
oracle

>  <origin>  (49) 
adg

>  <m_score__min__energy>  (49) 
-8.5999999999999996

>  <m_primary>  (49) 
energy

$$$$
49:0
     RDKit          3D

 31 33  0  0  1  0  0  0  0  0999 V2000
   56.5820   29.6930   43.1890 C   0  0  0  0  0  0  0  0  0  0  0  0
   57.1530   30.5720   44.2460 C   0  0  0  0  0  0  0  0  0  0  0  0
   56.6640   31.7050   44.7740 N   0  0  0  0  0  0  0  0  0  0  0  0
   57.4840   32.1830   45.6980 N   0  0  0  0  0  0  0  0  0  0  0  0
   58.5650   31.3870   45.8280 C   0  0  0  0  0  0  0  0  0  0  0  0
   59.7120   31.5630   46.7440 C   0  0  0  0  0  0  0  0  0  0  0  0
   58.3650   30.3530   44.9060 C   0  0  0  0  0  0  0  0  0  0  0  0
   59.3370   29.2980   44.7070 C   0  0  0  0  0  0  0  0  0  0  0  0
   59.4440   28.1990   45.4100 C   0  0  0  0  0  0  0  0  0  0  0  0
   60.6740   27.5930   45.9190 C   0  0  0  0  0  0  0  0  0  0  0  0
   60.3610   26.5100   46.5470 N   0  0  0  0  0  0  0  0  0  0  0  0
   58.9380   26.3020   46.5150 C   0  0  0  0  0  0  0  0  0  0  0  0
   58.1830   25.2790   47.0500 C   0  0  0  0  0  0  0  0  0  0  0  0
   56.8180   25.3260   46.8590 C   0  0  0  0  0  0  0  0  0  0  0  0
   56.2390   26.3630   46.1580 C   0  0  0  0  0  0  0  0  0  0  0  0
   54.8480   26.3640   45.9900 O   0  0  0  0  0  0  0  0  0  0  0  0
   57.0070   27.4000   45.6160 C   0  0  0  0  0  0  0  0  0  0  0  0
   58.3440   27.3390   45.8130 C   0  0  0  0  0  0  0  0  0  0  0  0
   56.0402   28.8589   43.6589 H   0  0  0  0  0  0  0  0  0  0  0  0
   55.8888   30.2745   42.5635 H   0  0  0  0  0  0  0  0  0  0  0  0
   57.3951   29.2960   42.5635 H   0  0  0  0  0  0  0  0  0  0  0  0
   57.3030   33.0550   46.2410 H   0  0  0  0  0  0  0  0  0  0  0  0
   59.3613   31.5092   47.7852 H   0  0  0  0  0  0  0  0  0  0  0  0
   60.4503   30.7676   46.5642 H   0  0  0  0  0  0  0  0  0  0  0  0
   60.1778   32.5431   46.5642 H   0  0  0  0  0  0  0  0  0  0  0  0
   60.0553   29.4334   43.8850 H   0  0  0  0  0  0  0  0  0  0  0  0
   61.6909   27.9918   45.7889 H   0  0  0  0  0  0  0  0  0  0  0  0
   58.6525   24.4558   47.6085 H   0  0  0  0  0  0  0  0  0  0  0  0
   56.1837   24.5271   47.2706 H   0  0  0  0  0  0  0  0  0  0  0  0
   54.2640   26.6540   46.7590 H   0  0  0  0  0  0  0  0  0  0  0  0
   56.5449   28.2262   45.0558 H   0  0  0  0  0  0  0  0  0  0  0  0
  1  2  1  0
  2  3  2  0
  3  4  1  0
  4  5  1  0
  5  6  1  0
  5  7  2  0
  7  8  1  0
  8  9  2  0
  9 10  1  0
 10 11  2  0
 11 12  1  0
 12 13  2  0
 13 14  1  0
 14 15  2  0
 15 16  1  0
 15 17  1  0
 17 18  2  0
  7  2  1  0
 18  9  1  0
 18 12  1  0
  1 19  1  0
  1 20  1  0
  1 21  1  0
  4 22  1  0
  6 23  1  0
  6 24  1  0
  6 25  1  0
  8 26  1  0
 10 27  1  0
 13 28  1  0
 14 29  1  0
 16 30  1  0
 17 31  1  0
M  END
>  <smiles>  (50) 
Cc1n[nH]c(C)c1C=C1C=Nc2ccc(O)cc21

>  <score_type>  (50) 
oracle

>  <origin>  (50) 
adg

>  <m_score__min__energy>  (50) 
-8.3300000000000001

>  <m_primary>  (50) 
energy

$$$$
50:0
     RDKit          3D

 43 45  0  0  0  0  0  0  0  0999 V2000
   60.5561   26.9392   44.8782 H   0  0  0  0  0  0  0  0  0  0  0  0
   59.9170   27.0470   45.7670 C   0  0  0  0  0  0  0  0  0  0  0  0
   60.4710   26.7670   46.9610 C   0  0  0  0  0  0  0  0  0  0  0  0
   61.3880   26.1594   46.9650 H   0  0  0  0  0  0  0  0  0  0  0  0
   59.9340   27.2200   48.2890 C   0  0  0  0  0  0  0  0  0  0  0  0
   60.7455   27.2187   49.0316 H   0  0  0  0  0  0  0  0  0  0  0  0
   59.1366   26.5350   48.6131 H   0  0  0  0  0  0  0  0  0  0  0  0
   59.4040   28.5400   48.1670 O   0  0  0  0  0  0  0  0  0  0  0  0
   60.1780   29.7100   48.1250 C   0  0  0  0  0  0  0  0  0  0  0  0
   60.6240   30.1640   46.8810 C   0  0  0  0  0  0  0  0  0  0  0  0
   60.2882   29.6583   45.9637 H   0  0  0  0  0  0  0  0  0  0  0  0
   61.4930   31.2550   46.7920 C   0  0  0  0  0  0  0  0  0  0  0  0
   61.8527   31.5874   45.8070 H   0  0  0  0  0  0  0  0  0  0  0  0
   61.9110   31.9310   47.9520 C   0  0  0  0  0  0  0  0  0  0  0  0
   62.8800   33.0500   47.8460 C   0  0  0  0  0  0  0  0  0  0  0  0
   62.5930   34.1720   48.3430 O   0  0  0  0  0  0  0  0  0  0  0  0
   64.1450   32.8870   47.1980 N   0  0  0  0  0  0  0  0  0  0  0  0
   64.7750   33.7090   47.0750 H   0  0  0  0  0  0  0  0  0  0  0  0
   64.5020   31.9480   46.9170 H   0  0  0  0  0  0  0  0  0  0  0  0
   61.4260   31.4990   49.2000 C   0  0  0  0  0  0  0  0  0  0  0  0
   61.7312   32.0263   50.1159 H   0  0  0  0  0  0  0  0  0  0  0  0
   60.5600   30.4060   49.2860 C   0  0  0  0  0  0  0  0  0  0  0  0
   60.1751   30.0883   50.2663 H   0  0  0  0  0  0  0  0  0  0  0  0
   58.5170   27.4890   45.5470 C   0  0  0  0  0  0  0  0  0  0  0  0
   58.2390   28.7290   45.0660 N   0  0  0  0  0  0  0  0  0  0  0  0
   56.9680   29.1840   44.9430 C   0  0  0  0  0  0  0  0  0  0  0  0
   56.7750   30.4020   44.5290 N   0  0  0  0  0  0  0  0  0  0  0  0
   57.4200   31.5980   44.9980 C   0  0  0  0  0  0  0  0  0  0  0  0
   57.8390   31.7440   46.3340 C   0  0  0  0  0  0  0  0  0  0  0  0
   57.6183   30.9545   47.0675 H   0  0  0  0  0  0  0  0  0  0  0  0
   58.5350   32.8900   46.7310 C   0  0  0  0  0  0  0  0  0  0  0  0
   58.8437   33.0086   47.7801 H   0  0  0  0  0  0  0  0  0  0  0  0
   58.8390   33.8840   45.7990 C   0  0  0  0  0  0  0  0  0  0  0  0
   59.3798   34.7881   46.1155 H   0  0  0  0  0  0  0  0  0  0  0  0
   58.4560   33.7300   44.4640 C   0  0  0  0  0  0  0  0  0  0  0  0
   58.7030   34.5090   43.7277 H   0  0  0  0  0  0  0  0  0  0  0  0
   57.7590   32.5860   44.0640 C   0  0  0  0  0  0  0  0  0  0  0  0
   57.4748   32.4606   43.0088 H   0  0  0  0  0  0  0  0  0  0  0  0
   55.9300   28.3630   45.2580 N   0  0  0  0  0  0  0  0  0  0  0  0
   56.1500   27.0980   45.7040 C   0  0  0  0  0  0  0  0  0  0  0  0
   55.1730   26.3550   45.9830 O   0  0  0  0  0  0  0  0  0  0  0  0
   57.4560   26.6310   45.8590 C   0  0  0  0  0  0  0  0  0  0  0  0
   57.6477   25.6094   46.2190 H   0  0  0  0  0  0  0  0  0  0  0  0
  1  2  1  0
  2  3  2  3
  3  4  1  0
  3  5  1  0
  5  6  1  0
  5  7  1  0
  5  8  1  0
  8  9  1  0
  9 10  2  0
 10 11  1  0
 10 12  1  0
 12 13  1  0
 12 14  2  0
 14 15  1  0
 15 16  2  0
 15 17  1  0
 17 18  1  0
 17 19  1  0
 14 20  1  0
 20 21  1  0
 20 22  2  0
 22 23  1  0
  2 24  1  0
 24 25  1  0
 25 26  1  0
 26 27  2  0
 27 28  1  0
 28 29  2  0
 29 30  1  0
 29 31  1  0
 31 32  1  0
 31 33  2  0
 33 34  1  0
 33 35  1  0
 35 36  1  0
 35 37  2  0
 37 38  1  0
 26 39  1  0
 39 40  1  0
 40 41  2  0
 40 42  1  0
 42 43  1  0
 22  9  1  0
 42 24  2  0
 37 28  1  0
M  CHG  2  25  -1  39  -1
M  END
>  <UniqueID>  (51) 
46

>  <SMILES>  (51) 
NC(=O)c1ccc(OCC=Cc2cc(=O)[n-]/c(=N\c3ccccc3)[n-]2)cc1

>  <Energy>  (51) 
53.06095678804013

>  <Genealogy>  (51) 
NC(=O)c1ccc(OCC=Cc2cc(=O)[n-]c(=Nc3ccccc3)[n-]2)cc1 (protonated)
NC(=O)c1ccc(OCC=Cc2cc(=O)[n-]/c(=N\c3ccccc3)[n-]2)cc1 (cis-trans isomerization)
NC(=O)c1ccc(OCC=Cc2cc(=O)[n-]/c(=N\c3ccccc3)[n-]2)cc1 (3D coordinates assigned)
NC(=O)c1ccc(OCC=Cc2cc(=O)[n-]/c(=N\c3ccccc3)[n-]2)cc1 (optimized conformer: 53.06095678804013 kcal/mol)

>  <smiles>  (51) 
NC(=O)c1ccc(OCC=Cc2cc(=O)[nH]c(=Nc3ccccc3)[nH]2)cc1

>  <score_type>  (51) 
oracle

>  <origin>  (51) 
adg

>  <m_score__min__energy>  (51) 
-11.699999999999999

>  <m_primary>  (51) 
energy

$$$$
51:0
     RDKit          3D

 41 43  0  0  0  0  0  0  0  0999 V2000
   59.1600   34.3710   45.1770 O   0  0  0  0  0  0  0  0  0  0  0  0
   58.7580   33.1900   45.3520 C   0  0  0  0  0  0  0  0  0  0  0  0
   58.3460   32.3690   44.1670 C   0  0  0  0  0  0  0  0  0  0  0  0
   58.1670   30.9640   44.5630 N   0  0  0  0  0  0  0  0  0  0  0  0
   59.2670   30.2000   44.8230 C   0  0  0  0  0  0  0  0  0  0  0  0
   59.1230   28.9130   45.2230 N   0  0  0  0  0  0  0  0  0  0  0  0
   57.9210   28.3560   45.3830 N   0  0  0  0  0  0  0  0  0  0  0  0
   57.8590   26.9830   45.8130 C   0  0  0  0  0  0  0  0  0  0  0  0
   57.8620   26.6520   47.1820 C   0  0  0  0  0  0  0  0  0  0  0  0
   57.8250   25.3140   47.5860 C   0  0  0  0  0  0  0  0  0  0  0  0
   57.7940   24.2950   46.6310 C   0  0  0  0  0  0  0  0  0  0  0  0
   57.7560   22.9650   47.0340 O   0  0  0  0  0  0  0  0  0  0  0  0
   57.8080   24.6120   45.2690 C   0  0  0  0  0  0  0  0  0  0  0  0
   57.8460   25.9490   44.8620 C   0  0  0  0  0  0  0  0  0  0  0  0
   56.7930   29.0860   45.1240 C   0  0  0  0  0  0  0  0  0  0  0  0
   55.6460   28.5680   45.2270 O   0  0  0  0  0  0  0  0  0  0  0  0
   56.9210   30.4190   44.7180 C   0  0  0  0  0  0  0  0  0  0  0  0
   55.8860   31.1050   44.4920 O   0  0  0  0  0  0  0  0  0  0  0  0
   58.7410   32.6180   46.6680 N   0  0  0  0  0  0  0  0  0  0  0  0
   59.1400   33.3710   47.8550 C   0  0  0  0  0  0  0  0  0  0  0  0
   60.6400   33.4420   47.9460 C   0  0  0  0  0  0  0  0  0  0  0  0
   61.2600   34.2010   48.9520 C   0  0  0  0  0  0  0  0  0  0  0  0
   62.6550   34.2450   49.0430 C   0  0  0  0  0  0  0  0  0  0  0  0
   63.4380   33.5300   48.1330 C   0  0  0  0  0  0  0  0  0  0  0  0
   62.8280   32.7680   47.1320 C   0  0  0  0  0  0  0  0  0  0  0  0
   61.4340   32.7220   47.0380 C   0  0  0  0  0  0  0  0  0  0  0  0
   57.3980   32.7578   43.7669 H   0  0  0  0  0  0  0  0  0  0  0  0
   59.1297   32.4290   43.3975 H   0  0  0  0  0  0  0  0  0  0  0  0
   60.2731   30.6295   44.7077 H   0  0  0  0  0  0  0  0  0  0  0  0
   57.8936   27.4507   47.9377 H   0  0  0  0  0  0  0  0  0  0  0  0
   57.8203   25.0635   48.6571 H   0  0  0  0  0  0  0  0  0  0  0  0
   57.7891   23.8090   44.5175 H   0  0  0  0  0  0  0  0  0  0  0  0
   57.8659   26.1931   43.7896 H   0  0  0  0  0  0  0  0  0  0  0  0
   58.4390   31.6240   46.7890 H   0  0  0  0  0  0  0  0  0  0  0  0
   58.7312   34.3903   47.7930 H   0  0  0  0  0  0  0  0  0  0  0  0
   58.7500   32.8635   48.7496 H   0  0  0  0  0  0  0  0  0  0  0  0
   60.6461   34.7631   49.6712 H   0  0  0  0  0  0  0  0  0  0  0  0
   63.1359   34.8427   49.8313 H   0  0  0  0  0  0  0  0  0  0  0  0
   64.5351   33.5667   48.2042 H   0  0  0  0  0  0  0  0  0  0  0  0
   63.4457   32.2040   46.4176 H   0  0  0  0  0  0  0  0  0  0  0  0
   60.9573   32.1200   46.2504 H   0  0  0  0  0  0  0  0  0  0  0  0
  1  2  2  0
  2  3  1  0
  3  4  1  0
  4  5  1  0
  5  6  2  0
  6  7  1  0
  7  8  1  0
  8  9  2  0
  9 10  1  0
 10 11  2  0
 11 12  1  0
 11 13  1  0
 13 14  2  0
  7 15  1  0
 15 16  2  0
 15 17  1  0
 17 18  2  0
  2 19  1  0
 19 20  1  0
 20 21  1  0
 21 22  2  0
 22 23  1  0
 23 24  2  0
 24 25  1  0
 25 26  2  0
 17  4  1  0
 26 21  1  0
 14  8  1  0
  3 27  1  0
  3 28  1  0
  5 29  1  0
  9 30  1  0
 10 31  1  0
 13 32  1  0
 14 33  1  0
 19 34  1  0
 20 35  1  0
 20 36  1  0
 22 37  1  0
 23 38  1  0
 24 39  1  0
 25 40  1  0
 26 41  1  0
M  CHG  1  12  -1
M  END
>  <UniqueID>  (52) 
47

>  <SMILES>  (52) 
O=C(Cn1cnn(-c2ccc([O-])cc2)c(=O)c1=O)NCc1ccccc1

>  <Energy>  (52) 
50.52504427076318

>  <Genealogy>  (52) 
O=C(Cn1cnn(-c2ccc([O-])cc2)c(=O)c1=O)NCc1ccccc1 (protonated)
O=C(Cn1cnn(-c2ccc([O-])cc2)c(=O)c1=O)NCc1ccccc1 (3D coordinates assigned)
O=C(Cn1cnn(-c2ccc([O-])cc2)c(=O)c1=O)NCc1ccccc1 (optimized conformer: 50.52504427076318 kcal/mol)

>  <smiles>  (52) 
O=C(Cn1cnn(-c2ccc(O)cc2)c(=O)c1=O)NCc1ccccc1

>  <score_type>  (52) 
oracle

>  <origin>  (52) 
adg

>  <m_score__min__energy>  (52) 
-9.8599999999999994

>  <m_primary>  (52) 
energy

$$$$
52:0
     RDKit          3D

 48 51  0  0  0  0  0  0  0  0999 V2000
   57.5510   32.3340   42.6820 O   0  0  0  0  0  0  0  0  0  0  0  0
   57.3460   32.1650   43.9130 C   0  0  0  0  0  0  0  0  0  0  0  0
   57.5210   33.2750   44.8020 N   0  0  0  0  0  0  0  0  0  0  0  0
   58.6370   33.4840   45.6780 C   0  0  0  0  0  0  0  0  0  0  0  0
   59.0850   34.7760   46.0050 C   0  0  0  0  0  0  0  0  0  0  0  0
   60.1860   34.9450   46.8460 C   0  0  0  0  0  0  0  0  0  0  0  0
   60.8570   33.8320   47.3570 C   0  0  0  0  0  0  0  0  0  0  0  0
   60.4300   32.5400   47.0250 C   0  0  0  0  0  0  0  0  0  0  0  0
   61.3030   31.1460   47.6560 S   0  0  0  0  0  0  0  0  0  0  0  0
   62.7800   31.4290   47.6620 O   0  0  0  0  0  0  0  0  0  0  0  0
   61.0440   29.9730   46.7500 O   0  0  0  0  0  0  0  0  0  0  0  0
   60.7350   30.7980   49.2750 N   0  0  0  0  0  0  0  0  0  0  0  0
   61.5020   29.7010   49.9060 C   0  0  0  0  0  0  0  0  0  0  0  0
   60.7720   28.3480   49.8360 C   0  0  0  0  0  0  0  0  0  0  0  0
   60.0030   28.2670   48.6570 O   0  0  0  0  0  0  0  0  0  0  0  0
   58.9110   29.1670   48.7220 C   0  0  0  0  0  0  0  0  0  0  0  0
   59.2830   30.5530   49.3020 C   0  0  0  0  0  0  0  0  0  0  0  0
   59.3280   32.3710   46.1740 C   0  0  0  0  0  0  0  0  0  0  0  0
   56.9930   30.8190   44.4020 C   0  0  0  0  0  0  0  0  0  0  0  0
   57.8670   29.8360   44.8220 C   0  0  0  0  0  0  0  0  0  0  0  0
   57.0450   28.7740   45.1400 C   0  0  0  0  0  0  0  0  0  0  0  0
   57.4640   27.4860   45.7310 C   0  0  0  0  0  0  0  0  0  0  0  0
   58.8240   27.3010   46.0350 C   0  0  0  0  0  0  0  0  0  0  0  0
   59.2830   26.0750   46.5220 C   0  0  0  0  0  0  0  0  0  0  0  0
   58.3900   25.0210   46.7170 C   0  0  0  0  0  0  0  0  0  0  0  0
   57.0330   25.1960   46.4430 C   0  0  0  0  0  0  0  0  0  0  0  0
   56.5540   26.4260   45.9740 C   0  0  0  0  0  0  0  0  0  0  0  0
   55.1760   26.5680   45.8000 O   0  0  0  0  0  0  0  0  0  0  0  0
   55.7600   29.1200   44.9340 N   0  0  0  0  0  0  0  0  0  0  0  0
   55.7290   30.3600   44.4690 N   0  0  0  0  0  0  0  0  0  0  0  0
   58.5663   35.6560   45.5969 H   0  0  0  0  0  0  0  0  0  0  0  0
   60.5262   35.9580   47.1071 H   0  0  0  0  0  0  0  0  0  0  0  0
   61.7226   33.9702   48.0216 H   0  0  0  0  0  0  0  0  0  0  0  0
   62.4690   29.6060   49.3904 H   0  0  0  0  0  0  0  0  0  0  0  0
   61.6303   29.9543   50.9687 H   0  0  0  0  0  0  0  0  0  0  0  0
   61.5131   27.5351   49.8424 H   0  0  0  0  0  0  0  0  0  0  0  0
   60.1044   28.2563   50.7055 H   0  0  0  0  0  0  0  0  0  0  0  0
   58.5175   29.3101   47.7048 H   0  0  0  0  0  0  0  0  0  0  0  0
   58.1674   28.7230   49.4001 H   0  0  0  0  0  0  0  0  0  0  0  0
   58.7817   31.3313   48.7080 H   0  0  0  0  0  0  0  0  0  0  0  0
   58.9568   30.5772   50.3522 H   0  0  0  0  0  0  0  0  0  0  0  0
   59.0042   31.3577   45.8942 H   0  0  0  0  0  0  0  0  0  0  0  0
   58.9638   29.8874   44.8878 H   0  0  0  0  0  0  0  0  0  0  0  0
   59.5330   28.1291   45.8880 H   0  0  0  0  0  0  0  0  0  0  0  0
   60.3502   25.9403   46.7521 H   0  0  0  0  0  0  0  0  0  0  0  0
   58.7557   24.0517   47.0868 H   0  0  0  0  0  0  0  0  0  0  0  0
   56.3335   24.3611   46.5966 H   0  0  0  0  0  0  0  0  0  0  0  0
   54.7660   27.0990   45.0440 H   0  0  0  0  0  0  0  0  0  0  0  0
  1  2  2  0
  2  3  1  0
  3  4  1  0
  4  5  2  0
  5  6  1  0
  6  7  2  0
  7  8  1  0
  8  9  1  0
  9 10  2  0
  9 11  2  0
  9 12  1  0
 12 13  1  0
 13 14  1  0
 14 15  1  0
 15 16  1  0
 16 17  1  0
  8 18  2  0
  2 19  1  0
 19 20  1  0
 20 21  2  0
 21 22  1  0
 22 23  2  0
 23 24  1  0
 24 25  2  0
 25 26  1  0
 26 27  2  0
 27 28  1  0
 21 29  1  0
 29 30  1  0
 18  4  1  0
 30 19  2  0
 17 12  1  0
 27 22  1  0
  5 31  1  0
  6 32  1  0
  7 33  1  0
 13 34  1  0
 13 35  1  0
 14 36  1  0
 14 37  1  0
 16 38  1  0
 16 39  1  0
 17 40  1  0
 17 41  1  0
 18 42  1  0
 20 43  1  0
 23 44  1  0
 24 45  1  0
 25 46  1  0
 26 47  1  0
 28 48  1  0
M  CHG  2   3  -1  29  -1
M  END
>  <UniqueID>  (53) 
48

>  <SMILES>  (53) 
O=C([N-]c1cccc(S(=O)(=O)N2CCOCC2)c1)c1cc(-c2ccccc2O)[n-]n1

>  <Energy>  (53) 
102.93073474033189

>  <Genealogy>  (53) 
O=C([N-]c1cccc(S(=O)(=O)N2CCOCC2)c1)c1cc(-c2ccccc2O)[n-]n1 (protonated)
O=C([N-]c1cccc(S(=O)(=O)N2CCOCC2)c1)c1cc(-c2ccccc2O)[n-]n1 (3D coordinates assigned)
O=C([N-]c1cccc(S(=O)(=O)N2CCOCC2)c1)c1cc(-c2ccccc2O)[n-]n1 (nonaromatic ring conformer: 102.93073474033189 kcal/mol)

>  <smiles>  (53) 
O=C(Nc1cccc(S(=O)(=O)N2CCOCC2)c1)c1cc(-c2ccccc2O)[nH]n1

>  <score_type>  (53) 
oracle

>  <origin>  (53) 
adg

>  <m_score__min__energy>  (53) 
-14.539999999999999

>  <m_primary>  (53) 
energy

$$$$
53:0
     RDKit          3D

 56 59  0  0  0  0  0  0  0  0999 V2000
   55.1680   29.0100   44.5660 O   0  0  0  0  0  0  0  0  0  0  0  0
   56.2330   29.6010   44.8840 C   0  0  0  0  0  0  0  0  0  0  0  0
   56.4250   30.9630   44.4910 N   0  0  0  0  0  0  0  0  0  0  0  0
   57.3930   31.8360   45.0890 C   0  0  0  0  0  0  0  0  0  0  0  0
   58.6510   31.3610   45.4950 C   0  0  0  0  0  0  0  0  0  0  0  0
   59.5600   32.2170   46.1180 C   0  0  0  0  0  0  0  0  0  0  0  0
   59.2300   33.5630   46.3450 C   0  0  0  0  0  0  0  0  0  0  0  0
   60.1840   34.4730   47.0200 C   0  0  0  0  0  0  0  0  0  0  0  0
   59.8840   35.6930   47.1400 O   0  0  0  0  0  0  0  0  0  0  0  0
   61.4810   33.9980   47.5600 C   0  0  0  0  0  0  0  0  0  0  0  0
   61.7100   33.9280   48.9460 C   0  0  0  0  0  0  0  0  0  0  0  0
   62.9410   33.4850   49.4400 C   0  0  0  0  0  0  0  0  0  0  0  0
   63.9590   33.1230   48.5550 C   0  0  0  0  0  0  0  0  0  0  0  0
   63.7500   33.2050   47.1770 C   0  0  0  0  0  0  0  0  0  0  0  0
   62.5170   33.6420   46.6800 C   0  0  0  0  0  0  0  0  0  0  0  0
   57.9950   34.0500   45.8820 C   0  0  0  0  0  0  0  0  0  0  0  0
   57.0870   33.1920   45.2520 C   0  0  0  0  0  0  0  0  0  0  0  0
   57.2130   28.9540   45.7050 N   0  0  0  0  0  0  0  0  0  0  0  0
   57.5240   27.5580   45.7720 C   0  0  0  0  0  0  0  0  0  0  0  0
   58.8340   27.0860   45.9800 C   0  0  0  0  0  0  0  0  0  0  0  0
   59.0670   25.7160   46.1300 C   0  0  0  0  0  0  0  0  0  0  0  0
   58.0010   24.8140   46.1060 C   0  0  0  0  0  0  0  0  0  0  0  0
   56.6900   25.2770   45.9210 C   0  0  0  0  0  0  0  0  0  0  0  0
   55.3270   24.1600   45.9890 S   0  0  0  0  0  0  0  0  0  0  0  0
   54.0560   24.9010   45.6800 O   0  0  0  0  0  0  0  0  0  0  0  0
   55.2120   23.6030   47.3800 O   0  0  0  0  0  0  0  0  0  0  0  0
   55.5190   22.8490   44.8470 N   0  0  0  0  0  0  0  0  0  0  0  0
   56.0850   23.3520   43.5780 C   0  0  0  0  0  0  0  0  0  0  0  0
   56.6180   22.2050   42.7160 C   0  0  0  0  0  0  0  0  0  0  0  0
   57.7720   21.4710   43.4240 C   0  0  0  0  0  0  0  0  0  0  0  0
   57.7010   21.5830   44.9570 C   0  0  0  0  0  0  0  0  0  0  0  0
   56.2470   21.6980   45.4410 C   0  0  0  0  0  0  0  0  0  0  0  0
   56.4630   26.6450   45.7370 C   0  0  0  0  0  0  0  0  0  0  0  0
   58.9210   30.3089   45.3210 H   0  0  0  0  0  0  0  0  0  0  0  0
   60.5420   31.8348   46.4335 H   0  0  0  0  0  0  0  0  0  0  0  0
   60.9151   34.2238   49.6464 H   0  0  0  0  0  0  0  0  0  0  0  0
   63.1075   33.4217   50.5255 H   0  0  0  0  0  0  0  0  0  0  0  0
   64.9265   32.7729   48.9441 H   0  0  0  0  0  0  0  0  0  0  0  0
   64.5552   32.9259   46.4814 H   0  0  0  0  0  0  0  0  0  0  0  0
   62.3578   33.7072   45.5935 H   0  0  0  0  0  0  0  0  0  0  0  0
   57.7411   35.1119   46.0159 H   0  0  0  0  0  0  0  0  0  0  0  0
   56.1281   33.5850   44.8831 H   0  0  0  0  0  0  0  0  0  0  0  0
   59.6738   27.7951   46.0244 H   0  0  0  0  0  0  0  0  0  0  0  0
   60.0940   25.3468   46.2675 H   0  0  0  0  0  0  0  0  0  0  0  0
   58.1900   23.7378   46.2325 H   0  0  0  0  0  0  0  0  0  0  0  0
   55.2999   23.8844   43.0211 H   0  0  0  0  0  0  0  0  0  0  0  0
   56.9203   24.0280   43.8131 H   0  0  0  0  0  0  0  0  0  0  0  0
   55.8031   21.4918   42.5228 H   0  0  0  0  0  0  0  0  0  0  0  0
   56.9965   22.6236   41.7718 H   0  0  0  0  0  0  0  0  0  0  0  0
   57.7334   20.4070   43.1475 H   0  0  0  0  0  0  0  0  0  0  0  0
   58.7114   21.9436   43.1014 H   0  0  0  0  0  0  0  0  0  0  0  0
   58.1576   20.6873   45.4034 H   0  0  0  0  0  0  0  0  0  0  0  0
   58.2424   22.4898   45.2646 H   0  0  0  0  0  0  0  0  0  0  0  0
   55.7156   20.7729   45.1730 H   0  0  0  0  0  0  0  0  0  0  0  0
   56.2775   21.8582   46.5288 H   0  0  0  0  0  0  0  0  0  0  0  0
   55.4392   27.0076   45.5628 H   0  0  0  0  0  0  0  0  0  0  0  0
  1  2  2  0
  2  3  1  0
  3  4  1  0
  4  5  2  0
  5  6  1  0
  6  7  2  0
  7  8  1  0
  8  9  2  0
  8 10  1  0
 10 11  2  0
 11 12  1  0
 12 13  2  0
 13 14  1  0
 14 15  2  0
  7 16  1  0
 16 17  2  0
  2 18  1  0
 18 19  1  0
 19 20  2  0
 20 21  1  0
 21 22  2  0
 22 23  1  0
 23 24  1  0
 24 25  2  0
 24 26  2  0
 24 27  1  0
 27 28  1  0
 28 29  1  0
 29 30  1  0
 30 31  1  0
 31 32  1  0
 23 33  2  0
 17  4  1  0
 33 19  1  0
 15 10  1  0
 32 27  1  0
  5 34  1  0
  6 35  1  0
 11 36  1  0
 12 37  1  0
 13 38  1  0
 14 39  1  0
 15 40  1  0
 16 41  1  0
 17 42  1  0
 20 43  1  0
 21 44  1  0
 22 45  1  0
 28 46  1  0
 28 47  1  0
 29 48  1  0
 29 49  1  0
 30 50  1  0
 30 51  1  0
 31 52  1  0
 31 53  1  0
 32 54  1  0
 32 55  1  0
 33 56  1  0
M  CHG  2   3  -1  18  -1
M  END
>  <UniqueID>  (54) 
49

>  <SMILES>  (54) 
O=C([N-]c1ccc(C(=O)c2ccccc2)cc1)[N-]c1cccc(S(=O)(=O)N2CCCCC2)c1

>  <Energy>  (54) 
75.92692211264641

>  <Genealogy>  (54) 
O=C([N-]c1ccc(C(=O)c2ccccc2)cc1)[N-]c1cccc(S(=O)(=O)N2CCCCC2)c1 (protonated)
O=C([N-]c1ccc(C(=O)c2ccccc2)cc1)[N-]c1cccc(S(=O)(=O)N2CCCCC2)c1 (3D coordinates assigned)
O=C([N-]c1ccc(C(=O)c2ccccc2)cc1)[N-]c1cccc(S(=O)(=O)N2CCCCC2)c1 (nonaromatic ring conformer: 75.92692211264641 kcal/mol)

>  <smiles>  (54) 
O=C(Nc1ccc(C(=O)c2ccccc2)cc1)Nc1cccc(S(=O)(=O)N2CCCCC2)c1

>  <score_type>  (54) 
oracle

>  <origin>  (54) 
adg

>  <m_score__min__energy>  (54) 
-14.279999999999999

>  <m_primary>  (54) 
energy

$$$$
54:0
     RDKit          3D

 35 37  0  0  0  0  0  0  0  0999 V2000
   66.3370   32.6290   50.3850 C   0  0  0  0  0  0  0  0  0  0  0  0
   65.4500   33.0630   49.3570 O   0  0  0  0  0  0  0  0  0  0  0  0
   64.1130   32.6540   49.2350 C   0  0  0  0  0  0  0  0  0  0  0  0
   63.6740   31.5990   50.0340 C   0  0  0  0  0  0  0  0  0  0  0  0
   62.3560   31.1550   49.9640 C   0  0  0  0  0  0  0  0  0  0  0  0
   61.4480   31.7660   49.0890 C   0  0  0  0  0  0  0  0  0  0  0  0
   60.1220   31.3190   49.0420 C   0  0  0  0  0  0  0  0  0  0  0  0
   59.2000   31.9390   48.2050 C   0  0  0  0  0  0  0  0  0  0  0  0
   59.5880   33.0140   47.3980 C   0  0  0  0  0  0  0  0  0  0  0  0
   58.6240   33.6840   46.5770 N   0  0  0  0  0  0  0  0  0  0  0  0
   58.6450   33.7150   45.1440 C   0  0  0  0  0  0  0  0  0  0  0  0
   59.6450   34.2140   44.5630 O   0  0  0  0  0  0  0  0  0  0  0  0
   57.4900   33.2160   44.3160 C   0  0  0  0  0  0  0  0  0  0  0  0
   57.3230   31.7340   44.4450 C   0  0  0  0  0  0  0  0  0  0  0  0
   56.1350   31.1380   44.6890 N   0  0  0  0  0  0  0  0  0  0  0  0
   56.2440   29.7840   44.6830 C   0  0  0  0  0  0  0  0  0  0  0  0
   55.1460   28.9620   44.9020 O   0  0  0  0  0  0  0  0  0  0  0  0
   57.5140   29.2830   44.4370 C   0  0  0  0  0  0  0  0  0  0  0  0
   58.5430   30.5960   44.2120 S   0  0  0  0  0  0  0  0  0  0  0  0
   60.9240   33.4520   47.3900 C   0  0  0  0  0  0  0  0  0  0  0  0
   61.2490   34.5040   46.5280 O   0  0  0  0  0  0  0  0  0  0  0  0
   61.8700   32.8390   48.2570 C   0  0  0  0  0  0  0  0  0  0  0  0
   63.2120   33.2700   48.3450 C   0  0  0  0  0  0  0  0  0  0  0  0
   65.8933   32.8461   51.3679 H   0  0  0  0  0  0  0  0  0  0  0  0
   66.5063   31.5463   50.2902 H   0  0  0  0  0  0  0  0  0  0  0  0
   67.2958   33.1598   50.2902 H   0  0  0  0  0  0  0  0  0  0  0  0
   64.3762   31.1123   50.7269 H   0  0  0  0  0  0  0  0  0  0  0  0
   62.0258   30.3199   50.5992 H   0  0  0  0  0  0  0  0  0  0  0  0
   59.8075   30.4728   49.6705 H   0  0  0  0  0  0  0  0  0  0  0  0
   58.1599   31.5820   48.1775 H   0  0  0  0  0  0  0  0  0  0  0  0
   56.5675   33.7105   44.6544 H   0  0  0  0  0  0  0  0  0  0  0  0
   57.6950   33.4499   43.2609 H   0  0  0  0  0  0  0  0  0  0  0  0
   57.7971   28.2208   44.3964 H   0  0  0  0  0  0  0  0  0  0  0  0
   60.6270   34.9030   45.8400 H   0  0  0  0  0  0  0  0  0  0  0  0
   63.5584   34.0984   47.7095 H   0  0  0  0  0  0  0  0  0  0  0  0
  1  2  1  0
  2  3  1  0
  3  4  2  0
  4  5  1  0
  5  6  2  0
  6  7  1  0
  7  8  2  0
  8  9  1  0
  9 10  1  0
 10 11  1  0
 11 12  2  0
 11 13  1  0
 13 14  1  0
 14 15  2  0
 15 16  1  0
 16 17  1  0
 16 18  2  0
 18 19  1  0
  9 20  2  0
 20 21  1  0
 20 22  1  0
 22 23  2  0
 23  3  1  0
 22  6  1  0
 19 14  1  0
  1 24  1  0
  1 25  1  0
  1 26  1  0
  4 27  1  0
  5 28  1  0
  7 29  1  0
  8 30  1  0
 13 31  1  0
 13 32  1  0
 18 33  1  0
 21 34  1  0
 23 35  1  0
M  CHG  2  10  -1  17  -1
M  END
>  <UniqueID>  (55) 
50

>  <SMILES>  (55) 
COc1ccc2ccc([N-]C(=O)Cc3nc([O-])cs3)c(O)c2c1

>  <Energy>  (55) 
75.25176293468077

>  <Genealogy>  (55) 
COc1ccc2ccc([N-]C(=O)Cc3nc([O-])cs3)c(O)c2c1 (protonated)
COc1ccc2ccc([N-]C(=O)Cc3nc([O-])cs3)c(O)c2c1 (3D coordinates assigned)
COc1ccc2ccc([N-]C(=O)Cc3nc([O-])cs3)c(O)c2c1 (optimized conformer: 75.25176293468077 kcal/mol)

>  <smiles>  (55) 
COc1ccc2ccc(NC(=O)Cc3nc(O)cs3)c(O)c2c1

>  <score_type>  (55) 
oracle

>  <origin>  (55) 
adg

>  <m_score__min__energy>  (55) 
-11.630000000000001

>  <m_primary>  (55) 
energy

$$$$
55:0
     RDKit          3D

 48 50  0  0  0  0  0  0  0  0999 V2000
   54.2980   30.4590   53.3260 O   0  0  0  0  0  0  0  0  0  0  0  0
   54.4840   30.9590   52.1850 C   0  0  0  0  0  0  0  0  0  0  0  0
   53.3530   31.0230   51.2120 C   0  0  0  0  0  0  0  0  0  0  0  0
   52.1590   31.6480   51.8640 C   0  0  0  0  0  0  0  0  0  0  0  0
   51.8690   31.5370   53.1720 N   0  0  0  0  0  0  0  0  0  0  0  0
   50.6900   32.1880   53.2850 C   0  0  0  0  0  0  0  0  0  0  0  0
   50.0860   32.3090   54.3810 O   0  0  0  0  0  0  0  0  0  0  0  0
   50.2080   32.6930   52.1280 N   0  0  0  0  0  0  0  0  0  0  0  0
   51.1480   32.3360   51.2380 C   0  0  0  0  0  0  0  0  0  0  0  0
   51.0790   32.6280   49.8820 O   0  0  0  0  0  0  0  0  0  0  0  0
   55.7720   31.4620   51.8040 N   0  0  0  0  0  0  0  0  0  0  0  0
   57.0230   30.7740   51.9310 C   0  0  0  0  0  0  0  0  0  0  0  0
   57.4990   30.4750   53.2130 C   0  0  0  0  0  0  0  0  0  0  0  0
   58.7100   29.7980   53.3800 C   0  0  0  0  0  0  0  0  0  0  0  0
   59.4460   29.3950   52.2640 C   0  0  0  0  0  0  0  0  0  0  0  0
   58.9640   29.6490   50.9710 C   0  0  0  0  0  0  0  0  0  0  0  0
   59.7690   29.2330   49.7690 C   0  0  0  0  0  0  0  0  0  0  0  0
   59.4440   30.1270   48.5720 C   0  0  0  0  0  0  0  0  0  0  0  0
   58.6860   29.3590   47.5740 N   0  0  0  0  0  0  0  0  0  0  0  0
   59.2110   29.5580   46.2120 C   0  0  0  0  0  0  0  0  0  0  0  0
   58.1280   30.1820   45.3080 C   0  0  1  0  0  0  0  0  0  0  0  0
   56.8440   29.7120   45.6420 O   0  0  0  0  0  0  0  0  0  0  0  0
   58.1690   31.6970   45.3400 C   0  0  0  0  0  0  0  0  0  0  0  0
   58.1630   32.3770   46.5690 C   0  0  0  0  0  0  0  0  0  0  0  0
   58.1310   33.7720   46.5990 C   0  0  0  0  0  0  0  0  0  0  0  0
   58.0970   34.4820   45.3990 C   0  0  0  0  0  0  0  0  0  0  0  0
   58.0910   33.8150   44.2150 N   0  0  0  0  0  0  0  0  0  0  0  0
   58.1220   32.4570   44.1570 C   0  0  0  0  0  0  0  0  0  0  0  0
   57.7540   30.3440   50.8070 C   0  0  0  0  0  0  0  0  0  0  0  0
   53.6526   31.6269   50.3428 H   0  0  0  0  0  0  0  0  0  0  0  0
   53.0970   30.0045   50.8846 H   0  0  0  0  0  0  0  0  0  0  0  0
   56.9153   30.7753   54.0957 H   0  0  0  0  0  0  0  0  0  0  0  0
   59.0839   29.5823   54.3918 H   0  0  0  0  0  0  0  0  0  0  0  0
   60.4068   28.8767   52.3989 H   0  0  0  0  0  0  0  0  0  0  0  0
   60.8403   29.3176   50.0038 H   0  0  0  0  0  0  0  0  0  0  0  0
   59.5177   28.1927   49.5149 H   0  0  0  0  0  0  0  0  0  0  0  0
   58.8424   30.9844   48.9082 H   0  0  0  0  0  0  0  0  0  0  0  0
   60.3801   30.4880   48.1210 H   0  0  0  0  0  0  0  0  0  0  0  0
   57.6940   29.6950   47.6010 H   0  0  0  0  0  0  0  0  0  0  0  0
   60.0811   30.2297   46.2528 H   0  0  0  0  0  0  0  0  0  0  0  0
   59.5071   28.5836   45.7962 H   0  0  0  0  0  0  0  0  0  0  0  0
   58.3512   29.8640   44.2789 H   0  0  0  0  0  0  0  0  0  0  0  0
   56.9360   29.0370   46.3640 H   0  0  0  0  0  0  0  0  0  0  0  0
   58.1836   31.8085   47.5105 H   0  0  0  0  0  0  0  0  0  0  0  0
   58.1326   34.3066   47.5603 H   0  0  0  0  0  0  0  0  0  0  0  0
   58.0750   35.5817   45.4109 H   0  0  0  0  0  0  0  0  0  0  0  0
   58.1103   31.9502   43.1808 H   0  0  0  0  0  0  0  0  0  0  0  0
   57.3759   30.5533   49.7955 H   0  0  0  0  0  0  0  0  0  0  0  0
  1  2  2  0
  2  3  1  0
  3  4  1  0
  4  5  1  0
  5  6  1  0
  6  7  2  0
  6  8  1  0
  8  9  1  0
  9 10  1  0
  2 11  1  0
 11 12  1  0
 12 13  2  0
 13 14  1  0
 14 15  2  0
 15 16  1  0
 16 17  1  0
 17 18  1  0
 18 19  1  0
 19 20  1  0
 20 21  1  0
 21 22  1  0
 21 23  1  0
 23 24  2  0
 24 25  1  0
 25 26  2  0
 26 27  1  0
 27 28  2  0
 16 29  2  0
  9  4  2  0
 29 12  1  0
 28 23  1  0
  3 30  1  0
  3 31  1  0
 13 32  1  0
 14 33  1  0
 15 34  1  0
 17 35  1  0
 17 36  1  0
 18 37  1  0
 18 38  1  0
 19 39  1  0
 20 40  1  0
 20 41  1  0
 21 42  1  6
 22 43  1  0
 24 44  1  0
 25 45  1  0
 26 46  1  0
 28 47  1  0
 29 48  1  0
M  CHG  4   5  -1   8  -1  10  -1  11  -1
M  END
>  <UniqueID>  (56) 
51

>  <SMILES>  (56) 
O=C(Cc1[n-]c(=O)[n-]c1[O-])[N-]c1cccc(CCNC[C@@H](O)c2cccnc2)c1

>  <Energy>  (56) 
77.63900783287271

>  <Genealogy>  (56) 
O=C(Cc1[n-]c(=O)[n-]c1[O-])[N-]c1cccc(CCNCC(O)c2cccnc2)c1 (protonated)
O=C(Cc1[n-]c(=O)[n-]c1[O-])[N-]c1cccc(CCNC[C@@H](O)c2cccnc2)c1 (chirality)
O=C(Cc1[n-]c(=O)[n-]c1[O-])[N-]c1cccc(CCNC[C@@H](O)c2cccnc2)c1 (3D coordinates assigned)
O=C(Cc1[n-]c(=O)[n-]c1[O-])[N-]c1cccc(CCNC[C@@H](O)c2cccnc2)c1 (optimized conformer: 77.63900783287271 kcal/mol)

>  <smiles>  (56) 
O=C(Cc1[nH]c(=O)[nH]c1O)Nc1cccc(CCNCC(O)c2cccnc2)c1

>  <score_type>  (56) 
oracle

>  <origin>  (56) 
adg

>  <m_score__min__energy>  (56) 
-17.309999999999999

>  <m_primary>  (56) 
energy

$$$$
56:0
     RDKit          3D

 59 62  0  0  0  0  0  0  0  0999 V2000
   57.3640   31.2550   42.9520 O   0  0  0  0  0  0  0  0  0  0  0  0
   56.6670   30.8780   43.9310 C   0  0  0  0  0  0  0  0  0  0  0  0
   55.7230   29.7300   43.7710 C   0  0  0  0  0  0  0  0  0  0  0  0
   55.6230   28.9890   45.0250 N   0  0  0  0  0  0  0  0  0  0  0  0
   56.6450   28.1430   45.5650 C   0  0  0  0  0  0  0  0  0  0  0  0
   56.4400   26.9010   45.6100 O   0  0  0  0  0  0  0  0  0  0  0  0
   57.9250   28.6790   46.0660 C   0  0  0  0  0  0  0  0  0  0  0  0
   58.9070   29.1100   45.1610 C   0  0  0  0  0  0  0  0  0  0  0  0
   60.1270   29.6070   45.6300 C   0  0  0  0  0  0  0  0  0  0  0  0
   60.3800   29.6690   47.0020 C   0  0  0  0  0  0  0  0  0  0  0  0
   59.4140   29.2210   47.9150 C   0  0  0  0  0  0  0  0  0  0  0  0
   59.6960   29.3170   49.6510 S   0  0  0  0  0  0  0  0  0  0  0  0
   58.3600   29.3610   50.3350 O   0  0  0  0  0  0  0  0  0  0  0  0
   60.4520   28.1130   50.1370 O   0  0  0  0  0  0  0  0  0  0  0  0
   60.6200   30.7550   50.0060 N   0  0  0  0  0  0  0  0  0  0  0  0
   62.0470   30.8040   49.6750 C   0  0  0  0  0  0  0  0  0  0  0  0
   62.8440   31.1410   50.9330 C   0  0  0  0  0  0  0  0  0  0  0  0
   62.4180   32.5070   51.4820 C   0  0  0  0  0  0  0  0  0  0  0  0
   60.9160   32.6590   51.5580 C   0  0  0  0  0  0  0  0  0  0  0  0
   60.3730   33.6850   52.3460 C   0  0  0  0  0  0  0  0  0  0  0  0
   58.9920   33.8780   52.4040 C   0  0  0  0  0  0  0  0  0  0  0  0
   58.1420   33.0660   51.6520 C   0  0  0  0  0  0  0  0  0  0  0  0
   58.6680   32.0550   50.8440 C   0  0  0  0  0  0  0  0  0  0  0  0
   60.0580   31.8290   50.7960 C   0  0  0  0  0  0  0  0  0  0  0  0
   58.1960   28.7150   47.4430 C   0  0  0  0  0  0  0  0  0  0  0  0
   56.7350   31.5780   45.1770 N   0  0  0  0  0  0  0  0  0  0  0  0
   57.4080   32.8610   45.3300 C   0  0  0  0  0  0  0  0  0  0  0  0
   58.1850   32.8870   46.6180 C   0  0  0  0  0  0  0  0  0  0  0  0
   58.0430   31.9380   47.4340 O   0  0  0  0  0  0  0  0  0  0  0  0
   59.0450   33.9840   46.9730 N   0  0  0  0  0  0  0  0  0  0  0  0
   60.4090   33.8860   47.4010 C   0  0  0  0  0  0  0  0  0  0  0  0
   61.3570   33.1560   46.6640 C   0  0  0  0  0  0  0  0  0  0  0  0
   62.6840   33.0850   47.1030 C   0  0  0  0  0  0  0  0  0  0  0  0
   63.0680   33.7210   48.2870 C   0  0  0  0  0  0  0  0  0  0  0  0
   64.3550   33.6540   48.7100 F   0  0  0  0  0  0  0  0  0  0  0  0
   62.1180   34.4180   49.0430 C   0  0  0  0  0  0  0  0  0  0  0  0
   60.7910   34.4910   48.6050 C   0  0  0  0  0  0  0  0  0  0  0  0
   54.7294   30.1112   43.4926 H   0  0  0  0  0  0  0  0  0  0  0  0
   56.0987   29.0598   42.9838 H   0  0  0  0  0  0  0  0  0  0  0  0
   58.7164   29.0567   44.0789 H   0  0  0  0  0  0  0  0  0  0  0  0
   60.8900   29.9503   44.9158 H   0  0  0  0  0  0  0  0  0  0  0  0
   61.3374   30.0694   47.3669 H   0  0  0  0  0  0  0  0  0  0  0  0
   62.3683   29.8261   49.2871 H   0  0  0  0  0  0  0  0  0  0  0  0
   62.2221   31.5744   48.9096 H   0  0  0  0  0  0  0  0  0  0  0  0
   62.6610   30.3701   51.6960 H   0  0  0  0  0  0  0  0  0  0  0  0
   63.9141   31.1745   50.6806 H   0  0  0  0  0  0  0  0  0  0  0  0
   62.8360   32.6268   52.4924 H   0  0  0  0  0  0  0  0  0  0  0  0
   62.7968   33.2763   50.7930 H   0  0  0  0  0  0  0  0  0  0  0  0
   61.0407   34.3422   52.9224 H   0  0  0  0  0  0  0  0  0  0  0  0
   58.5736   34.6701   53.0424 H   0  0  0  0  0  0  0  0  0  0  0  0
   57.0541   33.2225   51.6956 H   0  0  0  0  0  0  0  0  0  0  0  0
   57.9922   31.4309   50.2409 H   0  0  0  0  0  0  0  0  0  0  0  0
   57.4462   28.3430   48.1567 H   0  0  0  0  0  0  0  0  0  0  0  0
   58.0971   33.0132   44.4863 H   0  0  0  0  0  0  0  0  0  0  0  0
   56.6550   33.6627   45.3476 H   0  0  0  0  0  0  0  0  0  0  0  0
   61.0556   32.6396   45.7407 H   0  0  0  0  0  0  0  0  0  0  0  0
   63.4271   32.5270   46.5145 H   0  0  0  0  0  0  0  0  0  0  0  0
   62.4148   34.9085   49.9818 H   0  0  0  0  0  0  0  0  0  0  0  0
   60.0440   35.0263   49.2095 H   0  0  0  0  0  0  0  0  0  0  0  0
  1  2  2  0
  2  3  1  0
  3  4  1  0
  4  5  1  0
  5  6  2  0
  5  7  1  0
  7  8  2  0
  8  9  1  0
  9 10  2  0
 10 11  1  0
 11 12  1  0
 12 13  2  0
 12 14  2  0
 12 15  1  0
 15 16  1  0
 16 17  1  0
 17 18  1  0
 18 19  1  0
 19 20  2  0
 20 21  1  0
 21 22  2  0
 22 23  1  0
 23 24  2  0
 11 25  2  0
  2 26  1  0
 26 27  1  0
 27 28  1  0
 28 29  2  0
 28 30  1  0
 30 31  1  0
 31 32  2  0
 32 33  1  0
 33 34  2  0
 34 35  1  0
 34 36  1  0
 36 37  2  0
 25  7  1  0
 37 31  1  0
 24 15  1  0
 24 19  1  0
  3 38  1  0
  3 39  1  0
  8 40  1  0
  9 41  1  0
 10 42  1  0
 16 43  1  0
 16 44  1  0
 17 45  1  0
 17 46  1  0
 18 47  1  0
 18 48  1  0
 20 49  1  0
 21 50  1  0
 22 51  1  0
 23 52  1  0
 25 53  1  0
 27 54  1  0
 27 55  1  0
 32 56  1  0
 33 57  1  0
 36 58  1  0
 37 59  1  0
M  CHG  3   4  -1  26  -1  30  -1
M  END
>  <UniqueID>  (57) 
52

>  <SMILES>  (57) 
O=C(C[N-]C(=O)c1cccc(S(=O)(=O)N2CCCc3ccccc32)c1)[N-]CC(=O)[N-]c1ccc(F)cc1

>  <Energy>  (57) 
65.83305572036669

>  <Genealogy>  (57) 
O=C(C[N-]C(=O)c1cccc(S(=O)(=O)N2CCCc3ccccc32)c1)[N-]CC(=O)[N-]c1ccc(F)cc1 (protonated)
O=C(C[N-]C(=O)c1cccc(S(=O)(=O)N2CCCc3ccccc32)c1)[N-]CC(=O)[N-]c1ccc(F)cc1 (3D coordinates assigned)
O=C(C[N-]C(=O)c1cccc(S(=O)(=O)N2CCCc3ccccc32)c1)[N-]CC(=O)[N-]c1ccc(F)cc1 (nonaromatic ring conformer: 65.83305572036669 kcal/mol)

>  <smiles>  (57) 
O=C(CNC(=O)c1cccc(S(=O)(=O)N2CCCc3ccccc32)c1)NCC(=O)Nc1ccc(F)cc1

>  <score_type>  (57) 
oracle

>  <origin>  (57) 
adg

>  <m_score__min__energy>  (57) 
-15.5

>  <m_primary>  (57) 
energy

$$$$
57:0
     RDKit          3D

 54 58  0  0  0  0  0  0  0  0999 V2000
   58.7690   34.6620   47.1150 O   0  0  0  0  0  0  0  0  0  0  0  0
   58.7260   33.7770   46.2510 C   0  0  0  0  0  0  0  0  0  0  0  0
   57.5900   33.5260   45.3860 C   0  0  0  0  0  0  0  0  0  0  0  0
   57.7620   32.7060   44.1700 C   0  0  0  0  0  0  0  0  0  0  0  0
   57.4710   31.2730   44.2920 C   0  0  0  0  0  0  0  0  0  0  0  0
   56.6210   30.6070   43.3960 C   0  0  0  0  0  0  0  0  0  0  0  0
   56.4750   29.3430   43.8250 N   0  0  0  0  0  0  0  0  0  0  0  0
   57.1740   29.1280   44.9420 C   0  0  0  0  0  0  0  0  0  0  0  0
   57.3850   28.0270   45.7600 C   0  0  0  0  0  0  0  0  0  0  0  0
   58.2150   28.0860   46.8760 C   0  0  0  0  0  0  0  0  0  0  0  0
   58.8380   29.2900   47.1600 C   0  0  0  0  0  0  0  0  0  0  0  0
   58.6260   30.3810   46.3500 C   0  0  0  0  0  0  0  0  0  0  0  0
   57.8020   30.3350   45.2400 C   0  0  0  0  0  0  0  0  0  0  0  0
   59.8740   32.9550   46.0900 N   0  0  0  0  0  0  0  0  0  0  0  0
   61.0810   33.0330   46.7850 C   0  0  0  0  0  0  0  0  0  0  0  0
   62.1560   33.8410   46.4290 C   0  0  0  0  0  0  0  0  0  0  0  0
   63.3460   33.8090   47.1390 C   0  0  0  0  0  0  0  0  0  0  0  0
   63.4880   32.9600   48.2320 C   0  0  0  0  0  0  0  0  0  0  0  0
   62.4470   32.1560   48.6050 C   0  0  0  0  0  0  0  0  0  0  0  0
   62.4810   31.1970   49.7430 C   0  0  0  0  0  0  0  0  0  0  0  0
   61.1360   30.8360   50.2320 C   0  0  0  0  0  0  0  0  0  0  0  0
   60.6710   29.6150   49.9360 N   0  0  0  0  0  0  0  0  0  0  0  0
   59.4510   29.2360   50.2490 N   0  0  0  0  0  0  0  0  0  0  0  0
   58.6060   30.0740   50.8940 C   0  0  0  0  0  0  0  0  0  0  0  0
   57.4270   29.7160   51.1970 O   0  0  0  0  0  0  0  0  0  0  0  0
   59.0110   31.3440   51.2340 C   0  0  0  0  0  0  0  0  0  0  0  0
   58.1710   32.2150   51.9180 C   0  0  0  0  0  0  0  0  0  0  0  0
   58.6290   33.4880   52.2720 C   0  0  0  0  0  0  0  0  0  0  0  0
   59.9260   33.8550   51.9290 C   0  0  0  0  0  0  0  0  0  0  0  0
   60.7240   32.9510   51.2450 C   0  0  0  0  0  0  0  0  0  0  0  0
   60.2920   31.7080   50.8900 C   0  0  0  0  0  0  0  0  0  0  0  0
   61.2920   32.2190   47.8770 C   0  0  0  0  0  0  0  0  0  0  0  0
   56.8253   33.0284   46.0005 H   0  0  0  0  0  0  0  0  0  0  0  0
   57.3454   34.5226   44.9898 H   0  0  0  0  0  0  0  0  0  0  0  0
   57.0972   33.1159   43.3954 H   0  0  0  0  0  0  0  0  0  0  0  0
   58.8348   32.7629   43.9337 H   0  0  0  0  0  0  0  0  0  0  0  0
   56.1560   31.0436   42.4998 H   0  0  0  0  0  0  0  0  0  0  0  0
   55.8850   28.6110   43.3470 H   0  0  0  0  0  0  0  0  0  0  0  0
   56.8813   27.0792   45.5193 H   0  0  0  0  0  0  0  0  0  0  0  0
   58.3714   27.2030   47.5131 H   0  0  0  0  0  0  0  0  0  0  0  0
   59.5020   29.3735   48.0330 H   0  0  0  0  0  0  0  0  0  0  0  0
   59.1314   31.3270   46.5944 H   0  0  0  0  0  0  0  0  0  0  0  0
   59.7800   32.1950   45.3510 H   0  0  0  0  0  0  0  0  0  0  0  0
   62.0598   34.5183   45.5676 H   0  0  0  0  0  0  0  0  0  0  0  0
   64.1816   34.4575   46.8370 H   0  0  0  0  0  0  0  0  0  0  0  0
   64.4336   32.9357   48.7935 H   0  0  0  0  0  0  0  0  0  0  0  0
   62.9923   30.2803   49.4140 H   0  0  0  0  0  0  0  0  0  0  0  0
   63.0122   31.6879   50.5718 H   0  0  0  0  0  0  0  0  0  0  0  0
   59.0730   28.2680   50.0160 H   0  0  0  0  0  0  0  0  0  0  0  0
   57.1490   31.9039   52.1801 H   0  0  0  0  0  0  0  0  0  0  0  0
   57.9744   34.1874   52.8127 H   0  0  0  0  0  0  0  0  0  0  0  0
   60.3133   34.8491   52.1968 H   0  0  0  0  0  0  0  0  0  0  0  0
   61.7485   33.2493   50.9776 H   0  0  0  0  0  0  0  0  0  0  0  0
   60.4628   31.5666   48.1881 H   0  0  0  0  0  0  0  0  0  0  0  0
  1  2  2  0
  2  3  1  0
  3  4  1  0
  4  5  1  0
  5  6  2  0
  6  7  1  0
  7  8  1  0
  8  9  2  0
  9 10  1  0
 10 11  2  0
 11 12  1  0
 12 13  2  0
  2 14  1  0
 14 15  1  0
 15 16  2  0
 16 17  1  0
 17 18  2  0
 18 19  1  0
 19 20  1  0
 20 21  1  0
 21 22  2  0
 22 23  1  0
 23 24  1  0
 24 25  2  0
 24 26  1  0
 26 27  2  0
 27 28  1  0
 28 29  2  0
 29 30  1  0
 30 31  2  0
 19 32  2  0
 13  5  1  0
 32 15  1  0
 13  8  1  0
 31 21  1  0
 31 26  1  0
  3 33  1  0
  3 34  1  0
  4 35  1  0
  4 36  1  0
  6 37  1  0
  7 38  1  0
  9 39  1  0
 10 40  1  0
 11 41  1  0
 12 42  1  0
 14 43  1  0
 16 44  1  0
 17 45  1  0
 18 46  1  0
 20 47  1  0
 20 48  1  0
 23 49  1  0
 27 50  1  0
 28 51  1  0
 29 52  1  0
 30 53  1  0
 32 54  1  0
M  END
>  <smiles>  (58) 
O=C(CCc1c[nH]c2ccccc12)Nc1cccc(Cc2n[nH]c(=O)c3ccccc23)c1

>  <score_type>  (58) 
oracle

>  <origin>  (58) 
adg

>  <m_score__min__energy>  (58) 
-10.5

>  <m_primary>  (58) 
energy

$$$$
58:0
     RDKit          3D

 39 41  0  0  0  0  0  0  0  0999 V2000
   54.1410   26.2130   46.3810 H   0  0  0  0  0  0  0  0  0  0  0  0
   54.9400   25.6600   45.9970 N   0  0  0  0  0  0  0  0  0  0  0  0
   56.1650   26.0420   46.1550 C   0  0  0  0  0  0  0  0  0  0  0  0
   56.4830   27.3580   46.0410 N   0  0  0  0  0  0  0  0  0  0  0  0
   57.7640   27.7900   46.1890 C   0  0  0  0  0  0  0  0  0  0  0  0
   58.0470   29.2330   46.1000 C   0  0  0  0  0  0  0  0  0  0  0  0
   58.9920   29.8260   46.8480 N   0  0  0  0  0  0  0  0  0  0  0  0
   58.9730   31.1120   46.4420 C   0  0  0  0  0  0  0  0  0  0  0  0
   59.8170   32.1790   47.0770 C   0  0  0  0  0  0  0  0  0  0  0  0
   60.5893   32.4967   46.3610 H   0  0  0  0  0  0  0  0  0  0  0  0
   59.1623   33.0207   47.3472 H   0  0  0  0  0  0  0  0  0  0  0  0
   60.4720   31.6930   48.3020 N   0  0  0  0  0  0  0  0  0  0  0  0
   60.4320   30.6460   48.3350 H   0  0  0  0  0  0  0  0  0  0  0  0
   59.9400   32.0480   49.1300 H   0  0  0  0  0  0  0  0  0  0  0  0
   61.8390   32.1530   48.3860 C   0  0  0  0  0  0  0  0  0  0  0  0
   62.3610   33.0170   47.4070 C   0  0  0  0  0  0  0  0  0  0  0  0
   61.7325   33.3262   46.5588 H   0  0  0  0  0  0  0  0  0  0  0  0
   63.6720   33.4840   47.5060 C   0  0  0  0  0  0  0  0  0  0  0  0
   64.0751   34.1537   46.7320 H   0  0  0  0  0  0  0  0  0  0  0  0
   64.4750   33.1040   48.5850 C   0  0  0  0  0  0  0  0  0  0  0  0
   65.5128   33.4631   48.6476 H   0  0  0  0  0  0  0  0  0  0  0  0
   63.9640   32.2660   49.5900 C   0  0  0  0  0  0  0  0  0  0  0  0
   64.8410   31.8200   50.7330 C   0  0  0  0  0  0  0  0  0  0  0  0
   66.1780   31.9300   50.3940 F   0  0  0  0  0  0  0  0  0  0  0  0
   64.5850   30.5000   51.0610 F   0  0  0  0  0  0  0  0  0  0  0  0
   64.5900   32.6140   51.8360 F   0  0  0  0  0  0  0  0  0  0  0  0
   62.6500   31.7780   49.4720 C   0  0  0  0  0  0  0  0  0  0  0  0
   62.2524   31.0955   50.2376 H   0  0  0  0  0  0  0  0  0  0  0  0
   58.0480   31.3720   45.4950 N   0  0  0  0  0  0  0  0  0  0  0  0
   57.4610   30.1830   45.2740 C   0  0  0  0  0  0  0  0  0  0  0  0
   56.2980   30.0310   44.3840 C   0  0  0  0  0  0  0  0  0  0  0  0
   56.3000   30.5970   43.2590 O   0  0  0  0  0  0  0  0  0  0  0  0
   55.1450   29.3000   44.7980 N   0  0  0  0  0  0  0  0  0  0  0  0
   55.1660   28.7080   45.6580 H   0  0  0  0  0  0  0  0  0  0  0  0
   58.7680   26.8660   46.5050 C   0  0  0  0  0  0  0  0  0  0  0  0
   59.8055   27.1959   46.6623 H   0  0  0  0  0  0  0  0  0  0  0  0
   58.4250   25.5200   46.6160 C   0  0  0  0  0  0  0  0  0  0  0  0
   59.1983   24.7726   46.8470 H   0  0  0  0  0  0  0  0  0  0  0  0
   57.1360   25.1310   46.4390 N   0  0  0  0  0  0  0  0  0  0  0  0
  1  2  1  0
  2  3  2  0
  3  4  1  0
  4  5  2  0
  5  6  1  0
  6  7  1  0
  7  8  1  0
  8  9  1  0
  9 10  1  0
  9 11  1  0
  9 12  1  0
 12 13  1  0
 12 14  1  0
 12 15  1  0
 15 16  2  0
 16 17  1  0
 16 18  1  0
 18 19  1  0
 18 20  2  0
 20 21  1  0
 20 22  1  0
 22 23  1  0
 23 24  1  0
 23 25  1  0
 23 26  1  0
 22 27  2  0
 27 28  1  0
  8 29  2  0
 29 30  1  0
 30 31  1  0
 31 32  2  0
 31 33  1  0
 33 34  1  0
  5 35  1  0
 35 36  1  0
 35 37  2  0
 37 38  1  0
 37 39  1  0
 39  3  1  0
 30  6  2  0
 27 15  1  0
M  CHG  4   7  -1  12   1  33  -1  39  -1
M  END
>  <UniqueID>  (59) 
53

>  <SMILES>  (59) 
[H]/N=c1/nc(-c2[n-]c(C[NH2+]c3cccc(C(F)(F)F)c3)nc2C([NH-])=O)cc[n-]1

>  <Energy>  (59) 
74.74167690957057

>  <Genealogy>  (59) 
N=c1nc(-c2[n-]c(C[NH2+]c3cccc(C(F)(F)F)c3)nc2C([NH-])=O)cc[n-]1 (protonated)
[H]/N=c1/nc(-c2[n-]c(C[NH2+]c3cccc(C(F)(F)F)c3)nc2C([NH-])=O)cc[n-]1 (cis-trans isomerization)
[H]/N=c1/nc(-c2[n-]c(C[NH2+]c3cccc(C(F)(F)F)c3)nc2C([NH-])=O)cc[n-]1 (3D coordinates assigned)
[H]/N=c1/nc(-c2[n-]c(C[NH2+]c3cccc(C(F)(F)F)c3)nc2C([NH-])=O)cc[n-]1 (optimized conformer: 74.74167690957057 kcal/mol)

>  <smiles>  (59) 
N=c1nc(-c2[nH]c(CNc3cccc(C(F)(F)F)c3)nc2C(N)=O)cc[nH]1

>  <score_type>  (59) 
oracle

>  <origin>  (59) 
adg

>  <m_score__min__energy>  (59) 
-12.140000000000001

>  <m_primary>  (59) 
energy

$$$$
59:0
     RDKit          3D

 28 30  0  0  0  0  0  0  0  0999 V2000
   57.3550   34.7295   44.4565 H   0  0  0  0  0  0  0  0  0  0  0  0
   57.6400   33.7530   44.8750 C   0  0  0  0  0  0  0  0  0  0  0  0
   57.3960   32.5080   44.3320 C   0  0  0  0  0  0  0  0  0  0  0  0
   56.8936   32.3017   43.3754 H   0  0  0  0  0  0  0  0  0  0  0  0
   57.9040   31.5590   45.2200 C   0  0  0  0  0  0  0  0  0  0  0  0
   57.7890   30.2220   45.0260 C   0  0  0  0  0  0  0  0  0  0  0  0
   56.8110   29.3960   45.6350 N   0  0  0  0  0  0  0  0  0  0  0  0
   55.8800   29.7120   45.9780 H   0  0  0  0  0  0  0  0  0  0  0  0
   57.0140   28.0430   45.1740 C   0  0  0  0  0  0  0  0  0  0  0  0
   57.1504   27.3614   46.0265 H   0  0  0  0  0  0  0  0  0  0  0  0
   56.1508   27.6691   44.6039 H   0  0  0  0  0  0  0  0  0  0  0  0
   58.2860   28.0960   44.3190 C   0  0  0  0  0  0  0  0  0  0  0  0
   59.1066   27.5778   44.8369 H   0  0  0  0  0  0  0  0  0  0  0  0
   58.1186   27.6010   43.3510 H   0  0  0  0  0  0  0  0  0  0  0  0
   58.6360   29.5120   44.1180 N   0  0  0  0  0  0  0  0  0  0  0  0
   59.6440   29.6750   44.3500 H   0  0  0  0  0  0  0  0  0  0  0  0
   58.4190   29.8000   43.1350 H   0  0  0  0  0  0  0  0  0  0  0  0
   58.5000   32.1970   46.2650 N   0  0  0  0  0  0  0  0  0  0  0  0
   58.3130   33.5160   46.0470 C   0  0  0  0  0  0  0  0  0  0  0  0
   58.7300   34.4370   46.8590 N   0  0  0  0  0  0  0  0  0  0  0  0
   59.4960   34.0850   48.0130 C   0  0  0  0  0  0  0  0  0  0  0  0
   59.7540   34.9570   48.8840 O   0  0  0  0  0  0  0  0  0  0  0  0
   60.0810   32.7070   48.1250 C   0  0  0  0  0  0  0  0  0  0  0  0
   61.0647   32.6943   47.6329 H   0  0  0  0  0  0  0  0  0  0  0  0
   60.1762   32.4559   49.1917 H   0  0  0  0  0  0  0  0  0  0  0  0
   59.1730   31.6580   47.4580 C   0  0  0  0  0  0  0  0  0  0  0  0
   59.7856   30.7939   47.1613 H   0  0  0  0  0  0  0  0  0  0  0  0
   58.3999   31.3642   48.1833 H   0  0  0  0  0  0  0  0  0  0  0  0
  1  2  1  0
  2  3  2  0
  3  4  1  0
  3  5  1  0
  5  6  2  0
  6  7  1  0
  7  8  1  0
  7  9  1  0
  9 10  1  0
  9 11  1  0
  9 12  1  0
 12 13  1  0
 12 14  1  0
 12 15  1  0
 15 16  1  0
 15 17  1  0
  5 18  1  0
 18 19  1  0
 19 20  2  0
 20 21  1  0
 21 22  2  0
 21 23  1  0
 23 24  1  0
 23 25  1  0
 23 26  1  0
 26 27  1  0
 26 28  1  0
 19  2  1  0
 15  6  1  0
 26 18  1  0
M  CHG  1  15   1
M  END
>  <UniqueID>  (60) 
54

>  <SMILES>  (60) 
O=C1CCn2c(cc/c2=C2/NCC[NH2+]2)=N1

>  <Energy>  (60) 
72.97946401523579

>  <Genealogy>  (60) 
O=C1CCn2c(ccc2=C2NCC[NH2+]2)=N1 (protonated)
O=C1CCn2c(cc/c2=C2/NCC[NH2+]2)=N1 (cis-trans isomerization)
O=C1CCn2c(cc/c2=C2/NCC[NH2+]2)=N1 (3D coordinates assigned)
O=C1CCn2c(cc/c2=C2/NCC[NH2+]2)=N1 (nonaromatic ring conformer: 72.97946401523579 kcal/mol)

>  <smiles>  (60) 
O=C1CCn2c(ccc2=C2NCCN2)=N1

>  <score_type>  (60) 
oracle

>  <origin>  (60) 
adg

>  <m_score__min__energy>  (60) 
-4.3799999999999999

>  <m_primary>  (60) 
energy

$$$$
60:0
     RDKit          3D

 38 40  0  0  0  0  0  0  0  0999 V2000
   56.6200   25.2280   47.3210 H   0  0  0  0  0  0  0  0  0  0  0  0
   57.3460   25.9200   47.4630 O   0  0  0  0  0  0  0  0  0  0  0  0
   57.3320   27.1420   46.7930 C   0  0  0  0  0  0  0  0  0  0  0  0
   58.3610   28.0690   46.9890 C   0  0  0  0  0  0  0  0  0  0  0  0
   59.1766   27.8366   47.6896 H   0  0  0  0  0  0  0  0  0  0  0  0
   58.3640   29.2930   46.3010 C   0  0  0  0  0  0  0  0  0  0  0  0
   59.4790   30.2320   46.5570 C   0  0  0  0  0  0  0  0  0  0  0  0
   60.6970   29.9310   47.1590 C   0  0  0  0  0  0  0  0  0  0  0  0
   61.0770   28.6520   47.6760 N   0  0  0  0  0  0  0  0  0  0  0  0
   60.7480   28.2770   48.8200 O   0  0  0  0  0  0  0  0  0  0  0  0
   61.3970   31.1220   47.2340 C   0  0  0  0  0  0  0  0  0  0  0  0
   62.6590   31.4340   47.7470 C   0  0  0  0  0  0  0  0  0  0  0  0
   63.3002   30.6559   48.1868 H   0  0  0  0  0  0  0  0  0  0  0  0
   63.0840   32.7720   47.6840 C   0  0  0  0  0  0  0  0  0  0  0  0
   64.3340   33.1220   48.1800 O   0  0  0  0  0  0  0  0  0  0  0  0
   62.2500   33.7630   47.1220 C   0  0  0  0  0  0  0  0  0  0  0  0
   62.5960   34.8063   47.0808 H   0  0  0  0  0  0  0  0  0  0  0  0
   60.9780   33.4290   46.6130 C   0  0  0  0  0  0  0  0  0  0  0  0
   60.0790   34.4740   46.0210 C   0  0  0  0  0  0  0  0  0  0  0  0
   59.5924   35.0396   46.8292 H   0  0  0  0  0  0  0  0  0  0  0  0
   60.6736   35.1600   45.3998 H   0  0  0  0  0  0  0  0  0  0  0  0
   59.3119   33.9885   45.3998 H   0  0  0  0  0  0  0  0  0  0  0  0
   60.5810   32.0860   46.6880 C   0  0  0  0  0  0  0  0  0  0  0  0
   59.4110   31.5550   46.2810 N   0  0  0  0  0  0  0  0  0  0  0  0
   58.6100   32.0590   45.8410 H   0  0  0  0  0  0  0  0  0  0  0  0
   57.3080   29.5950   45.4050 C   0  0  0  0  0  0  0  0  0  0  0  0
   57.2470   30.9160   44.7350 C   0  0  0  0  0  0  0  0  0  0  0  0
   57.7794   31.0409   43.7806 H   0  0  0  0  0  0  0  0  0  0  0  0
   56.5970   31.9360   45.2160 N   0  0  0  0  0  0  0  0  0  0  0  0
   57.1930   33.0990   45.6640 O   0  0  0  0  0  0  0  0  0  0  0  0
   57.1180   34.3130   44.9260 C   0  0  0  0  0  0  0  0  0  0  0  0
   57.0655   35.1628   45.6224 H   0  0  0  0  0  0  0  0  0  0  0  0
   58.0117   34.4128   44.2925 H   0  0  0  0  0  0  0  0  0  0  0  0
   56.2188   34.3020   44.2925 H   0  0  0  0  0  0  0  0  0  0  0  0
   56.2520   28.6690   45.2500 C   0  0  0  0  0  0  0  0  0  0  0  0
   55.1530   28.9740   44.4520 O   0  0  0  0  0  0  0  0  0  0  0  0
   56.2800   27.4440   45.9260 C   0  0  0  0  0  0  0  0  0  0  0  0
   55.2480   26.5290   45.7440 O   0  0  0  0  0  0  0  0  0  0  0  0
  1  2  1  0
  2  3  1  0
  3  4  2  0
  4  5  1  0
  4  6  1  0
  6  7  1  0
  7  8  2  0
  8  9  1  0
  9 10  2  0
  8 11  1  0
 11 12  2  0
 12 13  1  0
 12 14  1  0
 14 15  1  0
 14 16  2  0
 16 17  1  0
 16 18  1  0
 18 19  1  0
 19 20  1  0
 19 21  1  0
 19 22  1  0
 18 23  2  0
 23 24  1  0
 24 25  1  0
  6 26  2  0
 26 27  1  0
 27 28  1  0
 27 29  2  0
 29 30  1  0
 30 31  1  0
 31 32  1  0
 31 33  1  0
 31 34  1  0
 26 35  1  0
 35 36  1  0
 35 37  2  0
 37 38  1  0
 37  3  1  0
 24  7  1  0
 23 11  1  0
M  CHG  3  15  -1  36  -1  38  -1
M  END
>  <UniqueID>  (61) 
55

>  <SMILES>  (61) 
CO/N=C\c1c(-c2[nH]c3c(C)cc([O-])cc3c2N=O)cc(O)c([O-])c1[O-]

>  <Energy>  (61) 
94.61559807366925

>  <Genealogy>  (61) 
CON=Cc1c(-c2[nH]c3c(C)cc([O-])cc3c2N=O)cc(O)c([O-])c1[O-] (protonated)
CO/N=C\c1c(-c2[nH]c3c(C)cc([O-])cc3c2N=O)cc(O)c([O-])c1[O-] (cis-trans isomerization)
CO/N=C\c1c(-c2[nH]c3c(C)cc([O-])cc3c2N=O)cc(O)c([O-])c1[O-] (3D coordinates assigned)
CO/N=C\c1c(-c2[nH]c3c(C)cc([O-])cc3c2N=O)cc(O)c([O-])c1[O-] (optimized conformer: 94.61559807366925 kcal/mol)

>  <smiles>  (61) 
CON=Cc1c(-c2[nH]c3c(C)cc(O)cc3c2N=O)cc(O)c(O)c1O

>  <score_type>  (61) 
oracle

>  <origin>  (61) 
adg

>  <m_score__min__energy>  (61) 
-13.029999999999999

>  <m_primary>  (61) 
energy

$$$$
61:0
     RDKit          3D

 44 47  0  0  1  0  0  0  0  0999 V2000
   55.9220   29.7680   43.0110 C   0  0  0  0  0  0  0  0  0  0  0  0
   56.6440   30.7910   43.8230 C   0  0  0  0  0  0  0  0  0  0  0  0
   56.6300   31.2790   44.8720 N   0  0  0  0  0  0  0  0  0  0  0  0
   57.3870   32.1940   45.3890 N   0  0  0  0  0  0  0  0  0  0  0  0
   58.3380   32.6660   44.6160 C   0  0  0  0  0  0  0  0  0  0  0  0
   59.2230   33.5270   44.7850 N   0  0  0  0  0  0  0  0  0  0  0  0
   59.1840   34.3940   45.9100 C   0  0  0  0  0  0  0  0  0  0  0  0
   59.2670   35.6450   45.7540 O   0  0  0  0  0  0  0  0  0  0  0  0
   59.0470   33.8710   47.3060 C   0  0  0  0  0  0  0  0  0  0  0  0
   59.9520   32.7300   47.3890 N   0  0  0  0  0  0  0  0  0  0  0  0
   59.3870   31.5080   47.6210 C   0  0  0  0  0  0  0  0  0  0  0  0
   58.1390   31.4400   47.7460 O   0  0  0  0  0  0  0  0  0  0  0  0
   60.1370   30.3610   47.7200 C   0  0  0  0  0  0  0  0  0  0  0  0
   59.5820   29.0150   47.9740 C   0  0  0  0  0  0  0  0  0  0  0  0
   59.0580   28.4780   46.6960 C   0  0  0  0  0  0  0  0  0  0  0  0
   59.7960   28.7280   45.5470 C   0  0  0  0  0  0  0  0  0  0  0  0
   59.3470   28.2560   44.3330 C   0  0  0  0  0  0  0  0  0  0  0  0
   58.1680   27.5280   44.2010 C   0  0  0  0  0  0  0  0  0  0  0  0
   57.4400   27.2850   45.3470 C   0  0  0  0  0  0  0  0  0  0  0  0
   57.8890   27.7610   46.5820 C   0  0  0  0  0  0  0  0  0  0  0  0
   61.4880   30.5140   47.5720 N   0  0  0  0  0  0  0  0  0  0  0  0
   62.0470   31.6970   47.3460 C   0  0  0  0  0  0  0  0  0  0  0  0
   63.4220   31.8400   47.1980 C   0  0  0  0  0  0  0  0  0  0  0  0
   63.9780   33.0750   46.9630 C   0  0  0  0  0  0  0  0  0  0  0  0
   63.1550   34.2010   46.8740 C   0  0  0  0  0  0  0  0  0  0  0  0
   61.8200   34.0570   47.0190 N   0  0  0  0  0  0  0  0  0  0  0  0
   61.2860   32.8510   47.2470 C   0  0  0  0  0  0  0  0  0  0  0  0
   58.1090   31.7110   43.0360 S   0  0  0  0  0  0  0  0  0  0  0  0
   55.4192   29.0556   43.6816 H   0  0  0  0  0  0  0  0  0  0  0  0
   55.1735   30.2651   42.3764 H   0  0  0  0  0  0  0  0  0  0  0  0
   56.6411   29.2293   42.3764 H   0  0  0  0  0  0  0  0  0  0  0  0
   57.2420   32.5440   46.3900 H   0  0  0  0  0  0  0  0  0  0  0  0
   59.3347   34.6429   48.0350 H   0  0  0  0  0  0  0  0  0  0  0  0
   58.0095   33.5844   47.5329 H   0  0  0  0  0  0  0  0  0  0  0  0
   60.3721   28.3536   48.3590 H   0  0  0  0  0  0  0  0  0  0  0  0
   58.7753   29.0726   48.7196 H   0  0  0  0  0  0  0  0  0  0  0  0
   60.7339   29.2997   45.6055 H   0  0  0  0  0  0  0  0  0  0  0  0
   59.9439   28.4626   43.4324 H   0  0  0  0  0  0  0  0  0  0  0  0
   57.8300   27.1607   43.2208 H   0  0  0  0  0  0  0  0  0  0  0  0
   56.5017   26.7139   45.2887 H   0  0  0  0  0  0  0  0  0  0  0  0
   57.2937   27.5576   47.4844 H   0  0  0  0  0  0  0  0  0  0  0  0
   64.0719   30.9554   47.2697 H   0  0  0  0  0  0  0  0  0  0  0  0
   65.0670   33.1767   46.8454 H   0  0  0  0  0  0  0  0  0  0  0  0
   63.5900   35.1941   46.6878 H   0  0  0  0  0  0  0  0  0  0  0  0
  1  2  1  0
  2  3  2  0
  3  4  1  0
  4  5  1  0
  5  6  2  0
  6  7  1  0
  7  8  2  0
  7  9  1  0
  9 10  1  0
 10 11  1  0
 11 12  2  0
 11 13  1  0
 13 14  1  0
 14 15  1  0
 15 16  2  0
 16 17  1  0
 17 18  2  0
 18 19  1  0
 19 20  2  0
 13 21  2  0
 21 22  1  0
 22 23  2  0
 23 24  1  0
 24 25  2  0
 25 26  1  0
 26 27  2  0
  5 28  1  0
 28  2  1  0
 27 10  1  0
 20 15  1  0
 27 22  1  0
  1 29  1  0
  1 30  1  0
  1 31  1  0
  4 32  1  0
  9 33  1  0
  9 34  1  0
 14 35  1  0
 14 36  1  0
 16 37  1  0
 17 38  1  0
 18 39  1  0
 19 40  1  0
 20 41  1  0
 23 42  1  0
 24 43  1  0
 25 44  1  0
M  END
>  <smiles>  (62) 
Cc1n[nH]c(=NC(=O)Cn2c(=O)c(Cc3ccccc3)nc3cccnc32)s1

>  <score_type>  (62) 
oracle

>  <origin>  (62) 
adg

>  <m_score__min__energy>  (62) 
-8.1999999999999993

>  <m_primary>  (62) 
energy

$$$$
62:0
     RDKit          3D

 43 45  0  0  1  0  0  0  0  0999 V2000
   64.8230   32.8070   49.3490 C   0  0  0  0  0  0  0  0  0  0  0  0
   63.7180   32.9380   48.3770 C   0  0  0  0  0  0  0  0  0  0  0  0
   63.9850   33.1660   47.1650 O   0  0  0  0  0  0  0  0  0  0  0  0
   62.3650   32.8050   48.8250 N   0  0  0  0  0  0  0  0  0  0  0  0
   61.2640   32.9240   47.9200 C   0  0  0  0  0  0  0  0  0  0  0  0
   60.7520   31.8580   47.2180 C   0  0  0  0  0  0  0  0  0  0  0  0
   59.6930   32.0060   46.3560 C   0  0  0  0  0  0  0  0  0  0  0  0
   59.1650   33.2750   46.2230 C   0  0  0  0  0  0  0  0  0  0  0  0
   57.7990   33.5510   45.1310 S   0  0  0  0  0  0  0  0  0  0  0  0
   56.5720   33.1700   45.8990 O   0  0  0  0  0  0  0  0  0  0  0  0
   57.8030   35.0140   44.7870 O   0  0  0  0  0  0  0  0  0  0  0  0
   58.0660   32.5750   43.7530 N   0  0  0  0  0  0  0  0  0  0  0  0
   57.5670   31.3890   43.7340 C   0  0  0  0  0  0  0  0  0  0  0  0
   57.3350   30.5650   42.6900 N   0  0  0  0  0  0  0  0  0  0  0  0
   56.8070   29.4380   43.1500 N   0  0  0  0  0  0  0  0  0  0  0  0
   56.7040   29.5450   44.4830 C   0  0  0  0  0  0  0  0  0  0  0  0
   56.2490   28.6900   45.3160 N   0  0  0  0  0  0  0  0  0  0  0  0
   56.8900   27.4440   45.5620 C   0  0  0  0  0  0  0  0  0  0  0  0
   58.2820   27.4420   45.4730 C   0  0  0  0  0  0  0  0  0  0  0  0
   58.9850   26.2650   45.6990 C   0  0  0  0  0  0  0  0  0  0  0  0
   58.2620   25.1130   46.0110 C   0  0  0  0  0  0  0  0  0  0  0  0
   56.8940   25.1160   46.0980 C   0  0  0  0  0  0  0  0  0  0  0  0
   56.1800   26.2940   45.8720 C   0  0  0  0  0  0  0  0  0  0  0  0
   54.7950   26.3400   45.9500 O   0  0  0  0  0  0  0  0  0  0  0  0
   57.1740   30.7560   44.8580 N   0  0  0  0  0  0  0  0  0  0  0  0
   59.6730   34.3640   46.9270 C   0  0  0  0  0  0  0  0  0  0  0  0
   60.7340   34.2090   47.7910 C   0  0  0  0  0  0  0  0  0  0  0  0
   64.4197   32.8548   50.3713 H   0  0  0  0  0  0  0  0  0  0  0  0
   65.3303   31.8424   49.1997 H   0  0  0  0  0  0  0  0  0  0  0  0
   65.5417   33.6262   49.1997 H   0  0  0  0  0  0  0  0  0  0  0  0
   62.1380   32.6140   49.8400 H   0  0  0  0  0  0  0  0  0  0  0  0
   61.2015   30.8627   47.3501 H   0  0  0  0  0  0  0  0  0  0  0  0
   59.2838   31.1518   45.7966 H   0  0  0  0  0  0  0  0  0  0  0  0
   57.5440   30.7990   41.6940 H   0  0  0  0  0  0  0  0  0  0  0  0
   56.5110   28.6000   42.6190 H   0  0  0  0  0  0  0  0  0  0  0  0
   58.8209   28.3683   45.2249 H   0  0  0  0  0  0  0  0  0  0  0  0
   60.0828   26.2419   45.6337 H   0  0  0  0  0  0  0  0  0  0  0  0
   58.8061   24.1744   46.1926 H   0  0  0  0  0  0  0  0  0  0  0  0
   56.3578   24.1882   46.3464 H   0  0  0  0  0  0  0  0  0  0  0  0
   54.2900   26.7160   46.7530 H   0  0  0  0  0  0  0  0  0  0  0  0
   57.2180   31.1220   45.8490 H   0  0  0  0  0  0  0  0  0  0  0  0
   59.2221   35.3581   46.7915 H   0  0  0  0  0  0  0  0  0  0  0  0
   61.1455   35.0596   48.3543 H   0  0  0  0  0  0  0  0  0  0  0  0
  1  2  1  0
  2  3  2  0
  2  4  1  0
  4  5  1  0
  5  6  2  0
  6  7  1  0
  7  8  2  0
  8  9  1  0
  9 10  2  0
  9 11  2  0
  9 12  1  0
 12 13  2  0
 13 14  1  0
 14 15  1  0
 15 16  1  0
 16 17  2  0
 17 18  1  0
 18 19  2  0
 19 20  1  0
 20 21  2  0
 21 22  1  0
 22 23  2  0
 23 24  1  0
 16 25  1  0
  8 26  1  0
 26 27  2  0
 27  5  1  0
 25 13  1  0
 23 18  1  0
  1 28  1  0
  1 29  1  0
  1 30  1  0
  4 31  1  0
  6 32  1  0
  7 33  1  0
 14 34  1  0
 15 35  1  0
 19 36  1  0
 20 37  1  0
 21 38  1  0
 22 39  1  0
 24 40  1  0
 25 41  1  0
 26 42  1  0
 27 43  1  0
M  END
>  <smiles>  (63) 
CC(=O)Nc1ccc(S(=O)(=O)N=c2[nH][nH]c(=Nc3ccccc3O)[nH]2)cc1

>  <score_type>  (63) 
oracle

>  <origin>  (63) 
adg

>  <m_score__min__energy>  (63) 
-10.51

>  <m_primary>  (63) 
energy

$$$$
63:0
     RDKit          3D

 32 33  0  0  0  0  0  0  0  0999 V2000
   55.1440   29.3380   44.8190 N   0  0  0  0  0  0  0  0  0  0  0  0
   56.6680   29.6990   44.0850 S   0  0  0  0  0  0  0  0  0  0  0  0
   57.4780   28.4360   44.0100 O   0  0  0  0  0  0  0  0  0  0  0  0
   56.4410   30.2310   42.6980 O   0  0  0  0  0  0  0  0  0  0  0  0
   57.5220   30.9050   45.0420 C   0  0  0  0  0  0  0  0  0  0  0  0
   57.5410   32.2450   44.6370 C   0  0  0  0  0  0  0  0  0  0  0  0
   58.2130   33.2040   45.4020 C   0  0  0  0  0  0  0  0  0  0  0  0
   58.8780   32.8340   46.5870 C   0  0  0  0  0  0  0  0  0  0  0  0
   59.5910   33.8360   47.4130 C   0  0  0  0  0  0  0  0  0  0  0  0
   59.1680   35.0250   47.4420 O   0  0  0  0  0  0  0  0  0  0  0  0
   60.7420   33.4740   48.1940 N   0  0  0  0  0  0  0  0  0  0  0  0
   61.5150   34.4600   48.9470 C   0  0  0  0  0  0  0  0  0  0  0  0
   62.7520   33.8310   49.5140 C   0  0  0  0  0  0  0  0  0  0  0  0
   63.4500   34.4490   50.5620 C   0  0  0  0  0  0  0  0  0  0  0  0
   64.6120   33.8520   51.0570 C   0  0  0  0  0  0  0  0  0  0  0  0
   65.0670   32.6540   50.5030 C   0  0  0  0  0  0  0  0  0  0  0  0
   64.3500   32.0700   49.4560 C   0  0  0  0  0  0  0  0  0  0  0  0
   63.2210   32.6650   48.9880 N   0  0  0  0  0  0  0  0  0  0  0  0
   58.8360   31.4880   46.9960 C   0  0  0  0  0  0  0  0  0  0  0  0
   58.1650   30.5330   46.2280 C   0  0  0  0  0  0  0  0  0  0  0  0
   55.3370   28.7000   45.6240 H   0  0  0  0  0  0  0  0  0  0  0  0
   57.0251   32.5450   43.7130 H   0  0  0  0  0  0  0  0  0  0  0  0
   58.2221   34.2545   45.0758 H   0  0  0  0  0  0  0  0  0  0  0  0
   61.0170   32.4720   48.2870 H   0  0  0  0  0  0  0  0  0  0  0  0
   61.8017   35.2842   48.2773 H   0  0  0  0  0  0  0  0  0  0  0  0
   60.8978   34.8422   49.7734 H   0  0  0  0  0  0  0  0  0  0  0  0
   63.0859   35.3947   50.9900 H   0  0  0  0  0  0  0  0  0  0  0  0
   65.1669   34.3245   51.8809 H   0  0  0  0  0  0  0  0  0  0  0  0
   65.9800   32.1753   50.8867 H   0  0  0  0  0  0  0  0  0  0  0  0
   64.6995   31.1273   49.0097 H   0  0  0  0  0  0  0  0  0  0  0  0
   59.3356   31.1853   47.9281 H   0  0  0  0  0  0  0  0  0  0  0  0
   58.1420   29.4837   46.5572 H   0  0  0  0  0  0  0  0  0  0  0  0
  1  2  1  0
  2  3  2  0
  2  4  2  0
  2  5  1  0
  5  6  2  0
  6  7  1  0
  7  8  2  0
  8  9  1  0
  9 10  2  0
  9 11  1  0
 11 12  1  0
 12 13  1  0
 13 14  2  0
 14 15  1  0
 15 16  2  0
 16 17  1  0
 17 18  2  0
  8 19  1  0
 19 20  2  0
 20  5  1  0
 18 13  1  0
  1 21  1  0
  6 22  1  0
  7 23  1  0
 11 24  1  0
 12 25  1  0
 12 26  1  0
 14 27  1  0
 15 28  1  0
 16 29  1  0
 17 30  1  0
 19 31  1  0
 20 32  1  0
M  CHG  1   1  -1
M  END
>  <UniqueID>  (64) 
56

>  <SMILES>  (64) 
[NH-]S(=O)(=O)c1ccc(C(=O)NCc2ccccn2)cc1

>  <Energy>  (64) 
32.85473097376515

>  <Genealogy>  (64) 
[NH-]S(=O)(=O)c1ccc(C(=O)NCc2ccccn2)cc1 (protonated)
[NH-]S(=O)(=O)c1ccc(C(=O)NCc2ccccn2)cc1 (3D coordinates assigned)
[NH-]S(=O)(=O)c1ccc(C(=O)NCc2ccccn2)cc1 (optimized conformer: 32.85473097376515 kcal/mol)

>  <smiles>  (64) 
NS(=O)(=O)c1ccc(C(=O)NCc2ccccn2)cc1

>  <score_type>  (64) 
oracle

>  <origin>  (64) 
adg

>  <m_score__min__energy>  (64) 
-9.5399999999999991

>  <m_primary>  (64) 
energy

$$$$
64:0
     RDKit          3D

 51 54  0  0  0  0  0  0  0  0999 V2000
   60.3743   35.5858   47.8579 H   0  0  0  0  0  0  0  0  0  0  0  0
   59.9440   34.8680   47.1440 C   0  0  0  0  0  0  0  0  0  0  0  0
   58.8760   35.1910   46.4750 N   0  0  0  0  0  0  0  0  0  0  0  0
   58.2810   34.2920   45.5350 C   0  0  0  0  0  0  0  0  0  0  0  0
   57.2380   34.6300   44.9150 O   0  0  0  0  0  0  0  0  0  0  0  0
   58.9280   32.9840   45.3130 C   0  0  0  0  0  0  0  0  0  0  0  0
   58.4200   32.0780   44.4610 C   0  0  0  0  0  0  0  0  0  0  0  0
   58.3794   32.3388   43.3931 H   0  0  0  0  0  0  0  0  0  0  0  0
   57.9120   30.7510   44.8720 C   0  0  0  0  0  0  0  0  0  0  0  0
   56.7910   30.2180   44.2170 C   0  0  0  0  0  0  0  0  0  0  0  0
   56.2981   30.7957   43.4211 H   0  0  0  0  0  0  0  0  0  0  0  0
   56.2960   28.9590   44.5680 C   0  0  0  0  0  0  0  0  0  0  0  0
   55.4025   28.5622   44.0638 H   0  0  0  0  0  0  0  0  0  0  0  0
   56.9330   28.1990   45.5600 C   0  0  0  0  0  0  0  0  0  0  0  0
   56.4110   26.8740   45.9510 C   0  0  0  0  0  0  0  0  0  0  0  0
   55.1650   26.6980   45.9990 O   0  0  0  0  0  0  0  0  0  0  0  0
   57.2750   25.7910   46.3170 N   0  0  0  0  0  0  0  0  0  0  0  0
   58.3380   25.2540   45.4760 C   0  0  0  0  0  0  0  0  0  0  0  0
   58.6790   26.0297   44.7746 H   0  0  0  0  0  0  0  0  0  0  0  0
   59.1817   24.9362   46.1062 H   0  0  0  0  0  0  0  0  0  0  0  0
   57.8140   24.0770   44.7060 C   0  0  0  0  0  0  0  0  0  0  0  0
   56.7580   24.2420   43.7940 C   0  0  0  0  0  0  0  0  0  0  0  0
   56.2957   25.2315   43.6628 H   0  0  0  0  0  0  0  0  0  0  0  0
   56.2930   23.1500   43.0520 C   0  0  0  0  0  0  0  0  0  0  0  0
   55.4595   23.2809   42.3462 H   0  0  0  0  0  0  0  0  0  0  0  0
   56.8850   21.8950   43.2060 C   0  0  0  0  0  0  0  0  0  0  0  0
   56.5154   21.0378   42.6241 H   0  0  0  0  0  0  0  0  0  0  0  0
   57.9470   21.7270   44.0990 C   0  0  0  0  0  0  0  0  0  0  0  0
   58.4150   20.7385   44.2165 H   0  0  0  0  0  0  0  0  0  0  0  0
   58.4150   22.8140   44.8430 C   0  0  0  0  0  0  0  0  0  0  0  0
   59.2568   22.6803   45.5383 H   0  0  0  0  0  0  0  0  0  0  0  0
   58.0580   28.7250   46.2120 C   0  0  0  0  0  0  0  0  0  0  0  0
   58.5525   28.1437   47.0042 H   0  0  0  0  0  0  0  0  0  0  0  0
   58.5540   29.9830   45.8610 C   0  0  0  0  0  0  0  0  0  0  0  0
   59.4519   30.3755   46.3608 H   0  0  0  0  0  0  0  0  0  0  0  0
   60.0970   32.6950   46.0950 N   0  0  0  0  0  0  0  0  0  0  0  0
   60.5930   33.5390   46.9570 C   0  0  0  0  0  0  0  0  0  0  0  0
   61.8060   33.1580   47.7240 C   0  0  0  0  0  0  0  0  0  0  0  0
   63.0570   33.7420   47.4500 C   0  0  0  0  0  0  0  0  0  0  0  0
   63.1452   34.4919   46.6501 H   0  0  0  0  0  0  0  0  0  0  0  0
   64.1890   33.3770   48.1860 C   0  0  0  0  0  0  0  0  0  0  0  0
   65.1634   33.8302   47.9512 H   0  0  0  0  0  0  0  0  0  0  0  0
   64.0890   32.4380   49.2200 C   0  0  0  0  0  0  0  0  0  0  0  0
   65.3110   32.0170   49.9830 C   0  0  0  0  0  0  0  0  0  0  0  0
   65.1111   32.0859   51.0625 H   0  0  0  0  0  0  0  0  0  0  0  0
   65.5662   30.9791   49.7229 H   0  0  0  0  0  0  0  0  0  0  0  0
   66.1513   32.6774   49.7229 H   0  0  0  0  0  0  0  0  0  0  0  0
   62.8480   31.8470   49.4940 C   0  0  0  0  0  0  0  0  0  0  0  0
   62.7649   31.0935   50.2911 H   0  0  0  0  0  0  0  0  0  0  0  0
   61.7160   32.2100   48.7600 C   0  0  0  0  0  0  0  0  0  0  0  0
   60.7446   31.7501   48.9943 H   0  0  0  0  0  0  0  0  0  0  0  0
  1  2  1  0
  2  3  2  0
  3  4  1  0
  4  5  2  0
  4  6  1  0
  6  7  2  0
  7  8  1  0
  7  9  1  0
  9 10  2  0
 10 11  1  0
 10 12  1  0
 12 13  1  0
 12 14  2  0
 14 15  1  0
 15 16  2  0
 15 17  1  0
 17 18  1  0
 18 19  1  0
 18 20  1  0
 18 21  1  0
 21 22  2  0
 22 23  1  0
 22 24  1  0
 24 25  1  0
 24 26  2  0
 26 27  1  0
 26 28  1  0
 28 29  1  0
 28 30  2  0
 30 31  1  0
 14 32  1  0
 32 33  1  0
 32 34  2  0
 34 35  1  0
  6 36  1  0
 36 37  2  0
 37 38  1  0
 38 39  2  0
 39 40  1  0
 39 41  1  0
 41 42  1  0
 41 43  2  0
 43 44  1  0
 44 45  1  0
 44 46  1  0
 44 47  1  0
 43 48  1  0
 48 49  1  0
 48 50  2  0
 50 51  1  0
 37  2  1  0
 50 38  1  0
 34  9  1  0
 30 21  1  0
M  CHG  1  17  -1
M  END
>  <UniqueID>  (65) 
57

>  <SMILES>  (65) 
Cc1ccc(C2=N/C(=C\c3ccc(C(=O)[N-]Cc4ccccc4)cc3)C(=O)N=C2)cc1

>  <Energy>  (65) 
66.701745754141

>  <Genealogy>  (65) 
Cc1ccc(C2=NC(=Cc3ccc(C(=O)[N-]Cc4ccccc4)cc3)C(=O)N=C2)cc1 (protonated)
Cc1ccc(C2=N/C(=C\c3ccc(C(=O)[N-]Cc4ccccc4)cc3)C(=O)N=C2)cc1 (cis-trans isomerization)
Cc1ccc(C2=N/C(=C\c3ccc(C(=O)[N-]Cc4ccccc4)cc3)C(=O)N=C2)cc1 (3D coordinates assigned)
Cc1ccc(C2=N/C(=C\c3ccc(C(=O)[N-]Cc4ccccc4)cc3)C(=O)N=C2)cc1 (nonaromatic ring conformer: 66.701745754141 kcal/mol)

>  <smiles>  (65) 
Cc1ccc(C2=NC(=Cc3ccc(C(=O)NCc4ccccc4)cc3)C(=O)N=C2)cc1

>  <score_type>  (65) 
oracle

>  <origin>  (65) 
adg

>  <m_score__min__energy>  (65) 
-12.140000000000001

>  <m_primary>  (65) 
energy

$$$$
65:0
     RDKit          3D

 33 34  0  0  0  0  0  0  0  0999 V2000
   58.4940   24.8630   45.4950 C   0  0  0  0  0  0  0  0  0  0  0  0
   57.0590   25.2050   45.5340 N   0  0  0  0  0  0  0  0  0  0  0  0
   56.6340   26.4370   45.9820 C   0  0  0  0  0  0  0  0  0  0  0  0
   57.5820   27.5060   46.4770 C   0  0  0  0  0  0  0  0  0  0  0  0
   57.6280   28.6800   45.5330 C   0  0  0  0  0  0  0  0  0  0  0  0
   57.0780   28.5820   44.2470 C   0  0  0  0  0  0  0  0  0  0  0  0
   57.1260   29.6720   43.3760 C   0  0  0  0  0  0  0  0  0  0  0  0
   57.7250   30.8700   43.7780 C   0  0  0  0  0  0  0  0  0  0  0  0
   57.7790   32.2160   42.6470 Cl  0  0  0  0  0  0  0  0  0  0  0  0
   58.2780   30.9880   45.0630 C   0  0  0  0  0  0  0  0  0  0  0  0
   58.9020   32.2240   45.4430 N   0  0  0  0  0  0  0  0  0  0  0  0
   58.1020   33.5840   46.1650 S   0  0  0  0  0  0  0  0  0  0  0  0
   59.2730   34.8870   46.4870 C   0  0  0  0  0  0  0  0  0  0  0  0
   57.4200   33.1640   47.4370 O   0  0  0  0  0  0  0  0  0  0  0  0
   57.0650   34.0970   45.2070 O   0  0  0  0  0  0  0  0  0  0  0  0
   58.2080   29.8930   45.9430 C   0  0  0  0  0  0  0  0  0  0  0  0
   55.3010   26.7070   46.0360 N   0  0  0  0  0  0  0  0  0  0  0  0
   54.3930   25.8070   45.6740 N   0  0  0  0  0  0  0  0  0  0  0  0
   54.7640   24.5780   45.2490 C   0  0  0  0  0  0  0  0  0  0  0  0
   53.8860   23.7360   44.9200 O   0  0  0  0  0  0  0  0  0  0  0  0
   56.1230   24.2640   45.1860 C   0  0  0  0  0  0  0  0  0  0  0  0
   56.4720   23.1090   44.8120 O   0  0  0  0  0  0  0  0  0  0  0  0
   58.8772   24.7717   46.5220 H   0  0  0  0  0  0  0  0  0  0  0  0
   58.6290   23.9075   44.9669 H   0  0  0  0  0  0  0  0  0  0  0  0
   59.0454   25.6549   44.9669 H   0  0  0  0  0  0  0  0  0  0  0  0
   57.2450   27.8539   47.4646 H   0  0  0  0  0  0  0  0  0  0  0  0
   58.5909   27.0722   46.5394 H   0  0  0  0  0  0  0  0  0  0  0  0
   56.6067   27.6424   43.9230 H   0  0  0  0  0  0  0  0  0  0  0  0
   56.6908   29.5881   42.3692 H   0  0  0  0  0  0  0  0  0  0  0  0
   59.3887   35.0158   47.5733 H   0  0  0  0  0  0  0  0  0  0  0  0
   60.2447   34.6246   46.0433 H   0  0  0  0  0  0  0  0  0  0  0  0
   58.9087   35.8253   46.0433 H   0  0  0  0  0  0  0  0  0  0  0  0
   58.6111   29.9868   46.9622 H   0  0  0  0  0  0  0  0  0  0  0  0
  1  2  1  0
  2  3  1  0
  3  4  1  0
  4  5  1  0
  5  6  2  0
  6  7  1  0
  7  8  2  0
  8  9  1  0
  8 10  1  0
 10 11  1  0
 11 12  1  0
 12 13  1  0
 12 14  2  0
 12 15  2  0
 10 16  2  0
  3 17  2  0
 17 18  1  0
 18 19  1  0
 19 20  2  0
 19 21  1  0
 21 22  2  0
 21  2  1  0
 16  5  1  0
  1 23  1  0
  1 24  1  0
  1 25  1  0
  4 26  1  0
  4 27  1  0
  6 28  1  0
  7 29  1  0
 13 30  1  0
 13 31  1  0
 13 32  1  0
 16 33  1  0
M  CHG  2  11  -1  18  -1
M  END
>  <UniqueID>  (66) 
58

>  <SMILES>  (66) 
Cn1c(Cc2ccc(Cl)c([N-]S(C)(=O)=O)c2)n[n-]c(=O)c1=O

>  <Energy>  (66) 
38.04797760457391

>  <Genealogy>  (66) 
Cn1c(Cc2ccc(Cl)c([N-]S(C)(=O)=O)c2)n[n-]c(=O)c1=O (protonated)
Cn1c(Cc2ccc(Cl)c([N-]S(C)(=O)=O)c2)n[n-]c(=O)c1=O (3D coordinates assigned)
Cn1c(Cc2ccc(Cl)c([N-]S(C)(=O)=O)c2)n[n-]c(=O)c1=O (optimized conformer: 38.04797760457391 kcal/mol)

>  <smiles>  (66) 
Cn1c(Cc2ccc(Cl)c(NS(C)(=O)=O)c2)n[nH]c(=O)c1=O

>  <score_type>  (66) 
oracle

>  <origin>  (66) 
adg

>  <m_score__min__energy>  (66) 
-11.43

>  <m_primary>  (66) 
energy

$$$$
66:0
     RDKit          3D

 68 70  0  0  0  0  0  0  0  0999 V2000
   59.2410   34.8750   45.7850 C   0  0  0  0  0  0  0  0  0  0  0  0
   60.0220   34.0920   46.7520 N   0  0  0  0  0  0  0  0  0  0  0  0
   61.4440   33.9630   46.3810 C   0  0  0  0  0  0  0  0  0  0  0  0
   62.2290   33.5020   47.5780 C   0  0  0  0  0  0  0  0  0  0  0  0
   62.1110   34.1840   48.8010 C   0  0  0  0  0  0  0  0  0  0  0  0
   62.8360   33.7580   49.9180 C   0  0  0  0  0  0  0  0  0  0  0  0
   63.6800   32.6470   49.8240 C   0  0  0  0  0  0  0  0  0  0  0  0
   63.7980   31.9590   48.6140 C   0  0  0  0  0  0  0  0  0  0  0  0
   63.0740   32.3810   47.4950 C   0  0  0  0  0  0  0  0  0  0  0  0
   59.2620   32.5520   47.0920 S   0  0  0  0  0  0  0  0  0  0  0  0
   57.8390   32.5850   46.6070 O   0  0  0  0  0  0  0  0  0  0  0  0
   60.0130   31.5190   46.2970 O   0  0  0  0  0  0  0  0  0  0  0  0
   59.2660   32.0740   48.8120 C   0  0  0  0  0  0  0  0  0  0  0  0
   59.2720   33.0610   49.8160 C   0  0  0  0  0  0  0  0  0  0  0  0
   59.3240   32.7110   51.1660 C   0  0  0  0  0  0  0  0  0  0  0  0
   59.3610   31.3720   51.5410 C   0  0  0  0  0  0  0  0  0  0  0  0
   59.3270   30.3740   50.5670 C   0  0  0  0  0  0  0  0  0  0  0  0
   59.2600   30.7060   49.2040 C   0  0  0  0  0  0  0  0  0  0  0  0
   59.1600   29.5980   48.2280 C   0  0  0  0  0  0  0  0  0  0  0  0
   59.7120   28.4910   48.4770 O   0  0  0  0  0  0  0  0  0  0  0  0
   58.4480   29.7870   46.9980 N   0  0  0  0  0  0  0  0  0  0  0  0
   58.2350   28.7070   46.0360 C   0  0  0  0  0  0  0  0  0  0  0  0
   56.7990   28.6420   45.5960 C   0  0  0  0  0  0  0  0  0  0  0  0
   56.2480   29.6830   45.1520 O   0  0  0  0  0  0  0  0  0  0  0  0
   56.0520   27.4200   45.6070 N   0  0  0  0  0  0  0  0  0  0  0  0
   56.4550   26.2030   46.3070 C   0  0  0  0  0  0  0  0  0  0  0  0
   57.4730   25.3940   45.4560 C   0  0  0  0  0  0  0  0  0  0  0  0
   58.7960   25.3320   46.2680 C   0  0  0  0  0  0  0  0  0  0  0  0
   57.7540   26.1650   44.1420 C   0  0  0  0  0  0  0  0  0  0  0  0
   56.9370   24.0140   45.1970 N   0  0  0  0  0  0  0  0  0  0  0  0
   55.5930   23.9470   44.5610 C   0  0  0  0  0  0  0  0  0  0  0  0
   55.6640   23.3920   43.1250 C   0  0  0  0  0  0  0  0  0  0  0  0
   56.2210   22.0880   43.0440 O   0  0  0  0  0  0  0  0  0  0  0  0
   57.1760   21.8100   44.0610 C   0  0  0  0  0  0  0  0  0  0  0  0
   57.8980   23.0620   44.5880 C   0  0  0  0  0  0  0  0  0  0  0  0
   58.5640   35.5538   46.3244 H   0  0  0  0  0  0  0  0  0  0  0  0
   59.9230   35.4630   45.1533 H   0  0  0  0  0  0  0  0  0  0  0  0
   58.6512   34.1945   45.1533 H   0  0  0  0  0  0  0  0  0  0  0  0
   61.5469   33.2284   45.5687 H   0  0  0  0  0  0  0  0  0  0  0  0
   61.8266   34.9369   46.0417 H   0  0  0  0  0  0  0  0  0  0  0  0
   61.4456   35.0564   48.8798 H   0  0  0  0  0  0  0  0  0  0  0  0
   62.7424   34.2975   50.8720 H   0  0  0  0  0  0  0  0  0  0  0  0
   64.2513   32.3147   50.7033 H   0  0  0  0  0  0  0  0  0  0  0  0
   64.4612   31.0844   48.5416 H   0  0  0  0  0  0  0  0  0  0  0  0
   63.1657   31.8337   46.5453 H   0  0  0  0  0  0  0  0  0  0  0  0
   59.2352   34.1232   49.5323 H   0  0  0  0  0  0  0  0  0  0  0  0
   59.3358   33.4965   51.9360 H   0  0  0  0  0  0  0  0  0  0  0  0
   59.4171   31.1002   52.6054 H   0  0  0  0  0  0  0  0  0  0  0  0
   59.3529   29.3167   50.8694 H   0  0  0  0  0  0  0  0  0  0  0  0
   57.9780   30.7030   46.8190 H   0  0  0  0  0  0  0  0  0  0  0  0
   58.8718   28.8804   45.1560 H   0  0  0  0  0  0  0  0  0  0  0  0
   58.4926   27.7541   46.5215 H   0  0  0  0  0  0  0  0  0  0  0  0
   56.9207   26.4748   47.2658 H   0  0  0  0  0  0  0  0  0  0  0  0
   55.5639   25.5815   46.4794 H   0  0  0  0  0  0  0  0  0  0  0  0
   58.5668   25.3427   47.3438 H   0  0  0  0  0  0  0  0  0  0  0  0
   59.3369   24.4075   46.0176 H   0  0  0  0  0  0  0  0  0  0  0  0
   59.4210   26.2018   46.0176 H   0  0  0  0  0  0  0  0  0  0  0  0
   58.1217   27.1739   44.3804 H   0  0  0  0  0  0  0  0  0  0  0  0
   58.5137   25.6267   43.5563 H   0  0  0  0  0  0  0  0  0  0  0  0
   56.8261   26.2418   43.5563 H   0  0  0  0  0  0  0  0  0  0  0  0
   54.9465   23.2922   45.1638 H   0  0  0  0  0  0  0  0  0  0  0  0
   55.1876   24.9684   44.5122 H   0  0  0  0  0  0  0  0  0  0  0  0
   54.6441   23.3602   42.7141 H   0  0  0  0  0  0  0  0  0  0  0  0
   56.3256   24.0603   42.5543 H   0  0  0  0  0  0  0  0  0  0  0  0
   56.6571   21.3279   44.9026 H   0  0  0  0  0  0  0  0  0  0  0  0
   57.9427   21.1602   43.6140 H   0  0  0  0  0  0  0  0  0  0  0  0
   58.6345   22.7596   45.3470 H   0  0  0  0  0  0  0  0  0  0  0  0
   58.3967   23.5601   43.7435 H   0  0  0  0  0  0  0  0  0  0  0  0
  1  2  1  0
  2  3  1  0
  3  4  1  0
  4  5  2  0
  5  6  1  0
  6  7  2  0
  7  8  1  0
  8  9  2  0
  2 10  1  0
 10 11  2  0
 10 12  2  0
 10 13  1  0
 13 14  2  0
 14 15  1  0
 15 16  2  0
 16 17  1  0
 17 18  2  0
 18 19  1  0
 19 20  2  0
 19 21  1  0
 21 22  1  0
 22 23  1  0
 23 24  2  0
 23 25  1  0
 25 26  1  0
 26 27  1  0
 27 28  1  0
 27 29  1  0
 27 30  1  0
 30 31  1  0
 31 32  1  0
 32 33  1  0
 33 34  1  0
 34 35  1  0
  9  4  1  0
 18 13  1  0
 35 30  1  0
  1 36  1  0
  1 37  1  0
  1 38  1  0
  3 39  1  0
  3 40  1  0
  5 41  1  0
  6 42  1  0
  7 43  1  0
  8 44  1  0
  9 45  1  0
 14 46  1  0
 15 47  1  0
 16 48  1  0
 17 49  1  0
 21 50  1  0
 22 51  1  0
 22 52  1  0
 26 53  1  0
 26 54  1  0
 28 55  1  0
 28 56  1  0
 28 57  1  0
 29 58  1  0
 29 59  1  0
 29 60  1  0
 31 61  1  0
 31 62  1  0
 32 63  1  0
 32 64  1  0
 34 65  1  0
 34 66  1  0
 35 67  1  0
 35 68  1  0
M  CHG  1  25  -1
M  END
>  <UniqueID>  (67) 
59

>  <SMILES>  (67) 
CN(Cc1ccccc1)S(=O)(=O)c1ccccc1C(=O)NCC(=O)[N-]CC(C)(C)N1CCOCC1

>  <Energy>  (67) 
94.26883803772233

>  <Genealogy>  (67) 
CN(Cc1ccccc1)S(=O)(=O)c1ccccc1C(=O)NCC(=O)[N-]CC(C)(C)N1CCOCC1 (protonated)
CN(Cc1ccccc1)S(=O)(=O)c1ccccc1C(=O)NCC(=O)[N-]CC(C)(C)N1CCOCC1 (3D coordinates assigned)
CN(Cc1ccccc1)S(=O)(=O)c1ccccc1C(=O)NCC(=O)[N-]CC(C)(C)N1CCOCC1 (nonaromatic ring conformer: 94.26883803772233 kcal/mol)

>  <smiles>  (67) 
CN(Cc1ccccc1)S(=O)(=O)c1ccccc1C(=O)NCC(=O)NCC(C)(C)N1CCOCC1

>  <score_type>  (67) 
oracle

>  <origin>  (67) 
adg

>  <m_score__min__energy>  (67) 
-11.56

>  <m_primary>  (67) 
energy

$$$$
67:0
     RDKit          3D

 40 42  0  0  0  0  0  0  0  0999 V2000
   58.9290   34.0420   46.5410 C   0  0  0  0  0  0  0  0  0  0  0  0
   58.6830   32.7690   46.4120 C   0  0  0  0  0  0  0  0  0  0  0  0
   58.4350   31.4830   46.2820 C   0  0  0  0  0  0  0  0  0  0  0  0
   57.3810   31.0860   45.4450 C   0  0  0  0  0  0  0  0  0  0  0  0
   56.6190   32.0710   44.8200 O   0  0  0  0  0  0  0  0  0  0  0  0
   57.1140   29.7160   45.2220 C   0  0  0  0  0  0  0  0  0  0  0  0
   56.0730   29.2810   44.3710 O   0  0  0  0  0  0  0  0  0  0  0  0
   55.8290   29.6850   43.0280 C   0  0  0  0  0  0  0  0  0  0  0  0
   57.9330   28.7290   45.8360 C   0  0  0  0  0  0  0  0  0  0  0  0
   57.8270   27.4460   45.3770 C   0  0  0  0  0  0  0  0  0  0  0  0
   57.4230   26.2580   46.1680 C   0  0  0  0  0  0  0  0  0  0  0  0
   56.0710   25.9190   46.3970 C   0  0  0  0  0  0  0  0  0  0  0  0
   55.0190   26.7180   45.9490 O   0  0  0  0  0  0  0  0  0  0  0  0
   55.7730   24.7910   47.0930 N   0  0  0  0  0  0  0  0  0  0  0  0
   56.7470   23.9930   47.6000 C   0  0  0  0  0  0  0  0  0  0  0  0
   56.3470   22.6430   48.4230 S   0  0  0  0  0  0  0  0  0  0  0  0
   58.0510   24.3230   47.4320 N   0  0  0  0  0  0  0  0  0  0  0  0
   58.4100   25.4340   46.7390 C   0  0  0  0  0  0  0  0  0  0  0  0
   59.6330   25.7050   46.5980 O   0  0  0  0  0  0  0  0  0  0  0  0
   58.8660   29.1360   46.8440 C   0  0  0  0  0  0  0  0  0  0  0  0
   59.4440   28.2190   47.7570 C   0  0  0  0  0  0  0  0  0  0  0  0
   60.4380   28.6150   48.6670 C   0  0  0  0  0  0  0  0  0  0  0  0
   61.0690   27.7110   49.5350 O   0  0  0  0  0  0  0  0  0  0  0  0
   60.6470   26.3670   49.7470 C   0  0  0  0  0  0  0  0  0  0  0  0
   60.8150   29.9520   48.7220 C   0  0  0  0  0  0  0  0  0  0  0  0
   60.1770   30.8970   47.9240 C   0  0  0  0  0  0  0  0  0  0  0  0
   59.1690   30.5160   47.0070 C   0  0  0  0  0  0  0  0  0  0  0  0
   59.0149   34.4868   47.5434 H   0  0  0  0  0  0  0  0  0  0  0  0
   59.0507   34.6720   45.6475 H   0  0  0  0  0  0  0  0  0  0  0  0
   55.2603   30.6266   43.0259 H   0  0  0  0  0  0  0  0  0  0  0  0
   56.7879   29.8346   42.5101 H   0  0  0  0  0  0  0  0  0  0  0  0
   55.2503   28.9060   42.5101 H   0  0  0  0  0  0  0  0  0  0  0  0
   58.0648   27.2778   44.3163 H   0  0  0  0  0  0  0  0  0  0  0  0
   55.1580   27.5820   45.4410 H   0  0  0  0  0  0  0  0  0  0  0  0
   59.1061   27.1722   47.7529 H   0  0  0  0  0  0  0  0  0  0  0  0
   60.5846   26.1683   50.8271 H   0  0  0  0  0  0  0  0  0  0  0  0
   59.6584   26.2165   49.2888 H   0  0  0  0  0  0  0  0  0  0  0  0
   61.3722   25.6784   49.2888 H   0  0  0  0  0  0  0  0  0  0  0  0
   61.6224   30.2649   49.4003 H   0  0  0  0  0  0  0  0  0  0  0  0
   60.4607   31.9565   48.0074 H   0  0  0  0  0  0  0  0  0  0  0  0
  1  2  2  0
  2  3  2  0
  3  4  1  0
  4  5  1  0
  4  6  2  0
  6  7  1  0
  7  8  1  0
  6  9  1  0
  9 10  2  3
 10 11  1  0
 11 12  2  0
 12 13  1  0
 12 14  1  0
 14 15  1  0
 15 16  2  0
 15 17  1  0
 17 18  1  0
 18 19  2  0
  9 20  1  0
 20 21  2  0
 21 22  1  0
 22 23  1  0
 23 24  1  0
 22 25  2  0
 25 26  1  0
 26 27  2  0
 27  3  1  0
 18 11  1  0
 27 20  1  0
  1 28  1  0
  1 29  1  0
  8 30  1  0
  8 31  1  0
  8 32  1  0
 10 33  1  0
 13 34  1  0
 21 35  1  0
 24 36  1  0
 24 37  1  0
 24 38  1  0
 25 39  1  0
 26 40  1  0
M  CHG  3   5  -1  14  -1  17  -1
M  END
>  <UniqueID>  (68) 
60

>  <SMILES>  (68) 
C=C=c1c([O-])c(OC)c(=Cc2c(O)[n-]c(=S)[n-]c2=O)c2cc(OC)ccc12

>  <Energy>  (68) 
75.69810672579581

>  <Genealogy>  (68) 
C=C=c1c([O-])c(OC)c(=Cc2c(O)[n-]c(=S)[n-]c2=O)c2cc(OC)ccc12 (protonated)
C=C=c1c([O-])c(OC)c(=Cc2c(O)[n-]c(=S)[n-]c2=O)c2cc(OC)ccc12 (3D coordinates assigned)
C=C=c1c([O-])c(OC)c(=Cc2c(O)[n-]c(=S)[n-]c2=O)c2cc(OC)ccc12 (optimized conformer: 75.69810672579581 kcal/mol)

>  <smiles>  (68) 
C=C=c1c(O)c(OC)c(=Cc2c(O)[nH]c(=S)[nH]c2=O)c2cc(OC)ccc12

>  <score_type>  (68) 
oracle

>  <origin>  (68) 
adg

>  <m_score__min__energy>  (68) 
-13.18

>  <m_primary>  (68) 
energy

$$$$
68:0
     RDKit          3D

 52 54  0  0  0  0  0  0  0  0999 V2000
   62.9120   29.5470   51.7140 C   0  0  0  0  0  0  0  0  0  0  0  0
   61.4900   29.2530   51.8980 N   0  0  0  0  0  0  0  0  0  0  0  0
   61.0790   28.6490   53.1630 C   0  0  0  0  0  0  0  0  0  0  0  0
   60.6740   29.0390   50.7350 C   0  0  0  0  0  0  0  0  0  0  0  0
   60.8860   27.8940   49.9490 C   0  0  0  0  0  0  0  0  0  0  0  0
   60.1110   27.6600   48.8130 C   0  0  0  0  0  0  0  0  0  0  0  0
   59.1070   28.5610   48.4520 C   0  0  0  0  0  0  0  0  0  0  0  0
   58.8840   29.7030   49.2250 C   0  0  0  0  0  0  0  0  0  0  0  0
   59.6650   29.9570   50.3690 C   0  0  0  0  0  0  0  0  0  0  0  0
   59.3490   31.4250   51.3060 S   0  0  0  0  0  0  0  0  0  0  0  0
   60.5760   31.7540   52.1070 O   0  0  0  0  0  0  0  0  0  0  0  0
   58.1980   31.2150   52.2480 O   0  0  0  0  0  0  0  0  0  0  0  0
   58.9760   32.7680   50.2740 N   0  0  0  0  0  0  0  0  0  0  0  0
   59.7120   33.1300   49.0970 C   0  0  0  0  0  0  0  0  0  0  0  0
   61.0470   32.7250   48.9940 C   0  0  0  0  0  0  0  0  0  0  0  0
   61.7790   32.9930   47.8360 C   0  0  0  0  0  0  0  0  0  0  0  0
   61.1890   33.6890   46.7790 C   0  0  0  0  0  0  0  0  0  0  0  0
   59.8730   34.1630   46.8930 C   0  0  0  0  0  0  0  0  0  0  0  0
   59.2200   34.8840   45.7790 C   0  0  0  0  0  0  0  0  0  0  0  0
   58.4850   34.3140   44.8070 C   0  0  0  0  0  0  0  0  0  0  0  0
   58.5730   32.9000   44.3790 C   0  0  0  0  0  0  0  0  0  0  0  0
   58.3980   32.6280   43.1620 O   0  0  0  0  0  0  0  0  0  0  0  0
   58.8490   31.8270   45.2880 N   0  0  0  0  0  0  0  0  0  0  0  0
   58.2220   30.6890   45.3190 C   0  0  0  0  0  0  0  0  0  0  0  0
   56.8880   30.6000   45.1140 N   0  0  0  0  0  0  0  0  0  0  0  0
   56.4730   29.3080   45.0800 C   0  0  0  0  0  0  0  0  0  0  0  0
   55.1470   28.9770   44.8330 O   0  0  0  0  0  0  0  0  0  0  0  0
   57.4740   28.3550   45.2750 C   0  0  0  0  0  0  0  0  0  0  0  0
   57.3400   26.8700   45.1220 C   0  0  0  0  0  0  0  0  0  0  0  0
   56.4500   26.2700   46.1680 C   0  0  0  0  0  0  0  0  0  0  0  0
   56.9680   25.7720   47.2020 O   0  0  0  0  0  0  0  0  0  0  0  0
   55.0650   26.3470   46.0690 O   0  0  0  0  0  0  0  0  0  0  0  0
   58.9360   29.1690   45.4720 S   0  0  0  0  0  0  0  0  0  0  0  0
   59.1270   33.8560   48.0440 C   0  0  0  0  0  0  0  0  0  0  0  0
   63.3959   29.6470   52.6968 H   0  0  0  0  0  0  0  0  0  0  0  0
   63.3862   28.7279   51.1535 H   0  0  0  0  0  0  0  0  0  0  0  0
   63.0225   30.4870   51.1535 H   0  0  0  0  0  0  0  0  0  0  0  0
   61.4811   29.2399   53.9992 H   0  0  0  0  0  0  0  0  0  0  0  0
   59.9807   28.6314   53.2212 H   0  0  0  0  0  0  0  0  0  0  0  0
   61.4658   27.6209   53.2212 H   0  0  0  0  0  0  0  0  0  0  0  0
   61.6698   27.1759   50.2318 H   0  0  0  0  0  0  0  0  0  0  0  0
   60.2910   26.7642   48.2005 H   0  0  0  0  0  0  0  0  0  0  0  0
   58.4923   28.3716   47.5597 H   0  0  0  0  0  0  0  0  0  0  0  0
   58.0916   30.4098   48.9377 H   0  0  0  0  0  0  0  0  0  0  0  0
   61.5228   32.1922   49.8305 H   0  0  0  0  0  0  0  0  0  0  0  0
   62.8228   32.6552   47.7560 H   0  0  0  0  0  0  0  0  0  0  0  0
   61.7575   33.8663   45.8541 H   0  0  0  0  0  0  0  0  0  0  0  0
   59.3456   35.9762   45.7421 H   0  0  0  0  0  0  0  0  0  0  0  0
   57.7568   34.9531   44.2862 H   0  0  0  0  0  0  0  0  0  0  0  0
   56.9167   26.6530   44.1301 H   0  0  0  0  0  0  0  0  0  0  0  0
   58.3406   26.4276   45.2364 H   0  0  0  0  0  0  0  0  0  0  0  0
   58.0803   34.1852   48.1216 H   0  0  0  0  0  0  0  0  0  0  0  0
  1  2  1  0
  2  3  1  0
  2  4  1  0
  4  5  2  0
  5  6  1  0
  6  7  2  0
  7  8  1  0
  8  9  2  0
  9 10  1  0
 10 11  2  0
 10 12  2  0
 10 13  1  0
 13 14  1  0
 14 15  2  0
 15 16  1  0
 16 17  2  0
 17 18  1  0
 18 19  1  0
 19 20  2  3
 20 21  1  0
 21 22  2  0
 21 23  1  0
 23 24  2  3
 24 25  1  0
 25 26  1  0
 26 27  1  0
 26 28  2  0
 28 29  1  0
 29 30  1  0
 30 31  2  0
 30 32  1  0
 28 33  1  0
 18 34  2  0
  9  4  1  0
 34 14  1  0
 33 24  1  0
  1 35  1  0
  1 36  1  0
  1 37  1  0
  3 38  1  0
  3 39  1  0
  3 40  1  0
  5 41  1  0
  6 42  1  0
  7 43  1  0
  8 44  1  0
 15 45  1  0
 16 46  1  0
 17 47  1  0
 19 48  1  0
 20 49  1  0
 29 50  1  0
 29 51  1  0
 34 52  1  0
M  CHG  4  13  -1  25  -1  27  -1  32  -1
M  END
>  <UniqueID>  (69) 
61

>  <SMILES>  (69) 
CN(C)c1ccccc1S(=O)(=O)[N-]c1cccc(C=CC(=O)N=c2[n-]c([O-])c(CC(=O)[O-])s2)c1

>  <Energy>  (69) 
103.66512561235349

>  <Genealogy>  (69) 
CN(C)c1ccccc1S(=O)(=O)[N-]c1cccc(C=CC(=O)N=c2[n-]c([O-])c(CC(=O)[O-])s2)c1 (protonated)
CN(C)c1ccccc1S(=O)(=O)[N-]c1cccc(C=CC(=O)N=c2[n-]c([O-])c(CC(=O)[O-])s2)c1 (3D coordinates assigned)
CN(C)c1ccccc1S(=O)(=O)[N-]c1cccc(C=CC(=O)N=c2[n-]c([O-])c(CC(=O)[O-])s2)c1 (optimized conformer: 103.66512561235349 kcal/mol)

>  <smiles>  (69) 
CN(C)c1ccccc1S(=O)(=O)Nc1cccc(C=CC(=O)N=c2[nH]c(O)c(CC(=O)O)s2)c1

>  <score_type>  (69) 
oracle

>  <origin>  (69) 
adg

>  <m_score__min__energy>  (69) 
-18.030000000000001

>  <m_primary>  (69) 
energy

$$$$
69:0
     RDKit          3D

 58 61  0  0  0  0  0  0  0  0999 V2000
   57.7780   24.5590   44.2540 C   0  0  0  0  0  0  0  0  0  0  0  0
   57.5630   26.0500   44.2130 C   0  0  0  0  0  0  0  0  0  0  0  0
   57.8980   26.7380   43.0330 C   0  0  0  0  0  0  0  0  0  0  0  0
   57.6830   28.1110   42.9210 C   0  0  0  0  0  0  0  0  0  0  0  0
   57.1310   28.8250   43.9880 C   0  0  0  0  0  0  0  0  0  0  0  0
   56.8530   30.5600   43.8590 S   0  0  0  0  0  0  0  0  0  0  0  0
   56.7720   30.9640   42.4130 O   0  0  0  0  0  0  0  0  0  0  0  0
   55.5390   30.8830   44.5170 O   0  0  0  0  0  0  0  0  0  0  0  0
   58.1500   31.4240   44.6520 N   0  0  0  0  0  0  0  0  0  0  0  0
   58.5090   32.6550   43.8940 C   0  0  0  0  0  0  0  0  0  0  0  0
   57.9080   33.9280   44.5090 C   0  0  0  0  0  0  0  0  0  0  0  0
   58.3930   34.1230   45.9560 C   0  0  0  0  0  0  0  0  0  0  0  0
   58.6320   32.7900   46.6870 C   0  0  0  0  0  0  0  0  0  0  0  0
   57.7950   31.6630   46.0730 C   0  0  0  0  0  0  0  0  0  0  0  0
   56.8130   28.1600   45.1750 C   0  0  0  0  0  0  0  0  0  0  0  0
   57.0270   26.7750   45.3140 C   0  0  0  0  0  0  0  0  0  0  0  0
   56.6680   26.1330   46.6080 C   0  0  0  0  0  0  0  0  0  0  0  0
   55.6220   25.4310   46.6880 O   0  0  0  0  0  0  0  0  0  0  0  0
   57.4660   26.3180   47.7430 O   0  0  0  0  0  0  0  0  0  0  0  0
   58.6840   25.6090   47.9730 C   0  0  0  0  0  0  0  0  0  0  0  0
   59.7010   25.9210   46.9120 C   0  0  0  0  0  0  0  0  0  0  0  0
   59.9450   25.0610   46.0230 O   0  0  0  0  0  0  0  0  0  0  0  0
   60.4120   27.1730   46.8980 N   0  0  0  0  0  0  0  0  0  0  0  0
   60.8530   27.7160   45.6030 C   0  0  0  0  0  0  0  0  0  0  0  0
   60.1600   29.0170   45.3210 C   0  0  0  0  0  0  0  0  0  0  0  0
   59.9580   29.3880   44.1350 O   0  0  0  0  0  0  0  0  0  0  0  0
   59.8020   29.8720   46.4070 N   0  0  0  0  0  0  0  0  0  0  0  0
   59.9820   29.4330   47.7560 C   0  0  0  0  0  0  0  0  0  0  0  0
   59.8280   30.3380   48.8110 C   0  0  0  0  0  0  0  0  0  0  0  0
   60.0320   29.9190   50.1280 C   0  0  0  0  0  0  0  0  0  0  0  0
   60.3970   28.5980   50.3930 C   0  0  0  0  0  0  0  0  0  0  0  0
   60.5390   27.6830   49.3450 C   0  0  0  0  0  0  0  0  0  0  0  0
   60.3140   28.0890   48.0150 C   0  0  0  0  0  0  0  0  0  0  0  0
   57.8263   24.2242   45.3007 H   0  0  0  0  0  0  0  0  0  0  0  0
   56.9434   24.0541   43.7456 H   0  0  0  0  0  0  0  0  0  0  0  0
   58.7213   24.3104   43.7456 H   0  0  0  0  0  0  0  0  0  0  0  0
   58.3351   26.1860   42.1879 H   0  0  0  0  0  0  0  0  0  0  0  0
   57.9486   28.6337   41.9903 H   0  0  0  0  0  0  0  0  0  0  0  0
   58.9810   30.7870   44.6350 H   0  0  0  0  0  0  0  0  0  0  0  0
   59.6045   32.7536   43.8820 H   0  0  0  0  0  0  0  0  0  0  0  0
   58.0980   32.5511   42.8790 H   0  0  0  0  0  0  0  0  0  0  0  0
   58.2129   34.7968   43.9072 H   0  0  0  0  0  0  0  0  0  0  0  0
   56.8124   33.8301   44.5167 H   0  0  0  0  0  0  0  0  0  0  0  0
   59.3364   34.6884   45.9378 H   0  0  0  0  0  0  0  0  0  0  0  0
   57.6050   34.6639   46.5005 H   0  0  0  0  0  0  0  0  0  0  0  0
   59.6974   32.5265   46.6134 H   0  0  0  0  0  0  0  0  0  0  0  0
   58.3340   32.9115   47.7389 H   0  0  0  0  0  0  0  0  0  0  0  0
   57.9689   30.7389   46.6437 H   0  0  0  0  0  0  0  0  0  0  0  0
   56.7369   31.9609   46.1156 H   0  0  0  0  0  0  0  0  0  0  0  0
   56.3881   28.7282   46.0156 H   0  0  0  0  0  0  0  0  0  0  0  0
   59.0883   25.8985   48.9542 H   0  0  0  0  0  0  0  0  0  0  0  0
   58.4705   24.5303   47.9454 H   0  0  0  0  0  0  0  0  0  0  0  0
   61.9400   27.8823   45.6304 H   0  0  0  0  0  0  0  0  0  0  0  0
   60.6018   26.9972   44.8092 H   0  0  0  0  0  0  0  0  0  0  0  0
   59.5460   31.3808   48.6036 H   0  0  0  0  0  0  0  0  0  0  0  0
   59.9049   30.6308   50.9570 H   0  0  0  0  0  0  0  0  0  0  0  0
   60.5735   28.2756   51.4298 H   0  0  0  0  0  0  0  0  0  0  0  0
   60.8272   26.6434   49.5598 H   0  0  0  0  0  0  0  0  0  0  0  0
  1  2  1  0
  2  3  2  0
  3  4  1  0
  4  5  2  0
  5  6  1  0
  6  7  2  0
  6  8  2  0
  6  9  1  0
  9 10  1  0
 10 11  1  0
 11 12  1  0
 12 13  1  0
 13 14  1  0
  5 15  1  0
 15 16  2  0
 16 17  1  0
 17 18  2  0
 17 19  1  0
 19 20  1  0
 20 21  1  0
 21 22  2  0
 21 23  1  0
 23 24  1  0
 24 25  1  0
 25 26  2  0
 25 27  1  0
 27 28  1  0
 28 29  2  0
 29 30  1  0
 30 31  2  0
 31 32  1  0
 32 33  2  0
 16  2  1  0
 33 23  1  0
 14  9  1  0
 33 28  1  0
  1 34  1  0
  1 35  1  0
  1 36  1  0
  3 37  1  0
  4 38  1  0
  9 39  1  0
 10 40  1  0
 10 41  1  0
 11 42  1  0
 11 43  1  0
 12 44  1  0
 12 45  1  0
 13 46  1  0
 13 47  1  0
 14 48  1  0
 14 49  1  0
 15 50  1  0
 20 51  1  0
 20 52  1  0
 24 53  1  0
 24 54  1  0
 29 55  1  0
 30 56  1  0
 31 57  1  0
 32 58  1  0
M  CHG  2   9   1  27  -1
M  END
>  <UniqueID>  (70) 
62

>  <SMILES>  (70) 
Cc1ccc(S(=O)(=O)[NH+]2CCCCC2)cc1C(=O)OCC(=O)N1CC(=O)[N-]c2ccccc21

>  <Energy>  (70) 
80.6238117428766

>  <Genealogy>  (70) 
Cc1ccc(S(=O)(=O)[NH+]2CCCCC2)cc1C(=O)OCC(=O)N1CC(=O)[N-]c2ccccc21 (protonated)
Cc1ccc(S(=O)(=O)[NH+]2CCCCC2)cc1C(=O)OCC(=O)N1CC(=O)[N-]c2ccccc21 (3D coordinates assigned)
Cc1ccc(S(=O)(=O)[NH+]2CCCCC2)cc1C(=O)OCC(=O)N1CC(=O)[N-]c2ccccc21 (nonaromatic ring conformer: 80.6238117428766 kcal/mol)

>  <smiles>  (70) 
Cc1ccc(S(=O)(=O)N2CCCCC2)cc1C(=O)OCC(=O)N1CC(=O)Nc2ccccc21

>  <score_type>  (70) 
oracle

>  <origin>  (70) 
adg

>  <m_score__min__energy>  (70) 
-10.49

>  <m_primary>  (70) 
energy

$$$$
70:0
     RDKit          3D

 45 48  0  0  0  0  0  0  0  0999 V2000
   58.6654   33.5850   48.9702 H   0  0  0  0  0  0  0  0  0  0  0  0
   58.7210   33.4870   47.8760 C   0  0  0  0  0  0  0  0  0  0  0  0
   57.4110   33.4050   46.8250 S   0  0  0  0  0  0  0  0  0  0  0  0
   58.3730   33.2880   45.4560 C   0  0  0  0  0  0  0  0  0  0  0  0
   57.8630   33.1250   44.0600 C   0  0  0  0  0  0  0  0  0  0  0  0
   58.6864   33.2992   43.3517 H   0  0  0  0  0  0  0  0  0  0  0  0
   57.0550   33.8519   43.8907 H   0  0  0  0  0  0  0  0  0  0  0  0
   57.3200   31.7420   43.8540 C   0  0  0  0  0  0  0  0  0  0  0  0
   57.1650   30.8720   44.8900 N   0  0  0  0  0  0  0  0  0  0  0  0
   56.7080   29.6730   44.4670 C   0  0  0  0  0  0  0  0  0  0  0  0
   56.4750   28.6620   45.2500 N   0  0  0  0  0  0  0  0  0  0  0  0
   57.3860   28.1390   46.2300 C   0  0  0  0  0  0  0  0  0  0  0  0
   57.2340   26.9760   46.6970 O   0  0  0  0  0  0  0  0  0  0  0  0
   58.4860   28.9460   46.6650 N   0  0  0  0  0  0  0  0  0  0  0  0
   58.5990   29.9010   46.2530 H   0  0  0  0  0  0  0  0  0  0  0  0
   59.4650   28.4870   47.6490 C   0  0  0  0  0  0  0  0  0  0  0  0
   59.0791   27.5881   48.1522 H   0  0  0  0  0  0  0  0  0  0  0  0
   60.4083   28.2555   47.1327 H   0  0  0  0  0  0  0  0  0  0  0  0
   59.7200   29.5590   48.6750 C   0  0  0  0  0  0  0  0  0  0  0  0
   58.6410   30.1780   49.3280 C   0  0  0  0  0  0  0  0  0  0  0  0
   57.6092   29.8972   49.0699 H   0  0  0  0  0  0  0  0  0  0  0  0
   58.8760   31.1520   50.3070 C   0  0  0  0  0  0  0  0  0  0  0  0
   58.0291   31.6389   50.8127 H   0  0  0  0  0  0  0  0  0  0  0  0
   60.1890   31.5060   50.6420 C   0  0  0  0  0  0  0  0  0  0  0  0
   60.3727   32.2709   51.4109 H   0  0  0  0  0  0  0  0  0  0  0  0
   61.2650   30.8890   50.0010 C   0  0  0  0  0  0  0  0  0  0  0  0
   62.2954   31.1659   50.2684 H   0  0  0  0  0  0  0  0  0  0  0  0
   61.0350   29.9190   49.0190 C   0  0  0  0  0  0  0  0  0  0  0  0
   61.8854   29.4367   48.5147 H   0  0  0  0  0  0  0  0  0  0  0  0
   56.4970   29.6310   42.8040 S   0  0  0  0  0  0  0  0  0  0  0  0
   57.0010   31.2260   42.5990 C   0  0  0  0  0  0  0  0  0  0  0  0
   57.0667   31.7653   41.6425 H   0  0  0  0  0  0  0  0  0  0  0  0
   59.6850   33.2940   45.7760 N   0  0  0  0  0  0  0  0  0  0  0  0
   59.8930   33.4090   47.1180 C   0  0  0  0  0  0  0  0  0  0  0  0
   61.2630   33.4220   47.6930 C   0  0  0  0  0  0  0  0  0  0  0  0
   62.3150   32.6840   47.1100 C   0  0  0  0  0  0  0  0  0  0  0  0
   62.1233   32.0754   46.2140 H   0  0  0  0  0  0  0  0  0  0  0  0
   63.5990   32.7200   47.6620 C   0  0  0  0  0  0  0  0  0  0  0  0
   64.4128   32.1453   47.1957 H   0  0  0  0  0  0  0  0  0  0  0  0
   63.8510   33.4830   48.8030 C   0  0  0  0  0  0  0  0  0  0  0  0
   64.8637   33.5142   49.2313 H   0  0  0  0  0  0  0  0  0  0  0  0
   62.8170   34.2070   49.4010 C   0  0  0  0  0  0  0  0  0  0  0  0
   63.0147   34.8012   50.3053 H   0  0  0  0  0  0  0  0  0  0  0  0
   61.5300   34.1780   48.8520 C   0  0  0  0  0  0  0  0  0  0  0  0
   60.7204   34.7499   49.3289 H   0  0  0  0  0  0  0  0  0  0  0  0
  1  2  1  0
  2  3  1  0
  3  4  1  0
  4  5  1  0
  5  6  1  0
  5  7  1  0
  5  8  1  0
  8  9  1  0
  9 10  1  0
 10 11  2  0
 11 12  1  0
 12 13  2  0
 12 14  1  0
 14 15  1  0
 14 16  1  0
 16 17  1  0
 16 18  1  0
 16 19  1  0
 19 20  2  0
 20 21  1  0
 20 22  1  0
 22 23  1  0
 22 24  2  0
 24 25  1  0
 24 26  1  0
 26 27  1  0
 26 28  2  0
 28 29  1  0
 10 30  1  0
 30 31  1  0
 31 32  1  0
  4 33  2  0
 33 34  1  0
 34 35  1  0
 35 36  2  0
 36 37  1  0
 36 38  1  0
 38 39  1  0
 38 40  2  0
 40 41  1  0
 40 42  1  0
 42 43  1  0
 42 44  2  0
 44 45  1  0
 34  2  2  0
 44 35  1  0
 31  8  2  0
 28 19  1  0
M  CHG  1   9  -1
M  END
>  <UniqueID>  (71) 
63

>  <SMILES>  (71) 
O=C(/N=c1\[n-]c(Cc2nc(-c3ccccc3)cs2)cs1)NCc1ccccc1

>  <Energy>  (71) 
106.23462536208956

>  <Genealogy>  (71) 
O=C(N=c1[n-]c(Cc2nc(-c3ccccc3)cs2)cs1)NCc1ccccc1 (protonated)
O=C(/N=c1\[n-]c(Cc2nc(-c3ccccc3)cs2)cs1)NCc1ccccc1 (cis-trans isomerization)
O=C(/N=c1\[n-]c(Cc2nc(-c3ccccc3)cs2)cs1)NCc1ccccc1 (3D coordinates assigned)
O=C(/N=c1\[n-]c(Cc2nc(-c3ccccc3)cs2)cs1)NCc1ccccc1 (optimized conformer: 106.23462536208956 kcal/mol)

>  <smiles>  (71) 
O=C(N=c1[nH]c(Cc2nc(-c3ccccc3)cs2)cs1)NCc1ccccc1

>  <score_type>  (71) 
oracle

>  <origin>  (71) 
adg

>  <m_score__min__energy>  (71) 
-10.210000000000001

>  <m_primary>  (71) 
energy

$$$$
71:0
     RDKit          3D

 38 40  0  0  0  0  0  0  0  0999 V2000
   59.2710   32.9710   49.5000 C   0  0  0  0  0  0  0  0  0  0  0  0
   60.5780   33.2330   48.7980 C   0  0  0  0  0  0  0  0  0  0  0  0
   61.5860   33.9270   49.4900 C   0  0  0  0  0  0  0  0  0  0  0  0
   62.8030   34.2160   48.8710 C   0  0  0  0  0  0  0  0  0  0  0  0
   63.0320   33.8130   47.5560 C   0  0  0  0  0  0  0  0  0  0  0  0
   62.0500   33.1060   46.8590 C   0  0  0  0  0  0  0  0  0  0  0  0
   60.8280   32.7910   47.4740 C   0  0  0  0  0  0  0  0  0  0  0  0
   59.8340   32.0170   46.7020 C   0  0  0  0  0  0  0  0  0  0  0  0
   58.6740   32.4680   46.0830 C   0  0  0  0  0  0  0  0  0  0  0  0
   58.1530   33.8690   46.0440 C   0  0  0  0  0  0  0  0  0  0  0  0
   58.0460   31.4200   45.5120 N   0  0  0  0  0  0  0  0  0  0  0  0
   58.7360   30.3150   45.7600 N   0  0  0  0  0  0  0  0  0  0  0  0
   58.3560   29.0000   45.3080 C   0  0  0  0  0  0  0  0  0  0  0  0
   58.9420   28.4600   44.1530 C   0  0  0  0  0  0  0  0  0  0  0  0
   58.5750   27.1890   43.7050 C   0  0  0  0  0  0  0  0  0  0  0  0
   57.6180   26.4470   44.3990 C   0  0  0  0  0  0  0  0  0  0  0  0
   57.0110   26.9730   45.5520 C   0  0  0  0  0  0  0  0  0  0  0  0
   55.9880   26.1950   46.2860 C   0  0  0  0  0  0  0  0  0  0  0  0
   56.3240   25.3960   47.2000 O   0  0  0  0  0  0  0  0  0  0  0  0
   54.6400   26.3370   45.9780 O   0  0  0  0  0  0  0  0  0  0  0  0
   57.3850   28.2540   45.9990 C   0  0  0  0  0  0  0  0  0  0  0  0
   59.8240   30.6540   46.4840 C   0  0  0  0  0  0  0  0  0  0  0  0
   60.7140   29.8470   46.8640 O   0  0  0  0  0  0  0  0  0  0  0  0
   59.4267   33.0022   50.5885 H   0  0  0  0  0  0  0  0  0  0  0  0
   58.5395   33.7404   49.2120 H   0  0  0  0  0  0  0  0  0  0  0  0
   58.8925   31.9791   49.2120 H   0  0  0  0  0  0  0  0  0  0  0  0
   61.4139   34.2451   50.5288 H   0  0  0  0  0  0  0  0  0  0  0  0
   63.5829   34.7626   49.4215 H   0  0  0  0  0  0  0  0  0  0  0  0
   63.9877   34.0524   47.0668 H   0  0  0  0  0  0  0  0  0  0  0  0
   62.2353   32.7937   45.8207 H   0  0  0  0  0  0  0  0  0  0  0  0
   58.0158   34.2379   47.0712 H   0  0  0  0  0  0  0  0  0  0  0  0
   58.8718   34.5129   45.5161 H   0  0  0  0  0  0  0  0  0  0  0  0
   57.1881   33.8868   45.5161 H   0  0  0  0  0  0  0  0  0  0  0  0
   57.1420   31.4580   44.9880 H   0  0  0  0  0  0  0  0  0  0  0  0
   59.6938   29.0403   43.5979 H   0  0  0  0  0  0  0  0  0  0  0  0
   59.0423   26.7709   42.8012 H   0  0  0  0  0  0  0  0  0  0  0  0
   57.3375   25.4452   44.0415 H   0  0  0  0  0  0  0  0  0  0  0  0
   56.9127   28.6760   46.8984 H   0  0  0  0  0  0  0  0  0  0  0  0
  1  2  1  0
  2  3  2  0
  3  4  1  0
  4  5  2  0
  5  6  1  0
  6  7  2  0
  7  8  1  0
  8  9  2  0
  9 10  1  0
  9 11  1  0
 11 12  1  0
 12 13  1  0
 13 14  2  0
 14 15  1  0
 15 16  2  0
 16 17  1  0
 17 18  1  0
 18 19  2  0
 18 20  1  0
 17 21  2  0
 12 22  1  0
 22 23  2  0
  7  2  1  0
 22  8  1  0
 21 13  1  0
  1 24  1  0
  1 25  1  0
  1 26  1  0
  3 27  1  0
  4 28  1  0
  5 29  1  0
  6 30  1  0
 10 31  1  0
 10 32  1  0
 10 33  1  0
 11 34  1  0
 14 35  1  0
 15 36  1  0
 16 37  1  0
 21 38  1  0
M  CHG  1  20  -1
M  END
>  <UniqueID>  (72) 
64

>  <SMILES>  (72) 
Cc1ccccc1-c1c(C)[nH]n(-c2cccc(C(=O)[O-])c2)c1=O

>  <Energy>  (72) 
84.97341731589155

>  <Genealogy>  (72) 
Cc1ccccc1-c1c(C)[nH]n(-c2cccc(C(=O)[O-])c2)c1=O (protonated)
Cc1ccccc1-c1c(C)[nH]n(-c2cccc(C(=O)[O-])c2)c1=O (3D coordinates assigned)
Cc1ccccc1-c1c(C)[nH]n(-c2cccc(C(=O)[O-])c2)c1=O (optimized conformer: 84.97341731589155 kcal/mol)

>  <smiles>  (72) 
Cc1ccccc1-c1c(C)[nH]n(-c2cccc(C(=O)O)c2)c1=O

>  <score_type>  (72) 
oracle

>  <origin>  (72) 
adg

>  <m_score__min__energy>  (72) 
-10.57

>  <m_primary>  (72) 
energy

$$$$
72:0
     RDKit          3D

 43 45  0  0  0  0  0  0  0  0999 V2000
   55.2613   31.5331   44.0702 H   0  0  0  0  0  0  0  0  0  0  0  0
   55.8760   30.6590   44.3310 C   0  0  0  0  0  0  0  0  0  0  0  0
   55.3490   29.5240   44.8590 N   0  0  0  0  0  0  0  0  0  0  0  0
   56.3030   28.5980   45.1040 C   0  0  0  0  0  0  0  0  0  0  0  0
   56.0820   27.4210   45.6120 N   0  0  0  0  0  0  0  0  0  0  0  0
   56.8980   26.6830   46.5390 C   0  0  0  0  0  0  0  0  0  0  0  0
   56.4180   25.6370   47.0530 O   0  0  0  0  0  0  0  0  0  0  0  0
   58.2920   27.1060   46.9130 C   0  0  0  0  0  0  0  0  0  0  0  0
   58.8320   27.4163   46.0063 H   0  0  0  0  0  0  0  0  0  0  0  0
   58.8065   26.2577   47.3882 H   0  0  0  0  0  0  0  0  0  0  0  0
   58.2520   28.1970   47.8330 O   0  0  0  0  0  0  0  0  0  0  0  0
   59.1300   29.2900   47.8040 C   0  0  0  0  0  0  0  0  0  0  0  0
   60.1460   29.3020   46.8430 C   0  0  0  0  0  0  0  0  0  0  0  0
   60.2367   28.4649   46.1352 H   0  0  0  0  0  0  0  0  0  0  0  0
   61.0470   30.3680   46.7740 C   0  0  0  0  0  0  0  0  0  0  0  0
   61.8396   30.3621   46.0113 H   0  0  0  0  0  0  0  0  0  0  0  0
   60.9510   31.4490   47.6700 C   0  0  0  0  0  0  0  0  0  0  0  0
   61.9180   32.5760   47.5830 C   0  0  0  0  0  0  0  0  0  0  0  0
   61.5260   33.7560   47.7950 O   0  0  0  0  0  0  0  0  0  0  0  0
   63.3630   32.3560   47.2480 C   0  0  0  0  0  0  0  0  0  0  0  0
   63.9454   32.2673   48.1770 H   0  0  0  0  0  0  0  0  0  0  0  0
   63.4666   31.4317   46.6606 H   0  0  0  0  0  0  0  0  0  0  0  0
   63.7370   33.2076   46.6606 H   0  0  0  0  0  0  0  0  0  0  0  0
   59.9270   31.4340   48.6370 C   0  0  0  0  0  0  0  0  0  0  0  0
   59.8349   32.2699   49.3461 H   0  0  0  0  0  0  0  0  0  0  0  0
   59.0260   30.3660   48.7040 C   0  0  0  0  0  0  0  0  0  0  0  0
   58.2316   30.3677   49.4649 H   0  0  0  0  0  0  0  0  0  0  0  0
   57.8360   29.1440   44.6840 S   0  0  0  0  0  0  0  0  0  0  0  0
   57.2540   30.6290   44.1460 C   0  0  0  0  0  0  0  0  0  0  0  0
   58.0980   31.7620   43.6560 C   0  0  0  0  0  0  0  0  0  0  0  0
   59.0588   31.3693   43.2918 H   0  0  0  0  0  0  0  0  0  0  0  0
   57.5712   32.2771   42.8392 H   0  0  0  0  0  0  0  0  0  0  0  0
   58.3500   32.7370   44.7720 C   0  0  0  0  0  0  0  0  0  0  0  0
   57.7470   32.5490   46.0280 C   0  0  0  0  0  0  0  0  0  0  0  0
   57.1107   31.6692   46.2041 H   0  0  0  0  0  0  0  0  0  0  0  0
   57.9530   33.4760   47.0540 C   0  0  0  0  0  0  0  0  0  0  0  0
   57.4840   33.3206   48.0368 H   0  0  0  0  0  0  0  0  0  0  0  0
   58.7540   34.6000   46.8330 C   0  0  0  0  0  0  0  0  0  0  0  0
   58.9178   35.3264   47.6426 H   0  0  0  0  0  0  0  0  0  0  0  0
   59.3470   34.8010   45.5830 C   0  0  0  0  0  0  0  0  0  0  0  0
   59.9747   35.6874   45.4089 H   0  0  0  0  0  0  0  0  0  0  0  0
   59.1430   33.8760   44.5530 C   0  0  0  0  0  0  0  0  0  0  0  0
   59.6051   34.0412   43.5685 H   0  0  0  0  0  0  0  0  0  0  0  0
  1  2  1  0
  2  3  1  0
  3  4  1  0
  4  5  2  0
  5  6  1  0
  6  7  2  0
  6  8  1  0
  8  9  1  0
  8 10  1  0
  8 11  1  0
 11 12  1  0
 12 13  2  0
 13 14  1  0
 13 15  1  0
 15 16  1  0
 15 17  2  0
 17 18  1  0
 18 19  2  0
 18 20  1  0
 20 21  1  0
 20 22  1  0
 20 23  1  0
 17 24  1  0
 24 25  1  0
 24 26  2  0
 26 27  1  0
  4 28  1  0
 28 29  1  0
 29 30  1  0
 30 31  1  0
 30 32  1  0
 30 33  1  0
 33 34  2  0
 34 35  1  0
 34 36  1  0
 36 37  1  0
 36 38  2  0
 38 39  1  0
 38 40  1  0
 40 41  1  0
 40 42  2  0
 42 43  1  0
 29  2  2  0
 42 33  1  0
 26 12  1  0
M  CHG  1   3  -1
M  END
>  <UniqueID>  (73) 
65

>  <SMILES>  (73) 
CC(=O)c1ccc(OCC(=O)/N=c2\[n-]cc(Cc3ccccc3)s2)cc1

>  <Energy>  (73) 
76.56220895306133

>  <Genealogy>  (73) 
CC(=O)c1ccc(OCC(=O)N=c2[n-]cc(Cc3ccccc3)s2)cc1 (protonated)
CC(=O)c1ccc(OCC(=O)/N=c2\[n-]cc(Cc3ccccc3)s2)cc1 (cis-trans isomerization)
CC(=O)c1ccc(OCC(=O)/N=c2\[n-]cc(Cc3ccccc3)s2)cc1 (3D coordinates assigned)
CC(=O)c1ccc(OCC(=O)/N=c2\[n-]cc(Cc3ccccc3)s2)cc1 (optimized conformer: 76.56220895306133 kcal/mol)

>  <smiles>  (73) 
CC(=O)c1ccc(OCC(=O)N=c2[nH]cc(Cc3ccccc3)s2)cc1

>  <score_type>  (73) 
oracle

>  <origin>  (73) 
adg

>  <m_score__min__energy>  (73) 
-10.470000000000001

>  <m_primary>  (73) 
energy

$$$$
73:0
     RDKit          3D

 39 42  0  0  0  0  0  0  0  0999 V2000
   55.8630   30.3080   44.7420 O   0  0  0  0  0  0  0  0  0  0  0  0
   57.1610   30.6650   44.0740 S   0  0  0  0  0  0  0  0  0  0  0  0
   56.9620   30.8110   42.5910 O   0  0  0  0  0  0  0  0  0  0  0  0
   58.3440   29.4330   44.3840 N   0  0  0  0  0  0  0  0  0  0  0  0
   58.1870   28.3750   45.1310 C   0  0  0  0  0  0  0  0  0  0  0  0
   57.1100   27.5410   44.9840 N   0  0  0  0  0  0  0  0  0  0  0  0
   56.9570   26.4420   45.7760 C   0  0  0  0  0  0  0  0  0  0  0  0
   55.8520   25.5870   45.6250 C   0  0  0  0  0  0  0  0  0  0  0  0
   55.7160   24.4680   46.4520 C   0  0  0  0  0  0  0  0  0  0  0  0
   56.6760   24.1950   47.4310 C   0  0  0  0  0  0  0  0  0  0  0  0
   57.7790   25.0400   47.5880 C   0  0  0  0  0  0  0  0  0  0  0  0
   57.9210   26.1620   46.7640 C   0  0  0  0  0  0  0  0  0  0  0  0
   58.9850   26.9880   46.9070 N   0  0  0  0  0  0  0  0  0  0  0  0
   59.1540   28.0810   46.1140 C   0  0  0  0  0  0  0  0  0  0  0  0
   60.1750   28.8770   46.2820 N   0  0  0  0  0  0  0  0  0  0  0  0
   60.1960   30.1170   47.0090 C   0  0  0  0  0  0  0  0  0  0  0  0
   59.2550   30.4070   48.0180 C   0  0  0  0  0  0  0  0  0  0  0  0
   59.3330   31.6100   48.7260 C   0  0  0  0  0  0  0  0  0  0  0  0
   60.3560   32.5210   48.4510 C   0  0  0  0  0  0  0  0  0  0  0  0
   61.3120   32.2260   47.4750 C   0  0  0  0  0  0  0  0  0  0  0  0
   62.7230   33.4610   47.1130 Br  0  0  0  0  0  0  0  0  0  0  0  0
   61.2360   31.0220   46.7640 C   0  0  0  0  0  0  0  0  0  0  0  0
   57.7410   32.1850   44.7250 C   0  0  0  0  0  0  0  0  0  0  0  0
   58.5140   33.1120   44.0450 C   0  0  0  0  0  0  0  0  0  0  0  0
   58.8210   34.2380   44.8190 C   0  0  0  0  0  0  0  0  0  0  0  0
   58.2880   34.1950   46.1010 C   0  0  0  0  0  0  0  0  0  0  0  0
   57.4340   32.7550   46.2750 S   0  0  0  0  0  0  0  0  0  0  0  0
   56.3830   27.7310   44.2610 H   0  0  0  0  0  0  0  0  0  0  0  0
   55.0941   25.7982   44.8562 H   0  0  0  0  0  0  0  0  0  0  0  0
   54.8504   23.7999   46.3320 H   0  0  0  0  0  0  0  0  0  0  0  0
   56.5634   23.3135   48.0792 H   0  0  0  0  0  0  0  0  0  0  0  0
   58.5339   24.8230   48.3581 H   0  0  0  0  0  0  0  0  0  0  0  0
   58.4577   29.6851   48.2487 H   0  0  0  0  0  0  0  0  0  0  0  0
   58.5873   31.8398   49.5013 H   0  0  0  0  0  0  0  0  0  0  0  0
   60.4091   33.4710   49.0030 H   0  0  0  0  0  0  0  0  0  0  0  0
   61.9988   30.7855   46.0076 H   0  0  0  0  0  0  0  0  0  0  0  0
   58.8511   32.9778   43.0066 H   0  0  0  0  0  0  0  0  0  0  0  0
   59.4270   35.0772   44.4469 H   0  0  0  0  0  0  0  0  0  0  0  0
   58.4043   34.9708   46.8721 H   0  0  0  0  0  0  0  0  0  0  0  0
  1  2  2  0
  2  3  2  0
  2  4  1  0
  4  5  2  3
  5  6  1  0
  6  7  1  0
  7  8  2  0
  8  9  1  0
  9 10  2  0
 10 11  1  0
 11 12  2  0
 12 13  1  0
 13 14  1  0
 14 15  2  3
 15 16  1  0
 16 17  2  0
 17 18  1  0
 18 19  2  0
 19 20  1  0
 20 21  1  0
 20 22  2  0
  2 23  1  0
 23 24  2  0
 24 25  1  0
 25 26  2  0
 26 27  1  0
 14  5  1  0
 22 16  1  0
 27 23  1  0
 12  7  1  0
  6 28  1  0
  8 29  1  0
  9 30  1  0
 10 31  1  0
 11 32  1  0
 17 33  1  0
 18 34  1  0
 19 35  1  0
 22 36  1  0
 24 37  1  0
 25 38  1  0
 26 39  1  0
M  CHG  1  13  -1
M  END
>  <UniqueID>  (74) 
66

>  <SMILES>  (74) 
O=S(=O)(N=c1[nH]c2ccccc2[n-]c1=Nc1cccc(Br)c1)c1cccs1

>  <Energy>  (74) 
86.17129178872352

>  <Genealogy>  (74) 
O=S(=O)(N=c1[nH]c2ccccc2[n-]c1=Nc1cccc(Br)c1)c1cccs1 (protonated)
O=S(=O)(N=c1[nH]c2ccccc2[n-]c1=Nc1cccc(Br)c1)c1cccs1 (3D coordinates assigned)
O=S(=O)(N=c1[nH]c2ccccc2[n-]c1=Nc1cccc(Br)c1)c1cccs1 (optimized conformer: 86.17129178872352 kcal/mol)

>  <smiles>  (74) 
O=S(=O)(N=c1[nH]c2ccccc2[nH]c1=Nc1cccc(Br)c1)c1cccs1

>  <score_type>  (74) 
oracle

>  <origin>  (74) 
adg

>  <m_score__min__energy>  (74) 
-10.33

>  <m_primary>  (74) 
energy

$$$$
74:0
     RDKit          3D

 45 47  0  0  0  0  0  0  0  0999 V2000
   59.2670   33.1520   50.3030 C   0  0  0  0  0  0  0  0  0  0  0  0
   58.5600   32.2170   49.3810 C   0  0  0  0  0  0  0  0  0  0  0  0
   58.6360   30.9740   49.5750 O   0  0  0  0  0  0  0  0  0  0  0  0
   57.8140   32.7400   48.2760 N   0  0  0  0  0  0  0  0  0  0  0  0
   58.3670   33.4170   47.1370 C   0  0  0  0  0  0  0  0  0  0  0  0
   59.2030   34.5390   47.2970 C   0  0  0  0  0  0  0  0  0  0  0  0
   59.6490   35.2540   46.1830 C   0  0  0  0  0  0  0  0  0  0  0  0
   59.2470   34.8760   44.9020 C   0  0  0  0  0  0  0  0  0  0  0  0
   58.4070   33.7750   44.7300 C   0  0  0  0  0  0  0  0  0  0  0  0
   57.9760   33.0300   45.8360 C   0  0  0  0  0  0  0  0  0  0  0  0
   57.1460   31.9260   45.6060 O   0  0  0  0  0  0  0  0  0  0  0  0
   57.5170   30.8100   44.8430 C   0  0  0  0  0  0  0  0  0  0  0  0
   57.5870   30.9020   43.5860 O   0  0  0  0  0  0  0  0  0  0  0  0
   57.7240   29.5020   45.5130 C   0  0  0  0  0  0  0  0  0  0  0  0
   56.9630   28.3960   45.0910 C   0  0  0  0  0  0  0  0  0  0  0  0
   57.1910   27.1260   45.6260 C   0  0  0  0  0  0  0  0  0  0  0  0
   58.1840   26.9400   46.5860 C   0  0  0  0  0  0  0  0  0  0  0  0
   58.9390   28.0260   47.0300 C   0  0  0  0  0  0  0  0  0  0  0  0
   58.7040   29.3110   46.5210 C   0  0  0  0  0  0  0  0  0  0  0  0
   59.4520   30.4070   47.0620 N   0  0  0  0  0  0  0  0  0  0  0  0
   60.8630   30.5380   46.8280 C   0  0  0  0  0  0  0  0  0  0  0  0
   61.4280   29.7880   45.9840 O   0  0  0  0  0  0  0  0  0  0  0  0
   61.6610   31.5520   47.5540 C   0  0  0  0  0  0  0  0  0  0  0  0
   61.9990   32.7660   46.9300 C   0  0  0  0  0  0  0  0  0  0  0  0
   62.7700   33.7170   47.6050 C   0  0  0  0  0  0  0  0  0  0  0  0
   63.2130   33.4660   48.9060 C   0  0  0  0  0  0  0  0  0  0  0  0
   62.8870   32.2610   49.5330 C   0  0  0  0  0  0  0  0  0  0  0  0
   62.1140   31.3070   48.8630 C   0  0  0  0  0  0  0  0  0  0  0  0
   59.0541   32.8705   51.3448 H   0  0  0  0  0  0  0  0  0  0  0  0
   60.3506   33.0959   50.1221 H   0  0  0  0  0  0  0  0  0  0  0  0
   58.9178   34.1793   50.1221 H   0  0  0  0  0  0  0  0  0  0  0  0
   59.5068   34.8544   48.3061 H   0  0  0  0  0  0  0  0  0  0  0  0
   60.3184   36.1166   46.3162 H   0  0  0  0  0  0  0  0  0  0  0  0
   59.5923   35.4460   44.0269 H   0  0  0  0  0  0  0  0  0  0  0  0
   58.0808   33.4898   43.7189 H   0  0  0  0  0  0  0  0  0  0  0  0
   56.1796   28.5332   44.3311 H   0  0  0  0  0  0  0  0  0  0  0  0
   56.5859   26.2714   45.2891 H   0  0  0  0  0  0  0  0  0  0  0  0
   58.3727   25.9361   46.9940 H   0  0  0  0  0  0  0  0  0  0  0  0
   59.7243   27.8729   47.7849 H   0  0  0  0  0  0  0  0  0  0  0  0
   58.9240   31.2310   47.4250 H   0  0  0  0  0  0  0  0  0  0  0  0
   61.6548   32.9685   45.9050 H   0  0  0  0  0  0  0  0  0  0  0  0
   63.0284   34.6651   47.1106 H   0  0  0  0  0  0  0  0  0  0  0  0
   63.8179   34.2164   49.4361 H   0  0  0  0  0  0  0  0  0  0  0  0
   63.2390   32.0619   50.5560 H   0  0  0  0  0  0  0  0  0  0  0  0
   61.8591   30.3605   49.3622 H   0  0  0  0  0  0  0  0  0  0  0  0
  1  2  1  0
  2  3  2  0
  2  4  1  0
  4  5  1  0
  5  6  2  0
  6  7  1  0
  7  8  2  0
  8  9  1  0
  9 10  2  0
 10 11  1  0
 11 12  1  0
 12 13  2  0
 12 14  1  0
 14 15  2  0
 15 16  1  0
 16 17  2  0
 17 18  1  0
 18 19  2  0
 19 20  1  0
 20 21  1  0
 21 22  2  0
 21 23  1  0
 23 24  2  0
 24 25  1  0
 25 26  2  0
 26 27  1  0
 27 28  2  0
 10  5  1  0
 19 14  1  0
 28 23  1  0
  1 29  1  0
  1 30  1  0
  1 31  1  0
  6 32  1  0
  7 33  1  0
  8 34  1  0
  9 35  1  0
 15 36  1  0
 16 37  1  0
 17 38  1  0
 18 39  1  0
 20 40  1  0
 24 41  1  0
 25 42  1  0
 26 43  1  0
 27 44  1  0
 28 45  1  0
M  CHG  1   4  -1
M  END
>  <UniqueID>  (75) 
67

>  <SMILES>  (75) 
CC(=O)[N-]c1ccccc1OC(=O)c1ccccc1NC(=O)c1ccccc1

>  <Energy>  (75) 
64.47108634053592

>  <Genealogy>  (75) 
CC(=O)[N-]c1ccccc1OC(=O)c1ccccc1NC(=O)c1ccccc1 (protonated)
CC(=O)[N-]c1ccccc1OC(=O)c1ccccc1NC(=O)c1ccccc1 (3D coordinates assigned)
CC(=O)[N-]c1ccccc1OC(=O)c1ccccc1NC(=O)c1ccccc1 (optimized conformer: 64.47108634053592 kcal/mol)

>  <smiles>  (75) 
CC(=O)Nc1ccccc1OC(=O)c1ccccc1NC(=O)c1ccccc1

>  <score_type>  (75) 
oracle

>  <origin>  (75) 
adg

>  <m_score__min__energy>  (75) 
-11.06

>  <m_primary>  (75) 
energy

$$$$
75:0
     RDKit          3D

 41 43  0  0  0  0  0  0  0  0999 V2000
   55.1810   26.7130   45.9960 N   0  0  0  0  0  0  0  0  0  0  0  0
   56.4950   25.6270   46.2760 S   0  0  0  0  0  0  0  0  0  0  0  0
   56.2060   24.7810   47.4830 O   0  0  0  0  0  0  0  0  0  0  0  0
   56.6210   24.7200   45.0840 O   0  0  0  0  0  0  0  0  0  0  0  0
   58.0050   26.5300   46.5180 C   0  0  0  0  0  0  0  0  0  0  0  0
   58.7080   26.3470   47.7220 C   0  0  0  0  0  0  0  0  0  0  0  0
   59.8990   27.0330   47.9650 C   0  0  0  0  0  0  0  0  0  0  0  0
   60.5800   26.8400   49.1610 O   0  0  0  0  0  0  0  0  0  0  0  0
   60.4080   27.9100   47.0090 C   0  0  0  0  0  0  0  0  0  0  0  0
   59.7270   28.1040   45.8070 C   0  0  0  0  0  0  0  0  0  0  0  0
   58.5220   27.4260   45.5430 C   0  0  0  0  0  0  0  0  0  0  0  0
   57.8520   27.6480   44.2070 C   0  0  0  0  0  0  0  0  0  0  0  0
   57.6870   29.0750   43.9560 N   0  0  0  0  0  0  0  0  0  0  0  0
   56.9210   29.9500   44.7880 C   0  0  0  0  0  0  0  0  0  0  0  0
   55.7910   29.5920   45.2170 O   0  0  0  0  0  0  0  0  0  0  0  0
   57.4740   31.2670   45.1400 C   0  0  0  0  0  0  0  0  0  0  0  0
   56.7650   32.4500   44.8870 C   0  0  0  0  0  0  0  0  0  0  0  0
   57.3420   33.6690   45.2410 C   0  0  0  0  0  0  0  0  0  0  0  0
   56.7350   34.7470   45.0130 O   0  0  0  0  0  0  0  0  0  0  0  0
   58.6000   33.6850   45.8450 C   0  0  0  0  0  0  0  0  0  0  0  0
   59.2560   32.4650   46.0870 C   0  0  0  0  0  0  0  0  0  0  0  0
   60.5910   32.4010   46.7350 C   0  0  0  0  0  0  0  0  0  0  0  0
   61.4100   33.5470   46.7440 C   0  0  0  0  0  0  0  0  0  0  0  0
   62.6770   33.5100   47.3330 C   0  0  0  0  0  0  0  0  0  0  0  0
   63.1450   32.3300   47.9140 C   0  0  0  0  0  0  0  0  0  0  0  0
   62.3510   31.1830   47.9010 C   0  0  0  0  0  0  0  0  0  0  0  0
   61.0830   31.2130   47.3120 C   0  0  0  0  0  0  0  0  0  0  0  0
   58.6710   31.3260   45.7180 O   0  0  0  0  0  0  0  0  0  0  0  0
   55.5310   27.4570   45.3510 H   0  0  0  0  0  0  0  0  0  0  0  0
   58.3147   25.6551   48.4813 H   0  0  0  0  0  0  0  0  0  0  0  0
   61.3470   28.4494   47.2022 H   0  0  0  0  0  0  0  0  0  0  0  0
   60.1368   28.7955   45.0561 H   0  0  0  0  0  0  0  0  0  0  0  0
   58.4727   27.2089   43.4121 H   0  0  0  0  0  0  0  0  0  0  0  0
   56.8617   27.1693   44.2187 H   0  0  0  0  0  0  0  0  0  0  0  0
   55.7708   32.4169   44.4174 H   0  0  0  0  0  0  0  0  0  0  0  0
   59.0714   34.6379   46.1276 H   0  0  0  0  0  0  0  0  0  0  0  0
   61.0495   34.4787   46.2837 H   0  0  0  0  0  0  0  0  0  0  0  0
   63.3064   34.4121   47.3388 H   0  0  0  0  0  0  0  0  0  0  0  0
   64.1401   32.3046   48.3822 H   0  0  0  0  0  0  0  0  0  0  0  0
   62.7232   30.2528   48.3551 H   0  0  0  0  0  0  0  0  0  0  0  0
   60.4652   30.3029   47.2989 H   0  0  0  0  0  0  0  0  0  0  0  0
  1  2  1  0
  2  3  2  0
  2  4  2  0
  2  5  1  0
  5  6  2  0
  6  7  1  0
  7  8  1  0
  7  9  2  0
  9 10  1  0
 10 11  2  0
 11 12  1  0
 12 13  1  0
 13 14  1  0
 14 15  2  0
 14 16  1  0
 16 17  2  0
 17 18  1  0
 18 19  2  0
 18 20  1  0
 20 21  2  0
 21 22  1  0
 22 23  2  0
 23 24  1  0
 24 25  2  0
 25 26  1  0
 26 27  2  0
 21 28  1  0
 11  5  1  0
 28 16  1  0
 27 22  1  0
  1 29  1  0
  6 30  1  0
  9 31  1  0
 10 32  1  0
 12 33  1  0
 12 34  1  0
 17 35  1  0
 20 36  1  0
 23 37  1  0
 24 38  1  0
 25 39  1  0
 26 40  1  0
 27 41  1  0
M  CHG  3   1  -1   8  -1  13  -1
M  END
>  <UniqueID>  (76) 
68

>  <SMILES>  (76) 
[NH-]S(=O)(=O)c1cc([O-])ccc1C[N-]C(=O)c1cc(=O)cc(-c2ccccc2)o1

>  <Energy>  (76) 
47.921797427457264

>  <Genealogy>  (76) 
[NH-]S(=O)(=O)c1cc([O-])ccc1C[N-]C(=O)c1cc(=O)cc(-c2ccccc2)o1 (protonated)
[NH-]S(=O)(=O)c1cc([O-])ccc1C[N-]C(=O)c1cc(=O)cc(-c2ccccc2)o1 (3D coordinates assigned)
[NH-]S(=O)(=O)c1cc([O-])ccc1C[N-]C(=O)c1cc(=O)cc(-c2ccccc2)o1 (optimized conformer: 47.921797427457264 kcal/mol)

>  <smiles>  (76) 
NS(=O)(=O)c1cc(O)ccc1CNC(=O)c1cc(=O)cc(-c2ccccc2)o1

>  <score_type>  (76) 
oracle

>  <origin>  (76) 
adg

>  <m_score__min__energy>  (76) 
-16.030000000000001

>  <m_primary>  (76) 
energy

$$$$
76:0
     RDKit          3D

 40 42  0  0  0  0  0  0  0  0999 V2000
   57.7750   31.3880   43.1550 C   0  0  0  0  0  0  0  0  0  0  0  0
   57.2880   30.6340   44.3700 C   0  0  0  0  0  0  0  0  0  0  0  0
   57.8240   30.8410   45.5930 C   0  0  0  0  0  0  0  0  0  0  0  0
   58.4100   32.1250   46.0360 C   0  0  0  0  0  0  0  0  0  0  0  0
   57.7310   33.3350   45.8540 C   0  0  0  0  0  0  0  0  0  0  0  0
   56.4790   33.3660   45.2490 O   0  0  0  0  0  0  0  0  0  0  0  0
   58.3030   34.4970   46.2520 N   0  0  0  0  0  0  0  0  0  0  0  0
   59.5360   34.5230   46.8170 C   0  0  0  0  0  0  0  0  0  0  0  0
   60.0140   35.6290   47.1890 O   0  0  0  0  0  0  0  0  0  0  0  0
   60.2440   33.3610   46.9850 N   0  0  0  0  0  0  0  0  0  0  0  0
   61.5600   33.3970   47.5760 C   0  0  0  0  0  0  0  0  0  0  0  0
   61.7180   33.6820   48.9430 C   0  0  0  0  0  0  0  0  0  0  0  0
   62.9940   33.7170   49.5130 C   0  0  0  0  0  0  0  0  0  0  0  0
   64.1200   33.4700   48.7230 C   0  0  0  0  0  0  0  0  0  0  0  0
   63.9730   33.1870   47.3630 C   0  0  0  0  0  0  0  0  0  0  0  0
   62.6980   33.1500   46.7880 C   0  0  0  0  0  0  0  0  0  0  0  0
   59.6990   32.1660   46.5920 C   0  0  0  0  0  0  0  0  0  0  0  0
   60.3520   31.0930   46.7260 O   0  0  0  0  0  0  0  0  0  0  0  0
   56.2140   29.6230   44.1930 C   0  0  0  0  0  0  0  0  0  0  0  0
   55.5380   29.5980   43.1260 O   0  0  0  0  0  0  0  0  0  0  0  0
   55.9470   28.6820   45.2480 N   0  0  0  0  0  0  0  0  0  0  0  0
   56.6910   27.6760   45.6150 C   0  0  0  0  0  0  0  0  0  0  0  0
   58.0520   27.7720   45.6330 N   0  0  0  0  0  0  0  0  0  0  0  0
   58.8440   26.7340   46.0140 C   0  0  0  0  0  0  0  0  0  0  0  0
   58.2680   25.5220   46.4000 C   0  0  0  0  0  0  0  0  0  0  0  0
   56.8800   25.3930   46.3900 C   0  0  0  0  0  0  0  0  0  0  0  0
   56.0820   26.4720   45.9970 C   0  0  0  0  0  0  0  0  0  0  0  0
   54.6960   26.3410   45.9880 O   0  0  0  0  0  0  0  0  0  0  0  0
   58.3458   32.2717   43.4763 H   0  0  0  0  0  0  0  0  0  0  0  0
   58.4214   30.7334   42.5520 H   0  0  0  0  0  0  0  0  0  0  0  0
   56.9125   31.7080   42.5520 H   0  0  0  0  0  0  0  0  0  0  0  0
   57.8246   30.0017   46.3041 H   0  0  0  0  0  0  0  0  0  0  0  0
   60.8338   33.8784   49.5672 H   0  0  0  0  0  0  0  0  0  0  0  0
   63.1118   33.9391   50.5839 H   0  0  0  0  0  0  0  0  0  0  0  0
   65.1235   33.4985   49.1727 H   0  0  0  0  0  0  0  0  0  0  0  0
   64.8608   32.9930   46.7433 H   0  0  0  0  0  0  0  0  0  0  0  0
   62.5856   32.9271   45.7167 H   0  0  0  0  0  0  0  0  0  0  0  0
   59.9379   26.8493   46.0181 H   0  0  0  0  0  0  0  0  0  0  0  0
   58.9026   24.6782   46.7086 H   0  0  0  0  0  0  0  0  0  0  0  0
   56.4130   24.4436   46.6909 H   0  0  0  0  0  0  0  0  0  0  0  0
  1  2  1  0
  2  3  2  3
  3  4  1  0
  4  5  2  0
  5  6  1  0
  5  7  1  0
  7  8  1  0
  8  9  2  0
  8 10  1  0
 10 11  1  0
 11 12  2  0
 12 13  1  0
 13 14  2  0
 14 15  1  0
 15 16  2  0
 10 17  1  0
 17 18  2  0
  2 19  1  0
 19 20  2  0
 19 21  1  0
 21 22  2  3
 22 23  1  0
 23 24  1  0
 24 25  2  0
 25 26  1  0
 26 27  2  0
 27 28  1  0
 17  4  1  0
 27 22  1  0
 16 11  1  0
  1 29  1  0
  1 30  1  0
  1 31  1  0
  3 32  1  0
 12 33  1  0
 13 34  1  0
 14 35  1  0
 15 36  1  0
 16 37  1  0
 24 38  1  0
 25 39  1  0
 26 40  1  0
M  CHG  4   6  -1   7  -1  23  -1  28  -1
M  END
>  <UniqueID>  (77) 
69

>  <SMILES>  (77) 
CC(=Cc1c([O-])[n-]c(=O)n(-c2ccccc2)c1=O)C(=O)N=c1[n-]cccc1[O-]

>  <Energy>  (77) 
66.57599597486386

>  <Genealogy>  (77) 
CC(=Cc1c([O-])[n-]c(=O)n(-c2ccccc2)c1=O)C(=O)N=c1[n-]cccc1[O-] (protonated)
CC(=Cc1c([O-])[n-]c(=O)n(-c2ccccc2)c1=O)C(=O)N=c1[n-]cccc1[O-] (3D coordinates assigned)
CC(=Cc1c([O-])[n-]c(=O)n(-c2ccccc2)c1=O)C(=O)N=c1[n-]cccc1[O-] (optimized conformer: 66.57599597486386 kcal/mol)

>  <smiles>  (77) 
CC(=Cc1c(O)[nH]c(=O)n(-c2ccccc2)c1=O)C(=O)N=c1[nH]cccc1O

>  <score_type>  (77) 
oracle

>  <origin>  (77) 
adg

>  <m_score__min__energy>  (77) 
-16.800000000000001

>  <m_primary>  (77) 
energy

$$$$
77:0
     RDKit          3D

 53 55  0  0  0  0  0  0  0  0999 V2000
   57.8220   27.7060   47.0080 C   0  0  0  0  0  0  0  0  0  0  0  0
   56.6710   27.5560   45.6570 S   0  0  0  0  0  0  0  0  0  0  0  0
   57.3950   26.9870   44.4700 O   0  0  0  0  0  0  0  0  0  0  0  0
   55.5460   26.6310   46.0250 O   0  0  0  0  0  0  0  0  0  0  0  0
   56.0430   29.1160   45.2300 N   0  0  0  0  0  0  0  0  0  0  0  0
   56.6470   30.0590   44.3300 C   0  0  0  0  0  0  0  0  0  0  0  0
   56.2400   30.1520   42.9850 C   0  0  0  0  0  0  0  0  0  0  0  0
   56.8200   31.0910   42.1310 C   0  0  0  0  0  0  0  0  0  0  0  0
   57.8120   31.9480   42.6040 C   0  0  0  0  0  0  0  0  0  0  0  0
   58.2320   31.8660   43.9310 C   0  0  0  0  0  0  0  0  0  0  0  0
   57.6710   30.9150   44.8020 C   0  0  0  0  0  0  0  0  0  0  0  0
   58.1590   30.8600   46.2330 C   0  0  0  0  0  0  0  0  0  0  0  0
   57.7700   32.0660   46.9650 N   0  0  0  0  0  0  0  0  0  0  0  0
   58.5510   32.8970   47.6040 C   0  0  0  0  0  0  0  0  0  0  0  0
   59.0610   34.0620   46.9940 C   0  0  0  0  0  0  0  0  0  0  0  0
   59.8890   34.9180   47.7200 C   0  0  0  0  0  0  0  0  0  0  0  0
   60.2050   34.6330   49.0070 N   0  0  0  0  0  0  0  0  0  0  0  0
   59.7360   33.5200   49.6280 C   0  0  0  0  0  0  0  0  0  0  0  0
   58.8990   32.6240   48.9440 C   0  0  0  0  0  0  0  0  0  0  0  0
   58.4170   31.3710   49.6420 C   0  0  0  0  0  0  0  0  0  0  0  0
   57.4420   31.7120   50.6760 N   0  0  0  0  0  0  0  0  0  0  0  0
   57.0020   30.7700   51.6600 C   0  0  0  0  0  0  0  0  0  0  0  0
   57.5530   29.6390   51.7450 O   0  0  0  0  0  0  0  0  0  0  0  0
   55.9670   31.1450   52.5780 N   0  0  0  0  0  0  0  0  0  0  0  0
   54.6040   30.6990   52.5490 C   0  0  0  0  0  0  0  0  0  0  0  0
   54.0650   29.8910   53.5670 C   0  0  0  0  0  0  0  0  0  0  0  0
   52.7410   29.4570   53.4890 C   0  0  0  0  0  0  0  0  0  0  0  0
   51.9460   29.8090   52.3950 C   0  0  0  0  0  0  0  0  0  0  0  0
   52.4750   30.5960   51.3570 C   0  0  0  0  0  0  0  0  0  0  0  0
   51.6350   30.9650   50.1930 C   0  0  0  0  0  0  0  0  0  0  0  0
   50.9980   32.2400   50.1340 N   0  0  0  0  0  0  0  0  0  0  0  0
   51.4720   30.1530   49.2420 O   0  0  0  0  0  0  0  0  0  0  0  0
   53.8110   31.0310   51.4430 C   0  0  0  0  0  0  0  0  0  0  0  0
   57.2789   27.6352   47.9620 H   0  0  0  0  0  0  0  0  0  0  0  0
   58.5650   26.8971   46.9482 H   0  0  0  0  0  0  0  0  0  0  0  0
   58.3329   28.6783   46.9482 H   0  0  0  0  0  0  0  0  0  0  0  0
   55.4580   29.4785   42.6043 H   0  0  0  0  0  0  0  0  0  0  0  0
   56.4936   31.1549   41.0825 H   0  0  0  0  0  0  0  0  0  0  0  0
   58.2642   32.6901   41.9296 H   0  0  0  0  0  0  0  0  0  0  0  0
   59.0092   32.5514   44.3000 H   0  0  0  0  0  0  0  0  0  0  0  0
   57.7215   29.9810   46.7290 H   0  0  0  0  0  0  0  0  0  0  0  0
   59.2569   30.7917   46.2272 H   0  0  0  0  0  0  0  0  0  0  0  0
   58.8066   34.2946   45.9494 H   0  0  0  0  0  0  0  0  0  0  0  0
   60.2870   35.8276   47.2465 H   0  0  0  0  0  0  0  0  0  0  0  0
   60.0136   33.3193   50.6733 H   0  0  0  0  0  0  0  0  0  0  0  0
   57.9467   30.7029   48.9054 H   0  0  0  0  0  0  0  0  0  0  0  0
   59.2760   30.8684   50.1106 H   0  0  0  0  0  0  0  0  0  0  0  0
   57.0270   32.6710   50.6780 H   0  0  0  0  0  0  0  0  0  0  0  0
   54.6883   29.6009   54.4257 H   0  0  0  0  0  0  0  0  0  0  0  0
   52.3210   28.8346   54.2929 H   0  0  0  0  0  0  0  0  0  0  0  0
   50.9011   29.4687   52.3457 H   0  0  0  0  0  0  0  0  0  0  0  0
   50.0410   32.3440   49.7300 H   0  0  0  0  0  0  0  0  0  0  0  0
   54.2376   31.6391   50.6317 H   0  0  0  0  0  0  0  0  0  0  0  0
  1  2  1  0
  2  3  2  0
  2  4  2  0
  2  5  1  0
  5  6  1  0
  6  7  2  0
  7  8  1  0
  8  9  2  0
  9 10  1  0
 10 11  2  0
 11 12  1  0
 12 13  1  0
 13 14  2  3
 14 15  1  0
 15 16  2  0
 16 17  1  0
 17 18  1  0
 18 19  2  0
 19 20  1  0
 20 21  1  0
 21 22  1  0
 22 23  2  0
 22 24  1  0
 24 25  1  0
 25 26  2  0
 26 27  1  0
 27 28  2  0
 28 29  1  0
 29 30  1  0
 30 31  1  0
 30 32  2  0
 29 33  2  0
 11  6  1  0
 19 14  1  0
 33 25  1  0
  1 34  1  0
  1 35  1  0
  1 36  1  0
  7 37  1  0
  8 38  1  0
  9 39  1  0
 10 40  1  0
 12 41  1  0
 12 42  1  0
 15 43  1  0
 16 44  1  0
 18 45  1  0
 20 46  1  0
 20 47  1  0
 21 48  1  0
 26 49  1  0
 27 50  1  0
 28 51  1  0
 31 52  1  0
 33 53  1  0
M  CHG  4   5  -1  17  -1  24  -1  31  -1
M  END
>  <UniqueID>  (78) 
70

>  <SMILES>  (78) 
CS(=O)(=O)[N-]c1ccccc1CN=c1cc[n-]cc1CNC(=O)[N-]c1cccc(C([NH-])=O)c1

>  <Energy>  (78) 
59.88811200749868

>  <Genealogy>  (78) 
CS(=O)(=O)[N-]c1ccccc1CN=c1cc[n-]cc1CNC(=O)[N-]c1cccc(C([NH-])=O)c1 (protonated)
CS(=O)(=O)[N-]c1ccccc1CN=c1cc[n-]cc1CNC(=O)[N-]c1cccc(C([NH-])=O)c1 (3D coordinates assigned)
CS(=O)(=O)[N-]c1ccccc1CN=c1cc[n-]cc1CNC(=O)[N-]c1cccc(C([NH-])=O)c1 (optimized conformer: 59.88811200749868 kcal/mol)

>  <smiles>  (78) 
CS(=O)(=O)Nc1ccccc1CN=c1cc[nH]cc1CNC(=O)Nc1cccc(C(N)=O)c1

>  <score_type>  (78) 
oracle

>  <origin>  (78) 
adg

>  <m_score__min__energy>  (78) 
-17.829999999999998

>  <m_primary>  (78) 
energy

$$$$
78:0
     RDKit          3D

 32 33  0  0  0  0  0  0  0  0999 V2000
   54.7580   23.4140   44.3900 H   0  0  0  0  0  0  0  0  0  0  0  0
   55.2510   22.6500   43.9900 O   0  0  0  0  0  0  0  0  0  0  0  0
   56.5650   22.6570   44.4920 C   0  0  2  0  0  0  0  0  0  0  0  0
   57.1170   23.2250   43.7287 H   0  0  0  0  0  0  0  0  0  0  0  0
   57.1130   21.2740   44.7080 C   0  0  0  0  0  0  0  0  0  0  0  0
   57.6653   20.9247   43.8232 H   0  0  0  0  0  0  0  0  0  0  0  0
   56.3314   20.5197   44.8818 H   0  0  0  0  0  0  0  0  0  0  0  0
   58.0430   21.4580   45.8950 C   0  0  0  0  0  0  0  0  0  0  0  0
   59.0827   21.5076   45.5392 H   0  0  0  0  0  0  0  0  0  0  0  0
   57.9246   20.6073   46.5823 H   0  0  0  0  0  0  0  0  0  0  0  0
   57.7240   22.6540   46.5770 O   0  0  0  0  0  0  0  0  0  0  0  0
   56.6630   23.2750   45.8840 C   0  0  1  0  0  0  0  0  0  0  0  0
   55.7202   23.1107   46.4263 H   0  0  0  0  0  0  0  0  0  0  0  0
   56.8680   24.7410   45.8040 N   0  0  0  0  0  0  0  0  0  0  0  0
   58.1290   25.2820   45.7450 C   0  0  0  0  0  0  0  0  0  0  0  0
   59.1530   24.5460   45.7690 O   0  0  0  0  0  0  0  0  0  0  0  0
   58.2940   26.6230   45.6540 N   0  0  0  0  0  0  0  0  0  0  0  0
   57.2290   27.4550   45.5970 C   0  0  0  0  0  0  0  0  0  0  0  0
   57.3760   28.7500   45.5310 N   0  0  0  0  0  0  0  0  0  0  0  0
   56.5910   29.7210   44.8140 C   0  0  0  0  0  0  0  0  0  0  0  0
   55.3360   29.6260   44.8670 O   0  0  0  0  0  0  0  0  0  0  0  0
   57.1850   30.8190   43.9730 C   0  0  0  0  0  0  0  0  0  0  0  0
   56.5001   31.0459   43.1427 H   0  0  0  0  0  0  0  0  0  0  0  0
   58.1579   30.4777   43.5898 H   0  0  0  0  0  0  0  0  0  0  0  0
   57.4060   32.0850   44.7970 C   0  0  0  0  0  0  0  0  0  0  0  0
   57.3628   31.8376   45.8680 H   0  0  0  0  0  0  0  0  0  0  0  0
   58.3920   32.5103   44.5584 H   0  0  0  0  0  0  0  0  0  0  0  0
   56.6224   32.8192   44.5584 H   0  0  0  0  0  0  0  0  0  0  0  0
   55.9780   26.9320   45.6360 N   0  0  0  0  0  0  0  0  0  0  0  0
   55.1470   27.5660   45.5900 H   0  0  0  0  0  0  0  0  0  0  0  0
   55.7910   25.5880   45.7250 C   0  0  0  0  0  0  0  0  0  0  0  0
   54.6130   25.1360   45.7320 O   0  0  0  0  0  0  0  0  0  0  0  0
  1  2  1  0
  2  3  1  0
  3  4  1  6
  3  5  1  0
  5  6  1  0
  5  7  1  0
  5  8  1  0
  8  9  1  0
  8 10  1  0
  8 11  1  0
 11 12  1  0
 12 13  1  1
 12 14  1  0
 14 15  1  0
 15 16  2  0
 15 17  1  0
 17 18  1  0
 18 19  2  0
 19 20  1  0
 20 21  2  0
 20 22  1  0
 22 23  1  0
 22 24  1  0
 22 25  1  0
 25 26  1  0
 25 27  1  0
 25 28  1  0
 18 29  1  0
 29 30  1  0
 29 31  1  0
 31 32  2  0
 12  3  1  0
 31 14  1  0
M  CHG  1  17  -1
M  END
>  <UniqueID>  (79) 
71

>  <SMILES>  (79) 
CCC(=O)/N=c1\[n-]c(=O)n([C@@H]2OCC[C@H]2O)c(=O)[nH]1

>  <Energy>  (79) 
40.53596282497654

>  <Genealogy>  (79) 
CCC(=O)N=c1[n-]c(=O)n(C2OCCC2O)c(=O)[nH]1 (protonated)
CCC(=O)N=c1[n-]c(=O)n([C@@H]2OCC[C@H]2O)c(=O)[nH]1 (chirality)
CCC(=O)/N=c1\[n-]c(=O)n([C@@H]2OCC[C@H]2O)c(=O)[nH]1 (cis-trans isomerization)
CCC(=O)/N=c1\[n-]c(=O)n([C@@H]2OCC[C@H]2O)c(=O)[nH]1 (3D coordinates assigned)
CCC(=O)/N=c1\[n-]c(=O)n([C@@H]2OCC[C@H]2O)c(=O)[nH]1 (nonaromatic ring conformer: 40.53596282497654 kcal/mol)

>  <smiles>  (79) 
CCC(=O)N=c1[nH]c(=O)n(C2OCCC2O)c(=O)[nH]1

>  <score_type>  (79) 
oracle

>  <origin>  (79) 
adg

>  <m_score__min__energy>  (79) 
-8.2100000000000009

>  <m_primary>  (79) 
energy

$$$$
79:0
     RDKit          3D

 62 65  0  0  0  0  0  0  0  0999 V2000
   58.3750   32.5780   51.3050 C   0  0  0  0  0  0  0  0  0  0  0  0
   58.6680   30.8440   51.0430 S   0  0  0  0  0  0  0  0  0  0  0  0
   59.7470   30.3540   51.9650 O   0  0  0  0  0  0  0  0  0  0  0  0
   57.3940   30.0970   51.3340 O   0  0  0  0  0  0  0  0  0  0  0  0
   59.1140   30.5550   49.3890 N   0  0  0  0  0  0  0  0  0  0  0  0
   59.3620   29.2730   48.8000 C   0  0  0  0  0  0  0  0  0  0  0  0
   60.4910   28.5540   49.2100 C   0  0  0  0  0  0  0  0  0  0  0  0
   60.7630   27.2970   48.6660 C   0  0  0  0  0  0  0  0  0  0  0  0
   59.9270   26.7570   47.6850 C   0  0  0  0  0  0  0  0  0  0  0  0
   58.7970   27.4690   47.2500 C   0  0  0  0  0  0  0  0  0  0  0  0
   57.8970   26.8930   46.1850 C   0  0  0  0  0  0  0  0  0  0  0  0
   57.3100   27.9800   45.3370 C   0  0  0  0  0  0  0  0  0  0  0  0
   55.9860   28.2330   45.2470 N   0  0  0  0  0  0  0  0  0  0  0  0
   55.9270   29.3590   44.5010 C   0  0  0  0  0  0  0  0  0  0  0  0
   54.8430   29.9300   44.2130 O   0  0  0  0  0  0  0  0  0  0  0  0
   57.1370   29.8220   44.1190 N   0  0  0  0  0  0  0  0  0  0  0  0
   57.4400   31.0800   43.4310 C   0  0  0  0  0  0  0  0  0  0  0  0
   57.9600   32.1010   44.4010 C   0  0  0  0  0  0  0  0  0  0  0  0
   57.6800   33.3190   44.2330 O   0  0  0  0  0  0  0  0  0  0  0  0
   58.6830   31.6760   45.5660 N   0  0  0  0  0  0  0  0  0  0  0  0
   59.3710   32.5740   46.4520 C   0  0  0  0  0  0  0  0  0  0  0  0
   58.6280   33.4770   47.2300 C   0  0  0  0  0  0  0  0  0  0  0  0
   59.2700   34.3350   48.1240 C   0  0  0  0  0  0  0  0  0  0  0  0
   60.6590   34.2900   48.2630 C   0  0  0  0  0  0  0  0  0  0  0  0
   61.4140   33.3870   47.5040 C   0  0  0  0  0  0  0  0  0  0  0  0
   63.1550   33.2930   47.7420 S   0  0  0  0  0  0  0  0  0  0  0  0
   63.6270   34.5790   48.3660 O   0  0  0  0  0  0  0  0  0  0  0  0
   63.8400   33.1390   46.4110 O   0  0  0  0  0  0  0  0  0  0  0  0
   63.4780   31.9180   48.7870 N   0  0  0  0  0  0  0  0  0  0  0  0
   64.5350   32.1980   49.7740 C   0  0  0  0  0  0  0  0  0  0  0  0
   64.0120   33.0190   50.9750 C   0  0  0  0  0  0  0  0  0  0  0  0
   62.6690   33.4220   50.7960 O   0  0  0  0  0  0  0  0  0  0  0  0
   61.8460   32.2820   50.6540 C   0  0  0  0  0  0  0  0  0  0  0  0
   62.2580   31.4170   49.4420 C   0  0  0  0  0  0  0  0  0  0  0  0
   60.7690   32.5220   46.6080 C   0  0  0  0  0  0  0  0  0  0  0  0
   58.0080   28.9570   44.6610 C   0  0  0  0  0  0  0  0  0  0  0  0
   59.3930   29.0700   44.5800 O   0  0  0  0  0  0  0  0  0  0  0  0
   58.5080   28.7180   47.8290 C   0  0  0  0  0  0  0  0  0  0  0  0
   58.3400   32.7849   52.3848 H   0  0  0  0  0  0  0  0  0  0  0  0
   59.1874   33.1606   50.8461 H   0  0  0  0  0  0  0  0  0  0  0  0
   57.4163   32.8613   50.8461 H   0  0  0  0  0  0  0  0  0  0  0  0
   61.1675   28.9815   49.9647 H   0  0  0  0  0  0  0  0  0  0  0  0
   61.6395   26.7292   49.0113 H   0  0  0  0  0  0  0  0  0  0  0  0
   60.1545   25.7716   47.2523 H   0  0  0  0  0  0  0  0  0  0  0  0
   58.4823   26.2146   45.5469 H   0  0  0  0  0  0  0  0  0  0  0  0
   57.0770   26.3472   46.6747 H   0  0  0  0  0  0  0  0  0  0  0  0
   58.2007   30.8952   42.6582 H   0  0  0  0  0  0  0  0  0  0  0  0
   56.5171   31.4645   42.9723 H   0  0  0  0  0  0  0  0  0  0  0  0
   58.6260   30.6690   45.8360 H   0  0  0  0  0  0  0  0  0  0  0  0
   57.5326   33.5081   47.1340 H   0  0  0  0  0  0  0  0  0  0  0  0
   58.6812   35.0478   48.7201 H   0  0  0  0  0  0  0  0  0  0  0  0
   61.1615   34.9658   48.9707 H   0  0  0  0  0  0  0  0  0  0  0  0
   64.9346   31.2428   50.1454 H   0  0  0  0  0  0  0  0  0  0  0  0
   65.3145   32.7915   49.2739 H   0  0  0  0  0  0  0  0  0  0  0  0
   64.0797   32.4022   51.8833 H   0  0  0  0  0  0  0  0  0  0  0  0
   64.6299   33.9249   51.0623 H   0  0  0  0  0  0  0  0  0  0  0  0
   61.9223   31.6732   51.5670 H   0  0  0  0  0  0  0  0  0  0  0  0
   60.8143   32.6265   50.4900 H   0  0  0  0  0  0  0  0  0  0  0  0
   62.4386   30.3881   49.7867 H   0  0  0  0  0  0  0  0  0  0  0  0
   61.4407   31.4567   48.7068 H   0  0  0  0  0  0  0  0  0  0  0  0
   61.3584   31.7995   46.0244 H   0  0  0  0  0  0  0  0  0  0  0  0
   57.6058   29.2661   47.5198 H   0  0  0  0  0  0  0  0  0  0  0  0
  1  2  1  0
  2  3  2  0
  2  4  2  0
  2  5  1  0
  5  6  1  0
  6  7  2  0
  7  8  1  0
  8  9  2  0
  9 10  1  0
 10 11  1  0
 11 12  1  0
 12 13  1  0
 13 14  1  0
 14 15  2  0
 14 16  1  0
 16 17  1  0
 17 18  1  0
 18 19  2  0
 18 20  1  0
 20 21  1  0
 21 22  2  0
 22 23  1  0
 23 24  2  0
 24 25  1  0
 25 26  1  0
 26 27  2  0
 26 28  2  0
 26 29  1  0
 29 30  1  0
 30 31  1  0
 31 32  1  0
 32 33  1  0
 33 34  1  0
 25 35  2  0
 16 36  1  0
 36 37  1  0
 10 38  2  0
 38  6  1  0
 36 12  2  0
 35 21  1  0
 34 29  1  0
  1 39  1  0
  1 40  1  0
  1 41  1  0
  7 42  1  0
  8 43  1  0
  9 44  1  0
 11 45  1  0
 11 46  1  0
 17 47  1  0
 17 48  1  0
 20 49  1  0
 22 50  1  0
 23 51  1  0
 24 52  1  0
 30 53  1  0
 30 54  1  0
 31 55  1  0
 31 56  1  0
 33 57  1  0
 33 58  1  0
 34 59  1  0
 34 60  1  0
 35 61  1  0
 38 62  1  0
M  CHG  3   5  -1  13  -1  37  -1
M  END
>  <UniqueID>  (80) 
72

>  <SMILES>  (80) 
CS(=O)(=O)[N-]c1cccc(Cc2[n-]c(=O)n(CC(=O)Nc3cccc(S(=O)(=O)N4CCOCC4)c3)c2[O-])c1

>  <Energy>  (80) 
107.8932670932592

>  <Genealogy>  (80) 
CS(=O)(=O)[N-]c1cccc(Cc2[n-]c(=O)n(CC(=O)Nc3cccc(S(=O)(=O)N4CCOCC4)c3)c2[O-])c1 (protonated)
CS(=O)(=O)[N-]c1cccc(Cc2[n-]c(=O)n(CC(=O)Nc3cccc(S(=O)(=O)N4CCOCC4)c3)c2[O-])c1 (3D coordinates assigned)
CS(=O)(=O)[N-]c1cccc(Cc2[n-]c(=O)n(CC(=O)Nc3cccc(S(=O)(=O)N4CCOCC4)c3)c2[O-])c1 (nonaromatic ring conformer: 107.8932670932592 kcal/mol)

>  <smiles>  (80) 
CS(=O)(=O)Nc1cccc(Cc2[nH]c(=O)n(CC(=O)Nc3cccc(S(=O)(=O)N4CCOCC4)c3)c2O)c1

>  <score_type>  (80) 
oracle

>  <origin>  (80) 
adg

>  <m_score__min__energy>  (80) 
-16.420000000000002

>  <m_primary>  (80) 
energy

$$$$
80:0
     RDKit          3D

 76 79  0  0  0  0  0  0  0  0999 V2000
   58.2990   27.4430   47.1170 C   0  0  0  0  0  0  0  0  0  0  0  0
   59.8140   27.3500   47.2960 C   0  0  0  0  0  0  0  0  0  0  0  0
   60.3760   28.4780   48.1860 C   0  0  0  0  0  0  0  0  0  0  0  0
   60.7550   28.0270   49.6110 C   0  0  0  0  0  0  0  0  0  0  0  0
   61.4200   29.1270   50.4600 C   0  0  0  0  0  0  0  0  0  0  0  0
   60.8220   29.2180   51.8710 C   0  0  0  0  0  0  0  0  0  0  0  0
   60.0170   27.9640   52.2160 C   0  0  0  0  0  0  0  0  0  0  0  0
   59.3890   28.0640   53.8900 S   0  0  0  0  0  0  0  0  0  0  0  0
   59.6980   26.7610   54.5750 O   0  0  0  0  0  0  0  0  0  0  0  0
   60.0820   29.1640   54.6450 O   0  0  0  0  0  0  0  0  0  0  0  0
   57.6330   28.3340   53.8980 C   0  0  0  0  0  0  0  0  0  0  0  0
   56.8470   27.5040   54.7150 C   0  0  0  0  0  0  0  0  0  0  0  0
   55.4570   27.6170   54.7310 C   0  0  0  0  0  0  0  0  0  0  0  0
   54.8150   28.5640   53.9240 C   0  0  0  0  0  0  0  0  0  0  0  0
   53.3840   28.7120   53.9370 N   0  0  0  0  0  0  0  0  0  0  0  0
   52.5770   28.8330   52.7240 C   0  0  0  0  0  0  0  0  0  0  0  0
   51.9350   30.1950   52.6670 C   0  0  0  0  0  0  0  0  0  0  0  0
   51.8030   30.8370   51.4220 C   0  0  0  0  0  0  0  0  0  0  0  0
   51.1820   32.0870   51.3300 C   0  0  0  0  0  0  0  0  0  0  0  0
   51.0570   32.7120   50.0960 O   0  0  0  0  0  0  0  0  0  0  0  0
   50.6850   32.7050   52.4800 C   0  0  0  0  0  0  0  0  0  0  0  0
   50.8020   32.0740   53.7210 C   0  0  0  0  0  0  0  0  0  0  0  0
   51.4210   30.8190   53.8220 C   0  0  0  0  0  0  0  0  0  0  0  0
   51.5250   30.1970   55.0650 O   0  0  0  0  0  0  0  0  0  0  0  0
   55.5860   29.4100   53.1200 C   0  0  0  0  0  0  0  0  0  0  0  0
   56.9890   29.3150   53.0930 C   0  0  0  0  0  0  0  0  0  0  0  0
   57.7190   30.2570   52.2150 C   0  0  0  0  0  0  0  0  0  0  0  0
   57.7920   30.0450   50.8750 N   0  0  0  0  0  0  0  0  0  0  0  0
   58.4990   30.8740   50.0640 C   0  0  0  0  0  0  0  0  0  0  0  0
   58.5210   30.6560   48.8240 O   0  0  0  0  0  0  0  0  0  0  0  0
   59.1930   31.9620   50.6130 C   0  0  0  0  0  0  0  0  0  0  0  0
   60.1070   33.0840   49.6000 S   0  0  0  0  0  0  0  0  0  0  0  0
   61.4360   33.3700   50.2420 O   0  0  0  0  0  0  0  0  0  0  0  0
   59.3550   34.3780   49.4550 O   0  0  0  0  0  0  0  0  0  0  0  0
   60.3670   32.3550   47.9920 C   0  0  0  0  0  0  0  0  0  0  0  0
   59.7950   33.2360   46.9100 C   0  0  0  0  0  0  0  0  0  0  0  0
   60.1450   34.5980   46.8860 C   0  0  0  0  0  0  0  0  0  0  0  0
   59.6550   35.4420   45.8890 C   0  0  0  0  0  0  0  0  0  0  0  0
   58.8150   34.9360   44.8980 C   0  0  0  0  0  0  0  0  0  0  0  0
   58.4720   33.5820   44.8950 C   0  0  0  0  0  0  0  0  0  0  0  0
   58.9590   32.7250   45.8900 C   0  0  0  0  0  0  0  0  0  0  0  0
   58.4600   30.8740   45.7990 Br  0  0  0  0  0  0  0  0  0  0  0  0
   59.1110   32.1610   51.9940 C   0  0  0  0  0  0  0  0  0  0  0  0
   58.3870   31.3090   52.7630 N   0  0  0  0  0  0  0  0  0  0  0  0
   57.8143   27.4728   48.1040 H   0  0  0  0  0  0  0  0  0  0  0  0
   58.0512   28.3580   46.5591 H   0  0  0  0  0  0  0  0  0  0  0  0
   57.9411   26.5651   46.5591 H   0  0  0  0  0  0  0  0  0  0  0  0
   60.0553   26.3820   47.7595 H   0  0  0  0  0  0  0  0  0  0  0  0
   60.2739   27.4493   46.3017 H   0  0  0  0  0  0  0  0  0  0  0  0
   61.2762   28.8841   47.7015 H   0  0  0  0  0  0  0  0  0  0  0  0
   59.5763   29.2258   48.2925 H   0  0  0  0  0  0  0  0  0  0  0  0
   59.8394   27.6992   50.1251 H   0  0  0  0  0  0  0  0  0  0  0  0
   61.4928   27.2183   49.5033 H   0  0  0  0  0  0  0  0  0  0  0  0
   62.4944   28.9068   50.5450 H   0  0  0  0  0  0  0  0  0  0  0  0
   61.2448   30.0902   49.9584 H   0  0  0  0  0  0  0  0  0  0  0  0
   61.6384   29.3312   52.5994 H   0  0  0  0  0  0  0  0  0  0  0  0
   60.1458   30.0849   51.9060 H   0  0  0  0  0  0  0  0  0  0  0  0
   59.1724   27.8722   51.5172 H   0  0  0  0  0  0  0  0  0  0  0  0
   60.6738   27.0854   52.1339 H   0  0  0  0  0  0  0  0  0  0  0  0
   57.3360   26.7527   55.3525 H   0  0  0  0  0  0  0  0  0  0  0  0
   54.8620   26.9587   55.3810 H   0  0  0  0  0  0  0  0  0  0  0  0
   52.9200   28.9550   54.8410 H   0  0  0  0  0  0  0  0  0  0  0  0
   53.2210   28.6965   51.8427 H   0  0  0  0  0  0  0  0  0  0  0  0
   51.7913   28.0632   52.7342 H   0  0  0  0  0  0  0  0  0  0  0  0
   52.1911   30.3522   50.5141 H   0  0  0  0  0  0  0  0  0  0  0  0
   50.2007   33.6901   52.4083 H   0  0  0  0  0  0  0  0  0  0  0  0
   50.4069   32.5636   54.6233 H   0  0  0  0  0  0  0  0  0  0  0  0
   52.0860   30.5920   55.8120 H   0  0  0  0  0  0  0  0  0  0  0  0
   55.0849   30.1649   52.4962 H   0  0  0  0  0  0  0  0  0  0  0  0
   61.4466   32.2293   47.8225 H   0  0  0  0  0  0  0  0  0  0  0  0
   59.8601   31.3793   47.9592 H   0  0  0  0  0  0  0  0  0  0  0  0
   60.8122   35.0021   47.6616 H   0  0  0  0  0  0  0  0  0  0  0  0
   59.9314   36.5067   45.8848 H   0  0  0  0  0  0  0  0  0  0  0  0
   58.4218   35.6040   44.1174 H   0  0  0  0  0  0  0  0  0  0  0  0
   57.8153   33.1863   44.1062 H   0  0  0  0  0  0  0  0  0  0  0  0
   59.6343   33.0098   52.4584 H   0  0  0  0  0  0  0  0  0  0  0  0
  1  2  1  0
  2  3  1  0
  3  4  1  0
  4  5  1  0
  5  6  1  0
  6  7  1  0
  7  8  1  0
  8  9  2  0
  8 10  2  0
  8 11  1  0
 11 12  2  0
 12 13  1  0
 13 14  2  0
 14 15  1  0
 15 16  1  0
 16 17  1  0
 17 18  2  0
 18 19  1  0
 19 20  1  0
 19 21  2  0
 21 22  1  0
 22 23  2  0
 23 24  1  0
 14 25  1  0
 25 26  2  0
 26 27  1  0
 27 28  2  0
 28 29  1  0
 29 30  2  0
 29 31  1  0
 31 32  1  0
 32 33  2  0
 32 34  2  0
 32 35  1  0
 35 36  1  0
 36 37  2  0
 37 38  1  0
 38 39  2  0
 39 40  1  0
 40 41  2  0
 41 42  1  0
 31 43  2  0
 43 44  1  0
 26 11  1  0
 44 27  1  0
 23 17  1  0
 41 36  1  0
  1 45  1  0
  1 46  1  0
  1 47  1  0
  2 48  1  0
  2 49  1  0
  3 50  1  0
  3 51  1  0
  4 52  1  0
  4 53  1  0
  5 54  1  0
  5 55  1  0
  6 56  1  0
  6 57  1  0
  7 58  1  0
  7 59  1  0
 12 60  1  0
 13 61  1  0
 15 62  1  0
 16 63  1  0
 16 64  1  0
 18 65  1  0
 21 66  1  0
 22 67  1  0
 24 68  1  0
 25 69  1  0
 35 70  1  0
 35 71  1  0
 37 72  1  0
 38 73  1  0
 39 74  1  0
 40 75  1  0
 43 76  1  0
M  CHG  2  20  -1  44  -1
M  END
>  <UniqueID>  (81) 
73

>  <SMILES>  (81) 
CCCCCCCS(=O)(=O)c1ccc(NCc2cc([O-])ccc2O)cc1-c1nc(=O)c(S(=O)(=O)Cc2ccccc2Br)c[n-]1

>  <Energy>  (81) 
73.3574850667205

>  <Genealogy>  (81) 
CCCCCCCS(=O)(=O)c1ccc(NCc2cc([O-])ccc2O)cc1-c1nc(=O)c(S(=O)(=O)Cc2ccccc2Br)c[n-]1 (protonated)
CCCCCCCS(=O)(=O)c1ccc(NCc2cc([O-])ccc2O)cc1-c1nc(=O)c(S(=O)(=O)Cc2ccccc2Br)c[n-]1 (3D coordinates assigned)
CCCCCCCS(=O)(=O)c1ccc(NCc2cc([O-])ccc2O)cc1-c1nc(=O)c(S(=O)(=O)Cc2ccccc2Br)c[n-]1 (optimized conformer: 73.3574850667205 kcal/mol)

>  <smiles>  (81) 
CCCCCCCS(=O)(=O)c1ccc(NCc2cc(O)ccc2O)cc1-c1nc(=O)c(S(=O)(=O)Cc2ccccc2Br)c[nH]1

>  <score_type>  (81) 
oracle

>  <origin>  (81) 
adg

>  <m_score__min__energy>  (81) 
-15.460000000000001

>  <m_primary>  (81) 
energy

$$$$
81:0
     RDKit          3D

 58 60  0  0  0  0  0  0  0  0999 V2000
   57.4183   34.3395   45.8917 H   0  0  0  0  0  0  0  0  0  0  0  0
   57.0240   33.4000   45.4770 C   0  0  0  0  0  0  0  0  0  0  0  0
   56.0202   33.3756   45.0278 H   0  0  0  0  0  0  0  0  0  0  0  0
   57.7640   32.2890   45.5190 C   0  0  0  0  0  0  0  0  0  0  0  0
   59.0530   32.1760   46.0240 C   0  0  0  0  0  0  0  0  0  0  0  0
   59.8620   33.2400   46.6480 C   0  0  0  0  0  0  0  0  0  0  0  0
   60.2890   34.1810   45.9260 O   0  0  0  0  0  0  0  0  0  0  0  0
   60.1870   33.2030   48.0530 N   0  0  0  0  0  0  0  0  0  0  0  0
   60.2410   31.9220   48.7680 C   0  0  0  0  0  0  0  0  0  0  0  0
   59.2172   31.6012   49.0108 H   0  0  0  0  0  0  0  0  0  0  0  0
   60.7325   31.1789   48.1229 H   0  0  0  0  0  0  0  0  0  0  0  0
   61.0490   32.0560   50.0690 C   0  0  0  0  0  0  0  0  0  0  0  0
   60.4091   32.5088   50.8407 H   0  0  0  0  0  0  0  0  0  0  0  0
   61.3811   31.0517   50.3707 H   0  0  0  0  0  0  0  0  0  0  0  0
   62.2480   32.9010   49.8850 N   0  0  0  0  0  0  0  0  0  0  0  0
   63.2490   32.2490   49.0210 C   0  0  0  0  0  0  0  0  0  0  0  0
   64.0072   31.7551   49.6465 H   0  0  0  0  0  0  0  0  0  0  0  0
   62.7531   31.5001   48.3859 H   0  0  0  0  0  0  0  0  0  0  0  0
   63.7335   33.0053   48.3859 H   0  0  0  0  0  0  0  0  0  0  0  0
   61.9360   34.2790   49.4250 C   0  0  0  0  0  0  0  0  0  0  0  0
   61.9833   34.9521   50.2937 H   0  0  0  0  0  0  0  0  0  0  0  0
   62.6768   34.5304   48.6517 H   0  0  0  0  0  0  0  0  0  0  0  0
   60.5470   34.4260   48.7740 C   0  0  0  0  0  0  0  0  0  0  0  0
   59.7987   34.6183   49.5570 H   0  0  0  0  0  0  0  0  0  0  0  0
   60.5744   35.2640   48.0620 H   0  0  0  0  0  0  0  0  0  0  0  0
   59.4380   30.8580   45.8150 C   0  0  0  0  0  0  0  0  0  0  0  0
   60.7260   30.2160   46.2440 C   0  0  0  0  0  0  0  0  0  0  0  0
   60.7753   30.1914   47.3426 H   0  0  0  0  0  0  0  0  0  0  0  0
   60.7724   29.1893   45.8518 H   0  0  0  0  0  0  0  0  0  0  0  0
   61.5737   30.7970   45.8518 H   0  0  0  0  0  0  0  0  0  0  0  0
   58.3600   30.2270   45.2040 C   0  0  0  0  0  0  0  0  0  0  0  0
   58.3080   28.9290   44.8680 C   0  0  0  0  0  0  0  0  0  0  0  0
   58.9482   28.5738   44.0470 H   0  0  0  0  0  0  0  0  0  0  0  0
   57.4340   27.9580   45.5470 C   0  0  0  0  0  0  0  0  0  0  0  0
   56.0600   27.9670   45.4630 C   0  0  0  0  0  0  0  0  0  0  0  0
   55.3030   28.9650   44.8630 O   0  0  0  0  0  0  0  0  0  0  0  0
   55.5240   26.8600   45.9910 N   0  0  0  0  0  0  0  0  0  0  0  0
   56.5650   26.1170   46.4180 C   0  0  0  0  0  0  0  0  0  0  0  0
   56.3380   24.7480   46.9780 C   0  0  0  0  0  0  0  0  0  0  0  0
   56.3459   24.7954   48.0769 H   0  0  0  0  0  0  0  0  0  0  0  0
   55.3646   24.3680   46.6344 H   0  0  0  0  0  0  0  0  0  0  0  0
   57.1367   24.0742   46.6344 H   0  0  0  0  0  0  0  0  0  0  0  0
   57.7950   26.7690   46.1910 C   0  0  0  0  0  0  0  0  0  0  0  0
   59.2270   26.2580   46.4680 C   0  0  0  0  0  0  0  0  0  0  0  0
   59.5050   26.3610   47.9790 C   0  0  0  0  0  0  0  0  0  0  0  0
   58.6169   26.0320   48.5385 H   0  0  0  0  0  0  0  0  0  0  0  0
   60.3604   25.7201   48.2390 H   0  0  0  0  0  0  0  0  0  0  0  0
   59.7363   27.4045   48.2390 H   0  0  0  0  0  0  0  0  0  0  0  0
   60.2930   27.0760   45.7000 C   0  0  0  0  0  0  0  0  0  0  0  0
   60.9538   27.5831   46.4184 H   0  0  0  0  0  0  0  0  0  0  0  0
   60.8882   26.4006   45.0679 H   0  0  0  0  0  0  0  0  0  0  0  0
   59.7946   27.8257   45.0679 H   0  0  0  0  0  0  0  0  0  0  0  0
   59.3950   24.7830   46.0190 C   0  0  0  0  0  0  0  0  0  0  0  0
   59.4687   24.1360   46.9055 H   0  0  0  0  0  0  0  0  0  0  0  0
   58.5254   24.4818   45.4165 H   0  0  0  0  0  0  0  0  0  0  0  0
   60.3101   24.6851   45.4165 H   0  0  0  0  0  0  0  0  0  0  0  0
   57.3460   31.1040   45.0310 N   0  0  0  0  0  0  0  0  0  0  0  0
   56.4080   30.9110   44.6120 H   0  0  0  0  0  0  0  0  0  0  0  0
  1  2  1  0
  2  3  1  0
  2  4  2  0
  4  5  1  0
  5  6  1  0
  6  7  2  0
  6  8  1  0
  8  9  1  0
  9 10  1  0
  9 11  1  0
  9 12  1  0
 12 13  1  0
 12 14  1  0
 12 15  1  0
 15 16  1  0
 16 17  1  0
 16 18  1  0
 16 19  1  0
 15 20  1  0
 20 21  1  0
 20 22  1  0
 20 23  1  0
 23 24  1  0
 23 25  1  0
  5 26  2  0
 26 27  1  0
 27 28  1  0
 27 29  1  0
 27 30  1  0
 26 31  1  0
 31 32  2  0
 32 33  1  0
 32 34  1  0
 34 35  2  0
 35 36  1  0
 35 37  1  0
 37 38  1  0
 38 39  1  0
 39 40  1  0
 39 41  1  0
 39 42  1  0
 38 43  2  0
 43 44  1  0
 44 45  1  0
 45 46  1  0
 45 47  1  0
 45 48  1  0
 44 49  1  0
 49 50  1  0
 49 51  1  0
 49 52  1  0
 44 53  1  0
 53 54  1  0
 53 55  1  0
 53 56  1  0
 31 57  1  0
 57 58  1  0
 57  4  1  0
 23  8  1  0
 43 34  1  0
M  CHG  2  36  -1  37  -1
M  END
>  <UniqueID>  (82) 
74

>  <SMILES>  (82) 
C=c1[nH]/c(=C\c2c([O-])[n-]c(C)c2C(C)(C)C)c(C)c1C(=O)N1CCN(C)CC1

>  <Energy>  (82) 
133.13031923942077

>  <Genealogy>  (82) 
C=c1[nH]c(=Cc2c([O-])[n-]c(C)c2C(C)(C)C)c(C)c1C(=O)N1CCN(C)CC1 (protonated)
C=c1[nH]/c(=C\c2c([O-])[n-]c(C)c2C(C)(C)C)c(C)c1C(=O)N1CCN(C)CC1 (cis-trans isomerization)
C=c1[nH]/c(=C\c2c([O-])[n-]c(C)c2C(C)(C)C)c(C)c1C(=O)N1CCN(C)CC1 (3D coordinates assigned)
C=c1[nH]/c(=C\c2c([O-])[n-]c(C)c2C(C)(C)C)c(C)c1C(=O)N1CCN(C)CC1 (nonaromatic ring conformer: 133.13031923942077 kcal/mol)

>  <smiles>  (82) 
C=c1[nH]c(=Cc2c(O)[nH]c(C)c2C(C)(C)C)c(C)c1C(=O)N1CCN(C)CC1

>  <score_type>  (82) 
oracle

>  <origin>  (82) 
adg

>  <m_score__min__energy>  (82) 
-13.880000000000001

>  <m_primary>  (82) 
energy

$$$$
82:0
     RDKit          3D

 59 62  0  0  0  0  0  0  0  0999 V2000
   55.9380   29.7690   43.0320 N   0  0  0  0  0  0  0  0  0  0  0  0
   56.5540   30.3640   43.8110 C   0  0  0  0  0  0  0  0  0  0  0  0
   57.3210   31.1040   44.7780 C   0  0  0  0  0  0  0  0  0  0  0  0
   57.3990   32.4950   44.7040 C   0  0  0  0  0  0  0  0  0  0  0  0
   58.1170   33.1840   45.6270 N   0  0  0  0  0  0  0  0  0  0  0  0
   58.7810   32.5790   46.6500 C   0  0  0  0  0  0  0  0  0  0  0  0
   59.4220   33.3470   47.4900 N   0  0  0  0  0  0  0  0  0  0  0  0
   59.2800   33.4530   48.9120 C   0  0  0  0  0  0  0  0  0  0  0  0
   59.6330   34.5050   49.5140 O   0  0  0  0  0  0  0  0  0  0  0  0
   58.8280   32.3180   49.6530 N   0  0  0  0  0  0  0  0  0  0  0  0
   58.9460   32.2140   51.0750 C   0  0  0  0  0  0  0  0  0  0  0  0
   60.1060   32.7000   51.6880 C   0  0  0  0  0  0  0  0  0  0  0  0
   60.2690   32.6170   53.0780 C   0  0  0  0  0  0  0  0  0  0  0  0
   61.5120   33.1550   53.7240 C   0  0  0  0  0  0  0  0  0  0  0  0
   62.3140   33.8470   52.7200 N   0  0  0  0  0  0  0  0  0  0  0  0
   63.3420   32.7130   51.9010 S   0  0  0  0  0  0  0  0  0  0  0  0
   63.0990   31.3290   52.4370 O   0  0  0  0  0  0  0  0  0  0  0  0
   64.7780   33.0780   52.1520 O   0  0  0  0  0  0  0  0  0  0  0  0
   63.0330   32.7590   50.1660 C   0  0  0  0  0  0  0  0  0  0  0  0
   62.8270   31.5630   49.4630 C   0  0  0  0  0  0  0  0  0  0  0  0
   62.6040   31.5890   48.0830 C   0  0  0  0  0  0  0  0  0  0  0  0
   62.5930   32.8080   47.3990 C   0  0  0  0  0  0  0  0  0  0  0  0
   62.8050   34.0020   48.0930 C   0  0  0  0  0  0  0  0  0  0  0  0
   63.0260   33.9800   49.4750 C   0  0  0  0  0  0  0  0  0  0  0  0
   59.2390   32.0760   53.8600 C   0  0  0  0  0  0  0  0  0  0  0  0
   58.0700   31.6060   53.2580 C   0  0  0  0  0  0  0  0  0  0  0  0
   57.9020   31.6790   51.8650 C   0  0  0  0  0  0  0  0  0  0  0  0
   56.6010   31.2180   51.2510 C   0  0  0  0  0  0  0  0  0  0  0  0
   55.4660   31.5790   52.0970 N   0  0  0  0  0  0  0  0  0  0  0  0
   54.3120   30.7630   52.3400 C   0  0  0  0  0  0  0  0  0  0  0  0
   54.3360   29.9640   53.3150 O   0  0  0  0  0  0  0  0  0  0  0  0
   53.1160   30.7930   51.4230 C   0  0  0  0  0  0  0  0  0  0  0  0
   51.9500   31.5060   52.0420 C   0  0  0  0  0  0  0  0  0  0  0  0
   51.6560   31.4780   53.3540 N   0  0  0  0  0  0  0  0  0  0  0  0
   50.5670   32.2730   53.4420 C   0  0  0  0  0  0  0  0  0  0  0  0
   49.9810   32.4980   54.5330 O   0  0  0  0  0  0  0  0  0  0  0  0
   50.1570   32.8080   52.2730 N   0  0  0  0  0  0  0  0  0  0  0  0
   51.0460   32.3150   51.3960 C   0  0  0  0  0  0  0  0  0  0  0  0
   51.0340   32.5990   50.0370 O   0  0  0  0  0  0  0  0  0  0  0  0
   58.7670   31.1610   46.7260 C   0  0  0  0  0  0  0  0  0  0  0  0
   59.5240   30.4640   47.6680 O   0  0  0  0  0  0  0  0  0  0  0  0
   58.0130   30.4380   45.7920 C   0  0  0  0  0  0  0  0  0  0  0  0
   56.8788   33.0331   43.8979 H   0  0  0  0  0  0  0  0  0  0  0  0
   60.8982   33.1519   51.0730 H   0  0  0  0  0  0  0  0  0  0  0  0
   61.2362   33.8586   54.5233 H   0  0  0  0  0  0  0  0  0  0  0  0
   62.0933   32.3260   54.1540 H   0  0  0  0  0  0  0  0  0  0  0  0
   62.8409   30.6023   49.9986 H   0  0  0  0  0  0  0  0  0  0  0  0
   62.4371   30.6498   47.5353 H   0  0  0  0  0  0  0  0  0  0  0  0
   62.4173   32.8273   46.3133 H   0  0  0  0  0  0  0  0  0  0  0  0
   62.7982   34.9602   47.5528 H   0  0  0  0  0  0  0  0  0  0  0  0
   63.1943   34.9207   50.0197 H   0  0  0  0  0  0  0  0  0  0  0  0
   59.3522   32.0215   54.9528 H   0  0  0  0  0  0  0  0  0  0  0  0
   57.2726   31.1742   53.8807 H   0  0  0  0  0  0  0  0  0  0  0  0
   56.4804   31.6920   50.2657 H   0  0  0  0  0  0  0  0  0  0  0  0
   56.6293   30.1229   51.1510 H   0  0  0  0  0  0  0  0  0  0  0  0
   53.3948   31.3096   50.4927 H   0  0  0  0  0  0  0  0  0  0  0  0
   52.8130   29.7540   51.2262 H   0  0  0  0  0  0  0  0  0  0  0  0
   59.8550   30.9030   48.5200 H   0  0  0  0  0  0  0  0  0  0  0  0
   57.9659   29.3410   45.8577 H   0  0  0  0  0  0  0  0  0  0  0  0
  1  2  3  0
  2  3  1  0
  3  4  2  0
  4  5  1  0
  5  6  1  0
  6  7  2  3
  7  8  1  0
  8  9  2  0
  8 10  1  0
 10 11  1  0
 11 12  2  0
 12 13  1  0
 13 14  1  0
 14 15  1  0
 15 16  1  0
 16 17  2  0
 16 18  2  0
 16 19  1  0
 19 20  2  0
 20 21  1  0
 21 22  2  0
 22 23  1  0
 23 24  2  0
 13 25  2  0
 25 26  1  0
 26 27  2  0
 27 28  1  0
 28 29  1  0
 29 30  1  0
 30 31  2  0
 30 32  1  0
 32 33  1  0
 33 34  1  0
 34 35  1  0
 35 36  2  0
 35 37  1  0
 37 38  1  0
 38 39  1  0
  6 40  1  0
 40 41  1  0
 40 42  2  0
 42  3  1  0
 27 11  1  0
 38 33  2  0
 24 19  1  0
  4 43  1  0
 12 44  1  0
 14 45  1  0
 14 46  1  0
 20 47  1  0
 21 48  1  0
 22 49  1  0
 23 50  1  0
 24 51  1  0
 25 52  1  0
 26 53  1  0
 28 54  1  0
 28 55  1  0
 32 56  1  0
 32 57  1  0
 41 58  1  0
 42 59  1  0
M  CHG  7   5  -1  10  -1  15  -1  29  -1  34  -1  37  -1  39  -1
M  END
>  <UniqueID>  (83) 
75

>  <SMILES>  (83) 
N#Cc1c[n-]c(=NC(=O)[N-]c2cc(C[N-]S(=O)(=O)c3ccccc3)ccc2C[N-]C(=O)Cc2[n-]c(=O)[n-]c2[O-])c(O)c1

>  <Energy>  (83) 
107.24142440288328

>  <Genealogy>  (83) 
N#Cc1c[n-]c(=NC(=O)[N-]c2cc(C[N-]S(=O)(=O)c3ccccc3)ccc2C[N-]C(=O)Cc2[n-]c(=O)[n-]c2[O-])c(O)c1 (protonated)
N#Cc1c[n-]c(=NC(=O)[N-]c2cc(C[N-]S(=O)(=O)c3ccccc3)ccc2C[N-]C(=O)Cc2[n-]c(=O)[n-]c2[O-])c(O)c1 (3D coordinates assigned)
N#Cc1c[n-]c(=NC(=O)[N-]c2cc(C[N-]S(=O)(=O)c3ccccc3)ccc2C[N-]C(=O)Cc2[n-]c(=O)[n-]c2[O-])c(O)c1 (optimized conformer: 107.24142440288328 kcal/mol)

>  <smiles>  (83) 
N#Cc1c[nH]c(=NC(=O)Nc2cc(CNS(=O)(=O)c3ccccc3)ccc2CNC(=O)Cc2[nH]c(=O)[nH]c2O)c(O)c1

>  <score_type>  (83) 
oracle

>  <origin>  (83) 
adg

>  <m_score__min__energy>  (83) 
-23.079999999999998

>  <m_primary>  (83) 
energy

$$$$
83:0
     RDKit          3D

 43 46  0  0  0  0  0  0  0  0999 V2000
   64.7280   32.7800   47.7580 H   0  0  0  0  0  0  0  0  0  0  0  0
   63.8400   32.8830   48.2990 N   0  0  0  0  0  0  0  0  0  0  0  0
   62.9200   31.9760   48.2650 C   0  0  0  0  0  0  0  0  0  0  0  0
   62.1300   31.8390   47.1640 N   0  0  0  0  0  0  0  0  0  0  0  0
   61.1620   30.8890   47.1160 C   0  0  0  0  0  0  0  0  0  0  0  0
   60.3750   30.7740   46.0170 N   0  0  0  0  0  0  0  0  0  0  0  0
   59.3780   29.8520   45.9140 C   0  0  0  0  0  0  0  0  0  0  0  0
   58.6400   29.8980   44.8380 N   0  0  0  0  0  0  0  0  0  0  0  0
   57.9410   31.0070   44.2550 C   0  0  0  0  0  0  0  0  0  0  0  0
   58.1700   31.3450   43.0630 O   0  0  0  0  0  0  0  0  0  0  0  0
   56.9100   31.6750   44.9840 N   0  0  0  0  0  0  0  0  0  0  0  0
   56.8980   33.1130   45.2300 C   0  0  0  0  0  0  0  0  0  0  0  0
   56.9617   33.6447   44.2691 H   0  0  0  0  0  0  0  0  0  0  0  0
   55.9647   33.3762   45.7494 H   0  0  0  0  0  0  0  0  0  0  0  0
   58.0630   33.5120   46.0940 C   0  0  0  0  0  0  0  0  0  0  0  0
   58.1160   33.0980   47.4360 C   0  0  0  0  0  0  0  0  0  0  0  0
   57.2989   32.4931   47.8561 H   0  0  0  0  0  0  0  0  0  0  0  0
   59.2050   33.4530   48.2390 C   0  0  0  0  0  0  0  0  0  0  0  0
   59.2418   33.1276   49.2891 H   0  0  0  0  0  0  0  0  0  0  0  0
   60.2460   34.2200   47.7100 C   0  0  0  0  0  0  0  0  0  0  0  0
   61.1015   34.4979   48.3432 H   0  0  0  0  0  0  0  0  0  0  0  0
   60.2000   34.6340   46.3760 C   0  0  0  0  0  0  0  0  0  0  0  0
   61.0203   35.2373   45.9598 H   0  0  0  0  0  0  0  0  0  0  0  0
   59.1140   34.2830   45.5700 C   0  0  0  0  0  0  0  0  0  0  0  0
   59.0818   34.6117   44.5208 H   0  0  0  0  0  0  0  0  0  0  0  0
   59.1960   28.9120   46.9760 C   0  0  0  0  0  0  0  0  0  0  0  0
   58.3720   27.6870   46.8640 C   0  0  0  0  0  0  0  0  0  0  0  0
   58.9140   26.4360   47.2050 C   0  0  0  0  0  0  0  0  0  0  0  0
   59.9601   26.3642   47.5376 H   0  0  0  0  0  0  0  0  0  0  0  0
   58.1280   25.2820   47.1230 C   0  0  0  0  0  0  0  0  0  0  0  0
   58.5609   24.3035   47.3784 H   0  0  0  0  0  0  0  0  0  0  0  0
   56.7930   25.3700   46.7170 C   0  0  0  0  0  0  0  0  0  0  0  0
   56.0180   24.2200   46.6350 O   0  0  0  0  0  0  0  0  0  0  0  0
   56.2390   26.6160   46.3960 C   0  0  0  0  0  0  0  0  0  0  0  0
   54.9110   26.7100   45.9980 O   0  0  0  0  0  0  0  0  0  0  0  0
   57.0240   27.7720   46.4760 C   0  0  0  0  0  0  0  0  0  0  0  0
   56.5841   28.7508   46.2342 H   0  0  0  0  0  0  0  0  0  0  0  0
   59.9830   29.0470   48.1340 C   0  0  0  0  0  0  0  0  0  0  0  0
   59.8248   28.3679   48.9848 H   0  0  0  0  0  0  0  0  0  0  0  0
   60.9630   30.0370   48.2100 C   0  0  0  0  0  0  0  0  0  0  0  0
   61.7850   30.1910   49.3300 C   0  0  0  0  0  0  0  0  0  0  0  0
   61.6575   29.5345   50.2034 H   0  0  0  0  0  0  0  0  0  0  0  0
   62.7420   31.1550   49.3350 N   0  0  0  0  0  0  0  0  0  0  0  0
  1  2  1  0
  2  3  2  3
  3  4  1  0
  4  5  2  0
  5  6  1  0
  6  7  1  0
  7  8  2  0
  8  9  1  0
  9 10  2  0
  9 11  1  0
 11 12  1  0
 12 13  1  0
 12 14  1  0
 12 15  1  0
 15 16  2  0
 16 17  1  0
 16 18  1  0
 18 19  1  0
 18 20  2  0
 20 21  1  0
 20 22  1  0
 22 23  1  0
 22 24  2  0
 24 25  1  0
  7 26  1  0
 26 27  1  0
 27 28  2  0
 28 29  1  0
 28 30  1  0
 30 31  1  0
 30 32  2  0
 32 33  1  0
 32 34  1  0
 34 35  1  0
 34 36  2  0
 36 37  1  0
 26 38  2  0
 38 39  1  0
 38 40  1  0
 40 41  2  0
 41 42  1  0
 41 43  1  0
 43  3  1  0
 40  5  1  0
 24 15  1  0
 36 27  1  0
M  CHG  5   6  -1  11  -1  33  -1  35  -1  43  -1
M  END
>  <UniqueID>  (84) 
76

>  <SMILES>  (84) 
N=c1nc2[n-]/c(=N/C(=O)[N-]Cc3ccccc3)c(-c3ccc([O-])c([O-])c3)cc2c[n-]1

>  <Energy>  (84) 
69.94966844153791

>  <Genealogy>  (84) 
N=c1nc2[n-]c(=NC(=O)[N-]Cc3ccccc3)c(-c3ccc([O-])c([O-])c3)cc2c[n-]1 (protonated)
N=c1nc2[n-]/c(=N/C(=O)[N-]Cc3ccccc3)c(-c3ccc([O-])c([O-])c3)cc2c[n-]1 (cis-trans isomerization)
N=c1nc2[n-]/c(=N/C(=O)[N-]Cc3ccccc3)c(-c3ccc([O-])c([O-])c3)cc2c[n-]1 (3D coordinates assigned)
N=c1nc2[n-]/c(=N/C(=O)[N-]Cc3ccccc3)c(-c3ccc([O-])c([O-])c3)cc2c[n-]1 (optimized conformer: 69.94966844153791 kcal/mol)

>  <smiles>  (84) 
N=c1nc2[nH]c(=NC(=O)NCc3ccccc3)c(-c3ccc(O)c(O)c3)cc2c[nH]1

>  <score_type>  (84) 
oracle

>  <origin>  (84) 
adg

>  <m_score__min__energy>  (84) 
-18.030000000000001

>  <m_primary>  (84) 
energy

$$$$
84:0
     RDKit          3D

 50 52  0  0  0  0  0  0  0  0999 V2000
   56.6780   24.5920   47.2380 C   0  0  0  0  0  0  0  0  0  0  0  0
   57.2780   25.0440   46.0150 O   0  0  0  0  0  0  0  0  0  0  0  0
   57.4270   26.3960   45.6530 C   0  0  0  0  0  0  0  0  0  0  0  0
   58.6780   26.9420   45.2970 C   0  0  0  0  0  0  0  0  0  0  0  0
   58.7920   28.2990   44.9390 C   0  0  0  0  0  0  0  0  0  0  0  0
   60.1370   28.8440   44.5180 C   0  0  0  0  0  0  0  0  0  0  0  0
   60.8460   29.3490   45.7060 N   0  0  0  0  0  0  0  0  0  0  0  0
   59.9560   29.9200   46.7370 C   0  0  0  0  0  0  0  0  0  0  0  0
   60.6390   30.0770   48.1170 C   0  0  0  0  0  0  0  0  0  0  0  0
   60.9720   31.5320   48.5110 C   0  0  0  0  0  0  0  0  0  0  0  0
   60.0710   32.0450   49.5680 N   0  0  0  0  0  0  0  0  0  0  0  0
   59.1040   31.2220   50.0940 C   0  0  0  0  0  0  0  0  0  0  0  0
   58.2260   31.6830   51.0780 C   0  0  0  0  0  0  0  0  0  0  0  0
   57.1980   30.8090   51.6030 C   0  0  0  0  0  0  0  0  0  0  0  0
   56.3710   30.1100   52.0220 N   0  0  0  0  0  0  0  0  0  0  0  0
   58.3820   32.9960   51.5370 C   0  0  0  0  0  0  0  0  0  0  0  0
   57.6250   33.4580   52.4340 O   0  0  0  0  0  0  0  0  0  0  0  0
   59.3690   33.7830   51.0190 N   0  0  0  0  0  0  0  0  0  0  0  0
   60.2100   33.3260   50.0520 C   0  0  0  0  0  0  0  0  0  0  0  0
   61.1200   34.0910   49.6190 O   0  0  0  0  0  0  0  0  0  0  0  0
   57.6320   29.1190   44.9350 C   0  0  0  0  0  0  0  0  0  0  0  0
   57.6960   30.5400   44.5330 C   0  0  0  0  0  0  0  0  0  0  0  0
   57.6880   30.8800   43.1720 C   0  0  0  0  0  0  0  0  0  0  0  0
   57.7740   32.2210   42.7820 C   0  0  0  0  0  0  0  0  0  0  0  0
   57.8650   33.2300   43.7470 C   0  0  0  0  0  0  0  0  0  0  0  0
   57.8650   32.9000   45.1060 C   0  0  0  0  0  0  0  0  0  0  0  0
   57.7770   31.5590   45.4990 C   0  0  0  0  0  0  0  0  0  0  0  0
   56.3870   28.5670   45.2790 C   0  0  0  0  0  0  0  0  0  0  0  0
   56.2860   27.2200   45.6410 C   0  0  0  0  0  0  0  0  0  0  0  0
   55.0420   26.6970   45.9910 O   0  0  0  0  0  0  0  0  0  0  0  0
   57.2306   25.0083   48.0932 H   0  0  0  0  0  0  0  0  0  0  0  0
   55.6314   24.9280   47.2790 H   0  0  0  0  0  0  0  0  0  0  0  0
   56.7122   23.4933   47.2790 H   0  0  0  0  0  0  0  0  0  0  0  0
   59.5726   26.3019   45.2991 H   0  0  0  0  0  0  0  0  0  0  0  0
   60.7282   28.0438   44.0488 H   0  0  0  0  0  0  0  0  0  0  0  0
   59.9958   29.6614   43.7955 H   0  0  0  0  0  0  0  0  0  0  0  0
   61.4440   28.5880   46.1120 H   0  0  0  0  0  0  0  0  0  0  0  0
   59.6208   30.9115   46.3986 H   0  0  0  0  0  0  0  0  0  0  0  0
   59.1169   29.2206   46.8666 H   0  0  0  0  0  0  0  0  0  0  0  0
   59.9664   29.6606   48.8814 H   0  0  0  0  0  0  0  0  0  0  0  0
   61.6000   29.5460   48.0499 H   0  0  0  0  0  0  0  0  0  0  0  0
   62.0080   31.5713   48.8787 H   0  0  0  0  0  0  0  0  0  0  0  0
   60.8398   32.1622   47.6192 H   0  0  0  0  0  0  0  0  0  0  0  0
   59.0202   30.1856   49.7351 H   0  0  0  0  0  0  0  0  0  0  0  0
   57.6139   30.0905   42.4096 H   0  0  0  0  0  0  0  0  0  0  0  0
   57.7700   32.4827   41.7136 H   0  0  0  0  0  0  0  0  0  0  0  0
   57.9366   34.2829   43.4367 H   0  0  0  0  0  0  0  0  0  0  0  0
   57.9341   33.6930   45.8652 H   0  0  0  0  0  0  0  0  0  0  0  0
   57.7712   31.3012   46.5684 H   0  0  0  0  0  0  0  0  0  0  0  0
   55.4861   29.1980   45.2636 H   0  0  0  0  0  0  0  0  0  0  0  0
  1  2  1  0
  2  3  1  0
  3  4  2  0
  4  5  1  0
  5  6  1  0
  6  7  1  0
  7  8  1  0
  8  9  1  0
  9 10  1  0
 10 11  1  0
 11 12  1  0
 12 13  2  0
 13 14  1  0
 14 15  3  0
 13 16  1  0
 16 17  2  0
 16 18  1  0
 18 19  1  0
 19 20  2  0
  5 21  2  0
 21 22  1  0
 22 23  2  0
 23 24  1  0
 24 25  2  0
 25 26  1  0
 26 27  2  0
 21 28  1  0
 28 29  2  0
 29 30  1  0
 29  3  1  0
 19 11  1  0
 27 22  1  0
  1 31  1  0
  1 32  1  0
  1 33  1  0
  4 34  1  0
  6 35  1  0
  6 36  1  0
  7 37  1  0
  8 38  1  0
  8 39  1  0
  9 40  1  0
  9 41  1  0
 10 42  1  0
 10 43  1  0
 12 44  1  0
 23 45  1  0
 24 46  1  0
 25 47  1  0
 26 48  1  0
 27 49  1  0
 28 50  1  0
M  CHG  2  18  -1  30  -1
M  END
>  <UniqueID>  (85) 
77

>  <SMILES>  (85) 
COc1cc(CNCCCn2cc(C#N)c(=O)[n-]c2=O)c(-c2ccccc2)cc1[O-]

>  <Energy>  (85) 
60.73829463437665

>  <Genealogy>  (85) 
COc1cc(CNCCCn2cc(C#N)c(=O)[n-]c2=O)c(-c2ccccc2)cc1[O-] (protonated)
COc1cc(CNCCCn2cc(C#N)c(=O)[n-]c2=O)c(-c2ccccc2)cc1[O-] (3D coordinates assigned)
COc1cc(CNCCCn2cc(C#N)c(=O)[n-]c2=O)c(-c2ccccc2)cc1[O-] (optimized conformer: 60.73829463437665 kcal/mol)

>  <smiles>  (85) 
COc1cc(CNCCCn2cc(C#N)c(=O)[nH]c2=O)c(-c2ccccc2)cc1O

>  <score_type>  (85) 
oracle

>  <origin>  (85) 
adg

>  <m_score__min__energy>  (85) 
-11.82

>  <m_primary>  (85) 
energy

$$$$
85:0
     RDKit          3D

 44 46  0  0  1  0  0  0  0  0999 V2000
   58.2090   21.9520   44.5280 C   0  0  0  0  0  0  0  0  0  0  0  0
   57.1420   22.6680   43.7440 C   0  0  1  0  0  0  0  0  0  0  0  0
   56.0430   21.8460   43.5800 O   0  0  0  0  0  0  0  0  0  0  0  0
   56.7810   23.8880   44.5060 C   0  0  0  0  0  0  0  0  0  0  0  0
   57.7790   24.7920   44.8030 C   0  0  0  0  0  0  0  0  0  0  0  0
   57.4400   25.9240   45.5110 C   0  0  0  0  0  0  0  0  0  0  0  0
   58.3640   26.7700   45.7920 N   0  0  0  0  0  0  0  0  0  0  0  0
   58.9930   27.5980   44.7810 C   0  0  0  0  0  0  0  0  0  0  0  0
   57.9890   28.0640   43.7500 C   0  0  0  0  0  0  0  0  0  0  0  0
   57.1540   29.1060   44.3600 C   0  0  0  0  0  0  0  0  0  0  0  0
   56.2960   28.8490   45.2480 O   0  0  0  0  0  0  0  0  0  0  0  0
   57.2940   30.4800   43.9550 N   0  0  0  0  0  0  0  0  0  0  0  0
   56.9990   31.0010   42.6340 C   0  0  0  0  0  0  0  0  0  0  0  0
   57.6600   32.3420   42.6270 C   0  0  0  0  0  0  0  0  0  0  0  0
   57.9690   32.6310   44.0300 C   0  0  0  0  0  0  0  0  0  0  0  0
   58.4260   33.8250   44.5970 C   0  0  0  0  0  0  0  0  0  0  0  0
   58.6710   33.9330   45.9520 C   0  0  0  0  0  0  0  0  0  0  0  0
   58.4480   32.8120   46.7320 C   0  0  0  0  0  0  0  0  0  0  0  0
   57.9980   31.6380   46.1710 C   0  0  0  0  0  0  0  0  0  0  0  0
   57.7490   31.5170   44.8160 C   0  0  0  0  0  0  0  0  0  0  0  0
   56.1810   26.1660   45.9140 N   0  0  0  0  0  0  0  0  0  0  0  0
   55.2150   25.2740   45.6180 C   0  0  0  0  0  0  0  0  0  0  0  0
   54.0400   25.4930   45.9910 O   0  0  0  0  0  0  0  0  0  0  0  0
   55.5320   24.1600   44.9240 N   0  0  0  0  0  0  0  0  0  0  0  0
   58.0204   22.0786   45.6043 H   0  0  0  0  0  0  0  0  0  0  0  0
   58.1927   20.8813   44.2763 H   0  0  0  0  0  0  0  0  0  0  0  0
   59.1936   22.3729   44.2763 H   0  0  0  0  0  0  0  0  0  0  0  0
   57.5030   22.9393   42.7410 H   0  0  0  0  0  0  0  0  0  0  0  0
   56.3000   20.9060   43.6870 H   0  0  0  0  0  0  0  0  0  0  0  0
   58.8165   24.6142   44.4836 H   0  0  0  0  0  0  0  0  0  0  0  0
   59.4425   28.4769   45.2663 H   0  0  0  0  0  0  0  0  0  0  0  0
   59.7621   26.9994   44.2710 H   0  0  0  0  0  0  0  0  0  0  0  0
   58.5161   28.4738   42.8758 H   0  0  0  0  0  0  0  0  0  0  0  0
   57.3638   27.2209   43.4208 H   0  0  0  0  0  0  0  0  0  0  0  0
   57.4209   30.3515   41.8528 H   0  0  0  0  0  0  0  0  0  0  0  0
   55.9198   31.0563   42.4285 H   0  0  0  0  0  0  0  0  0  0  0  0
   58.5821   32.3134   42.0279 H   0  0  0  0  0  0  0  0  0  0  0  0
   57.0143   33.1140   42.1830 H   0  0  0  0  0  0  0  0  0  0  0  0
   58.5941   34.6979   43.9491 H   0  0  0  0  0  0  0  0  0  0  0  0
   59.0297   34.8742   46.3942 H   0  0  0  0  0  0  0  0  0  0  0  0
   58.6328   32.8595   47.8153 H   0  0  0  0  0  0  0  0  0  0  0  0
   57.8310   30.7673   46.8222 H   0  0  0  0  0  0  0  0  0  0  0  0
   55.9170   27.0160   46.4480 H   0  0  0  0  0  0  0  0  0  0  0  0
   54.8020   23.4500   44.6800 H   0  0  0  0  0  0  0  0  0  0  0  0
  1  2  1  0
  2  3  1  0
  2  4  1  0
  4  5  2  0
  5  6  1  0
  6  7  2  0
  7  8  1  0
  8  9  1  0
  9 10  1  0
 10 11  2  0
 10 12  1  0
 12 13  1  0
 13 14  1  0
 14 15  1  0
 15 16  2  0
 16 17  1  0
 17 18  2  0
 18 19  1  0
 19 20  2  0
  6 21  1  0
 21 22  1  0
 22 23  2  0
 22 24  1  0
 24  4  1  0
 20 12  1  0
 20 15  1  0
  1 25  1  0
  1 26  1  0
  1 27  1  0
  2 28  1  6
  3 29  1  0
  5 30  1  0
  8 31  1  0
  8 32  1  0
  9 33  1  0
  9 34  1  0
 13 35  1  0
 13 36  1  0
 14 37  1  0
 14 38  1  0
 16 39  1  0
 17 40  1  0
 18 41  1  0
 19 42  1  0
 21 43  1  0
 24 44  1  0
M  END
>  <smiles>  (86) 
CC(O)c1cc(=NCCC(=O)N2CCc3ccccc32)[nH]c(=O)[nH]1

>  <score_type>  (86) 
oracle

>  <origin>  (86) 
adg

>  <m_score__min__energy>  (86) 
-8.9399999999999995

>  <m_primary>  (86) 
energy

$$$$
86:0
     RDKit          3D

 53 56  0  0  0  0  0  0  0  0999 V2000
   56.6960   34.6820   44.8730 C   0  0  0  0  0  0  0  0  0  0  0  0
   57.7770   33.6270   44.8230 C   0  0  0  0  0  0  0  0  0  0  0  0
   58.9160   33.7420   45.5410 C   0  0  0  0  0  0  0  0  0  0  0  0
   59.0190   33.5520   47.0030 C   0  0  0  0  0  0  0  0  0  0  0  0
   58.5400   32.3880   47.6260 C   0  0  0  0  0  0  0  0  0  0  0  0
   58.7150   32.2000   49.0000 C   0  0  0  0  0  0  0  0  0  0  0  0
   59.4040   33.1530   49.7630 C   0  0  0  0  0  0  0  0  0  0  0  0
   59.7120   32.8590   51.4790 S   0  0  0  0  0  0  0  0  0  0  0  0
   58.6020   31.9990   52.0120 O   0  0  0  0  0  0  0  0  0  0  0  0
   59.6710   34.1690   52.2170 O   0  0  0  0  0  0  0  0  0  0  0  0
   61.2400   32.0490   51.7870 N   0  0  0  0  0  0  0  0  0  0  0  0
   62.3370   32.9640   52.1510 C   0  0  0  0  0  0  0  0  0  0  0  0
   62.8050   33.8370   50.9780 C   0  0  0  0  0  0  0  0  0  0  0  0
   62.8200   33.1040   49.6610 C   0  0  0  0  0  0  0  0  0  0  0  0
   63.3490   33.7480   48.5300 C   0  0  0  0  0  0  0  0  0  0  0  0
   63.3160   33.1220   47.2810 C   0  0  0  0  0  0  0  0  0  0  0  0
   62.7600   31.8490   47.1500 C   0  0  0  0  0  0  0  0  0  0  0  0
   62.2260   31.2010   48.2670 C   0  0  0  0  0  0  0  0  0  0  0  0
   62.2290   31.8310   49.5210 C   0  0  0  0  0  0  0  0  0  0  0  0
   61.6290   31.1230   50.7110 C   0  0  0  0  0  0  0  0  0  0  0  0
   59.8650   34.3240   49.1450 C   0  0  0  0  0  0  0  0  0  0  0  0
   59.6920   34.5120   47.7710 C   0  0  0  0  0  0  0  0  0  0  0  0
   57.5500   32.4210   43.9860 C   0  0  0  0  0  0  0  0  0  0  0  0
   58.0590   32.3550   42.8330 O   0  0  0  0  0  0  0  0  0  0  0  0
   56.8440   31.2870   44.5150 N   0  0  0  0  0  0  0  0  0  0  0  0
   57.3200   30.1460   44.9330 C   0  0  0  0  0  0  0  0  0  0  0  0
   58.6430   30.0970   45.2570 N   0  0  0  0  0  0  0  0  0  0  0  0
   59.2500   28.9640   45.6940 C   0  0  0  0  0  0  0  0  0  0  0  0
   58.5150   27.7880   45.8320 C   0  0  0  0  0  0  0  0  0  0  0  0
   57.1530   27.7990   45.5380 C   0  0  0  0  0  0  0  0  0  0  0  0
   56.5350   28.9760   45.1050 C   0  0  0  0  0  0  0  0  0  0  0  0
   55.1590   28.9640   44.9100 O   0  0  0  0  0  0  0  0  0  0  0  0
   56.4583   34.9140   45.9217 H   0  0  0  0  0  0  0  0  0  0  0  0
   57.0488   35.5927   44.3669 H   0  0  0  0  0  0  0  0  0  0  0  0
   55.7941   34.3072   44.3669 H   0  0  0  0  0  0  0  0  0  0  0  0
   59.8368   33.9965   44.9957 H   0  0  0  0  0  0  0  0  0  0  0  0
   58.0246   31.6206   47.0298 H   0  0  0  0  0  0  0  0  0  0  0  0
   58.3100   31.2996   49.4850 H   0  0  0  0  0  0  0  0  0  0  0  0
   61.9900   33.6223   52.9611 H   0  0  0  0  0  0  0  0  0  0  0  0
   63.1917   32.3453   52.4618 H   0  0  0  0  0  0  0  0  0  0  0  0
   62.1265   34.6984   50.8909 H   0  0  0  0  0  0  0  0  0  0  0  0
   63.8390   34.1453   51.1922 H   0  0  0  0  0  0  0  0  0  0  0  0
   63.7915   34.7503   48.6281 H   0  0  0  0  0  0  0  0  0  0  0  0
   63.7292   33.6339   46.3994 H   0  0  0  0  0  0  0  0  0  0  0  0
   62.7420   31.3553   46.1672 H   0  0  0  0  0  0  0  0  0  0  0  0
   61.8011   30.1918   48.1628 H   0  0  0  0  0  0  0  0  0  0  0  0
   60.7355   30.5735   50.3797 H   0  0  0  0  0  0  0  0  0  0  0  0
   62.3960   30.4466   51.1163 H   0  0  0  0  0  0  0  0  0  0  0  0
   60.3654   35.0987   49.7446 H   0  0  0  0  0  0  0  0  0  0  0  0
   60.0864   35.4189   47.2894 H   0  0  0  0  0  0  0  0  0  0  0  0
   60.3223   28.9742   45.9392 H   0  0  0  0  0  0  0  0  0  0  0  0
   59.0042   26.8622   46.1690 H   0  0  0  0  0  0  0  0  0  0  0  0
   56.5616   26.8779   45.6470 H   0  0  0  0  0  0  0  0  0  0  0  0
  1  2  1  0
  2  3  2  3
  3  4  1  0
  4  5  2  0
  5  6  1  0
  6  7  2  0
  7  8  1  0
  8  9  2  0
  8 10  2  0
  8 11  1  0
 11 12  1  0
 12 13  1  0
 13 14  1  0
 14 15  2  0
 15 16  1  0
 16 17  2  0
 17 18  1  0
 18 19  2  0
 19 20  1  0
  7 21  1  0
 21 22  2  0
  2 23  1  0
 23 24  2  0
 23 25  1  0
 25 26  2  3
 26 27  1  0
 27 28  1  0
 28 29  2  0
 29 30  1  0
 30 31  2  0
 31 32  1  0
 22  4  1  0
 31 26  1  0
 20 11  1  0
 19 14  1  0
  1 33  1  0
  1 34  1  0
  1 35  1  0
  3 36  1  0
  5 37  1  0
  6 38  1  0
 12 39  1  0
 12 40  1  0
 13 41  1  0
 13 42  1  0
 15 43  1  0
 16 44  1  0
 17 45  1  0
 18 46  1  0
 20 47  1  0
 20 48  1  0
 21 49  1  0
 22 50  1  0
 28 51  1  0
 29 52  1  0
 30 53  1  0
M  CHG  2  27  -1  32  -1
M  END
>  <UniqueID>  (87) 
78

>  <SMILES>  (87) 
CC(=Cc1ccc(S(=O)(=O)N2CCc3ccccc3C2)cc1)C(=O)N=c1[n-]cccc1[O-]

>  <Energy>  (87) 
79.31534226944443

>  <Genealogy>  (87) 
CC(=Cc1ccc(S(=O)(=O)N2CCc3ccccc3C2)cc1)C(=O)N=c1[n-]cccc1[O-] (protonated)
CC(=Cc1ccc(S(=O)(=O)N2CCc3ccccc3C2)cc1)C(=O)N=c1[n-]cccc1[O-] (3D coordinates assigned)
CC(=Cc1ccc(S(=O)(=O)N2CCc3ccccc3C2)cc1)C(=O)N=c1[n-]cccc1[O-] (nonaromatic ring conformer: 79.31534226944443 kcal/mol)

>  <smiles>  (87) 
CC(=Cc1ccc(S(=O)(=O)N2CCc3ccccc3C2)cc1)C(=O)N=c1[nH]cccc1O

>  <score_type>  (87) 
oracle

>  <origin>  (87) 
adg

>  <m_score__min__energy>  (87) 
-15.76

>  <m_primary>  (87) 
energy

$$$$
87:0
     RDKit          3D

 39 41  0  0  0  0  0  0  0  0999 V2000
   56.6730   23.3620   43.4290 C   0  0  0  0  0  0  0  0  0  0  0  0
   55.6320   23.8290   44.3390 N   0  0  0  0  0  0  0  0  0  0  0  0
   54.3450   23.4470   44.3410 C   0  0  0  0  0  0  0  0  0  0  0  0
   53.7010   24.1190   45.3560 C   0  0  0  0  0  0  0  0  0  0  0  0
   54.5770   24.9200   45.9960 N   0  0  0  0  0  0  0  0  0  0  0  0
   55.7470   24.7160   45.3520 C   0  0  0  0  0  0  0  0  0  0  0  0
   57.0160   25.4190   45.7410 C   0  0  0  0  0  0  0  0  0  0  0  0
   56.7200   26.6230   46.4460 O   0  0  0  0  0  0  0  0  0  0  0  0
   57.0240   27.8980   45.9540 C   0  0  0  0  0  0  0  0  0  0  0  0
   56.1060   28.6100   45.2430 N   0  0  0  0  0  0  0  0  0  0  0  0
   56.3950   29.8450   44.7570 C   0  0  0  0  0  0  0  0  0  0  0  0
   55.5260   30.4660   44.0880 O   0  0  0  0  0  0  0  0  0  0  0  0
   57.6540   30.4110   45.0040 C   0  0  0  0  0  0  0  0  0  0  0  0
   58.5800   29.6610   45.7270 C   0  0  0  0  0  0  0  0  0  0  0  0
   58.2530   28.4250   46.1880 N   0  0  0  0  0  0  0  0  0  0  0  0
   59.9260   30.2530   45.9830 C   0  0  0  0  0  0  0  0  0  0  0  0
   59.7400   31.7260   46.3690 C   0  0  0  0  0  0  0  0  0  0  0  0
   58.9660   32.5080   45.3680 N   0  0  0  0  0  0  0  0  0  0  0  0
   58.0700   33.7870   46.1530 S   0  0  0  0  0  0  0  0  0  0  0  0
   59.1700   34.9730   46.9040 C   0  0  0  0  0  0  0  0  0  0  0  0
   57.1870   33.1970   47.2170 O   0  0  0  0  0  0  0  0  0  0  0  0
   57.2040   34.4910   45.1450 O   0  0  0  0  0  0  0  0  0  0  0  0
   58.0950   31.7400   44.4400 C   0  0  0  0  0  0  0  0  0  0  0  0
   57.5246   22.9800   44.0112 H   0  0  0  0  0  0  0  0  0  0  0  0
   56.2719   22.5575   42.7950 H   0  0  0  0  0  0  0  0  0  0  0  0
   57.0072   24.1965   42.7950 H   0  0  0  0  0  0  0  0  0  0  0  0
   53.8850   22.7233   43.6520 H   0  0  0  0  0  0  0  0  0  0  0  0
   52.6347   24.0178   45.6065 H   0  0  0  0  0  0  0  0  0  0  0  0
   57.6134   24.7583   46.3864 H   0  0  0  0  0  0  0  0  0  0  0  0
   57.5803   25.6678   44.8302 H   0  0  0  0  0  0  0  0  0  0  0  0
   60.4196   29.7129   46.8044 H   0  0  0  0  0  0  0  0  0  0  0  0
   60.5519   30.1739   45.0819 H   0  0  0  0  0  0  0  0  0  0  0  0
   59.2088   31.7695   47.3312 H   0  0  0  0  0  0  0  0  0  0  0  0
   60.7426   32.1750   46.4256 H   0  0  0  0  0  0  0  0  0  0  0  0
   59.0992   34.8966   47.9991 H   0  0  0  0  0  0  0  0  0  0  0  0
   60.2032   34.7662   46.5881 H   0  0  0  0  0  0  0  0  0  0  0  0
   58.8861   35.9877   46.5881 H   0  0  0  0  0  0  0  0  0  0  0  0
   57.2004   32.3415   44.2213 H   0  0  0  0  0  0  0  0  0  0  0  0
   58.6838   31.5324   43.5343 H   0  0  0  0  0  0  0  0  0  0  0  0
  1  2  1  0
  2  3  1  0
  3  4  2  0
  4  5  1  0
  5  6  2  0
  6  7  1  0
  7  8  1  0
  8  9  1  0
  9 10  2  0
 10 11  1  0
 11 12  2  0
 11 13  1  0
 13 14  2  0
 14 15  1  0
 14 16  1  0
 16 17  1  0
 17 18  1  0
 18 19  1  0
 19 20  1  0
 19 21  2  0
 19 22  2  0
 18 23  1  0
  6  2  1  0
 15  9  1  0
 23 13  1  0
  1 24  1  0
  1 25  1  0
  1 26  1  0
  3 27  1  0
  4 28  1  0
  7 29  1  0
  7 30  1  0
 16 31  1  0
 16 32  1  0
 17 33  1  0
 17 34  1  0
 20 35  1  0
 20 36  1  0
 20 37  1  0
 23 38  1  0
 23 39  1  0
M  CHG  1  15  -1
M  END
>  <UniqueID>  (88) 
79

>  <SMILES>  (88) 
Cn1ccnc1COc1nc(=O)c2c([n-]1)CCN(S(C)(=O)=O)C2

>  <Energy>  (88) 
72.89128869624251

>  <Genealogy>  (88) 
Cn1ccnc1COc1nc(=O)c2c([n-]1)CCN(S(C)(=O)=O)C2 (protonated)
Cn1ccnc1COc1nc(=O)c2c([n-]1)CCN(S(C)(=O)=O)C2 (3D coordinates assigned)
Cn1ccnc1COc1nc(=O)c2c([n-]1)CCN(S(C)(=O)=O)C2 (nonaromatic ring conformer: 72.89128869624251 kcal/mol)

>  <smiles>  (88) 
Cn1ccnc1COc1nc(=O)c2c([nH]1)CCN(S(C)(=O)=O)C2

>  <score_type>  (88) 
oracle

>  <origin>  (88) 
adg

>  <m_score__min__energy>  (88) 
-8.9100000000000001

>  <m_primary>  (88) 
energy

$$$$
88:0
     RDKit          3D

 49 52  0  0  0  0  0  0  0  0999 V2000
   58.7010   34.9480   44.8760 C   0  0  0  0  0  0  0  0  0  0  0  0
   57.7730   34.0950   45.5390 O   0  0  0  0  0  0  0  0  0  0  0  0
   57.9580   32.7160   45.7200 C   0  0  0  0  0  0  0  0  0  0  0  0
   57.7490   31.8640   44.6120 C   0  0  0  0  0  0  0  0  0  0  0  0
   57.9220   30.4730   44.7270 C   0  0  0  0  0  0  0  0  0  0  0  0
   58.3000   29.9560   45.9690 C   0  0  0  0  0  0  0  0  0  0  0  0
   58.5010   30.7800   47.0520 C   0  0  0  0  0  0  0  0  0  0  0  0
   58.3450   32.1640   46.9630 C   0  0  0  0  0  0  0  0  0  0  0  0
   58.8800   29.9790   48.1140 C   0  0  0  0  0  0  0  0  0  0  0  0
   59.2250   30.4050   49.5130 C   0  0  0  0  0  0  0  0  0  0  0  0
   60.5130   29.7770   49.9720 C   0  0  0  0  0  0  0  0  0  0  0  0
   60.4710   28.7320   50.6720 O   0  0  0  0  0  0  0  0  0  0  0  0
   61.7920   30.3230   49.6290 N   0  0  0  0  0  0  0  0  0  0  0  0
   62.2600   31.6490   50.0120 C   0  0  0  0  0  0  0  0  0  0  0  0
   61.5630   32.6850   49.1720 C   0  0  0  0  0  0  0  0  0  0  0  0
   60.4770   33.3980   49.7110 C   0  0  0  0  0  0  0  0  0  0  0  0
   59.8310   34.3800   48.9550 C   0  0  0  0  0  0  0  0  0  0  0  0
   60.2670   34.6670   47.6610 C   0  0  0  0  0  0  0  0  0  0  0  0
   61.3530   33.9760   47.1190 C   0  0  0  0  0  0  0  0  0  0  0  0
   62.0090   32.9900   47.8670 C   0  0  0  0  0  0  0  0  0  0  0  0
   63.3870   32.1650   47.1430 Cl  0  0  0  0  0  0  0  0  0  0  0  0
   58.9120   28.6860   47.6020 C   0  0  0  0  0  0  0  0  0  0  0  0
   59.2940   27.5650   48.3390 O   0  0  0  0  0  0  0  0  0  0  0  0
   58.5360   28.6660   46.2960 N   0  0  0  0  0  0  0  0  0  0  0  0
   58.4980   27.5060   45.4010 C   0  0  0  0  0  0  0  0  0  0  0  0
   57.3120   26.6480   45.7200 C   0  0  0  0  0  0  0  0  0  0  0  0
   57.3830   25.0380   46.2080 S   0  0  0  0  0  0  0  0  0  0  0  0
   55.7100   24.8910   46.2840 C   0  0  0  0  0  0  0  0  0  0  0  0
   54.9240   23.5270   46.7130 S   0  0  0  0  0  0  0  0  0  0  0  0
   55.0800   26.0360   45.9440 N   0  0  0  0  0  0  0  0  0  0  0  0
   55.9700   27.0130   45.6280 C   0  0  0  0  0  0  0  0  0  0  0  0
   55.5520   28.2810   45.2470 O   0  0  0  0  0  0  0  0  0  0  0  0
   59.2954   35.4943   45.6232 H   0  0  0  0  0  0  0  0  0  0  0  0
   59.3700   34.3430   44.2464 H   0  0  0  0  0  0  0  0  0  0  0  0
   58.1544   35.6655   44.2464 H   0  0  0  0  0  0  0  0  0  0  0  0
   57.4468   32.2948   43.6461 H   0  0  0  0  0  0  0  0  0  0  0  0
   57.7641   29.8104   43.8632 H   0  0  0  0  0  0  0  0  0  0  0  0
   58.5186   32.8088   47.8372 H   0  0  0  0  0  0  0  0  0  0  0  0
   59.3305   31.4996   49.5388 H   0  0  0  0  0  0  0  0  0  0  0  0
   58.4188   30.0766   50.1855 H   0  0  0  0  0  0  0  0  0  0  0  0
   62.0350   31.8253   51.0742 H   0  0  0  0  0  0  0  0  0  0  0  0
   63.3464   31.7162   49.8531 H   0  0  0  0  0  0  0  0  0  0  0  0
   60.1341   33.1814   50.7335 H   0  0  0  0  0  0  0  0  0  0  0  0
   58.9773   34.9276   49.3808 H   0  0  0  0  0  0  0  0  0  0  0  0
   59.7548   35.4383   47.0671 H   0  0  0  0  0  0  0  0  0  0  0  0
   61.6950   34.2073   46.0994 H   0  0  0  0  0  0  0  0  0  0  0  0
   59.8930   27.6290   49.1500 H   0  0  0  0  0  0  0  0  0  0  0  0
   58.4268   27.8524   44.3594 H   0  0  0  0  0  0  0  0  0  0  0  0
   59.4163   26.9159   45.5374 H   0  0  0  0  0  0  0  0  0  0  0  0
  1  2  1  0
  2  3  1  0
  3  4  2  0
  4  5  1  0
  5  6  2  0
  6  7  1  0
  7  8  2  0
  7  9  1  0
  9 10  1  0
 10 11  1  0
 11 12  2  0
 11 13  1  0
 13 14  1  0
 14 15  1  0
 15 16  2  0
 16 17  1  0
 17 18  2  0
 18 19  1  0
 19 20  2  0
 20 21  1  0
  9 22  2  0
 22 23  1  0
 22 24  1  0
 24 25  1  0
 25 26  1  0
 26 27  1  0
 27 28  1  0
 28 29  2  0
 28 30  1  0
 30 31  1  0
 31 32  1  0
  8  3  1  0
 20 15  1  0
 31 26  2  0
 24  6  1  0
  1 33  1  0
  1 34  1  0
  1 35  1  0
  4 36  1  0
  5 37  1  0
  8 38  1  0
 10 39  1  0
 10 40  1  0
 14 41  1  0
 14 42  1  0
 16 43  1  0
 17 44  1  0
 18 45  1  0
 19 46  1  0
 23 47  1  0
 25 48  1  0
 25 49  1  0
M  CHG  3  13  -1  30  -1  32  -1
M  END
>  <UniqueID>  (89) 
80

>  <SMILES>  (89) 
COc1ccc2c(c1)c(CC(=O)[N-]Cc1ccccc1Cl)c(O)n2Cc1sc(=S)[n-]c1[O-]

>  <Energy>  (89) 
112.12737974266827

>  <Genealogy>  (89) 
COc1ccc2c(c1)c(CC(=O)[N-]Cc1ccccc1Cl)c(O)n2Cc1sc(=S)[n-]c1[O-] (protonated)
COc1ccc2c(c1)c(CC(=O)[N-]Cc1ccccc1Cl)c(O)n2Cc1sc(=S)[n-]c1[O-] (3D coordinates assigned)
COc1ccc2c(c1)c(CC(=O)[N-]Cc1ccccc1Cl)c(O)n2Cc1sc(=S)[n-]c1[O-] (optimized conformer: 112.12737974266827 kcal/mol)

>  <smiles>  (89) 
COc1ccc2c(c1)c(CC(=O)NCc1ccccc1Cl)c(O)n2Cc1sc(=S)[nH]c1O

>  <score_type>  (89) 
oracle

>  <origin>  (89) 
adg

>  <m_score__min__energy>  (89) 
-15.359999999999999

>  <m_primary>  (89) 
energy

$$$$
89:0
     RDKit          3D

 45 47  0  0  0  0  0  0  0  0999 V2000
   65.8740   32.4160   50.5730 C   0  0  0  0  0  0  0  0  0  0  0  0
   64.7180   32.4720   49.6330 C   0  0  0  0  0  0  0  0  0  0  0  0
   63.5870   31.6850   49.7070 C   0  0  0  0  0  0  0  0  0  0  0  0
   62.7920   32.0780   48.6480 C   0  0  0  0  0  0  0  0  0  0  0  0
   61.4720   31.5030   48.3250 C   0  0  0  0  0  0  0  0  0  0  0  0
   60.6150   31.4050   49.2440 O   0  0  0  0  0  0  0  0  0  0  0  0
   61.1410   31.1030   46.9860 N   0  0  0  0  0  0  0  0  0  0  0  0
   59.8460   30.5290   46.6140 C   0  0  0  0  0  0  0  0  0  0  0  0
   58.8640   31.6080   46.2110 C   0  0  0  0  0  0  0  0  0  0  0  0
   58.9690   32.8660   46.8330 C   0  0  0  0  0  0  0  0  0  0  0  0
   58.1130   33.9100   46.4890 C   0  0  0  0  0  0  0  0  0  0  0  0
   57.1270   33.7140   45.5260 C   0  0  0  0  0  0  0  0  0  0  0  0
   56.9920   32.4710   44.9100 C   0  0  0  0  0  0  0  0  0  0  0  0
   57.8520   31.4070   45.2310 C   0  0  0  0  0  0  0  0  0  0  0  0
   57.5470   29.8420   44.4470 S   0  0  0  0  0  0  0  0  0  0  0  0
   58.8690   29.2670   44.0250 O   0  0  0  0  0  0  0  0  0  0  0  0
   56.6670   29.9550   43.2370 O   0  0  0  0  0  0  0  0  0  0  0  0
   56.8000   28.7380   45.5630 N   0  0  0  0  0  0  0  0  0  0  0  0
   57.1040   27.4960   45.8280 C   0  0  0  0  0  0  0  0  0  0  0  0
   58.4270   27.1780   45.8990 N   0  0  0  0  0  0  0  0  0  0  0  0
   58.8700   25.9230   46.1710 C   0  0  0  0  0  0  0  0  0  0  0  0
   57.9570   24.8950   46.3930 C   0  0  0  0  0  0  0  0  0  0  0  0
   56.5930   25.1730   46.3310 C   0  0  0  0  0  0  0  0  0  0  0  0
   56.1470   26.4690   46.0490 C   0  0  0  0  0  0  0  0  0  0  0  0
   54.7770   26.6900   45.9980 O   0  0  0  0  0  0  0  0  0  0  0  0
   63.5100   33.0630   47.9770 C   0  0  0  0  0  0  0  0  0  0  0  0
   63.1180   33.7910   46.7320 C   0  0  0  0  0  0  0  0  0  0  0  0
   64.6460   33.2780   48.5990 O   0  0  0  0  0  0  0  0  0  0  0  0
   65.5052   32.4339   51.6092 H   0  0  0  0  0  0  0  0  0  0  0  0
   66.4414   31.4893   50.4017 H   0  0  0  0  0  0  0  0  0  0  0  0
   66.5283   33.2835   50.4017 H   0  0  0  0  0  0  0  0  0  0  0  0
   63.3650   30.9076   50.4529 H   0  0  0  0  0  0  0  0  0  0  0  0
   61.8570   31.2080   46.2380 H   0  0  0  0  0  0  0  0  0  0  0  0
   59.9886   29.8398   45.7686 H   0  0  0  0  0  0  0  0  0  0  0  0
   59.4386   29.9953   47.4853 H   0  0  0  0  0  0  0  0  0  0  0  0
   59.7385   33.0274   47.6023 H   0  0  0  0  0  0  0  0  0  0  0  0
   58.2163   34.8896   46.9786 H   0  0  0  0  0  0  0  0  0  0  0  0
   56.4545   34.5400   45.2513 H   0  0  0  0  0  0  0  0  0  0  0  0
   56.2003   32.3206   44.1613 H   0  0  0  0  0  0  0  0  0  0  0  0
   59.9499   25.7187   46.2159 H   0  0  0  0  0  0  0  0  0  0  0  0
   58.3083   23.8764   46.6145 H   0  0  0  0  0  0  0  0  0  0  0  0
   55.8626   24.3690   46.5047 H   0  0  0  0  0  0  0  0  0  0  0  0
   62.6122   34.7303   47.0003 H   0  0  0  0  0  0  0  0  0  0  0  0
   64.0174   34.0151   46.1397 H   0  0  0  0  0  0  0  0  0  0  0  0
   62.4358   33.1635   46.1397 H   0  0  0  0  0  0  0  0  0  0  0  0
  1  2  1  0
  2  3  2  0
  3  4  1  0
  4  5  1  0
  5  6  2  0
  5  7  1  0
  7  8  1  0
  8  9  1  0
  9 10  2  0
 10 11  1  0
 11 12  2  0
 12 13  1  0
 13 14  2  0
 14 15  1  0
 15 16  2  0
 15 17  2  0
 15 18  1  0
 18 19  2  3
 19 20  1  0
 20 21  1  0
 21 22  2  0
 22 23  1  0
 23 24  2  0
 24 25  1  0
  4 26  2  0
 26 27  1  0
 26 28  1  0
 28  2  1  0
 14  9  1  0
 24 19  1  0
  1 29  1  0
  1 30  1  0
  1 31  1  0
  3 32  1  0
  7 33  1  0
  8 34  1  0
  8 35  1  0
 10 36  1  0
 11 37  1  0
 12 38  1  0
 13 39  1  0
 21 40  1  0
 22 41  1  0
 23 42  1  0
 27 43  1  0
 27 44  1  0
 27 45  1  0
M  CHG  2  20  -1  25  -1
M  END
>  <UniqueID>  (90) 
81

>  <SMILES>  (90) 
Cc1cc(C(=O)NCc2ccccc2S(=O)(=O)N=c2[n-]cccc2[O-])c(C)o1

>  <Energy>  (90) 
85.70334761106096

>  <Genealogy>  (90) 
Cc1cc(C(=O)NCc2ccccc2S(=O)(=O)N=c2[n-]cccc2[O-])c(C)o1 (protonated)
Cc1cc(C(=O)NCc2ccccc2S(=O)(=O)N=c2[n-]cccc2[O-])c(C)o1 (3D coordinates assigned)
Cc1cc(C(=O)NCc2ccccc2S(=O)(=O)N=c2[n-]cccc2[O-])c(C)o1 (optimized conformer: 85.70334761106096 kcal/mol)

>  <smiles>  (90) 
Cc1cc(C(=O)NCc2ccccc2S(=O)(=O)N=c2[nH]cccc2O)c(C)o1

>  <score_type>  (90) 
oracle

>  <origin>  (90) 
adg

>  <m_score__min__energy>  (90) 
-13.710000000000001

>  <m_primary>  (90) 
energy

$$$$
90:0
     RDKit          3D

 50 52  0  0  0  0  0  0  0  0999 V2000
   56.1380   24.0450   44.6550 C   0  0  0  0  0  0  0  0  0  0  0  0
   55.4120   25.1270   45.8700 S   0  0  0  0  0  0  0  0  0  0  0  0
   53.9130   25.0280   45.8270 O   0  0  0  0  0  0  0  0  0  0  0  0
   55.8880   24.7010   47.2300 O   0  0  0  0  0  0  0  0  0  0  0  0
   55.9060   26.7670   45.5900 N   0  0  0  0  0  0  0  0  0  0  0  0
   57.2880   27.1740   45.5500 C   0  0  0  0  0  0  0  0  0  0  0  0
   58.3100   26.2420   45.8120 C   0  0  0  0  0  0  0  0  0  0  0  0
   59.6480   26.6380   45.8430 C   0  0  0  0  0  0  0  0  0  0  0  0
   59.9890   27.9690   45.6120 C   0  0  0  0  0  0  0  0  0  0  0  0
   58.9940   28.9060   45.3340 C   0  0  0  0  0  0  0  0  0  0  0  0
   57.6430   28.5220   45.2860 C   0  0  0  0  0  0  0  0  0  0  0  0
   56.6310   29.5630   45.0040 C   0  0  0  0  0  0  0  0  0  0  0  0
   55.4320   29.2300   44.8200 O   0  0  0  0  0  0  0  0  0  0  0  0
   57.0050   30.9360   44.8240 N   0  0  0  0  0  0  0  0  0  0  0  0
   57.8210   31.7020   45.7230 C   0  0  0  0  0  0  0  0  0  0  0  0
   58.2450   32.9770   45.3360 C   0  0  0  0  0  0  0  0  0  0  0  0
   59.0440   33.7460   46.1900 C   0  0  0  0  0  0  0  0  0  0  0  0
   59.4210   33.2500   47.4500 C   0  0  0  0  0  0  0  0  0  0  0  0
   60.2720   34.0610   48.3520 C   0  0  0  0  0  0  0  0  0  0  0  0
   59.7490   34.9800   49.0400 O   0  0  0  0  0  0  0  0  0  0  0  0
   61.6830   33.8070   48.4680 N   0  0  0  0  0  0  0  0  0  0  0  0
   62.3370   33.9640   49.7720 C   0  0  0  0  0  0  0  0  0  0  0  0
   63.4860   32.9600   49.9120 C   0  0  0  0  0  0  0  0  0  0  0  0
   64.4350   33.0430   48.7120 C   0  0  0  0  0  0  0  0  0  0  0  0
   63.6740   32.8290   47.3990 C   0  0  0  0  0  0  0  0  0  0  0  0
   62.5270   33.8350   47.2660 C   0  0  0  0  0  0  0  0  0  0  0  0
   58.9530   31.9880   47.8530 C   0  0  0  0  0  0  0  0  0  0  0  0
   58.1550   31.2230   47.0000 C   0  0  0  0  0  0  0  0  0  0  0  0
   56.6815   23.2350   45.1634 H   0  0  0  0  0  0  0  0  0  0  0  0
   55.3446   23.6155   44.0257 H   0  0  0  0  0  0  0  0  0  0  0  0
   56.8362   24.6164   44.0257 H   0  0  0  0  0  0  0  0  0  0  0  0
   55.1480   27.4810   45.6080 H   0  0  0  0  0  0  0  0  0  0  0  0
   58.0509   25.1887   45.9945 H   0  0  0  0  0  0  0  0  0  0  0  0
   60.4349   25.8978   46.0502 H   0  0  0  0  0  0  0  0  0  0  0  0
   61.0432   28.2809   45.6489 H   0  0  0  0  0  0  0  0  0  0  0  0
   59.2692   29.9551   45.1506 H   0  0  0  0  0  0  0  0  0  0  0  0
   57.9491   33.3778   44.3553 H   0  0  0  0  0  0  0  0  0  0  0  0
   59.3790   34.7447   45.8731 H   0  0  0  0  0  0  0  0  0  0  0  0
   62.7349   34.9859   49.8583 H   0  0  0  0  0  0  0  0  0  0  0  0
   61.6002   33.7795   50.5676 H   0  0  0  0  0  0  0  0  0  0  0  0
   64.0479   33.1818   50.8313 H   0  0  0  0  0  0  0  0  0  0  0  0
   63.0626   31.9457   49.9553 H   0  0  0  0  0  0  0  0  0  0  0  0
   64.9097   34.0352   48.6959 H   0  0  0  0  0  0  0  0  0  0  0  0
   65.1964   32.2552   48.8101 H   0  0  0  0  0  0  0  0  0  0  0  0
   64.3673   32.9587   46.5549 H   0  0  0  0  0  0  0  0  0  0  0  0
   63.2539   31.8124   47.3962 H   0  0  0  0  0  0  0  0  0  0  0  0
   62.9432   34.8452   47.1382 H   0  0  0  0  0  0  0  0  0  0  0  0
   61.9149   33.5666   46.3924 H   0  0  0  0  0  0  0  0  0  0  0  0
   59.2172   31.5998   48.8477 H   0  0  0  0  0  0  0  0  0  0  0  0
   57.7863   30.2405   47.3299 H   0  0  0  0  0  0  0  0  0  0  0  0
  1  2  1  0
  2  3  2  0
  2  4  2  0
  2  5  1  0
  5  6  1  0
  6  7  2  0
  7  8  1  0
  8  9  2  0
  9 10  1  0
 10 11  2  0
 11 12  1  0
 12 13  2  0
 12 14  1  0
 14 15  1  0
 15 16  2  0
 16 17  1  0
 17 18  2  0
 18 19  1  0
 19 20  2  0
 19 21  1  0
 21 22  1  0
 22 23  1  0
 23 24  1  0
 24 25  1  0
 25 26  1  0
 18 27  1  0
 27 28  2  0
 11  6  1  0
 28 15  1  0
 26 21  1  0
  1 29  1  0
  1 30  1  0
  1 31  1  0
  5 32  1  0
  7 33  1  0
  8 34  1  0
  9 35  1  0
 10 36  1  0
 16 37  1  0
 17 38  1  0
 22 39  1  0
 22 40  1  0
 23 41  1  0
 23 42  1  0
 24 43  1  0
 24 44  1  0
 25 45  1  0
 25 46  1  0
 26 47  1  0
 26 48  1  0
 27 49  1  0
 28 50  1  0
M  CHG  1  14  -1
M  END
>  <UniqueID>  (91) 
82

>  <SMILES>  (91) 
CS(=O)(=O)Nc1ccccc1C(=O)[N-]c1ccc(C(=O)N2CCCCC2)cc1

>  <Energy>  (91) 
59.517368952573165

>  <Genealogy>  (91) 
CS(=O)(=O)Nc1ccccc1C(=O)[N-]c1ccc(C(=O)N2CCCCC2)cc1 (protonated)
CS(=O)(=O)Nc1ccccc1C(=O)[N-]c1ccc(C(=O)N2CCCCC2)cc1 (3D coordinates assigned)
CS(=O)(=O)Nc1ccccc1C(=O)[N-]c1ccc(C(=O)N2CCCCC2)cc1 (nonaromatic ring conformer: 59.517368952573165 kcal/mol)

>  <smiles>  (91) 
CS(=O)(=O)Nc1ccccc1C(=O)Nc1ccc(C(=O)N2CCCCC2)cc1

>  <score_type>  (91) 
oracle

>  <origin>  (91) 
adg

>  <m_score__min__energy>  (91) 
-12.34

>  <m_primary>  (91) 
energy

$$$$
91:0
     RDKit          3D

 54 57  0  0  0  0  0  0  0  0999 V2000
   59.2980   34.7590   45.3010 C   0  0  0  0  0  0  0  0  0  0  0  0
   59.9760   33.9150   46.3500 C   0  0  0  0  0  0  0  0  0  0  0  0
   61.3780   33.8540   46.3690 C   0  0  0  0  0  0  0  0  0  0  0  0
   62.0400   33.0820   47.3200 C   0  0  0  0  0  0  0  0  0  0  0  0
   61.3150   32.3650   48.2680 C   0  0  0  0  0  0  0  0  0  0  0  0
   59.9080   32.4220   48.2880 C   0  0  0  0  0  0  0  0  0  0  0  0
   59.1560   31.7130   49.2430 O   0  0  0  0  0  0  0  0  0  0  0  0
   59.2110   30.3040   49.4710 C   0  0  0  0  0  0  0  0  0  0  0  0
   59.2260   29.5340   48.1820 C   0  0  0  0  0  0  0  0  0  0  0  0
   58.2190   29.5930   47.4240 O   0  0  0  0  0  0  0  0  0  0  0  0
   60.3450   28.7060   47.8340 N   0  0  0  0  0  0  0  0  0  0  0  0
   60.3840   27.9080   46.6120 C   0  0  0  0  0  0  0  0  0  0  0  0
   59.1860   27.0080   46.5600 C   0  0  0  0  0  0  0  0  0  0  0  0
   58.8480   26.1980   47.6030 N   0  0  0  0  0  0  0  0  0  0  0  0
   57.7930   25.5160   47.1240 C   0  0  0  0  0  0  0  0  0  0  0  0
   57.0420   24.5310   47.7570 C   0  0  0  0  0  0  0  0  0  0  0  0
   55.9920   23.9510   47.0200 C   0  0  0  0  0  0  0  0  0  0  0  0
   55.7450   24.3760   45.6930 C   0  0  0  0  0  0  0  0  0  0  0  0
   56.5190   25.3480   45.1190 N   0  0  0  0  0  0  0  0  0  0  0  0
   57.5220   25.8960   45.8500 C   0  0  0  0  0  0  0  0  0  0  0  0
   58.3900   26.8410   45.4650 N   0  0  0  0  0  0  0  0  0  0  0  0
   58.4690   27.4970   44.1560 C   0  0  0  0  0  0  0  0  0  0  0  0
   57.9970   28.9240   44.2470 C   0  0  0  0  0  0  0  0  0  0  0  0
   56.6480   29.2470   44.0250 C   0  0  0  0  0  0  0  0  0  0  0  0
   56.2180   30.5750   44.1100 C   0  0  0  0  0  0  0  0  0  0  0  0
   57.1320   31.5880   44.4070 C   0  0  0  0  0  0  0  0  0  0  0  0
   58.4770   31.2770   44.6240 C   0  0  0  0  0  0  0  0  0  0  0  0
   58.9110   29.9500   44.5410 C   0  0  0  0  0  0  0  0  0  0  0  0
   59.2310   33.2130   47.3310 C   0  0  0  0  0  0  0  0  0  0  0  0
   57.7210   33.2520   47.3190 C   0  0  0  0  0  0  0  0  0  0  0  0
   58.6811   35.5269   45.7906 H   0  0  0  0  0  0  0  0  0  0  0  0
   60.0593   35.2455   44.6734 H   0  0  0  0  0  0  0  0  0  0  0  0
   58.6589   34.1205   44.6734 H   0  0  0  0  0  0  0  0  0  0  0  0
   61.9587   34.4208   45.6264 H   0  0  0  0  0  0  0  0  0  0  0  0
   63.1391   33.0384   47.3223 H   0  0  0  0  0  0  0  0  0  0  0  0
   61.8460   31.7484   49.0081 H   0  0  0  0  0  0  0  0  0  0  0  0
   60.1246   30.0697   50.0371 H   0  0  0  0  0  0  0  0  0  0  0  0
   58.3127   30.0121   50.0349 H   0  0  0  0  0  0  0  0  0  0  0  0
   61.1210   28.5850   48.5230 H   0  0  0  0  0  0  0  0  0  0  0  0
   60.3780   28.5762   45.7382 H   0  0  0  0  0  0  0  0  0  0  0  0
   61.2994   27.2982   46.6033 H   0  0  0  0  0  0  0  0  0  0  0  0
   57.2592   24.2186   48.7891 H   0  0  0  0  0  0  0  0  0  0  0  0
   55.3653   23.1695   47.4745 H   0  0  0  0  0  0  0  0  0  0  0  0
   54.9245   23.9216   45.1183 H   0  0  0  0  0  0  0  0  0  0  0  0
   59.5122   27.4832   43.8074 H   0  0  0  0  0  0  0  0  0  0  0  0
   57.8235   26.9552   43.4491 H   0  0  0  0  0  0  0  0  0  0  0  0
   55.9270   28.4522   43.7833 H   0  0  0  0  0  0  0  0  0  0  0  0
   55.1591   30.8217   43.9428 H   0  0  0  0  0  0  0  0  0  0  0  0
   56.7928   32.6325   44.4703 H   0  0  0  0  0  0  0  0  0  0  0  0
   59.1948   32.0763   44.8602 H   0  0  0  0  0  0  0  0  0  0  0  0
   59.9714   29.7087   44.7064 H   0  0  0  0  0  0  0  0  0  0  0  0
   57.3462   33.2617   48.3531 H   0  0  0  0  0  0  0  0  0  0  0  0
   57.3818   34.1592   46.7976 H   0  0  0  0  0  0  0  0  0  0  0  0
   57.3354   32.3635   46.7976 H   0  0  0  0  0  0  0  0  0  0  0  0
  1  2  1  0
  2  3  2  0
  3  4  1  0
  4  5  2  0
  5  6  1  0
  6  7  1  0
  7  8  1  0
  8  9  1  0
  9 10  2  0
  9 11  1  0
 11 12  1  0
 12 13  1  0
 13 14  2  0
 14 15  1  0
 15 16  2  0
 16 17  1  0
 17 18  2  0
 18 19  1  0
 19 20  2  0
 20 21  1  0
 21 22  1  0
 22 23  1  0
 23 24  2  0
 24 25  1  0
 25 26  2  0
 26 27  1  0
 27 28  2  0
  6 29  2  0
 29 30  1  0
 29  2  1  0
 21 13  1  0
 28 23  1  0
 20 15  1  0
  1 31  1  0
  1 32  1  0
  1 33  1  0
  3 34  1  0
  4 35  1  0
  5 36  1  0
  8 37  1  0
  8 38  1  0
 11 39  1  0
 12 40  1  0
 12 41  1  0
 16 42  1  0
 17 43  1  0
 18 44  1  0
 22 45  1  0
 22 46  1  0
 24 47  1  0
 25 48  1  0
 26 49  1  0
 27 50  1  0
 28 51  1  0
 30 52  1  0
 30 53  1  0
 30 54  1  0
M  END
>  <UniqueID>  (92) 
83

>  <SMILES>  (92) 
Cc1cccc(OCC(=O)NCc2nc3cccnc3n2Cc2ccccc2)c1C

>  <Energy>  (92) 
91.71287091266682

>  <Genealogy>  (92) 
Cc1cccc(OCC(=O)NCc2nc3cccnc3n2Cc2ccccc2)c1C (3D coordinates assigned)
Cc1cccc(OCC(=O)NCc2nc3cccnc3n2Cc2ccccc2)c1C (optimized conformer: 91.71287091266682 kcal/mol)

>  <smiles>  (92) 
Cc1cccc(OCC(=O)NCc2nc3cccnc3n2Cc2ccccc2)c1C

>  <score_type>  (92) 
oracle

>  <origin>  (92) 
adg

>  <m_score__min__energy>  (92) 
-8.4900000000000002

>  <m_primary>  (92) 
energy

$$$$
92:0
     RDKit          3D

 49 51  0  0  0  0  0  0  0  0999 V2000
   58.3490   24.5890   48.2350 H   0  0  0  0  0  0  0  0  0  0  0  0
   58.4890   25.1590   47.4090 O   0  0  0  0  0  0  0  0  0  0  0  0
   57.4250   25.8470   46.8310 C   0  0  0  0  0  0  0  0  0  0  0  0
   57.5370   27.0480   46.2410 N   0  0  0  0  0  0  0  0  0  0  0  0
   56.2730   27.2990   45.8180 C   0  0  0  0  0  0  0  0  0  0  0  0
   55.9160   28.3920   45.2090 N   0  0  0  0  0  0  0  0  0  0  0  0
   56.6360   29.6330   45.2140 C   0  0  0  0  0  0  0  0  0  0  0  0
   56.2200   30.5740   44.4840 O   0  0  0  0  0  0  0  0  0  0  0  0
   57.8500   29.7860   45.9710 N   0  0  0  0  0  0  0  0  0  0  0  0
   58.3820   28.9200   46.2100 H   0  0  0  0  0  0  0  0  0  0  0  0
   58.4080   31.0640   46.3310 C   0  0  0  0  0  0  0  0  0  0  0  0
   57.8990   32.1240   45.8730 O   0  0  0  0  0  0  0  0  0  0  0  0
   59.5890   31.1600   47.2260 C   0  0  0  0  0  0  0  0  0  0  0  0
   60.0830   30.0050   47.8630 C   0  0  0  0  0  0  0  0  0  0  0  0
   59.5912   29.0355   47.6949 H   0  0  0  0  0  0  0  0  0  0  0  0
   61.1950   30.0830   48.7080 C   0  0  0  0  0  0  0  0  0  0  0  0
   61.5712   29.1764   49.2045 H   0  0  0  0  0  0  0  0  0  0  0  0
   61.8290   31.3090   48.9230 C   0  0  0  0  0  0  0  0  0  0  0  0
   62.6974   31.3690   49.5955 H   0  0  0  0  0  0  0  0  0  0  0  0
   61.3600   32.4580   48.2840 C   0  0  0  0  0  0  0  0  0  0  0  0
   61.8647   33.4215   48.4483 H   0  0  0  0  0  0  0  0  0  0  0  0
   60.2510   32.3880   47.4360 C   0  0  0  0  0  0  0  0  0  0  0  0
   59.8922   33.2960   46.9293 H   0  0  0  0  0  0  0  0  0  0  0  0
   55.3820   26.3270   46.1190 N   0  0  0  0  0  0  0  0  0  0  0  0
   56.1240   25.4100   46.7700 C   0  0  0  0  0  0  0  0  0  0  0  0
   55.5960   24.0960   47.2640 C   0  0  0  0  0  0  0  0  0  0  0  0
   55.3839   24.1809   48.3400 H   0  0  0  0  0  0  0  0  0  0  0  0
   54.6843   23.8617   46.6949 H   0  0  0  0  0  0  0  0  0  0  0  0
   56.5800   22.9720   47.0490 C   0  0  0  0  0  0  0  0  0  0  0  0
   57.3940   22.6840   47.9720 O   0  0  0  0  0  0  0  0  0  0  0  0
   56.5550   22.1730   45.8420 N   0  0  0  0  0  0  0  0  0  0  0  0
   55.3610   22.2070   44.9700 C   0  0  0  0  0  0  0  0  0  0  0  0
   55.2197   21.2056   44.5373 H   0  0  0  0  0  0  0  0  0  0  0  0
   54.5148   22.5186   45.5999 H   0  0  0  0  0  0  0  0  0  0  0  0
   55.4580   23.2250   43.8160 C   0  0  0  0  0  0  0  0  0  0  0  0
   54.5225   23.1825   43.2390 H   0  0  0  0  0  0  0  0  0  0  0  0
   55.6306   24.2091   44.2762 H   0  0  0  0  0  0  0  0  0  0  0  0
   56.6350   22.9750   42.8490 C   0  0  0  0  0  0  0  0  0  0  0  0
   56.2482   23.0402   41.8213 H   0  0  0  0  0  0  0  0  0  0  0  0
   57.3894   23.7384   43.0901 H   0  0  0  0  0  0  0  0  0  0  0  0
   57.3460   21.6180   43.0020 C   0  0  0  0  0  0  0  0  0  0  0  0
   56.5798   20.8419   43.1455 H   0  0  0  0  0  0  0  0  0  0  0  0
   57.9399   21.4689   42.0882 H   0  0  0  0  0  0  0  0  0  0  0  0
   58.3290   21.5480   44.1820 C   0  0  0  0  0  0  0  0  0  0  0  0
   59.0554   20.7484   43.9744 H   0  0  0  0  0  0  0  0  0  0  0  0
   58.7882   22.5445   44.2601 H   0  0  0  0  0  0  0  0  0  0  0  0
   57.6800   21.2620   45.5540 C   0  0  0  0  0  0  0  0  0  0  0  0
   57.3076   20.2270   45.5604 H   0  0  0  0  0  0  0  0  0  0  0  0
   58.4461   21.4180   46.3278 H   0  0  0  0  0  0  0  0  0  0  0  0
  1  2  1  0
  2  3  1  0
  3  4  1  0
  4  5  1  0
  5  6  2  0
  6  7  1  0
  7  8  2  0
  7  9  1  0
  9 10  1  0
  9 11  1  0
 11 12  2  0
 11 13  1  0
 13 14  2  0
 14 15  1  0
 14 16  1  0
 16 17  1  0
 16 18  2  0
 18 19  1  0
 18 20  1  0
 20 21  1  0
 20 22  2  0
 22 23  1  0
  5 24  1  0
 24 25  1  0
 25 26  1  0
 26 27  1  0
 26 28  1  0
 26 29  1  0
 29 30  2  0
 29 31  1  0
 31 32  1  0
 32 33  1  0
 32 34  1  0
 32 35  1  0
 35 36  1  0
 35 37  1  0
 35 38  1  0
 38 39  1  0
 38 40  1  0
 38 41  1  0
 41 42  1  0
 41 43  1  0
 41 44  1  0
 44 45  1  0
 44 46  1  0
 44 47  1  0
 47 48  1  0
 47 49  1  0
 25  3  2  0
 47 31  1  0
 22 13  1  0
M  CHG  2   4  -1  24  -1
M  END
>  <UniqueID>  (93) 
84

>  <SMILES>  (93) 
O=C(/N=c1\[n-]c(O)c(CC(=O)N2CCCCCC2)[n-]1)NC(=O)c1ccccc1

>  <Energy>  (93) 
89.88553619220137

>  <Genealogy>  (93) 
O=C(N=c1[n-]c(O)c(CC(=O)N2CCCCCC2)[n-]1)NC(=O)c1ccccc1 (protonated)
O=C(/N=c1\[n-]c(O)c(CC(=O)N2CCCCCC2)[n-]1)NC(=O)c1ccccc1 (cis-trans isomerization)
O=C(/N=c1\[n-]c(O)c(CC(=O)N2CCCCCC2)[n-]1)NC(=O)c1ccccc1 (3D coordinates assigned)
O=C(/N=c1\[n-]c(O)c(CC(=O)N2CCCCCC2)[n-]1)NC(=O)c1ccccc1 (nonaromatic ring conformer: 89.88553619220137 kcal/mol)

>  <smiles>  (93) 
O=C(N=c1[nH]c(O)c(CC(=O)N2CCCCCC2)[nH]1)NC(=O)c1ccccc1

>  <score_type>  (93) 
oracle

>  <origin>  (93) 
adg

>  <m_score__min__energy>  (93) 
-10.24

>  <m_primary>  (93) 
energy

$$$$
93:0
     RDKit          3D

 39 41  0  0  0  0  0  0  0  0999 V2000
   62.7080   33.9030   46.5890 N   0  0  0  0  0  0  0  0  0  0  0  0
   61.5590   33.8500   46.4600 C   0  0  0  0  0  0  0  0  0  0  0  0
   60.1260   33.7850   46.2970 C   0  0  0  0  0  0  0  0  0  0  0  0
   59.5710   34.2510   45.0970 C   0  0  0  0  0  0  0  0  0  0  0  0
   58.1920   34.2050   44.8920 C   0  0  0  0  0  0  0  0  0  0  0  0
   57.3540   33.6930   45.8840 C   0  0  0  0  0  0  0  0  0  0  0  0
   57.8940   33.2220   47.0830 C   0  0  0  0  0  0  0  0  0  0  0  0
   59.2820   33.2590   47.3060 C   0  0  0  0  0  0  0  0  0  0  0  0
   59.8190   32.6890   48.5990 C   0  0  0  0  0  0  0  0  0  0  0  0
   61.0670   31.3860   48.2890 S   0  0  0  0  0  0  0  0  0  0  0  0
   59.9720   30.3390   47.3270 C   0  0  0  0  0  0  0  0  0  0  0  0
   59.0000   29.5620   47.9650 C   0  0  0  0  0  0  0  0  0  0  0  0
   58.1900   28.7000   47.2190 C   0  0  0  0  0  0  0  0  0  0  0  0
   58.3480   28.6060   45.8250 C   0  0  0  0  0  0  0  0  0  0  0  0
   57.5140   27.6430   45.0180 C   0  0  0  0  0  0  0  0  0  0  0  0
   57.3530   26.3220   45.7470 C   0  0  0  0  0  0  0  0  0  0  0  0
   56.0950   25.8710   46.2150 C   0  0  0  0  0  0  0  0  0  0  0  0
   54.9150   26.5810   45.9920 O   0  0  0  0  0  0  0  0  0  0  0  0
   56.0160   24.7060   46.9090 N   0  0  0  0  0  0  0  0  0  0  0  0
   57.1140   23.9570   47.1670 C   0  0  0  0  0  0  0  0  0  0  0  0
   57.0050   22.8830   47.8130 O   0  0  0  0  0  0  0  0  0  0  0  0
   58.3300   24.3630   46.7300 N   0  0  0  0  0  0  0  0  0  0  0  0
   58.4780   25.5180   46.0320 C   0  0  0  0  0  0  0  0  0  0  0  0
   59.6280   25.8570   45.6490 O   0  0  0  0  0  0  0  0  0  0  0  0
   59.2980   29.4230   45.1880 C   0  0  0  0  0  0  0  0  0  0  0  0
   60.1020   30.2860   45.9350 C   0  0  0  0  0  0  0  0  0  0  0  0
   60.2271   34.6555   44.3121 H   0  0  0  0  0  0  0  0  0  0  0  0
   57.7644   34.5726   43.9475 H   0  0  0  0  0  0  0  0  0  0  0  0
   56.2666   33.6604   45.7212 H   0  0  0  0  0  0  0  0  0  0  0  0
   57.2277   32.8186   47.8597 H   0  0  0  0  0  0  0  0  0  0  0  0
   60.2840   33.4985   49.1808 H   0  0  0  0  0  0  0  0  0  0  0  0
   58.9814   32.2405   49.1532 H   0  0  0  0  0  0  0  0  0  0  0  0
   58.8723   29.6290   49.0555 H   0  0  0  0  0  0  0  0  0  0  0  0
   57.4254   28.0925   47.7253 H   0  0  0  0  0  0  0  0  0  0  0  0
   56.5205   28.0831   44.8469 H   0  0  0  0  0  0  0  0  0  0  0  0
   58.0220   27.4558   44.0604 H   0  0  0  0  0  0  0  0  0  0  0  0
   54.0190   26.3110   46.3720 H   0  0  0  0  0  0  0  0  0  0  0  0
   59.4087   29.3822   44.0943 H   0  0  0  0  0  0  0  0  0  0  0  0
   60.8393   30.9257   45.4280 H   0  0  0  0  0  0  0  0  0  0  0  0
  1  2  3  0
  2  3  1  0
  3  4  2  0
  4  5  1  0
  5  6  2  0
  6  7  1  0
  7  8  2  0
  8  9  1  0
  9 10  1  0
 10 11  1  0
 11 12  2  0
 12 13  1  0
 13 14  2  0
 14 15  1  0
 15 16  1  0
 16 17  2  0
 17 18  1  0
 17 19  1  0
 19 20  1  0
 20 21  2  0
 20 22  1  0
 22 23  1  0
 23 24  2  0
 14 25  1  0
 25 26  2  0
  8  3  1  0
 26 11  1  0
 23 16  1  0
  4 27  1  0
  5 28  1  0
  6 29  1  0
  7 30  1  0
  9 31  1  0
  9 32  1  0
 12 33  1  0
 13 34  1  0
 15 35  1  0
 15 36  1  0
 18 37  1  0
 25 38  1  0
 26 39  1  0
M  CHG  2  19  -1  22  -1
M  END
>  <UniqueID>  (94) 
85

>  <SMILES>  (94) 
N#Cc1ccccc1CSc1ccc(Cc2c(O)[n-]c(=O)[n-]c2=O)cc1

>  <Energy>  (94) 
39.086695780205

>  <Genealogy>  (94) 
N#Cc1ccccc1CSc1ccc(Cc2c(O)[n-]c(=O)[n-]c2=O)cc1 (protonated)
N#Cc1ccccc1CSc1ccc(Cc2c(O)[n-]c(=O)[n-]c2=O)cc1 (3D coordinates assigned)
N#Cc1ccccc1CSc1ccc(Cc2c(O)[n-]c(=O)[n-]c2=O)cc1 (optimized conformer: 39.086695780205 kcal/mol)

>  <smiles>  (94) 
N#Cc1ccccc1CSc1ccc(Cc2c(O)[nH]c(=O)[nH]c2=O)cc1

>  <score_type>  (94) 
oracle

>  <origin>  (94) 
adg

>  <m_score__min__energy>  (94) 
-13.25

>  <m_primary>  (94) 
energy

$$$$
94:0
     RDKit          3D

 55 58  0  0  0  0  0  0  0  0999 V2000
   58.3930   34.7070   52.6260 N   0  0  0  0  0  0  0  0  0  0  0  0
   58.7910   33.7780   51.6100 C   0  0  0  0  0  0  0  0  0  0  0  0
   59.5820   34.1760   50.7100 O   0  0  0  0  0  0  0  0  0  0  0  0
   58.3030   32.3730   51.5860 C   0  0  0  0  0  0  0  0  0  0  0  0
   57.0180   32.0260   52.0370 C   0  0  0  0  0  0  0  0  0  0  0  0
   56.6060   30.6950   52.0030 C   0  0  0  0  0  0  0  0  0  0  0  0
   57.4530   29.7330   51.5670 N   0  0  0  0  0  0  0  0  0  0  0  0
   58.7170   30.0100   51.1520 C   0  0  0  0  0  0  0  0  0  0  0  0
   59.4830   29.0110   50.8070 N   0  0  0  0  0  0  0  0  0  0  0  0
   60.3570   28.8940   49.6690 C   0  0  0  0  0  0  0  0  0  0  0  0
   61.5570   29.2340   49.8120 O   0  0  0  0  0  0  0  0  0  0  0  0
   59.8740   28.4950   48.3230 C   0  0  0  0  0  0  0  0  0  0  0  0
   60.5480   27.4920   47.6030 C   0  0  0  0  0  0  0  0  0  0  0  0
   60.0890   27.0910   46.3470 C   0  0  0  0  0  0  0  0  0  0  0  0
   58.9380   27.6680   45.8060 C   0  0  0  0  0  0  0  0  0  0  0  0
   58.2500   28.6680   46.5020 C   0  0  0  0  0  0  0  0  0  0  0  0
   57.0430   29.1870   45.9310 N   0  0  0  0  0  0  0  0  0  0  0  0
   56.9510   30.4030   44.6980 S   0  0  0  0  0  0  0  0  0  0  0  0
   57.6790   29.9370   43.4720 O   0  0  0  0  0  0  0  0  0  0  0  0
   55.5150   30.6850   44.3620 O   0  0  0  0  0  0  0  0  0  0  0  0
   57.7430   31.8580   45.2890 C   0  0  0  0  0  0  0  0  0  0  0  0
   57.1080   33.1020   45.1820 C   0  0  0  0  0  0  0  0  0  0  0  0
   57.6990   34.2420   45.7340 C   0  0  0  0  0  0  0  0  0  0  0  0
   58.9250   34.1480   46.3940 C   0  0  0  0  0  0  0  0  0  0  0  0
   59.5820   32.9120   46.4960 C   0  0  0  0  0  0  0  0  0  0  0  0
   60.8340   32.8110   47.2050 N   0  0  0  0  0  0  0  0  0  0  0  0
   61.2000   33.8510   48.1800 C   0  0  0  0  0  0  0  0  0  0  0  0
   62.7080   33.8420   48.4610 C   0  0  0  0  0  0  0  0  0  0  0  0
   63.1700   32.5280   48.7090 O   0  0  0  0  0  0  0  0  0  0  0  0
   63.0390   31.7630   47.5300 C   0  0  0  0  0  0  0  0  0  0  0  0
   61.5640   31.5340   47.1990 C   0  0  0  0  0  0  0  0  0  0  0  0
   58.9840   31.7700   45.9300 C   0  0  0  0  0  0  0  0  0  0  0  0
   58.7490   29.1160   47.7400 C   0  0  0  0  0  0  0  0  0  0  0  0
   59.1440   31.3520   51.1070 C   0  0  0  0  0  0  0  0  0  0  0  0
   57.9110   34.4130   53.5030 H   0  0  0  0  0  0  0  0  0  0  0  0
   58.6530   35.7200   52.5330 H   0  0  0  0  0  0  0  0  0  0  0  0
   56.3386   32.8035   52.4162 H   0  0  0  0  0  0  0  0  0  0  0  0
   55.5911   30.4257   52.3309 H   0  0  0  0  0  0  0  0  0  0  0  0
   61.4437   27.0199   48.0330 H   0  0  0  0  0  0  0  0  0  0  0  0
   60.6344   26.3200   45.7830 H   0  0  0  0  0  0  0  0  0  0  0  0
   58.5694   27.3337   44.8250 H   0  0  0  0  0  0  0  0  0  0  0  0
   56.1418   33.1819   44.6623 H   0  0  0  0  0  0  0  0  0  0  0  0
   57.1961   35.2165   45.6479 H   0  0  0  0  0  0  0  0  0  0  0  0
   59.3787   35.0471   46.8365 H   0  0  0  0  0  0  0  0  0  0  0  0
   60.9157   34.8350   47.7788 H   0  0  0  0  0  0  0  0  0  0  0  0
   60.6690   33.6479   49.1217 H   0  0  0  0  0  0  0  0  0  0  0  0
   63.2388   34.2513   47.5888 H   0  0  0  0  0  0  0  0  0  0  0  0
   62.9018   34.4557   49.3531 H   0  0  0  0  0  0  0  0  0  0  0  0
   63.5178   32.2981   46.6967 H   0  0  0  0  0  0  0  0  0  0  0  0
   63.5237   30.7877   47.6841 H   0  0  0  0  0  0  0  0  0  0  0  0
   61.4830   31.0746   46.2028 H   0  0  0  0  0  0  0  0  0  0  0  0
   61.1266   30.8688   47.9581 H   0  0  0  0  0  0  0  0  0  0  0  0
   59.4972   30.7990   45.9922 H   0  0  0  0  0  0  0  0  0  0  0  0
   58.2590   29.9550   48.2558 H   0  0  0  0  0  0  0  0  0  0  0  0
   60.1341   31.6012   50.6977 H   0  0  0  0  0  0  0  0  0  0  0  0
  1  2  1  0
  2  3  2  0
  2  4  1  0
  4  5  1  0
  5  6  2  0
  6  7  1  0
  7  8  1  0
  8  9  2  3
  9 10  1  0
 10 11  2  0
 10 12  1  0
 12 13  2  0
 13 14  1  0
 14 15  2  0
 15 16  1  0
 16 17  1  0
 17 18  1  0
 18 19  2  0
 18 20  2  0
 18 21  1  0
 21 22  2  0
 22 23  1  0
 23 24  2  0
 24 25  1  0
 25 26  1  0
 26 27  1  0
 27 28  1  0
 28 29  1  0
 29 30  1  0
 30 31  1  0
 25 32  2  0
 16 33  2  0
  8 34  1  0
 34  4  2  0
 33 12  1  0
 32 21  1  0
 31 26  1  0
  1 35  1  0
  1 36  1  0
  5 37  1  0
  6 38  1  0
 13 39  1  0
 14 40  1  0
 15 41  1  0
 22 42  1  0
 23 43  1  0
 24 44  1  0
 27 45  1  0
 27 46  1  0
 28 47  1  0
 28 48  1  0
 30 49  1  0
 30 50  1  0
 31 51  1  0
 31 52  1  0
 32 53  1  0
 33 54  1  0
 34 55  1  0
M  CHG  2   7  -1  17  -1
M  END
>  <UniqueID>  (95) 
86

>  <SMILES>  (95) 
NC(=O)c1cc[n-]c(=NC(=O)c2cccc([N-]S(=O)(=O)c3cccc(N4CCOCC4)c3)c2)c1

>  <Energy>  (95) 
81.45901345807316

>  <Genealogy>  (95) 
NC(=O)c1cc[n-]c(=NC(=O)c2cccc([N-]S(=O)(=O)c3cccc(N4CCOCC4)c3)c2)c1 (protonated)
NC(=O)c1cc[n-]c(=NC(=O)c2cccc([N-]S(=O)(=O)c3cccc(N4CCOCC4)c3)c2)c1 (3D coordinates assigned)
NC(=O)c1cc[n-]c(=NC(=O)c2cccc([N-]S(=O)(=O)c3cccc(N4CCOCC4)c3)c2)c1 (nonaromatic ring conformer: 81.45901345807316 kcal/mol)

>  <smiles>  (95) 
NC(=O)c1cc[nH]c(=NC(=O)c2cccc(NS(=O)(=O)c3cccc(N4CCOCC4)c3)c2)c1

>  <score_type>  (95) 
oracle

>  <origin>  (95) 
adg

>  <m_score__min__energy>  (95) 
-12.890000000000001

>  <m_primary>  (95) 
energy

$$$$
