0:0
     RDKit          3D

 50 53  0  0  0  0  0  0  0  0999 V2000
   63.3480   34.1990   46.3730 C   0  0  0  0  0  0  0  0  0  0  0  0
   63.7520   32.9010   46.7970 O   0  0  0  0  0  0  0  0  0  0  0  0
   63.0120   32.0850   47.6650 C   0  0  0  0  0  0  0  0  0  0  0  0
   61.9220   31.3780   47.1430 C   0  0  0  0  0  0  0  0  0  0  0  0
   61.1390   30.5680   47.9710 C   0  0  0  0  0  0  0  0  0  0  0  0
   61.4370   30.4540   49.3390 C   0  0  0  0  0  0  0  0  0  0  0  0
   60.6430   29.5190   50.2100 C   0  0  0  0  0  0  0  0  0  0  0  0
   59.5090   28.9640   49.4150 C   0  0  0  0  0  0  0  0  0  0  0  0
   58.3640   29.4850   49.5100 O   0  0  0  0  0  0  0  0  0  0  0  0
   59.6930   27.7750   48.6430 N   0  0  0  0  0  0  0  0  0  0  0  0
   59.0770   27.5900   47.3630 C   0  0  0  0  0  0  0  0  0  0  0  0
   59.2780   26.4010   46.6580 C   0  0  0  0  0  0  0  0  0  0  0  0
   58.6850   26.2210   45.4060 C   0  0  0  0  0  0  0  0  0  0  0  0
   57.8770   27.2210   44.8570 C   0  0  0  0  0  0  0  0  0  0  0  0
   57.6420   28.4150   45.5640 C   0  0  0  0  0  0  0  0  0  0  0  0
   56.7550   29.4670   44.9960 C   0  0  0  0  0  0  0  0  0  0  0  0
   55.5030   29.3250   45.0610 O   0  0  0  0  0  0  0  0  0  0  0  0
   57.2940   30.7080   44.3880 C   0  0  0  0  0  0  0  0  0  0  0  0
   57.2990   30.8340   42.9900 C   0  0  0  0  0  0  0  0  0  0  0  0
   57.7500   32.0080   42.3830 C   0  0  0  0  0  0  0  0  0  0  0  0
   58.2070   33.0730   43.1610 C   0  0  0  0  0  0  0  0  0  0  0  0
   58.2260   32.9640   44.5560 C   0  0  0  0  0  0  0  0  0  0  0  0
   58.6800   34.0200   45.3560 C   0  0  0  0  0  0  0  0  0  0  0  0
   58.7050   33.8820   46.7440 C   0  0  0  0  0  0  0  0  0  0  0  0
   58.2810   32.6780   47.3260 C   0  0  0  0  0  0  0  0  0  0  0  0
   58.2970   32.5190   48.6110 N   0  0  0  0  0  0  0  0  0  0  0  0
   57.8390   31.6650   46.5340 N   0  0  0  0  0  0  0  0  0  0  0  0
   57.7860   31.7720   45.1760 C   0  0  0  0  0  0  0  0  0  0  0  0
   58.2290   28.5750   46.8320 C   0  0  0  0  0  0  0  0  0  0  0  0
   62.5470   31.1400   49.8580 C   0  0  0  0  0  0  0  0  0  0  0  0
   63.3240   31.9570   49.0320 C   0  0  0  0  0  0  0  0  0  0  0  0
   63.1522   34.8281   47.2539 H   0  0  0  0  0  0  0  0  0  0  0  0
   64.1474   34.6527   45.7688 H   0  0  0  0  0  0  0  0  0  0  0  0
   62.4323   34.1189   45.7688 H   0  0  0  0  0  0  0  0  0  0  0  0
   61.6798   31.4605   46.0732 H   0  0  0  0  0  0  0  0  0  0  0  0
   60.2854   30.0173   47.5491 H   0  0  0  0  0  0  0  0  0  0  0  0
   61.2887   28.6980   50.5551 H   0  0  0  0  0  0  0  0  0  0  0  0
   60.2547   30.0629   51.0837 H   0  0  0  0  0  0  0  0  0  0  0  0
   59.9038   25.6057   47.0891 H   0  0  0  0  0  0  0  0  0  0  0  0
   58.8547   25.2876   44.8493 H   0  0  0  0  0  0  0  0  0  0  0  0
   57.4221   27.0737   43.8664 H   0  0  0  0  0  0  0  0  0  0  0  0
   56.9443   30.0000   42.3666 H   0  0  0  0  0  0  0  0  0  0  0  0
   57.7451   32.0939   41.2864 H   0  0  0  0  0  0  0  0  0  0  0  0
   58.5524   33.9986   42.6772 H   0  0  0  0  0  0  0  0  0  0  0  0
   59.0167   34.9579   44.8901 H   0  0  0  0  0  0  0  0  0  0  0  0
   59.0545   34.7108   47.3772 H   0  0  0  0  0  0  0  0  0  0  0  0
   58.2820   31.5750   49.0590 H   0  0  0  0  0  0  0  0  0  0  0  0
   58.0210   29.4840   47.4155 H   0  0  0  0  0  0  0  0  0  0  0  0
   62.8067   31.0337   50.9216 H   0  0  0  0  0  0  0  0  0  0  0  0
   64.1825   32.5020   49.4515 H   0  0  0  0  0  0  0  0  0  0  0  0
  1  2  1  0
  2  3  1  0
  3  4  2  0
  4  5  1  0
  5  6  2  0
  6  7  1  0
  7  8  1  0
  8  9  2  0
  8 10  1  0
 10 11  1  0
 11 12  2  0
 12 13  1  0
 13 14  2  0
 14 15  1  0
 15 16  1  0
 16 17  2  0
 16 18  1  0
 18 19  2  0
 19 20  1  0
 20 21  2  0
 21 22  1  0
 22 23  1  0
 23 24  2  0
 24 25  1  0
 25 26  2  3
 25 27  1  0
 27 28  1  0
 15 29  2  0
  6 30  1  0
 30 31  2  0
 31  3  1  0
 29 11  1  0
 28 18  1  0
 28 22  2  0
  1 32  1  0
  1 33  1  0
  1 34  1  0
  4 35  1  0
  5 36  1  0
  7 37  1  0
  7 38  1  0
 12 39  1  0
 13 40  1  0
 14 41  1  0
 19 42  1  0
 20 43  1  0
 21 44  1  0
 23 45  1  0
 24 46  1  0
 26 47  1  0
 29 48  1  0
 30 49  1  0
 31 50  1  0
M  CHG  2  10  -1  27  -1
M  END
>  <UniqueID>  (1) 
1

>  <SMILES>  (1) 
COc1ccc(CC(=O)[N-]c2cccc(C(=O)c3cccc4ccc(=N)[n-]c34)c2)cc1

>  <Energy>  (1) 
63.647294872471335

>  <Genealogy>  (1) 
COc1ccc(CC(=O)[N-]c2cccc(C(=O)c3cccc4ccc(=N)[n-]c34)c2)cc1 (protonated)
COc1ccc(CC(=O)[N-]c2cccc(C(=O)c3cccc4ccc(=N)[n-]c34)c2)cc1 (3D coordinates assigned)
COc1ccc(CC(=O)[N-]c2cccc(C(=O)c3cccc4ccc(=N)[n-]c34)c2)cc1 (optimized conformer: 63.647294872471335 kcal/mol)

>  <smiles>  (1) 
COc1ccc(CC(=O)Nc2cccc(C(=O)c3cccc4ccc(=N)[nH]c34)c2)cc1

>  <score_type>  (1) 
oracle

>  <origin>  (1) 
adg

>  <m_score__min__energy>  (1) 
-13.779999999999999

>  <m_primary>  (1) 
energy

$$$$
1:0
     RDKit          3D

 45 47  0  0  0  0  0  0  0  0999 V2000
   57.6260   25.8610   46.4120 C   0  0  0  0  0  0  0  0  0  0  0  0
   56.6840   26.9490   45.9980 C   0  0  0  0  0  0  0  0  0  0  0  0
   55.4450   26.7180   46.0080 O   0  0  0  0  0  0  0  0  0  0  0  0
   57.1390   28.2470   45.5890 N   0  0  0  0  0  0  0  0  0  0  0  0
   56.3790   29.2710   44.9330 C   0  0  0  0  0  0  0  0  0  0  0  0
   55.1570   29.1050   44.6720 O   0  0  0  0  0  0  0  0  0  0  0  0
   57.0350   30.5320   44.5630 C   0  0  0  0  0  0  0  0  0  0  0  0
   57.5160   31.4930   45.4430 C   0  0  0  0  0  0  0  0  0  0  0  0
   58.0970   32.5900   44.7910 C   0  0  0  0  0  0  0  0  0  0  0  0
   58.8140   33.9530   45.6380 S   0  0  0  0  0  0  0  0  0  0  0  0
   59.3580   34.9190   44.6220 O   0  0  0  0  0  0  0  0  0  0  0  0
   57.7610   34.6510   46.4570 O   0  0  0  0  0  0  0  0  0  0  0  0
   60.1000   33.3930   46.6780 N   0  0  0  0  0  0  0  0  0  0  0  0
   61.3460   34.1120   46.3660 C   0  0  0  0  0  0  0  0  0  0  0  0
   62.5170   33.4490   47.0970 C   0  0  0  0  0  0  0  0  0  0  0  0
   62.1490   33.0950   48.4760 N   0  0  0  0  0  0  0  0  0  0  0  0
   63.1270   32.4520   49.3200 C   0  0  0  0  0  0  0  0  0  0  0  0
   62.7550   31.3910   50.1680 C   0  0  0  0  0  0  0  0  0  0  0  0
   63.7050   30.7710   50.9850 C   0  0  0  0  0  0  0  0  0  0  0  0
   65.0330   31.2020   50.9660 C   0  0  0  0  0  0  0  0  0  0  0  0
   65.9540   30.5990   51.7600 F   0  0  0  0  0  0  0  0  0  0  0  0
   65.4150   32.2530   50.1290 C   0  0  0  0  0  0  0  0  0  0  0  0
   64.4690   32.8760   49.3090 C   0  0  0  0  0  0  0  0  0  0  0  0
   60.9190   33.6420   49.0660 C   0  0  0  0  0  0  0  0  0  0  0  0
   59.7140   33.5490   48.1000 C   0  0  0  0  0  0  0  0  0  0  0  0
   58.0760   32.4990   43.4050 C   0  0  0  0  0  0  0  0  0  0  0  0
   57.3350   31.0490   42.9890 S   0  0  0  0  0  0  0  0  0  0  0  0
   57.6690   25.8114   47.5100 H   0  0  0  0  0  0  0  0  0  0  0  0
   57.2715   24.8983   46.0150 H   0  0  0  0  0  0  0  0  0  0  0  0
   58.6295   26.0741   46.0150 H   0  0  0  0  0  0  0  0  0  0  0  0
   57.4482   31.4029   46.5372 H   0  0  0  0  0  0  0  0  0  0  0  0
   60.2350   32.3740   46.4710 H   0  0  0  0  0  0  0  0  0  0  0  0
   61.5258   34.0797   45.2813 H   0  0  0  0  0  0  0  0  0  0  0  0
   61.2561   35.1585   46.6927 H   0  0  0  0  0  0  0  0  0  0  0  0
   62.8067   32.5356   46.5569 H   0  0  0  0  0  0  0  0  0  0  0  0
   63.3551   34.1606   47.1311 H   0  0  0  0  0  0  0  0  0  0  0  0
   61.7101   31.0478   50.1877 H   0  0  0  0  0  0  0  0  0  0  0  0
   63.4059   29.9424   51.6438 H   0  0  0  0  0  0  0  0  0  0  0  0
   66.4616   32.5911   50.1149 H   0  0  0  0  0  0  0  0  0  0  0  0
   64.7756   33.7026   48.6512 H   0  0  0  0  0  0  0  0  0  0  0  0
   60.6838   33.0778   49.9806 H   0  0  0  0  0  0  0  0  0  0  0  0
   61.0943   34.7057   49.2847 H   0  0  0  0  0  0  0  0  0  0  0  0
   59.1022   32.6823   48.3907 H   0  0  0  0  0  0  0  0  0  0  0  0
   59.1636   34.4980   48.1810 H   0  0  0  0  0  0  0  0  0  0  0  0
   58.4747   33.2456   42.7024 H   0  0  0  0  0  0  0  0  0  0  0  0
  1  2  1  0
  2  3  2  0
  2  4  1  0
  4  5  1  0
  5  6  2  0
  5  7  1  0
  7  8  2  0
  8  9  1  0
  9 10  1  0
 10 11  2  0
 10 12  2  0
 10 13  1  0
 13 14  1  0
 14 15  1  0
 15 16  1  0
 16 17  1  0
 17 18  2  0
 18 19  1  0
 19 20  2  0
 20 21  1  0
 20 22  1  0
 22 23  2  0
 16 24  1  0
 24 25  1  0
  9 26  2  0
 26 27  1  0
 27  7  1  0
 25 13  1  0
 23 17  1  0
  1 28  1  0
  1 29  1  0
  1 30  1  0
  8 31  1  0
 13 32  1  0
 14 33  1  0
 14 34  1  0
 15 35  1  0
 15 36  1  0
 18 37  1  0
 19 38  1  0
 22 39  1  0
 23 40  1  0
 24 41  1  0
 24 42  1  0
 25 43  1  0
 25 44  1  0
 26 45  1  0
M  CHG  2   4  -1  13   1
M  END
>  <UniqueID>  (2) 
2

>  <SMILES>  (2) 
CC(=O)[N-]C(=O)c1cc(S(=O)(=O)[NH+]2CCN(c3ccc(F)cc3)CC2)cs1

>  <Energy>  (2) 
78.69725665662422

>  <Genealogy>  (2) 
CC(=O)[N-]C(=O)c1cc(S(=O)(=O)[NH+]2CCN(c3ccc(F)cc3)CC2)cs1 (protonated)
CC(=O)[N-]C(=O)c1cc(S(=O)(=O)[NH+]2CCN(c3ccc(F)cc3)CC2)cs1 (3D coordinates assigned)
CC(=O)[N-]C(=O)c1cc(S(=O)(=O)[NH+]2CCN(c3ccc(F)cc3)CC2)cs1 (nonaromatic ring conformer: 78.69725665662422 kcal/mol)

>  <smiles>  (2) 
CC(=O)NC(=O)c1cc(S(=O)(=O)N2CCN(c3ccc(F)cc3)CC2)cs1

>  <score_type>  (2) 
oracle

>  <origin>  (2) 
adg

>  <m_score__min__energy>  (2) 
-9.4199999999999999

>  <m_primary>  (2) 
energy

$$$$
2:0
     RDKit          3D

 64 68  0  0  0  0  0  0  0  0999 V2000
   55.7980   26.1750   46.5190 O   0  0  0  0  0  0  0  0  0  0  0  0
   56.5830   27.0800   46.1230 C   0  0  0  0  0  0  0  0  0  0  0  0
   56.0690   28.0840   45.2390 N   0  0  0  0  0  0  0  0  0  0  0  0
   56.7130   29.3290   44.9450 C   0  0  0  0  0  0  0  0  0  0  0  0
   56.6280   29.9150   43.6660 C   0  0  0  0  0  0  0  0  0  0  0  0
   57.2270   31.1570   43.4230 C   0  0  0  0  0  0  0  0  0  0  0  0
   57.8910   31.8270   44.4590 C   0  0  0  0  0  0  0  0  0  0  0  0
   57.9500   31.2560   45.7390 C   0  0  0  0  0  0  0  0  0  0  0  0
   57.4010   29.9920   45.9700 C   0  0  0  0  0  0  0  0  0  0  0  0
   58.5390   31.9810   46.7790 O   0  0  0  0  0  0  0  0  0  0  0  0
   58.8010   33.3800   46.6360 C   0  0  0  0  0  0  0  0  0  0  0  0
   59.3490   33.6640   45.2280 C   0  0  0  0  0  0  0  0  0  0  0  0
   58.4960   33.0720   44.2400 O   0  0  0  0  0  0  0  0  0  0  0  0
   58.0310   27.0100   46.4750 C   0  0  0  0  0  0  0  0  0  0  0  0
   58.9450   26.2800   45.6950 C   0  0  0  0  0  0  0  0  0  0  0  0
   60.2880   26.2030   46.0590 C   0  0  0  0  0  0  0  0  0  0  0  0
   60.7300   26.8100   47.2300 C   0  0  0  0  0  0  0  0  0  0  0  0
   59.8470   27.5380   48.0440 C   0  0  0  0  0  0  0  0  0  0  0  0
   60.3660   28.0950   49.3310 C   0  0  0  0  0  0  0  0  0  0  0  0
   60.6220   27.2710   50.2520 O   0  0  0  0  0  0  0  0  0  0  0  0
   60.6260   29.5020   49.5880 N   0  0  0  0  0  0  0  0  0  0  0  0
   61.8120   29.7030   50.4380 C   0  0  0  0  0  0  0  0  0  0  0  0
   62.2220   31.1930   50.4880 C   0  0  0  0  0  0  0  0  0  0  0  0
   61.1160   32.1400   50.1650 N   0  0  0  0  0  0  0  0  0  0  0  0
   60.9850   32.6810   48.7700 C   0  0  0  0  0  0  0  0  0  0  0  0
   61.5620   34.1200   48.7070 C   0  0  0  0  0  0  0  0  0  0  0  0
   63.0890   34.1320   48.8530 C   0  0  0  0  0  0  0  0  0  0  0  0
   63.7530   33.2880   47.7610 C   0  0  0  0  0  0  0  0  0  0  0  0
   63.2060   31.8580   47.7640 C   0  0  0  0  0  0  0  0  0  0  0  0
   61.6710   31.8530   47.6480 C   0  0  0  0  0  0  0  0  0  0  0  0
   59.8310   31.6230   50.6910 C   0  0  0  0  0  0  0  0  0  0  0  0
   59.4460   30.2540   50.0790 C   0  0  0  0  0  0  0  0  0  0  0  0
   58.4980   27.6460   47.6440 C   0  0  0  0  0  0  0  0  0  0  0  0
   56.0908   29.3963   42.8583 H   0  0  0  0  0  0  0  0  0  0  0  0
   57.1764   31.6061   42.4201 H   0  0  0  0  0  0  0  0  0  0  0  0
   57.5089   29.5174   46.9565 H   0  0  0  0  0  0  0  0  0  0  0  0
   57.8684   33.9437   46.7858 H   0  0  0  0  0  0  0  0  0  0  0  0
   59.5445   33.6895   47.3852 H   0  0  0  0  0  0  0  0  0  0  0  0
   59.3927   34.7513   45.0669 H   0  0  0  0  0  0  0  0  0  0  0  0
   60.3569   33.2322   45.1395 H   0  0  0  0  0  0  0  0  0  0  0  0
   58.5964   25.7643   44.7880 H   0  0  0  0  0  0  0  0  0  0  0  0
   61.0000   25.6612   45.4191 H   0  0  0  0  0  0  0  0  0  0  0  0
   61.7864   26.7185   47.5226 H   0  0  0  0  0  0  0  0  0  0  0  0
   60.8700   29.9090   48.6540 H   0  0  0  0  0  0  0  0  0  0  0  0
   61.5841   29.3598   51.4579 H   0  0  0  0  0  0  0  0  0  0  0  0
   62.6466   29.1276   50.0108 H   0  0  0  0  0  0  0  0  0  0  0  0
   62.5842   31.4178   51.5020 H   0  0  0  0  0  0  0  0  0  0  0  0
   62.9959   31.3350   49.7193 H   0  0  0  0  0  0  0  0  0  0  0  0
   59.9040   32.6397   48.5705 H   0  0  0  0  0  0  0  0  0  0  0  0
   61.2940   34.5684   47.7389 H   0  0  0  0  0  0  0  0  0  0  0  0
   61.1356   34.6947   49.5424 H   0  0  0  0  0  0  0  0  0  0  0  0
   63.4494   35.1684   48.7752 H   0  0  0  0  0  0  0  0  0  0  0  0
   63.3501   33.7049   49.8325 H   0  0  0  0  0  0  0  0  0  0  0  0
   63.5547   33.7469   46.7812 H   0  0  0  0  0  0  0  0  0  0  0  0
   64.8348   33.2498   47.9568 H   0  0  0  0  0  0  0  0  0  0  0  0
   63.6327   31.3081   46.9122 H   0  0  0  0  0  0  0  0  0  0  0  0
   63.4868   31.3779   48.7130 H   0  0  0  0  0  0  0  0  0  0  0  0
   61.3898   32.2789   46.6736 H   0  0  0  0  0  0  0  0  0  0  0  0
   61.3324   30.8112   47.7479 H   0  0  0  0  0  0  0  0  0  0  0  0
   59.9166   31.5099   51.7818 H   0  0  0  0  0  0  0  0  0  0  0  0
   59.0452   32.3430   50.4187 H   0  0  0  0  0  0  0  0  0  0  0  0
   58.9394   29.6530   50.8485 H   0  0  0  0  0  0  0  0  0  0  0  0
   58.7881   30.4447   49.2183 H   0  0  0  0  0  0  0  0  0  0  0  0
   57.7988   28.2363   48.2544 H   0  0  0  0  0  0  0  0  0  0  0  0
  1  2  2  0
  2  3  1  0
  3  4  1  0
  4  5  2  0
  5  6  1  0
  6  7  2  0
  7  8  1  0
  8  9  2  0
  8 10  1  0
 10 11  1  0
 11 12  1  0
 12 13  1  0
  2 14  1  0
 14 15  2  0
 15 16  1  0
 16 17  2  0
 17 18  1  0
 18 19  1  0
 19 20  2  0
 19 21  1  0
 21 22  1  0
 22 23  1  0
 23 24  1  0
 24 25  1  0
 25 26  1  0
 26 27  1  0
 27 28  1  0
 28 29  1  0
 29 30  1  0
 24 31  1  0
 31 32  1  0
 18 33  2  0
  9  4  1  0
 33 14  1  0
 13  7  1  0
 32 21  1  0
 30 25  1  0
  5 34  1  0
  6 35  1  0
  9 36  1  0
 11 37  1  0
 11 38  1  0
 12 39  1  0
 12 40  1  0
 15 41  1  0
 16 42  1  0
 17 43  1  0
 21 44  1  0
 22 45  1  0
 22 46  1  0
 23 47  1  0
 23 48  1  0
 25 49  1  0
 26 50  1  0
 26 51  1  0
 27 52  1  0
 27 53  1  0
 28 54  1  0
 28 55  1  0
 29 56  1  0
 29 57  1  0
 30 58  1  0
 30 59  1  0
 31 60  1  0
 31 61  1  0
 32 62  1  0
 32 63  1  0
 33 64  1  0
M  CHG  2   3  -1  21   1
M  END
>  <UniqueID>  (3) 
3

>  <SMILES>  (3) 
O=C([N-]c1ccc2c(c1)OCCO2)c1cccc(C(=O)[NH+]2CCN(C3CCCCC3)CC2)c1

>  <Energy>  (3) 
109.03962207989625

>  <Genealogy>  (3) 
O=C([N-]c1ccc2c(c1)OCCO2)c1cccc(C(=O)[NH+]2CCN(C3CCCCC3)CC2)c1 (protonated)
O=C([N-]c1ccc2c(c1)OCCO2)c1cccc(C(=O)[NH+]2CCN(C3CCCCC3)CC2)c1 (3D coordinates assigned)
O=C([N-]c1ccc2c(c1)OCCO2)c1cccc(C(=O)[NH+]2CCN(C3CCCCC3)CC2)c1 (nonaromatic ring conformer: 109.03962207989625 kcal/mol)

>  <smiles>  (3) 
O=C(Nc1ccc2c(c1)OCCO2)c1cccc(C(=O)N2CCN(C3CCCCC3)CC2)c1

>  <score_type>  (3) 
oracle

>  <origin>  (3) 
adg

>  <m_score__min__energy>  (3) 
-10.949999999999999

>  <m_primary>  (3) 
energy

$$$$
3:0
     RDKit          3D

 26 28  0  0  0  0  0  0  0  0999 V2000
   55.1560   26.5550   46.0220 N   0  0  0  0  0  0  0  0  0  0  0  0
   56.4860   26.9290   45.6740 C   0  0  0  0  0  0  0  0  0  0  0  0
   57.3380   26.0330   45.4330 O   0  0  0  0  0  0  0  0  0  0  0  0
   56.8790   28.3460   45.5870 C   0  0  0  0  0  0  0  0  0  0  0  0
   56.0930   29.3010   45.0350 N   0  0  0  0  0  0  0  0  0  0  0  0
   56.7150   30.4740   45.1040 N   0  0  0  0  0  0  0  0  0  0  0  0
   57.9010   30.2630   45.7000 C   0  0  0  0  0  0  0  0  0  0  0  0
   58.8830   31.2080   45.9830 C   0  0  0  0  0  0  0  0  0  0  0  0
   60.0660   30.7700   46.6260 C   0  0  0  0  0  0  0  0  0  0  0  0
   61.1440   31.7380   46.9510 C   0  0  0  0  0  0  0  0  0  0  0  0
   62.3620   31.2970   47.5000 C   0  0  0  0  0  0  0  0  0  0  0  0
   63.3610   32.2250   47.7990 C   0  0  0  0  0  0  0  0  0  0  0  0
   63.1610   33.5470   47.5600 N   0  0  0  0  0  0  0  0  0  0  0  0
   61.9970   34.0050   47.0290 C   0  0  0  0  0  0  0  0  0  0  0  0
   60.9680   33.1130   46.7170 C   0  0  0  0  0  0  0  0  0  0  0  0
   60.2100   29.3940   46.9570 C   0  0  0  0  0  0  0  0  0  0  0  0
   59.1950   28.4680   46.6550 C   0  0  0  0  0  0  0  0  0  0  0  0
   58.0480   28.9430   46.0220 C   0  0  0  0  0  0  0  0  0  0  0  0
   54.6230   27.0840   46.7470 H   0  0  0  0  0  0  0  0  0  0  0  0
   58.7439   32.2656   45.7146 H   0  0  0  0  0  0  0  0  0  0  0  0
   62.5262   30.2265   47.6926 H   0  0  0  0  0  0  0  0  0  0  0  0
   64.3140   31.8843   48.2299 H   0  0  0  0  0  0  0  0  0  0  0  0
   61.8646   35.0813   46.8443 H   0  0  0  0  0  0  0  0  0  0  0  0
   60.0247   33.4847   46.2903 H   0  0  0  0  0  0  0  0  0  0  0  0
   61.1277   29.0493   47.4560 H   0  0  0  0  0  0  0  0  0  0  0  0
   59.3032   27.4035   46.9102 H   0  0  0  0  0  0  0  0  0  0  0  0
  1  2  1  0
  2  3  2  0
  2  4  1  0
  4  5  2  0
  5  6  1  0
  6  7  1  0
  7  8  2  0
  8  9  1  0
  9 10  1  0
 10 11  2  0
 11 12  1  0
 12 13  2  0
 13 14  1  0
 14 15  2  0
  9 16  2  0
 16 17  1  0
 17 18  2  0
 18  4  1  0
 18  7  1  0
 15 10  1  0
  1 19  1  0
  8 20  1  0
 11 21  1  0
 12 22  1  0
 14 23  1  0
 15 24  1  0
 16 25  1  0
 17 26  1  0
M  CHG  2   1  -1   6  -1
M  END
>  <UniqueID>  (4) 
4

>  <SMILES>  (4) 
[NH-]C(=O)c1n[n-]c2cc(-c3ccncc3)ccc12

>  <Energy>  (4) 
72.76897117319119

>  <Genealogy>  (4) 
[NH-]C(=O)c1n[n-]c2cc(-c3ccncc3)ccc12 (protonated)
[NH-]C(=O)c1n[n-]c2cc(-c3ccncc3)ccc12 (3D coordinates assigned)
[NH-]C(=O)c1n[n-]c2cc(-c3ccncc3)ccc12 (optimized conformer: 72.76897117319119 kcal/mol)

>  <smiles>  (4) 
NC(=O)c1n[nH]c2cc(-c3ccncc3)ccc12

>  <score_type>  (4) 
oracle

>  <origin>  (4) 
adg

>  <m_score__min__energy>  (4) 
-11.369999999999999

>  <m_primary>  (4) 
energy

$$$$
4:0
     RDKit          3D

 37 39  0  0  0  0  0  0  0  0999 V2000
   60.7220   30.1225   46.7075 H   0  0  0  0  0  0  0  0  0  0  0  0
   60.3820   31.0390   47.2120 C   0  0  0  0  0  0  0  0  0  0  0  0
   59.1120   31.2760   47.3170 N   0  0  0  0  0  0  0  0  0  0  0  0
   58.2210   31.0980   46.2440 N   0  0  0  0  0  0  0  0  0  0  0  0
   57.4040   32.0070   45.6650 C   0  0  0  0  0  0  0  0  0  0  0  0
   57.3010   33.4680   46.0600 C   0  0  0  0  0  0  0  0  0  0  0  0
   56.2542   33.6630   46.3359 H   0  0  0  0  0  0  0  0  0  0  0  0
   58.1420   33.8090   47.3250 C   0  0  0  0  0  0  0  0  0  0  0  0
   57.5077   34.3807   48.0184 H   0  0  0  0  0  0  0  0  0  0  0  0
   58.4792   32.8524   47.7507 H   0  0  0  0  0  0  0  0  0  0  0  0
   59.4070   34.6370   47.0310 C   0  0  0  0  0  0  0  0  0  0  0  0
   59.1259   35.6962   46.9362 H   0  0  0  0  0  0  0  0  0  0  0  0
   60.1140   34.4899   47.8607 H   0  0  0  0  0  0  0  0  0  0  0  0
   60.0890   34.1870   45.7370 C   0  0  0  0  0  0  0  0  0  0  0  0
   60.9767   34.8147   45.5694 H   0  0  0  0  0  0  0  0  0  0  0  0
   60.3591   33.1270   45.8528 H   0  0  0  0  0  0  0  0  0  0  0  0
   59.1620   34.3030   44.5090 C   0  0  0  0  0  0  0  0  0  0  0  0
   59.4295   35.2162   43.9571 H   0  0  0  0  0  0  0  0  0  0  0  0
   59.3074   33.3922   43.9096 H   0  0  0  0  0  0  0  0  0  0  0  0
   57.6640   34.3720   44.8670 C   0  0  0  0  0  0  0  0  0  0  0  0
   57.4096   35.4114   45.1217 H   0  0  0  0  0  0  0  0  0  0  0  0
   57.0950   34.0188   43.9944 H   0  0  0  0  0  0  0  0  0  0  0  0
   56.5270   31.3900   44.8430 N   0  0  0  0  0  0  0  0  0  0  0  0
   56.7750   30.0880   44.8950 N   0  0  0  0  0  0  0  0  0  0  0  0
   57.7890   29.9220   45.7610 C   0  0  0  0  0  0  0  0  0  0  0  0
   58.3820   28.4610   46.1970 S   0  0  0  0  0  0  0  0  0  0  0  0
   61.3790   31.9800   47.7590 C   0  0  0  0  0  0  0  0  0  0  0  0
   61.0940   32.6700   48.9490 C   0  0  0  0  0  0  0  0  0  0  0  0
   60.1338   32.5062   49.4601 H   0  0  0  0  0  0  0  0  0  0  0  0
   62.0250   33.5640   49.4870 C   0  0  0  0  0  0  0  0  0  0  0  0
   61.7944   34.1023   50.4182 H   0  0  0  0  0  0  0  0  0  0  0  0
   63.2480   33.7750   48.8440 C   0  0  0  0  0  0  0  0  0  0  0  0
   63.9794   34.4779   49.2695 H   0  0  0  0  0  0  0  0  0  0  0  0
   63.5410   33.0930   47.6610 C   0  0  0  0  0  0  0  0  0  0  0  0
   64.5034   33.2599   47.1552 H   0  0  0  0  0  0  0  0  0  0  0  0
   62.6130   32.1980   47.1180 C   0  0  0  0  0  0  0  0  0  0  0  0
   62.8486   31.6625   46.1865 H   0  0  0  0  0  0  0  0  0  0  0  0
  1  2  1  0
  2  3  2  0
  3  4  1  0
  4  5  1  0
  5  6  1  0
  6  7  1  0
  6  8  1  0
  8  9  1  0
  8 10  1  0
  8 11  1  0
 11 12  1  0
 11 13  1  0
 11 14  1  0
 14 15  1  0
 14 16  1  0
 14 17  1  0
 17 18  1  0
 17 19  1  0
 17 20  1  0
 20 21  1  0
 20 22  1  0
  5 23  2  0
 23 24  1  0
 24 25  1  0
 25 26  2  0
  2 27  1  0
 27 28  2  0
 28 29  1  0
 28 30  1  0
 30 31  1  0
 30 32  2  0
 32 33  1  0
 32 34  1  0
 34 35  1  0
 34 36  2  0
 36 37  1  0
 25  4  1  0
 36 27  1  0
 20  6  1  0
M  CHG  1  24  -1
M  END
>  <UniqueID>  (5) 
5

>  <SMILES>  (5) 
S=c1[n-]nc(C2CCCCC2)n1/N=C/c1ccccc1

>  <Energy>  (5) 
83.99538478448626

>  <Genealogy>  (5) 
S=c1[n-]nc(C2CCCCC2)n1N=Cc1ccccc1 (protonated)
S=c1[n-]nc(C2CCCCC2)n1/N=C/c1ccccc1 (cis-trans isomerization)
S=c1[n-]nc(C2CCCCC2)n1/N=C/c1ccccc1 (3D coordinates assigned)
S=c1[n-]nc(C2CCCCC2)n1/N=C/c1ccccc1 (nonaromatic ring conformer: 83.99538478448626 kcal/mol)

>  <smiles>  (5) 
S=c1[nH]nc(C2CCCCC2)n1N=Cc1ccccc1

>  <score_type>  (5) 
oracle

>  <origin>  (5) 
adg

>  <m_score__min__energy>  (5) 
-9.0899999999999999

>  <m_primary>  (5) 
energy

$$$$
5:0
     RDKit          3D

 54 57  0  0  0  0  0  0  0  0999 V2000
   56.8977   30.4516   42.6954 H   0  0  0  0  0  0  0  0  0  0  0  0
   57.1900   29.6350   43.3720 C   0  0  0  0  0  0  0  0  0  0  0  0
   56.7978   28.6200   43.2107 H   0  0  0  0  0  0  0  0  0  0  0  0
   58.0250   29.8770   44.3940 C   0  0  0  0  0  0  0  0  0  0  0  0
   58.4910   28.9500   45.3400 C   0  0  0  0  0  0  0  0  0  0  0  0
   58.4280   27.6050   45.3640 C   0  0  0  0  0  0  0  0  0  0  0  0
   59.3618   27.0538   45.1789 H   0  0  0  0  0  0  0  0  0  0  0  0
   57.2150   26.8100   45.6170 C   0  0  0  0  0  0  0  0  0  0  0  0
   57.2100   25.5530   46.0980 N   0  0  0  0  0  0  0  0  0  0  0  0
   55.9000   25.3060   46.3190 C   0  0  0  0  0  0  0  0  0  0  0  0
   55.4820   24.2070   46.7650 O   0  0  0  0  0  0  0  0  0  0  0  0
   55.0760   26.3360   46.0360 N   0  0  0  0  0  0  0  0  0  0  0  0
   55.9260   27.2840   45.6070 C   0  0  0  0  0  0  0  0  0  0  0  0
   55.5320   28.5600   45.2240 O   0  0  0  0  0  0  0  0  0  0  0  0
   59.1000   29.6880   46.3390 C   0  0  0  0  0  0  0  0  0  0  0  0
   59.5217   29.2997   47.2778 H   0  0  0  0  0  0  0  0  0  0  0  0
   59.0760   31.0050   45.9300 C   0  0  0  0  0  0  0  0  0  0  0  0
   59.6340   32.1240   46.7140 C   0  0  0  0  0  0  0  0  0  0  0  0
   60.7780   32.5470   46.3950 O   0  0  0  0  0  0  0  0  0  0  0  0
   58.9160   32.7750   47.7990 N   0  0  0  0  0  0  0  0  0  0  0  0
   57.8970   32.6750   47.5740 H   0  0  0  0  0  0  0  0  0  0  0  0
   59.1360   32.0940   49.0830 C   0  0  0  0  0  0  0  0  0  0  0  0
   58.5069   32.5698   49.8497 H   0  0  0  0  0  0  0  0  0  0  0  0
   58.8732   31.0336   48.9546 H   0  0  0  0  0  0  0  0  0  0  0  0
   60.5980   32.1680   49.5280 C   0  0  0  0  0  0  0  0  0  0  0  0
   60.6465   31.9452   50.6041 H   0  0  0  0  0  0  0  0  0  0  0  0
   61.1578   31.4370   48.9262 H   0  0  0  0  0  0  0  0  0  0  0  0
   61.2140   33.4840   49.2960 N   0  0  0  0  0  0  0  0  0  0  0  0
   62.5780   33.7310   49.7150 C   0  0  0  0  0  0  0  0  0  0  0  0
   62.9990   34.9210   49.7730 O   0  0  0  0  0  0  0  0  0  0  0  0
   63.5080   32.6620   49.9760 N   0  0  0  0  0  0  0  0  0  0  0  0
   64.9020   32.7680   49.5750 C   0  0  0  0  0  0  0  0  0  0  0  0
   64.9892   32.7325   48.4790 H   0  0  0  0  0  0  0  0  0  0  0  0
   65.3473   33.7184   49.9044 H   0  0  0  0  0  0  0  0  0  0  0  0
   65.6040   31.5740   50.2010 C   0  0  0  0  0  0  0  0  0  0  0  0
   65.7149   30.7633   49.4658 H   0  0  0  0  0  0  0  0  0  0  0  0
   66.6160   31.8292   50.5486 H   0  0  0  0  0  0  0  0  0  0  0  0
   64.7030   31.1340   51.3490 C   0  0  0  0  0  0  0  0  0  0  0  0
   64.7115   30.0384   51.4467 H   0  0  0  0  0  0  0  0  0  0  0  0
   65.0395   31.5433   52.3130 H   0  0  0  0  0  0  0  0  0  0  0  0
   63.3100   31.6250   50.9810 C   0  0  0  0  0  0  0  0  0  0  0  0
   62.7098   30.8008   50.5681 H   0  0  0  0  0  0  0  0  0  0  0  0
   62.7707   32.0095   51.8593 H   0  0  0  0  0  0  0  0  0  0  0  0
   60.5520   34.5660   48.5400 C   0  0  0  0  0  0  0  0  0  0  0  0
   60.4345   35.4274   49.2140 H   0  0  0  0  0  0  0  0  0  0  0  0
   61.1975   34.7664   47.6722 H   0  0  0  0  0  0  0  0  0  0  0  0
   59.1640   34.2210   47.9640 C   0  0  0  0  0  0  0  0  0  0  0  0
   58.3991   34.6263   48.6427 H   0  0  0  0  0  0  0  0  0  0  0  0
   59.1218   34.6642   46.9581 H   0  0  0  0  0  0  0  0  0  0  0  0
   58.4120   31.1270   44.7580 N   0  0  0  0  0  0  0  0  0  0  0  0
   58.0480   32.3830   44.0940 C   0  0  0  0  0  0  0  0  0  0  0  0
   57.8263   33.1480   44.8527 H   0  0  0  0  0  0  0  0  0  0  0  0
   58.8850   32.7215   43.4656 H   0  0  0  0  0  0  0  0  0  0  0  0
   57.1597   32.2215   43.4656 H   0  0  0  0  0  0  0  0  0  0  0  0
  1  2  1  0
  2  3  1  0
  2  4  2  0
  4  5  1  0
  5  6  2  0
  6  7  1  0
  6  8  1  0
  8  9  1  0
  9 10  1  0
 10 11  2  0
 10 12  1  0
 12 13  1  0
 13 14  1  0
  5 15  1  0
 15 16  1  0
 15 17  2  0
 17 18  1  0
 18 19  2  0
 18 20  1  0
 20 21  1  0
 20 22  1  0
 22 23  1  0
 22 24  1  0
 22 25  1  0
 25 26  1  0
 25 27  1  0
 25 28  1  0
 28 29  1  0
 29 30  2  0
 29 31  1  0
 31 32  1  0
 32 33  1  0
 32 34  1  0
 32 35  1  0
 35 36  1  0
 35 37  1  0
 35 38  1  0
 38 39  1  0
 38 40  1  0
 38 41  1  0
 41 42  1  0
 41 43  1  0
 28 44  1  0
 44 45  1  0
 44 46  1  0
 44 47  1  0
 47 48  1  0
 47 49  1  0
 17 50  1  0
 50 51  1  0
 51 52  1  0
 51 53  1  0
 51 54  1  0
 50  4  1  0
 13  8  2  0
 47 20  1  0
 41 31  1  0
M  CHG  4   9  -1  12  -1  14  -1  20   1
M  END
>  <UniqueID>  (6) 
6

>  <SMILES>  (6) 
C=c1/c(=C\c2[n-]c(=O)[n-]c2[O-])cc(C(=O)[NH+]2CCN(C(=O)N3CCCC3)CC2)n1C

>  <Energy>  (6) 
145.66986861858217

>  <Genealogy>  (6) 
C=c1c(=Cc2[n-]c(=O)[n-]c2[O-])cc(C(=O)[NH+]2CCN(C(=O)N3CCCC3)CC2)n1C (protonated)
C=c1/c(=C\c2[n-]c(=O)[n-]c2[O-])cc(C(=O)[NH+]2CCN(C(=O)N3CCCC3)CC2)n1C (cis-trans isomerization)
C=c1/c(=C\c2[n-]c(=O)[n-]c2[O-])cc(C(=O)[NH+]2CCN(C(=O)N3CCCC3)CC2)n1C (3D coordinates assigned)
C=c1/c(=C\c2[n-]c(=O)[n-]c2[O-])cc(C(=O)[NH+]2CCN(C(=O)N3CCCC3)CC2)n1C (nonaromatic ring conformer: 145.66986861858217 kcal/mol)

>  <smiles>  (6) 
C=c1c(=Cc2[nH]c(=O)[nH]c2O)cc(C(=O)N2CCN(C(=O)N3CCCC3)CC2)n1C

>  <score_type>  (6) 
oracle

>  <origin>  (6) 
adg

>  <m_score__min__energy>  (6) 
-17.149999999999999

>  <m_primary>  (6) 
energy

$$$$
6:0
     RDKit          3D

 39 41  0  0  0  0  0  0  0  0999 V2000
   53.3644   30.1737   55.1801 H   0  0  0  0  0  0  0  0  0  0  0  0
   54.4390   30.0750   54.9670 C   0  0  0  0  0  0  0  0  0  0  0  0
   55.1287   29.7460   55.7583 H   0  0  0  0  0  0  0  0  0  0  0  0
   54.9070   30.3550   53.7460 C   0  0  0  0  0  0  0  0  0  0  0  0
   54.1730   30.7770   52.6350 C   0  0  0  0  0  0  0  0  0  0  0  0
   52.8510   31.0270   52.5780 C   0  0  0  0  0  0  0  0  0  0  0  0
   52.3093   31.1572   53.5265 H   0  0  0  0  0  0  0  0  0  0  0  0
   52.0850   31.1370   51.3240 C   0  0  0  0  0  0  0  0  0  0  0  0
   52.1670   30.2360   50.3290 N   0  0  0  0  0  0  0  0  0  0  0  0
   51.3830   30.7620   49.3640 C   0  0  0  0  0  0  0  0  0  0  0  0
   51.1930   30.1910   48.2580 O   0  0  0  0  0  0  0  0  0  0  0  0
   50.8280   31.9530   49.6710 N   0  0  0  0  0  0  0  0  0  0  0  0
   51.2910   32.1830   50.9100 C   0  0  0  0  0  0  0  0  0  0  0  0
   51.0310   33.3480   51.6230 O   0  0  0  0  0  0  0  0  0  0  0  0
   55.0930   30.9430   51.6080 C   0  0  0  0  0  0  0  0  0  0  0  0
   54.8805   31.2761   50.5814 H   0  0  0  0  0  0  0  0  0  0  0  0
   56.3290   30.6070   52.1300 C   0  0  0  0  0  0  0  0  0  0  0  0
   57.6340   30.6670   51.3800 C   0  0  2  0  0  0  0  0  0  0  0  0
   57.4447   30.5861   50.2994 H   0  0  0  0  0  0  0  0  0  0  0  0
   58.5250   29.4850   51.7840 C   0  0  0  0  0  0  0  0  0  0  0  0
   58.5736   29.4206   52.8810 H   0  0  0  0  0  0  0  0  0  0  0  0
   58.1029   28.5529   51.3803 H   0  0  0  0  0  0  0  0  0  0  0  0
   59.5373   29.6341   51.3803 H   0  0  0  0  0  0  0  0  0  0  0  0
   58.3240   32.0230   51.6310 C   0  0  0  0  0  0  0  0  0  0  0  0
   57.6083   32.7009   52.1191 H   0  0  0  0  0  0  0  0  0  0  0  0
   59.2018   31.8450   52.2696 H   0  0  0  0  0  0  0  0  0  0  0  0
   58.8010   32.6590   50.3490 C   0  0  0  0  0  0  0  0  0  0  0  0
   59.7990   33.6470   50.3790 C   0  0  0  0  0  0  0  0  0  0  0  0
   60.2466   33.9446   51.3387 H   0  0  0  0  0  0  0  0  0  0  0  0
   60.2260   34.2540   49.1930 C   0  0  0  0  0  0  0  0  0  0  0  0
   61.0103   35.0248   49.2216 H   0  0  0  0  0  0  0  0  0  0  0  0
   59.6570   33.8820   47.9720 C   0  0  0  0  0  0  0  0  0  0  0  0
   60.0710   34.4710   46.8230 F   0  0  0  0  0  0  0  0  0  0  0  0
   58.6590   32.9030   47.9340 C   0  0  0  0  0  0  0  0  0  0  0  0
   58.2114   32.6112   46.9725 H   0  0  0  0  0  0  0  0  0  0  0  0
   58.2300   32.2950   49.1180 C   0  0  0  0  0  0  0  0  0  0  0  0
   57.4419   31.5283   49.0854 H   0  0  0  0  0  0  0  0  0  0  0  0
   56.2120   30.2530   53.4250 N   0  0  0  0  0  0  0  0  0  0  0  0
   56.9910   29.9650   54.0610 H   0  0  0  0  0  0  0  0  0  0  0  0
  1  2  1  0
  2  3  1  0
  2  4  2  0
  4  5  1  0
  5  6  2  0
  6  7  1  0
  6  8  1  0
  8  9  1  0
  9 10  1  0
 10 11  2  0
 10 12  1  0
 12 13  1  0
 13 14  1  0
  5 15  1  0
 15 16  1  0
 15 17  2  0
 17 18  1  0
 18 19  1  6
 18 20  1  0
 20 21  1  0
 20 22  1  0
 20 23  1  0
 18 24  1  0
 24 25  1  0
 24 26  1  0
 24 27  1  0
 27 28  2  0
 28 29  1  0
 28 30  1  0
 30 31  1  0
 30 32  2  0
 32 33  1  0
 32 34  1  0
 34 35  1  0
 34 36  2  0
 36 37  1  0
 17 38  1  0
 38 39  1  0
 38  4  1  0
 13  8  2  0
 36 27  1  0
M  CHG  3   9  -1  12  -1  14  -1
M  END
>  <UniqueID>  (7) 
7

>  <SMILES>  (7) 
C=c1[nH]c([C@H](C)Cc2ccc(F)cc2)c/c1=C\c1[n-]c(=O)[n-]c1[O-]

>  <Energy>  (7) 
99.65830432771256

>  <Genealogy>  (7) 
C=c1[nH]c(C(C)Cc2ccc(F)cc2)cc1=Cc1[n-]c(=O)[n-]c1[O-] (protonated)
C=c1[nH]c([C@H](C)Cc2ccc(F)cc2)cc1=Cc1[n-]c(=O)[n-]c1[O-] (chirality)
C=c1[nH]c([C@H](C)Cc2ccc(F)cc2)c/c1=C\c1[n-]c(=O)[n-]c1[O-] (cis-trans isomerization)
C=c1[nH]c([C@H](C)Cc2ccc(F)cc2)c/c1=C\c1[n-]c(=O)[n-]c1[O-] (3D coordinates assigned)
C=c1[nH]c([C@H](C)Cc2ccc(F)cc2)c/c1=C\c1[n-]c(=O)[n-]c1[O-] (optimized conformer: 99.65830432771256 kcal/mol)

>  <smiles>  (7) 
C=c1[nH]c(C(C)Cc2ccc(F)cc2)cc1=Cc1[nH]c(=O)[nH]c1O

>  <score_type>  (7) 
oracle

>  <origin>  (7) 
adg

>  <m_score__min__energy>  (7) 
-16.350000000000001

>  <m_primary>  (7) 
energy

$$$$
7:0
     RDKit          3D

 53 55  0  0  0  0  0  0  0  0999 V2000
   60.3830   28.0930   49.2520 C   0  0  0  0  0  0  0  0  0  0  0  0
   59.2660   28.9720   48.6900 C   0  0  0  0  0  0  0  0  0  0  0  0
   58.8350   28.5060   47.3520 N   0  0  0  0  0  0  0  0  0  0  0  0
   59.7680   28.9660   46.3080 C   0  0  0  0  0  0  0  0  0  0  0  0
   60.5850   27.7720   45.8580 C   0  0  0  0  0  0  0  0  0  0  0  0
   59.6560   26.6050   46.0670 C   0  0  0  0  0  0  0  0  0  0  0  0
   58.7820   27.0280   47.2500 C   0  0  2  0  0  0  0  0  0  0  0  0
   57.3250   26.5520   47.1120 C   0  0  0  0  0  0  0  0  0  0  0  0
   56.7970   26.8410   45.7790 N   0  0  0  0  0  0  0  0  0  0  0  0
   57.1080   27.9840   44.9720 C   0  0  0  0  0  0  0  0  0  0  0  0
   57.8600   27.8270   43.9740 O   0  0  0  0  0  0  0  0  0  0  0  0
   56.5550   29.2810   45.2580 N   0  0  0  0  0  0  0  0  0  0  0  0
   57.1050   30.5090   44.7510 C   0  0  0  0  0  0  0  0  0  0  0  0
   57.0150   30.7890   43.3810 C   0  0  0  0  0  0  0  0  0  0  0  0
   57.5300   31.9830   42.8680 C   0  0  0  0  0  0  0  0  0  0  0  0
   57.4250   32.3380   40.9930 Br  0  0  0  0  0  0  0  0  0  0  0  0
   58.1230   32.9160   43.7210 C   0  0  0  0  0  0  0  0  0  0  0  0
   58.1910   32.6700   45.1040 C   0  0  0  0  0  0  0  0  0  0  0  0
   58.8160   33.6590   46.0130 C   0  0  0  0  0  0  0  0  0  0  0  0
   58.5540   34.8850   45.8670 O   0  0  0  0  0  0  0  0  0  0  0  0
   59.6910   33.2490   47.0760 N   0  0  0  0  0  0  0  0  0  0  0  0
   59.5900   33.9150   48.3780 C   0  0  0  0  0  0  0  0  0  0  0  0
   60.5190   33.2470   49.3910 C   0  0  0  0  0  0  0  0  0  0  0  0
   60.4960   31.8490   49.1960 O   0  0  0  0  0  0  0  0  0  0  0  0
   61.2050   31.5080   48.0160 C   0  0  0  0  0  0  0  0  0  0  0  0
   60.8470   32.3860   46.7940 C   0  0  0  0  0  0  0  0  0  0  0  0
   57.6830   31.4610   45.6110 C   0  0  0  0  0  0  0  0  0  0  0  0
   60.3513   28.1180   50.3513 H   0  0  0  0  0  0  0  0  0  0  0  0
   60.2454   27.0584   48.9046 H   0  0  0  0  0  0  0  0  0  0  0  0
   61.3562   28.4700   48.9046 H   0  0  0  0  0  0  0  0  0  0  0  0
   58.4058   28.9395   49.3748 H   0  0  0  0  0  0  0  0  0  0  0  0
   59.6483   29.9989   48.5931 H   0  0  0  0  0  0  0  0  0  0  0  0
   59.2045   29.3760   45.4569 H   0  0  0  0  0  0  0  0  0  0  0  0
   60.4256   29.7553   46.7012 H   0  0  0  0  0  0  0  0  0  0  0  0
   60.8654   27.8654   44.7985 H   0  0  0  0  0  0  0  0  0  0  0  0
   61.5302   27.6691   46.4113 H   0  0  0  0  0  0  0  0  0  0  0  0
   59.0420   26.4299   45.1713 H   0  0  0  0  0  0  0  0  0  0  0  0
   60.1958   25.6655   46.2567 H   0  0  0  0  0  0  0  0  0  0  0  0
   59.1729   26.5550   48.1629 H   0  0  0  0  0  0  0  0  0  0  0  0
   57.2843   25.4667   47.2863 H   0  0  0  0  0  0  0  0  0  0  0  0
   56.7125   27.0875   47.8523 H   0  0  0  0  0  0  0  0  0  0  0  0
   55.6390   29.3360   45.7560 H   0  0  0  0  0  0  0  0  0  0  0  0
   56.5363   30.0650   42.7052 H   0  0  0  0  0  0  0  0  0  0  0  0
   58.5388   33.8475   43.3094 H   0  0  0  0  0  0  0  0  0  0  0  0
   59.8740   34.9719   48.2676 H   0  0  0  0  0  0  0  0  0  0  0  0
   58.5538   33.8381   48.7390 H   0  0  0  0  0  0  0  0  0  0  0  0
   61.5442   33.6205   49.2511 H   0  0  0  0  0  0  0  0  0  0  0  0
   60.1808   33.4818   50.4110 H   0  0  0  0  0  0  0  0  0  0  0  0
   62.2815   31.6147   48.2157 H   0  0  0  0  0  0  0  0  0  0  0  0
   60.9231   30.4758   47.7611 H   0  0  0  0  0  0  0  0  0  0  0  0
   61.7117   33.0169   46.5406 H   0  0  0  0  0  0  0  0  0  0  0  0
   60.5889   31.7236   45.9546 H   0  0  0  0  0  0  0  0  0  0  0  0
   57.7379   31.2573   46.6906 H   0  0  0  0  0  0  0  0  0  0  0  0
  1  2  1  0
  2  3  1  0
  3  4  1  0
  4  5  1  0
  5  6  1  0
  6  7  1  0
  7  8  1  0
  8  9  1  0
  9 10  1  0
 10 11  2  0
 10 12  1  0
 12 13  1  0
 13 14  2  0
 14 15  1  0
 15 16  1  0
 15 17  2  0
 17 18  1  0
 18 19  1  0
 19 20  2  0
 19 21  1  0
 21 22  1  0
 22 23  1  0
 23 24  1  0
 24 25  1  0
 25 26  1  0
 18 27  2  0
  7  3  1  0
 27 13  1  0
 26 21  1  0
  1 28  1  0
  1 29  1  0
  1 30  1  0
  2 31  1  0
  2 32  1  0
  4 33  1  0
  4 34  1  0
  5 35  1  0
  5 36  1  0
  6 37  1  0
  6 38  1  0
  7 39  1  1
  8 40  1  0
  8 41  1  0
 12 42  1  0
 14 43  1  0
 17 44  1  0
 22 45  1  0
 22 46  1  0
 23 47  1  0
 23 48  1  0
 25 49  1  0
 25 50  1  0
 26 51  1  0
 26 52  1  0
 27 53  1  0
M  CHG  1   9  -1
M  END
>  <UniqueID>  (8) 
8

>  <SMILES>  (8) 
CCN1CCC[C@@H]1C[N-]C(=O)Nc1cc(Br)cc(C(=O)N2CCOCC2)c1

>  <Energy>  (8) 
67.8934165514824

>  <Genealogy>  (8) 
CCN1CCCC1C[N-]C(=O)Nc1cc(Br)cc(C(=O)N2CCOCC2)c1 (protonated)
CCN1CCC[C@@H]1C[N-]C(=O)Nc1cc(Br)cc(C(=O)N2CCOCC2)c1 (chirality)
CCN1CCC[C@@H]1C[N-]C(=O)Nc1cc(Br)cc(C(=O)N2CCOCC2)c1 (3D coordinates assigned)
CCN1CCC[C@@H]1C[N-]C(=O)Nc1cc(Br)cc(C(=O)N2CCOCC2)c1 (nonaromatic ring conformer: 67.8934165514824 kcal/mol)

>  <smiles>  (8) 
CCN1CCCC1CNC(=O)Nc1cc(Br)cc(C(=O)N2CCOCC2)c1

>  <score_type>  (8) 
oracle

>  <origin>  (8) 
adg

>  <m_score__min__energy>  (8) 
-10.300000000000001

>  <m_primary>  (8) 
energy

$$$$
8:0
     RDKit          3D

 46 48  0  0  0  0  0  0  0  0999 V2000
   57.5470   32.0550   42.8230 C   0  0  0  0  0  0  0  0  0  0  0  0
   57.9060   31.2090   44.0040 C   0  0  0  0  0  0  0  0  0  0  0  0
   58.1820   29.8920   43.9260 N   0  0  0  0  0  0  0  0  0  0  0  0
   58.4830   29.4780   45.1730 C   0  0  0  0  0  0  0  0  0  0  0  0
   58.8250   28.0560   45.5130 C   0  0  0  0  0  0  0  0  0  0  0  0
   57.5790   27.2560   45.7410 C   0  0  0  0  0  0  0  0  0  0  0  0
   57.5770   25.9750   46.1540 N   0  0  0  0  0  0  0  0  0  0  0  0
   56.2630   25.6870   46.2710 C   0  0  0  0  0  0  0  0  0  0  0  0
   55.8470   24.5580   46.6400 O   0  0  0  0  0  0  0  0  0  0  0  0
   55.4290   26.7030   45.9640 N   0  0  0  0  0  0  0  0  0  0  0  0
   56.2760   27.6920   45.6340 C   0  0  0  0  0  0  0  0  0  0  0  0
   55.8560   28.9620   45.2450 O   0  0  0  0  0  0  0  0  0  0  0  0
   58.4110   30.5430   46.0610 C   0  0  0  0  0  0  0  0  0  0  0  0
   58.7100   30.5040   47.5300 C   0  0  0  0  0  0  0  0  0  0  0  0
   58.0260   31.6460   45.3130 C   0  0  0  0  0  0  0  0  0  0  0  0
   57.8220   33.0240   45.7950 C   0  0  0  0  0  0  0  0  0  0  0  0
   56.6610   33.3860   46.1220 O   0  0  0  0  0  0  0  0  0  0  0  0
   58.9250   33.9460   45.9140 N   0  0  0  0  0  0  0  0  0  0  0  0
   59.5790   34.4590   44.7060 C   0  0  0  0  0  0  0  0  0  0  0  0
   59.4520   34.2860   47.2430 C   0  0  0  0  0  0  0  0  0  0  0  0
   60.7200   33.5330   47.4920 C   0  0  0  0  0  0  0  0  0  0  0  0
   61.2210   32.4790   46.7510 C   0  0  0  0  0  0  0  0  0  0  0  0
   62.4510   32.1680   47.2030 N   0  0  0  0  0  0  0  0  0  0  0  0
   62.7290   32.9890   48.2050 N   0  0  0  0  0  0  0  0  0  0  0  0
   64.0120   33.0250   48.8920 C   0  0  0  0  0  0  0  0  0  0  0  0
   61.7120   33.8490   48.3960 C   0  0  0  0  0  0  0  0  0  0  0  0
   57.1393   33.0157   43.1705 H   0  0  0  0  0  0  0  0  0  0  0  0
   58.4457   32.2364   42.2152 H   0  0  0  0  0  0  0  0  0  0  0  0
   56.7921   31.5347   42.2152 H   0  0  0  0  0  0  0  0  0  0  0  0
   58.1680   29.3060   43.0620 H   0  0  0  0  0  0  0  0  0  0  0  0
   59.3932   27.6119   44.6824 H   0  0  0  0  0  0  0  0  0  0  0  0
   59.4274   28.0456   46.4333 H   0  0  0  0  0  0  0  0  0  0  0  0
   55.7660   29.7160   45.9140 H   0  0  0  0  0  0  0  0  0  0  0  0
   57.7757   30.6259   48.0977 H   0  0  0  0  0  0  0  0  0  0  0  0
   59.1706   29.5382   47.7849 H   0  0  0  0  0  0  0  0  0  0  0  0
   59.4030   31.3194   47.7849 H   0  0  0  0  0  0  0  0  0  0  0  0
   60.4148   35.1146   44.9918 H   0  0  0  0  0  0  0  0  0  0  0  0
   59.9607   33.6169   44.1100 H   0  0  0  0  0  0  0  0  0  0  0  0
   58.8521   35.0303   44.1100 H   0  0  0  0  0  0  0  0  0  0  0  0
   59.6533   35.3664   47.2908 H   0  0  0  0  0  0  0  0  0  0  0  0
   58.7108   34.0133   48.0087 H   0  0  0  0  0  0  0  0  0  0  0  0
   60.6987   31.9750   45.9245 H   0  0  0  0  0  0  0  0  0  0  0  0
   63.8459   33.0203   49.9794 H   0  0  0  0  0  0  0  0  0  0  0  0
   64.6049   32.1431   48.6079 H   0  0  0  0  0  0  0  0  0  0  0  0
   64.5546   33.9387   48.6079 H   0  0  0  0  0  0  0  0  0  0  0  0
   61.6781   34.6587   49.1398 H   0  0  0  0  0  0  0  0  0  0  0  0
  1  2  1  0
  2  3  1  0
  3  4  1  0
  4  5  1  0
  5  6  1  0
  6  7  1  0
  7  8  1  0
  8  9  2  0
  8 10  1  0
 10 11  1  0
 11 12  1  0
  4 13  2  0
 13 14  1  0
 13 15  1  0
 15 16  1  0
 16 17  2  0
 16 18  1  0
 18 19  1  0
 18 20  1  0
 20 21  1  0
 21 22  1  0
 22 23  2  0
 23 24  1  0
 24 25  1  0
 24 26  1  0
 15  2  2  0
 26 21  2  0
 11  6  2  0
  1 27  1  0
  1 28  1  0
  1 29  1  0
  3 30  1  0
  5 31  1  0
  5 32  1  0
 12 33  1  0
 14 34  1  0
 14 35  1  0
 14 36  1  0
 19 37  1  0
 19 38  1  0
 19 39  1  0
 20 40  1  0
 20 41  1  0
 22 42  1  0
 25 43  1  0
 25 44  1  0
 25 45  1  0
 26 46  1  0
M  CHG  2   7  -1  10  -1
M  END
>  <UniqueID>  (9) 
9

>  <SMILES>  (9) 
Cc1[nH]c(Cc2[n-]c(=O)[n-]c2O)c(C)c1C(=O)N(C)Cc1cnn(C)c1

>  <Energy>  (9) 
127.97801045597512

>  <Genealogy>  (9) 
Cc1[nH]c(Cc2[n-]c(=O)[n-]c2O)c(C)c1C(=O)N(C)Cc1cnn(C)c1 (protonated)
Cc1[nH]c(Cc2[n-]c(=O)[n-]c2O)c(C)c1C(=O)N(C)Cc1cnn(C)c1 (3D coordinates assigned)
Cc1[nH]c(Cc2[n-]c(=O)[n-]c2O)c(C)c1C(=O)N(C)Cc1cnn(C)c1 (optimized conformer: 127.97801045597512 kcal/mol)

>  <smiles>  (9) 
Cc1[nH]c(Cc2[nH]c(=O)[nH]c2O)c(C)c1C(=O)N(C)Cc1cnn(C)c1

>  <score_type>  (9) 
oracle

>  <origin>  (9) 
adg

>  <m_score__min__energy>  (9) 
-12.56

>  <m_primary>  (9) 
energy

$$$$
9:0
     RDKit          3D

 54 57  0  0  0  0  0  0  0  0999 V2000
   60.7575   29.2482   51.8586 H   0  0  0  0  0  0  0  0  0  0  0  0
   60.6680   29.8180   50.9220 C   0  0  0  0  0  0  0  0  0  0  0  0
   60.4090   31.1500   50.9620 N   0  0  0  0  0  0  0  0  0  0  0  0
   60.2840   31.8950   49.8280 C   0  0  0  0  0  0  0  0  0  0  0  0
   60.0510   33.1740   49.8840 N   0  0  0  0  0  0  0  0  0  0  0  0
   60.2760   34.1200   48.8260 C   0  0  0  0  0  0  0  0  0  0  0  0
   61.2320   34.9330   48.9400 O   0  0  0  0  0  0  0  0  0  0  0  0
   59.4630   34.1290   47.5850 C   0  0  0  0  0  0  0  0  0  0  0  0
   58.2330   33.4510   47.5420 C   0  0  0  0  0  0  0  0  0  0  0  0
   57.8777   32.9061   48.4290 H   0  0  0  0  0  0  0  0  0  0  0  0
   57.4580   33.4650   46.3780 C   0  0  0  0  0  0  0  0  0  0  0  0
   56.5002   32.9247   46.3496 H   0  0  0  0  0  0  0  0  0  0  0  0
   57.8980   34.1640   45.2510 C   0  0  0  0  0  0  0  0  0  0  0  0
   57.1450   34.1770   44.1250 F   0  0  0  0  0  0  0  0  0  0  0  0
   59.1130   34.8540   45.2880 C   0  0  0  0  0  0  0  0  0  0  0  0
   59.4585   35.4062   44.4016 H   0  0  0  0  0  0  0  0  0  0  0  0
   59.8900   34.8430   46.4510 C   0  0  0  0  0  0  0  0  0  0  0  0
   60.8405   35.3960   46.4789 H   0  0  0  0  0  0  0  0  0  0  0  0
   60.4440   31.2820   48.5800 C   0  0  0  0  0  0  0  0  0  0  0  0
   60.3631   31.8790   47.6596 H   0  0  0  0  0  0  0  0  0  0  0  0
   60.7070   29.9090   48.5030 C   0  0  0  0  0  0  0  0  0  0  0  0
   60.8520   29.3310   47.2310 O   0  0  0  0  0  0  0  0  0  0  0  0
   59.8640   28.5420   46.5660 C   0  0  1  0  0  0  0  0  0  0  0  0
   60.3110   28.0714   45.6779 H   0  0  0  0  0  0  0  0  0  0  0  0
   59.3530   27.4240   47.4940 C   0  0  0  0  0  0  0  0  0  0  0  0
   59.5227   27.7350   48.5354 H   0  0  0  0  0  0  0  0  0  0  0  0
   59.9074   26.5122   47.2272 H   0  0  0  0  0  0  0  0  0  0  0  0
   57.8520   27.0990   47.3230 C   0  0  0  0  0  0  0  0  0  0  0  0
   57.2830   27.7327   48.0191 H   0  0  0  0  0  0  0  0  0  0  0  0
   57.7423   26.0237   47.5273 H   0  0  0  0  0  0  0  0  0  0  0  0
   57.3190   27.3220   45.9530 N   0  0  2  0  0  0  0  0  0  0  0  0
   56.2800   27.3730   46.0960 H   0  0  0  0  0  0  0  0  0  0  0  0
   57.4760   26.1570   45.0370 C   0  0  0  0  0  0  0  0  0  0  0  0
   57.4807   26.5353   44.0041 H   0  0  0  0  0  0  0  0  0  0  0  0
   58.4145   25.6641   45.3307 H   0  0  0  0  0  0  0  0  0  0  0  0
   56.3940   25.0960   45.1430 C   0  0  0  0  0  0  0  0  0  0  0  0
   56.6380   23.7880   44.6830 C   0  0  0  0  0  0  0  0  0  0  0  0
   57.6155   23.5381   44.2447 H   0  0  0  0  0  0  0  0  0  0  0  0
   55.6500   22.8040   44.7780 C   0  0  0  0  0  0  0  0  0  0  0  0
   55.8618   21.7788   44.4401 H   0  0  0  0  0  0  0  0  0  0  0  0
   54.3950   23.1200   45.3010 C   0  0  0  0  0  0  0  0  0  0  0  0
   53.6237   22.3407   45.3892 H   0  0  0  0  0  0  0  0  0  0  0  0
   54.1190   24.4250   45.7120 C   0  0  0  0  0  0  0  0  0  0  0  0
   53.1242   24.6755   46.1090 H   0  0  0  0  0  0  0  0  0  0  0  0
   55.1030   25.4160   45.6210 C   0  0  0  0  0  0  0  0  0  0  0  0
   54.7880   26.7140   46.0090 O   0  0  0  0  0  0  0  0  0  0  0  0
   57.6810   28.6340   45.3360 C   0  0  0  0  0  0  0  0  0  0  0  0
   56.7652   29.2363   45.2433 H   0  0  0  0  0  0  0  0  0  0  0  0
   58.1430   28.4098   44.3632 H   0  0  0  0  0  0  0  0  0  0  0  0
   58.7110   29.4430   46.1390 C   0  0  0  0  0  0  0  0  0  0  0  0
   58.2271   29.8635   47.0329 H   0  0  0  0  0  0  0  0  0  0  0  0
   59.1021   30.2556   45.5091 H   0  0  0  0  0  0  0  0  0  0  0  0
   60.8210   29.1700   49.6960 C   0  0  0  0  0  0  0  0  0  0  0  0
   61.0290   28.0904   49.6617 H   0  0  0  0  0  0  0  0  0  0  0  0
  1  2  1  0
  2  3  1  0
  3  4  1  0
  4  5  2  0
  5  6  1  0
  6  7  2  0
  6  8  1  0
  8  9  2  0
  9 10  1  0
  9 11  1  0
 11 12  1  0
 11 13  2  0
 13 14  1  0
 13 15  1  0
 15 16  1  0
 15 17  2  0
 17 18  1  0
  4 19  1  0
 19 20  1  0
 19 21  2  0
 21 22  1  0
 22 23  1  0
 23 24  1  6
 23 25  1  0
 25 26  1  0
 25 27  1  0
 25 28  1  0
 28 29  1  0
 28 30  1  0
 28 31  1  0
 31 32  1  1
 31 33  1  0
 33 34  1  0
 33 35  1  0
 33 36  1  0
 36 37  2  0
 37 38  1  0
 37 39  1  0
 39 40  1  0
 39 41  2  0
 41 42  1  0
 41 43  1  0
 43 44  1  0
 43 45  2  0
 45 46  1  0
 31 47  1  0
 47 48  1  0
 47 49  1  0
 47 50  1  0
 50 51  1  0
 50 52  1  0
 21 53  1  0
 53 54  1  0
 53  2  2  0
 17  8  1  0
 50 23  1  0
 45 36  1  0
M  CHG  3   3  -1  31   1  46  -1
M  END
>  <UniqueID>  (10) 
10

>  <SMILES>  (10) 
O=C(/N=c1/cc(OC2CC[NH+](Cc3ccccc3[O-])CC2)cc[n-]1)c1ccc(F)cc1

>  <Energy>  (10) 
81.39998588226995

>  <Genealogy>  (10) 
O=C(N=c1cc(OC2CC[NH+](Cc3ccccc3[O-])CC2)cc[n-]1)c1ccc(F)cc1 (protonated)
O=C(/N=c1/cc(OC2CC[NH+](Cc3ccccc3[O-])CC2)cc[n-]1)c1ccc(F)cc1 (cis-trans isomerization)
O=C(/N=c1/cc(OC2CC[NH+](Cc3ccccc3[O-])CC2)cc[n-]1)c1ccc(F)cc1 (3D coordinates assigned)
O=C(/N=c1/cc(OC2CC[NH+](Cc3ccccc3[O-])CC2)cc[n-]1)c1ccc(F)cc1 (nonaromatic ring conformer: 81.39998588226995 kcal/mol)

>  <smiles>  (10) 
O=C(N=c1cc(OC2CCN(Cc3ccccc3O)CC2)cc[nH]1)c1ccc(F)cc1

>  <score_type>  (10) 
oracle

>  <origin>  (10) 
adg

>  <m_score__min__energy>  (10) 
-12.109999999999999

>  <m_primary>  (10) 
energy

$$$$
10:0
     RDKit          3D

 36 38  0  0  0  0  0  0  0  0999 V2000
   59.0120   29.8300   44.1170 O   0  0  0  0  0  0  0  0  0  0  0  0
   57.9830   29.8180   44.8450 C   0  0  0  0  0  0  0  0  0  0  0  0
   57.3770   31.0560   45.2430 N   0  0  0  0  0  0  0  0  0  0  0  0
   57.9860   32.0980   46.0200 C   0  0  0  0  0  0  0  0  0  0  0  0
   57.9760   33.4410   45.6050 C   0  0  0  0  0  0  0  0  0  0  0  0
   58.5640   34.4270   46.4010 C   0  0  0  0  0  0  0  0  0  0  0  0
   59.1540   34.0860   47.6200 C   0  0  0  0  0  0  0  0  0  0  0  0
   59.1460   32.7540   48.0620 C   0  0  0  0  0  0  0  0  0  0  0  0
   59.8010   32.3790   49.3650 C   0  0  0  0  0  0  0  0  0  0  0  0
   58.7600   32.0140   50.3980 C   0  0  0  0  0  0  0  0  0  0  0  0
   58.3720   32.9330   51.3910 C   0  0  0  0  0  0  0  0  0  0  0  0
   58.9130   34.2150   51.4190 O   0  0  0  0  0  0  0  0  0  0  0  0
   57.4600   32.5720   52.3310 N   0  0  0  0  0  0  0  0  0  0  0  0
   56.9120   31.3310   52.3380 C   0  0  0  0  0  0  0  0  0  0  0  0
   56.0690   31.0210   53.2190 O   0  0  0  0  0  0  0  0  0  0  0  0
   57.2720   30.4240   51.3960 N   0  0  0  0  0  0  0  0  0  0  0  0
   58.1790   30.7320   50.4340 C   0  0  0  0  0  0  0  0  0  0  0  0
   58.4880   29.8600   49.5790 O   0  0  0  0  0  0  0  0  0  0  0  0
   58.5550   31.7670   47.2560 C   0  0  0  0  0  0  0  0  0  0  0  0
   57.4280   28.5310   45.3420 C   0  0  0  0  0  0  0  0  0  0  0  0
   58.2840   27.5680   45.9090 C   0  0  0  0  0  0  0  0  0  0  0  0
   57.7750   26.3570   46.3780 C   0  0  0  0  0  0  0  0  0  0  0  0
   56.4070   26.1070   46.2800 C   0  0  0  0  0  0  0  0  0  0  0  0
   55.9310   25.0190   46.6970 O   0  0  0  0  0  0  0  0  0  0  0  0
   55.5850   27.0390   45.7340 N   0  0  0  0  0  0  0  0  0  0  0  0
   56.0490   28.2300   45.2680 C   0  0  0  0  0  0  0  0  0  0  0  0
   55.1420   29.1310   44.7230 O   0  0  0  0  0  0  0  0  0  0  0  0
   57.5037   33.7164   44.6505 H   0  0  0  0  0  0  0  0  0  0  0  0
   58.5623   35.4750   46.0667 H   0  0  0  0  0  0  0  0  0  0  0  0
   59.6270   34.8647   48.2363 H   0  0  0  0  0  0  0  0  0  0  0  0
   60.4651   31.5176   49.2010 H   0  0  0  0  0  0  0  0  0  0  0  0
   60.3784   33.2402   49.7324 H   0  0  0  0  0  0  0  0  0  0  0  0
   58.3290   35.0230   51.5990 H   0  0  0  0  0  0  0  0  0  0  0  0
   58.5390   30.7222   47.5996 H   0  0  0  0  0  0  0  0  0  0  0  0
   59.3624   27.7720   45.9828 H   0  0  0  0  0  0  0  0  0  0  0  0
   58.4464   25.6066   46.8208 H   0  0  0  0  0  0  0  0  0  0  0  0
  1  2  2  0
  2  3  1  0
  3  4  1  0
  4  5  2  0
  5  6  1  0
  6  7  2  0
  7  8  1  0
  8  9  1  0
  9 10  1  0
 10 11  2  0
 11 12  1  0
 11 13  1  0
 13 14  1  0
 14 15  2  0
 14 16  1  0
 16 17  1  0
 17 18  2  0
  8 19  2  0
  2 20  1  0
 20 21  1  0
 21 22  2  0
 22 23  1  0
 23 24  2  0
 23 25  1  0
 25 26  1  0
 26 27  1  0
 19  4  1  0
 26 20  2  0
 17 10  1  0
  5 28  1  0
  6 29  1  0
  7 30  1  0
  9 31  1  0
  9 32  1  0
 12 33  1  0
 19 34  1  0
 21 35  1  0
 22 36  1  0
M  CHG  5   3  -1  13  -1  16  -1  25  -1  27  -1
M  END
>  <UniqueID>  (11) 
11

>  <SMILES>  (11) 
O=C([N-]c1cccc(Cc2c(O)[n-]c(=O)[n-]c2=O)c1)c1ccc(=O)[n-]c1[O-]

>  <Energy>  (11) 
46.87796341447509

>  <Genealogy>  (11) 
O=C([N-]c1cccc(Cc2c(O)[n-]c(=O)[n-]c2=O)c1)c1ccc(=O)[n-]c1[O-] (protonated)
O=C([N-]c1cccc(Cc2c(O)[n-]c(=O)[n-]c2=O)c1)c1ccc(=O)[n-]c1[O-] (3D coordinates assigned)
O=C([N-]c1cccc(Cc2c(O)[n-]c(=O)[n-]c2=O)c1)c1ccc(=O)[n-]c1[O-] (optimized conformer: 46.87796341447509 kcal/mol)

>  <smiles>  (11) 
O=C(Nc1cccc(Cc2c(O)[nH]c(=O)[nH]c2=O)c1)c1ccc(=O)[nH]c1O

>  <score_type>  (11) 
oracle

>  <origin>  (11) 
adg

>  <m_score__min__energy>  (11) 
-16.829999999999998

>  <m_primary>  (11) 
energy

$$$$
11:0
     RDKit          3D

 55 58  0  0  0  0  0  0  0  0999 V2000
   58.9480   36.3390   47.5430 H   0  0  0  0  0  0  0  0  0  0  0  0
   58.8970   35.3510   47.7500 O   0  0  0  0  0  0  0  0  0  0  0  0
   60.0230   34.5240   47.7870 C   0  0  0  0  0  0  0  0  0  0  0  0
   60.6230   34.2720   49.0270 C   0  0  0  0  0  0  0  0  0  0  0  0
   60.2100   34.7352   49.9352 H   0  0  0  0  0  0  0  0  0  0  0  0
   61.7480   33.4330   49.1240 C   0  0  0  0  0  0  0  0  0  0  0  0
   62.3770   33.1450   50.3450 O   0  0  0  0  0  0  0  0  0  0  0  0
   61.9250   32.1800   51.2960 C   0  0  0  0  0  0  0  0  0  0  0  0
   62.2462   31.1775   50.9769 H   0  0  0  0  0  0  0  0  0  0  0  0
   62.3557   32.4174   52.2800 H   0  0  0  0  0  0  0  0  0  0  0  0
   60.4240   32.2120   51.3970 C   0  0  0  0  0  0  0  0  0  0  0  0
   59.6360   31.2280   50.7750 C   0  0  0  0  0  0  0  0  0  0  0  0
   60.1183   30.4093   50.2209 H   0  0  0  0  0  0  0  0  0  0  0  0
   58.2410   31.2860   50.8580 C   0  0  0  0  0  0  0  0  0  0  0  0
   57.6292   30.5144   50.3678 H   0  0  0  0  0  0  0  0  0  0  0  0
   57.6230   32.3230   51.5630 C   0  0  0  0  0  0  0  0  0  0  0  0
   56.5257   32.3683   51.6257 H   0  0  0  0  0  0  0  0  0  0  0  0
   58.4000   33.3020   52.1880 C   0  0  0  0  0  0  0  0  0  0  0  0
   57.9135   34.1171   52.7438 H   0  0  0  0  0  0  0  0  0  0  0  0
   59.7950   33.2470   52.1080 C   0  0  0  0  0  0  0  0  0  0  0  0
   60.4026   34.0181   52.6043 H   0  0  0  0  0  0  0  0  0  0  0  0
   62.2660   32.8530   47.9630 C   0  0  0  0  0  0  0  0  0  0  0  0
   63.1372   32.1846   48.0287 H   0  0  0  0  0  0  0  0  0  0  0  0
   61.6870   33.1150   46.7220 C   0  0  0  0  0  0  0  0  0  0  0  0
   62.1267   32.6782   45.8132 H   0  0  0  0  0  0  0  0  0  0  0  0
   60.5480   33.9310   46.6200 C   0  0  0  0  0  0  0  0  0  0  0  0
   59.9660   34.2240   45.2910 C   0  0  0  0  0  0  0  0  0  0  0  0
   60.6603   34.3295   44.4443 H   0  0  0  0  0  0  0  0  0  0  0  0
   58.6540   34.3710   45.0400 C   0  0  0  0  0  0  0  0  0  0  0  0
   58.3403   35.2846   44.5138 H   0  0  0  0  0  0  0  0  0  0  0  0
   57.5990   33.4080   45.4120 C   0  0  0  0  0  0  0  0  0  0  0  0
   56.6090   33.8230   46.0740 O   0  0  0  0  0  0  0  0  0  0  0  0
   57.7300   32.0150   45.0860 N   0  0  0  0  0  0  0  0  0  0  0  0
   58.3000   31.1090   45.8220 C   0  0  0  0  0  0  0  0  0  0  0  0
   58.2740   31.0970   47.1740 N   0  0  0  0  0  0  0  0  0  0  0  0
   58.9090   30.0060   47.6750 C   0  0  0  0  0  0  0  0  0  0  0  0
   59.0071   29.8197   48.7547 H   0  0  0  0  0  0  0  0  0  0  0  0
   59.4260   29.1420   46.7130 C   0  0  0  0  0  0  0  0  0  0  0  0
   60.1890   27.8850   46.9830 C   0  0  0  0  0  0  0  0  0  0  0  0
   61.1363   27.9086   46.4244 H   0  0  0  0  0  0  0  0  0  0  0  0
   60.3892   27.8131   48.0622 H   0  0  0  0  0  0  0  0  0  0  0  0
   59.3890   26.6850   46.5530 C   0  0  0  0  0  0  0  0  0  0  0  0
   60.0420   25.5030   46.1720 C   0  0  0  0  0  0  0  0  0  0  0  0
   61.1411   25.4579   46.1756 H   0  0  0  0  0  0  0  0  0  0  0  0
   59.3000   24.3830   45.7880 C   0  0  0  0  0  0  0  0  0  0  0  0
   59.8172   23.4624   45.4798 H   0  0  0  0  0  0  0  0  0  0  0  0
   57.9020   24.4280   45.7940 C   0  0  0  0  0  0  0  0  0  0  0  0
   57.3250   23.5418   45.4912 H   0  0  0  0  0  0  0  0  0  0  0  0
   57.2300   25.6000   46.1850 C   0  0  0  0  0  0  0  0  0  0  0  0
   55.7530   25.6530   46.1930 C   0  0  0  0  0  0  0  0  0  0  0  0
   55.1460   26.7420   46.0160 O   0  0  0  0  0  0  0  0  0  0  0  0
   55.0110   24.4980   46.4010 O   0  0  0  0  0  0  0  0  0  0  0  0
   57.9830   26.7250   46.5690 C   0  0  0  0  0  0  0  0  0  0  0  0
   57.4675   27.6441   46.8846 H   0  0  0  0  0  0  0  0  0  0  0  0
   59.0990   29.7740   45.1870 S   0  0  0  0  0  0  0  0  0  0  0  0
  1  2  1  0
  2  3  1  0
  3  4  2  0
  4  5  1  0
  4  6  1  0
  6  7  1  0
  7  8  1  0
  8  9  1  0
  8 10  1  0
  8 11  1  0
 11 12  2  0
 12 13  1  0
 12 14  1  0
 14 15  1  0
 14 16  2  0
 16 17  1  0
 16 18  1  0
 18 19  1  0
 18 20  2  0
 20 21  1  0
  6 22  2  0
 22 23  1  0
 22 24  1  0
 24 25  1  0
 24 26  2  0
 26 27  1  0
 27 28  1  0
 27 29  2  3
 29 30  1  0
 29 31  1  0
 31 32  2  0
 31 33  1  0
 33 34  2  0
 34 35  1  0
 35 36  1  0
 36 37  1  0
 36 38  2  0
 38 39  1  0
 39 40  1  0
 39 41  1  0
 39 42  1  0
 42 43  2  0
 43 44  1  0
 43 45  1  0
 45 46  1  0
 45 47  2  0
 47 48  1  0
 47 49  1  0
 49 50  1  0
 50 51  2  0
 50 52  1  0
 49 53  2  0
 53 54  1  0
 38 55  1  0
 26  3  1  0
 55 34  1  0
 20 11  1  0
 53 42  1  0
M  CHG  2  35  -1  52  -1
M  END
>  <UniqueID>  (12) 
12

>  <SMILES>  (12) 
O=C(C=Cc1ccc(OCc2ccccc2)cc1O)/N=c1\[n-]cc(Cc2cccc(C(=O)[O-])c2)s1

>  <Energy>  (12) 
98.35929373595101

>  <Genealogy>  (12) 
O=C(C=Cc1ccc(OCc2ccccc2)cc1O)N=c1[n-]cc(Cc2cccc(C(=O)[O-])c2)s1 (protonated)
O=C(C=Cc1ccc(OCc2ccccc2)cc1O)/N=c1\[n-]cc(Cc2cccc(C(=O)[O-])c2)s1 (cis-trans isomerization)
O=C(C=Cc1ccc(OCc2ccccc2)cc1O)/N=c1\[n-]cc(Cc2cccc(C(=O)[O-])c2)s1 (3D coordinates assigned)
O=C(C=Cc1ccc(OCc2ccccc2)cc1O)/N=c1\[n-]cc(Cc2cccc(C(=O)[O-])c2)s1 (optimized conformer: 98.35929373595101 kcal/mol)

>  <smiles>  (12) 
O=C(C=Cc1ccc(OCc2ccccc2)cc1O)N=c1[nH]cc(Cc2cccc(C(=O)O)c2)s1

>  <score_type>  (12) 
oracle

>  <origin>  (12) 
adg

>  <m_score__min__energy>  (12) 
-13.91

>  <m_primary>  (12) 
energy

$$$$
12:0
     RDKit          3D

 54 59  0  0  0  0  0  0  0  0999 V2000
   53.7325   32.1680   52.3795 H   0  0  0  0  0  0  0  0  0  0  0  0
   53.2980   31.2220   52.0240 C   0  0  0  0  0  0  0  0  0  0  0  0
   52.3540   31.2980   50.8920 C   0  0  0  0  0  0  0  0  0  0  0  0
   52.2590   30.4040   49.8910 N   0  0  0  0  0  0  0  0  0  0  0  0
   51.2020   30.8440   49.1740 C   0  0  0  0  0  0  0  0  0  0  0  0
   50.8010   30.2640   48.1320 O   0  0  0  0  0  0  0  0  0  0  0  0
   50.6040   31.9490   49.6690 N   0  0  0  0  0  0  0  0  0  0  0  0
   51.3390   32.2160   50.7610 C   0  0  0  0  0  0  0  0  0  0  0  0
   51.0840   33.2750   51.6210 O   0  0  0  0  0  0  0  0  0  0  0  0
   53.6730   30.0990   52.6580 C   0  0  0  0  0  0  0  0  0  0  0  0
   52.8100   29.2020   53.2820 C   0  0  0  0  0  0  0  0  0  0  0  0
   51.7147   29.2991   53.3116 H   0  0  0  0  0  0  0  0  0  0  0  0
   53.5140   28.1930   53.8470 N   0  0  0  0  0  0  0  0  0  0  0  0
   54.7940   28.4280   53.6050 N   0  0  0  0  0  0  0  0  0  0  0  0
   55.8840   27.7090   54.0020 C   0  0  0  0  0  0  0  0  0  0  0  0
   55.8010   26.5980   54.6770 N   0  0  0  0  0  0  0  0  0  0  0  0
   56.4670   25.3380   54.3640 C   0  0  0  0  0  0  0  0  0  0  0  0
   55.8385   25.0458   53.5098 H   0  0  0  0  0  0  0  0  0  0  0  0
   57.9550   25.3800   54.6560 C   0  0  0  0  0  0  0  0  0  0  0  0
   58.6584   24.8358   54.0086 H   0  0  0  0  0  0  0  0  0  0  0  0
   58.6992   26.1785   54.7927 H   0  0  0  0  0  0  0  0  0  0  0  0
   57.0180   24.6120   55.5770 C   0  0  0  0  0  0  0  0  0  0  0  0
   57.0437   23.5125   55.5956 H   0  0  0  0  0  0  0  0  0  0  0  0
   56.8035   24.6248   56.6558 H   0  0  0  0  0  0  0  0  0  0  0  0
   57.1150   28.1910   53.6740 N   0  0  0  0  0  0  0  0  0  0  0  0
   57.2530   29.3630   52.9820 C   0  0  0  0  0  0  0  0  0  0  0  0
   58.4270   29.8170   52.6530 N   0  0  0  0  0  0  0  0  0  0  0  0
   59.1950   29.4630   51.4890 C   0  0  0  0  0  0  0  0  0  0  0  0
   60.0620   28.3570   51.4760 C   0  0  0  0  0  0  0  0  0  0  0  0
   60.1451   27.7148   52.3652 H   0  0  0  0  0  0  0  0  0  0  0  0
   60.8180   28.0710   50.3380 C   0  0  0  0  0  0  0  0  0  0  0  0
   61.4865   27.1975   50.3297 H   0  0  0  0  0  0  0  0  0  0  0  0
   60.7290   28.8900   49.2090 C   0  0  0  0  0  0  0  0  0  0  0  0
   61.3254   28.6558   48.3149 H   0  0  0  0  0  0  0  0  0  0  0  0
   59.8810   30.0120   49.2100 C   0  0  0  0  0  0  0  0  0  0  0  0
   59.7860   30.9090   48.0310 C   0  0  0  0  0  0  0  0  0  0  0  0
   60.5190   30.6790   47.0310 O   0  0  0  0  0  0  0  0  0  0  0  0
   58.8720   32.0210   48.0130 N   0  0  0  0  0  0  0  0  0  0  0  0
   58.1790   32.1250   48.7850 H   0  0  0  0  0  0  0  0  0  0  0  0
   58.8020   32.9830   46.9450 C   0  0  0  0  0  0  0  0  0  0  0  0
   59.6890   34.0730   46.8790 C   0  0  0  0  0  0  0  0  0  0  0  0
   60.4707   34.1902   47.6440 H   0  0  0  0  0  0  0  0  0  0  0  0
   59.5810   35.0080   45.8450 C   0  0  0  0  0  0  0  0  0  0  0  0
   60.2848   35.8517   45.7917 H   0  0  0  0  0  0  0  0  0  0  0  0
   58.5800   34.8720   44.8790 C   0  0  0  0  0  0  0  0  0  0  0  0
   58.5005   35.6045   44.0623 H   0  0  0  0  0  0  0  0  0  0  0  0
   57.6810   33.8060   44.9510 C   0  0  0  0  0  0  0  0  0  0  0  0
   56.8896   33.7030   44.1939 H   0  0  0  0  0  0  0  0  0  0  0  0
   57.7850   32.8690   45.9840 C   0  0  0  0  0  0  0  0  0  0  0  0
   57.0663   32.0384   46.0438 H   0  0  0  0  0  0  0  0  0  0  0  0
   59.1350   30.3000   50.3670 C   0  0  0  0  0  0  0  0  0  0  0  0
   58.4956   31.1947   50.3914 H   0  0  0  0  0  0  0  0  0  0  0  0
   56.1460   30.0540   52.5910 N   0  0  0  0  0  0  0  0  0  0  0  0
   54.9260   29.5600   52.9040 C   0  0  0  0  0  0  0  0  0  0  0  0
  1  2  1  0
  2  3  1  0
  3  4  1  0
  4  5  1  0
  5  6  2  0
  5  7  1  0
  7  8  1  0
  8  9  1  0
  2 10  2  0
 10 11  1  0
 11 12  1  0
 11 13  2  0
 13 14  1  0
 14 15  1  0
 15 16  2  3
 16 17  1  0
 17 18  1  0
 17 19  1  0
 19 20  1  0
 19 21  1  0
 19 22  1  0
 22 23  1  0
 22 24  1  0
 15 25  1  0
 25 26  1  0
 26 27  2  0
 27 28  1  0
 28 29  2  0
 29 30  1  0
 29 31  1  0
 31 32  1  0
 31 33  2  0
 33 34  1  0
 33 35  1  0
 35 36  1  0
 36 37  2  0
 36 38  1  0
 38 39  1  0
 38 40  1  0
 40 41  2  0
 41 42  1  0
 41 43  1  0
 43 44  1  0
 43 45  2  0
 45 46  1  0
 45 47  1  0
 47 48  1  0
 47 49  2  0
 49 50  1  0
 35 51  2  0
 51 52  1  0
 26 53  1  0
 53 54  2  0
  8  3  2  0
 54 10  1  0
 54 14  1  0
 22 17  1  0
 51 28  1  0
 49 40  1  0
M  CHG  4   4  -1   7  -1   9  -1  25  -1
M  END
>  <UniqueID>  (13) 
13

>  <SMILES>  (13) 
O=C(Nc1ccccc1)c1cccc(/N=c2/nc3/c(=C\c4[n-]c(=O)[n-]c4[O-])cnn3c(=NC3CC3)[n-]2)c1

>  <Energy>  (13) 
415.1438418949279

>  <Genealogy>  (13) 
O=C(Nc1ccccc1)c1cccc(N=c2nc3c(=Cc4[n-]c(=O)[n-]c4[O-])cnn3c(=NC3CC3)[n-]2)c1 (protonated)
O=C(Nc1ccccc1)c1cccc(/N=c2/nc3/c(=C\c4[n-]c(=O)[n-]c4[O-])cnn3c(=NC3CC3)[n-]2)c1 (cis-trans isomerization)
O=C(Nc1ccccc1)c1cccc(/N=c2/nc3/c(=C\c4[n-]c(=O)[n-]c4[O-])cnn3c(=NC3CC3)[n-]2)c1 (3D coordinates assigned)
O=C(Nc1ccccc1)c1cccc(/N=c2/nc3/c(=C\c4[n-]c(=O)[n-]c4[O-])cnn3c(=NC3CC3)[n-]2)c1 (nonaromatic ring conformer: 415.1438418949279 kcal/mol)

>  <smiles>  (13) 
O=C(Nc1ccccc1)c1cccc(N=c2nc3c(=Cc4[nH]c(=O)[nH]c4O)cnn3c(=NC3CC3)[nH]2)c1

>  <score_type>  (13) 
oracle

>  <origin>  (13) 
adg

>  <m_score__min__energy>  (13) 
-19.949999999999999

>  <m_primary>  (13) 
energy

$$$$
13:0
     RDKit          3D

 62 65  0  0  0  0  0  0  0  0999 V2000
   59.2700   34.5590   45.1130 H   0  0  0  0  0  0  0  0  0  0  0  0
   59.9070   33.9350   45.5910 O   0  0  0  0  0  0  0  0  0  0  0  0
   59.8980   33.7610   46.9760 C   0  0  0  0  0  0  0  0  0  0  0  0
   60.9560   34.2900   47.7210 C   0  0  0  0  0  0  0  0  0  0  0  0
   61.7664   34.8296   47.2091 H   0  0  0  0  0  0  0  0  0  0  0  0
   60.9940   34.1400   49.1090 C   0  0  0  0  0  0  0  0  0  0  0  0
   61.8305   34.5646   49.6834 H   0  0  0  0  0  0  0  0  0  0  0  0
   59.9680   33.4490   49.7740 C   0  0  0  0  0  0  0  0  0  0  0  0
   59.9620   33.2480   51.1960 N   0  0  0  0  0  0  0  0  0  0  0  0
   58.5810   32.9900   52.2190 S   0  0  0  0  0  0  0  0  0  0  0  0
   59.0070   32.5290   53.5840 O   0  0  0  0  0  0  0  0  0  0  0  0
   57.8650   34.3030   52.3750 O   0  0  0  0  0  0  0  0  0  0  0  0
   57.4480   31.8130   51.4720 C   0  0  0  0  0  0  0  0  0  0  0  0
   57.0694   32.2516   50.5370 H   0  0  0  0  0  0  0  0  0  0  0  0
   58.1790   30.5090   51.1490 C   0  0  0  0  0  0  0  0  0  0  0  0
   58.4614   30.0053   52.0853 H   0  0  0  0  0  0  0  0  0  0  0  0
   57.5173   29.8527   50.5647 H   0  0  0  0  0  0  0  0  0  0  0  0
   59.0841   30.7311   50.5647 H   0  0  0  0  0  0  0  0  0  0  0  0
   56.2470   31.5430   52.3780 C   0  0  0  0  0  0  0  0  0  0  0  0
   56.5587   31.6131   53.4306 H   0  0  0  0  0  0  0  0  0  0  0  0
   55.4620   32.2871   52.1777 H   0  0  0  0  0  0  0  0  0  0  0  0
   55.8560   30.5345   52.1777 H   0  0  0  0  0  0  0  0  0  0  0  0
   58.9060   32.9210   49.0290 C   0  0  0  0  0  0  0  0  0  0  0  0
   58.1021   32.3740   49.5433 H   0  0  0  0  0  0  0  0  0  0  0  0
   58.8530   33.0800   47.6350 C   0  0  0  0  0  0  0  0  0  0  0  0
   57.7670   32.4380   46.8670 C   0  0  0  0  0  0  0  0  0  0  0  0
   56.7349   32.5833   47.2188 H   0  0  0  0  0  0  0  0  0  0  0  0
   57.9550   31.6860   45.7640 C   0  0  0  0  0  0  0  0  0  0  0  0
   58.8880   30.5380   45.7860 C   0  0  0  0  0  0  0  0  0  0  0  0
   59.6410   30.3350   46.7790 O   0  0  0  0  0  0  0  0  0  0  0  0
   58.9670   29.6600   44.5590 C   0  0  1  0  0  0  0  0  0  0  0  0
   59.5943   30.1824   43.8218 H   0  0  0  0  0  0  0  0  0  0  0  0
   59.6860   28.3130   44.8080 C   0  0  0  0  0  0  0  0  0  0  0  0
   60.4390   28.4660   45.5951 H   0  0  0  0  0  0  0  0  0  0  0  0
   60.1245   28.0103   43.8457 H   0  0  0  0  0  0  0  0  0  0  0  0
   58.7790   27.1900   45.2370 C   0  0  0  0  0  0  0  0  0  0  0  0
   58.5470   26.8460   46.4830 O   0  0  0  0  0  0  0  0  0  0  0  0
   57.7440   25.8090   46.4940 C   0  0  0  0  0  0  0  0  0  0  0  0
   57.3260   25.2410   47.6280 C   0  0  0  0  0  0  0  0  0  0  0  0
   56.6523   24.3722   47.5922 H   0  0  0  0  0  0  0  0  0  0  0  0
   57.6553   25.6420   48.5979 H   0  0  0  0  0  0  0  0  0  0  0  0
   57.4340   25.4350   45.1820 C   0  0  0  0  0  0  0  0  0  0  0  0
   56.6590   24.3990   44.7980 C   0  0  0  0  0  0  0  0  0  0  0  0
   57.1474   23.5863   44.2404 H   0  0  0  0  0  0  0  0  0  0  0  0
   55.2080   24.2610   45.0620 C   0  0  0  0  0  0  0  0  0  0  0  0
   54.4590   23.1730   44.8090 N   0  0  0  0  0  0  0  0  0  0  0  0
   53.2250   23.5350   45.2210 C   0  0  0  0  0  0  0  0  0  0  0  0
   52.2330   22.7650   45.1470 O   0  0  0  0  0  0  0  0  0  0  0  0
   53.1390   24.7880   45.7160 N   0  0  0  0  0  0  0  0  0  0  0  0
   54.4000   25.2330   45.6060 C   0  0  0  0  0  0  0  0  0  0  0  0
   54.8060   26.5030   46.0000 O   0  0  0  0  0  0  0  0  0  0  0  0
   58.1120   26.3400   44.3760 C   0  0  0  0  0  0  0  0  0  0  0  0
   58.1170   26.3733   43.2765 H   0  0  0  0  0  0  0  0  0  0  0  0
   57.5540   29.4610   43.9680 C   0  0  0  0  0  0  0  0  0  0  0  0
   57.6494   28.9162   43.0172 H   0  0  0  0  0  0  0  0  0  0  0  0
   56.9697   28.9045   44.7156 H   0  0  0  0  0  0  0  0  0  0  0  0
   56.7960   30.7860   43.6980 C   0  0  0  0  0  0  0  0  0  0  0  0
   56.8184   30.9762   42.6148 H   0  0  0  0  0  0  0  0  0  0  0  0
   55.7814   30.6442   44.0985 H   0  0  0  0  0  0  0  0  0  0  0  0
   57.3680   32.0270   44.4120 C   0  0  0  0  0  0  0  0  0  0  0  0
   58.1569   32.4657   43.7833 H   0  0  0  0  0  0  0  0  0  0  0  0
   56.5428   32.7369   44.5704 H   0  0  0  0  0  0  0  0  0  0  0  0
  1  2  1  0
  2  3  1  0
  3  4  2  0
  4  5  1  0
  4  6  1  0
  6  7  1  0
  6  8  2  0
  8  9  1  0
  9 10  1  0
 10 11  2  0
 10 12  2  0
 10 13  1  0
 13 14  1  0
 13 15  1  0
 15 16  1  0
 15 17  1  0
 15 18  1  0
 13 19  1  0
 19 20  1  0
 19 21  1  0
 19 22  1  0
  8 23  1  0
 23 24  1  0
 23 25  2  0
 25 26  1  0
 26 27  1  0
 26 28  2  3
 28 29  1  0
 29 30  2  0
 29 31  1  0
 31 32  1  6
 31 33  1  0
 33 34  1  0
 33 35  1  0
 33 36  1  0
 36 37  1  0
 37 38  1  0
 38 39  2  0
 39 40  1  0
 39 41  1  0
 38 42  1  0
 42 43  2  0
 43 44  1  0
 43 45  1  0
 45 46  1  0
 46 47  1  0
 47 48  2  0
 47 49  1  0
 49 50  1  0
 50 51  1  0
 42 52  1  0
 52 53  1  0
 31 54  1  0
 54 55  1  0
 54 56  1  0
 54 57  1  0
 57 58  1  0
 57 59  1  0
 57 60  1  0
 60 61  1  0
 60 62  1  0
 25  3  1  0
 60 28  1  0
 52 36  2  0
 50 45  2  0
M  CHG  4   9  -1  46  -1  49  -1  51  -1
M  END
>  <UniqueID>  (14) 
14

>  <SMILES>  (14) 
C=c1oc(C[C@H]2CCCC(=Cc3cc([N-]S(=O)(=O)C(C)C)ccc3O)C2=O)c/c1=C\c1[n-]c(=O)[n-]c1[O-]

>  <Energy>  (14) 
134.44704903499803

>  <Genealogy>  (14) 
C=c1oc(CC2CCCC(=Cc3cc([N-]S(=O)(=O)C(C)C)ccc3O)C2=O)cc1=Cc1[n-]c(=O)[n-]c1[O-] (protonated)
C=c1oc(C[C@H]2CCCC(=Cc3cc([N-]S(=O)(=O)C(C)C)ccc3O)C2=O)cc1=Cc1[n-]c(=O)[n-]c1[O-] (chirality)
C=c1oc(C[C@H]2CCCC(=Cc3cc([N-]S(=O)(=O)C(C)C)ccc3O)C2=O)c/c1=C\c1[n-]c(=O)[n-]c1[O-] (cis-trans isomerization)
C=c1oc(C[C@H]2CCCC(=Cc3cc([N-]S(=O)(=O)C(C)C)ccc3O)C2=O)c/c1=C\c1[n-]c(=O)[n-]c1[O-] (3D coordinates assigned)
C=c1oc(C[C@H]2CCCC(=Cc3cc([N-]S(=O)(=O)C(C)C)ccc3O)C2=O)c/c1=C\c1[n-]c(=O)[n-]c1[O-] (nonaromatic ring conformer: 134.44704903499803 kcal/mol)

>  <smiles>  (14) 
C=c1oc(CC2CCCC(=Cc3cc(NS(=O)(=O)C(C)C)ccc3O)C2=O)cc1=Cc1[nH]c(=O)[nH]c1O

>  <score_type>  (14) 
oracle

>  <origin>  (14) 
adg

>  <m_score__min__energy>  (14) 
-21.559999999999999

>  <m_primary>  (14) 
energy

$$$$
14:0
     RDKit          3D

 39 41  0  0  0  0  0  0  0  0999 V2000
   54.5633   27.8996   54.5117 H   0  0  0  0  0  0  0  0  0  0  0  0
   54.0710   28.7780   54.0690 C   0  0  0  0  0  0  0  0  0  0  0  0
   53.0471   29.0446   54.3700 H   0  0  0  0  0  0  0  0  0  0  0  0
   54.7200   29.5250   53.1610 C   0  0  0  0  0  0  0  0  0  0  0  0
   54.2260   30.6680   52.5120 C   0  0  0  0  0  0  0  0  0  0  0  0
   52.9860   31.1950   52.4610 C   0  0  0  0  0  0  0  0  0  0  0  0
   52.5972   31.6525   53.3827 H   0  0  0  0  0  0  0  0  0  0  0  0
   52.1070   31.2120   51.2810 C   0  0  0  0  0  0  0  0  0  0  0  0
   52.1280   30.2970   50.2940 N   0  0  0  0  0  0  0  0  0  0  0  0
   51.2670   30.7990   49.3830 C   0  0  0  0  0  0  0  0  0  0  0  0
   51.0010   30.2090   48.3050 O   0  0  0  0  0  0  0  0  0  0  0  0
   50.7220   31.9890   49.7150 N   0  0  0  0  0  0  0  0  0  0  0  0
   51.2760   32.2420   50.9120 C   0  0  0  0  0  0  0  0  0  0  0  0
   51.0320   33.3930   51.6490 O   0  0  0  0  0  0  0  0  0  0  0  0
   55.2940   31.2160   51.8290 C   0  0  0  0  0  0  0  0  0  0  0  0
   55.2879   32.1518   51.2508 H   0  0  0  0  0  0  0  0  0  0  0  0
   56.3700   30.3710   52.0070 C   0  0  0  0  0  0  0  0  0  0  0  0
   57.6730   30.5710   51.3350 C   0  0  0  0  0  0  0  0  0  0  0  0
   58.2270   29.5940   50.7620 O   0  0  0  0  0  0  0  0  0  0  0  0
   58.3370   31.8380   51.3800 N   0  0  0  0  0  0  0  0  0  0  0  0
   59.5200   32.1590   50.5930 C   0  0  0  0  0  0  0  0  0  0  0  0
   60.1529   32.8595   51.1575 H   0  0  0  0  0  0  0  0  0  0  0  0
   60.0764   31.2327   50.3870 H   0  0  0  0  0  0  0  0  0  0  0  0
   59.1220   32.7880   49.2960 C   0  0  0  0  0  0  0  0  0  0  0  0
   58.1500   32.3470   48.5310 O   0  0  0  0  0  0  0  0  0  0  0  0
   58.0790   33.1100   47.4650 C   0  0  0  0  0  0  0  0  0  0  0  0
   57.3577   32.9857   46.6439 H   0  0  0  0  0  0  0  0  0  0  0  0
   59.0470   34.0920   47.5310 C   0  0  0  0  0  0  0  0  0  0  0  0
   59.2394   34.8809   46.7890 H   0  0  0  0  0  0  0  0  0  0  0  0
   59.7240   33.8850   48.7140 C   0  0  0  0  0  0  0  0  0  0  0  0
   60.5664   34.4708   49.1104 H   0  0  0  0  0  0  0  0  0  0  0  0
   56.0310   29.3470   52.8340 N   0  0  0  0  0  0  0  0  0  0  0  0
   56.9300   28.2980   53.3440 C   0  0  0  0  0  0  0  0  0  0  0  0
   56.3329   27.5209   53.8436 H   0  0  0  0  0  0  0  0  0  0  0  0
   57.4861   27.8644   52.4997 H   0  0  0  0  0  0  0  0  0  0  0  0
   57.9240   28.8850   54.3400 C   0  0  0  0  0  0  0  0  0  0  0  0
   57.5797   28.6817   55.3647 H   0  0  0  0  0  0  0  0  0  0  0  0
   58.9114   28.4251   54.1869 H   0  0  0  0  0  0  0  0  0  0  0  0
   57.9980   29.9718   54.1869 H   0  0  0  0  0  0  0  0  0  0  0  0
  1  2  1  0
  2  3  1  0
  2  4  2  0
  4  5  1  0
  5  6  2  0
  6  7  1  0
  6  8  1  0
  8  9  1  0
  9 10  1  0
 10 11  2  0
 10 12  1  0
 12 13  1  0
 13 14  1  0
  5 15  1  0
 15 16  1  0
 15 17  2  0
 17 18  1  0
 18 19  2  0
 18 20  1  0
 20 21  1  0
 21 22  1  0
 21 23  1  0
 21 24  1  0
 24 25  1  0
 25 26  1  0
 26 27  1  0
 26 28  2  0
 28 29  1  0
 28 30  1  0
 30 31  1  0
 17 32  1  0
 32 33  1  0
 33 34  1  0
 33 35  1  0
 33 36  1  0
 36 37  1  0
 36 38  1  0
 36 39  1  0
 32  4  1  0
 13  8  2  0
 30 24  2  0
M  CHG  4   9  -1  12  -1  14  -1  20  -1
M  END
>  <UniqueID>  (15) 
15

>  <SMILES>  (15) 
C=c1/c(=C\c2[n-]c(=O)[n-]c2[O-])cc(C(=O)[N-]Cc2ccco2)n1CC

>  <Energy>  (15) 
133.5143085858816

>  <Genealogy>  (15) 
C=c1c(=Cc2[n-]c(=O)[n-]c2[O-])cc(C(=O)[N-]Cc2ccco2)n1CC (protonated)
C=c1/c(=C\c2[n-]c(=O)[n-]c2[O-])cc(C(=O)[N-]Cc2ccco2)n1CC (cis-trans isomerization)
C=c1/c(=C\c2[n-]c(=O)[n-]c2[O-])cc(C(=O)[N-]Cc2ccco2)n1CC (3D coordinates assigned)
C=c1/c(=C\c2[n-]c(=O)[n-]c2[O-])cc(C(=O)[N-]Cc2ccco2)n1CC (optimized conformer: 133.5143085858816 kcal/mol)

>  <smiles>  (15) 
C=c1c(=Cc2[nH]c(=O)[nH]c2O)cc(C(=O)NCc2ccco2)n1CC

>  <score_type>  (15) 
oracle

>  <origin>  (15) 
adg

>  <m_score__min__energy>  (15) 
-16.850000000000001

>  <m_primary>  (15) 
energy

$$$$
15:0
     RDKit          3D

 47 51  0  0  0  0  0  0  0  0999 V2000
   63.2150   30.9920   52.2720 C   0  0  0  0  0  0  0  0  0  0  0  0
   63.8940   31.5730   51.0780 C   0  0  0  0  0  0  0  0  0  0  0  0
   65.2280   31.5370   50.8610 N   0  0  0  0  0  0  0  0  0  0  0  0
   65.4500   32.1010   49.7030 O   0  0  0  0  0  0  0  0  0  0  0  0
   64.3240   32.5000   49.1580 C   0  0  0  0  0  0  0  0  0  0  0  0
   63.2970   32.1770   49.9950 C   0  0  0  0  0  0  0  0  0  0  0  0
   61.9260   32.4860   49.6360 C   0  0  0  0  0  0  0  0  0  0  0  0
   60.7920   32.0740   50.2260 N   0  0  0  0  0  0  0  0  0  0  0  0
   59.7940   32.5580   49.4970 N   0  0  0  0  0  0  0  0  0  0  0  0
   58.3900   32.3250   49.8200 C   0  0  0  0  0  0  0  0  0  0  0  0
   60.2810   33.2700   48.4460 C   0  0  0  0  0  0  0  0  0  0  0  0
   59.4640   33.9340   47.4090 C   0  0  0  0  0  0  0  0  0  0  0  0
   59.6700   35.1470   47.1400 O   0  0  0  0  0  0  0  0  0  0  0  0
   58.4410   33.2100   46.7100 N   0  0  0  0  0  0  0  0  0  0  0  0
   57.4510   33.8680   45.8610 C   0  0  0  0  0  0  0  0  0  0  0  0
   57.3470   33.1640   44.5060 C   0  0  0  0  0  0  0  0  0  0  0  0
   57.2320   31.6860   44.7000 C   0  0  0  0  0  0  0  0  0  0  0  0
   58.2560   30.8940   45.0700 N   0  0  0  0  0  0  0  0  0  0  0  0
   57.6430   29.6940   45.1490 C   0  0  0  0  0  0  0  0  0  0  0  0
   58.3490   28.4220   45.5060 C   0  0  0  0  0  0  0  0  0  0  0  0
   59.3640   28.5760   46.6260 C   0  0  0  0  0  0  0  0  0  0  0  0
   59.8390   28.4020   45.1980 C   0  0  0  0  0  0  0  0  0  0  0  0
   56.3380   29.7570   44.8300 N   0  0  0  0  0  0  0  0  0  0  0  0
   56.1210   31.0080   44.5630 O   0  0  0  0  0  0  0  0  0  0  0  0
   61.6640   33.2190   48.5090 C   0  0  0  0  0  0  0  0  0  0  0  0
   62.7480   33.8450   47.6530 C   0  0  0  0  0  0  0  0  0  0  0  0
   64.1260   33.1190   47.7930 C   0  0  0  0  0  0  0  0  0  0  0  0
   63.6789   31.3890   53.1870 H   0  0  0  0  0  0  0  0  0  0  0  0
   62.1487   31.2617   52.2548 H   0  0  0  0  0  0  0  0  0  0  0  0
   63.3166   29.8968   52.2548 H   0  0  0  0  0  0  0  0  0  0  0  0
   58.2637   32.3040   50.9125 H   0  0  0  0  0  0  0  0  0  0  0  0
   57.7770   33.1337   49.3955 H   0  0  0  0  0  0  0  0  0  0  0  0
   58.0711   31.3616   49.3955 H   0  0  0  0  0  0  0  0  0  0  0  0
   58.3770   32.1750   46.8220 H   0  0  0  0  0  0  0  0  0  0  0  0
   56.4709   33.8383   46.3595 H   0  0  0  0  0  0  0  0  0  0  0  0
   57.7635   34.9096   45.6953 H   0  0  0  0  0  0  0  0  0  0  0  0
   56.4574   33.5309   43.9731 H   0  0  0  0  0  0  0  0  0  0  0  0
   58.2518   33.3798   43.9188 H   0  0  0  0  0  0  0  0  0  0  0  0
   57.5051   27.7493   45.2933 H   0  0  0  0  0  0  0  0  0  0  0  0
   59.4829   29.5464   47.1302 H   0  0  0  0  0  0  0  0  0  0  0  0
   59.5559   28.0575   47.5770 H   0  0  0  0  0  0  0  0  0  0  0  0
   60.3019   29.2461   44.6658 H   0  0  0  0  0  0  0  0  0  0  0  0
   60.5174   27.7054   44.6836 H   0  0  0  0  0  0  0  0  0  0  0  0
   62.4332   33.8013   46.5999 H   0  0  0  0  0  0  0  0  0  0  0  0
   62.8835   34.8814   47.9959 H   0  0  0  0  0  0  0  0  0  0  0  0
   64.1836   32.3243   47.0346 H   0  0  0  0  0  0  0  0  0  0  0  0
   64.9144   33.8732   47.6530 H   0  0  0  0  0  0  0  0  0  0  0  0
  1  2  1  0
  2  3  2  0
  3  4  1  0
  4  5  1  0
  5  6  2  0
  6  7  1  0
  7  8  2  0
  8  9  1  0
  9 10  1  0
  9 11  1  0
 11 12  1  0
 12 13  2  0
 12 14  1  0
 14 15  1  0
 15 16  1  0
 16 17  1  0
 17 18  2  0
 18 19  1  0
 19 20  1  0
 20 21  1  0
 21 22  1  0
 19 23  2  0
 23 24  1  0
 11 25  2  0
 25 26  1  0
 26 27  1  0
  6  2  1  0
 25  7  1  0
 27  5  1  0
 24 17  1  0
 22 20  1  0
  1 28  1  0
  1 29  1  0
  1 30  1  0
 10 31  1  0
 10 32  1  0
 10 33  1  0
 14 34  1  0
 15 35  1  0
 15 36  1  0
 16 37  1  0
 16 38  1  0
 20 39  1  0
 21 40  1  0
 21 41  1  0
 22 42  1  0
 22 43  1  0
 26 44  1  0
 26 45  1  0
 27 46  1  0
 27 47  1  0
M  END
>  <UniqueID>  (16) 
16

>  <SMILES>  (16) 
Cc1noc2c1-c1nn(C)c(C(=O)NCCc3nc(C4CC4)no3)c1CC2

>  <Energy>  (16) 
415.74546320653684

>  <Genealogy>  (16) 
Cc1noc2c1-c1nn(C)c(C(=O)NCCc3nc(C4CC4)no3)c1CC2 (3D coordinates assigned)
Cc1noc2c1-c1nn(C)c(C(=O)NCCc3nc(C4CC4)no3)c1CC2 (nonaromatic ring conformer: 415.74546320653684 kcal/mol)

>  <smiles>  (16) 
Cc1noc2c1-c1nn(C)c(C(=O)NCCc3nc(C4CC4)no3)c1CC2

>  <score_type>  (16) 
oracle

>  <origin>  (16) 
adg

>  <m_score__min__energy>  (16) 
-8.1799999999999997

>  <m_primary>  (16) 
energy

$$$$
16:0
     RDKit          3D

 56 59  0  0  0  0  0  0  0  0999 V2000
   54.8080   26.3360   46.0130 N   0  0  0  0  0  0  0  0  0  0  0  0
   56.0990   26.4020   46.0510 C   0  0  0  0  0  0  0  0  0  0  0  0
   56.8830   25.4320   46.5770 N   0  0  0  0  0  0  0  0  0  0  0  0
   58.1200   25.8250   46.4200 O   0  0  0  0  0  0  0  0  0  0  0  0
   58.1600   26.9920   45.8170 C   0  0  0  0  0  0  0  0  0  0  0  0
   59.2720   27.7510   45.4640 C   0  0  0  0  0  0  0  0  0  0  0  0
   59.0460   28.9860   44.8260 C   0  0  0  0  0  0  0  0  0  0  0  0
   57.7280   29.4300   44.5550 C   0  0  0  0  0  0  0  0  0  0  0  0
   57.4690   30.9910   43.7810 S   0  0  0  0  0  0  0  0  0  0  0  0
   56.6480   30.8280   42.5330 O   0  0  0  0  0  0  0  0  0  0  0  0
   58.7910   31.5900   43.3970 O   0  0  0  0  0  0  0  0  0  0  0  0
   56.6650   32.0610   44.8800 N   0  0  0  0  0  0  0  0  0  0  0  0
   57.3240   33.1810   45.4850 C   0  0  0  0  0  0  0  0  0  0  0  0
   56.7750   34.3160   45.4580 O   0  0  0  0  0  0  0  0  0  0  0  0
   58.6390   32.9980   46.0490 N   0  0  0  0  0  0  0  0  0  0  0  0
   59.4840   34.2070   46.0370 C   0  0  0  0  0  0  0  0  0  0  0  0
   60.6830   34.0590   46.9460 C   0  0  0  0  0  0  0  0  0  0  0  0
   61.9790   34.0230   46.4050 C   0  0  0  0  0  0  0  0  0  0  0  0
   63.0570   33.8820   47.2200 N   0  0  0  0  0  0  0  0  0  0  0  0
   62.9260   33.7570   48.5660 C   0  0  0  0  0  0  0  0  0  0  0  0
   61.6580   33.7670   49.1600 C   0  0  0  0  0  0  0  0  0  0  0  0
   61.5750   33.6080   50.5520 O   0  0  0  0  0  0  0  0  0  0  0  0
   61.0140   32.4800   51.2220 C   0  0  0  0  0  0  0  0  0  0  0  0
   61.6870   31.1810   50.7860 C   0  0  0  0  0  0  0  0  0  0  0  0
   60.9630   30.6020   49.6310 N   0  0  0  0  0  0  0  0  0  0  0  0
   59.5980   31.1490   49.5230 C   0  0  0  0  0  0  0  0  0  0  0  0
   58.8950   30.5480   48.2990 C   0  0  0  0  0  0  0  0  0  0  0  0
   59.6210   30.8340   47.1180 O   0  0  0  0  0  0  0  0  0  0  0  0
   60.9020   30.2420   47.1930 C   0  0  0  0  0  0  0  0  0  0  0  0
   61.6930   30.8150   48.3690 C   0  0  0  0  0  0  0  0  0  0  0  0
   60.5290   33.9250   48.3360 C   0  0  0  0  0  0  0  0  0  0  0  0
   56.6230   28.6320   44.9270 C   0  0  0  0  0  0  0  0  0  0  0  0
   56.8880   27.4150   45.5540 C   0  0  0  0  0  0  0  0  0  0  0  0
   54.2050   26.9880   46.5680 H   0  0  0  0  0  0  0  0  0  0  0  0
   60.2922   27.3984   45.6760 H   0  0  0  0  0  0  0  0  0  0  0  0
   59.9019   29.6127   44.5349 H   0  0  0  0  0  0  0  0  0  0  0  0
   59.1200   32.2450   45.5050 H   0  0  0  0  0  0  0  0  0  0  0  0
   58.5340   32.6470   47.0320 H   0  0  0  0  0  0  0  0  0  0  0  0
   59.8350   34.3867   45.0101 H   0  0  0  0  0  0  0  0  0  0  0  0
   58.8801   35.0516   46.4001 H   0  0  0  0  0  0  0  0  0  0  0  0
   62.1216   34.1093   45.3177 H   0  0  0  0  0  0  0  0  0  0  0  0
   63.8224   33.6471   49.1940 H   0  0  0  0  0  0  0  0  0  0  0  0
   61.1472   32.6054   52.3067 H   0  0  0  0  0  0  0  0  0  0  0  0
   59.9464   32.4201   50.9639 H   0  0  0  0  0  0  0  0  0  0  0  0
   62.7280   31.3884   50.4973 H   0  0  0  0  0  0  0  0  0  0  0  0
   61.6686   30.4652   51.6211 H   0  0  0  0  0  0  0  0  0  0  0  0
   59.0303   30.8971   50.4309 H   0  0  0  0  0  0  0  0  0  0  0  0
   59.6515   32.2421   49.4119 H   0  0  0  0  0  0  0  0  0  0  0  0
   58.8217   29.4575   48.4233 H   0  0  0  0  0  0  0  0  0  0  0  0
   57.8910   30.9893   48.2141 H   0  0  0  0  0  0  0  0  0  0  0  0
   60.7908   29.1559   47.3274 H   0  0  0  0  0  0  0  0  0  0  0  0
   61.4465   30.4571   46.2617 H   0  0  0  0  0  0  0  0  0  0  0  0
   62.6706   30.3141   48.4267 H   0  0  0  0  0  0  0  0  0  0  0  0
   61.8306   31.8953   48.2141 H   0  0  0  0  0  0  0  0  0  0  0  0
   59.5232   33.9437   48.7810 H   0  0  0  0  0  0  0  0  0  0  0  0
   55.5914   28.9588   44.7293 H   0  0  0  0  0  0  0  0  0  0  0  0
  1  2  2  3
  2  3  1  0
  3  4  1  0
  4  5  1  0
  5  6  2  0
  6  7  1  0
  7  8  2  0
  8  9  1  0
  9 10  2  0
  9 11  2  0
  9 12  1  0
 12 13  1  0
 13 14  2  0
 13 15  1  0
 15 16  1  0
 16 17  1  0
 17 18  2  0
 18 19  1  0
 19 20  2  0
 20 21  1  0
 21 22  1  0
 22 23  1  0
 23 24  1  0
 24 25  1  0
 25 26  1  0
 26 27  1  0
 27 28  1  0
 28 29  1  0
 29 30  1  0
 21 31  2  0
  8 32  1  0
 32 33  2  0
 33  2  1  0
 33  5  1  0
 31 17  1  0
 30 25  1  0
  1 34  1  0
  6 35  1  0
  7 36  1  0
 15 37  1  0
 15 38  1  0
 16 39  1  0
 16 40  1  0
 18 41  1  0
 20 42  1  0
 23 43  1  0
 23 44  1  0
 24 45  1  0
 24 46  1  0
 26 47  1  0
 26 48  1  0
 27 49  1  0
 27 50  1  0
 29 51  1  0
 29 52  1  0
 30 53  1  0
 30 54  1  0
 31 55  1  0
 32 56  1  0
M  CHG  3   3  -1  12  -1  15   1
M  END
>  <UniqueID>  (17) 
17

>  <SMILES>  (17) 
N=c1[n-]oc2ccc(S(=O)(=O)[N-]C(=O)[NH2+]Cc3cncc(OCCN4CCOCC4)c3)cc12

>  <Energy>  (17) 
107.3915729866985

>  <Genealogy>  (17) 
N=c1[n-]oc2ccc(S(=O)(=O)[N-]C(=O)[NH2+]Cc3cncc(OCCN4CCOCC4)c3)cc12 (protonated)
N=c1[n-]oc2ccc(S(=O)(=O)[N-]C(=O)[NH2+]Cc3cncc(OCCN4CCOCC4)c3)cc12 (3D coordinates assigned)
N=c1[n-]oc2ccc(S(=O)(=O)[N-]C(=O)[NH2+]Cc3cncc(OCCN4CCOCC4)c3)cc12 (nonaromatic ring conformer: 107.3915729866985 kcal/mol)

>  <smiles>  (17) 
N=c1[nH]oc2ccc(S(=O)(=O)NC(=O)NCc3cncc(OCCN4CCOCC4)c3)cc12

>  <score_type>  (17) 
oracle

>  <origin>  (17) 
adg

>  <m_score__min__energy>  (17) 
-11.140000000000001

>  <m_primary>  (17) 
energy

$$$$
17:0
     RDKit          3D

 28 29  0  0  0  0  0  0  0  0999 V2000
   59.6530   35.5180   46.5210 O   0  0  0  0  0  0  0  0  0  0  0  0
   58.9660   34.9150   45.6560 C   0  0  0  0  0  0  0  0  0  0  0  0
   58.8980   33.4410   45.6270 C   0  0  0  0  0  0  0  0  0  0  0  0
   59.7370   32.6950   46.4670 C   0  0  0  0  0  0  0  0  0  0  0  0
   59.6930   31.2980   46.4580 C   0  0  0  0  0  0  0  0  0  0  0  0
   58.8050   30.6260   45.6050 C   0  0  0  0  0  0  0  0  0  0  0  0
   58.7520   29.2240   45.5900 C   0  0  0  0  0  0  0  0  0  0  0  0
   57.8650   28.5560   44.7300 C   0  0  0  0  0  0  0  0  0  0  0  0
   57.7900   27.0500   44.7430 C   0  0  0  0  0  0  0  0  0  0  0  0
   57.5260   26.5050   46.1520 C   0  0  0  0  0  0  0  0  0  0  0  0
   56.1220   26.0020   46.2960 C   0  0  0  0  0  0  0  0  0  0  0  0
   55.1510   26.7240   45.9460 O   0  0  0  0  0  0  0  0  0  0  0  0
   55.8840   24.7530   46.8560 O   0  0  0  0  0  0  0  0  0  0  0  0
   57.0180   29.3010   43.8950 C   0  0  0  0  0  0  0  0  0  0  0  0
   57.0650   30.6980   43.9030 C   0  0  0  0  0  0  0  0  0  0  0  0
   57.9550   31.3700   44.7540 C   0  0  0  0  0  0  0  0  0  0  0  0
   58.0060   32.7720   44.7690 C   0  0  0  0  0  0  0  0  0  0  0  0
   58.4065   35.4967   44.9086 H   0  0  0  0  0  0  0  0  0  0  0  0
   60.4362   33.2139   47.1392 H   0  0  0  0  0  0  0  0  0  0  0  0
   60.3565   30.7240   47.1216 H   0  0  0  0  0  0  0  0  0  0  0  0
   59.4089   28.6447   46.2556 H   0  0  0  0  0  0  0  0  0  0  0  0
   56.9747   26.7284   44.0783 H   0  0  0  0  0  0  0  0  0  0  0  0
   58.7583   26.6565   44.4001 H   0  0  0  0  0  0  0  0  0  0  0  0
   58.2234   25.6780   46.3511 H   0  0  0  0  0  0  0  0  0  0  0  0
   57.6726   27.3249   46.8705 H   0  0  0  0  0  0  0  0  0  0  0  0
   56.3123   28.7820   43.2297 H   0  0  0  0  0  0  0  0  0  0  0  0
   56.4017   31.2725   43.2396 H   0  0  0  0  0  0  0  0  0  0  0  0
   57.3454   33.3509   44.1068 H   0  0  0  0  0  0  0  0  0  0  0  0
  1  2  2  0
  2  3  1  0
  3  4  2  0
  4  5  1  0
  5  6  2  0
  6  7  1  0
  7  8  2  0
  8  9  1  0
  9 10  1  0
 10 11  1  0
 11 12  2  0
 11 13  1  0
  8 14  1  0
 14 15  2  0
 15 16  1  0
 16 17  2  0
 17  3  1  0
 16  6  1  0
  2 18  1  0
  4 19  1  0
  5 20  1  0
  7 21  1  0
  9 22  1  0
  9 23  1  0
 10 24  1  0
 10 25  1  0
 14 26  1  0
 15 27  1  0
 17 28  1  0
M  CHG  1  13  -1
M  END
>  <UniqueID>  (18) 
18

>  <SMILES>  (18) 
O=Cc1ccc2cc(CCC(=O)[O-])ccc2c1

>  <Energy>  (18) 
27.844083601859186

>  <Genealogy>  (18) 
O=Cc1ccc2cc(CCC(=O)[O-])ccc2c1 (protonated)
O=Cc1ccc2cc(CCC(=O)[O-])ccc2c1 (3D coordinates assigned)
O=Cc1ccc2cc(CCC(=O)[O-])ccc2c1 (optimized conformer: 27.844083601859186 kcal/mol)

>  <smiles>  (18) 
O=Cc1ccc2cc(CCC(=O)O)ccc2c1

>  <score_type>  (18) 
oracle

>  <origin>  (18) 
adg

>  <m_score__min__energy>  (18) 
-9.6300000000000008

>  <m_primary>  (18) 
energy

$$$$
18:0
     RDKit          3D

 69 73  0  0  0  0  0  0  0  0999 V2000
   57.3280   30.1140   43.9250 O   0  0  0  0  0  0  0  0  0  0  0  0
   58.2260   30.8350   44.4430 C   0  0  0  0  0  0  0  0  0  0  0  0
   58.9310   30.3800   45.6060 N   0  0  0  0  0  0  0  0  0  0  0  0
   58.4650   29.2410   46.4010 C   0  0  1  0  0  0  0  0  0  0  0  0
   58.5340   27.9410   45.5760 C   0  0  0  0  0  0  0  0  0  0  0  0
   57.3500   27.0450   45.8130 C   0  0  0  0  0  0  0  0  0  0  0  0
   57.3780   25.7440   46.2650 C   0  0  0  0  0  0  0  0  0  0  0  0
   56.0560   25.3350   46.3360 C   0  0  0  0  0  0  0  0  0  0  0  0
   55.2190   26.3210   45.9530 N   0  0  0  0  0  0  0  0  0  0  0  0
   56.0170   27.3590   45.6420 C   0  0  0  0  0  0  0  0  0  0  0  0
   55.5320   28.5870   45.2150 O   0  0  0  0  0  0  0  0  0  0  0  0
   59.2480   29.1470   47.6920 C   0  0  0  0  0  0  0  0  0  0  0  0
   59.3340   28.0360   48.2890 O   0  0  0  0  0  0  0  0  0  0  0  0
   59.8840   30.2880   48.2750 N   0  0  0  0  0  0  0  0  0  0  0  0
   61.3300   30.3920   48.4600 C   0  0  2  0  0  0  0  0  0  0  0  0
   61.6400   30.6740   49.9350 C   0  0  0  0  0  0  0  0  0  0  0  0
   60.3880   30.6000   50.7630 C   0  0  0  0  0  0  0  0  0  0  0  0
   59.6320   29.4580   51.0160 C   0  0  0  0  0  0  0  0  0  0  0  0
   58.4910   29.7790   51.6670 N   0  0  0  0  0  0  0  0  0  0  0  0
   58.5100   31.1160   51.8130 C   0  0  0  0  0  0  0  0  0  0  0  0
   57.5320   31.9200   52.4000 C   0  0  0  0  0  0  0  0  0  0  0  0
   57.7460   33.3090   52.4180 C   0  0  0  0  0  0  0  0  0  0  0  0
   58.9180   33.8640   51.8520 C   0  0  0  0  0  0  0  0  0  0  0  0
   59.8850   33.0320   51.2620 C   0  0  0  0  0  0  0  0  0  0  0  0
   59.6500   31.6540   51.2680 C   0  0  0  0  0  0  0  0  0  0  0  0
   61.8860   31.4890   47.6020 C   0  0  0  0  0  0  0  0  0  0  0  0
   61.1540   32.0360   46.7400 O   0  0  0  0  0  0  0  0  0  0  0  0
   63.1990   32.0000   47.8690 N   0  0  0  0  0  0  0  0  0  0  0  0
   63.5680   32.7860   49.0110 C   0  0  0  0  0  0  0  0  0  0  0  0
   64.8030   32.5430   49.6290 C   0  0  0  0  0  0  0  0  0  0  0  0
   65.1790   33.2690   50.7660 C   0  0  0  0  0  0  0  0  0  0  0  0
   64.3280   34.2480   51.2840 C   0  0  0  0  0  0  0  0  0  0  0  0
   63.1150   34.5300   50.6470 C   0  0  0  0  0  0  0  0  0  0  0  0
   62.7290   33.8000   49.5170 C   0  0  0  0  0  0  0  0  0  0  0  0
   58.5250   32.0900   43.9030 O   0  0  0  0  0  0  0  0  0  0  0  0
   57.8850   33.2900   44.3380 C   0  0  0  0  0  0  0  0  0  0  0  0
   58.3990   33.6710   45.6970 C   0  0  0  0  0  0  0  0  0  0  0  0
   57.9490   32.9980   46.8480 C   0  0  0  0  0  0  0  0  0  0  0  0
   58.5060   33.2860   48.0980 C   0  0  0  0  0  0  0  0  0  0  0  0
   59.5260   34.2320   48.2060 C   0  0  0  0  0  0  0  0  0  0  0  0
   59.9770   34.9080   47.0660 C   0  0  0  0  0  0  0  0  0  0  0  0
   59.4070   34.6390   45.8180 C   0  0  0  0  0  0  0  0  0  0  0  0
   59.7700   30.9280   45.9160 H   0  0  0  0  0  0  0  0  0  0  0  0
   57.4096   29.3947   46.6702 H   0  0  0  0  0  0  0  0  0  0  0  0
   58.5704   28.2024   44.5081 H   0  0  0  0  0  0  0  0  0  0  0  0
   59.4353   27.3937   45.8894 H   0  0  0  0  0  0  0  0  0  0  0  0
   58.2688   25.1504   46.5181 H   0  0  0  0  0  0  0  0  0  0  0  0
   55.7313   24.3360   46.6623 H   0  0  0  0  0  0  0  0  0  0  0  0
   61.7986   29.4419   48.1638 H   0  0  0  0  0  0  0  0  0  0  0  0
   62.3605   29.9281   50.3018 H   0  0  0  0  0  0  0  0  0  0  0  0
   62.0624   31.6860   50.0211 H   0  0  0  0  0  0  0  0  0  0  0  0
   59.9225   28.4373   50.7266 H   0  0  0  0  0  0  0  0  0  0  0  0
   57.7370   29.1230   51.9700 H   0  0  0  0  0  0  0  0  0  0  0  0
   56.6222   31.4805   52.8349 H   0  0  0  0  0  0  0  0  0  0  0  0
   56.9958   33.9703   52.8761 H   0  0  0  0  0  0  0  0  0  0  0  0
   59.0732   34.9528   51.8739 H   0  0  0  0  0  0  0  0  0  0  0  0
   60.7963   33.4512   50.8106 H   0  0  0  0  0  0  0  0  0  0  0  0
   65.4795   31.7787   49.2189 H   0  0  0  0  0  0  0  0  0  0  0  0
   66.1454   33.0681   51.2516 H   0  0  0  0  0  0  0  0  0  0  0  0
   64.6119   34.7976   52.1936 H   0  0  0  0  0  0  0  0  0  0  0  0
   62.4634   35.3269   51.0349 H   0  0  0  0  0  0  0  0  0  0  0  0
   61.7704   34.0175   49.0233 H   0  0  0  0  0  0  0  0  0  0  0  0
   58.1008   34.0992   43.6249 H   0  0  0  0  0  0  0  0  0  0  0  0
   56.7986   33.1260   44.3911 H   0  0  0  0  0  0  0  0  0  0  0  0
   57.1549   32.2414   46.7641 H   0  0  0  0  0  0  0  0  0  0  0  0
   58.1400   32.7668   48.9960 H   0  0  0  0  0  0  0  0  0  0  0  0
   59.9757   34.4466   49.1867 H   0  0  0  0  0  0  0  0  0  0  0  0
   60.7819   35.6527   47.1524 H   0  0  0  0  0  0  0  0  0  0  0  0
   59.7499   35.1879   44.9286 H   0  0  0  0  0  0  0  0  0  0  0  0
  1  2  2  0
  2  3  1  0
  3  4  1  0
  4  5  1  0
  5  6  1  0
  6  7  1  0
  7  8  2  0
  8  9  1  0
  9 10  1  0
 10 11  1  0
  4 12  1  0
 12 13  2  0
 12 14  1  0
 14 15  1  0
 15 16  1  0
 16 17  1  0
 17 18  2  0
 18 19  1  0
 19 20  1  0
 20 21  2  0
 21 22  1  0
 22 23  2  0
 23 24  1  0
 24 25  2  0
 15 26  1  0
 26 27  2  0
 26 28  1  0
 28 29  1  0
 29 30  2  0
 30 31  1  0
 31 32  2  0
 32 33  1  0
 33 34  2  0
  2 35  1  0
 35 36  1  0
 36 37  1  0
 37 38  2  0
 38 39  1  0
 39 40  2  0
 40 41  1  0
 41 42  2  0
 10  6  2  0
 25 17  1  0
 34 29  1  0
 42 37  1  0
 25 20  1  0
  3 43  1  0
  4 44  1  1
  5 45  1  0
  5 46  1  0
  7 47  1  0
  8 48  1  0
 15 49  1  6
 16 50  1  0
 16 51  1  0
 18 52  1  0
 19 53  1  0
 21 54  1  0
 22 55  1  0
 23 56  1  0
 24 57  1  0
 30 58  1  0
 31 59  1  0
 32 60  1  0
 33 61  1  0
 34 62  1  0
 36 63  1  0
 36 64  1  0
 38 65  1  0
 39 66  1  0
 40 67  1  0
 41 68  1  0
 42 69  1  0
M  CHG  4   9  -1  11  -1  14  -1  28  -1
M  END
>  <UniqueID>  (19) 
19

>  <SMILES>  (19) 
O=C(N[C@@H](Cc1cc[n-]c1[O-])C(=O)[N-][C@H](Cc1c[nH]c2ccccc12)C(=O)[N-]c1ccccc1)OCc1ccccc1

>  <Energy>  (19) 
128.91587665883702

>  <Genealogy>  (19) 
O=C(NC(Cc1cc[n-]c1[O-])C(=O)[N-]C(Cc1c[nH]c2ccccc12)C(=O)[N-]c1ccccc1)OCc1ccccc1 (protonated)
O=C(N[C@@H](Cc1cc[n-]c1[O-])C(=O)[N-][C@H](Cc1c[nH]c2ccccc12)C(=O)[N-]c1ccccc1)OCc1ccccc1 (chirality)
O=C(N[C@@H](Cc1cc[n-]c1[O-])C(=O)[N-][C@H](Cc1c[nH]c2ccccc12)C(=O)[N-]c1ccccc1)OCc1ccccc1 (3D coordinates assigned)
O=C(N[C@@H](Cc1cc[n-]c1[O-])C(=O)[N-][C@H](Cc1c[nH]c2ccccc12)C(=O)[N-]c1ccccc1)OCc1ccccc1 (optimized conformer: 128.91587665883702 kcal/mol)

>  <smiles>  (19) 
O=C(NC(Cc1cc[nH]c1O)C(=O)NC(Cc1c[nH]c2ccccc12)C(=O)Nc1ccccc1)OCc1ccccc1

>  <score_type>  (19) 
oracle

>  <origin>  (19) 
adg

>  <m_score__min__energy>  (19) 
-18.420000000000002

>  <m_primary>  (19) 
energy

$$$$
19:0
     RDKit          3D

 43 45  0  0  0  0  0  0  0  0999 V2000
   58.7420   31.5310   49.3430 O   0  0  0  0  0  0  0  0  0  0  0  0
   58.9060   30.4810   48.6680 C   0  0  0  0  0  0  0  0  0  0  0  0
   59.3740   29.2250   49.3520 C   0  0  0  0  0  0  0  0  0  0  0  0
   60.5800   28.2630   48.3590 S   0  0  0  0  0  0  0  0  0  0  0  0
   59.3440   27.4140   47.3830 C   0  0  0  0  0  0  0  0  0  0  0  0
   59.5930   26.3150   46.6470 N   0  0  0  0  0  0  0  0  0  0  0  0
   58.4830   26.0680   45.9680 N   0  0  0  0  0  0  0  0  0  0  0  0
   57.6060   27.0260   46.3200 C   0  0  0  0  0  0  0  0  0  0  0  0
   56.2990   27.2530   45.6370 C   0  0  0  0  0  0  0  0  0  0  0  0
   55.3930   26.1710   46.0070 N   0  0  0  0  0  0  0  0  0  0  0  0
   55.8520   24.8480   46.3150 C   0  0  0  0  0  0  0  0  0  0  0  0
   55.8870   24.4750   47.5200 O   0  0  0  0  0  0  0  0  0  0  0  0
   56.2210   23.8980   45.2340 C   0  0  0  0  0  0  0  0  0  0  0  0
   55.4230   23.8170   44.0740 C   0  0  0  0  0  0  0  0  0  0  0  0
   55.7890   22.9860   43.0130 C   0  0  0  0  0  0  0  0  0  0  0  0
   56.9540   22.2240   43.0900 C   0  0  0  0  0  0  0  0  0  0  0  0
   57.7560   22.2900   44.2310 C   0  0  0  0  0  0  0  0  0  0  0  0
   57.3980   23.1190   45.3000 C   0  0  0  0  0  0  0  0  0  0  0  0
   58.2120   23.1590   46.3840 F   0  0  0  0  0  0  0  0  0  0  0  0
   58.1210   27.8460   47.2030 O   0  0  0  0  0  0  0  0  0  0  0  0
   58.7430   30.5140   47.2420 N   0  0  0  0  0  0  0  0  0  0  0  0
   58.5330   31.7430   46.5300 C   0  0  0  0  0  0  0  0  0  0  0  0
   59.1330   32.9230   47.0040 C   0  0  0  0  0  0  0  0  0  0  0  0
   58.9090   34.1410   46.3620 C   0  0  0  0  0  0  0  0  0  0  0  0
   58.0720   34.2000   45.2490 C   0  0  0  0  0  0  0  0  0  0  0  0
   57.4650   33.0390   44.7670 C   0  0  0  0  0  0  0  0  0  0  0  0
   57.6920   31.7960   45.3890 C   0  0  0  0  0  0  0  0  0  0  0  0
   57.0900   30.5770   44.7960 C   0  0  0  0  0  0  0  0  0  0  0  0
   57.7980   29.5550   44.5910 O   0  0  0  0  0  0  0  0  0  0  0  0
   55.7340   30.5220   44.4960 O   0  0  0  0  0  0  0  0  0  0  0  0
   59.8489   29.5026   50.3046 H   0  0  0  0  0  0  0  0  0  0  0  0
   58.4907   28.5862   49.4994 H   0  0  0  0  0  0  0  0  0  0  0  0
   55.8759   28.2172   45.9552 H   0  0  0  0  0  0  0  0  0  0  0  0
   56.4404   27.2718   44.5463 H   0  0  0  0  0  0  0  0  0  0  0  0
   54.5023   24.4149   44.0042 H   0  0  0  0  0  0  0  0  0  0  0  0
   55.1567   22.9325   42.1145 H   0  0  0  0  0  0  0  0  0  0  0  0
   57.2411   21.5713   42.2524 H   0  0  0  0  0  0  0  0  0  0  0  0
   58.6742   21.6871   44.2899 H   0  0  0  0  0  0  0  0  0  0  0  0
   58.9160   29.6420   46.6930 H   0  0  0  0  0  0  0  0  0  0  0  0
   59.7850   32.8853   47.8892 H   0  0  0  0  0  0  0  0  0  0  0  0
   59.3933   35.0557   46.7344 H   0  0  0  0  0  0  0  0  0  0  0  0
   57.8895   35.1630   44.7496 H   0  0  0  0  0  0  0  0  0  0  0  0
   56.8017   33.0956   43.8913 H   0  0  0  0  0  0  0  0  0  0  0  0
  1  2  2  0
  2  3  1  0
  3  4  1  0
  4  5  1  0
  5  6  2  0
  6  7  1  0
  7  8  2  0
  8  9  1  0
  9 10  1  0
 10 11  1  0
 11 12  2  0
 11 13  1  0
 13 14  2  0
 14 15  1  0
 15 16  2  0
 16 17  1  0
 17 18  2  0
 18 19  1  0
  8 20  1  0
  2 21  1  0
 21 22  1  0
 22 23  2  0
 23 24  1  0
 24 25  2  0
 25 26  1  0
 26 27  2  0
 27 28  1  0
 28 29  2  0
 28 30  1  0
 20  5  1  0
 27 22  1  0
 18 13  1  0
  3 31  1  0
  3 32  1  0
  9 33  1  0
  9 34  1  0
 14 35  1  0
 15 36  1  0
 16 37  1  0
 17 38  1  0
 21 39  1  0
 23 40  1  0
 24 41  1  0
 25 42  1  0
 26 43  1  0
M  CHG  2  10  -1  30  -1
M  END
>  <UniqueID>  (20) 
20

>  <SMILES>  (20) 
O=C(CSc1nnc(C[N-]C(=O)c2ccccc2F)o1)Nc1ccccc1C(=O)[O-]

>  <Energy>  (20) 
83.66107264115857

>  <Genealogy>  (20) 
O=C(CSc1nnc(C[N-]C(=O)c2ccccc2F)o1)Nc1ccccc1C(=O)[O-] (protonated)
O=C(CSc1nnc(C[N-]C(=O)c2ccccc2F)o1)Nc1ccccc1C(=O)[O-] (3D coordinates assigned)
O=C(CSc1nnc(C[N-]C(=O)c2ccccc2F)o1)Nc1ccccc1C(=O)[O-] (optimized conformer: 83.66107264115857 kcal/mol)

>  <smiles>  (20) 
O=C(CSc1nnc(CNC(=O)c2ccccc2F)o1)Nc1ccccc1C(=O)O

>  <score_type>  (20) 
oracle

>  <origin>  (20) 
adg

>  <m_score__min__energy>  (20) 
-13.25

>  <m_primary>  (20) 
energy

$$$$
20:0
     RDKit          3D

 63 66  0  0  0  0  0  0  0  0999 V2000
   63.7135   31.0238   49.3270 H   0  0  0  0  0  0  0  0  0  0  0  0
   63.2040   31.6950   48.6200 C   0  0  0  0  0  0  0  0  0  0  0  0
   61.9580   31.3440   48.0860 C   0  0  0  0  0  0  0  0  0  0  0  0
   61.3420   30.1000   48.4660 N   0  0  0  0  0  0  0  0  0  0  0  0
   61.8910   29.4420   49.0670 H   0  0  0  0  0  0  0  0  0  0  0  0
   60.0410   29.6730   48.0310 C   0  0  0  0  0  0  0  0  0  0  0  0
   59.3830   30.3590   47.1990 O   0  0  0  0  0  0  0  0  0  0  0  0
   59.4880   28.3600   48.5080 C   0  0  0  0  0  0  0  0  0  0  0  0
   58.6718   28.5542   49.2194 H   0  0  0  0  0  0  0  0  0  0  0  0
   60.3031   27.7982   48.9875 H   0  0  0  0  0  0  0  0  0  0  0  0
   58.9550   27.5330   47.3670 C   0  0  0  0  0  0  0  0  0  0  0  0
   57.8330   27.9670   46.6450 C   0  0  0  0  0  0  0  0  0  0  0  0
   57.3412   28.9136   46.9134 H   0  0  0  0  0  0  0  0  0  0  0  0
   57.3380   27.2010   45.5860 C   0  0  0  0  0  0  0  0  0  0  0  0
   56.4538   27.5453   45.0296 H   0  0  0  0  0  0  0  0  0  0  0  0
   57.9620   25.9940   45.2270 C   0  0  0  0  0  0  0  0  0  0  0  0
   57.4640   25.1970   44.0840 C   0  0  0  0  0  0  0  0  0  0  0  0
   57.4290   25.7300   42.9420 O   0  0  0  0  0  0  0  0  0  0  0  0
   57.0080   23.8380   44.2470 N   0  0  0  0  0  0  0  0  0  0  0  0
   56.4360   23.3780   45.5220 C   0  0  0  0  0  0  0  0  0  0  0  0
   56.0193   24.2390   46.0653 H   0  0  0  0  0  0  0  0  0  0  0  0
   57.2276   22.9042   46.1211 H   0  0  0  0  0  0  0  0  0  0  0  0
   55.3230   22.3550   45.2630 C   0  0  0  0  0  0  0  0  0  0  0  0
   54.4961   22.8622   44.7443 H   0  0  0  0  0  0  0  0  0  0  0  0
   55.0149   21.9538   46.2398 H   0  0  0  0  0  0  0  0  0  0  0  0
   55.7650   21.2050   44.4340 N   0  0  0  0  0  0  0  0  0  0  0  0
   56.0280   20.0170   45.2650 C   0  0  0  0  0  0  0  0  0  0  0  0
   55.9670   20.2924   46.3282 H   0  0  0  0  0  0  0  0  0  0  0  0
   55.2797   19.2417   45.0436 H   0  0  0  0  0  0  0  0  0  0  0  0
   57.0336   19.6300   45.0436 H   0  0  0  0  0  0  0  0  0  0  0  0
   56.9260   21.4860   43.5500 C   0  0  0  0  0  0  0  0  0  0  0  0
   56.8624   20.8350   42.6656 H   0  0  0  0  0  0  0  0  0  0  0  0
   57.8420   21.2928   44.1276 H   0  0  0  0  0  0  0  0  0  0  0  0
   56.9660   22.9450   43.0850 C   0  0  0  0  0  0  0  0  0  0  0  0
   56.0670   23.1629   42.4898 H   0  0  0  0  0  0  0  0  0  0  0  0
   57.8654   23.1053   42.4723 H   0  0  0  0  0  0  0  0  0  0  0  0
   59.0550   25.5390   45.9810 C   0  0  0  0  0  0  0  0  0  0  0  0
   59.5250   24.5752   45.7355 H   0  0  0  0  0  0  0  0  0  0  0  0
   59.5500   26.3030   47.0420 C   0  0  0  0  0  0  0  0  0  0  0  0
   60.4091   25.9392   47.6247 H   0  0  0  0  0  0  0  0  0  0  0  0
   61.3410   32.1930   47.2170 N   0  0  0  0  0  0  0  0  0  0  0  0
   61.8870   33.3790   46.8300 C   0  0  0  0  0  0  0  0  0  0  0  0
   61.2080   34.1200   45.9980 N   0  0  0  0  0  0  0  0  0  0  0  0
   59.9550   34.7970   46.1930 C   0  0  0  0  0  0  0  0  0  0  0  0
   59.6990   35.4090   47.2660 O   0  0  0  0  0  0  0  0  0  0  0  0
   58.9700   34.8560   45.0630 C   0  0  0  0  0  0  0  0  0  0  0  0
   58.1153   35.4751   45.3731 H   0  0  0  0  0  0  0  0  0  0  0  0
   59.4882   35.2847   44.1926 H   0  0  0  0  0  0  0  0  0  0  0  0
   58.4570   33.4870   44.6620 C   0  0  0  0  0  0  0  0  0  0  0  0
   58.4420   33.1140   43.3010 C   0  0  0  0  0  0  0  0  0  0  0  0
   58.8307   33.8090   42.5422 H   0  0  0  0  0  0  0  0  0  0  0  0
   57.9390   31.8720   42.9070 C   0  0  0  0  0  0  0  0  0  0  0  0
   57.9568   31.5837   41.8456 H   0  0  0  0  0  0  0  0  0  0  0  0
   57.4130   30.9950   43.8600 C   0  0  0  0  0  0  0  0  0  0  0  0
   56.7610   29.4430   43.3620 Cl  0  0  0  0  0  0  0  0  0  0  0  0
   57.3840   31.3620   45.2070 C   0  0  0  0  0  0  0  0  0  0  0  0
   56.9578   30.6742   45.9522 H   0  0  0  0  0  0  0  0  0  0  0  0
   57.8950   32.6020   45.6150 C   0  0  0  0  0  0  0  0  0  0  0  0
   57.7840   33.0070   47.3270 Cl  0  0  0  0  0  0  0  0  0  0  0  0
   63.1410   33.7530   47.3530 C   0  0  0  0  0  0  0  0  0  0  0  0
   63.6024   34.7072   47.0588 H   0  0  0  0  0  0  0  0  0  0  0  0
   63.7930   32.9020   48.2480 C   0  0  0  0  0  0  0  0  0  0  0  0
   64.7729   33.1848   48.6600 H   0  0  0  0  0  0  0  0  0  0  0  0
  1  2  1  0
  2  3  2  0
  3  4  1  0
  4  5  1  0
  4  6  1  0
  6  7  2  0
  6  8  1  0
  8  9  1  0
  8 10  1  0
  8 11  1  0
 11 12  2  0
 12 13  1  0
 12 14  1  0
 14 15  1  0
 14 16  2  0
 16 17  1  0
 17 18  2  0
 17 19  1  0
 19 20  1  0
 20 21  1  0
 20 22  1  0
 20 23  1  0
 23 24  1  0
 23 25  1  0
 23 26  1  0
 26 27  1  0
 27 28  1  0
 27 29  1  0
 27 30  1  0
 26 31  1  0
 31 32  1  0
 31 33  1  0
 31 34  1  0
 34 35  1  0
 34 36  1  0
 16 37  1  0
 37 38  1  0
 37 39  2  0
 39 40  1  0
  3 41  1  0
 41 42  1  0
 42 43  2  0
 43 44  1  0
 44 45  2  0
 44 46  1  0
 46 47  1  0
 46 48  1  0
 46 49  1  0
 49 50  2  0
 50 51  1  0
 50 52  1  0
 52 53  1  0
 52 54  2  0
 54 55  1  0
 54 56  1  0
 56 57  1  0
 56 58  2  0
 58 59  1  0
 42 60  1  0
 60 61  1  0
 60 62  2  0
 62 63  1  0
 62  2  1  0
 39 11  1  0
 58 49  1  0
 34 19  1  0
M  CHG  1  41  -1
M  END
>  <UniqueID>  (21) 
21

>  <SMILES>  (21) 
CN1CCN(C(=O)c2ccc(CC(=O)Nc3ccc/c(=N\C(=O)Cc4ccc(Cl)cc4Cl)[n-]3)cc2)CC1

>  <Energy>  (21) 
86.94435361347617

>  <Genealogy>  (21) 
CN1CCN(C(=O)c2ccc(CC(=O)Nc3cccc(=NC(=O)Cc4ccc(Cl)cc4Cl)[n-]3)cc2)CC1 (protonated)
CN1CCN(C(=O)c2ccc(CC(=O)Nc3ccc/c(=N\C(=O)Cc4ccc(Cl)cc4Cl)[n-]3)cc2)CC1 (cis-trans isomerization)
CN1CCN(C(=O)c2ccc(CC(=O)Nc3ccc/c(=N\C(=O)Cc4ccc(Cl)cc4Cl)[n-]3)cc2)CC1 (3D coordinates assigned)
CN1CCN(C(=O)c2ccc(CC(=O)Nc3ccc/c(=N\C(=O)Cc4ccc(Cl)cc4Cl)[n-]3)cc2)CC1 (nonaromatic ring conformer: 86.94435361347617 kcal/mol)

>  <smiles>  (21) 
CN1CCN(C(=O)c2ccc(CC(=O)Nc3cccc(=NC(=O)Cc4ccc(Cl)cc4Cl)[nH]3)cc2)CC1

>  <score_type>  (21) 
oracle

>  <origin>  (21) 
adg

>  <m_score__min__energy>  (21) 
-12.279999999999999

>  <m_primary>  (21) 
energy

$$$$
21:0
     RDKit          3D

 46 48  0  0  0  0  0  0  0  0999 V2000
   56.1024   31.0569   42.6326 H   0  0  0  0  0  0  0  0  0  0  0  0
   56.0640   30.0600   43.0960 C   0  0  0  0  0  0  0  0  0  0  0  0
   55.3867   29.2923   42.6938 H   0  0  0  0  0  0  0  0  0  0  0  0
   56.8390   29.7820   44.1460 C   0  0  0  0  0  0  0  0  0  0  0  0
   57.7160   30.6550   44.7700 C   0  0  0  0  0  0  0  0  0  0  0  0
   57.9930   32.0580   44.3900 C   0  0  0  0  0  0  0  0  0  0  0  0
   58.4850   32.2680   43.2480 O   0  0  0  0  0  0  0  0  0  0  0  0
   57.6410   33.1900   45.2330 N   0  0  0  0  0  0  0  0  0  0  0  0
   56.6430   33.4190   45.0070 H   0  0  0  0  0  0  0  0  0  0  0  0
   58.4160   34.4230   44.9320 C   0  0  0  0  0  0  0  0  0  0  0  0
   58.8282   34.3353   43.9159 H   0  0  0  0  0  0  0  0  0  0  0  0
   57.7231   35.2717   45.0305 H   0  0  0  0  0  0  0  0  0  0  0  0
   59.5800   34.6740   45.9100 C   0  0  0  0  0  0  0  0  0  0  0  0
   60.3946   35.1909   45.3816 H   0  0  0  0  0  0  0  0  0  0  0  0
   59.2228   35.2956   46.7443 H   0  0  0  0  0  0  0  0  0  0  0  0
   60.0750   33.4010   46.4370 N   0  0  0  0  0  0  0  0  0  0  0  0
   61.5760   33.6130   47.3060 S   0  0  0  0  0  0  0  0  0  0  0  0
   61.3460   34.5660   48.4450 O   0  0  0  0  0  0  0  0  0  0  0  0
   62.5930   34.2220   46.3800 O   0  0  0  0  0  0  0  0  0  0  0  0
   62.2310   32.0590   47.9260 C   0  0  0  0  0  0  0  0  0  0  0  0
   61.6976   31.7916   48.8501 H   0  0  0  0  0  0  0  0  0  0  0  0
   62.0862   31.2937   47.1492 H   0  0  0  0  0  0  0  0  0  0  0  0
   63.7240   32.1510   48.2270 C   0  0  0  0  0  0  0  0  0  0  0  0
   63.8786   32.1605   49.3160 H   0  0  0  0  0  0  0  0  0  0  0  0
   64.2401   31.2830   47.7910 H   0  0  0  0  0  0  0  0  0  0  0  0
   64.1296   33.0758   47.7910 H   0  0  0  0  0  0  0  0  0  0  0  0
   59.0660   32.7410   47.2800 C   0  0  0  0  0  0  0  0  0  0  0  0
   59.3368   31.6808   47.3927 H   0  0  0  0  0  0  0  0  0  0  0  0
   59.0493   33.2549   48.2525 H   0  0  0  0  0  0  0  0  0  0  0  0
   57.6470   32.8310   46.6700 C   0  0  0  0  0  0  0  0  0  0  0  0
   57.1558   31.8536   46.7863 H   0  0  0  0  0  0  0  0  0  0  0  0
   57.1162   33.6323   47.2049 H   0  0  0  0  0  0  0  0  0  0  0  0
   58.3060   29.9460   45.8010 C   0  0  0  0  0  0  0  0  0  0  0  0
   59.0735   30.3129   46.4984 H   0  0  0  0  0  0  0  0  0  0  0  0
   57.7390   28.6830   45.7810 C   0  0  0  0  0  0  0  0  0  0  0  0
   58.0470   27.7200   46.6700 C   0  0  0  0  0  0  0  0  0  0  0  0
   58.8845   27.9247   47.3531 H   0  0  0  0  0  0  0  0  0  0  0  0
   57.3690   26.4130   46.8180 C   0  0  0  0  0  0  0  0  0  0  0  0
   57.9220   25.2790   47.2830 N   0  0  0  0  0  0  0  0  0  0  0  0
   56.9110   24.3860   47.2250 C   0  0  0  0  0  0  0  0  0  0  0  0
   57.0450   23.1860   47.5830 O   0  0  0  0  0  0  0  0  0  0  0  0
   55.7480   24.8790   46.7530 N   0  0  0  0  0  0  0  0  0  0  0  0
   56.0550   26.1610   46.5010 C   0  0  0  0  0  0  0  0  0  0  0  0
   55.1500   27.0840   45.9900 O   0  0  0  0  0  0  0  0  0  0  0  0
   56.8480   28.5850   44.7670 N   0  0  0  0  0  0  0  0  0  0  0  0
   56.2620   27.7690   44.4930 H   0  0  0  0  0  0  0  0  0  0  0  0
  1  2  1  0
  2  3  1  0
  2  4  2  0
  4  5  1  0
  5  6  1  0
  6  7  2  0
  6  8  1  0
  8  9  1  0
  8 10  1  0
 10 11  1  0
 10 12  1  0
 10 13  1  0
 13 14  1  0
 13 15  1  0
 13 16  1  0
 16 17  1  0
 17 18  2  0
 17 19  2  0
 17 20  1  0
 20 21  1  0
 20 22  1  0
 20 23  1  0
 23 24  1  0
 23 25  1  0
 23 26  1  0
 16 27  1  0
 27 28  1  0
 27 29  1  0
 27 30  1  0
 30 31  1  0
 30 32  1  0
  5 33  2  0
 33 34  1  0
 33 35  1  0
 35 36  2  0
 36 37  1  0
 36 38  1  0
 38 39  1  0
 39 40  1  0
 40 41  2  0
 40 42  1  0
 42 43  1  0
 43 44  1  0
 35 45  1  0
 45 46  1  0
 45  4  1  0
 30  8  1  0
 43 38  2  0
M  CHG  4   8   1  39  -1  42  -1  44  -1
M  END
>  <UniqueID>  (22) 
22

>  <SMILES>  (22) 
C=c1[nH]/c(=C\c2[n-]c(=O)[n-]c2[O-])cc1C(=O)[NH+]1CCN(S(=O)(=O)CC)CC1

>  <Energy>  (22) 
117.53420245978734

>  <Genealogy>  (22) 
C=c1[nH]c(=Cc2[n-]c(=O)[n-]c2[O-])cc1C(=O)[NH+]1CCN(S(=O)(=O)CC)CC1 (protonated)
C=c1[nH]/c(=C\c2[n-]c(=O)[n-]c2[O-])cc1C(=O)[NH+]1CCN(S(=O)(=O)CC)CC1 (cis-trans isomerization)
C=c1[nH]/c(=C\c2[n-]c(=O)[n-]c2[O-])cc1C(=O)[NH+]1CCN(S(=O)(=O)CC)CC1 (3D coordinates assigned)
C=c1[nH]/c(=C\c2[n-]c(=O)[n-]c2[O-])cc1C(=O)[NH+]1CCN(S(=O)(=O)CC)CC1 (nonaromatic ring conformer: 117.53420245978734 kcal/mol)

>  <smiles>  (22) 
C=c1[nH]c(=Cc2[nH]c(=O)[nH]c2O)cc1C(=O)N1CCN(S(=O)(=O)CC)CC1

>  <score_type>  (22) 
oracle

>  <origin>  (22) 
adg

>  <m_score__min__energy>  (22) 
-15.789999999999999

>  <m_primary>  (22) 
energy

$$$$
22:0
     RDKit          3D

 33 35  0  0  0  0  0  0  0  0999 V2000
   64.5140   32.6290   47.1070 H   0  0  0  0  0  0  0  0  0  0  0  0
   64.1320   33.2960   47.7660 O   0  0  0  0  0  0  0  0  0  0  0  0
   62.7570   33.4900   47.8930 C   0  0  0  0  0  0  0  0  0  0  0  0
   62.2120   33.7510   49.1530 C   0  0  0  0  0  0  0  0  0  0  0  0
   62.8653   33.7880   50.0372 H   0  0  0  0  0  0  0  0  0  0  0  0
   60.8380   33.9650   49.2910 C   0  0  0  0  0  0  0  0  0  0  0  0
   60.4128   34.1803   50.2824 H   0  0  0  0  0  0  0  0  0  0  0  0
   60.0030   33.9060   48.1720 C   0  0  0  0  0  0  0  0  0  0  0  0
   58.9238   34.0857   48.2857 H   0  0  0  0  0  0  0  0  0  0  0  0
   60.5320   33.6190   46.9040 C   0  0  0  0  0  0  0  0  0  0  0  0
   59.6150   33.5850   45.7390 C   0  0  0  0  0  0  0  0  0  0  0  0
   59.6267   34.4420   45.0495 H   0  0  0  0  0  0  0  0  0  0  0  0
   58.7720   32.5760   45.4720 C   0  0  0  0  0  0  0  0  0  0  0  0
   59.0490   31.2700   45.6380 N   0  0  0  0  0  0  0  0  0  0  0  0
   57.9070   30.6330   45.2750 C   0  0  0  0  0  0  0  0  0  0  0  0
   57.7700   29.2880   45.2920 C   0  0  0  0  0  0  0  0  0  0  0  0
   58.8630   28.4470   44.9970 C   0  0  0  0  0  0  0  0  0  0  0  0
   59.8388   28.8905   44.7498 H   0  0  0  0  0  0  0  0  0  0  0  0
   58.7210   27.0580   45.0150 C   0  0  0  0  0  0  0  0  0  0  0  0
   59.5859   26.4194   44.7823 H   0  0  0  0  0  0  0  0  0  0  0  0
   57.4860   26.4680   45.3270 C   0  0  0  0  0  0  0  0  0  0  0  0
   57.3700   25.1330   45.3390 C   0  0  0  0  0  0  0  0  0  0  0  0
   56.4039   24.6670   45.5830 H   0  0  0  0  0  0  0  0  0  0  0  0
   58.2409   24.5031   45.1048 H   0  0  0  0  0  0  0  0  0  0  0  0
   56.3870   27.2990   45.6240 C   0  0  0  0  0  0  0  0  0  0  0  0
   55.1430   26.7580   45.9400 O   0  0  0  0  0  0  0  0  0  0  0  0
   56.5320   28.6910   45.6060 C   0  0  0  0  0  0  0  0  0  0  0  0
   55.6670   29.3288   45.8404 H   0  0  0  0  0  0  0  0  0  0  0  0
   56.9180   31.4790   44.8950 N   0  0  0  0  0  0  0  0  0  0  0  0
   57.4760   32.6920   45.0280 C   0  0  0  0  0  0  0  0  0  0  0  0
   56.8740   33.7690   44.7740 O   0  0  0  0  0  0  0  0  0  0  0  0
   61.9210   33.4300   46.7680 C   0  0  0  0  0  0  0  0  0  0  0  0
   62.3523   33.2344   45.7752 H   0  0  0  0  0  0  0  0  0  0  0  0
  1  2  1  0
  2  3  1  0
  3  4  2  0
  4  5  1  0
  4  6  1  0
  6  7  1  0
  6  8  2  0
  8  9  1  0
  8 10  1  0
 10 11  1  0
 11 12  1  0
 11 13  2  0
 13 14  1  0
 14 15  1  0
 15 16  2  3
 16 17  1  0
 17 18  1  0
 17 19  2  0
 19 20  1  0
 19 21  1  0
 21 22  2  0
 22 23  1  0
 22 24  1  0
 21 25  1  0
 25 26  1  0
 25 27  2  0
 27 28  1  0
 15 29  1  0
 29 30  1  0
 30 31  2  0
 10 32  2  0
 32 33  1  0
 32  3  1  0
 30 13  1  0
 27 16  1  0
M  CHG  3  14  -1  26  -1  29  -1
M  END
>  <UniqueID>  (23) 
23

>  <SMILES>  (23) 
C=c1ccc(=c2[n-]c(=O)/c(=C/c3cccc(O)c3)[n-]2)cc1[O-]

>  <Energy>  (23) 
75.38007082345709

>  <Genealogy>  (23) 
C=c1ccc(=c2[n-]c(=O)c(=Cc3cccc(O)c3)[n-]2)cc1[O-] (protonated)
C=c1ccc(=c2[n-]c(=O)/c(=C/c3cccc(O)c3)[n-]2)cc1[O-] (cis-trans isomerization)
C=c1ccc(=c2[n-]c(=O)/c(=C/c3cccc(O)c3)[n-]2)cc1[O-] (3D coordinates assigned)
C=c1ccc(=c2[n-]c(=O)/c(=C/c3cccc(O)c3)[n-]2)cc1[O-] (optimized conformer: 75.38007082345709 kcal/mol)

>  <smiles>  (23) 
C=c1ccc(=c2[nH]c(=O)c(=Cc3cccc(O)c3)[nH]2)cc1O

>  <score_type>  (23) 
oracle

>  <origin>  (23) 
adg

>  <m_score__min__energy>  (23) 
-12.82

>  <m_primary>  (23) 
energy

$$$$
23:0
     RDKit          3D

 57 59  0  0  0  0  0  0  0  0999 V2000
   57.4360   33.1020   44.4820 C   0  0  0  0  0  0  0  0  0  0  0  0
   57.3700   34.4980   45.1010 C   0  0  0  0  0  0  0  0  0  0  0  0
   58.2600   34.6060   46.2800 N   0  0  0  0  0  0  0  0  0  0  0  0
   59.6680   34.8980   45.8840 C   0  0  0  0  0  0  0  0  0  0  0  0
   60.5650   33.6580   45.9880 C   0  0  0  0  0  0  0  0  0  0  0  0
   60.6410   33.1920   47.3950 N   0  0  0  0  0  0  0  0  0  0  0  0
   61.2180   31.8600   47.5180 C   0  0  0  0  0  0  0  0  0  0  0  0
   62.7520   31.6970   48.0920 S   0  0  0  0  0  0  0  0  0  0  0  0
   60.5150   30.6880   47.0710 N   0  0  0  0  0  0  0  0  0  0  0  0
   60.3000   29.5400   47.9090 C   0  0  0  0  0  0  0  0  0  0  0  0
   60.7940   29.5070   49.0690 O   0  0  0  0  0  0  0  0  0  0  0  0
   59.5150   28.3790   47.4250 C   0  0  0  0  0  0  0  0  0  0  0  0
   58.2780   28.5820   46.7900 C   0  0  0  0  0  0  0  0  0  0  0  0
   57.5130   27.4930   46.3650 C   0  0  0  0  0  0  0  0  0  0  0  0
   57.9700   26.1820   46.5660 C   0  0  0  0  0  0  0  0  0  0  0  0
   56.9690   24.8070   46.0990 S   0  0  0  0  0  0  0  0  0  0  0  0
   57.0700   23.7420   47.1550 O   0  0  0  0  0  0  0  0  0  0  0  0
   55.5320   25.2430   46.0200 O   0  0  0  0  0  0  0  0  0  0  0  0
   57.4480   24.1500   44.5470 N   0  0  0  0  0  0  0  0  0  0  0  0
   56.2850   23.8610   43.6750 C   0  0  0  0  0  0  0  0  0  0  0  0
   56.4170   22.5410   42.9040 C   0  0  0  0  0  0  0  0  0  0  0  0
   56.6480   21.3980   43.8900 C   0  0  0  0  0  0  0  0  0  0  0  0
   57.8560   21.6620   44.8110 C   0  0  0  0  0  0  0  0  0  0  0  0
   58.4580   23.0770   44.6740 C   0  0  0  0  0  0  0  0  0  0  0  0
   59.2200   25.9750   47.1630 C   0  0  0  0  0  0  0  0  0  0  0  0
   59.9880   27.0640   47.5880 C   0  0  0  0  0  0  0  0  0  0  0  0
   59.3340   33.2760   48.1120 C   0  0  0  0  0  0  0  0  0  0  0  0
   58.1320   33.4180   47.1610 C   0  0  0  0  0  0  0  0  0  0  0  0
   57.4717   32.3476   45.2818 H   0  0  0  0  0  0  0  0  0  0  0  0
   56.5448   32.9345   43.8594 H   0  0  0  0  0  0  0  0  0  0  0  0
   58.3391   33.0193   43.8594 H   0  0  0  0  0  0  0  0  0  0  0  0
   57.6799   35.2385   44.3490 H   0  0  0  0  0  0  0  0  0  0  0  0
   56.3364   34.6846   45.4277 H   0  0  0  0  0  0  0  0  0  0  0  0
   59.6771   35.2562   44.8440 H   0  0  0  0  0  0  0  0  0  0  0  0
   60.0625   35.6604   46.5719 H   0  0  0  0  0  0  0  0  0  0  0  0
   60.1479   32.8553   45.3622 H   0  0  0  0  0  0  0  0  0  0  0  0
   61.5764   33.9189   45.6430 H   0  0  0  0  0  0  0  0  0  0  0  0
   61.3040   33.8480   47.8790 H   0  0  0  0  0  0  0  0  0  0  0  0
   60.2010   30.6600   46.0770 H   0  0  0  0  0  0  0  0  0  0  0  0
   57.9095   29.6054   46.6264 H   0  0  0  0  0  0  0  0  0  0  0  0
   56.5460   27.6647   45.8695 H   0  0  0  0  0  0  0  0  0  0  0  0
   55.3827   23.8102   44.3021 H   0  0  0  0  0  0  0  0  0  0  0  0
   56.2277   24.6686   42.9304 H   0  0  0  0  0  0  0  0  0  0  0  0
   55.4940   22.3543   42.3355 H   0  0  0  0  0  0  0  0  0  0  0  0
   57.2679   22.6047   42.2098 H   0  0  0  0  0  0  0  0  0  0  0  0
   55.7480   21.2779   44.5110 H   0  0  0  0  0  0  0  0  0  0  0  0
   56.8570   20.4871   43.3098 H   0  0  0  0  0  0  0  0  0  0  0  0
   57.5320   21.5242   45.8531 H   0  0  0  0  0  0  0  0  0  0  0  0
   58.6424   20.9533   44.5123 H   0  0  0  0  0  0  0  0  0  0  0  0
   59.0692   23.2808   45.5656 H   0  0  0  0  0  0  0  0  0  0  0  0
   59.0482   23.0836   43.7458 H   0  0  0  0  0  0  0  0  0  0  0  0
   59.5994   24.9514   47.2982 H   0  0  0  0  0  0  0  0  0  0  0  0
   60.9696   26.8910   48.0534 H   0  0  0  0  0  0  0  0  0  0  0  0
   59.2024   32.3612   48.7085 H   0  0  0  0  0  0  0  0  0  0  0  0
   59.3625   34.1775   48.7417 H   0  0  0  0  0  0  0  0  0  0  0  0
   58.0658   32.5162   46.5345 H   0  0  0  0  0  0  0  0  0  0  0  0
   57.2265   33.5434   47.7728 H   0  0  0  0  0  0  0  0  0  0  0  0
  1  2  1  0
  2  3  1  0
  3  4  1  0
  4  5  1  0
  5  6  1  0
  6  7  1  0
  7  8  2  0
  7  9  1  0
  9 10  1  0
 10 11  2  0
 10 12  1  0
 12 13  2  0
 13 14  1  0
 14 15  2  0
 15 16  1  0
 16 17  2  0
 16 18  2  0
 16 19  1  0
 19 20  1  0
 20 21  1  0
 21 22  1  0
 22 23  1  0
 23 24  1  0
 15 25  1  0
 25 26  2  0
  6 27  1  0
 27 28  1  0
 28  3  1  0
 26 12  1  0
 24 19  1  0
  1 29  1  0
  1 30  1  0
  1 31  1  0
  2 32  1  0
  2 33  1  0
  4 34  1  0
  4 35  1  0
  5 36  1  0
  5 37  1  0
  6 38  1  0
  9 39  1  0
 13 40  1  0
 14 41  1  0
 20 42  1  0
 20 43  1  0
 21 44  1  0
 21 45  1  0
 22 46  1  0
 22 47  1  0
 23 48  1  0
 23 49  1  0
 24 50  1  0
 24 51  1  0
 25 52  1  0
 26 53  1  0
 27 54  1  0
 27 55  1  0
 28 56  1  0
 28 57  1  0
M  CHG  1   6   1
M  END
>  <UniqueID>  (24) 
24

>  <SMILES>  (24) 
CCN1CC[NH+](C(=S)NC(=O)c2ccc(S(=O)(=O)N3CCCCC3)cc2)CC1

>  <Energy>  (24) 
87.48038509118695

>  <Genealogy>  (24) 
CCN1CC[NH+](C(=S)NC(=O)c2ccc(S(=O)(=O)N3CCCCC3)cc2)CC1 (protonated)
CCN1CC[NH+](C(=S)NC(=O)c2ccc(S(=O)(=O)N3CCCCC3)cc2)CC1 (3D coordinates assigned)
CCN1CC[NH+](C(=S)NC(=O)c2ccc(S(=O)(=O)N3CCCCC3)cc2)CC1 (nonaromatic ring conformer: 87.48038509118695 kcal/mol)

>  <smiles>  (24) 
CCN1CCN(C(=S)NC(=O)c2ccc(S(=O)(=O)N3CCCCC3)cc2)CC1

>  <score_type>  (24) 
oracle

>  <origin>  (24) 
adg

>  <m_score__min__energy>  (24) 
-7.5999999999999996

>  <m_primary>  (24) 
energy

$$$$
24:0
     RDKit          3D

 55 58  0  0  0  0  0  0  0  0999 V2000
   55.9080   26.8960   46.7110 H   0  0  0  0  0  0  0  0  0  0  0  0
   55.1820   26.6690   45.9970 N   0  0  0  0  0  0  0  0  0  0  0  0
   54.8510   25.3150   45.6890 C   0  0  0  0  0  0  0  0  0  0  0  0
   53.6340   24.9880   45.6320 O   0  0  0  0  0  0  0  0  0  0  0  0
   55.9260   24.3130   45.4540 C   0  0  0  0  0  0  0  0  0  0  0  0
   57.1810   24.3740   46.1100 C   0  0  0  0  0  0  0  0  0  0  0  0
   57.4670   25.4400   47.0370 N   0  0  0  0  0  0  0  0  0  0  0  0
   58.3430   26.3940   46.9040 C   0  0  0  0  0  0  0  0  0  0  0  0
   57.9710   27.7050   46.9050 N   0  0  0  0  0  0  0  0  0  0  0  0
   58.8650   28.7190   46.7450 C   0  0  0  0  0  0  0  0  0  0  0  0
   58.3930   30.0740   46.7800 N   0  0  0  0  0  0  0  0  0  0  0  0
   58.0210   30.4410   47.6830 H   0  0  0  0  0  0  0  0  0  0  0  0
   58.2350   30.8910   45.6110 C   0  0  0  0  0  0  0  0  0  0  0  0
   57.9880   30.2710   44.3750 C   0  0  0  0  0  0  0  0  0  0  0  0
   57.9630   29.1732   44.3102 H   0  0  0  0  0  0  0  0  0  0  0  0
   57.7740   31.0380   43.2280 C   0  0  0  0  0  0  0  0  0  0  0  0
   57.5904   30.5439   42.2625 H   0  0  0  0  0  0  0  0  0  0  0  0
   57.7930   32.4300   43.3060 C   0  0  0  0  0  0  0  0  0  0  0  0
   57.6181   33.0334   42.4031 H   0  0  0  0  0  0  0  0  0  0  0  0
   58.0340   33.0590   44.5300 C   0  0  0  0  0  0  0  0  0  0  0  0
   58.0483   34.1576   44.5839 H   0  0  0  0  0  0  0  0  0  0  0  0
   58.2580   32.3040   45.6910 C   0  0  0  0  0  0  0  0  0  0  0  0
   58.6670   33.1810   47.1760 S   0  0  0  0  0  0  0  0  0  0  0  0
   57.5950   34.2010   47.4390 O   0  0  0  0  0  0  0  0  0  0  0  0
   58.7500   32.2730   48.3720 O   0  0  0  0  0  0  0  0  0  0  0  0
   60.1890   34.0020   46.9810 N   0  0  0  0  0  0  0  0  0  0  0  0
   61.2030   33.1240   46.3820 C   0  0  2  0  0  0  0  0  0  0  0  0
   60.9443   32.9159   45.3333 H   0  0  0  0  0  0  0  0  0  0  0  0
   61.2430   31.8020   47.1660 C   0  0  0  0  0  0  0  0  0  0  0  0
   61.9704   31.1314   46.6851 H   0  0  0  0  0  0  0  0  0  0  0  0
   60.2263   31.3822   47.1543 H   0  0  0  0  0  0  0  0  0  0  0  0
   61.6310   31.9800   48.5820 N   0  0  0  0  0  0  0  0  0  0  0  0
   60.7640   32.1280   49.1520 H   0  0  0  0  0  0  0  0  0  0  0  0
   62.5470   33.1110   48.8350 C   0  0  0  0  0  0  0  0  0  0  0  0
   63.1910   32.8597   49.6906 H   0  0  0  0  0  0  0  0  0  0  0  0
   61.9334   34.0005   49.0405 H   0  0  0  0  0  0  0  0  0  0  0  0
   63.4340   33.4240   47.6270 C   0  0  0  0  0  0  0  0  0  0  0  0
   64.0318   32.5343   47.3797 H   0  0  0  0  0  0  0  0  0  0  0  0
   64.0889   34.2698   47.8834 H   0  0  0  0  0  0  0  0  0  0  0  0
   62.5850   33.8150   46.4050 C   0  0  0  0  0  0  0  0  0  0  0  0
   63.1326   33.5334   45.4935 H   0  0  0  0  0  0  0  0  0  0  0  0
   62.4091   34.8994   46.4608 H   0  0  0  0  0  0  0  0  0  0  0  0
   60.2270   28.4150   46.5880 C   0  0  0  0  0  0  0  0  0  0  0  0
   60.9657   29.2214   46.4693 H   0  0  0  0  0  0  0  0  0  0  0  0
   60.6350   27.0790   46.5840 C   0  0  0  0  0  0  0  0  0  0  0  0
   61.6989   26.8286   46.4595 H   0  0  0  0  0  0  0  0  0  0  0  0
   59.6920   26.0630   46.7380 C   0  0  0  0  0  0  0  0  0  0  0  0
   60.0068   25.0090   46.7290 H   0  0  0  0  0  0  0  0  0  0  0  0
   58.1270   23.4290   45.8370 N   0  0  0  0  0  0  0  0  0  0  0  0
   57.9120   22.4140   44.9630 C   0  0  0  0  0  0  0  0  0  0  0  0
   58.7034   21.6733   44.7757 H   0  0  0  0  0  0  0  0  0  0  0  0
   56.6930   22.3090   44.3040 C   0  0  0  0  0  0  0  0  0  0  0  0
   56.5119   21.4864   43.5965 H   0  0  0  0  0  0  0  0  0  0  0  0
   55.7030   23.2580   44.5500 C   0  0  0  0  0  0  0  0  0  0  0  0
   54.7359   23.1816   44.0315 H   0  0  0  0  0  0  0  0  0  0  0  0
  1  2  1  0
  2  3  1  0
  3  4  2  0
  3  5  1  0
  5  6  2  0
  6  7  1  0
  7  8  2  0
  8  9  1  0
  9 10  1  0
 10 11  1  0
 11 12  1  0
 11 13  1  0
 13 14  2  0
 14 15  1  0
 14 16  1  0
 16 17  1  0
 16 18  2  0
 18 19  1  0
 18 20  1  0
 20 21  1  0
 20 22  2  0
 22 23  1  0
 23 24  2  0
 23 25  2  0
 23 26  1  0
 26 27  1  0
 27 28  1  6
 27 29  1  0
 29 30  1  0
 29 31  1  0
 29 32  1  0
 32 33  1  0
 32 34  1  0
 34 35  1  0
 34 36  1  0
 34 37  1  0
 37 38  1  0
 37 39  1  0
 37 40  1  0
 40 41  1  0
 40 42  1  0
 10 43  2  0
 43 44  1  0
 43 45  1  0
 45 46  1  0
 45 47  2  0
 47 48  1  0
  6 49  1  0
 49 50  2  0
 50 51  1  0
 50 52  1  0
 52 53  1  0
 52 54  2  0
 54 55  1  0
 54  5  1  0
 47  8  1  0
 22 13  1  0
 40 27  1  0
M  CHG  3   2  -1   9  -1  26  -1
M  END
>  <UniqueID>  (25) 
25

>  <SMILES>  (25) 
[NH-]C(=O)c1cccnc1/N=c1/cccc(Nc2ccccc2S(=O)(=O)[N-][C@H]2CCCNC2)[n-]1

>  <Energy>  (25) 
77.61513478123635

>  <Genealogy>  (25) 
[NH-]C(=O)c1cccnc1N=c1cccc(Nc2ccccc2S(=O)(=O)[N-]C2CCCNC2)[n-]1 (protonated)
[NH-]C(=O)c1cccnc1N=c1cccc(Nc2ccccc2S(=O)(=O)[N-][C@H]2CCCNC2)[n-]1 (chirality)
[NH-]C(=O)c1cccnc1/N=c1/cccc(Nc2ccccc2S(=O)(=O)[N-][C@H]2CCCNC2)[n-]1 (cis-trans isomerization)
[NH-]C(=O)c1cccnc1/N=c1/cccc(Nc2ccccc2S(=O)(=O)[N-][C@H]2CCCNC2)[n-]1 (3D coordinates assigned)
[NH-]C(=O)c1cccnc1/N=c1/cccc(Nc2ccccc2S(=O)(=O)[N-][C@H]2CCCNC2)[n-]1 (nonaromatic ring conformer: 77.61513478123635 kcal/mol)

>  <smiles>  (25) 
NC(=O)c1cccnc1N=c1cccc(Nc2ccccc2S(=O)(=O)NC2CCCNC2)[nH]1

>  <score_type>  (25) 
oracle

>  <origin>  (25) 
adg

>  <m_score__min__energy>  (25) 
-15.23

>  <m_primary>  (25) 
energy

$$$$
25:0
     RDKit          3D

 30 32  0  0  0  0  0  0  0  0999 V2000
   59.8550   34.5660   47.7500 C   0  0  0  0  0  0  0  0  0  0  0  0
   59.2760   34.9710   46.4000 C   0  0  0  0  0  0  0  0  0  0  0  0
   58.3690   33.9020   45.8750 C   0  0  0  0  0  0  0  0  0  0  0  0
   58.6610   33.1230   44.8120 N   0  0  0  0  0  0  0  0  0  0  0  0
   57.5340   32.3860   44.7050 C   0  0  0  0  0  0  0  0  0  0  0  0
   57.3350   31.3110   43.6890 C   0  0  0  0  0  0  0  0  0  0  0  0
   57.6300   30.0110   44.2820 N   0  0  0  0  0  0  0  0  0  0  0  0
   59.1550   29.3710   44.5030 S   0  0  0  0  0  0  0  0  0  0  0  0
   58.7090   27.9750   45.3010 C   0  0  0  0  0  0  0  0  0  0  0  0
   59.4920   26.9380   45.8010 C   0  0  0  0  0  0  0  0  0  0  0  0
   58.8370   25.8780   46.4460 C   0  0  0  0  0  0  0  0  0  0  0  0
   57.4330   25.8800   46.5790 C   0  0  0  0  0  0  0  0  0  0  0  0
   56.6670   26.9430   46.0660 C   0  0  0  0  0  0  0  0  0  0  0  0
   57.3260   27.9960   45.4220 C   0  0  0  0  0  0  0  0  0  0  0  0
   56.7440   29.1470   44.8520 C   0  0  0  0  0  0  0  0  0  0  0  0
   55.5030   29.3700   44.8720 O   0  0  0  0  0  0  0  0  0  0  0  0
   56.6520   32.7030   45.6220 O   0  0  0  0  0  0  0  0  0  0  0  0
   57.1400   33.6500   46.3600 N   0  0  0  0  0  0  0  0  0  0  0  0
   59.2414   34.9952   48.5558 H   0  0  0  0  0  0  0  0  0  0  0  0
   59.8560   33.4692   47.8344 H   0  0  0  0  0  0  0  0  0  0  0  0
   60.8856   34.9412   47.8344 H   0  0  0  0  0  0  0  0  0  0  0  0
   58.7056   35.9044   46.5163 H   0  0  0  0  0  0  0  0  0  0  0  0
   60.1022   35.1168   45.6885 H   0  0  0  0  0  0  0  0  0  0  0  0
   56.2915   31.3256   43.3412 H   0  0  0  0  0  0  0  0  0  0  0  0
   58.0110   31.4846   42.8388 H   0  0  0  0  0  0  0  0  0  0  0  0
   60.5867   26.9493   45.6940 H   0  0  0  0  0  0  0  0  0  0  0  0
   59.4227   25.0395   46.8508 H   0  0  0  0  0  0  0  0  0  0  0  0
   56.9324   25.0433   47.0882 H   0  0  0  0  0  0  0  0  0  0  0  0
   55.5719   26.9461   46.1692 H   0  0  0  0  0  0  0  0  0  0  0  0
   56.6570   34.1120   47.1610 H   0  0  0  0  0  0  0  0  0  0  0  0
  1  2  1  0
  2  3  1  0
  3  4  1  0
  4  5  2  0
  5  6  1  0
  6  7  1  0
  7  8  1  0
  8  9  1  0
  9 10  2  0
 10 11  1  0
 11 12  2  0
 12 13  1  0
 13 14  2  0
 14 15  1  0
 15 16  2  0
  5 17  1  0
 17 18  1  0
 18  3  2  0
 15  7  1  0
 14  9  1  0
  1 19  1  0
  1 20  1  0
  1 21  1  0
  2 22  1  0
  2 23  1  0
  6 24  1  0
  6 25  1  0
 10 26  1  0
 11 27  1  0
 12 28  1  0
 13 29  1  0
 18 30  1  0
M  CHG  1  18   1
M  END
>  <UniqueID>  (26) 
26

>  <SMILES>  (26) 
CCc1nc(Cn2sc3ccccc3c2=O)o[nH+]1

>  <Energy>  (26) 
99.89495612222237

>  <Genealogy>  (26) 
CCc1nc(Cn2sc3ccccc3c2=O)o[nH+]1 (protonated)
CCc1nc(Cn2sc3ccccc3c2=O)o[nH+]1 (3D coordinates assigned)
CCc1nc(Cn2sc3ccccc3c2=O)o[nH+]1 (optimized conformer: 99.89495612222237 kcal/mol)

>  <smiles>  (26) 
CCc1noc(Cn2sc3ccccc3c2=O)n1

>  <score_type>  (26) 
oracle

>  <origin>  (26) 
adg

>  <m_score__min__energy>  (26) 
-5.9900000000000002

>  <m_primary>  (26) 
energy

$$$$
26:0
     RDKit          3D

 59 62  0  0  0  0  0  0  0  0999 V2000
   57.8080   21.2480   43.1110 C   0  0  0  0  0  0  0  0  0  0  0  0
   56.9040   22.0450   43.9990 C   0  0  0  0  0  0  0  0  0  0  0  0
   55.7000   21.7000   44.1270 O   0  0  0  0  0  0  0  0  0  0  0  0
   57.4000   23.2300   44.7220 C   0  0  0  0  0  0  0  0  0  0  0  0
   58.6770   23.4090   45.2250 C   0  0  0  0  0  0  0  0  0  0  0  0
   58.7600   24.6020   45.8410 N   0  0  0  0  0  0  0  0  0  0  0  0
   57.5560   25.1940   45.7200 C   0  0  0  0  0  0  0  0  0  0  0  0
   57.2310   26.5070   46.3160 C   0  0  0  0  0  0  0  0  0  0  0  0
   57.8200   26.8630   47.3710 O   0  0  0  0  0  0  0  0  0  0  0  0
   56.2050   27.3560   45.7790 N   0  0  0  0  0  0  0  0  0  0  0  0
   56.3940   28.5200   45.2330 C   0  0  0  0  0  0  0  0  0  0  0  0
   55.3960   29.3530   44.8570 N   0  0  0  0  0  0  0  0  0  0  0  0
   55.8870   30.4740   44.2650 C   0  0  0  0  0  0  0  0  0  0  0  0
   57.2730   30.5190   44.1640 C   0  0  0  0  0  0  0  0  0  0  0  0
   58.0870   31.6300   43.5700 C   0  0  0  0  0  0  0  0  0  0  0  0
   58.5100   32.6190   44.6240 C   0  0  0  0  0  0  0  0  0  0  0  0
   58.0540   33.9470   44.5740 C   0  0  0  0  0  0  0  0  0  0  0  0
   58.5150   34.8860   45.4990 C   0  0  0  0  0  0  0  0  0  0  0  0
   59.4360   34.5090   46.4810 C   0  0  0  0  0  0  0  0  0  0  0  0
   59.8640   33.1800   46.5680 C   0  0  0  0  0  0  0  0  0  0  0  0
   60.8220   32.7700   47.6050 C   0  0  0  0  0  0  0  0  0  0  0  0
   62.0510   32.9540   47.3790 O   0  0  0  0  0  0  0  0  0  0  0  0
   60.3630   32.1540   48.8380 N   0  0  0  0  0  0  0  0  0  0  0  0
   59.7180   33.1460   49.7350 C   0  0  0  0  0  0  0  0  0  0  0  0
   59.2590   32.5030   51.0460 C   0  0  0  0  0  0  0  0  0  0  0  0
   58.4340   31.3170   50.7700 N   0  0  0  0  0  0  0  0  0  0  0  0
   57.3410   30.9430   51.6350 C   0  0  0  0  0  0  0  0  0  0  0  0
   56.6110   31.9560   52.4660 C   0  0  0  0  0  0  0  0  0  0  0  0
   56.9870   29.7350   51.7170 O   0  0  0  0  0  0  0  0  0  0  0  0
   58.9530   30.3450   49.7970 C   0  0  0  0  0  0  0  0  0  0  0  0
   59.4160   31.0610   48.5250 C   0  0  0  0  0  0  0  0  0  0  0  0
   59.4080   32.2370   45.6350 C   0  0  0  0  0  0  0  0  0  0  0  0
   57.9090   29.1210   44.8430 S   0  0  0  0  0  0  0  0  0  0  0  0
   56.6800   24.3680   45.0380 C   0  0  0  0  0  0  0  0  0  0  0  0
   58.4909   20.6459   43.7284 H   0  0  0  0  0  0  0  0  0  0  0  0
   57.2047   20.5825   42.4760 H   0  0  0  0  0  0  0  0  0  0  0  0
   58.3927   21.9299   42.4760 H   0  0  0  0  0  0  0  0  0  0  0  0
   59.5000   22.6848   45.1346 H   0  0  0  0  0  0  0  0  0  0  0  0
   59.5970   24.9760   46.3400 H   0  0  0  0  0  0  0  0  0  0  0  0
   55.2387   31.2820   43.8950 H   0  0  0  0  0  0  0  0  0  0  0  0
   58.9841   31.2041   43.0969 H   0  0  0  0  0  0  0  0  0  0  0  0
   57.4691   32.1557   42.8271 H   0  0  0  0  0  0  0  0  0  0  0  0
   57.3303   34.2485   43.8024 H   0  0  0  0  0  0  0  0  0  0  0  0
   58.1530   35.9238   45.4550 H   0  0  0  0  0  0  0  0  0  0  0  0
   59.8246   35.2584   47.1862 H   0  0  0  0  0  0  0  0  0  0  0  0
   61.2050   31.7500   49.3210 H   0  0  0  0  0  0  0  0  0  0  0  0
   60.4396   33.9446   49.9622 H   0  0  0  0  0  0  0  0  0  0  0  0
   58.8336   33.5512   49.2216 H   0  0  0  0  0  0  0  0  0  0  0  0
   60.1406   32.2037   51.6318 H   0  0  0  0  0  0  0  0  0  0  0  0
   58.6607   33.2318   51.6124 H   0  0  0  0  0  0  0  0  0  0  0  0
   56.7685   31.7375   53.5325 H   0  0  0  0  0  0  0  0  0  0  0  0
   56.9932   32.9618   52.2375 H   0  0  0  0  0  0  0  0  0  0  0  0
   55.5359   31.9116   52.2375 H   0  0  0  0  0  0  0  0  0  0  0  0
   59.8037   29.8067   50.2404 H   0  0  0  0  0  0  0  0  0  0  0  0
   58.1525   29.6366   49.5374 H   0  0  0  0  0  0  0  0  0  0  0  0
   59.9128   30.3343   47.8654 H   0  0  0  0  0  0  0  0  0  0  0  0
   58.5347   31.4959   48.0309 H   0  0  0  0  0  0  0  0  0  0  0  0
   59.7546   31.1948   45.6950 H   0  0  0  0  0  0  0  0  0  0  0  0
   55.6268   24.5741   44.7966 H   0  0  0  0  0  0  0  0  0  0  0  0
  1  2  1  0
  2  3  2  0
  2  4  1  0
  4  5  2  0
  5  6  1  0
  6  7  1  0
  7  8  1  0
  8  9  2  0
  8 10  1  0
 10 11  2  3
 11 12  1  0
 12 13  1  0
 13 14  2  0
 14 15  1  0
 15 16  1  0
 16 17  2  0
 17 18  1  0
 18 19  2  0
 19 20  1  0
 20 21  1  0
 21 22  2  0
 21 23  1  0
 23 24  1  0
 24 25  1  0
 25 26  1  0
 26 27  1  0
 27 28  1  0
 27 29  2  0
 26 30  1  0
 30 31  1  0
 20 32  2  0
 14 33  1  0
  7 34  2  0
 34  4  1  0
 33 11  1  0
 32 16  1  0
 31 23  1  0
  1 35  1  0
  1 36  1  0
  1 37  1  0
  5 38  1  0
  6 39  1  0
 13 40  1  0
 15 41  1  0
 15 42  1  0
 17 43  1  0
 18 44  1  0
 19 45  1  0
 23 46  1  0
 24 47  1  0
 24 48  1  0
 25 49  1  0
 25 50  1  0
 28 51  1  0
 28 52  1  0
 28 53  1  0
 30 54  1  0
 30 55  1  0
 31 56  1  0
 31 57  1  0
 32 58  1  0
 34 59  1  0
M  CHG  2  12  -1  23   1
M  END
>  <UniqueID>  (27) 
27

>  <SMILES>  (27) 
CC(=O)c1c[nH]c(C(=O)N=c2[n-]cc(Cc3cccc(C(=O)[NH+]4CCN(C(C)=O)CC4)c3)s2)c1

>  <Energy>  (27) 
131.39839045665633

>  <Genealogy>  (27) 
CC(=O)c1c[nH]c(C(=O)N=c2[n-]cc(Cc3cccc(C(=O)[NH+]4CCN(C(C)=O)CC4)c3)s2)c1 (protonated)
CC(=O)c1c[nH]c(C(=O)N=c2[n-]cc(Cc3cccc(C(=O)[NH+]4CCN(C(C)=O)CC4)c3)s2)c1 (3D coordinates assigned)
CC(=O)c1c[nH]c(C(=O)N=c2[n-]cc(Cc3cccc(C(=O)[NH+]4CCN(C(C)=O)CC4)c3)s2)c1 (nonaromatic ring conformer: 131.39839045665633 kcal/mol)

>  <smiles>  (27) 
CC(=O)c1c[nH]c(C(=O)N=c2[nH]cc(Cc3cccc(C(=O)N4CCN(C(C)=O)CC4)c3)s2)c1

>  <score_type>  (27) 
oracle

>  <origin>  (27) 
adg

>  <m_score__min__energy>  (27) 
-10.41

>  <m_primary>  (27) 
energy

$$$$
27:0
     RDKit          3D

 47 50  0  0  0  0  0  0  0  0999 V2000
   56.6220   29.3880   43.2630 C   0  0  0  0  0  0  0  0  0  0  0  0
   57.1940   30.0860   44.2500 C   0  0  0  0  0  0  0  0  0  0  0  0
   57.1950   31.4660   44.3360 C   0  0  0  0  0  0  0  0  0  0  0  0
   57.8670   31.7790   45.5030 C   0  0  0  0  0  0  0  0  0  0  0  0
   58.1280   33.1490   45.9870 C   0  0  0  0  0  0  0  0  0  0  0  0
   57.7810   34.1230   45.2660 O   0  0  0  0  0  0  0  0  0  0  0  0
   58.7610   33.4160   47.2990 C   0  0  0  0  0  0  0  0  0  0  0  0
   59.8670   34.2800   47.4040 C   0  0  0  0  0  0  0  0  0  0  0  0
   60.5100   34.4570   48.6310 C   0  0  0  0  0  0  0  0  0  0  0  0
   60.0590   33.7760   49.7620 C   0  0  0  0  0  0  0  0  0  0  0  0
   58.9470   32.9300   49.6810 C   0  0  0  0  0  0  0  0  0  0  0  0
   58.5190   32.2250   50.8530 N   0  0  0  0  0  0  0  0  0  0  0  0
   58.6160   30.8050   51.0270 C   0  0  0  0  0  0  0  0  0  0  0  0
   57.5770   30.1110   51.1980 O   0  0  0  0  0  0  0  0  0  0  0  0
   59.9600   30.1480   51.0670 C   0  0  0  0  0  0  0  0  0  0  0  0
   60.1590   29.3060   49.8340 C   0  0  0  0  0  0  0  0  0  0  0  0
   60.1900   29.8990   48.5650 C   0  0  0  0  0  0  0  0  0  0  0  0
   60.4140   29.1400   47.4620 N   0  0  0  0  0  0  0  0  0  0  0  0
   60.6150   27.8030   47.5630 C   0  0  0  0  0  0  0  0  0  0  0  0
   60.8270   27.1180   46.5280 O   0  0  0  0  0  0  0  0  0  0  0  0
   60.6010   27.2050   48.7800 N   0  0  0  0  0  0  0  0  0  0  0  0
   60.3810   27.9220   49.9130 C   0  0  0  0  0  0  0  0  0  0  0  0
   60.3870   27.3330   51.0280 O   0  0  0  0  0  0  0  0  0  0  0  0
   58.3120   32.7380   48.4420 C   0  0  0  0  0  0  0  0  0  0  0  0
   58.2870   30.6570   46.1200 N   0  0  0  0  0  0  0  0  0  0  0  0
   57.8730   29.6080   45.3710 C   0  0  0  0  0  0  0  0  0  0  0  0
   58.1180   28.3130   45.6630 C   0  0  0  0  0  0  0  0  0  0  0  0
   57.0710   27.3250   45.9900 C   0  0  0  0  0  0  0  0  0  0  0  0
   55.7830   27.4150   45.6060 N   0  0  0  0  0  0  0  0  0  0  0  0
   55.2500   26.2420   46.0050 C   0  0  0  0  0  0  0  0  0  0  0  0
   54.0390   25.9480   45.8140 O   0  0  0  0  0  0  0  0  0  0  0  0
   56.1170   25.4000   46.6030 N   0  0  0  0  0  0  0  0  0  0  0  0
   57.2680   26.0950   46.5830 C   0  0  0  0  0  0  0  0  0  0  0  0
   58.4640   25.6020   47.0960 O   0  0  0  0  0  0  0  0  0  0  0  0
   56.6665   28.2889   43.2692 H   0  0  0  0  0  0  0  0  0  0  0  0
   56.1071   29.9130   42.4449 H   0  0  0  0  0  0  0  0  0  0  0  0
   56.7505   32.1728   43.6199 H   0  0  0  0  0  0  0  0  0  0  0  0
   60.2268   34.8187   46.5150 H   0  0  0  0  0  0  0  0  0  0  0  0
   61.3734   35.1344   48.7058 H   0  0  0  0  0  0  0  0  0  0  0  0
   60.5800   33.9046   50.7222 H   0  0  0  0  0  0  0  0  0  0  0  0
   60.7419   30.9205   51.1106 H   0  0  0  0  0  0  0  0  0  0  0  0
   60.0209   29.5046   51.9572 H   0  0  0  0  0  0  0  0  0  0  0  0
   60.0324   30.9828   48.4621 H   0  0  0  0  0  0  0  0  0  0  0  0
   57.4563   32.0508   48.3680 H   0  0  0  0  0  0  0  0  0  0  0  0
   58.8820   30.6320   46.9750 H   0  0  0  0  0  0  0  0  0  0  0  0
   59.1639   27.9724   45.6569 H   0  0  0  0  0  0  0  0  0  0  0  0
   59.1520   26.2140   47.5230 H   0  0  0  0  0  0  0  0  0  0  0  0
  1  2  2  0
  2  3  1  0
  3  4  2  0
  4  5  1  0
  5  6  2  0
  5  7  1  0
  7  8  2  0
  8  9  1  0
  9 10  2  0
 10 11  1  0
 11 12  1  0
 12 13  1  0
 13 14  2  0
 13 15  1  0
 15 16  1  0
 16 17  2  0
 17 18  1  0
 18 19  1  0
 19 20  2  0
 19 21  1  0
 21 22  1  0
 22 23  2  0
 11 24  2  0
  4 25  1  0
 25 26  1  0
 26 27  2  3
 27 28  1  0
 28 29  1  0
 29 30  1  0
 30 31  2  0
 30 32  1  0
 32 33  1  0
 33 34  1  0
 26  2  1  0
 33 28  2  0
 24  7  1  0
 22 16  1  0
  1 35  1  0
  1 36  1  0
  3 37  1  0
  8 38  1  0
  9 39  1  0
 10 40  1  0
 15 41  1  0
 15 42  1  0
 17 43  1  0
 24 44  1  0
 25 45  1  0
 27 46  1  0
 34 47  1  0
M  CHG  5  12  -1  18  -1  21  -1  29  -1  32  -1
M  END
>  <UniqueID>  (28) 
28

>  <SMILES>  (28) 
C=c1cc(C(=O)c2cccc([N-]C(=O)Cc3c[n-]c(=O)[n-]c3=O)c2)[nH]c1=Cc1[n-]c(=O)[n-]c1O

>  <Energy>  (28) 
120.82082192827372

>  <Genealogy>  (28) 
C=c1cc(C(=O)c2cccc([N-]C(=O)Cc3c[n-]c(=O)[n-]c3=O)c2)[nH]c1=Cc1[n-]c(=O)[n-]c1O (protonated)
C=c1cc(C(=O)c2cccc([N-]C(=O)Cc3c[n-]c(=O)[n-]c3=O)c2)[nH]c1=Cc1[n-]c(=O)[n-]c1O (3D coordinates assigned)
C=c1cc(C(=O)c2cccc([N-]C(=O)Cc3c[n-]c(=O)[n-]c3=O)c2)[nH]c1=Cc1[n-]c(=O)[n-]c1O (optimized conformer: 120.82082192827372 kcal/mol)

>  <smiles>  (28) 
C=c1cc(C(=O)c2cccc(NC(=O)Cc3c[nH]c(=O)[nH]c3=O)c2)[nH]c1=Cc1[nH]c(=O)[nH]c1O

>  <score_type>  (28) 
oracle

>  <origin>  (28) 
adg

>  <m_score__min__energy>  (28) 
-19.440000000000001

>  <m_primary>  (28) 
energy

$$$$
28:0
     RDKit          3D

 53 56  0  0  0  0  0  0  0  0999 V2000
   54.3430   26.7120   46.7490 H   0  0  0  0  0  0  0  0  0  0  0  0
   55.1730   26.6470   46.1720 O   0  0  0  0  0  0  0  0  0  0  0  0
   55.5810   25.4520   45.5760 C   0  0  0  0  0  0  0  0  0  0  0  0
   54.6400   24.4370   45.3100 C   0  0  0  0  0  0  0  0  0  0  0  0
   53.2880   24.6730   45.6100 O   0  0  0  0  0  0  0  0  0  0  0  0
   52.1930   24.1960   44.8350 C   0  0  0  0  0  0  0  0  0  0  0  0
   51.3935   23.8477   45.5054 H   0  0  0  0  0  0  0  0  0  0  0  0
   51.8111   25.0093   44.2004 H   0  0  0  0  0  0  0  0  0  0  0  0
   52.5285   23.3625   44.2004 H   0  0  0  0  0  0  0  0  0  0  0  0
   55.0750   23.2160   44.7610 C   0  0  0  0  0  0  0  0  0  0  0  0
   54.3449   22.4221   44.5448 H   0  0  0  0  0  0  0  0  0  0  0  0
   56.4260   23.0080   44.4900 C   0  0  0  0  0  0  0  0  0  0  0  0
   56.7588   22.0464   44.0721 H   0  0  0  0  0  0  0  0  0  0  0  0
   57.3580   24.0130   44.7460 C   0  0  0  0  0  0  0  0  0  0  0  0
   58.4236   23.8347   44.5395 H   0  0  0  0  0  0  0  0  0  0  0  0
   56.9470   25.2500   45.2650 C   0  0  0  0  0  0  0  0  0  0  0  0
   57.9790   26.2810   45.5140 C   0  0  0  0  0  0  0  0  0  0  0  0
   58.9417   26.2033   44.9876 H   0  0  0  0  0  0  0  0  0  0  0  0
   57.7860   27.3070   46.3570 C   0  0  0  0  0  0  0  0  0  0  0  0
   57.7680   27.0935   47.4359 H   0  0  0  0  0  0  0  0  0  0  0  0
   57.5960   28.7080   45.9220 C   0  0  0  0  0  0  0  0  0  0  0  0
   58.2800   29.6810   46.5810 N   0  0  0  0  0  0  0  0  0  0  0  0
   58.1740   30.9950   46.2380 C   0  0  0  0  0  0  0  0  0  0  0  0
   58.9150   31.9960   46.9660 N   0  0  0  0  0  0  0  0  0  0  0  0
   58.5020   32.4040   48.3200 C   0  0  0  0  0  0  0  0  0  0  0  0
   57.9373   33.3459   48.2577 H   0  0  0  0  0  0  0  0  0  0  0  0
   57.8731   31.6124   48.7535 H   0  0  0  0  0  0  0  0  0  0  0  0
   59.7310   32.6100   49.2190 C   0  0  0  0  0  0  0  0  0  0  0  0
   59.4298   33.1857   50.1066 H   0  0  0  0  0  0  0  0  0  0  0  0
   60.1170   31.6193   49.5011 H   0  0  0  0  0  0  0  0  0  0  0  0
   60.8040   33.3360   48.5230 N   0  0  0  0  0  0  0  0  0  0  0  0
   62.0860   33.4910   49.1600 C   0  0  0  0  0  0  0  0  0  0  0  0
   62.1890   34.1320   50.4070 C   0  0  0  0  0  0  0  0  0  0  0  0
   61.2862   34.5257   50.8969 H   0  0  0  0  0  0  0  0  0  0  0  0
   63.4350   34.2710   51.0270 C   0  0  0  0  0  0  0  0  0  0  0  0
   63.5096   34.7770   52.0008 H   0  0  0  0  0  0  0  0  0  0  0  0
   64.5850   33.7690   50.4130 C   0  0  0  0  0  0  0  0  0  0  0  0
   65.5638   33.8808   50.9024 H   0  0  0  0  0  0  0  0  0  0  0  0
   64.4910   33.1250   49.1770 C   0  0  0  0  0  0  0  0  0  0  0  0
   65.3962   32.7272   48.6950 H   0  0  0  0  0  0  0  0  0  0  0  0
   63.2480   32.9850   48.5510 C   0  0  0  0  0  0  0  0  0  0  0  0
   63.1792   32.4768   47.5779 H   0  0  0  0  0  0  0  0  0  0  0  0
   60.5820   33.8270   47.1580 C   0  0  0  0  0  0  0  0  0  0  0  0
   59.8655   34.6613   47.1807 H   0  0  0  0  0  0  0  0  0  0  0  0
   61.5360   34.1735   46.7339 H   0  0  0  0  0  0  0  0  0  0  0  0
   60.0210   32.6970   46.2930 C   0  0  0  0  0  0  0  0  0  0  0  0
   59.6519   33.1210   45.3475 H   0  0  0  0  0  0  0  0  0  0  0  0
   60.8273   31.9713   46.1104 H   0  0  0  0  0  0  0  0  0  0  0  0
   57.3700   31.3480   45.1980 N   0  0  0  0  0  0  0  0  0  0  0  0
   56.6750   30.4170   44.4970 C   0  0  0  0  0  0  0  0  0  0  0  0
   55.9450   30.7730   43.5350 O   0  0  0  0  0  0  0  0  0  0  0  0
   56.7740   29.0680   44.8410 C   0  0  0  0  0  0  0  0  0  0  0  0
   56.2200   28.3027   44.2776 H   0  0  0  0  0  0  0  0  0  0  0  0
  1  2  1  0
  2  3  1  0
  3  4  2  0
  4  5  1  0
  5  6  1  0
  6  7  1  0
  6  8  1  0
  6  9  1  0
  4 10  1  0
 10 11  1  0
 10 12  2  0
 12 13  1  0
 12 14  1  0
 14 15  1  0
 14 16  2  0
 16 17  1  0
 17 18  1  0
 17 19  2  0
 19 20  1  0
 19 21  1  0
 21 22  1  0
 22 23  1  0
 23 24  1  0
 24 25  1  0
 25 26  1  0
 25 27  1  0
 25 28  1  0
 28 29  1  0
 28 30  1  0
 28 31  1  0
 31 32  1  0
 32 33  2  0
 33 34  1  0
 33 35  1  0
 35 36  1  0
 35 37  2  0
 37 38  1  0
 37 39  1  0
 39 40  1  0
 39 41  2  0
 41 42  1  0
 31 43  1  0
 43 44  1  0
 43 45  1  0
 43 46  1  0
 46 47  1  0
 46 48  1  0
 23 49  2  0
 49 50  1  0
 50 51  2  0
 50 52  1  0
 52 53  1  0
 16  3  1  0
 52 21  2  0
 46 24  1  0
 41 32  1  0
M  CHG  1  22  -1
M  END
>  <UniqueID>  (29) 
29

>  <SMILES>  (29) 
COc1cccc(/C=C/c2cc(=O)nc(N3CCN(c4ccccc4)CC3)[n-]2)c1O

>  <Energy>  (29) 
68.70558080060262

>  <Genealogy>  (29) 
COc1cccc(C=Cc2cc(=O)nc(N3CCN(c4ccccc4)CC3)[n-]2)c1O (protonated)
COc1cccc(/C=C/c2cc(=O)nc(N3CCN(c4ccccc4)CC3)[n-]2)c1O (cis-trans isomerization)
COc1cccc(/C=C/c2cc(=O)nc(N3CCN(c4ccccc4)CC3)[n-]2)c1O (3D coordinates assigned)
COc1cccc(/C=C/c2cc(=O)nc(N3CCN(c4ccccc4)CC3)[n-]2)c1O (nonaromatic ring conformer: 68.70558080060262 kcal/mol)

>  <smiles>  (29) 
COc1cccc(C=Cc2cc(=O)nc(N3CCN(c4ccccc4)CC3)[nH]2)c1O

>  <score_type>  (29) 
oracle

>  <origin>  (29) 
adg

>  <m_score__min__energy>  (29) 
-10.82

>  <m_primary>  (29) 
energy

$$$$
29:0
     RDKit          3D

 60 62  0  0  0  0  0  0  0  0999 V2000
   62.1140   33.3670   47.0680 C   0  0  0  0  0  0  0  0  0  0  0  0
   62.2100   33.8160   48.4160 O   0  0  0  0  0  0  0  0  0  0  0  0
   63.2220   33.4380   49.3160 C   0  0  0  0  0  0  0  0  0  0  0  0
   64.5080   33.0720   48.8740 C   0  0  0  0  0  0  0  0  0  0  0  0
   65.4900   32.6920   49.7910 C   0  0  0  0  0  0  0  0  0  0  0  0
   65.2040   32.6760   51.1550 C   0  0  0  0  0  0  0  0  0  0  0  0
   63.9350   33.0370   51.6100 C   0  0  0  0  0  0  0  0  0  0  0  0
   62.9340   33.4170   50.6980 C   0  0  0  0  0  0  0  0  0  0  0  0
   61.5730   33.8230   51.2100 C   0  0  0  0  0  0  0  0  0  0  0  0
   60.5120   33.1830   50.4340 N   0  0  0  0  0  0  0  0  0  0  0  0
   59.3150   32.6890   51.0450 C   0  0  0  0  0  0  0  0  0  0  0  0
   59.1630   32.7570   52.2950 O   0  0  0  0  0  0  0  0  0  0  0  0
   58.2680   32.0540   50.1780 C   0  0  0  0  0  0  0  0  0  0  0  0
   58.6650   32.0120   48.7730 N   0  0  0  0  0  0  0  0  0  0  0  0
   58.7460   33.1260   47.8750 C   0  0  0  0  0  0  0  0  0  0  0  0
   59.1680   34.2260   48.3180 O   0  0  0  0  0  0  0  0  0  0  0  0
   58.3890   33.0290   46.4410 C   0  0  0  0  0  0  0  0  0  0  0  0
   57.7600   31.8510   46.0030 C   0  0  0  0  0  0  0  0  0  0  0  0
   57.4860   31.6420   44.6440 C   0  0  0  0  0  0  0  0  0  0  0  0
   56.9000   30.0690   44.0860 S   0  0  0  0  0  0  0  0  0  0  0  0
   56.5270   30.1860   42.6350 O   0  0  0  0  0  0  0  0  0  0  0  0
   55.6530   29.7140   44.8480 O   0  0  0  0  0  0  0  0  0  0  0  0
   58.0740   28.7820   44.2560 N   0  0  0  0  0  0  0  0  0  0  0  0
   59.4450   29.2780   44.5210 C   0  0  0  0  0  0  0  0  0  0  0  0
   60.0950   28.6560   45.7630 C   0  0  0  0  0  0  0  0  0  0  0  0
   59.1170   28.6820   46.9310 C   0  0  0  0  0  0  0  0  0  0  0  0
   57.8250   27.9160   46.6150 C   0  0  0  0  0  0  0  0  0  0  0  0
   57.6050   27.6730   45.1110 C   0  0  0  0  0  0  0  0  0  0  0  0
   57.8170   32.6360   43.7180 C   0  0  0  0  0  0  0  0  0  0  0  0
   58.4460   33.8090   44.1360 C   0  0  0  0  0  0  0  0  0  0  0  0
   58.7780   34.0030   45.4870 C   0  0  0  0  0  0  0  0  0  0  0  0
   59.6280   35.2010   45.8300 C   0  0  0  0  0  0  0  0  0  0  0  0
   61.8840   32.2914   47.0553 H   0  0  0  0  0  0  0  0  0  0  0  0
   61.3136   33.9192   46.5537 H   0  0  0  0  0  0  0  0  0  0  0  0
   63.0702   33.5436   46.5537 H   0  0  0  0  0  0  0  0  0  0  0  0
   64.7405   33.0856   47.7989 H   0  0  0  0  0  0  0  0  0  0  0  0
   66.4909   32.4048   49.4364 H   0  0  0  0  0  0  0  0  0  0  0  0
   65.9806   32.3780   51.8748 H   0  0  0  0  0  0  0  0  0  0  0  0
   63.7164   33.0243   52.6880 H   0  0  0  0  0  0  0  0  0  0  0  0
   61.4801   33.5221   52.2639 H   0  0  0  0  0  0  0  0  0  0  0  0
   61.4714   34.9139   51.1118 H   0  0  0  0  0  0  0  0  0  0  0  0
   60.6310   33.0630   49.4020 H   0  0  0  0  0  0  0  0  0  0  0  0
   58.0946   31.0256   50.5278 H   0  0  0  0  0  0  0  0  0  0  0  0
   57.3544   32.6621   50.2523 H   0  0  0  0  0  0  0  0  0  0  0  0
   57.4785   31.0817   46.7372 H   0  0  0  0  0  0  0  0  0  0  0  0
   60.0729   29.0473   43.6478 H   0  0  0  0  0  0  0  0  0  0  0  0
   59.3660   30.3594   44.7063 H   0  0  0  0  0  0  0  0  0  0  0  0
   60.3746   27.6147   45.5450 H   0  0  0  0  0  0  0  0  0  0  0  0
   60.9915   29.2349   46.0297 H   0  0  0  0  0  0  0  0  0  0  0  0
   59.5975   28.2220   47.8071 H   0  0  0  0  0  0  0  0  0  0  0  0
   58.8509   29.7309   47.1286 H   0  0  0  0  0  0  0  0  0  0  0  0
   57.8658   26.9409   47.1225 H   0  0  0  0  0  0  0  0  0  0  0  0
   56.9877   28.5363   46.9675 H   0  0  0  0  0  0  0  0  0  0  0  0
   58.1469   26.7598   44.8238 H   0  0  0  0  0  0  0  0  0  0  0  0
   56.5198   27.5834   44.9550 H   0  0  0  0  0  0  0  0  0  0  0  0
   57.5800   32.4922   42.6535 H   0  0  0  0  0  0  0  0  0  0  0  0
   58.6846   34.5905   43.3996 H   0  0  0  0  0  0  0  0  0  0  0  0
   59.6982   35.2999   46.9233 H   0  0  0  0  0  0  0  0  0  0  0  0
   60.6353   35.0687   45.4084 H   0  0  0  0  0  0  0  0  0  0  0  0
   59.1703   36.1081   45.4084 H   0  0  0  0  0  0  0  0  0  0  0  0
  1  2  1  0
  2  3  1  0
  3  4  2  0
  4  5  1  0
  5  6  2  0
  6  7  1  0
  7  8  2  0
  8  9  1  0
  9 10  1  0
 10 11  1  0
 11 12  2  0
 11 13  1  0
 13 14  1  0
 14 15  1  0
 15 16  2  0
 15 17  1  0
 17 18  2  0
 18 19  1  0
 19 20  1  0
 20 21  2  0
 20 22  2  0
 20 23  1  0
 23 24  1  0
 24 25  1  0
 25 26  1  0
 26 27  1  0
 27 28  1  0
 19 29  2  0
 29 30  1  0
 30 31  2  0
 31 32  1  0
  8  3  1  0
 31 17  1  0
 28 23  1  0
  1 33  1  0
  1 34  1  0
  1 35  1  0
  4 36  1  0
  5 37  1  0
  6 38  1  0
  7 39  1  0
  9 40  1  0
  9 41  1  0
 10 42  1  0
 13 43  1  0
 13 44  1  0
 18 45  1  0
 24 46  1  0
 24 47  1  0
 25 48  1  0
 25 49  1  0
 26 50  1  0
 26 51  1  0
 27 52  1  0
 27 53  1  0
 28 54  1  0
 28 55  1  0
 29 56  1  0
 30 57  1  0
 32 58  1  0
 32 59  1  0
 32 60  1  0
M  CHG  1  14  -1
M  END
>  <UniqueID>  (30) 
30

>  <SMILES>  (30) 
COc1ccccc1CNC(=O)C[N-]C(=O)c1cc(S(=O)(=O)N2CCCCC2)ccc1C

>  <Energy>  (30) 
68.5655547070743

>  <Genealogy>  (30) 
COc1ccccc1CNC(=O)C[N-]C(=O)c1cc(S(=O)(=O)N2CCCCC2)ccc1C (protonated)
COc1ccccc1CNC(=O)C[N-]C(=O)c1cc(S(=O)(=O)N2CCCCC2)ccc1C (3D coordinates assigned)
COc1ccccc1CNC(=O)C[N-]C(=O)c1cc(S(=O)(=O)N2CCCCC2)ccc1C (nonaromatic ring conformer: 68.5655547070743 kcal/mol)

>  <smiles>  (30) 
COc1ccccc1CNC(=O)CNC(=O)c1cc(S(=O)(=O)N2CCCCC2)ccc1C

>  <score_type>  (30) 
oracle

>  <origin>  (30) 
adg

>  <m_score__min__energy>  (30) 
-11.390000000000001

>  <m_primary>  (30) 
energy

$$$$
30:0
     RDKit          3D

 50 52  0  0  0  0  0  0  0  0999 V2000
   58.6640   23.3300   44.8890 N   0  0  0  0  0  0  0  0  0  0  0  0
   58.8390   24.2720   45.5390 C   0  0  0  0  0  0  0  0  0  0  0  0
   59.0550   25.4430   46.3480 C   0  0  0  0  0  0  0  0  0  0  0  0
   60.3550   25.9040   46.5800 C   0  0  0  0  0  0  0  0  0  0  0  0
   60.5670   27.0420   47.3640 C   0  0  0  0  0  0  0  0  0  0  0  0
   59.4790   27.7350   47.9260 C   0  0  0  0  0  0  0  0  0  0  0  0
   59.6950   28.9150   48.7340 N   0  0  0  0  0  0  0  0  0  0  0  0
   61.0450   29.2510   49.2100 C   0  0  0  0  0  0  0  0  0  0  0  0
   61.2340   30.7710   49.2450 C   0  0  0  0  0  0  0  0  0  0  0  0
   60.1260   31.4370   49.9470 N   0  0  0  0  0  0  0  0  0  0  0  0
   60.3220   32.7360   50.5340 C   0  0  0  0  0  0  0  0  0  0  0  0
   60.0680   32.9100   51.7560 O   0  0  0  0  0  0  0  0  0  0  0  0
   60.7500   33.8600   49.7530 N   0  0  0  0  0  0  0  0  0  0  0  0
   59.8950   34.5780   48.8180 C   0  0  0  0  0  0  0  0  0  0  0  0
   60.0120   33.9910   47.4420 C   0  0  0  0  0  0  0  0  0  0  0  0
   61.0900   34.1270   46.8040 O   0  0  0  0  0  0  0  0  0  0  0  0
   58.9270   33.2850   46.8230 N   0  0  0  0  0  0  0  0  0  0  0  0
   58.9680   31.9590   46.2730 C   0  0  0  0  0  0  0  0  0  0  0  0
   60.1770   31.2520   46.2980 C   0  0  0  0  0  0  0  0  0  0  0  0
   60.2540   29.9660   45.7560 C   0  0  0  0  0  0  0  0  0  0  0  0
   59.1200   29.3710   45.1970 C   0  0  0  0  0  0  0  0  0  0  0  0
   57.8960   30.0510   45.2010 C   0  0  0  0  0  0  0  0  0  0  0  0
   56.4680   29.3140   44.4800 S   0  0  0  0  0  0  0  0  0  0  0  0
   56.0000   27.9340   45.4090 N   0  0  0  0  0  0  0  0  0  0  0  0
   55.3390   30.3060   44.4560 O   0  0  0  0  0  0  0  0  0  0  0  0
   56.7690   28.8920   43.0690 O   0  0  0  0  0  0  0  0  0  0  0  0
   57.8180   31.3360   45.7540 C   0  0  0  0  0  0  0  0  0  0  0  0
   58.9200   30.6800   50.3020 C   0  0  0  0  0  0  0  0  0  0  0  0
   58.5430   29.7220   49.1680 C   0  0  0  0  0  0  0  0  0  0  0  0
   58.1760   27.2590   47.6910 C   0  0  0  0  0  0  0  0  0  0  0  0
   57.9670   26.1210   46.9050 C   0  0  0  0  0  0  0  0  0  0  0  0
   61.2125   25.3700   46.1446 H   0  0  0  0  0  0  0  0  0  0  0  0
   61.5922   27.3983   47.5429 H   0  0  0  0  0  0  0  0  0  0  0  0
   61.1842   28.8447   50.2227 H   0  0  0  0  0  0  0  0  0  0  0  0
   61.7852   28.8143   48.5235 H   0  0  0  0  0  0  0  0  0  0  0  0
   62.1760   31.0020   49.7640 H   0  0  0  0  0  0  0  0  0  0  0  0
   61.2566   31.1395   48.2088 H   0  0  0  0  0  0  0  0  0  0  0  0
   58.8502   34.5063   49.1545 H   0  0  0  0  0  0  0  0  0  0  0  0
   60.2109   35.6311   48.7836 H   0  0  0  0  0  0  0  0  0  0  0  0
   61.0703   31.7112   46.7465 H   0  0  0  0  0  0  0  0  0  0  0  0
   61.2094   29.4211   45.7695 H   0  0  0  0  0  0  0  0  0  0  0  0
   59.1890   28.3669   44.7531 H   0  0  0  0  0  0  0  0  0  0  0  0
   55.2410   27.4510   44.8780 H   0  0  0  0  0  0  0  0  0  0  0  0
   56.8518   31.8610   45.7826 H   0  0  0  0  0  0  0  0  0  0  0  0
   59.1108   30.1014   51.2179 H   0  0  0  0  0  0  0  0  0  0  0  0
   58.0908   31.3835   50.4677 H   0  0  0  0  0  0  0  0  0  0  0  0
   57.7476   29.0484   49.5195 H   0  0  0  0  0  0  0  0  0  0  0  0
   58.2008   30.3212   48.3113 H   0  0  0  0  0  0  0  0  0  0  0  0
   57.3152   27.7857   48.1287 H   0  0  0  0  0  0  0  0  0  0  0  0
   56.9441   25.7588   46.7248 H   0  0  0  0  0  0  0  0  0  0  0  0
  1  2  3  0
  2  3  1  0
  3  4  2  0
  4  5  1  0
  5  6  2  0
  6  7  1  0
  7  8  1  0
  8  9  1  0
  9 10  1  0
 10 11  1  0
 11 12  2  0
 11 13  1  0
 13 14  1  0
 14 15  1  0
 15 16  2  0
 15 17  1  0
 17 18  1  0
 18 19  2  0
 19 20  1  0
 20 21  2  0
 21 22  1  0
 22 23  1  0
 23 24  1  0
 23 25  2  0
 23 26  2  0
 22 27  2  0
 10 28  1  0
 28 29  1  0
  6 30  1  0
 30 31  2  0
 31  3  1  0
 29  7  1  0
 27 18  1  0
  4 32  1  0
  5 33  1  0
  8 34  1  0
  8 35  1  0
  9 36  1  0
  9 37  1  0
 14 38  1  0
 14 39  1  0
 19 40  1  0
 20 41  1  0
 21 42  1  0
 24 43  1  0
 27 44  1  0
 28 45  1  0
 28 46  1  0
 29 47  1  0
 29 48  1  0
 30 49  1  0
 31 50  1  0
M  CHG  3  13  -1  17  -1  24  -1
M  END
>  <UniqueID>  (31) 
31

>  <SMILES>  (31) 
N#Cc1ccc(N2CCN(C(=O)[N-]CC(=O)[N-]c3cccc(S([NH-])(=O)=O)c3)CC2)cc1

>  <Energy>  (31) 
57.64644052343676

>  <Genealogy>  (31) 
N#Cc1ccc(N2CCN(C(=O)[N-]CC(=O)[N-]c3cccc(S([NH-])(=O)=O)c3)CC2)cc1 (protonated)
N#Cc1ccc(N2CCN(C(=O)[N-]CC(=O)[N-]c3cccc(S([NH-])(=O)=O)c3)CC2)cc1 (3D coordinates assigned)
N#Cc1ccc(N2CCN(C(=O)[N-]CC(=O)[N-]c3cccc(S([NH-])(=O)=O)c3)CC2)cc1 (nonaromatic ring conformer: 57.64644052343676 kcal/mol)

>  <smiles>  (31) 
N#Cc1ccc(N2CCN(C(=O)NCC(=O)Nc3cccc(S(N)(=O)=O)c3)CC2)cc1

>  <score_type>  (31) 
oracle

>  <origin>  (31) 
adg

>  <m_score__min__energy>  (31) 
-14.779999999999999

>  <m_primary>  (31) 
energy

$$$$
31:0
     RDKit          3D

 52 55  0  0  0  0  0  0  0  0999 V2000
   60.2560   27.6380   48.5120 C   0  0  0  0  0  0  0  0  0  0  0  0
   58.8870   27.8240   48.1620 O   0  0  0  0  0  0  0  0  0  0  0  0
   58.4370   28.6510   47.1190 C   0  0  0  0  0  0  0  0  0  0  0  0
   58.6400   30.0440   47.1350 C   0  0  0  0  0  0  0  0  0  0  0  0
   58.1650   30.8510   46.0900 C   0  0  0  0  0  0  0  0  0  0  0  0
   58.4370   32.3030   46.0800 C   0  0  0  0  0  0  0  0  0  0  0  0
   57.6200   33.0740   45.5010 O   0  0  0  0  0  0  0  0  0  0  0  0
   59.6120   32.8500   46.7040 N   0  0  0  0  0  0  0  0  0  0  0  0
   60.8630   32.0720   46.7480 C   0  0  0  0  0  0  0  0  0  0  0  0
   62.0800   33.0070   46.7670 C   0  0  0  0  0  0  0  0  0  0  0  0
   62.0240   34.0110   47.8660 N   0  0  0  0  0  0  0  0  0  0  0  0
   62.7760   33.6040   49.0460 C   0  0  0  0  0  0  0  0  0  0  0  0
   62.4690   34.0720   50.1340 O   0  0  0  0  0  0  0  0  0  0  0  0
   63.9440   32.6380   48.9660 C   0  0  0  0  0  0  0  0  0  0  0  0
   64.2970   31.9280   50.2670 C   0  0  0  0  0  0  0  0  0  0  0  0
   65.1950   33.0330   49.7440 C   0  0  0  0  0  0  0  0  0  0  0  0
   60.6520   34.4380   48.2510 C   0  0  0  0  0  0  0  0  0  0  0  0
   59.6380   34.2560   47.1150 C   0  0  0  0  0  0  0  0  0  0  0  0
   57.4360   30.2660   45.0460 C   0  0  0  0  0  0  0  0  0  0  0  0
   57.2360   28.8860   45.0130 C   0  0  0  0  0  0  0  0  0  0  0  0
   57.7500   28.0700   46.0370 C   0  0  0  0  0  0  0  0  0  0  0  0
   57.5690   26.6020   45.9580 C   0  0  0  0  0  0  0  0  0  0  0  0
   58.7080   25.7840   45.8890 C   0  0  0  0  0  0  0  0  0  0  0  0
   58.5730   24.4020   45.7650 C   0  0  0  0  0  0  0  0  0  0  0  0
   57.3010   23.8410   45.7050 C   0  0  0  0  0  0  0  0  0  0  0  0
   56.2030   24.6350   45.7840 N   0  0  0  0  0  0  0  0  0  0  0  0
   56.2920   25.9870   45.9150 C   0  0  0  0  0  0  0  0  0  0  0  0
   55.1940   26.6720   46.0180 N   0  0  0  0  0  0  0  0  0  0  0  0
   60.3558   27.6244   49.6074 H   0  0  0  0  0  0  0  0  0  0  0  0
   60.6135   26.6830   48.0994 H   0  0  0  0  0  0  0  0  0  0  0  0
   60.8553   28.4630   48.0994 H   0  0  0  0  0  0  0  0  0  0  0  0
   59.1774   30.5053   47.9767 H   0  0  0  0  0  0  0  0  0  0  0  0
   60.8704   31.4504   47.6555 H   0  0  0  0  0  0  0  0  0  0  0  0
   60.9175   31.4370   45.8515 H   0  0  0  0  0  0  0  0  0  0  0  0
   62.9877   32.3987   46.8935 H   0  0  0  0  0  0  0  0  0  0  0  0
   62.0860   33.5595   45.8158 H   0  0  0  0  0  0  0  0  0  0  0  0
   62.5070   34.8630   47.4900 H   0  0  0  0  0  0  0  0  0  0  0  0
   63.7379   32.3246   47.9319 H   0  0  0  0  0  0  0  0  0  0  0  0
   63.6873   32.0953   51.1671 H   0  0  0  0  0  0  0  0  0  0  0  0
   64.4480   30.8794   50.5632 H   0  0  0  0  0  0  0  0  0  0  0  0
   65.2357   34.0011   50.2648 H   0  0  0  0  0  0  0  0  0  0  0  0
   66.2653   33.1166   49.5042 H   0  0  0  0  0  0  0  0  0  0  0  0
   60.3257   33.8391   49.1140 H   0  0  0  0  0  0  0  0  0  0  0  0
   60.6922   35.5102   48.4936 H   0  0  0  0  0  0  0  0  0  0  0  0
   58.6385   34.5544   47.4644 H   0  0  0  0  0  0  0  0  0  0  0  0
   59.9297   34.8827   46.2594 H   0  0  0  0  0  0  0  0  0  0  0  0
   57.0193   30.8984   44.2483 H   0  0  0  0  0  0  0  0  0  0  0  0
   56.6739   28.4338   44.1826 H   0  0  0  0  0  0  0  0  0  0  0  0
   59.7103   26.2351   45.9329 H   0  0  0  0  0  0  0  0  0  0  0  0
   59.4649   23.7601   45.7150 H   0  0  0  0  0  0  0  0  0  0  0  0
   57.1852   22.7528   45.5934 H   0  0  0  0  0  0  0  0  0  0  0  0
   55.1390   27.7100   45.9120 H   0  0  0  0  0  0  0  0  0  0  0  0
  1  2  1  0
  2  3  1  0
  3  4  2  0
  4  5  1  0
  5  6  1  0
  6  7  2  0
  6  8  1  0
  8  9  1  0
  9 10  1  0
 10 11  1  0
 11 12  1  0
 12 13  2  0
 12 14  1  0
 14 15  1  0
 15 16  1  0
 11 17  1  0
 17 18  1  0
  5 19  2  0
 19 20  1  0
 20 21  2  0
 21 22  1  0
 22 23  2  0
 23 24  1  0
 24 25  2  0
 25 26  1  0
 26 27  1  0
 27 28  2  3
 21  3  1  0
 27 22  1  0
 18  8  1  0
 16 14  1  0
  1 29  1  0
  1 30  1  0
  1 31  1  0
  4 32  1  0
  9 33  1  0
  9 34  1  0
 10 35  1  0
 10 36  1  0
 11 37  1  0
 14 38  1  0
 15 39  1  0
 15 40  1  0
 16 41  1  0
 16 42  1  0
 17 43  1  0
 17 44  1  0
 18 45  1  0
 18 46  1  0
 19 47  1  0
 20 48  1  0
 23 49  1  0
 24 50  1  0
 25 51  1  0
 28 52  1  0
M  CHG  2  11   1  26  -1
M  END
>  <UniqueID>  (32) 
32

>  <SMILES>  (32) 
COc1cc(C(=O)N2CC[NH+](C(=O)C3CC3)CC2)ccc1-c1ccc[n-]c1=N

>  <Energy>  (32) 
342.5929339944254

>  <Genealogy>  (32) 
COc1cc(C(=O)N2CC[NH+](C(=O)C3CC3)CC2)ccc1-c1ccc[n-]c1=N (protonated)
COc1cc(C(=O)N2CC[NH+](C(=O)C3CC3)CC2)ccc1-c1ccc[n-]c1=N (3D coordinates assigned)
COc1cc(C(=O)N2CC[NH+](C(=O)C3CC3)CC2)ccc1-c1ccc[n-]c1=N (nonaromatic ring conformer: 342.5929339944254 kcal/mol)

>  <smiles>  (32) 
COc1cc(C(=O)N2CCN(C(=O)C3CC3)CC2)ccc1-c1ccc[nH]c1=N

>  <score_type>  (32) 
oracle

>  <origin>  (32) 
adg

>  <m_score__min__energy>  (32) 
-8.9600000000000009

>  <m_primary>  (32) 
energy

$$$$
32:0
     RDKit          3D

 37 39  0  0  0  0  0  0  0  0999 V2000
   54.7860   26.3410   45.6390 O   0  0  0  0  0  0  0  0  0  0  0  0
   55.8750   25.9310   46.1260 C   0  0  0  0  0  0  0  0  0  0  0  0
   55.8980   24.7100   46.8760 N   0  0  0  0  0  0  0  0  0  0  0  0
   55.1850   23.5020   46.4760 C   0  0  0  0  0  0  0  0  0  0  0  0
   55.8340   22.8900   45.2650 C   0  0  0  0  0  0  0  0  0  0  0  0
   56.9890   22.1030   45.3870 C   0  0  0  0  0  0  0  0  0  0  0  0
   57.5910   21.5660   44.2470 C   0  0  0  0  0  0  0  0  0  0  0  0
   57.0330   21.8260   42.9930 C   0  0  0  0  0  0  0  0  0  0  0  0
   55.9170   22.5950   42.8890 N   0  0  0  0  0  0  0  0  0  0  0  0
   55.3130   23.1280   43.9850 C   0  0  0  0  0  0  0  0  0  0  0  0
   57.1240   26.7160   45.9280 C   0  0  0  0  0  0  0  0  0  0  0  0
   58.3900   26.1180   46.0630 C   0  0  0  0  0  0  0  0  0  0  0  0
   58.5150   24.7630   46.3610 O   0  0  0  0  0  0  0  0  0  0  0  0
   59.5110   26.8590   45.8850 N   0  0  0  0  0  0  0  0  0  0  0  0
   59.4540   28.1760   45.5720 C   0  0  0  0  0  0  0  0  0  0  0  0
   60.5310   28.8120   45.4070 O   0  0  0  0  0  0  0  0  0  0  0  0
   58.2440   28.7990   45.4280 N   0  0  0  0  0  0  0  0  0  0  0  0
   58.1910   30.2030   45.0980 C   0  0  0  0  0  0  0  0  0  0  0  0
   58.5240   31.1690   46.0620 C   0  0  0  0  0  0  0  0  0  0  0  0
   58.4790   32.5290   45.7400 C   0  0  0  0  0  0  0  0  0  0  0  0
   58.1020   32.9330   44.4560 C   0  0  0  0  0  0  0  0  0  0  0  0
   58.0620   34.2510   44.1440 F   0  0  0  0  0  0  0  0  0  0  0  0
   57.7670   31.9760   43.4920 C   0  0  0  0  0  0  0  0  0  0  0  0
   57.8100   30.6150   43.8110 C   0  0  0  0  0  0  0  0  0  0  0  0
   57.0820   28.0910   45.6040 C   0  0  0  0  0  0  0  0  0  0  0  0
   55.9680   28.6780   45.5020 O   0  0  0  0  0  0  0  0  0  0  0  0
   55.2053   22.7777   47.3037 H   0  0  0  0  0  0  0  0  0  0  0  0
   54.1454   23.7646   46.2307 H   0  0  0  0  0  0  0  0  0  0  0  0
   57.4202   21.9090   46.3802 H   0  0  0  0  0  0  0  0  0  0  0  0
   58.4947   20.9451   44.3355 H   0  0  0  0  0  0  0  0  0  0  0  0
   57.4976   21.4076   42.0880 H   0  0  0  0  0  0  0  0  0  0  0  0
   54.4122   23.7482   43.8668 H   0  0  0  0  0  0  0  0  0  0  0  0
   57.7070   24.2080   46.6170 H   0  0  0  0  0  0  0  0  0  0  0  0
   58.8211   30.8546   47.0734 H   0  0  0  0  0  0  0  0  0  0  0  0
   58.7406   33.2819   46.4981 H   0  0  0  0  0  0  0  0  0  0  0  0
   57.4694   32.2944   42.4820 H   0  0  0  0  0  0  0  0  0  0  0  0
   57.5445   29.8651   43.0513 H   0  0  0  0  0  0  0  0  0  0  0  0
  1  2  2  0
  2  3  1  0
  3  4  1  0
  4  5  1  0
  5  6  2  0
  6  7  1  0
  7  8  2  0
  8  9  1  0
  9 10  2  0
  2 11  1  0
 11 12  2  0
 12 13  1  0
 12 14  1  0
 14 15  1  0
 15 16  2  0
 15 17  1  0
 17 18  1  0
 18 19  2  0
 19 20  1  0
 20 21  2  0
 21 22  1  0
 21 23  1  0
 23 24  2  0
 17 25  1  0
 25 26  2  0
 10  5  1  0
 25 11  1  0
 24 18  1  0
  4 27  1  0
  4 28  1  0
  6 29  1  0
  7 30  1  0
  8 31  1  0
 10 32  1  0
 13 33  1  0
 19 34  1  0
 20 35  1  0
 23 36  1  0
 24 37  1  0
M  CHG  2   3  -1  14  -1
M  END
>  <UniqueID>  (33) 
33

>  <SMILES>  (33) 
O=C([N-]Cc1cccnc1)c1c(O)[n-]c(=O)n(-c2ccc(F)cc2)c1=O

>  <Energy>  (33) 
53.54328914166055

>  <Genealogy>  (33) 
O=C([N-]Cc1cccnc1)c1c(O)[n-]c(=O)n(-c2ccc(F)cc2)c1=O (protonated)
O=C([N-]Cc1cccnc1)c1c(O)[n-]c(=O)n(-c2ccc(F)cc2)c1=O (3D coordinates assigned)
O=C([N-]Cc1cccnc1)c1c(O)[n-]c(=O)n(-c2ccc(F)cc2)c1=O (optimized conformer: 53.54328914166055 kcal/mol)

>  <smiles>  (33) 
O=C(NCc1cccnc1)c1c(O)[nH]c(=O)n(-c2ccc(F)cc2)c1=O

>  <score_type>  (33) 
oracle

>  <origin>  (33) 
adg

>  <m_score__min__energy>  (33) 
-10.99

>  <m_primary>  (33) 
energy

$$$$
33:0
     RDKit          3D

 59 62  0  0  0  0  0  0  0  0999 V2000
   60.0513   27.3744   43.5298 H   0  0  0  0  0  0  0  0  0  0  0  0
   59.4690   27.8250   44.3470 C   0  0  0  0  0  0  0  0  0  0  0  0
   59.9400   27.7520   45.6580 C   0  0  0  0  0  0  0  0  0  0  0  0
   60.9002   27.2575   45.8668 H   0  0  0  0  0  0  0  0  0  0  0  0
   59.1960   28.3060   46.7140 C   0  0  0  0  0  0  0  0  0  0  0  0
   59.6830   28.2170   48.1090 C   0  0  0  0  0  0  0  0  0  0  0  0
   59.9770   27.0930   48.6020 O   0  0  0  0  0  0  0  0  0  0  0  0
   59.7950   29.4130   48.8960 N   0  0  0  0  0  0  0  0  0  0  0  0
   60.6800   30.3550   48.7500 C   0  0  0  0  0  0  0  0  0  0  0  0
   61.4510   30.5030   47.6390 N   0  0  0  0  0  0  0  0  0  0  0  0
   62.1760   31.6010   47.9260 C   0  0  0  0  0  0  0  0  0  0  0  0
   63.1320   32.2200   47.1230 C   0  0  0  0  0  0  0  0  0  0  0  0
   63.3860   31.8194   46.1305 H   0  0  0  0  0  0  0  0  0  0  0  0
   63.7620   33.3750   47.6240 C   0  0  0  0  0  0  0  0  0  0  0  0
   64.5226   33.8892   47.0182 H   0  0  0  0  0  0  0  0  0  0  0  0
   63.4230   33.8780   48.9010 C   0  0  0  0  0  0  0  0  0  0  0  0
   63.9207   34.7821   49.2816 H   0  0  0  0  0  0  0  0  0  0  0  0
   62.4530   33.2300   49.6890 C   0  0  0  0  0  0  0  0  0  0  0  0
   62.1810   33.6096   50.6850 H   0  0  0  0  0  0  0  0  0  0  0  0
   61.8490   32.0880   49.1600 C   0  0  0  0  0  0  0  0  0  0  0  0
   60.8990   31.3040   49.6990 N   0  0  0  0  0  0  0  0  0  0  0  0
   60.2350   31.4540   50.9980 C   0  0  0  0  0  0  0  0  0  0  0  0
   60.0314   30.4564   51.4143 H   0  0  0  0  0  0  0  0  0  0  0  0
   60.8986   32.0244   51.6646 H   0  0  0  0  0  0  0  0  0  0  0  0
   58.9050   32.2220   50.8590 C   0  0  0  0  0  0  0  0  0  0  0  0
   58.8008   32.5219   49.8058 H   0  0  0  0  0  0  0  0  0  0  0  0
   57.7050   31.3380   51.2210 C   0  0  0  0  0  0  0  0  0  0  0  0
   57.6152   31.2718   52.3153 H   0  0  0  0  0  0  0  0  0  0  0  0
   56.7869   31.7772   50.8036 H   0  0  0  0  0  0  0  0  0  0  0  0
   57.8523   30.3310   50.8036 H   0  0  0  0  0  0  0  0  0  0  0  0
   58.9190   33.4740   51.7410 C   0  0  0  0  0  0  0  0  0  0  0  0
   58.9157   33.1765   52.8000 H   0  0  0  0  0  0  0  0  0  0  0  0
   59.8238   34.0623   51.5282 H   0  0  0  0  0  0  0  0  0  0  0  0
   58.0276   34.0824   51.5282 H   0  0  0  0  0  0  0  0  0  0  0  0
   57.9820   28.9560   46.4250 C   0  0  0  0  0  0  0  0  0  0  0  0
   57.3953   29.3983   47.2436 H   0  0  0  0  0  0  0  0  0  0  0  0
   57.5080   29.0480   45.1030 C   0  0  0  0  0  0  0  0  0  0  0  0
   56.2410   29.7570   44.8070 C   0  0  0  0  0  0  0  0  0  0  0  0
   55.1490   29.1270   44.7970 O   0  0  0  0  0  0  0  0  0  0  0  0
   56.2540   31.1590   44.5150 N   0  0  0  0  0  0  0  0  0  0  0  0
   57.4370   31.8610   44.0390 C   0  0  0  0  0  0  0  0  0  0  0  0
   57.1458   32.5903   43.2687 H   0  0  0  0  0  0  0  0  0  0  0  0
   58.1452   31.1374   43.6090 H   0  0  0  0  0  0  0  0  0  0  0  0
   58.0880   32.5780   45.1870 C   0  0  0  0  0  0  0  0  0  0  0  0
   57.9350   32.1120   46.5030 C   0  0  0  0  0  0  0  0  0  0  0  0
   57.3421   31.2064   46.6991 H   0  0  0  0  0  0  0  0  0  0  0  0
   58.5350   32.7970   47.5650 C   0  0  0  0  0  0  0  0  0  0  0  0
   58.3985   32.4360   48.5951 H   0  0  0  0  0  0  0  0  0  0  0  0
   59.3100   33.9420   47.3240 C   0  0  0  0  0  0  0  0  0  0  0  0
   59.9120   34.7030   48.4670 C   0  0  0  0  0  0  0  0  0  0  0  0
   59.5687   34.2690   49.4177 H   0  0  0  0  0  0  0  0  0  0  0  0
   61.0089   34.6419   48.4109 H   0  0  0  0  0  0  0  0  0  0  0  0
   59.6001   35.7564   48.4109 H   0  0  0  0  0  0  0  0  0  0  0  0
   59.4640   34.4060   46.0080 C   0  0  0  0  0  0  0  0  0  0  0  0
   60.0598   35.3095   45.8115 H   0  0  0  0  0  0  0  0  0  0  0  0
   58.8630   33.7240   44.9470 C   0  0  0  0  0  0  0  0  0  0  0  0
   58.9978   34.0870   43.9174 H   0  0  0  0  0  0  0  0  0  0  0  0
   58.2610   28.4680   44.0680 C   0  0  0  0  0  0  0  0  0  0  0  0
   57.8967   28.5208   43.0314 H   0  0  0  0  0  0  0  0  0  0  0  0
  1  2  1  0
  2  3  2  0
  3  4  1  0
  3  5  1  0
  5  6  1  0
  6  7  2  0
  6  8  1  0
  8  9  2  0
  9 10  1  0
 10 11  1  0
 11 12  2  0
 12 13  1  0
 12 14  1  0
 14 15  1  0
 14 16  2  0
 16 17  1  0
 16 18  1  0
 18 19  1  0
 18 20  2  0
 20 21  1  0
 21 22  1  0
 22 23  1  0
 22 24  1  0
 22 25  1  0
 25 26  1  0
 25 27  1  0
 27 28  1  0
 27 29  1  0
 27 30  1  0
 25 31  1  0
 31 32  1  0
 31 33  1  0
 31 34  1  0
  5 35  2  0
 35 36  1  0
 35 37  1  0
 37 38  1  0
 38 39  2  0
 38 40  1  0
 40 41  1  0
 41 42  1  0
 41 43  1  0
 41 44  1  0
 44 45  2  0
 45 46  1  0
 45 47  1  0
 47 48  1  0
 47 49  2  0
 49 50  1  0
 50 51  1  0
 50 52  1  0
 50 53  1  0
 49 54  1  0
 54 55  1  0
 54 56  2  0
 56 57  1  0
 37 58  2  0
 58 59  1  0
 58  2  1  0
 21  9  1  0
 56 44  1  0
 20 11  1  0
M  CHG  2  10  -1  40  -1
M  END
>  <UniqueID>  (34) 
34

>  <SMILES>  (34) 
Cc1ccc(C[N-]C(=O)c2cccc(C(=O)/N=c3\[n-]c4ccccc4n3CC(C)C)c2)cc1

>  <Energy>  (34) 
90.22571767104584

>  <Genealogy>  (34) 
Cc1ccc(C[N-]C(=O)c2cccc(C(=O)N=c3[n-]c4ccccc4n3CC(C)C)c2)cc1 (protonated)
Cc1ccc(C[N-]C(=O)c2cccc(C(=O)/N=c3\[n-]c4ccccc4n3CC(C)C)c2)cc1 (cis-trans isomerization)
Cc1ccc(C[N-]C(=O)c2cccc(C(=O)/N=c3\[n-]c4ccccc4n3CC(C)C)c2)cc1 (3D coordinates assigned)
Cc1ccc(C[N-]C(=O)c2cccc(C(=O)/N=c3\[n-]c4ccccc4n3CC(C)C)c2)cc1 (optimized conformer: 90.22571767104584 kcal/mol)

>  <smiles>  (34) 
Cc1ccc(CNC(=O)c2cccc(C(=O)N=c3[nH]c4ccccc4n3CC(C)C)c2)cc1

>  <score_type>  (34) 
oracle

>  <origin>  (34) 
adg

>  <m_score__min__energy>  (34) 
-12.880000000000001

>  <m_primary>  (34) 
energy

$$$$
34:0
     RDKit          3D

 34 36  0  0  0  0  0  0  0  0999 V2000
   54.6050   24.0473   43.6144 H   0  0  0  0  0  0  0  0  0  0  0  0
   55.5370   23.5190   43.8640 C   0  0  0  0  0  0  0  0  0  0  0  0
   56.3670   24.0200   44.7910 C   0  0  0  0  0  0  0  0  0  0  0  0
   56.0990   25.3060   45.4720 C   0  0  0  0  0  0  0  0  0  0  0  0
   54.9390   25.5290   45.9050 O   0  0  0  0  0  0  0  0  0  0  0  0
   57.0980   26.3250   45.6200 N   0  0  0  0  0  0  0  0  0  0  0  0
   57.0080   27.5390   45.1630 C   0  0  0  0  0  0  0  0  0  0  0  0
   55.8910   28.2990   45.2440 N   0  0  0  0  0  0  0  0  0  0  0  0
   56.0740   29.5150   44.6660 C   0  0  0  0  0  0  0  0  0  0  0  0
   55.2882   30.2844   44.6407 H   0  0  0  0  0  0  0  0  0  0  0  0
   57.3330   29.7100   44.1090 C   0  0  0  0  0  0  0  0  0  0  0  0
   57.8290   30.9750   43.4840 C   0  0  0  0  0  0  0  0  0  0  0  0
   58.8225   30.7997   43.0456 H   0  0  0  0  0  0  0  0  0  0  0  0
   57.1257   31.2903   42.6992 H   0  0  0  0  0  0  0  0  0  0  0  0
   57.9270   32.0570   44.5230 C   0  0  0  0  0  0  0  0  0  0  0  0
   57.7430   33.4030   44.1640 C   0  0  0  0  0  0  0  0  0  0  0  0
   57.4946   33.6647   43.1249 H   0  0  0  0  0  0  0  0  0  0  0  0
   57.8750   34.4110   45.1250 C   0  0  0  0  0  0  0  0  0  0  0  0
   57.7218   35.4628   44.8416 H   0  0  0  0  0  0  0  0  0  0  0  0
   58.2010   34.0850   46.4440 C   0  0  0  0  0  0  0  0  0  0  0  0
   58.3012   34.8796   47.1980 H   0  0  0  0  0  0  0  0  0  0  0  0
   58.4000   32.7490   46.8060 C   0  0  0  0  0  0  0  0  0  0  0  0
   58.8590   32.3060   48.6050 Br  0  0  0  0  0  0  0  0  0  0  0  0
   58.2680   31.7380   45.8480 C   0  0  0  0  0  0  0  0  0  0  0  0
   58.4320   30.6884   46.1336 H   0  0  0  0  0  0  0  0  0  0  0  0
   58.2600   28.3260   44.3680 S   0  0  0  0  0  0  0  0  0  0  0  0
   57.5090   23.2890   45.1490 O   0  0  0  0  0  0  0  0  0  0  0  0
   57.6950   21.9330   44.7400 C   0  0  0  0  0  0  0  0  0  0  0  0
   57.1510   21.2667   45.4257 H   0  0  0  0  0  0  0  0  0  0  0  0
   58.7677   21.6906   44.7616 H   0  0  0  0  0  0  0  0  0  0  0  0
   57.1630   21.7440   43.3200 C   0  0  0  0  0  0  0  0  0  0  0  0
   57.1069   20.6697   43.0901 H   0  0  0  0  0  0  0  0  0  0  0  0
   57.8399   22.2383   42.6077 H   0  0  0  0  0  0  0  0  0  0  0  0
   55.8610   22.3210   43.2150 O   0  0  0  0  0  0  0  0  0  0  0  0
  1  2  1  0
  2  3  2  0
  3  4  1  0
  4  5  2  0
  4  6  1  0
  6  7  2  0
  7  8  1  0
  8  9  1  0
  9 10  1  0
  9 11  2  0
 11 12  1  0
 12 13  1  0
 12 14  1  0
 12 15  1  0
 15 16  2  0
 16 17  1  0
 16 18  1  0
 18 19  1  0
 18 20  2  0
 20 21  1  0
 20 22  1  0
 22 23  1  0
 22 24  2  0
 24 25  1  0
 11 26  1  0
  3 27  1  0
 27 28  1  0
 28 29  1  0
 28 30  1  0
 28 31  1  0
 31 32  1  0
 31 33  1  0
 31 34  1  0
 34  2  1  0
 26  7  1  0
 24 15  1  0
M  CHG  1   8  -1
M  END
>  <UniqueID>  (35) 
35

>  <SMILES>  (35) 
O=C(/N=c1\[n-]cc(Cc2cccc(Br)c2)s1)C1=COCCO1

>  <Energy>  (35) 
70.24103712395505

>  <Genealogy>  (35) 
O=C(N=c1[n-]cc(Cc2cccc(Br)c2)s1)C1=COCCO1 (protonated)
O=C(/N=c1\[n-]cc(Cc2cccc(Br)c2)s1)C1=COCCO1 (cis-trans isomerization)
O=C(/N=c1\[n-]cc(Cc2cccc(Br)c2)s1)C1=COCCO1 (3D coordinates assigned)
O=C(/N=c1\[n-]cc(Cc2cccc(Br)c2)s1)C1=COCCO1 (nonaromatic ring conformer: 70.24103712395505 kcal/mol)

>  <smiles>  (35) 
O=C(N=c1[nH]cc(Cc2cccc(Br)c2)s1)C1=COCCO1

>  <score_type>  (35) 
oracle

>  <origin>  (35) 
adg

>  <m_score__min__energy>  (35) 
-10.34

>  <m_primary>  (35) 
energy

$$$$
35:0
     RDKit          3D

 64 68  0  0  0  0  0  0  0  0999 V2000
   56.2910   25.6340   47.0160 O   0  0  0  0  0  0  0  0  0  0  0  0
   57.3150   26.2870   46.6750 C   0  0  0  0  0  0  0  0  0  0  0  0
   57.3590   26.9610   45.3410 C   0  0  0  0  0  0  0  0  0  0  0  0
   56.2580   28.0220   45.2440 C   0  0  0  0  0  0  0  0  0  0  0  0
   56.8330   29.3610   44.8990 C   0  0  0  0  0  0  0  0  0  0  0  0
   56.5850   29.9140   43.6810 N   0  0  0  0  0  0  0  0  0  0  0  0
   57.0830   31.1300   43.3400 C   0  0  0  0  0  0  0  0  0  0  0  0
   56.8280   31.6050   42.2020 O   0  0  0  0  0  0  0  0  0  0  0  0
   57.8760   31.8390   44.2580 C   0  0  0  0  0  0  0  0  0  0  0  0
   58.4150   33.1030   43.9690 C   0  0  0  0  0  0  0  0  0  0  0  0
   59.2040   33.7620   44.9160 C   0  0  0  0  0  0  0  0  0  0  0  0
   59.4790   33.1650   46.1590 C   0  0  0  0  0  0  0  0  0  0  0  0
   60.3190   33.8620   47.1610 C   0  0  0  0  0  0  0  0  0  0  0  0
   59.9360   34.9740   47.6180 O   0  0  0  0  0  0  0  0  0  0  0  0
   61.5630   33.3020   47.6220 N   0  0  0  0  0  0  0  0  0  0  0  0
   62.7380   34.1590   47.8220 C   0  0  0  0  0  0  0  0  0  0  0  0
   63.3120   33.9440   49.2240 C   0  0  0  0  0  0  0  0  0  0  0  0
   63.4470   32.5070   49.4940 N   0  0  0  0  0  0  0  0  0  0  0  0
   64.6140   31.9880   50.1600 C   0  0  0  0  0  0  0  0  0  0  0  0
   64.5160   30.8430   50.9680 C   0  0  0  0  0  0  0  0  0  0  0  0
   65.6500   30.3320   51.6080 C   0  0  0  0  0  0  0  0  0  0  0  0
   66.8870   30.9600   51.4480 C   0  0  0  0  0  0  0  0  0  0  0  0
   66.9950   32.0980   50.6460 C   0  0  0  0  0  0  0  0  0  0  0  0
   65.8650   32.6100   50.0000 C   0  0  0  0  0  0  0  0  0  0  0  0
   62.2650   31.6580   49.3010 C   0  0  0  0  0  0  0  0  0  0  0  0
   61.7010   31.8660   47.8950 C   0  0  0  0  0  0  0  0  0  0  0  0
   58.9200   31.9100   46.4560 C   0  0  0  0  0  0  0  0  0  0  0  0
   58.1260   31.2460   45.5130 C   0  0  0  0  0  0  0  0  0  0  0  0
   57.5980   30.0290   45.8040 N   0  0  0  0  0  0  0  0  0  0  0  0
   58.4210   26.4240   47.5740 N   0  0  0  0  0  0  0  0  0  0  0  0
   59.5250   27.3510   47.3550 C   0  0  0  0  0  0  0  0  0  0  0  0
   59.6680   28.2770   48.5320 C   0  0  0  0  0  0  0  0  0  0  0  0
   58.8550   29.4190   48.6300 C   0  0  0  0  0  0  0  0  0  0  0  0
   58.9630   30.2660   49.7370 C   0  0  0  0  0  0  0  0  0  0  0  0
   59.8800   29.9810   50.7520 C   0  0  0  0  0  0  0  0  0  0  0  0
   60.6910   28.8470   50.6640 C   0  0  0  0  0  0  0  0  0  0  0  0
   60.5850   27.9940   49.5600 C   0  0  0  0  0  0  0  0  0  0  0  0
   58.3393   27.4425   45.2100 H   0  0  0  0  0  0  0  0  0  0  0  0
   57.2004   26.2083   44.5547 H   0  0  0  0  0  0  0  0  0  0  0  0
   55.5411   27.7264   44.4638 H   0  0  0  0  0  0  0  0  0  0  0  0
   55.7559   28.0967   46.2199 H   0  0  0  0  0  0  0  0  0  0  0  0
   58.2160   33.5753   42.9957 H   0  0  0  0  0  0  0  0  0  0  0  0
   59.6136   34.7568   44.6868 H   0  0  0  0  0  0  0  0  0  0  0  0
   63.5034   33.9079   47.0729 H   0  0  0  0  0  0  0  0  0  0  0  0
   62.4390   35.2119   47.7125 H   0  0  0  0  0  0  0  0  0  0  0  0
   64.3005   34.4220   49.2906 H   0  0  0  0  0  0  0  0  0  0  0  0
   62.6326   34.3895   49.9656 H   0  0  0  0  0  0  0  0  0  0  0  0
   63.5433   30.3461   51.0980 H   0  0  0  0  0  0  0  0  0  0  0  0
   65.5673   29.4342   52.2382 H   0  0  0  0  0  0  0  0  0  0  0  0
   67.7770   30.5579   51.9541 H   0  0  0  0  0  0  0  0  0  0  0  0
   67.9698   32.5923   50.5221 H   0  0  0  0  0  0  0  0  0  0  0  0
   65.9553   33.5030   49.3641 H   0  0  0  0  0  0  0  0  0  0  0  0
   62.5487   30.6029   49.4281 H   0  0  0  0  0  0  0  0  0  0  0  0
   61.4991   31.9282   50.0429 H   0  0  0  0  0  0  0  0  0  0  0  0
   62.3835   31.4180   47.1578 H   0  0  0  0  0  0  0  0  0  0  0  0
   60.7135   31.3864   47.8251 H   0  0  0  0  0  0  0  0  0  0  0  0
   59.1075   31.4464   47.4358 H   0  0  0  0  0  0  0  0  0  0  0  0
   60.4572   26.7816   47.2255 H   0  0  0  0  0  0  0  0  0  0  0  0
   59.3198   27.9464   46.4531 H   0  0  0  0  0  0  0  0  0  0  0  0
   58.1315   29.6472   47.8334 H   0  0  0  0  0  0  0  0  0  0  0  0
   58.3246   31.1589   49.8091 H   0  0  0  0  0  0  0  0  0  0  0  0
   59.9634   30.6501   51.6211 H   0  0  0  0  0  0  0  0  0  0  0  0
   61.4134   28.6245   51.4632 H   0  0  0  0  0  0  0  0  0  0  0  0
   61.2211   27.0989   49.4959 H   0  0  0  0  0  0  0  0  0  0  0  0
  1  2  2  0
  2  3  1  0
  3  4  1  0
  4  5  1  0
  5  6  2  0
  6  7  1  0
  7  8  2  0
  7  9  1  0
  9 10  2  0
 10 11  1  0
 11 12  2  0
 12 13  1  0
 13 14  2  0
 13 15  1  0
 15 16  1  0
 16 17  1  0
 17 18  1  0
 18 19  1  0
 19 20  2  0
 20 21  1  0
 21 22  2  0
 22 23  1  0
 23 24  2  0
 18 25  1  0
 25 26  1  0
 12 27  1  0
 27 28  2  0
 28 29  1  0
  2 30  1  0
 30 31  1  0
 31 32  1  0
 32 33  2  0
 33 34  1  0
 34 35  2  0
 35 36  1  0
 36 37  2  0
 29  5  1  0
 37 32  1  0
 28  9  1  0
 26 15  1  0
 24 19  1  0
  3 38  1  0
  3 39  1  0
  4 40  1  0
  4 41  1  0
 10 42  1  0
 11 43  1  0
 16 44  1  0
 16 45  1  0
 17 46  1  0
 17 47  1  0
 20 48  1  0
 21 49  1  0
 22 50  1  0
 23 51  1  0
 24 52  1  0
 25 53  1  0
 25 54  1  0
 26 55  1  0
 26 56  1  0
 27 57  1  0
 31 58  1  0
 31 59  1  0
 33 60  1  0
 34 61  1  0
 35 62  1  0
 36 63  1  0
 37 64  1  0
M  CHG  2  29  -1  30  -1
M  END
>  <UniqueID>  (36) 
36

>  <SMILES>  (36) 
O=C(CCc1nc(=O)c2ccc(C(=O)N3CCN(c4ccccc4)CC3)cc2[n-]1)[N-]Cc1ccccc1

>  <Energy>  (36) 
75.92135949131668

>  <Genealogy>  (36) 
O=C(CCc1nc(=O)c2ccc(C(=O)N3CCN(c4ccccc4)CC3)cc2[n-]1)[N-]Cc1ccccc1 (protonated)
O=C(CCc1nc(=O)c2ccc(C(=O)N3CCN(c4ccccc4)CC3)cc2[n-]1)[N-]Cc1ccccc1 (3D coordinates assigned)
O=C(CCc1nc(=O)c2ccc(C(=O)N3CCN(c4ccccc4)CC3)cc2[n-]1)[N-]Cc1ccccc1 (nonaromatic ring conformer: 75.92135949131668 kcal/mol)

>  <smiles>  (36) 
O=C(CCc1nc(=O)c2ccc(C(=O)N3CCN(c4ccccc4)CC3)cc2[nH]1)NCc1ccccc1

>  <score_type>  (36) 
oracle

>  <origin>  (36) 
adg

>  <m_score__min__energy>  (36) 
-14.119999999999999

>  <m_primary>  (36) 
energy

$$$$
36:0
     RDKit          3D

 51 54  0  0  0  0  0  0  0  0999 V2000
   57.3610   24.0050   43.9800 C   0  0  0  0  0  0  0  0  0  0  0  0
   57.4450   24.0640   45.3130 C   0  0  0  0  0  0  0  0  0  0  0  0
   56.9990   23.0740   46.1060 N   0  0  0  0  0  0  0  0  0  0  0  0
   57.1030   23.5500   47.3570 C   0  0  0  0  0  0  0  0  0  0  0  0
   56.6360   22.7120   48.6810 S   0  0  0  0  0  0  0  0  0  0  0  0
   57.6090   24.7970   47.4170 N   0  0  0  0  0  0  0  0  0  0  0  0
   57.8520   25.1270   46.1310 C   0  0  0  0  0  0  0  0  0  0  0  0
   58.4040   26.3130   45.8110 C   0  0  0  0  0  0  0  0  0  0  0  0
   57.6710   27.5170   45.3750 C   0  0  0  0  0  0  0  0  0  0  0  0
   58.3480   28.6010   44.8050 C   0  0  0  0  0  0  0  0  0  0  0  0
   57.6730   29.7340   44.4470 N   0  0  0  0  0  0  0  0  0  0  0  0
   58.4030   30.8340   43.7950 C   0  0  0  0  0  0  0  0  0  0  0  0
   58.1440   32.1490   44.4950 C   0  0  0  0  0  0  0  0  0  0  0  0
   57.5010   33.0440   43.8790 O   0  0  0  0  0  0  0  0  0  0  0  0
   58.6820   32.4280   45.8080 N   0  0  0  0  0  0  0  0  0  0  0  0
   59.2530   31.3410   46.6270 C   0  0  0  0  0  0  0  0  0  0  0  0
   59.6960   31.8380   48.0060 C   0  0  0  0  0  0  0  0  0  0  0  0
   60.4450   33.0920   47.8630 N   0  0  0  0  0  0  0  0  0  0  0  0
   61.7400   33.2430   48.4740 C   0  0  0  0  0  0  0  0  0  0  0  0
   61.8520   33.7300   49.7870 C   0  0  0  0  0  0  0  0  0  0  0  0
   63.1120   33.8690   50.3820 C   0  0  0  0  0  0  0  0  0  0  0  0
   64.2640   33.5240   49.6720 C   0  0  0  0  0  0  0  0  0  0  0  0
   64.1610   33.0380   48.3680 C   0  0  0  0  0  0  0  0  0  0  0  0
   62.9050   32.8910   47.7700 C   0  0  0  0  0  0  0  0  0  0  0  0
   59.8900   34.1860   47.0540 C   0  0  0  0  0  0  0  0  0  0  0  0
   58.5730   33.7810   46.3810 C   0  0  0  0  0  0  0  0  0  0  0  0
   56.3210   29.8140   44.6550 C   0  0  0  0  0  0  0  0  0  0  0  0
   55.6750   30.8400   44.3090 O   0  0  0  0  0  0  0  0  0  0  0  0
   55.6580   28.7850   45.2430 N   0  0  0  0  0  0  0  0  0  0  0  0
   56.2980   27.6500   45.6150 C   0  0  0  0  0  0  0  0  0  0  0  0
   55.6470   26.7210   46.1650 O   0  0  0  0  0  0  0  0  0  0  0  0
   57.7383   24.8374   43.3678 H   0  0  0  0  0  0  0  0  0  0  0  0
   56.9146   23.1241   43.4955 H   0  0  0  0  0  0  0  0  0  0  0  0
   56.6050   22.1500   45.8130 H   0  0  0  0  0  0  0  0  0  0  0  0
   59.4990   26.3911   45.8809 H   0  0  0  0  0  0  0  0  0  0  0  0
   59.4344   28.5405   44.6435 H   0  0  0  0  0  0  0  0  0  0  0  0
   59.4810   30.6173   43.8249 H   0  0  0  0  0  0  0  0  0  0  0  0
   58.0542   30.9170   42.7551 H   0  0  0  0  0  0  0  0  0  0  0  0
   58.4921   30.5576   46.7588 H   0  0  0  0  0  0  0  0  0  0  0  0
   60.1385   30.9496   46.1048 H   0  0  0  0  0  0  0  0  0  0  0  0
   58.8098   32.0111   48.6343 H   0  0  0  0  0  0  0  0  0  0  0  0
   60.3403   31.0806   48.4764 H   0  0  0  0  0  0  0  0  0  0  0  0
   60.9470   34.0030   50.3495 H   0  0  0  0  0  0  0  0  0  0  0  0
   63.1945   34.2506   51.4104 H   0  0  0  0  0  0  0  0  0  0  0  0
   65.2528   33.6354   50.1408 H   0  0  0  0  0  0  0  0  0  0  0  0
   65.0696   32.7699   47.8090 H   0  0  0  0  0  0  0  0  0  0  0  0
   62.8285   32.4986   46.7452 H   0  0  0  0  0  0  0  0  0  0  0  0
   59.7058   35.0531   47.7052 H   0  0  0  0  0  0  0  0  0  0  0  0
   60.6165   34.4327   46.2658 H   0  0  0  0  0  0  0  0  0  0  0  0
   57.7656   33.7940   47.1280 H   0  0  0  0  0  0  0  0  0  0  0  0
   58.3525   34.4935   45.5724 H   0  0  0  0  0  0  0  0  0  0  0  0
  1  2  2  0
  2  3  1  0
  3  4  1  0
  4  5  2  0
  4  6  1  0
  6  7  1  0
  7  8  2  3
  8  9  1  0
  9 10  2  0
 10 11  1  0
 11 12  1  0
 12 13  1  0
 13 14  2  0
 13 15  1  0
 15 16  1  0
 16 17  1  0
 17 18  1  0
 18 19  1  0
 19 20  2  0
 20 21  1  0
 21 22  2  0
 22 23  1  0
 23 24  2  0
 18 25  1  0
 25 26  1  0
 11 27  1  0
 27 28  2  0
 27 29  1  0
 29 30  1  0
 30 31  2  0
  7  2  1  0
 30  9  1  0
 26 15  1  0
 24 19  1  0
  1 32  1  0
  1 33  1  0
  3 34  1  0
  8 35  1  0
 10 36  1  0
 12 37  1  0
 12 38  1  0
 16 39  1  0
 16 40  1  0
 17 41  1  0
 17 42  1  0
 20 43  1  0
 21 44  1  0
 22 45  1  0
 23 46  1  0
 24 47  1  0
 25 48  1  0
 25 49  1  0
 26 50  1  0
 26 51  1  0
M  CHG  2   6  -1  29  -1
M  END
>  <UniqueID>  (37) 
37

>  <SMILES>  (37) 
C=c1[nH]c(=S)[n-]c1=Cc1cn(CC(=O)N2CCN(c3ccccc3)CC2)c(=O)[n-]c1=O

>  <Energy>  (37) 
104.80127750436861

>  <Genealogy>  (37) 
C=c1[nH]c(=S)[n-]c1=Cc1cn(CC(=O)N2CCN(c3ccccc3)CC2)c(=O)[n-]c1=O (protonated)
C=c1[nH]c(=S)[n-]c1=Cc1cn(CC(=O)N2CCN(c3ccccc3)CC2)c(=O)[n-]c1=O (3D coordinates assigned)
C=c1[nH]c(=S)[n-]c1=Cc1cn(CC(=O)N2CCN(c3ccccc3)CC2)c(=O)[n-]c1=O (nonaromatic ring conformer: 104.80127750436861 kcal/mol)

>  <smiles>  (37) 
C=c1[nH]c(=S)[nH]c1=Cc1cn(CC(=O)N2CCN(c3ccccc3)CC2)c(=O)[nH]c1=O

>  <score_type>  (37) 
oracle

>  <origin>  (37) 
adg

>  <m_score__min__energy>  (37) 
-11.800000000000001

>  <m_primary>  (37) 
energy

$$$$
37:0
     RDKit          3D

 57 60  0  0  0  0  0  0  0  0999 V2000
   57.0310   24.9210   47.1700 C   0  0  0  0  0  0  0  0  0  0  0  0
   56.2590   25.4710   45.6650 S   0  0  0  0  0  0  0  0  0  0  0  0
   54.9590   26.1510   45.9920 O   0  0  0  0  0  0  0  0  0  0  0  0
   55.9830   24.2900   44.7790 O   0  0  0  0  0  0  0  0  0  0  0  0
   57.2990   26.5930   44.8520 N   0  0  0  0  0  0  0  0  0  0  0  0
   58.1920   27.4300   45.5930 C   0  0  0  0  0  0  0  0  0  0  0  0
   57.9530   28.8130   45.7580 C   0  0  0  0  0  0  0  0  0  0  0  0
   56.7710   29.5070   45.2010 C   0  0  0  0  0  0  0  0  0  0  0  0
   55.5420   28.7980   45.0640 N   0  0  0  0  0  0  0  0  0  0  0  0
   56.8230   30.7180   44.8590 O   0  0  0  0  0  0  0  0  0  0  0  0
   58.8470   29.5500   46.4700 N   0  0  0  0  0  0  0  0  0  0  0  0
   59.9630   29.0040   47.0220 C   0  0  0  0  0  0  0  0  0  0  0  0
   60.9320   29.8500   47.7630 C   0  0  0  0  0  0  0  0  0  0  0  0
   61.5450   30.9320   47.1040 C   0  0  0  0  0  0  0  0  0  0  0  0
   62.4330   31.7700   47.7820 C   0  0  0  0  0  0  0  0  0  0  0  0
   62.7170   31.5440   49.1270 C   0  0  0  0  0  0  0  0  0  0  0  0
   62.1130   30.4820   49.8020 C   0  0  0  0  0  0  0  0  0  0  0  0
   61.2150   29.6260   49.1330 C   0  0  0  0  0  0  0  0  0  0  0  0
   60.5790   28.5720   49.8090 O   0  0  0  0  0  0  0  0  0  0  0  0
   59.8650   28.7140   51.0350 C   0  0  0  0  0  0  0  0  0  0  0  0
   58.9640   29.9150   50.9760 C   0  0  0  0  0  0  0  0  0  0  0  0
   57.7930   29.7600   50.5410 O   0  0  0  0  0  0  0  0  0  0  0  0
   59.3820   31.2430   51.3420 N   0  0  0  0  0  0  0  0  0  0  0  0
   59.7170   32.2420   50.5800 C   0  0  0  0  0  0  0  0  0  0  0  0
   60.4750   33.2600   51.0420 N   0  0  0  0  0  0  0  0  0  0  0  0
   60.6950   34.2050   50.0900 C   0  0  0  0  0  0  0  0  0  0  0  0
   60.1060   33.9390   48.8590 C   0  0  0  0  0  0  0  0  0  0  0  0
   60.2220   34.7820   47.6280 C   0  0  0  0  0  0  0  0  0  0  0  0
   59.2550   34.3000   46.5830 C   0  0  0  0  0  0  0  0  0  0  0  0
   57.9050   34.0900   46.9090 C   0  0  0  0  0  0  0  0  0  0  0  0
   57.0130   33.6050   45.9470 C   0  0  0  0  0  0  0  0  0  0  0  0
   57.4640   33.3200   44.6550 C   0  0  0  0  0  0  0  0  0  0  0  0
   58.8090   33.5130   44.3270 C   0  0  0  0  0  0  0  0  0  0  0  0
   59.7040   33.9980   45.2870 C   0  0  0  0  0  0  0  0  0  0  0  0
   59.3220   32.4540   48.9510 S   0  0  0  0  0  0  0  0  0  0  0  0
   60.1990   27.6730   46.8680 N   0  0  0  0  0  0  0  0  0  0  0  0
   59.3490   26.8830   46.1680 C   0  0  0  0  0  0  0  0  0  0  0  0
   59.6150   25.6590   46.0290 O   0  0  0  0  0  0  0  0  0  0  0  0
   56.4754   25.3168   48.0330 H   0  0  0  0  0  0  0  0  0  0  0  0
   57.0264   23.8215   47.2039 H   0  0  0  0  0  0  0  0  0  0  0  0
   58.0686   25.2845   47.2039 H   0  0  0  0  0  0  0  0  0  0  0  0
   57.1610   26.7620   43.8290 H   0  0  0  0  0  0  0  0  0  0  0  0
   55.5020   27.7630   45.1970 H   0  0  0  0  0  0  0  0  0  0  0  0
   61.3222   31.1197   46.0433 H   0  0  0  0  0  0  0  0  0  0  0  0
   62.9086   32.6093   47.2535 H   0  0  0  0  0  0  0  0  0  0  0  0
   63.4187   32.2039   49.6582 H   0  0  0  0  0  0  0  0  0  0  0  0
   62.3397   30.3117   50.8648 H   0  0  0  0  0  0  0  0  0  0  0  0
   59.2582   27.8130   51.2083 H   0  0  0  0  0  0  0  0  0  0  0  0
   60.5851   28.8462   51.8559 H   0  0  0  0  0  0  0  0  0  0  0  0
   61.2922   35.1093   50.2787 H   0  0  0  0  0  0  0  0  0  0  0  0
   59.9946   35.8283   47.8800 H   0  0  0  0  0  0  0  0  0  0  0  0
   61.2464   34.7078   47.2342 H   0  0  0  0  0  0  0  0  0  0  0  0
   57.5474   34.3081   47.9261 H   0  0  0  0  0  0  0  0  0  0  0  0
   55.9559   33.4477   46.2073 H   0  0  0  0  0  0  0  0  0  0  0  0
   56.7610   32.9441   43.8970 H   0  0  0  0  0  0  0  0  0  0  0  0
   59.1647   33.2831   43.3118 H   0  0  0  0  0  0  0  0  0  0  0  0
   60.7626   34.1432   45.0258 H   0  0  0  0  0  0  0  0  0  0  0  0
  1  2  1  0
  2  3  2  0
  2  4  2  0
  2  5  1  0
  5  6  1  0
  6  7  2  0
  7  8  1  0
  8  9  1  0
  8 10  2  0
  7 11  1  0
 11 12  1  0
 12 13  1  0
 13 14  2  0
 14 15  1  0
 15 16  2  0
 16 17  1  0
 17 18  2  0
 18 19  1  0
 19 20  1  0
 20 21  1  0
 21 22  2  0
 21 23  1  0
 23 24  2  3
 24 25  1  0
 25 26  1  0
 26 27  2  0
 27 28  1  0
 28 29  1  0
 29 30  2  0
 30 31  1  0
 31 32  2  0
 32 33  1  0
 33 34  2  0
 27 35  1  0
 12 36  2  0
 36 37  1  0
 37 38  2  0
 37  6  1  0
 18 13  1  0
 35 24  1  0
 34 29  1  0
  1 39  1  0
  1 40  1  0
  1 41  1  0
  5 42  1  0
  9 43  1  0
 14 44  1  0
 15 45  1  0
 16 46  1  0
 17 47  1  0
 20 48  1  0
 20 49  1  0
 26 50  1  0
 28 51  1  0
 28 52  1  0
 30 53  1  0
 31 54  1  0
 32 55  1  0
 33 56  1  0
 34 57  1  0
M  CHG  3   9  -1  11  -1  25  -1
M  END
>  <UniqueID>  (38) 
38

>  <SMILES>  (38) 
CS(=O)(=O)Nc1c(C([NH-])=O)[n-]c(-c2ccccc2OCC(=O)N=c2[n-]cc(Cc3ccccc3)s2)nc1=O

>  <Energy>  (38) 
99.21514423144832

>  <Genealogy>  (38) 
CS(=O)(=O)Nc1c(C([NH-])=O)[n-]c(-c2ccccc2OCC(=O)N=c2[n-]cc(Cc3ccccc3)s2)nc1=O (protonated)
CS(=O)(=O)Nc1c(C([NH-])=O)[n-]c(-c2ccccc2OCC(=O)N=c2[n-]cc(Cc3ccccc3)s2)nc1=O (3D coordinates assigned)
CS(=O)(=O)Nc1c(C([NH-])=O)[n-]c(-c2ccccc2OCC(=O)N=c2[n-]cc(Cc3ccccc3)s2)nc1=O (optimized conformer: 99.21514423144832 kcal/mol)

>  <smiles>  (38) 
CS(=O)(=O)Nc1c(C(N)=O)[nH]c(-c2ccccc2OCC(=O)N=c2[nH]cc(Cc3ccccc3)s2)nc1=O

>  <score_type>  (38) 
oracle

>  <origin>  (38) 
adg

>  <m_score__min__energy>  (38) 
-17.239999999999998

>  <m_primary>  (38) 
energy

$$$$
38:0
     RDKit          3D

 51 53  0  0  0  0  0  0  0  0999 V2000
   62.3980   34.3270   49.5490 C   0  0  0  0  0  0  0  0  0  0  0  0
   61.0320   33.7520   49.1850 C   0  0  0  0  0  0  0  0  0  0  0  0
   60.9610   33.4020   47.7530 N   0  0  0  0  0  0  0  0  0  0  0  0
   62.0600   32.6110   47.1700 C   0  0  0  0  0  0  0  0  0  0  0  0
   62.4060   31.3770   48.0190 C   0  0  0  0  0  0  0  0  0  0  0  0
   61.4330   30.3090   47.8030 N   0  0  0  0  0  0  0  0  0  0  0  0
   60.3800   30.0160   48.7330 C   0  0  0  0  0  0  0  0  0  0  0  0
   59.9270   30.9200   49.4860 O   0  0  0  0  0  0  0  0  0  0  0  0
   59.8530   28.6190   48.8610 C   0  0  0  0  0  0  0  0  0  0  0  0
   60.3440   27.7990   47.7640 N   0  0  0  0  0  0  0  0  0  0  0  0
   59.9950   28.0400   46.3970 C   0  0  0  0  0  0  0  0  0  0  0  0
   60.8990   28.1790   45.5280 O   0  0  0  0  0  0  0  0  0  0  0  0
   58.5710   28.0900   46.0070 C   0  0  0  0  0  0  0  0  0  0  0  0
   57.7380   27.0340   46.4110 C   0  0  0  0  0  0  0  0  0  0  0  0
   56.4000   27.0070   46.0170 C   0  0  0  0  0  0  0  0  0  0  0  0
   55.6590   26.0500   46.3640 O   0  0  0  0  0  0  0  0  0  0  0  0
   55.8950   28.0090   45.2530 N   0  0  0  0  0  0  0  0  0  0  0  0
   56.6520   29.0650   44.8550 C   0  0  0  0  0  0  0  0  0  0  0  0
   56.0720   30.0780   44.0850 C   0  0  0  0  0  0  0  0  0  0  0  0
   56.8290   31.1850   43.6940 C   0  0  0  0  0  0  0  0  0  0  0  0
   58.1650   31.2910   44.0820 C   0  0  0  0  0  0  0  0  0  0  0  0
   58.7580   30.2870   44.8510 C   0  0  0  0  0  0  0  0  0  0  0  0
   58.0190   29.1450   45.2330 C   0  0  0  0  0  0  0  0  0  0  0  0
   59.7570   33.6690   46.9820 C   0  0  0  0  0  0  0  0  0  0  0  0
   58.5040   33.1840   47.4100 C   0  0  0  0  0  0  0  0  0  0  0  0
   57.3500   33.4180   46.6570 C   0  0  0  0  0  0  0  0  0  0  0  0
   57.4260   34.1430   45.4670 C   0  0  0  0  0  0  0  0  0  0  0  0
   58.6550   34.6390   45.0320 C   0  0  0  0  0  0  0  0  0  0  0  0
   59.8120   34.4090   45.7810 C   0  0  0  0  0  0  0  0  0  0  0  0
   62.4982   34.3692   50.6436 H   0  0  0  0  0  0  0  0  0  0  0  0
   63.1886   33.6853   49.1329 H   0  0  0  0  0  0  0  0  0  0  0  0
   62.4917   35.3409   49.1329 H   0  0  0  0  0  0  0  0  0  0  0  0
   60.8531   32.8470   49.7842 H   0  0  0  0  0  0  0  0  0  0  0  0
   60.2676   34.5150   49.3939 H   0  0  0  0  0  0  0  0  0  0  0  0
   61.7609   32.2766   46.1657 H   0  0  0  0  0  0  0  0  0  0  0  0
   62.9523   33.2531   47.1309 H   0  0  0  0  0  0  0  0  0  0  0  0
   63.4064   31.0155   47.7388 H   0  0  0  0  0  0  0  0  0  0  0  0
   62.3856   31.6629   49.0810 H   0  0  0  0  0  0  0  0  0  0  0  0
   61.5850   29.6720   46.9890 H   0  0  0  0  0  0  0  0  0  0  0  0
   60.1893   28.1890   49.8160 H   0  0  0  0  0  0  0  0  0  0  0  0
   58.7537   28.6436   48.8292 H   0  0  0  0  0  0  0  0  0  0  0  0
   58.1414   26.2264   47.0395 H   0  0  0  0  0  0  0  0  0  0  0  0
   55.0160   30.0029   43.7862 H   0  0  0  0  0  0  0  0  0  0  0  0
   56.3712   31.9741   43.0794 H   0  0  0  0  0  0  0  0  0  0  0  0
   58.7543   32.1697   43.7808 H   0  0  0  0  0  0  0  0  0  0  0  0
   59.8086   30.3862   45.1616 H   0  0  0  0  0  0  0  0  0  0  0  0
   58.4339   32.6143   48.3484 H   0  0  0  0  0  0  0  0  0  0  0  0
   56.3805   33.0301   47.0029 H   0  0  0  0  0  0  0  0  0  0  0  0
   56.5179   34.3231   44.8728 H   0  0  0  0  0  0  0  0  0  0  0  0
   58.7136   35.2134   44.0957 H   0  0  0  0  0  0  0  0  0  0  0  0
   60.7754   34.8086   45.4313 H   0  0  0  0  0  0  0  0  0  0  0  0
  1  2  1  0
  2  3  1  0
  3  4  1  0
  4  5  1  0
  5  6  1  0
  6  7  1  0
  7  8  2  0
  7  9  1  0
  9 10  1  0
 10 11  1  0
 11 12  2  0
 11 13  1  0
 13 14  2  0
 14 15  1  0
 15 16  2  0
 15 17  1  0
 17 18  1  0
 18 19  2  0
 19 20  1  0
 20 21  2  0
 21 22  1  0
 22 23  2  0
  3 24  1  0
 24 25  2  0
 25 26  1  0
 26 27  2  0
 27 28  1  0
 28 29  2  0
 23 13  1  0
 29 24  1  0
 23 18  1  0
  1 30  1  0
  1 31  1  0
  1 32  1  0
  2 33  1  0
  2 34  1  0
  4 35  1  0
  4 36  1  0
  5 37  1  0
  5 38  1  0
  6 39  1  0
  9 40  1  0
  9 41  1  0
 14 42  1  0
 19 43  1  0
 20 44  1  0
 21 45  1  0
 22 46  1  0
 25 47  1  0
 26 48  1  0
 27 49  1  0
 28 50  1  0
 29 51  1  0
M  CHG  2  10  -1  17  -1
M  END
>  <UniqueID>  (39) 
39

>  <SMILES>  (39) 
CCN(CCNC(=O)C[N-]C(=O)c1cc(=O)[n-]c2ccccc12)c1ccccc1

>  <Energy>  (39) 
57.83436245243255

>  <Genealogy>  (39) 
CCN(CCNC(=O)C[N-]C(=O)c1cc(=O)[n-]c2ccccc12)c1ccccc1 (protonated)
CCN(CCNC(=O)C[N-]C(=O)c1cc(=O)[n-]c2ccccc12)c1ccccc1 (3D coordinates assigned)
CCN(CCNC(=O)C[N-]C(=O)c1cc(=O)[n-]c2ccccc12)c1ccccc1 (optimized conformer: 57.83436245243255 kcal/mol)

>  <smiles>  (39) 
CCN(CCNC(=O)CNC(=O)c1cc(=O)[nH]c2ccccc12)c1ccccc1

>  <score_type>  (39) 
oracle

>  <origin>  (39) 
adg

>  <m_score__min__energy>  (39) 
-11.460000000000001

>  <m_primary>  (39) 
energy

$$$$
39:0
     RDKit          3D

 82 87  0  0  0  0  0  0  0  0999 V2000
   57.6370   33.9230   45.8170 C   0  0  0  0  0  0  0  0  0  0  0  0
   58.8760   33.5330   46.5110 N   0  0  0  0  0  0  0  0  0  0  0  0
   59.7530   34.6880   46.7940 C   0  0  0  0  0  0  0  0  0  0  0  0
   61.0330   34.1830   47.3930 C   0  0  0  0  0  0  0  0  0  0  0  0
   62.0340   33.6380   46.5740 C   0  0  0  0  0  0  0  0  0  0  0  0
   63.2580   33.2420   47.1210 C   0  0  0  0  0  0  0  0  0  0  0  0
   63.4980   33.3850   48.4980 C   0  0  0  0  0  0  0  0  0  0  0  0
   62.5030   33.9530   49.3150 C   0  0  0  0  0  0  0  0  0  0  0  0
   61.2780   34.3510   48.7640 C   0  0  0  0  0  0  0  0  0  0  0  0
   62.7730   34.1140   50.7520 C   0  0  0  0  0  0  0  0  0  0  0  0
   63.8470   33.5330   51.2920 C   0  0  0  0  0  0  0  0  0  0  0  0
   64.7380   32.6230   50.4620 C   0  0  0  0  0  0  0  0  0  0  0  0
   64.1750   31.1850   50.5220 C   0  0  0  0  0  0  0  0  0  0  0  0
   66.1560   32.6270   51.0690 C   0  0  0  0  0  0  0  0  0  0  0  0
   64.8040   33.0930   49.0510 N   0  0  0  0  0  0  0  0  0  0  0  0
   59.5730   32.3390   45.9640 C   0  0  0  0  0  0  0  0  0  0  0  0
   58.6680   31.1510   45.6930 C   0  0  0  0  0  0  0  0  0  0  0  0
   58.3700   30.0820   46.5510 C   0  0  0  0  0  0  0  0  0  0  0  0
   58.9700   29.7700   47.8710 C   0  0  0  0  0  0  0  0  0  0  0  0
   59.0760   28.5750   48.2550 O   0  0  0  0  0  0  0  0  0  0  0  0
   59.4350   30.8220   48.7350 N   0  0  0  0  0  0  0  0  0  0  0  0
   58.5170   31.8940   49.1370 C   0  0  0  0  0  0  0  0  0  0  0  0
   59.1830   32.8300   50.1570 C   0  0  0  0  0  0  0  0  0  0  0  0
   59.7390   32.1110   51.3420 N   0  0  0  0  0  0  0  0  0  0  0  0
   58.7930   32.0080   52.5020 C   0  0  0  0  0  0  0  0  0  0  0  0
   57.7810   33.1880   52.5720 C   0  0  0  0  0  0  0  0  0  0  0  0
   58.5020   34.5290   52.7560 C   0  0  0  0  0  0  0  0  0  0  0  0
   59.3190   34.5260   54.0560 C   0  0  0  0  0  0  0  0  0  0  0  0
   60.2830   33.3330   54.1070 C   0  0  0  0  0  0  0  0  0  0  0  0
   59.5420   32.0060   53.8690 C   0  0  0  0  0  0  0  0  0  0  0  0
   60.3480   30.7930   50.9870 C   0  0  0  0  0  0  0  0  0  0  0  0
   60.6750   30.6510   49.4970 C   0  0  0  0  0  0  0  0  0  0  0  0
   57.4260   29.2940   45.9830 N   0  0  0  0  0  0  0  0  0  0  0  0
   57.1910   29.8720   44.7910 C   0  0  0  0  0  0  0  0  0  0  0  0
   56.3110   29.3920   43.8230 C   0  0  0  0  0  0  0  0  0  0  0  0
   56.2320   30.0910   42.6090 C   0  0  0  0  0  0  0  0  0  0  0  0
   57.0360   31.2230   42.3910 C   0  0  0  0  0  0  0  0  0  0  0  0
   57.9060   31.6590   43.4000 C   0  0  0  0  0  0  0  0  0  0  0  0
   57.9300   30.9750   44.5770 N   0  0  0  0  0  0  0  0  0  0  0  0
   56.8624   34.1668   46.5589 H   0  0  0  0  0  0  0  0  0  0  0  0
   57.8313   34.8034   45.1869 H   0  0  0  0  0  0  0  0  0  0  0  0
   57.2919   33.0900   45.1869 H   0  0  0  0  0  0  0  0  0  0  0  0
   59.9686   35.2271   45.8597 H   0  0  0  0  0  0  0  0  0  0  0  0
   59.2555   35.3742   47.4951 H   0  0  0  0  0  0  0  0  0  0  0  0
   61.8543   33.5217   45.4950 H   0  0  0  0  0  0  0  0  0  0  0  0
   64.0365   32.8167   46.4706 H   0  0  0  0  0  0  0  0  0  0  0  0
   60.5059   34.7966   49.4084 H   0  0  0  0  0  0  0  0  0  0  0  0
   62.0934   34.7102   51.3786 H   0  0  0  0  0  0  0  0  0  0  0  0
   64.0898   33.7149   52.3493 H   0  0  0  0  0  0  0  0  0  0  0  0
   64.0561   30.8813   51.5725 H   0  0  0  0  0  0  0  0  0  0  0  0
   63.1978   31.1525   50.0181 H   0  0  0  0  0  0  0  0  0  0  0  0
   64.8704   30.4976   50.0181 H   0  0  0  0  0  0  0  0  0  0  0  0
   66.0850   32.6268   52.1667 H   0  0  0  0  0  0  0  0  0  0  0  0
   66.6997   31.7304   50.7366 H   0  0  0  0  0  0  0  0  0  0  0  0
   66.6946   33.5267   50.7366 H   0  0  0  0  0  0  0  0  0  0  0  0
   65.2900   32.3760   48.4630 H   0  0  0  0  0  0  0  0  0  0  0  0
   65.3630   33.9780   48.9990 H   0  0  0  0  0  0  0  0  0  0  0  0
   60.0555   32.6262   45.0181 H   0  0  0  0  0  0  0  0  0  0  0  0
   60.2909   32.0165   46.7325 H   0  0  0  0  0  0  0  0  0  0  0  0
   58.2302   32.4751   48.2482 H   0  0  0  0  0  0  0  0  0  0  0  0
   57.6289   31.4412   49.6020 H   0  0  0  0  0  0  0  0  0  0  0  0
   60.0035   33.3650   49.6564 H   0  0  0  0  0  0  0  0  0  0  0  0
   58.4062   33.5157   50.5264 H   0  0  0  0  0  0  0  0  0  0  0  0
   58.2636   31.0591   52.3310 H   0  0  0  0  0  0  0  0  0  0  0  0
   57.2005   33.2183   51.6382 H   0  0  0  0  0  0  0  0  0  0  0  0
   57.1193   33.0277   53.4360 H   0  0  0  0  0  0  0  0  0  0  0  0
   59.1775   34.6967   51.9042 H   0  0  0  0  0  0  0  0  0  0  0  0
   57.7520   35.3320   52.8088 H   0  0  0  0  0  0  0  0  0  0  0  0
   59.8995   35.4584   54.1163 H   0  0  0  0  0  0  0  0  0  0  0  0
   58.6222   34.4453   54.9033 H   0  0  0  0  0  0  0  0  0  0  0  0
   61.0509   33.4592   53.3296 H   0  0  0  0  0  0  0  0  0  0  0  0
   60.7426   33.3001   55.1058 H   0  0  0  0  0  0  0  0  0  0  0  0
   60.2716   31.1828   53.8757 H   0  0  0  0  0  0  0  0  0  0  0  0
   58.7990   31.8768   54.6698 H   0  0  0  0  0  0  0  0  0  0  0  0
   61.2792   30.6742   51.5604 H   0  0  0  0  0  0  0  0  0  0  0  0
   59.6059   30.0183   51.2301 H   0  0  0  0  0  0  0  0  0  0  0  0
   61.4026   31.4210   49.2009 H   0  0  0  0  0  0  0  0  0  0  0  0
   61.1088   29.6601   49.2972 H   0  0  0  0  0  0  0  0  0  0  0  0
   55.6993   28.4959   44.0044 H   0  0  0  0  0  0  0  0  0  0  0  0
   55.5386   29.7519   41.8253 H   0  0  0  0  0  0  0  0  0  0  0  0
   56.9829   31.7635   41.4344 H   0  0  0  0  0  0  0  0  0  0  0  0
   58.5545   32.5338   43.2444 H   0  0  0  0  0  0  0  0  0  0  0  0
  1  2  1  0
  2  3  1  0
  3  4  1  0
  4  5  2  0
  5  6  1  0
  6  7  2  0
  7  8  1  0
  8  9  2  0
  8 10  1  0
 10 11  2  0
 11 12  1  0
 12 13  1  0
 12 14  1  0
 12 15  1  0
  2 16  1  0
 16 17  1  0
 17 18  2  0
 18 19  1  0
 19 20  2  0
 19 21  1  0
 21 22  1  0
 22 23  1  0
 23 24  1  0
 24 25  1  0
 25 26  1  0
 26 27  1  0
 27 28  1  0
 28 29  1  0
 29 30  1  0
 24 31  1  0
 31 32  1  0
 18 33  1  0
 33 34  2  0
 34 35  1  0
 35 36  2  0
 36 37  1  0
 37 38  2  0
 38 39  1  0
  9  4  1  0
 39 17  1  0
 15  7  1  0
 32 21  1  0
 39 34  1  0
 30 25  1  0
  1 40  1  0
  1 41  1  0
  1 42  1  0
  3 43  1  0
  3 44  1  0
  5 45  1  0
  6 46  1  0
  9 47  1  0
 10 48  1  0
 11 49  1  0
 13 50  1  0
 13 51  1  0
 13 52  1  0
 14 53  1  0
 14 54  1  0
 14 55  1  0
 15 56  1  0
 15 57  1  0
 16 58  1  0
 16 59  1  0
 22 60  1  0
 22 61  1  0
 23 62  1  0
 23 63  1  0
 25 64  1  0
 26 65  1  0
 26 66  1  0
 27 67  1  0
 27 68  1  0
 28 69  1  0
 28 70  1  0
 29 71  1  0
 29 72  1  0
 30 73  1  0
 30 74  1  0
 31 75  1  0
 31 76  1  0
 32 77  1  0
 32 78  1  0
 35 79  1  0
 36 80  1  0
 37 81  1  0
 38 82  1  0
M  CHG  1  15   1
M  END
>  <UniqueID>  (40) 
40

>  <SMILES>  (40) 
CN(Cc1ccc2c(c1)C=CC(C)(C)[NH2+]2)Cc1c(C(=O)N2CCN(C3CCCCC3)CC2)nc2ccccn12

>  <Energy>  (40) 
150.1387174780242

>  <Genealogy>  (40) 
CN(Cc1ccc2c(c1)C=CC(C)(C)[NH2+]2)Cc1c(C(=O)N2CCN(C3CCCCC3)CC2)nc2ccccn12 (protonated)
CN(Cc1ccc2c(c1)C=CC(C)(C)[NH2+]2)Cc1c(C(=O)N2CCN(C3CCCCC3)CC2)nc2ccccn12 (3D coordinates assigned)
CN(Cc1ccc2c(c1)C=CC(C)(C)[NH2+]2)Cc1c(C(=O)N2CCN(C3CCCCC3)CC2)nc2ccccn12 (nonaromatic ring conformer: 150.1387174780242 kcal/mol)

>  <smiles>  (40) 
CN(Cc1ccc2c(c1)C=CC(C)(C)N2)Cc1c(C(=O)N2CCN(C3CCCCC3)CC2)nc2ccccn12

>  <score_type>  (40) 
oracle

>  <origin>  (40) 
adg

>  <m_score__min__energy>  (40) 
-9.3599999999999994

>  <m_primary>  (40) 
energy

$$$$
40:0
     RDKit          3D

 50 52  0  0  0  0  0  0  0  0999 V2000
   58.5660   22.7590   45.0140 C   0  0  0  0  0  0  0  0  0  0  0  0
   58.3720   24.1710   45.3570 N   0  0  0  0  0  0  0  0  0  0  0  0
   57.7850   24.9170   44.2360 C   0  0  0  0  0  0  0  0  0  0  0  0
   57.6870   26.3910   44.5690 C   0  0  0  0  0  0  0  0  0  0  0  0
   58.5250   27.2740   43.8680 C   0  0  0  0  0  0  0  0  0  0  0  0
   58.3900   28.6540   44.0120 C   0  0  0  0  0  0  0  0  0  0  0  0
   57.4050   29.1900   44.8430 C   0  0  0  0  0  0  0  0  0  0  0  0
   57.2710   30.5890   44.8870 O   0  0  0  0  0  0  0  0  0  0  0  0
   58.1650   31.5460   44.3080 C   0  0  0  0  0  0  0  0  0  0  0  0
   58.4610   32.7000   45.2430 C   0  0  0  0  0  0  0  0  0  0  0  0
   58.7810   33.9560   44.6990 C   0  0  0  0  0  0  0  0  0  0  0  0
   59.1240   35.0240   45.5340 C   0  0  0  0  0  0  0  0  0  0  0  0
   59.1590   34.8490   46.9190 C   0  0  0  0  0  0  0  0  0  0  0  0
   58.8390   33.6090   47.4830 C   0  0  0  0  0  0  0  0  0  0  0  0
   58.9290   33.4500   48.9060 N   0  0  0  0  0  0  0  0  0  0  0  0
   60.1180   33.1330   49.6440 C   0  0  0  0  0  0  0  0  0  0  0  0
   60.0630   33.0220   50.8990 O   0  0  0  0  0  0  0  0  0  0  0  0
   61.4220   32.9740   48.9490 C   0  0  0  0  0  0  0  0  0  0  0  0
   62.4050   33.9760   49.0700 C   0  0  0  0  0  0  0  0  0  0  0  0
   63.6430   33.8410   48.4370 C   0  0  0  0  0  0  0  0  0  0  0  0
   63.9200   32.7060   47.6750 C   0  0  0  0  0  0  0  0  0  0  0  0
   62.9590   31.7040   47.5430 C   0  0  0  0  0  0  0  0  0  0  0  0
   61.7150   31.8280   48.1740 C   0  0  0  0  0  0  0  0  0  0  0  0
   60.8140   30.8250   48.0240 F   0  0  0  0  0  0  0  0  0  0  0  0
   58.5140   32.5330   46.6400 C   0  0  0  0  0  0  0  0  0  0  0  0
   56.5800   28.3170   45.5760 C   0  0  0  0  0  0  0  0  0  0  0  0
   56.7130   26.9230   45.4530 C   0  0  0  0  0  0  0  0  0  0  0  0
   55.8090   26.0710   46.2510 C   0  0  0  0  0  0  0  0  0  0  0  0
   54.4140   26.0260   45.9620 N   0  0  0  0  0  0  0  0  0  0  0  0
   56.2810   25.3270   47.1520 O   0  0  0  0  0  0  0  0  0  0  0  0
   58.6476   22.1654   45.9365 H   0  0  0  0  0  0  0  0  0  0  0  0
   57.7082   22.4038   44.4241 H   0  0  0  0  0  0  0  0  0  0  0  0
   59.4878   22.6483   44.4241 H   0  0  0  0  0  0  0  0  0  0  0  0
   57.6910   24.2060   46.1520 H   0  0  0  0  0  0  0  0  0  0  0  0
   58.4182   24.7890   43.3457 H   0  0  0  0  0  0  0  0  0  0  0  0
   56.7738   24.5293   44.0431 H   0  0  0  0  0  0  0  0  0  0  0  0
   59.2978   26.8713   43.1967 H   0  0  0  0  0  0  0  0  0  0  0  0
   59.0666   29.3273   43.4652 H   0  0  0  0  0  0  0  0  0  0  0  0
   59.1103   31.0412   44.0598 H   0  0  0  0  0  0  0  0  0  0  0  0
   57.6799   31.9577   43.4107 H   0  0  0  0  0  0  0  0  0  0  0  0
   58.7615   34.0998   43.6086 H   0  0  0  0  0  0  0  0  0  0  0  0
   59.3669   36.0046   45.0987 H   0  0  0  0  0  0  0  0  0  0  0  0
   59.4395   35.6902   47.5699 H   0  0  0  0  0  0  0  0  0  0  0  0
   62.1954   34.8743   49.6693 H   0  0  0  0  0  0  0  0  0  0  0  0
   64.4010   34.6315   48.5397 H   0  0  0  0  0  0  0  0  0  0  0  0
   64.8959   32.6013   47.1784 H   0  0  0  0  0  0  0  0  0  0  0  0
   63.1795   30.8110   46.9397 H   0  0  0  0  0  0  0  0  0  0  0  0
   58.2981   31.5470   47.0773 H   0  0  0  0  0  0  0  0  0  0  0  0
   55.8201   28.7313   46.2550 H   0  0  0  0  0  0  0  0  0  0  0  0
   53.7520   26.7010   46.4050 H   0  0  0  0  0  0  0  0  0  0  0  0
  1  2  1  0
  2  3  1  0
  3  4  1  0
  4  5  2  0
  5  6  1  0
  6  7  2  0
  7  8  1  0
  8  9  1  0
  9 10  1  0
 10 11  2  0
 11 12  1  0
 12 13  2  0
 13 14  1  0
 14 15  1  0
 15 16  1  0
 16 17  2  0
 16 18  1  0
 18 19  2  0
 19 20  1  0
 20 21  2  0
 21 22  1  0
 22 23  2  0
 23 24  1  0
 14 25  2  0
  7 26  1  0
 26 27  2  0
 27 28  1  0
 28 29  1  0
 28 30  2  0
 27  4  1  0
 25 10  1  0
 23 18  1  0
  1 31  1  0
  1 32  1  0
  1 33  1  0
  2 34  1  0
  3 35  1  0
  3 36  1  0
  5 37  1  0
  6 38  1  0
  9 39  1  0
  9 40  1  0
 11 41  1  0
 12 42  1  0
 13 43  1  0
 19 44  1  0
 20 45  1  0
 21 46  1  0
 22 47  1  0
 25 48  1  0
 26 49  1  0
 29 50  1  0
M  CHG  2  15  -1  29  -1
M  END
>  <UniqueID>  (41) 
41

>  <SMILES>  (41) 
CNCc1ccc(OCc2cccc([N-]C(=O)c3ccccc3F)c2)cc1C([NH-])=O

>  <Energy>  (41) 
64.81268133832508

>  <Genealogy>  (41) 
CNCc1ccc(OCc2cccc([N-]C(=O)c3ccccc3F)c2)cc1C([NH-])=O (protonated)
CNCc1ccc(OCc2cccc([N-]C(=O)c3ccccc3F)c2)cc1C([NH-])=O (3D coordinates assigned)
CNCc1ccc(OCc2cccc([N-]C(=O)c3ccccc3F)c2)cc1C([NH-])=O (optimized conformer: 64.81268133832508 kcal/mol)

>  <smiles>  (41) 
CNCc1ccc(OCc2cccc(NC(=O)c3ccccc3F)c2)cc1C(N)=O

>  <score_type>  (41) 
oracle

>  <origin>  (41) 
adg

>  <m_score__min__energy>  (41) 
-12.75

>  <m_primary>  (41) 
energy

$$$$
41:0
     RDKit          3D

 34 35  0  0  0  0  0  0  0  0999 V2000
   58.2060   33.4690   52.3150 C   0  0  0  0  0  0  0  0  0  0  0  0
   59.3080   33.5680   51.5700 C   0  0  0  0  0  0  0  0  0  0  0  0
   59.3500   33.3290   50.1060 C   0  0  0  0  0  0  0  0  0  0  0  0
   58.7580   32.1600   49.5990 C   0  0  0  0  0  0  0  0  0  0  0  0
   58.7790   31.8850   48.2290 C   0  0  0  0  0  0  0  0  0  0  0  0
   59.3960   32.7730   47.3370 C   0  0  0  0  0  0  0  0  0  0  0  0
   59.4500   32.4570   45.8640 C   0  0  0  0  0  0  0  0  0  0  0  0
   58.3620   31.5260   45.4960 N   0  0  0  0  0  0  0  0  0  0  0  0
   57.1640   32.0110   45.0340 C   0  0  0  0  0  0  0  0  0  0  0  0
   56.9800   33.2500   44.8860 O   0  0  0  0  0  0  0  0  0  0  0  0
   56.1550   31.1610   44.7250 N   0  0  0  0  0  0  0  0  0  0  0  0
   56.2820   29.8210   44.8650 C   0  0  0  0  0  0  0  0  0  0  0  0
   55.2040   28.9970   44.5480 O   0  0  0  0  0  0  0  0  0  0  0  0
   57.4830   29.2780   45.3440 C   0  0  0  0  0  0  0  0  0  0  0  0
   57.6260   27.8050   45.5090 C   0  0  0  0  0  0  0  0  0  0  0  0
   58.8470   27.0710   45.0460 C   0  0  0  0  0  0  0  0  0  0  0  0
   56.6930   27.1440   46.0380 O   0  0  0  0  0  0  0  0  0  0  0  0
   58.5320   30.1710   45.6490 C   0  0  0  0  0  0  0  0  0  0  0  0
   59.6420   29.7180   46.0440 O   0  0  0  0  0  0  0  0  0  0  0  0
   60.0050   33.9340   47.8370 C   0  0  0  0  0  0  0  0  0  0  0  0
   59.9850   34.2110   49.2080 C   0  0  0  0  0  0  0  0  0  0  0  0
   58.2544   33.6618   53.3969 H   0  0  0  0  0  0  0  0  0  0  0  0
   57.2489   33.1945   51.8475 H   0  0  0  0  0  0  0  0  0  0  0  0
   60.2462   33.8447   52.0733 H   0  0  0  0  0  0  0  0  0  0  0  0
   58.2725   31.4533   50.2882 H   0  0  0  0  0  0  0  0  0  0  0  0
   58.3086   30.9664   47.8484 H   0  0  0  0  0  0  0  0  0  0  0  0
   59.3398   33.3884   45.2893 H   0  0  0  0  0  0  0  0  0  0  0  0
   60.4166   31.9840   45.6359 H   0  0  0  0  0  0  0  0  0  0  0  0
   55.1400   28.0560   44.9180 H   0  0  0  0  0  0  0  0  0  0  0  0
   59.4206   26.7262   45.9190 H   0  0  0  0  0  0  0  0  0  0  0  0
   58.5458   26.2041   44.4395 H   0  0  0  0  0  0  0  0  0  0  0  0
   59.4712   27.7437   44.4395 H   0  0  0  0  0  0  0  0  0  0  0  0
   60.5016   34.6312   47.1461 H   0  0  0  0  0  0  0  0  0  0  0  0
   60.4680   35.1233   49.5880 H   0  0  0  0  0  0  0  0  0  0  0  0
  1  2  2  0
  2  3  1  0
  3  4  2  0
  4  5  1  0
  5  6  2  0
  6  7  1  0
  7  8  1  0
  8  9  1  0
  9 10  2  0
  9 11  1  0
 11 12  1  0
 12 13  1  0
 12 14  2  0
 14 15  1  0
 15 16  1  0
 15 17  2  0
 14 18  1  0
 18 19  2  0
  6 20  1  0
 20 21  2  0
 21  3  1  0
 18  8  1  0
  1 22  1  0
  1 23  1  0
  2 24  1  0
  4 25  1  0
  5 26  1  0
  7 27  1  0
  7 28  1  0
 13 29  1  0
 16 30  1  0
 16 31  1  0
 16 32  1  0
 20 33  1  0
 21 34  1  0
M  CHG  1  11  -1
M  END
>  <UniqueID>  (42) 
42

>  <SMILES>  (42) 
C=Cc1ccc(Cn2c(=O)[n-]c(O)c(C(C)=O)c2=O)cc1

>  <Energy>  (42) 
43.62789813404423

>  <Genealogy>  (42) 
C=Cc1ccc(Cn2c(=O)[n-]c(O)c(C(C)=O)c2=O)cc1 (protonated)
C=Cc1ccc(Cn2c(=O)[n-]c(O)c(C(C)=O)c2=O)cc1 (3D coordinates assigned)
C=Cc1ccc(Cn2c(=O)[n-]c(O)c(C(C)=O)c2=O)cc1 (optimized conformer: 43.62789813404423 kcal/mol)

>  <smiles>  (42) 
C=Cc1ccc(Cn2c(=O)[nH]c(O)c(C(C)=O)c2=O)cc1

>  <score_type>  (42) 
oracle

>  <origin>  (42) 
adg

>  <m_score__min__energy>  (42) 
-8.9299999999999997

>  <m_primary>  (42) 
energy

$$$$
42:0
     RDKit          3D

 49 51  0  0  0  0  0  0  0  0999 V2000
   55.1350   26.3930   46.0250 N   0  0  0  0  0  0  0  0  0  0  0  0
   56.7680   25.8610   45.8050 S   0  0  0  0  0  0  0  0  0  0  0  0
   57.2060   25.0930   47.0210 O   0  0  0  0  0  0  0  0  0  0  0  0
   56.8450   24.9600   44.6050 O   0  0  0  0  0  0  0  0  0  0  0  0
   57.8100   27.2670   45.5610 C   0  0  0  0  0  0  0  0  0  0  0  0
   59.2070   27.1340   45.5970 C   0  0  0  0  0  0  0  0  0  0  0  0
   60.0210   28.2550   45.4380 C   0  0  0  0  0  0  0  0  0  0  0  0
   59.4500   29.5190   45.2550 C   0  0  0  0  0  0  0  0  0  0  0  0
   58.0580   29.6620   45.2480 C   0  0  0  0  0  0  0  0  0  0  0  0
   57.4570   30.9820   45.0070 C   0  0  0  0  0  0  0  0  0  0  0  0
   56.2610   31.0460   44.5840 O   0  0  0  0  0  0  0  0  0  0  0  0
   58.2170   32.1840   45.2970 N   0  0  0  0  0  0  0  0  0  0  0  0
   58.0590   33.1970   44.2410 C   0  0  0  0  0  0  0  0  0  0  0  0
   59.0070   34.3940   44.4910 C   0  0  0  0  0  0  0  0  0  0  0  0
   59.2270   34.6830   45.9340 N   0  0  0  0  0  0  0  0  0  0  0  0
   60.5460   34.2500   46.4480 C   0  0  0  0  0  0  0  0  0  0  0  0
   60.5540   34.2580   47.9850 C   0  0  0  0  0  0  0  0  0  0  0  0
   61.8910   33.8260   48.5310 C   0  0  0  0  0  0  0  0  0  0  0  0
   62.7770   33.0800   47.7400 C   0  0  0  0  0  0  0  0  0  0  0  0
   64.0280   32.7050   48.2500 C   0  0  0  0  0  0  0  0  0  0  0  0
   64.4010   33.0820   49.5480 C   0  0  0  0  0  0  0  0  0  0  0  0
   63.5220   33.8240   50.3400 C   0  0  0  0  0  0  0  0  0  0  0  0
   62.2690   34.1950   49.8380 C   0  0  0  0  0  0  0  0  0  0  0  0
   58.1120   34.2190   46.7920 C   0  0  0  0  0  0  0  0  0  0  0  0
   57.8180   32.7110   46.6230 C   0  0  0  0  0  0  0  0  0  0  0  0
   57.2400   28.5330   45.3860 C   0  0  0  0  0  0  0  0  0  0  0  0
   55.1530   27.4330   46.0490 H   0  0  0  0  0  0  0  0  0  0  0  0
   59.6604   26.1437   45.7509 H   0  0  0  0  0  0  0  0  0  0  0  0
   61.1153   28.1451   45.4565 H   0  0  0  0  0  0  0  0  0  0  0  0
   60.0946   30.3995   45.1168 H   0  0  0  0  0  0  0  0  0  0  0  0
   59.2290   31.9150   45.3270 H   0  0  0  0  0  0  0  0  0  0  0  0
   58.2967   32.7445   43.2670 H   0  0  0  0  0  0  0  0  0  0  0  0
   57.0202   33.5588   44.2481 H   0  0  0  0  0  0  0  0  0  0  0  0
   59.9796   34.1710   44.0279 H   0  0  0  0  0  0  0  0  0  0  0  0
   58.5306   35.2826   44.0511 H   0  0  0  0  0  0  0  0  0  0  0  0
   60.7573   33.2315   46.0902 H   0  0  0  0  0  0  0  0  0  0  0  0
   61.3156   34.9469   46.0847 H   0  0  0  0  0  0  0  0  0  0  0  0
   60.3353   35.2764   48.3386 H   0  0  0  0  0  0  0  0  0  0  0  0
   59.7906   33.5493   48.3386 H   0  0  0  0  0  0  0  0  0  0  0  0
   62.4902   32.7889   46.7187 H   0  0  0  0  0  0  0  0  0  0  0  0
   64.7184   32.1137   47.6305 H   0  0  0  0  0  0  0  0  0  0  0  0
   65.3863   32.7932   49.9426 H   0  0  0  0  0  0  0  0  0  0  0  0
   63.8145   34.1171   51.3591 H   0  0  0  0  0  0  0  0  0  0  0  0
   61.5772   34.7763   50.4653 H   0  0  0  0  0  0  0  0  0  0  0  0
   58.3731   34.4111   47.8431 H   0  0  0  0  0  0  0  0  0  0  0  0
   57.2088   34.7698   46.4904 H   0  0  0  0  0  0  0  0  0  0  0  0
   58.3681   32.1584   47.3989 H   0  0  0  0  0  0  0  0  0  0  0  0
   56.7299   32.5777   46.7140 H   0  0  0  0  0  0  0  0  0  0  0  0
   56.1458   28.6421   45.3567 H   0  0  0  0  0  0  0  0  0  0  0  0
  1  2  1  0
  2  3  2  0
  2  4  2  0
  2  5  1  0
  5  6  2  0
  6  7  1  0
  7  8  2  0
  8  9  1  0
  9 10  1  0
 10 11  2  0
 10 12  1  0
 12 13  1  0
 13 14  1  0
 14 15  1  0
 15 16  1  0
 16 17  1  0
 17 18  1  0
 18 19  2  0
 19 20  1  0
 20 21  2  0
 21 22  1  0
 22 23  2  0
 15 24  1  0
 24 25  1  0
  9 26  2  0
 26  5  1  0
 25 12  1  0
 23 18  1  0
  1 27  1  0
  6 28  1  0
  7 29  1  0
  8 30  1  0
 12 31  1  0
 13 32  1  0
 13 33  1  0
 14 34  1  0
 14 35  1  0
 16 36  1  0
 16 37  1  0
 17 38  1  0
 17 39  1  0
 19 40  1  0
 20 41  1  0
 21 42  1  0
 22 43  1  0
 23 44  1  0
 24 45  1  0
 24 46  1  0
 25 47  1  0
 25 48  1  0
 26 49  1  0
M  CHG  2   1  -1  12   1
M  END
>  <UniqueID>  (43) 
43

>  <SMILES>  (43) 
[NH-]S(=O)(=O)c1cccc(C(=O)[NH+]2CCN(CCc3ccccc3)CC2)c1

>  <Energy>  (43) 
72.71561713744501

>  <Genealogy>  (43) 
[NH-]S(=O)(=O)c1cccc(C(=O)[NH+]2CCN(CCc3ccccc3)CC2)c1 (protonated)
[NH-]S(=O)(=O)c1cccc(C(=O)[NH+]2CCN(CCc3ccccc3)CC2)c1 (3D coordinates assigned)
[NH-]S(=O)(=O)c1cccc(C(=O)[NH+]2CCN(CCc3ccccc3)CC2)c1 (nonaromatic ring conformer: 72.71561713744501 kcal/mol)

>  <smiles>  (43) 
NS(=O)(=O)c1cccc(C(=O)N2CCN(CCc3ccccc3)CC2)c1

>  <score_type>  (43) 
oracle

>  <origin>  (43) 
adg

>  <m_score__min__energy>  (43) 
-11.17

>  <m_primary>  (43) 
energy

$$$$
43:0
     RDKit          3D

 32 33  0  0  0  0  0  0  0  0999 V2000
   57.7900   32.4300   42.3740 C   0  0  0  0  0  0  0  0  0  0  0  0
   57.6820   31.7710   43.5300 C   0  0  0  0  0  0  0  0  0  0  0  0
   57.7700   30.4010   43.6800 C   0  0  0  0  0  0  0  0  0  0  0  0
   57.6030   30.1680   45.0330 C   0  0  0  0  0  0  0  0  0  0  0  0
   57.6150   28.8510   45.6880 C   0  0  0  0  0  0  0  0  0  0  0  0
   58.3160   28.6770   46.7230 O   0  0  0  0  0  0  0  0  0  0  0  0
   56.8090   27.7810   45.1700 N   0  0  0  0  0  0  0  0  0  0  0  0
   56.8740   26.4360   45.6700 C   0  0  0  0  0  0  0  0  0  0  0  0
   58.1280   25.8540   45.8860 C   0  0  0  0  0  0  0  0  0  0  0  0
   58.2260   24.5540   46.3770 C   0  0  0  0  0  0  0  0  0  0  0  0
   57.0730   23.8240   46.6690 C   0  0  0  0  0  0  0  0  0  0  0  0
   55.7970   24.3920   46.4880 C   0  0  0  0  0  0  0  0  0  0  0  0
   54.5740   23.6040   46.8120 C   0  0  0  0  0  0  0  0  0  0  0  0
   53.4660   23.4250   45.8170 C   0  0  0  0  0  0  0  0  0  0  0  0
   54.4330   23.0960   47.9570 O   0  0  0  0  0  0  0  0  0  0  0  0
   55.7070   25.7180   46.0010 C   0  0  0  0  0  0  0  0  0  0  0  0
   54.4670   26.3400   45.8830 O   0  0  0  0  0  0  0  0  0  0  0  0
   57.4240   31.3030   45.6720 O   0  0  0  0  0  0  0  0  0  0  0  0
   57.4650   32.2870   44.8040 C   0  0  0  0  0  0  0  0  0  0  0  0
   57.3160   33.5670   45.1490 C   0  0  0  0  0  0  0  0  0  0  0  0
   57.7054   33.5266   42.3561 H   0  0  0  0  0  0  0  0  0  0  0  0
   57.9636   31.8764   41.4394 H   0  0  0  0  0  0  0  0  0  0  0  0
   57.9374   29.6535   42.8906 H   0  0  0  0  0  0  0  0  0  0  0  0
   56.0340   28.0210   44.5110 H   0  0  0  0  0  0  0  0  0  0  0  0
   59.0416   26.4262   45.6669 H   0  0  0  0  0  0  0  0  0  0  0  0
   59.2159   24.1012   46.5351 H   0  0  0  0  0  0  0  0  0  0  0  0
   57.1617   22.7939   47.0446 H   0  0  0  0  0  0  0  0  0  0  0  0
   52.5160   23.2715   46.3498 H   0  0  0  0  0  0  0  0  0  0  0  0
   53.3915   24.3228   45.1857 H   0  0  0  0  0  0  0  0  0  0  0  0
   53.6780   22.5495   45.1857 H   0  0  0  0  0  0  0  0  0  0  0  0
   57.3592   34.3525   44.3801 H   0  0  0  0  0  0  0  0  0  0  0  0
   57.1500   33.8370   46.2023 H   0  0  0  0  0  0  0  0  0  0  0  0
  1  2  2  0
  2  3  1  0
  3  4  2  0
  4  5  1  0
  5  6  2  0
  5  7  1  0
  7  8  1  0
  8  9  2  0
  9 10  1  0
 10 11  2  0
 11 12  1  0
 12 13  1  0
 13 14  1  0
 13 15  2  0
 12 16  2  0
 16 17  1  0
  4 18  1  0
 18 19  1  0
 19 20  2  0
 19  2  1  0
 16  8  1  0
  1 21  1  0
  1 22  1  0
  3 23  1  0
  7 24  1  0
  9 25  1  0
 10 26  1  0
 11 27  1  0
 14 28  1  0
 14 29  1  0
 14 30  1  0
 20 31  1  0
 20 32  1  0
M  CHG  1  17  -1
M  END
>  <UniqueID>  (44) 
44

>  <SMILES>  (44) 
C=c1cc(C(=O)Nc2cccc(C(C)=O)c2[O-])oc1=C

>  <Energy>  (44) 
66.60512522799917

>  <Genealogy>  (44) 
C=c1cc(C(=O)Nc2cccc(C(C)=O)c2[O-])oc1=C (protonated)
C=c1cc(C(=O)Nc2cccc(C(C)=O)c2[O-])oc1=C (3D coordinates assigned)
C=c1cc(C(=O)Nc2cccc(C(C)=O)c2[O-])oc1=C (optimized conformer: 66.60512522799917 kcal/mol)

>  <smiles>  (44) 
C=c1cc(C(=O)Nc2cccc(C(C)=O)c2O)oc1=C

>  <score_type>  (44) 
oracle

>  <origin>  (44) 
adg

>  <m_score__min__energy>  (44) 
-10.76

>  <m_primary>  (44) 
energy

$$$$
44:0
     RDKit          3D

 49 52  0  0  0  0  0  0  0  0999 V2000
   57.3040   29.3660   43.3430 C   0  0  0  0  0  0  0  0  0  0  0  0
   58.0000   29.8470   44.3850 C   0  0  0  0  0  0  0  0  0  0  0  0
   58.4070   29.1420   45.5280 C   0  0  0  0  0  0  0  0  0  0  0  0
   58.4140   27.8220   45.8000 C   0  0  0  0  0  0  0  0  0  0  0  0
   57.2260   26.9580   45.8860 C   0  0  0  0  0  0  0  0  0  0  0  0
   57.2240   25.7000   46.3660 N   0  0  0  0  0  0  0  0  0  0  0  0
   55.9140   25.3730   46.3780 C   0  0  0  0  0  0  0  0  0  0  0  0
   55.5000   24.2460   46.7560 O   0  0  0  0  0  0  0  0  0  0  0  0
   55.0810   26.3520   45.9640 N   0  0  0  0  0  0  0  0  0  0  0  0
   55.9280   27.3520   45.6700 C   0  0  0  0  0  0  0  0  0  0  0  0
   55.5210   28.6020   45.2210 O   0  0  0  0  0  0  0  0  0  0  0  0
   58.8650   30.0910   46.4260 C   0  0  0  0  0  0  0  0  0  0  0  0
   58.7740   31.3150   45.7960 C   0  0  0  0  0  0  0  0  0  0  0  0
   59.1710   32.5920   46.4180 C   0  0  0  0  0  0  0  0  0  0  0  0
   58.8300   33.6710   45.8630 O   0  0  0  0  0  0  0  0  0  0  0  0
   59.9760   32.6240   47.6110 N   0  0  0  0  0  0  0  0  0  0  0  0
   59.7470   33.6580   48.6260 C   0  0  0  0  0  0  0  0  0  0  0  0
   61.0800   34.2740   49.0560 C   0  0  0  0  0  0  0  0  0  0  0  0
   62.0640   33.2390   49.4120 N   0  0  0  0  0  0  0  0  0  0  0  0
   63.2450   33.6100   50.1530 C   0  0  0  0  0  0  0  0  0  0  0  0
   63.2620   34.4550   51.1720 C   0  0  0  0  0  0  0  0  0  0  0  0
   64.6380   34.6350   51.7370 C   0  0  0  0  0  0  0  0  0  0  0  0
   65.5410   33.7230   50.8880 C   0  0  0  0  0  0  0  0  0  0  0  0
   64.5890   33.1100   49.9290 C   0  0  0  0  0  0  0  0  0  0  0  0
   64.9080   32.2390   49.0780 O   0  0  0  0  0  0  0  0  0  0  0  0
   61.7870   31.8240   49.1190 C   0  0  0  0  0  0  0  0  0  0  0  0
   61.0890   31.6750   47.7620 C   0  0  0  0  0  0  0  0  0  0  0  0
   58.2820   31.1670   44.5440 N   0  0  0  0  0  0  0  0  0  0  0  0
   58.0810   32.2290   43.5500 C   0  0  0  0  0  0  0  0  0  0  0  0
   57.0456   30.0265   42.5022 H   0  0  0  0  0  0  0  0  0  0  0  0
   56.9920   28.3113   43.3298 H   0  0  0  0  0  0  0  0  0  0  0  0
   59.3923   27.3497   45.9726 H   0  0  0  0  0  0  0  0  0  0  0  0
   59.2313   29.9048   47.4464 H   0  0  0  0  0  0  0  0  0  0  0  0
   59.1013   34.4435   48.2065 H   0  0  0  0  0  0  0  0  0  0  0  0
   59.2606   33.2030   49.5014 H   0  0  0  0  0  0  0  0  0  0  0  0
   61.4793   34.8763   48.2266 H   0  0  0  0  0  0  0  0  0  0  0  0
   60.9006   34.8987   49.9435 H   0  0  0  0  0  0  0  0  0  0  0  0
   62.3684   34.9663   51.5594 H   0  0  0  0  0  0  0  0  0  0  0  0
   64.9572   35.6841   51.6500 H   0  0  0  0  0  0  0  0  0  0  0  0
   64.6818   34.3795   52.8060 H   0  0  0  0  0  0  0  0  0  0  0  0
   66.3106   34.3073   50.3623 H   0  0  0  0  0  0  0  0  0  0  0  0
   66.0925   32.9818   51.4851 H   0  0  0  0  0  0  0  0  0  0  0  0
   62.7356   31.2674   49.0996 H   0  0  0  0  0  0  0  0  0  0  0  0
   61.1248   31.4252   49.9016 H   0  0  0  0  0  0  0  0  0  0  0  0
   61.8226   31.8571   46.9628 H   0  0  0  0  0  0  0  0  0  0  0  0
   60.6792   30.6561   47.6994 H   0  0  0  0  0  0  0  0  0  0  0  0
   57.9003   33.1840   44.0652 H   0  0  0  0  0  0  0  0  0  0  0  0
   58.9786   32.3163   42.9201 H   0  0  0  0  0  0  0  0  0  0  0  0
   57.2136   31.9823   42.9201 H   0  0  0  0  0  0  0  0  0  0  0  0
  1  2  2  0
  2  3  1  0
  3  4  2  3
  4  5  1  0
  5  6  1  0
  6  7  1  0
  7  8  2  0
  7  9  1  0
  9 10  1  0
 10 11  1  0
  3 12  1  0
 12 13  2  0
 13 14  1  0
 14 15  2  0
 14 16  1  0
 16 17  1  0
 17 18  1  0
 18 19  1  0
 19 20  1  0
 20 21  2  0
 21 22  1  0
 22 23  1  0
 23 24  1  0
 24 25  2  0
 19 26  1  0
 26 27  1  0
 13 28  1  0
 28 29  1  0
 28  2  1  0
 10  5  2  0
 27 16  1  0
 24 20  1  0
  1 30  1  0
  1 31  1  0
  4 32  1  0
 12 33  1  0
 17 34  1  0
 17 35  1  0
 18 36  1  0
 18 37  1  0
 21 38  1  0
 22 39  1  0
 22 40  1  0
 23 41  1  0
 23 42  1  0
 26 43  1  0
 26 44  1  0
 27 45  1  0
 27 46  1  0
 29 47  1  0
 29 48  1  0
 29 49  1  0
M  CHG  3   6  -1   9  -1  11  -1
M  END
>  <UniqueID>  (45) 
45

>  <SMILES>  (45) 
C=c1c(=Cc2[n-]c(=O)[n-]c2[O-])cc(C(=O)N2CCN(C3=CCCC3=O)CC2)n1C

>  <Energy>  (45) 
138.10021361571904

>  <Genealogy>  (45) 
C=c1c(=Cc2[n-]c(=O)[n-]c2[O-])cc(C(=O)N2CCN(C3=CCCC3=O)CC2)n1C (protonated)
C=c1c(=Cc2[n-]c(=O)[n-]c2[O-])cc(C(=O)N2CCN(C3=CCCC3=O)CC2)n1C (3D coordinates assigned)
C=c1c(=Cc2[n-]c(=O)[n-]c2[O-])cc(C(=O)N2CCN(C3=CCCC3=O)CC2)n1C (nonaromatic ring conformer: 138.10021361571904 kcal/mol)

>  <smiles>  (45) 
C=c1c(=Cc2[nH]c(=O)[nH]c2O)cc(C(=O)N2CCN(C3=CCCC3=O)CC2)n1C

>  <score_type>  (45) 
oracle

>  <origin>  (45) 
adg

>  <m_score__min__energy>  (45) 
-17.280000000000001

>  <m_primary>  (45) 
energy

$$$$
45:0
     RDKit          3D

 68 72  0  0  0  0  0  0  0  0999 V2000
   58.9070   34.3390   53.3170 C   0  0  0  0  0  0  0  0  0  0  0  0
   58.5650   33.8990   51.9540 N   0  0  0  0  0  0  0  0  0  0  0  0
   59.7730   33.8160   51.0920 C   0  0  0  0  0  0  0  0  0  0  0  0
   60.2440   32.3700   50.8700 C   0  0  0  0  0  0  0  0  0  0  0  0
   59.1740   31.5560   50.2460 N   0  0  0  0  0  0  0  0  0  0  0  0
   59.4630   30.1040   50.2630 C   0  0  0  0  0  0  0  0  0  0  0  0
   58.7990   29.3170   49.1090 C   0  0  0  0  0  0  0  0  0  0  0  0
   59.6880   29.2690   47.8610 C   0  0  0  0  0  0  0  0  0  0  0  0
   59.5190   30.4820   47.0420 N   0  0  0  0  0  0  0  0  0  0  0  0
   58.6140   30.4970   45.9200 C   0  0  0  0  0  0  0  0  0  0  0  0
   58.6590   29.4910   44.9370 C   0  0  0  0  0  0  0  0  0  0  0  0
   57.8800   29.6030   43.7800 C   0  0  0  0  0  0  0  0  0  0  0  0
   57.0610   30.7190   43.5890 C   0  0  0  0  0  0  0  0  0  0  0  0
   57.0110   31.7250   44.5570 C   0  0  0  0  0  0  0  0  0  0  0  0
   57.7810   31.6150   45.7220 C   0  0  0  0  0  0  0  0  0  0  0  0
   57.6470   32.8560   47.0110 S   0  0  0  0  0  0  0  0  0  0  0  0
   59.4210   32.9270   47.2760 C   0  0  0  0  0  0  0  0  0  0  0  0
   60.0620   34.1620   47.4110 C   0  0  0  0  0  0  0  0  0  0  0  0
   61.4290   34.2140   47.6930 C   0  0  0  0  0  0  0  0  0  0  0  0
   62.1680   33.0280   47.8330 C   0  0  0  0  0  0  0  0  0  0  0  0
   63.6200   33.0730   48.1050 C   0  0  0  0  0  0  0  0  0  0  0  0
   64.4160   33.1020   47.1250 O   0  0  0  0  0  0  0  0  0  0  0  0
   64.1450   33.0730   49.4480 N   0  0  0  0  0  0  0  0  0  0  0  0
   63.3550   33.5710   50.5810 C   0  0  0  0  0  0  0  0  0  0  0  0
   64.2380   34.4600   51.4630 C   0  0  0  0  0  0  0  0  0  0  0  0
   65.4620   33.7700   51.9460 N   0  0  0  0  0  0  0  0  0  0  0  0
   66.5870   34.7130   52.0600 C   0  0  0  0  0  0  0  0  0  0  0  0
   65.8440   32.5590   51.1770 C   0  0  0  0  0  0  0  0  0  0  0  0
   65.5430   32.6840   49.6750 C   0  0  0  0  0  0  0  0  0  0  0  0
   61.5220   31.7910   47.6970 C   0  0  0  0  0  0  0  0  0  0  0  0
   60.1480   31.7300   47.4040 C   0  0  0  0  0  0  0  0  0  0  0  0
   57.7950   31.9220   50.6490 C   0  0  0  0  0  0  0  0  0  0  0  0
   57.7680   32.6500   52.0000 C   0  0  0  0  0  0  0  0  0  0  0  0
   58.4030   33.6906   54.0489 H   0  0  0  0  0  0  0  0  0  0  0  0
   59.9958   34.2763   53.4602 H   0  0  0  0  0  0  0  0  0  0  0  0
   58.5776   35.3787   53.4602 H   0  0  0  0  0  0  0  0  0  0  0  0
   59.5398   34.2642   50.1149 H   0  0  0  0  0  0  0  0  0  0  0  0
   60.5841   34.3552   51.6032 H   0  0  0  0  0  0  0  0  0  0  0  0
   61.1241   32.3750   50.2101 H   0  0  0  0  0  0  0  0  0  0  0  0
   60.4980   31.9291   51.8452 H   0  0  0  0  0  0  0  0  0  0  0  0
   60.5522   29.9673   50.1931 H   0  0  0  0  0  0  0  0  0  0  0  0
   59.0456   29.7073   51.2003 H   0  0  0  0  0  0  0  0  0  0  0  0
   58.6046   28.2882   49.4464 H   0  0  0  0  0  0  0  0  0  0  0  0
   57.8642   29.8310   48.8408 H   0  0  0  0  0  0  0  0  0  0  0  0
   60.7400   29.1894   48.1722 H   0  0  0  0  0  0  0  0  0  0  0  0
   59.3961   28.3968   47.2576 H   0  0  0  0  0  0  0  0  0  0  0  0
   59.3082   28.6144   45.0785 H   0  0  0  0  0  0  0  0  0  0  0  0
   57.9124   28.8100   43.0184 H   0  0  0  0  0  0  0  0  0  0  0  0
   56.4548   30.8055   42.6752 H   0  0  0  0  0  0  0  0  0  0  0  0
   56.3669   32.6036   44.4044 H   0  0  0  0  0  0  0  0  0  0  0  0
   59.4892   35.0939   47.2950 H   0  0  0  0  0  0  0  0  0  0  0  0
   61.9286   35.1875   47.8058 H   0  0  0  0  0  0  0  0  0  0  0  0
   62.5030   34.1567   50.2055 H   0  0  0  0  0  0  0  0  0  0  0  0
   62.9818   32.7213   51.1714 H   0  0  0  0  0  0  0  0  0  0  0  0
   64.5406   35.3419   50.8793 H   0  0  0  0  0  0  0  0  0  0  0  0
   63.6458   34.7352   52.3482 H   0  0  0  0  0  0  0  0  0  0  0  0
   66.8056   34.8963   53.1224 H   0  0  0  0  0  0  0  0  0  0  0  0
   67.4749   34.2853   51.5714 H   0  0  0  0  0  0  0  0  0  0  0  0
   66.3210   35.6619   51.5714 H   0  0  0  0  0  0  0  0  0  0  0  0
   66.9229   32.3876   51.3056 H   0  0  0  0  0  0  0  0  0  0  0  0
   65.2469   31.7203   51.5644 H   0  0  0  0  0  0  0  0  0  0  0  0
   66.2040   33.4470   49.2381 H   0  0  0  0  0  0  0  0  0  0  0  0
   65.7158   31.7066   49.2008 H   0  0  0  0  0  0  0  0  0  0  0  0
   62.0950   30.8602   47.8206 H   0  0  0  0  0  0  0  0  0  0  0  0
   57.3631   32.5808   49.8813 H   0  0  0  0  0  0  0  0  0  0  0  0
   57.2117   30.9948   50.7495 H   0  0  0  0  0  0  0  0  0  0  0  0
   56.7266   32.8984   52.2526 H   0  0  0  0  0  0  0  0  0  0  0  0
   58.2050   31.9867   52.7610 H   0  0  0  0  0  0  0  0  0  0  0  0
  1  2  1  0
  2  3  1  0
  3  4  1  0
  4  5  1  0
  5  6  1  0
  6  7  1  0
  7  8  1  0
  8  9  1  0
  9 10  1  0
 10 11  2  0
 11 12  1  0
 12 13  2  0
 13 14  1  0
 14 15  2  0
 15 16  1  0
 16 17  1  0
 17 18  2  0
 18 19  1  0
 19 20  2  0
 20 21  1  0
 21 22  2  0
 21 23  1  0
 23 24  1  0
 24 25  1  0
 25 26  1  0
 26 27  1  0
 26 28  1  0
 28 29  1  0
 20 30  1  0
 30 31  2  0
  5 32  1  0
 32 33  1  0
 33  2  1  0
 31  9  1  0
 15 10  1  0
 31 17  1  0
 29 23  1  0
  1 34  1  0
  1 35  1  0
  1 36  1  0
  3 37  1  0
  3 38  1  0
  4 39  1  0
  4 40  1  0
  6 41  1  0
  6 42  1  0
  7 43  1  0
  7 44  1  0
  8 45  1  0
  8 46  1  0
 11 47  1  0
 12 48  1  0
 13 49  1  0
 14 50  1  0
 18 51  1  0
 19 52  1  0
 24 53  1  0
 24 54  1  0
 25 55  1  0
 25 56  1  0
 27 57  1  0
 27 58  1  0
 27 59  1  0
 28 60  1  0
 28 61  1  0
 29 62  1  0
 29 63  1  0
 30 64  1  0
 32 65  1  0
 32 66  1  0
 33 67  1  0
 33 68  1  0
M  END
>  <UniqueID>  (46) 
46

>  <SMILES>  (46) 
CN1CCN(CCCN2c3ccccc3Sc3ccc(C(=O)N4CCN(C)CC4)cc32)CC1

>  <Energy>  (46) 
112.33915873229851

>  <Genealogy>  (46) 
CN1CCN(CCCN2c3ccccc3Sc3ccc(C(=O)N4CCN(C)CC4)cc32)CC1 (3D coordinates assigned)
CN1CCN(CCCN2c3ccccc3Sc3ccc(C(=O)N4CCN(C)CC4)cc32)CC1 (nonaromatic ring conformer: 112.33915873229851 kcal/mol)

>  <smiles>  (46) 
CN1CCN(CCCN2c3ccccc3Sc3ccc(C(=O)N4CCN(C)CC4)cc32)CC1

>  <score_type>  (46) 
oracle

>  <origin>  (46) 
adg

>  <m_score__min__energy>  (46) 
-9.3000000000000007

>  <m_primary>  (46) 
energy

$$$$
46:0
     RDKit          3D

 52 55  0  0  0  0  0  0  0  0999 V2000
   66.0990   32.6130   50.6700 C   0  0  0  0  0  0  0  0  0  0  0  0
   65.6850   33.0910   49.3940 O   0  0  0  0  0  0  0  0  0  0  0  0
   64.3490   33.1750   48.9750 C   0  0  0  0  0  0  0  0  0  0  0  0
   63.8150   32.3320   47.9830 C   0  0  0  0  0  0  0  0  0  0  0  0
   62.4780   32.4590   47.5950 C   0  0  0  0  0  0  0  0  0  0  0  0
   61.6490   33.4280   48.1900 C   0  0  0  0  0  0  0  0  0  0  0  0
   60.2190   33.5620   47.8030 C   0  0  0  0  0  0  0  0  0  0  0  0
   59.8330   34.5810   47.0130 C   0  0  0  0  0  0  0  0  0  0  0  0
   58.4950   34.6180   46.3470 C   0  0  0  0  0  0  0  0  0  0  0  0
   58.3710   33.4020   45.4780 C   0  0  0  0  0  0  0  0  0  0  0  0
   58.3020   33.5360   44.0800 C   0  0  0  0  0  0  0  0  0  0  0  0
   58.1720   32.4060   43.2710 C   0  0  0  0  0  0  0  0  0  0  0  0
   58.1130   31.1350   43.8460 C   0  0  0  0  0  0  0  0  0  0  0  0
   58.1790   30.9920   45.2340 C   0  0  0  0  0  0  0  0  0  0  0  0
   58.2870   32.1190   46.0640 C   0  0  0  0  0  0  0  0  0  0  0  0
   58.4020   31.9250   47.4870 N   0  0  0  0  0  0  0  0  0  0  0  0
   59.2490   32.5290   48.2870 C   0  0  0  0  0  0  0  0  0  0  0  0
   59.2160   32.2380   49.7020 N   0  0  0  0  0  0  0  0  0  0  0  0
   57.9410   32.0150   50.3940 C   0  0  0  0  0  0  0  0  0  0  0  0
   58.0750   32.3860   51.8760 C   0  0  0  0  0  0  0  0  0  0  0  0
   59.1740   31.6560   52.5590 N   0  0  0  0  0  0  0  0  0  0  0  0
   58.6580   30.5150   53.3300 C   0  0  0  0  0  0  0  0  0  0  0  0
   60.2780   31.2190   51.6680 C   0  0  0  0  0  0  0  0  0  0  0  0
   60.4640   32.1540   50.4690 C   0  0  0  0  0  0  0  0  0  0  0  0
   62.1870   34.2610   49.1860 C   0  0  0  0  0  0  0  0  0  0  0  0
   63.5240   34.1340   49.5720 C   0  0  0  0  0  0  0  0  0  0  0  0
   65.5972   33.1923   51.4590 H   0  0  0  0  0  0  0  0  0  0  0  0
   65.8309   31.5507   50.7683 H   0  0  0  0  0  0  0  0  0  0  0  0
   67.1887   32.7267   50.7683 H   0  0  0  0  0  0  0  0  0  0  0  0
   64.4523   31.5698   47.5108 H   0  0  0  0  0  0  0  0  0  0  0  0
   62.0704   31.7957   46.8179 H   0  0  0  0  0  0  0  0  0  0  0  0
   60.5281   35.4181   46.8513 H   0  0  0  0  0  0  0  0  0  0  0  0
   57.7002   34.6150   47.1075 H   0  0  0  0  0  0  0  0  0  0  0  0
   58.3973   35.5304   45.7404 H   0  0  0  0  0  0  0  0  0  0  0  0
   58.3506   34.5350   43.6222 H   0  0  0  0  0  0  0  0  0  0  0  0
   58.1159   32.5170   42.1781 H   0  0  0  0  0  0  0  0  0  0  0  0
   58.0145   30.2460   43.2058 H   0  0  0  0  0  0  0  0  0  0  0  0
   58.1461   29.9873   45.6806 H   0  0  0  0  0  0  0  0  0  0  0  0
   57.7080   31.2650   47.9030 H   0  0  0  0  0  0  0  0  0  0  0  0
   57.1619   32.6388   49.9316 H   0  0  0  0  0  0  0  0  0  0  0  0
   57.6671   30.9528   50.3116 H   0  0  0  0  0  0  0  0  0  0  0  0
   58.2715   33.4657   51.9509 H   0  0  0  0  0  0  0  0  0  0  0  0
   57.1344   32.1050   52.3724 H   0  0  0  0  0  0  0  0  0  0  0  0
   58.7534   30.7259   54.4054 H   0  0  0  0  0  0  0  0  0  0  0  0
   57.5990   30.3529   53.0807 H   0  0  0  0  0  0  0  0  0  0  0  0
   59.2357   29.6127   53.0807 H   0  0  0  0  0  0  0  0  0  0  0  0
   61.2126   31.1974   52.2477 H   0  0  0  0  0  0  0  0  0  0  0  0
   60.0219   30.2221   51.2800 H   0  0  0  0  0  0  0  0  0  0  0  0
   60.7396   33.1566   50.8278 H   0  0  0  0  0  0  0  0  0  0  0  0
   61.2606   31.7583   49.8218 H   0  0  0  0  0  0  0  0  0  0  0  0
   61.5504   35.0191   49.6656 H   0  0  0  0  0  0  0  0  0  0  0  0
   63.9313   34.7939   50.3521 H   0  0  0  0  0  0  0  0  0  0  0  0
  1  2  1  0
  2  3  1  0
  3  4  2  0
  4  5  1  0
  5  6  2  0
  6  7  1  0
  7  8  2  0
  8  9  1  0
  9 10  1  0
 10 11  2  0
 11 12  1  0
 12 13  2  0
 13 14  1  0
 14 15  2  0
 15 16  1  0
 16 17  2  0
 17 18  1  0
 18 19  1  0
 19 20  1  0
 20 21  1  0
 21 22  1  0
 21 23  1  0
 23 24  1  0
  6 25  1  0
 25 26  2  0
 26  3  1  0
 17  7  1  0
 24 18  1  0
 15 10  1  0
  1 27  1  0
  1 28  1  0
  1 29  1  0
  4 30  1  0
  5 31  1  0
  8 32  1  0
  9 33  1  0
  9 34  1  0
 11 35  1  0
 12 36  1  0
 13 37  1  0
 14 38  1  0
 16 39  1  0
 19 40  1  0
 19 41  1  0
 20 42  1  0
 20 43  1  0
 22 44  1  0
 22 45  1  0
 22 46  1  0
 23 47  1  0
 23 48  1  0
 24 49  1  0
 24 50  1  0
 25 51  1  0
 26 52  1  0
M  CHG  1  16   1
M  END
>  <UniqueID>  (47) 
47

>  <SMILES>  (47) 
COc1ccc(C2=CCc3ccccc3[NH+]=C2N2CCN(C)CC2)cc1

>  <Energy>  (47) 
78.7219789832304

>  <Genealogy>  (47) 
COc1ccc(C2=CCc3ccccc3[NH+]=C2N2CCN(C)CC2)cc1 (protonated)
COc1ccc(C2=CCc3ccccc3[NH+]=C2N2CCN(C)CC2)cc1 (3D coordinates assigned)
COc1ccc(C2=CCc3ccccc3[NH+]=C2N2CCN(C)CC2)cc1 (nonaromatic ring conformer: 78.7219789832304 kcal/mol)

>  <smiles>  (47) 
COc1ccc(C2=CCc3ccccc3N=C2N2CCN(C)CC2)cc1

>  <score_type>  (47) 
oracle

>  <origin>  (47) 
adg

>  <m_score__min__energy>  (47) 
-4.4900000000000002

>  <m_primary>  (47) 
energy

$$$$
47:0
     RDKit          3D

 36 38  0  0  0  0  0  0  0  0999 V2000
   59.3520   28.8460   48.6200 C   0  0  0  0  0  0  0  0  0  0  0  0
   58.9570   29.8160   47.7900 C   0  0  0  0  0  0  0  0  0  0  0  0
   58.9150   31.1070   48.1870 N   0  0  0  0  0  0  0  0  0  0  0  0
   58.3830   31.7590   47.1370 C   0  0  0  0  0  0  0  0  0  0  0  0
   58.0590   30.9490   46.1160 N   0  0  0  0  0  0  0  0  0  0  0  0
   58.4560   29.7110   46.4810 C   0  0  0  0  0  0  0  0  0  0  0  0
   58.3710   28.6370   45.6650 C   0  0  0  0  0  0  0  0  0  0  0  0
   57.5420   27.4410   45.9080 C   0  0  0  0  0  0  0  0  0  0  0  0
   56.1550   27.4600   45.6840 C   0  0  0  0  0  0  0  0  0  0  0  0
   55.5310   28.5990   45.1880 O   0  0  0  0  0  0  0  0  0  0  0  0
   55.4110   26.3570   45.9570 N   0  0  0  0  0  0  0  0  0  0  0  0
   55.9820   25.2340   46.4630 C   0  0  0  0  0  0  0  0  0  0  0  0
   55.2720   24.2230   46.7050 O   0  0  0  0  0  0  0  0  0  0  0  0
   57.3150   25.2020   46.7140 N   0  0  0  0  0  0  0  0  0  0  0  0
   58.1040   26.2780   46.4570 C   0  0  0  0  0  0  0  0  0  0  0  0
   59.3360   26.2170   46.7090 O   0  0  0  0  0  0  0  0  0  0  0  0
   57.5240   31.4100   44.8310 C   0  0  0  0  0  0  0  0  0  0  0  0
   57.0710   32.8840   44.9220 C   0  0  0  0  0  0  0  0  0  0  0  0
   57.9950   33.7270   45.7210 N   0  0  0  0  0  0  0  0  0  0  0  0
   59.3330   33.8910   45.1050 C   0  0  0  0  0  0  0  0  0  0  0  0
   60.3850   34.2800   46.1420 C   0  0  0  0  0  0  0  0  0  0  0  0
   58.0930   33.2290   47.1120 C   0  0  0  0  0  0  0  0  0  0  0  0
   59.3777   27.8023   48.2735 H   0  0  0  0  0  0  0  0  0  0  0  0
   59.6514   29.0913   49.6497 H   0  0  0  0  0  0  0  0  0  0  0  0
   58.9700   28.6562   44.7426 H   0  0  0  0  0  0  0  0  0  0  0  0
   58.3053   31.3197   44.0619 H   0  0  0  0  0  0  0  0  0  0  0  0
   56.6544   30.7897   44.5684 H   0  0  0  0  0  0  0  0  0  0  0  0
   57.0126   33.2961   43.9038 H   0  0  0  0  0  0  0  0  0  0  0  0
   56.0940   32.8971   45.4273 H   0  0  0  0  0  0  0  0  0  0  0  0
   59.6287   32.9413   44.6353 H   0  0  0  0  0  0  0  0  0  0  0  0
   59.2718   34.6961   44.3580 H   0  0  0  0  0  0  0  0  0  0  0  0
   59.9772   34.1292   47.1524 H   0  0  0  0  0  0  0  0  0  0  0  0
   61.2792   33.6531   46.0102 H   0  0  0  0  0  0  0  0  0  0  0  0
   60.6562   35.3379   46.0102 H   0  0  0  0  0  0  0  0  0  0  0  0
   58.9028   33.7642   47.6295 H   0  0  0  0  0  0  0  0  0  0  0  0
   57.1311   33.4050   47.6158 H   0  0  0  0  0  0  0  0  0  0  0  0
  1  2  2  0
  2  3  1  0
  3  4  2  0
  4  5  1  0
  5  6  1  0
  6  7  2  3
  7  8  1  0
  8  9  2  0
  9 10  1  0
  9 11  1  0
 11 12  1  0
 12 13  2  0
 12 14  1  0
 14 15  1  0
 15 16  2  0
  5 17  1  0
 17 18  1  0
 18 19  1  0
 19 20  1  0
 20 21  1  0
 19 22  1  0
  6  2  1  0
 15  8  1  0
 22  4  1  0
  1 23  1  0
  1 24  1  0
  7 25  1  0
 17 26  1  0
 17 27  1  0
 18 28  1  0
 18 29  1  0
 20 30  1  0
 20 31  1  0
 21 32  1  0
 21 33  1  0
 21 34  1  0
 22 35  1  0
 22 36  1  0
M  CHG  3  10  -1  11  -1  14  -1
M  END
>  <UniqueID>  (48) 
48

>  <SMILES>  (48) 
C=c1nc2n(c1=Cc1c([O-])[n-]c(=O)[n-]c1=O)CCN(CC)C2

>  <Energy>  (48) 
88.35613533207356

>  <Genealogy>  (48) 
C=c1nc2n(c1=Cc1c([O-])[n-]c(=O)[n-]c1=O)CCN(CC)C2 (protonated)
C=c1nc2n(c1=Cc1c([O-])[n-]c(=O)[n-]c1=O)CCN(CC)C2 (3D coordinates assigned)
C=c1nc2n(c1=Cc1c([O-])[n-]c(=O)[n-]c1=O)CCN(CC)C2 (nonaromatic ring conformer: 88.35613533207356 kcal/mol)

>  <smiles>  (48) 
C=c1nc2n(c1=Cc1c(O)[nH]c(=O)[nH]c1=O)CCN(CC)C2

>  <score_type>  (48) 
oracle

>  <origin>  (48) 
adg

>  <m_score__min__energy>  (48) 
-14.33

>  <m_primary>  (48) 
energy

$$$$
48:0
     RDKit          3D

 41 43  0  0  0  0  0  0  0  0999 V2000
   57.7590   23.3950   44.8130 C   0  0  0  0  0  0  0  0  0  0  0  0
   56.5860   24.1870   45.2900 C   0  0  0  0  0  0  0  0  0  0  0  0
   55.3110   23.9010   44.9680 N   0  0  0  0  0  0  0  0  0  0  0  0
   54.6060   24.8360   45.6370 C   0  0  0  0  0  0  0  0  0  0  0  0
   53.3490   24.9000   45.5910 O   0  0  0  0  0  0  0  0  0  0  0  0
   55.3510   25.6940   46.3630 N   0  0  0  0  0  0  0  0  0  0  0  0
   56.6100   25.2800   46.1330 C   0  0  0  0  0  0  0  0  0  0  0  0
   57.8170   25.9140   46.7570 C   0  0  0  0  0  0  0  0  0  0  0  0
   58.2580   27.1120   45.9630 C   0  0  0  0  0  0  0  0  0  0  0  0
   59.6230   27.3320   45.7180 C   0  0  0  0  0  0  0  0  0  0  0  0
   60.0360   28.4540   44.9950 C   0  0  0  0  0  0  0  0  0  0  0  0
   59.0930   29.3620   44.5070 C   0  0  0  0  0  0  0  0  0  0  0  0
   57.7270   29.1410   44.7260 C   0  0  0  0  0  0  0  0  0  0  0  0
   56.5230   30.2590   44.0900 S   0  0  0  0  0  0  0  0  0  0  0  0
   55.1390   29.7010   44.2830 O   0  0  0  0  0  0  0  0  0  0  0  0
   56.7600   30.4360   42.6180 O   0  0  0  0  0  0  0  0  0  0  0  0
   56.6460   31.8080   44.8730 N   0  0  0  0  0  0  0  0  0  0  0  0
   57.7380   32.6060   44.3090 C   0  0  0  0  0  0  0  0  0  0  0  0
   58.4160   33.4170   45.3810 C   0  0  0  0  0  0  0  0  0  0  0  0
   59.1500   34.5680   45.0490 C   0  0  0  0  0  0  0  0  0  0  0  0
   59.7760   35.3180   46.0490 C   0  0  0  0  0  0  0  0  0  0  0  0
   59.6950   34.9110   47.3820 C   0  0  0  0  0  0  0  0  0  0  0  0
   58.9870   33.7550   47.7180 C   0  0  0  0  0  0  0  0  0  0  0  0
   58.3450   33.0110   46.7240 C   0  0  0  0  0  0  0  0  0  0  0  0
   57.3120   28.0140   45.4490 C   0  0  0  0  0  0  0  0  0  0  0  0
   58.3215   23.0152   45.6787 H   0  0  0  0  0  0  0  0  0  0  0  0
   57.4071   22.5489   44.2045 H   0  0  0  0  0  0  0  0  0  0  0  0
   58.4123   24.0376   44.2045 H   0  0  0  0  0  0  0  0  0  0  0  0
   57.5699   26.2305   47.7811 H   0  0  0  0  0  0  0  0  0  0  0  0
   58.6350   25.1787   46.7718 H   0  0  0  0  0  0  0  0  0  0  0  0
   60.3698   26.6185   46.0966 H   0  0  0  0  0  0  0  0  0  0  0  0
   61.1070   28.6230   44.8094 H   0  0  0  0  0  0  0  0  0  0  0  0
   59.4234   30.2513   43.9503 H   0  0  0  0  0  0  0  0  0  0  0  0
   58.4745   31.9330   43.8457 H   0  0  0  0  0  0  0  0  0  0  0  0
   57.3213   33.2928   43.5576 H   0  0  0  0  0  0  0  0  0  0  0  0
   59.2325   34.8805   43.9975 H   0  0  0  0  0  0  0  0  0  0  0  0
   60.3327   36.2294   45.7854 H   0  0  0  0  0  0  0  0  0  0  0  0
   60.1890   35.5011   48.1680 H   0  0  0  0  0  0  0  0  0  0  0  0
   58.9345   33.4293   48.7673 H   0  0  0  0  0  0  0  0  0  0  0  0
   57.7826   32.1051   46.9941 H   0  0  0  0  0  0  0  0  0  0  0  0
   56.2394   27.8351   45.6147 H   0  0  0  0  0  0  0  0  0  0  0  0
  1  2  1  0
  2  3  1  0
  3  4  1  0
  4  5  2  0
  4  6  1  0
  6  7  1  0
  7  8  1  0
  8  9  1  0
  9 10  2  0
 10 11  1  0
 11 12  2  0
 12 13  1  0
 13 14  1  0
 14 15  2  0
 14 16  2  0
 14 17  1  0
 17 18  1  0
 18 19  1  0
 19 20  2  0
 20 21  1  0
 21 22  2  0
 22 23  1  0
 23 24  2  0
 13 25  2  0
  7  2  2  0
 25  9  1  0
 24 19  1  0
  1 26  1  0
  1 27  1  0
  1 28  1  0
  8 29  1  0
  8 30  1  0
 10 31  1  0
 11 32  1  0
 12 33  1  0
 18 34  1  0
 18 35  1  0
 20 36  1  0
 21 37  1  0
 22 38  1  0
 23 39  1  0
 24 40  1  0
 25 41  1  0
M  CHG  3   3  -1   6  -1  17  -1
M  END
>  <UniqueID>  (49) 
49

>  <SMILES>  (49) 
Cc1[n-]c(=O)[n-]c1Cc1cccc(S(=O)(=O)[N-]Cc2ccccc2)c1

>  <Energy>  (49) 
61.574656651688095

>  <Genealogy>  (49) 
Cc1[n-]c(=O)[n-]c1Cc1cccc(S(=O)(=O)[N-]Cc2ccccc2)c1 (protonated)
Cc1[n-]c(=O)[n-]c1Cc1cccc(S(=O)(=O)[N-]Cc2ccccc2)c1 (3D coordinates assigned)
Cc1[n-]c(=O)[n-]c1Cc1cccc(S(=O)(=O)[N-]Cc2ccccc2)c1 (optimized conformer: 61.574656651688095 kcal/mol)

>  <smiles>  (49) 
Cc1[nH]c(=O)[nH]c1Cc1cccc(S(=O)(=O)NCc2ccccc2)c1

>  <score_type>  (49) 
oracle

>  <origin>  (49) 
adg

>  <m_score__min__energy>  (49) 
-14.210000000000001

>  <m_primary>  (49) 
energy

$$$$
49:0
     RDKit          3D

 53 57  0  0  0  0  0  0  0  0999 V2000
   55.5070   26.4650   45.6500 O   0  0  0  0  0  0  0  0  0  0  0  0
   56.2660   27.4720   45.6230 C   0  0  0  0  0  0  0  0  0  0  0  0
   55.7620   28.7610   45.2320 N   0  0  0  0  0  0  0  0  0  0  0  0
   56.3950   29.7100   44.6050 C   0  0  0  0  0  0  0  0  0  0  0  0
   57.0100   30.7110   45.2670 N   0  0  0  0  0  0  0  0  0  0  0  0
   57.6110   31.5940   44.4220 C   0  0  0  0  0  0  0  0  0  0  0  0
   58.3530   32.7840   44.9120 C   0  0  0  0  0  0  0  0  0  0  0  0
   58.2500   33.8650   44.2710 O   0  0  0  0  0  0  0  0  0  0  0  0
   59.1960   32.7450   46.0940 N   0  0  0  0  0  0  0  0  0  0  0  0
   60.1910   33.8360   46.1300 C   0  0  0  0  0  0  0  0  0  0  0  0
   60.0030   34.5970   47.4350 C   0  0  0  0  0  0  0  0  0  0  0  0
   59.1990   33.6670   48.3160 C   0  0  0  0  0  0  0  0  0  0  0  0
   58.4170   32.8040   47.3430 C   0  0  0  0  0  0  0  0  0  0  0  0
   57.4730   31.2900   43.0670 C   0  0  0  0  0  0  0  0  0  0  0  0
   56.5710   29.8750   42.9370 S   0  0  0  0  0  0  0  0  0  0  0  0
   57.6920   27.3270   46.0020 C   0  0  0  0  0  0  0  0  0  0  0  0
   58.4910   26.3330   45.4070 C   0  0  0  0  0  0  0  0  0  0  0  0
   59.8330   26.1960   45.7660 C   0  0  0  0  0  0  0  0  0  0  0  0
   60.3970   27.0460   46.7190 C   0  0  0  0  0  0  0  0  0  0  0  0
   59.6210   28.0470   47.3230 C   0  0  0  0  0  0  0  0  0  0  0  0
   60.2040   28.9210   48.3110 N   0  0  0  0  0  0  0  0  0  0  0  0
   59.9940   28.6520   49.7490 C   0  0  0  0  0  0  0  0  0  0  0  0
   61.2220   29.0440   50.5950 C   0  0  0  0  0  0  0  0  0  0  0  0
   61.7170   30.4010   50.2020 C   0  0  0  0  0  0  0  0  0  0  0  0
   62.6600   31.4460   51.1190 S   0  0  0  0  0  0  0  0  0  0  0  0
   62.8720   32.5870   49.8920 C   0  0  0  0  0  0  0  0  0  0  0  0
   63.6380   33.8310   50.0250 C   0  0  0  0  0  0  0  0  0  0  0  0
   63.0430   34.9360   50.1360 O   0  0  0  0  0  0  0  0  0  0  0  0
   65.0260   33.7980   50.0280 O   0  0  0  0  0  0  0  0  0  0  0  0
   62.2210   32.1460   48.7410 C   0  0  0  0  0  0  0  0  0  0  0  0
   61.5850   30.9120   48.9260 C   0  0  0  0  0  0  0  0  0  0  0  0
   60.8390   30.1560   47.9160 C   0  0  0  0  0  0  0  0  0  0  0  0
   60.7510   30.5840   46.7330 O   0  0  0  0  0  0  0  0  0  0  0  0
   58.2690   28.1790   46.9610 C   0  0  0  0  0  0  0  0  0  0  0  0
   59.7200   31.8360   46.0910 H   0  0  0  0  0  0  0  0  0  0  0  0
   61.2071   33.4170   46.0846 H   0  0  0  0  0  0  0  0  0  0  0  0
   60.0536   34.5087   45.2706 H   0  0  0  0  0  0  0  0  0  0  0  0
   60.9763   34.8213   47.8958 H   0  0  0  0  0  0  0  0  0  0  0  0
   59.4978   35.5621   47.2823 H   0  0  0  0  0  0  0  0  0  0  0  0
   59.8635   33.0484   48.9371 H   0  0  0  0  0  0  0  0  0  0  0  0
   58.5440   34.2119   49.0118 H   0  0  0  0  0  0  0  0  0  0  0  0
   58.2879   31.7924   47.7554 H   0  0  0  0  0  0  0  0  0  0  0  0
   57.4174   33.2257   47.1615 H   0  0  0  0  0  0  0  0  0  0  0  0
   57.8826   31.8737   42.2294 H   0  0  0  0  0  0  0  0  0  0  0  0
   58.0552   25.6597   44.6542 H   0  0  0  0  0  0  0  0  0  0  0  0
   60.4487   25.4150   45.2960 H   0  0  0  0  0  0  0  0  0  0  0  0
   61.4548   26.9305   46.9978 H   0  0  0  0  0  0  0  0  0  0  0  0
   59.1248   29.2304   50.0953 H   0  0  0  0  0  0  0  0  0  0  0  0
   59.8274   27.5717   49.8719 H   0  0  0  0  0  0  0  0  0  0  0  0
   60.9406   29.0551   51.6583 H   0  0  0  0  0  0  0  0  0  0  0  0
   62.0223   28.3093   50.4226 H   0  0  0  0  0  0  0  0  0  0  0  0
   62.2082   32.7046   47.7935 H   0  0  0  0  0  0  0  0  0  0  0  0
   57.6542   28.9589   47.4340 H   0  0  0  0  0  0  0  0  0  0  0  0
  1  2  2  0
  2  3  1  0
  3  4  2  3
  4  5  1  0
  5  6  1  0
  6  7  1  0
  7  8  2  0
  7  9  1  0
  9 10  1  0
 10 11  1  0
 11 12  1  0
 12 13  1  0
  6 14  2  0
 14 15  1  0
  2 16  1  0
 16 17  2  0
 17 18  1  0
 18 19  2  0
 19 20  1  0
 20 21  1  0
 21 22  1  0
 22 23  1  0
 23 24  1  0
 24 25  1  0
 25 26  1  0
 26 27  1  0
 27 28  2  0
 27 29  1  0
 26 30  2  0
 30 31  1  0
 31 32  1  0
 32 33  2  0
 20 34  2  0
 15  4  1  0
 34 16  1  0
 13  9  1  0
 32 21  1  0
 31 24  2  0
  9 35  1  0
 10 36  1  0
 10 37  1  0
 11 38  1  0
 11 39  1  0
 12 40  1  0
 12 41  1  0
 13 42  1  0
 13 43  1  0
 14 44  1  0
 17 45  1  0
 18 46  1  0
 19 47  1  0
 22 48  1  0
 22 49  1  0
 23 50  1  0
 23 51  1  0
 30 52  1  0
 34 53  1  0
M  CHG  3   5  -1   9   1  29  -1
M  END
>  <UniqueID>  (50) 
50

>  <SMILES>  (50) 
O=C(N=c1[n-]c(C(=O)[NH+]2CCCC2)cs1)c1cccc(N2CCc3sc(C(=O)[O-])cc3C2=O)c1

>  <Energy>  (50) 
129.69740907025667

>  <Genealogy>  (50) 
O=C(N=c1[n-]c(C(=O)[NH+]2CCCC2)cs1)c1cccc(N2CCc3sc(C(=O)[O-])cc3C2=O)c1 (protonated)
O=C(N=c1[n-]c(C(=O)[NH+]2CCCC2)cs1)c1cccc(N2CCc3sc(C(=O)[O-])cc3C2=O)c1 (3D coordinates assigned)
O=C(N=c1[n-]c(C(=O)[NH+]2CCCC2)cs1)c1cccc(N2CCc3sc(C(=O)[O-])cc3C2=O)c1 (nonaromatic ring conformer: 129.69740907025667 kcal/mol)

>  <smiles>  (50) 
O=C(N=c1[nH]c(C(=O)N2CCCC2)cs1)c1cccc(N2CCc3sc(C(=O)O)cc3C2=O)c1

>  <score_type>  (50) 
oracle

>  <origin>  (50) 
adg

>  <m_score__min__energy>  (50) 
-12.15

>  <m_primary>  (50) 
energy

$$$$
50:0
     RDKit          3D

 50 53  0  0  0  0  0  0  0  0999 V2000
   57.7700   28.1910   46.7250 C   0  0  0  0  0  0  0  0  0  0  0  0
   57.3950   27.1850   45.6260 C   0  0  2  0  0  0  0  0  0  0  0  0
   57.6970   27.8610   44.2600 C   0  0  0  0  0  0  0  0  0  0  0  0
   56.8780   29.4200   43.8970 S   0  0  0  0  0  0  0  0  0  0  0  0
   56.2560   29.3700   42.5310 O   0  0  0  0  0  0  0  0  0  0  0  0
   55.7780   29.6060   44.9060 O   0  0  0  0  0  0  0  0  0  0  0  0
   57.9790   30.7730   44.0090 N   0  0  0  0  0  0  0  0  0  0  0  0
   58.9350   30.6020   45.1310 C   0  0  0  0  0  0  0  0  0  0  0  0
   58.7320   31.6210   46.2600 C   0  0  0  0  0  0  0  0  0  0  0  0
   58.8280   33.0000   45.7430 N   0  0  0  0  0  0  0  0  0  0  0  0
   58.5800   33.9810   46.8320 C   0  0  0  0  0  0  0  0  0  0  0  0
   59.6310   35.0800   46.9930 C   0  0  0  0  0  0  0  0  0  0  0  0
   59.9370   34.5660   48.3980 C   0  0  0  0  0  0  0  0  0  0  0  0
   58.8930   33.4650   48.2360 C   0  0  0  0  0  0  0  0  0  0  0  0
   58.1010   33.2140   44.4610 C   0  0  0  0  0  0  0  0  0  0  0  0
   57.2060   32.0280   44.0710 C   0  0  0  0  0  0  0  0  0  0  0  0
   55.9690   26.9020   45.7930 N   0  0  0  0  0  0  0  0  0  0  0  0
   55.3170   25.6430   45.6220 C   0  0  0  0  0  0  0  0  0  0  0  0
   54.0820   25.5670   45.8590 O   0  0  0  0  0  0  0  0  0  0  0  0
   56.0490   24.4590   45.1370 C   0  0  0  0  0  0  0  0  0  0  0  0
   55.3400   23.3670   44.5990 C   0  0  0  0  0  0  0  0  0  0  0  0
   56.0250   22.2730   44.0640 C   0  0  0  0  0  0  0  0  0  0  0  0
   57.4180   22.2580   44.0570 C   0  0  0  0  0  0  0  0  0  0  0  0
   58.1300   23.3350   44.5870 C   0  0  0  0  0  0  0  0  0  0  0  0
   57.4540   24.4360   45.1320 C   0  0  0  0  0  0  0  0  0  0  0  0
   58.4360   25.7030   45.9440 S   0  0  0  0  0  0  0  0  0  0  0  0
   57.6004   27.7360   47.7120 H   0  0  0  0  0  0  0  0  0  0  0  0
   58.8306   28.4649   46.6249 H   0  0  0  0  0  0  0  0  0  0  0  0
   57.1475   29.0924   46.6249 H   0  0  0  0  0  0  0  0  0  0  0  0
   58.7811   28.0419   44.2160 H   0  0  0  0  0  0  0  0  0  0  0  0
   57.3021   27.1595   43.5104 H   0  0  0  0  0  0  0  0  0  0  0  0
   58.8095   29.5911   45.5460 H   0  0  0  0  0  0  0  0  0  0  0  0
   59.9454   30.7605   44.7260 H   0  0  0  0  0  0  0  0  0  0  0  0
   57.7380   31.4714   46.7067 H   0  0  0  0  0  0  0  0  0  0  0  0
   59.5171   31.4717   47.0159 H   0  0  0  0  0  0  0  0  0  0  0  0
   57.5521   34.2517   46.5491 H   0  0  0  0  0  0  0  0  0  0  0  0
   60.4746   35.0032   46.2913 H   0  0  0  0  0  0  0  0  0  0  0  0
   59.3684   36.1352   46.8271 H   0  0  0  0  0  0  0  0  0  0  0  0
   60.9642   34.1933   48.5240 H   0  0  0  0  0  0  0  0  0  0  0  0
   59.8905   35.2493   49.2587 H   0  0  0  0  0  0  0  0  0  0  0  0
   59.3059   32.4457   48.2596 H   0  0  0  0  0  0  0  0  0  0  0  0
   58.0909   33.3406   48.9784 H   0  0  0  0  0  0  0  0  0  0  0  0
   57.4709   34.1101   44.5611 H   0  0  0  0  0  0  0  0  0  0  0  0
   58.8570   33.3286   43.6702 H   0  0  0  0  0  0  0  0  0  0  0  0
   56.4069   31.9204   44.8193 H   0  0  0  0  0  0  0  0  0  0  0  0
   56.7817   32.2249   43.0754 H   0  0  0  0  0  0  0  0  0  0  0  0
   54.2400   23.3757   44.6001 H   0  0  0  0  0  0  0  0  0  0  0  0
   55.4640   21.4231   43.6481 H   0  0  0  0  0  0  0  0  0  0  0  0
   57.9567   21.3974   43.6338 H   0  0  0  0  0  0  0  0  0  0  0  0
   59.2299   23.3200   44.5771 H   0  0  0  0  0  0  0  0  0  0  0  0
  2  1  1  1
  2  3  1  0
  3  4  1  0
  4  5  2  0
  4  6  2  0
  4  7  1  0
  7  8  1  0
  8  9  1  0
  9 10  1  0
 10 11  1  0
 11 12  1  0
 12 13  1  0
 13 14  1  0
 10 15  1  0
 15 16  1  0
  2 17  1  0
 17 18  1  0
 18 19  2  0
 18 20  1  0
 20 21  2  0
 21 22  1  0
 22 23  2  0
 23 24  1  0
 24 25  2  0
 25 26  1  0
 26  2  1  0
 16  7  1  0
 25 20  1  0
 14 11  1  0
  1 27  1  0
  1 28  1  0
  1 29  1  0
  3 30  1  0
  3 31  1  0
  8 32  1  0
  8 33  1  0
  9 34  1  0
  9 35  1  0
 11 36  1  0
 12 37  1  0
 12 38  1  0
 13 39  1  0
 13 40  1  0
 14 41  1  0
 14 42  1  0
 15 43  1  0
 15 44  1  0
 16 45  1  0
 16 46  1  0
 21 47  1  0
 22 48  1  0
 23 49  1  0
 24 50  1  0
M  CHG  1  17  -1
M  END
>  <UniqueID>  (51) 
51

>  <SMILES>  (51) 
C[C@]1(CS(=O)(=O)N2CCN(C3CCC3)CC2)[N-]C(=O)c2ccccc2S1

>  <Energy>  (51) 
131.65126769341333

>  <Genealogy>  (51) 
CC1(CS(=O)(=O)N2CCN(C3CCC3)CC2)[N-]C(=O)c2ccccc2S1 (protonated)
C[C@]1(CS(=O)(=O)N2CCN(C3CCC3)CC2)[N-]C(=O)c2ccccc2S1 (chirality)
C[C@]1(CS(=O)(=O)N2CCN(C3CCC3)CC2)[N-]C(=O)c2ccccc2S1 (3D coordinates assigned)
C[C@]1(CS(=O)(=O)N2CCN(C3CCC3)CC2)[N-]C(=O)c2ccccc2S1 (nonaromatic ring conformer: 131.65126769341333 kcal/mol)

>  <smiles>  (51) 
CC1(CS(=O)(=O)N2CCN(C3CCC3)CC2)NC(=O)c2ccccc2S1

>  <score_type>  (51) 
oracle

>  <origin>  (51) 
adg

>  <m_score__min__energy>  (51) 
-12.16

>  <m_primary>  (51) 
energy

$$$$
51:0
     RDKit          3D

 66 70  0  0  0  0  0  0  0  0999 V2000
   57.2440   32.6580   52.7540 O   0  0  0  0  0  0  0  0  0  0  0  0
   58.4940   32.8170   52.7210 C   0  0  0  0  0  0  0  0  0  0  0  0
   59.0670   34.1140   52.2300 C   0  0  0  0  0  0  0  0  0  0  0  0
   59.8920   33.9470   50.9870 C   0  0  0  0  0  0  0  0  0  0  0  0
   61.2200   33.6600   51.0630 N   0  0  0  0  0  0  0  0  0  0  0  0
   61.9580   33.4650   49.9430 C   0  0  0  0  0  0  0  0  0  0  0  0
   63.1890   33.2180   50.0380 O   0  0  0  0  0  0  0  0  0  0  0  0
   61.3530   33.5350   48.6860 C   0  0  0  0  0  0  0  0  0  0  0  0
   59.9730   33.8010   48.6110 C   0  0  0  0  0  0  0  0  0  0  0  0
   59.2640   33.8430   47.3460 N   0  0  0  0  0  0  0  0  0  0  0  0
   59.7070   34.8280   46.3410 C   0  0  0  0  0  0  0  0  0  0  0  0
   59.0190   34.6440   44.9870 C   0  0  0  0  0  0  0  0  0  0  0  0
   57.6460   34.3780   45.1560 O   0  0  0  0  0  0  0  0  0  0  0  0
   57.5040   33.0960   45.7250 C   0  0  0  0  0  0  0  0  0  0  0  0
   58.0180   33.0740   47.1690 C   0  0  0  0  0  0  0  0  0  0  0  0
   59.2860   33.9940   49.7720 N   0  0  0  0  0  0  0  0  0  0  0  0
   59.3840   31.7850   53.1670 N   0  0  0  0  0  0  0  0  0  0  0  0
   60.3600   31.0630   52.3960 C   0  0  0  0  0  0  0  0  0  0  0  0
   61.6450   30.7700   52.8850 C   0  0  0  0  0  0  0  0  0  0  0  0
   62.5450   30.0410   52.1050 C   0  0  0  0  0  0  0  0  0  0  0  0
   62.1670   29.5760   50.8450 C   0  0  0  0  0  0  0  0  0  0  0  0
   60.8770   29.8270   50.3520 C   0  0  0  0  0  0  0  0  0  0  0  0
   60.4560   29.2820   49.0840 N   0  0  0  0  0  0  0  0  0  0  0  0
   60.0810   30.2080   48.0060 C   0  0  0  0  0  0  0  0  0  0  0  0
   59.3020   29.4820   46.9110 C   0  0  0  0  0  0  0  0  0  0  0  0
   60.0700   28.3060   46.4700 N   0  0  0  0  0  0  0  0  0  0  0  0
   59.5550   27.6930   45.2250 C   0  0  0  0  0  0  0  0  0  0  0  0
   58.4260   26.7050   45.4480 C   0  0  0  0  0  0  0  0  0  0  0  0
   58.6880   25.3240   45.4920 C   0  0  0  0  0  0  0  0  0  0  0  0
   57.6440   24.4140   45.6860 C   0  0  0  0  0  0  0  0  0  0  0  0
   56.3350   24.8730   45.8560 C   0  0  0  0  0  0  0  0  0  0  0  0
   56.0680   26.2440   45.8410 C   0  0  0  0  0  0  0  0  0  0  0  0
   54.7700   26.7000   46.0240 O   0  0  0  0  0  0  0  0  0  0  0  0
   57.1100   27.1580   45.6440 C   0  0  0  0  0  0  0  0  0  0  0  0
   60.3690   27.3250   47.5440 C   0  0  0  0  0  0  0  0  0  0  0  0
   60.1190   27.8560   48.9700 C   0  0  0  0  0  0  0  0  0  0  0  0
   59.9800   30.5750   51.1370 C   0  0  0  0  0  0  0  0  0  0  0  0
   58.2392   34.8052   52.0132 H   0  0  0  0  0  0  0  0  0  0  0  0
   59.7271   34.5060   53.0178 H   0  0  0  0  0  0  0  0  0  0  0  0
   61.9447   33.3849   47.7709 H   0  0  0  0  0  0  0  0  0  0  0  0
   59.4818   35.8375   46.7153 H   0  0  0  0  0  0  0  0  0  0  0  0
   60.7862   34.6812   46.1867 H   0  0  0  0  0  0  0  0  0  0  0  0
   59.1381   35.5628   44.3941 H   0  0  0  0  0  0  0  0  0  0  0  0
   59.4823   33.7914   44.4689 H   0  0  0  0  0  0  0  0  0  0  0  0
   56.4404   32.8154   45.7178 H   0  0  0  0  0  0  0  0  0  0  0  0
   58.0956   32.3828   45.1323 H   0  0  0  0  0  0  0  0  0  0  0  0
   57.2448   33.5028   47.8234 H   0  0  0  0  0  0  0  0  0  0  0  0
   58.2367   32.0270   47.4258 H   0  0  0  0  0  0  0  0  0  0  0  0
   61.9426   31.1163   53.8858 H   0  0  0  0  0  0  0  0  0  0  0  0
   63.5559   29.8325   52.4854 H   0  0  0  0  0  0  0  0  0  0  0  0
   62.8847   29.0089   50.2340 H   0  0  0  0  0  0  0  0  0  0  0  0
   59.4544   31.0105   48.4222 H   0  0  0  0  0  0  0  0  0  0  0  0
   60.9986   30.6262   47.5665 H   0  0  0  0  0  0  0  0  0  0  0  0
   58.3275   29.1584   47.3055 H   0  0  0  0  0  0  0  0  0  0  0  0
   59.1420   30.1598   46.0595 H   0  0  0  0  0  0  0  0  0  0  0  0
   59.1878   28.4964   44.5695 H   0  0  0  0  0  0  0  0  0  0  0  0
   60.3878   27.1306   44.7777 H   0  0  0  0  0  0  0  0  0  0  0  0
   59.7185   24.9580   45.3733 H   0  0  0  0  0  0  0  0  0  0  0  0
   57.8536   23.3343   45.7048 H   0  0  0  0  0  0  0  0  0  0  0  0
   55.5149   24.1546   46.0016 H   0  0  0  0  0  0  0  0  0  0  0  0
   56.8975   28.2373   45.6426 H   0  0  0  0  0  0  0  0  0  0  0  0
   59.7350   26.4395   47.3892 H   0  0  0  0  0  0  0  0  0  0  0  0
   61.4428   27.0965   47.4746 H   0  0  0  0  0  0  0  0  0  0  0  0
   59.0567   27.7193   49.2205 H   0  0  0  0  0  0  0  0  0  0  0  0
   60.7621   27.2944   49.6636 H   0  0  0  0  0  0  0  0  0  0  0  0
   58.9677   30.7797   50.7584 H   0  0  0  0  0  0  0  0  0  0  0  0
  1  2  2  0
  2  3  1  0
  3  4  1  0
  4  5  2  0
  5  6  1  0
  6  7  2  0
  6  8  1  0
  8  9  2  0
  9 10  1  0
 10 11  1  0
 11 12  1  0
 12 13  1  0
 13 14  1  0
 14 15  1  0
  9 16  1  0
  2 17  1  0
 17 18  1  0
 18 19  2  0
 19 20  1  0
 20 21  2  0
 21 22  1  0
 22 23  1  0
 23 24  1  0
 24 25  1  0
 25 26  1  0
 26 27  1  0
 27 28  1  0
 28 29  2  0
 29 30  1  0
 30 31  2  0
 31 32  1  0
 32 33  1  0
 32 34  2  0
 26 35  1  0
 35 36  1  0
 22 37  2  0
 16  4  1  0
 37 18  1  0
 15 10  1  0
 36 23  1  0
 34 28  1  0
  3 38  1  0
  3 39  1  0
  8 40  1  0
 11 41  1  0
 11 42  1  0
 12 43  1  0
 12 44  1  0
 14 45  1  0
 14 46  1  0
 15 47  1  0
 15 48  1  0
 19 49  1  0
 20 50  1  0
 21 51  1  0
 24 52  1  0
 24 53  1  0
 25 54  1  0
 25 55  1  0
 27 56  1  0
 27 57  1  0
 29 58  1  0
 30 59  1  0
 31 60  1  0
 34 61  1  0
 35 62  1  0
 35 63  1  0
 36 64  1  0
 36 65  1  0
 37 66  1  0
M  CHG  3  16  -1  17  -1  33  -1
M  END
>  <UniqueID>  (52) 
52

>  <SMILES>  (52) 
O=C(Cc1nc(=O)cc(N2CCOCC2)[n-]1)[N-]c1cccc(N2CCN(Cc3cccc([O-])c3)CC2)c1

>  <Energy>  (52) 
92.03129987045253

>  <Genealogy>  (52) 
O=C(Cc1nc(=O)cc(N2CCOCC2)[n-]1)[N-]c1cccc(N2CCN(Cc3cccc([O-])c3)CC2)c1 (protonated)
O=C(Cc1nc(=O)cc(N2CCOCC2)[n-]1)[N-]c1cccc(N2CCN(Cc3cccc([O-])c3)CC2)c1 (3D coordinates assigned)
O=C(Cc1nc(=O)cc(N2CCOCC2)[n-]1)[N-]c1cccc(N2CCN(Cc3cccc([O-])c3)CC2)c1 (nonaromatic ring conformer: 92.03129987045253 kcal/mol)

>  <smiles>  (52) 
O=C(Cc1nc(=O)cc(N2CCOCC2)[nH]1)Nc1cccc(N2CCN(Cc3cccc(O)c3)CC2)c1

>  <score_type>  (52) 
oracle

>  <origin>  (52) 
adg

>  <m_score__min__energy>  (52) 
-16.079999999999998

>  <m_primary>  (52) 
energy

$$$$
52:0
     RDKit          3D

 46 49  0  0  0  0  0  0  0  0999 V2000
   59.3730   29.6420   46.3150 C   0  0  0  0  0  0  0  0  0  0  0  0
   59.5530   29.4270   47.6210 C   0  0  0  0  0  0  0  0  0  0  0  0
   60.0190   28.2490   48.0890 N   0  0  0  0  0  0  0  0  0  0  0  0
   60.0390   28.4260   49.4200 C   0  0  0  0  0  0  0  0  0  0  0  0
   60.4050   27.5320   50.2300 O   0  0  0  0  0  0  0  0  0  0  0  0
   59.5620   29.6750   49.7590 C   0  0  0  0  0  0  0  0  0  0  0  0
   59.3480   30.0830   51.0270 C   0  0  0  0  0  0  0  0  0  0  0  0
   58.1000   30.6800   51.5240 C   0  0  0  0  0  0  0  0  0  0  0  0
   58.0020   31.8880   52.1840 C   0  0  0  0  0  0  0  0  0  0  0  0
   56.6680   32.0350   52.5010 C   0  0  0  0  0  0  0  0  0  0  0  0
   56.0340   30.8980   52.0220 C   0  0  0  0  0  0  0  0  0  0  0  0
   54.5900   30.5830   52.0910 C   0  0  0  0  0  0  0  0  0  0  0  0
   54.1290   29.3660   52.6220 C   0  0  0  0  0  0  0  0  0  0  0  0
   52.7600   29.0950   52.6840 C   0  0  0  0  0  0  0  0  0  0  0  0
   51.8360   30.0320   52.2180 C   0  0  0  0  0  0  0  0  0  0  0  0
   52.2730   31.2550   51.6850 C   0  0  0  0  0  0  0  0  0  0  0  0
   51.2910   32.2510   51.2020 C   0  0  0  0  0  0  0  0  0  0  0  0
   50.6980   33.0130   52.0120 O   0  0  0  0  0  0  0  0  0  0  0  0
   51.0080   32.3600   49.8450 O   0  0  0  0  0  0  0  0  0  0  0  0
   53.6540   31.5220   51.6240 C   0  0  0  0  0  0  0  0  0  0  0  0
   56.9190   30.1090   51.4580 O   0  0  0  0  0  0  0  0  0  0  0  0
   59.3020   30.3420   48.6020 N   0  0  0  0  0  0  0  0  0  0  0  0
   59.1010   31.7930   48.3950 C   0  0  0  0  0  0  0  0  0  0  0  0
   60.3270   32.4590   47.7950 C   0  0  0  0  0  0  0  0  0  0  0  0
   60.1560   33.5690   46.9410 C   0  0  0  0  0  0  0  0  0  0  0  0
   61.2590   34.2180   46.3830 C   0  0  0  0  0  0  0  0  0  0  0  0
   62.5470   33.7580   46.6460 C   0  0  0  0  0  0  0  0  0  0  0  0
   62.7350   32.6320   47.4460 C   0  0  0  0  0  0  0  0  0  0  0  0
   61.6400   31.9580   48.0020 C   0  0  0  0  0  0  0  0  0  0  0  0
   61.9010   30.7970   48.7330 O   0  0  0  0  0  0  0  0  0  0  0  0
   58.9918   30.6126   45.9648 H   0  0  0  0  0  0  0  0  0  0  0  0
   59.6060   28.8485   45.5897 H   0  0  0  0  0  0  0  0  0  0  0  0
   60.1719   29.9592   51.7452 H   0  0  0  0  0  0  0  0  0  0  0  0
   58.8191   32.5888   52.4104 H   0  0  0  0  0  0  0  0  0  0  0  0
   56.2017   32.8814   53.0266 H   0  0  0  0  0  0  0  0  0  0  0  0
   54.8507   28.6224   52.9910 H   0  0  0  0  0  0  0  0  0  0  0  0
   52.4088   28.1398   53.1015 H   0  0  0  0  0  0  0  0  0  0  0  0
   50.7597   29.8108   52.2687 H   0  0  0  0  0  0  0  0  0  0  0  0
   54.0048   32.4770   51.2058 H   0  0  0  0  0  0  0  0  0  0  0  0
   58.2489   31.9397   47.7150 H   0  0  0  0  0  0  0  0  0  0  0  0
   58.9117   32.2525   49.3764 H   0  0  0  0  0  0  0  0  0  0  0  0
   59.1415   33.9273   46.7121 H   0  0  0  0  0  0  0  0  0  0  0  0
   61.1105   35.0941   45.7346 H   0  0  0  0  0  0  0  0  0  0  0  0
   63.4158   34.2832   46.2225 H   0  0  0  0  0  0  0  0  0  0  0  0
   63.7544   32.2687   47.6429 H   0  0  0  0  0  0  0  0  0  0  0  0
   61.5000   29.8930   48.5260 H   0  0  0  0  0  0  0  0  0  0  0  0
  1  2  2  0
  2  3  1  0
  3  4  1  0
  4  5  2  0
  4  6  1  0
  6  7  2  3
  7  8  1  0
  8  9  2  0
  9 10  1  0
 10 11  2  0
 11 12  1  0
 12 13  2  0
 13 14  1  0
 14 15  2  0
 15 16  1  0
 16 17  1  0
 17 18  2  0
 17 19  1  0
 16 20  2  0
 11 21  1  0
  6 22  1  0
 22 23  1  0
 23 24  1  0
 24 25  2  0
 25 26  1  0
 26 27  2  0
 27 28  1  0
 28 29  2  0
 29 30  1  0
 22  2  1  0
 29 24  1  0
 21  8  1  0
 20 12  1  0
  1 31  1  0
  1 32  1  0
  7 33  1  0
  9 34  1  0
 10 35  1  0
 13 36  1  0
 14 37  1  0
 15 38  1  0
 20 39  1  0
 23 40  1  0
 23 41  1  0
 25 42  1  0
 26 43  1  0
 27 44  1  0
 28 45  1  0
 30 46  1  0
M  CHG  2   3  -1  19  -1
M  END
>  <UniqueID>  (53) 
53

>  <SMILES>  (53) 
C=c1[n-]c(=O)c(=Cc2ccc(-c3cccc(C(=O)[O-])c3)o2)n1Cc1ccccc1O

>  <Energy>  (53) 
126.27956519764876

>  <Genealogy>  (53) 
C=c1[n-]c(=O)c(=Cc2ccc(-c3cccc(C(=O)[O-])c3)o2)n1Cc1ccccc1O (protonated)
C=c1[n-]c(=O)c(=Cc2ccc(-c3cccc(C(=O)[O-])c3)o2)n1Cc1ccccc1O (3D coordinates assigned)
C=c1[n-]c(=O)c(=Cc2ccc(-c3cccc(C(=O)[O-])c3)o2)n1Cc1ccccc1O (optimized conformer: 126.27956519764876 kcal/mol)

>  <smiles>  (53) 
C=c1[nH]c(=O)c(=Cc2ccc(-c3cccc(C(=O)O)c3)o2)n1Cc1ccccc1O

>  <score_type>  (53) 
oracle

>  <origin>  (53) 
adg

>  <m_score__min__energy>  (53) 
-14.220000000000001

>  <m_primary>  (53) 
energy

$$$$
53:0
     RDKit          3D

 33 34  0  0  0  0  0  0  0  0999 V2000
   54.1401   23.9000   45.5955 H   0  0  0  0  0  0  0  0  0  0  0  0
   55.0710   24.4450   45.3800 C   0  0  0  0  0  0  0  0  0  0  0  0
   55.3200   25.6340   45.9920 N   0  0  0  0  0  0  0  0  0  0  0  0
   56.4600   26.3440   45.7530 C   0  0  0  0  0  0  0  0  0  0  0  0
   56.6870   27.4820   46.3440 N   0  0  0  0  0  0  0  0  0  0  0  0
   57.7600   28.4000   46.0720 C   0  0  0  0  0  0  0  0  0  0  0  0
   58.6870   28.5840   46.9070 O   0  0  0  0  0  0  0  0  0  0  0  0
   57.7880   29.1220   44.8410 N   0  0  0  0  0  0  0  0  0  0  0  0
   56.3840   29.8910   44.1820 S   0  0  0  0  0  0  0  0  0  0  0  0
   55.1520   29.3130   44.8180 O   0  0  0  0  0  0  0  0  0  0  0  0
   56.3290   29.6840   42.6940 O   0  0  0  0  0  0  0  0  0  0  0  0
   56.4470   31.5870   44.5230 N   0  0  0  0  0  0  0  0  0  0  0  0
   57.5950   32.2080   45.1040 C   0  0  0  0  0  0  0  0  0  0  0  0
   57.8720   33.4060   44.8280 O   0  0  0  0  0  0  0  0  0  0  0  0
   58.3970   31.4670   46.0350 N   0  0  0  0  0  0  0  0  0  0  0  0
   57.9850   30.5910   46.4300 H   0  0  0  0  0  0  0  0  0  0  0  0
   59.6690   31.9090   46.5390 C   0  0  0  0  0  0  0  0  0  0  0  0
   60.6800   30.9640   46.7770 C   0  0  0  0  0  0  0  0  0  0  0  0
   60.4850   29.8970   46.5941 H   0  0  0  0  0  0  0  0  0  0  0  0
   61.9330   31.3710   47.2450 C   0  0  0  0  0  0  0  0  0  0  0  0
   62.7154   30.6227   47.4398 H   0  0  0  0  0  0  0  0  0  0  0  0
   62.1940   32.7260   47.4660 C   0  0  0  0  0  0  0  0  0  0  0  0
   63.7660   33.2350   48.0500 Cl  0  0  0  0  0  0  0  0  0  0  0  0
   61.2010   33.6770   47.2090 C   0  0  0  0  0  0  0  0  0  0  0  0
   61.4076   34.7445   47.3754 H   0  0  0  0  0  0  0  0  0  0  0  0
   59.9460   33.2740   46.7410 C   0  0  0  0  0  0  0  0  0  0  0  0
   59.1724   34.0270   46.5300 H   0  0  0  0  0  0  0  0  0  0  0  0
   57.4080   25.8410   44.8530 C   0  0  0  0  0  0  0  0  0  0  0  0
   58.3322   26.4021   44.6504 H   0  0  0  0  0  0  0  0  0  0  0  0
   57.1710   24.6220   44.2150 C   0  0  0  0  0  0  0  0  0  0  0  0
   57.9090   24.2188   43.5059 H   0  0  0  0  0  0  0  0  0  0  0  0
   55.9970   23.9160   44.4780 C   0  0  0  0  0  0  0  0  0  0  0  0
   55.8028   22.9541   43.9809 H   0  0  0  0  0  0  0  0  0  0  0  0
  1  2  1  0
  2  3  1  0
  3  4  1  0
  4  5  2  0
  5  6  1  0
  6  7  2  0
  6  8  1  0
  8  9  1  0
  9 10  2  0
  9 11  2  0
  9 12  1  0
 12 13  1  0
 13 14  2  0
 13 15  1  0
 15 16  1  0
 15 17  1  0
 17 18  2  0
 18 19  1  0
 18 20  1  0
 20 21  1  0
 20 22  2  0
 22 23  1  0
 22 24  1  0
 24 25  1  0
 24 26  2  0
 26 27  1  0
  4 28  1  0
 28 29  1  0
 28 30  2  0
 30 31  1  0
 30 32  1  0
 32 33  1  0
 32  2  2  0
 26 17  1  0
M  CHG  3   3  -1   8  -1  12  -1
M  END
>  <UniqueID>  (54) 
54

>  <SMILES>  (54) 
O=C(/N=c1/cccc[n-]1)[N-]S(=O)(=O)[N-]C(=O)Nc1ccc(Cl)cc1

>  <Energy>  (54) 
41.78818245498565

>  <Genealogy>  (54) 
O=C(N=c1cccc[n-]1)[N-]S(=O)(=O)[N-]C(=O)Nc1ccc(Cl)cc1 (protonated)
O=C(/N=c1/cccc[n-]1)[N-]S(=O)(=O)[N-]C(=O)Nc1ccc(Cl)cc1 (cis-trans isomerization)
O=C(/N=c1/cccc[n-]1)[N-]S(=O)(=O)[N-]C(=O)Nc1ccc(Cl)cc1 (3D coordinates assigned)
O=C(/N=c1/cccc[n-]1)[N-]S(=O)(=O)[N-]C(=O)Nc1ccc(Cl)cc1 (optimized conformer: 41.78818245498565 kcal/mol)

>  <smiles>  (54) 
O=C(N=c1cccc[nH]1)NS(=O)(=O)NC(=O)Nc1ccc(Cl)cc1

>  <score_type>  (54) 
oracle

>  <origin>  (54) 
adg

>  <m_score__min__energy>  (54) 
-11.800000000000001

>  <m_primary>  (54) 
energy

$$$$
54:0
     RDKit          3D

 40 42  0  0  0  0  0  0  0  0999 V2000
   59.3522   20.9686   44.0797 H   0  0  0  0  0  0  0  0  0  0  0  0
   59.3140   21.9370   44.6000 C   0  0  0  0  0  0  0  0  0  0  0  0
   60.1966   22.3042   45.1442 H   0  0  0  0  0  0  0  0  0  0  0  0
   58.1990   22.6650   44.5710 C   0  0  0  0  0  0  0  0  0  0  0  0
   58.0760   23.8280   45.1660 O   0  0  0  0  0  0  0  0  0  0  0  0
   56.8630   24.2890   44.9460 C   0  0  0  0  0  0  0  0  0  0  0  0
   56.4450   25.4720   45.4150 C   0  0  0  0  0  0  0  0  0  0  0  0
   55.3998   25.5494   45.7490 H   0  0  0  0  0  0  0  0  0  0  0  0
   57.2880   26.6780   45.5150 C   0  0  0  0  0  0  0  0  0  0  0  0
   56.8480   27.9790   45.3870 C   0  0  0  0  0  0  0  0  0  0  0  0
   55.5230   28.3780   45.2460 O   0  0  0  0  0  0  0  0  0  0  0  0
   57.9030   28.8180   45.4450 N   0  0  0  0  0  0  0  0  0  0  0  0
   57.8950   30.2550   45.3520 C   0  0  0  0  0  0  0  0  0  0  0  0
   57.4300   30.8880   44.1880 C   0  0  0  0  0  0  0  0  0  0  0  0
   57.0679   30.2822   43.3443 H   0  0  0  0  0  0  0  0  0  0  0  0
   57.4240   32.2830   44.0940 C   0  0  0  0  0  0  0  0  0  0  0  0
   57.0674   32.7682   43.1735 H   0  0  0  0  0  0  0  0  0  0  0  0
   57.8710   33.0670   45.1690 C   0  0  0  0  0  0  0  0  0  0  0  0
   57.8950   34.5680   45.0560 C   0  0  0  0  0  0  0  0  0  0  0  0
   57.6712   34.8554   44.0181 H   0  0  0  0  0  0  0  0  0  0  0  0
   57.1410   34.9857   45.7393 H   0  0  0  0  0  0  0  0  0  0  0  0
   59.2640   35.1170   45.4430 C   0  0  0  0  0  0  0  0  0  0  0  0
   59.3489   35.1510   46.5392 H   0  0  0  0  0  0  0  0  0  0  0  0
   60.0496   34.4644   45.0345 H   0  0  0  0  0  0  0  0  0  0  0  0
   59.3810   36.1316   45.0345 H   0  0  0  0  0  0  0  0  0  0  0  0
   58.3480   32.4370   46.3290 C   0  0  0  0  0  0  0  0  0  0  0  0
   58.7178   33.0433   47.1691 H   0  0  0  0  0  0  0  0  0  0  0  0
   58.3550   31.0420   46.4210 C   0  0  0  0  0  0  0  0  0  0  0  0
   58.7234   30.5571   47.3371 H   0  0  0  0  0  0  0  0  0  0  0  0
   58.9710   27.9980   45.5840 C   0  0  0  0  0  0  0  0  0  0  0  0
   60.1640   28.4000   45.6290 O   0  0  0  0  0  0  0  0  0  0  0  0
   58.6330   26.6940   45.6240 N   0  0  0  0  0  0  0  0  0  0  0  0
   59.2860   25.8790   45.6570 H   0  0  0  0  0  0  0  0  0  0  0  0
   56.1520   23.3910   44.1590 C   0  0  0  0  0  0  0  0  0  0  0  0
   55.1183   23.4957   43.7978 H   0  0  0  0  0  0  0  0  0  0  0  0
   57.0160   22.3400   43.9260 C   0  0  0  0  0  0  0  0  0  0  0  0
   56.7310   21.1300   43.0920 C   0  0  0  0  0  0  0  0  0  0  0  0
   56.5287   20.2712   43.7489 H   0  0  0  0  0  0  0  0  0  0  0  0
   55.8532   21.3207   42.4571 H   0  0  0  0  0  0  0  0  0  0  0  0
   57.6016   20.9089   42.4571 H   0  0  0  0  0  0  0  0  0  0  0  0
  1  2  1  0
  2  3  1  0
  2  4  2  0
  4  5  1  0
  5  6  1  0
  6  7  2  0
  7  8  1  0
  7  9  1  0
  9 10  2  0
 10 11  1  0
 10 12  1  0
 12 13  1  0
 13 14  2  0
 14 15  1  0
 14 16  1  0
 16 17  1  0
 16 18  2  0
 18 19  1  0
 19 20  1  0
 19 21  1  0
 19 22  1  0
 22 23  1  0
 22 24  1  0
 22 25  1  0
 18 26  1  0
 26 27  1  0
 26 28  2  0
 28 29  1  0
 12 30  1  0
 30 31  2  0
 30 32  1  0
 32 33  1  0
  6 34  1  0
 34 35  1  0
 34 36  2  0
 36 37  1  0
 37 38  1  0
 37 39  1  0
 37 40  1  0
 36  4  1  0
 32  9  1  0
 28 13  1  0
M  CHG  1  11  -1
M  END
>  <UniqueID>  (55) 
55

>  <SMILES>  (55) 
C=c1o/c(=C/c2[nH]c(=O)n(-c3ccc(CC)cc3)c2[O-])cc1C

>  <Energy>  (55) 
107.59176895292367

>  <Genealogy>  (55) 
C=c1oc(=Cc2[nH]c(=O)n(-c3ccc(CC)cc3)c2[O-])cc1C (protonated)
C=c1o/c(=C/c2[nH]c(=O)n(-c3ccc(CC)cc3)c2[O-])cc1C (cis-trans isomerization)
C=c1o/c(=C/c2[nH]c(=O)n(-c3ccc(CC)cc3)c2[O-])cc1C (3D coordinates assigned)
C=c1o/c(=C/c2[nH]c(=O)n(-c3ccc(CC)cc3)c2[O-])cc1C (optimized conformer: 107.59176895292367 kcal/mol)

>  <smiles>  (55) 
C=c1oc(=Cc2[nH]c(=O)n(-c3ccc(CC)cc3)c2O)cc1C

>  <score_type>  (55) 
oracle

>  <origin>  (55) 
adg

>  <m_score__min__energy>  (55) 
-10.51

>  <m_primary>  (55) 
energy

$$$$
55:0
     RDKit          3D

 48 51  0  0  0  0  0  0  0  0999 V2000
   56.6803   33.9737   44.9865 H   0  0  0  0  0  0  0  0  0  0  0  0
   57.2310   33.1540   45.4710 C   0  0  0  0  0  0  0  0  0  0  0  0
   57.1640   31.8950   44.9650 N   0  0  0  0  0  0  0  0  0  0  0  0
   57.8290   30.8450   45.5260 C   0  0  0  0  0  0  0  0  0  0  0  0
   57.7390   29.6790   44.9520 N   0  0  0  0  0  0  0  0  0  0  0  0
   56.7550   28.6560   45.1870 C   0  0  0  0  0  0  0  0  0  0  0  0
   55.5350   28.9730   45.1140 O   0  0  0  0  0  0  0  0  0  0  0  0
   57.1240   27.2750   45.5790 C   0  0  0  0  0  0  0  0  0  0  0  0
   58.4710   26.8660   45.5450 C   0  0  0  0  0  0  0  0  0  0  0  0
   59.2495   27.5735   45.2235 H   0  0  0  0  0  0  0  0  0  0  0  0
   58.8230   25.5710   45.9160 C   0  0  0  0  0  0  0  0  0  0  0  0
   59.8798   25.2658   45.9039 H   0  0  0  0  0  0  0  0  0  0  0  0
   57.8410   24.6590   46.3030 C   0  0  0  0  0  0  0  0  0  0  0  0
   58.1890   23.3960   46.6520 F   0  0  0  0  0  0  0  0  0  0  0  0
   56.5020   25.0490   46.3350 C   0  0  0  0  0  0  0  0  0  0  0  0
   55.7295   24.3297   46.6445 H   0  0  0  0  0  0  0  0  0  0  0  0
   56.1380   26.3480   45.9760 C   0  0  0  0  0  0  0  0  0  0  0  0
   54.7930   26.7050   45.9920 O   0  0  0  0  0  0  0  0  0  0  0  0
   58.6300   31.0730   46.6640 C   0  0  0  0  0  0  0  0  0  0  0  0
   59.2026   30.2470   47.1112 H   0  0  0  0  0  0  0  0  0  0  0  0
   58.6930   32.3530   47.2210 C   0  0  0  0  0  0  0  0  0  0  0  0
   59.4620   32.5940   48.4600 C   0  0  0  0  0  0  0  0  0  0  0  0
   58.8970   33.1810   49.4250 O   0  0  0  0  0  0  0  0  0  0  0  0
   60.8220   32.1140   48.5930 N   0  0  0  0  0  0  0  0  0  0  0  0
   60.9860   31.3420   47.9010 H   0  0  0  0  0  0  0  0  0  0  0  0
   61.7790   33.2020   48.3290 C   0  0  0  0  0  0  0  0  0  0  0  0
   61.5963   33.6085   47.3233 H   0  0  0  0  0  0  0  0  0  0  0  0
   61.6419   33.9876   49.0866 H   0  0  0  0  0  0  0  0  0  0  0  0
   63.2180   32.6830   48.4090 C   0  0  0  0  0  0  0  0  0  0  0  0
   63.4017   31.9990   47.5673 H   0  0  0  0  0  0  0  0  0  0  0  0
   63.9048   33.5410   48.3629 H   0  0  0  0  0  0  0  0  0  0  0  0
   63.4460   31.9650   49.6720 N   0  0  0  0  0  0  0  0  0  0  0  0
   64.7790   31.9090   50.2290 C   0  0  0  0  0  0  0  0  0  0  0  0
   65.9670   33.0890   50.0310 S   0  0  0  0  0  0  0  0  0  0  0  0
   67.1470   32.3140   50.9450 C   0  0  0  0  0  0  0  0  0  0  0  0
   68.1626   32.6914   51.1352 H   0  0  0  0  0  0  0  0  0  0  0  0
   66.6230   31.1140   51.4210 C   0  0  0  0  0  0  0  0  0  0  0  0
   67.1922   30.4165   52.0530 H   0  0  0  0  0  0  0  0  0  0  0  0
   65.3030   30.8810   51.0180 C   0  0  0  0  0  0  0  0  0  0  0  0
   64.7354   29.9801   51.2942 H   0  0  0  0  0  0  0  0  0  0  0  0
   62.4390   30.9810   50.0870 C   0  0  0  0  0  0  0  0  0  0  0  0
   62.5291   30.0840   49.4566 H   0  0  0  0  0  0  0  0  0  0  0  0
   62.6095   30.7236   51.1428 H   0  0  0  0  0  0  0  0  0  0  0  0
   61.0280   31.5580   49.9420 C   0  0  0  0  0  0  0  0  0  0  0  0
   60.2926   30.7591   50.1182 H   0  0  0  0  0  0  0  0  0  0  0  0
   60.9020   32.3661   50.6776 H   0  0  0  0  0  0  0  0  0  0  0  0
   58.0000   33.4030   46.6060 C   0  0  0  0  0  0  0  0  0  0  0  0
   58.0625   34.4212   47.0176 H   0  0  0  0  0  0  0  0  0  0  0  0
  1  2  1  0
  2  3  1  0
  3  4  1  0
  4  5  2  0
  5  6  1  0
  6  7  2  0
  6  8  1  0
  8  9  2  0
  9 10  1  0
  9 11  1  0
 11 12  1  0
 11 13  2  0
 13 14  1  0
 13 15  1  0
 15 16  1  0
 15 17  2  0
 17 18  1  0
  4 19  1  0
 19 20  1  0
 19 21  2  0
 21 22  1  0
 22 23  2  0
 22 24  1  0
 24 25  1  0
 24 26  1  0
 26 27  1  0
 26 28  1  0
 26 29  1  0
 29 30  1  0
 29 31  1  0
 29 32  1  0
 32 33  1  0
 33 34  1  0
 34 35  1  0
 35 36  1  0
 35 37  2  0
 37 38  1  0
 37 39  1  0
 39 40  1  0
 32 41  1  0
 41 42  1  0
 41 43  1  0
 41 44  1  0
 44 45  1  0
 44 46  1  0
 21 47  1  0
 47 48  1  0
 47  2  2  0
 17  8  1  0
 44 24  1  0
 39 33  2  0
M  CHG  3   3  -1  18  -1  24   1
M  END
>  <UniqueID>  (56) 
56

>  <SMILES>  (56) 
O=C(/N=c1\cc(C(=O)[NH+]2CCN(c3cccs3)CC2)cc[n-]1)c1ccc(F)cc1[O-]

>  <Energy>  (56) 
95.8356392819056

>  <Genealogy>  (56) 
O=C(N=c1cc(C(=O)[NH+]2CCN(c3cccs3)CC2)cc[n-]1)c1ccc(F)cc1[O-] (protonated)
O=C(/N=c1\cc(C(=O)[NH+]2CCN(c3cccs3)CC2)cc[n-]1)c1ccc(F)cc1[O-] (cis-trans isomerization)
O=C(/N=c1\cc(C(=O)[NH+]2CCN(c3cccs3)CC2)cc[n-]1)c1ccc(F)cc1[O-] (3D coordinates assigned)
O=C(/N=c1\cc(C(=O)[NH+]2CCN(c3cccs3)CC2)cc[n-]1)c1ccc(F)cc1[O-] (nonaromatic ring conformer: 95.8356392819056 kcal/mol)

>  <smiles>  (56) 
O=C(N=c1cc(C(=O)N2CCN(c3cccs3)CC2)cc[nH]1)c1ccc(F)cc1O

>  <score_type>  (56) 
oracle

>  <origin>  (56) 
adg

>  <m_score__min__energy>  (56) 
-12.779999999999999

>  <m_primary>  (56) 
energy

$$$$
56:0
     RDKit          3D

 42 44  0  0  0  0  0  0  0  0999 V2000
   56.2990   22.9980   43.3330 C   0  0  0  0  0  0  0  0  0  0  0  0
   55.7420   23.1220   44.7480 C   0  0  0  0  0  0  0  0  0  0  0  0
   55.8140   24.5370   45.2380 C   0  0  0  0  0  0  0  0  0  0  0  0
   56.9300   25.3470   45.2050 C   0  0  0  0  0  0  0  0  0  0  0  0
   56.4710   26.5460   45.7130 C   0  0  0  0  0  0  0  0  0  0  0  0
   57.2470   27.7780   45.9180 C   0  0  0  0  0  0  0  0  0  0  0  0
   56.8240   28.8550   45.4160 O   0  0  0  0  0  0  0  0  0  0  0  0
   58.4880   27.7550   46.6390 N   0  0  0  0  0  0  0  0  0  0  0  0
   59.1180   28.9330   47.1660 C   0  0  0  0  0  0  0  0  0  0  0  0
   58.8990   29.2940   48.5030 C   0  0  0  0  0  0  0  0  0  0  0  0
   59.4800   30.4530   49.0270 C   0  0  0  0  0  0  0  0  0  0  0  0
   60.2680   31.2770   48.2140 C   0  0  0  0  0  0  0  0  0  0  0  0
   60.9850   32.7390   48.8890 S   0  0  0  0  0  0  0  0  0  0  0  0
   60.9350   32.7180   50.3930 O   0  0  0  0  0  0  0  0  0  0  0  0
   62.4240   32.8110   48.4630 O   0  0  0  0  0  0  0  0  0  0  0  0
   60.1490   34.1420   48.3060 N   0  0  0  0  0  0  0  0  0  0  0  0
   59.3320   34.1940   47.1290 C   0  0  0  0  0  0  0  0  0  0  0  0
   59.7040   34.9340   45.9900 C   0  0  0  0  0  0  0  0  0  0  0  0
   58.8770   34.9590   44.8620 C   0  0  0  0  0  0  0  0  0  0  0  0
   57.6770   34.2450   44.8570 C   0  0  0  0  0  0  0  0  0  0  0  0
   57.2990   33.5090   45.9830 C   0  0  0  0  0  0  0  0  0  0  0  0
   58.1210   33.4870   47.1170 C   0  0  0  0  0  0  0  0  0  0  0  0
   57.7390   32.7710   48.2050 F   0  0  0  0  0  0  0  0  0  0  0  0
   60.4690   30.9340   46.8700 C   0  0  0  0  0  0  0  0  0  0  0  0
   59.8980   29.7700   46.3490 C   0  0  0  0  0  0  0  0  0  0  0  0
   55.1950   26.4220   46.0040 O   0  0  0  0  0  0  0  0  0  0  0  0
   54.7630   25.2270   45.7240 N   0  0  0  0  0  0  0  0  0  0  0  0
   57.3717   22.7592   43.3808 H   0  0  0  0  0  0  0  0  0  0  0  0
   55.7683   22.1960   42.7990 H   0  0  0  0  0  0  0  0  0  0  0  0
   56.1586   23.9494   42.7990 H   0  0  0  0  0  0  0  0  0  0  0  0
   54.6918   22.7948   44.7499 H   0  0  0  0  0  0  0  0  0  0  0  0
   56.3465   22.4912   45.4163 H   0  0  0  0  0  0  0  0  0  0  0  0
   57.9433   25.0974   44.8572 H   0  0  0  0  0  0  0  0  0  0  0  0
   59.0030   26.8480   46.7140 H   0  0  0  0  0  0  0  0  0  0  0  0
   58.2664   28.6618   49.1435 H   0  0  0  0  0  0  0  0  0  0  0  0
   59.3174   30.7185   50.0820 H   0  0  0  0  0  0  0  0  0  0  0  0
   60.6500   35.4954   45.9873 H   0  0  0  0  0  0  0  0  0  0  0  0
   59.1726   35.5422   43.9774 H   0  0  0  0  0  0  0  0  0  0  0  0
   57.0300   34.2619   43.9676 H   0  0  0  0  0  0  0  0  0  0  0  0
   56.3541   32.9458   45.9789 H   0  0  0  0  0  0  0  0  0  0  0  0
   61.0780   31.5830   46.2235 H   0  0  0  0  0  0  0  0  0  0  0  0
   60.0598   29.5070   45.2932 H   0  0  0  0  0  0  0  0  0  0  0  0
  1  2  1  0
  2  3  1  0
  3  4  1  0
  4  5  2  0
  5  6  1  0
  6  7  2  0
  6  8  1  0
  8  9  1  0
  9 10  2  0
 10 11  1  0
 11 12  2  0
 12 13  1  0
 13 14  2  0
 13 15  2  0
 13 16  1  0
 16 17  1  0
 17 18  2  0
 18 19  1  0
 19 20  2  0
 20 21  1  0
 21 22  2  0
 22 23  1  0
 12 24  1  0
 24 25  2  0
  5 26  1  0
 26 27  1  0
 27  3  2  0
 25  9  1  0
 22 17  1  0
  1 28  1  0
  1 29  1  0
  1 30  1  0
  2 31  1  0
  2 32  1  0
  4 33  1  0
  8 34  1  0
 10 35  1  0
 11 36  1  0
 18 37  1  0
 19 38  1  0
 20 39  1  0
 21 40  1  0
 24 41  1  0
 25 42  1  0
M  CHG  1  16  -1
M  END
>  <UniqueID>  (57) 
57

>  <SMILES>  (57) 
CCc1cc(C(=O)Nc2ccc(S(=O)(=O)[N-]c3ccccc3F)cc2)on1

>  <Energy>  (57) 
77.88446299719288

>  <Genealogy>  (57) 
CCc1cc(C(=O)Nc2ccc(S(=O)(=O)[N-]c3ccccc3F)cc2)on1 (protonated)
CCc1cc(C(=O)Nc2ccc(S(=O)(=O)[N-]c3ccccc3F)cc2)on1 (3D coordinates assigned)
CCc1cc(C(=O)Nc2ccc(S(=O)(=O)[N-]c3ccccc3F)cc2)on1 (optimized conformer: 77.88446299719288 kcal/mol)

>  <smiles>  (57) 
CCc1cc(C(=O)Nc2ccc(S(=O)(=O)Nc3ccccc3F)cc2)on1

>  <score_type>  (57) 
oracle

>  <origin>  (57) 
adg

>  <m_score__min__energy>  (57) 
-9.8399999999999999

>  <m_primary>  (57) 
energy

$$$$
57:0
     RDKit          3D

 25 25  0  0  0  0  0  0  0  0999 V2000
   54.9100   29.3520   44.3940 O   0  0  0  0  0  0  0  0  0  0  0  0
   56.1090   29.7370   44.4460 C   0  0  0  0  0  0  0  0  0  0  0  0
   57.2240   28.7230   44.5090 C   0  0  0  0  0  0  0  0  0  0  0  0
   57.2530   27.9980   45.8260 C   0  0  0  0  0  0  0  0  0  0  0  0
   57.9370   28.4700   46.7740 O   0  0  0  0  0  0  0  0  0  0  0  0
   56.5310   26.7280   46.0130 C   0  0  0  0  0  0  0  0  0  0  0  0
   57.1720   25.6570   46.1770 O   0  0  0  0  0  0  0  0  0  0  0  0
   55.1430   26.6990   46.0050 O   0  0  0  0  0  0  0  0  0  0  0  0
   56.3700   31.1460   44.5100 N   0  0  0  0  0  0  0  0  0  0  0  0
   57.6010   31.8030   44.0780 C   0  0  0  0  0  0  0  0  0  0  0  0
   58.3450   32.3730   45.2560 C   0  0  0  0  0  0  0  0  0  0  0  0
   58.3620   33.7580   45.4880 C   0  0  0  0  0  0  0  0  0  0  0  0
   59.0610   34.2810   46.5800 C   0  0  0  0  0  0  0  0  0  0  0  0
   59.7430   33.4260   47.4520 C   0  0  0  0  0  0  0  0  0  0  0  0
   60.6980   34.1430   48.9420 Br  0  0  0  0  0  0  0  0  0  0  0  0
   59.7240   32.0450   47.2310 C   0  0  0  0  0  0  0  0  0  0  0  0
   59.0270   31.5190   46.1390 C   0  0  0  0  0  0  0  0  0  0  0  0
   57.0820   27.9886   43.7025 H   0  0  0  0  0  0  0  0  0  0  0  0
   58.1776   29.2595   44.3957 H   0  0  0  0  0  0  0  0  0  0  0  0
   58.2417   31.0687   43.5679 H   0  0  0  0  0  0  0  0  0  0  0  0
   57.3408   32.6246   43.3945 H   0  0  0  0  0  0  0  0  0  0  0  0
   57.8232   34.4340   44.8078 H   0  0  0  0  0  0  0  0  0  0  0  0
   59.0747   35.3671   46.7538 H   0  0  0  0  0  0  0  0  0  0  0  0
   60.2583   31.3717   47.9174 H   0  0  0  0  0  0  0  0  0  0  0  0
   59.0125   30.4321   45.9705 H   0  0  0  0  0  0  0  0  0  0  0  0
  1  2  2  0
  2  3  1  0
  3  4  1  0
  4  5  2  0
  4  6  1  0
  6  7  2  0
  6  8  1  0
  2  9  1  0
  9 10  1  0
 10 11  1  0
 11 12  2  0
 12 13  1  0
 13 14  2  0
 14 15  1  0
 14 16  1  0
 16 17  2  0
 17 11  1  0
  3 18  1  0
  3 19  1  0
 10 20  1  0
 10 21  1  0
 12 22  1  0
 13 23  1  0
 16 24  1  0
 17 25  1  0
M  CHG  2   8  -1   9  -1
M  END
>  <UniqueID>  (58) 
58

>  <SMILES>  (58) 
O=C(CC(=O)C(=O)[O-])[N-]Cc1ccc(Br)cc1

>  <Energy>  (58) 
19.41415109377328

>  <Genealogy>  (58) 
O=C(CC(=O)C(=O)[O-])[N-]Cc1ccc(Br)cc1 (protonated)
O=C(CC(=O)C(=O)[O-])[N-]Cc1ccc(Br)cc1 (3D coordinates assigned)
O=C(CC(=O)C(=O)[O-])[N-]Cc1ccc(Br)cc1 (optimized conformer: 19.41415109377328 kcal/mol)

>  <smiles>  (58) 
O=C(CC(=O)C(=O)O)NCc1ccc(Br)cc1

>  <score_type>  (58) 
oracle

>  <origin>  (58) 
adg

>  <m_score__min__energy>  (58) 
-10.859999999999999

>  <m_primary>  (58) 
energy

$$$$
58:0
     RDKit          3D

 30 32  0  0  0  0  0  0  0  0999 V2000
   59.3525   33.7459   43.6607 H   0  0  0  0  0  0  0  0  0  0  0  0
   58.4180   33.4130   44.1360 C   0  0  0  0  0  0  0  0  0  0  0  0
   57.7590   32.2200   43.5710 C   0  0  0  0  0  0  0  0  0  0  0  0
   57.8630   31.9510   42.3440 O   0  0  0  0  0  0  0  0  0  0  0  0
   56.9000   31.4430   44.4140 N   0  0  0  0  0  0  0  0  0  0  0  0
   57.1980   30.1520   44.9640 C   0  0  0  0  0  0  0  0  0  0  0  0
   58.5210   29.8630   45.3220 C   0  0  0  0  0  0  0  0  0  0  0  0
   59.3002   30.6281   45.1903 H   0  0  0  0  0  0  0  0  0  0  0  0
   58.8610   28.6120   45.8450 C   0  0  0  0  0  0  0  0  0  0  0  0
   59.9009   28.4017   46.1353 H   0  0  0  0  0  0  0  0  0  0  0  0
   57.8750   27.6230   46.0000 C   0  0  0  0  0  0  0  0  0  0  0  0
   58.1600   26.3470   46.5180 C   0  0  0  0  0  0  0  0  0  0  0  0
   59.3280   26.0400   46.8760 O   0  0  0  0  0  0  0  0  0  0  0  0
   57.1650   25.4300   46.6320 N   0  0  0  0  0  0  0  0  0  0  0  0
   55.8920   25.7180   46.2550 C   0  0  0  0  0  0  0  0  0  0  0  0
   54.9910   24.8490   46.3710 O   0  0  0  0  0  0  0  0  0  0  0  0
   55.5910   26.9430   45.7520 N   0  0  0  0  0  0  0  0  0  0  0  0
   56.5470   27.9000   45.6180 C   0  0  0  0  0  0  0  0  0  0  0  0
   56.2120   29.1560   45.0970 C   0  0  0  0  0  0  0  0  0  0  0  0
   55.1762   29.3648   44.7910 H   0  0  0  0  0  0  0  0  0  0  0  0
   57.9720   34.1250   45.1810 C   0  0  0  0  0  0  0  0  0  0  0  0
   57.1190   34.7969   45.0055 H   0  0  0  0  0  0  0  0  0  0  0  0
   58.5290   34.0830   46.5460 C   0  0  0  0  0  0  0  0  0  0  0  0
   58.2900   32.8140   47.6220 S   0  0  0  0  0  0  0  0  0  0  0  0
   59.3110   33.3900   48.8260 C   0  0  0  0  0  0  0  0  0  0  0  0
   59.4986   32.9090   49.7973 H   0  0  0  0  0  0  0  0  0  0  0  0
   59.8770   34.5780   48.3830 C   0  0  0  0  0  0  0  0  0  0  0  0
   60.5903   35.1642   48.9811 H   0  0  0  0  0  0  0  0  0  0  0  0
   59.4550   34.9600   47.1040 C   0  0  0  0  0  0  0  0  0  0  0  0
   59.8187   35.8627   46.5913 H   0  0  0  0  0  0  0  0  0  0  0  0
  1  2  1  0
  2  3  1  0
  3  4  2  0
  3  5  1  0
  5  6  1  0
  6  7  2  0
  7  8  1  0
  7  9  1  0
  9 10  1  0
  9 11  2  0
 11 12  1  0
 12 13  2  0
 12 14  1  0
 14 15  1  0
 15 16  2  0
 15 17  1  0
 17 18  1  0
 18 19  2  0
 19 20  1  0
  2 21  2  0
 21 22  1  0
 21 23  1  0
 23 24  1  0
 24 25  1  0
 25 26  1  0
 25 27  2  0
 27 28  1  0
 27 29  1  0
 29 30  1  0
 19  6  1  0
 29 23  2  0
 18 11  1  0
M  CHG  3   5  -1  14  -1  17  -1
M  END
>  <UniqueID>  (59) 
59

>  <SMILES>  (59) 
O=C(/C=C\c1cccs1)[N-]c1ccc2c(=O)[n-]c(=O)[n-]c2c1

>  <Energy>  (59) 
72.96394096695172

>  <Genealogy>  (59) 
O=C(C=Cc1cccs1)[N-]c1ccc2c(=O)[n-]c(=O)[n-]c2c1 (protonated)
O=C(/C=C\c1cccs1)[N-]c1ccc2c(=O)[n-]c(=O)[n-]c2c1 (cis-trans isomerization)
O=C(/C=C\c1cccs1)[N-]c1ccc2c(=O)[n-]c(=O)[n-]c2c1 (3D coordinates assigned)
O=C(/C=C\c1cccs1)[N-]c1ccc2c(=O)[n-]c(=O)[n-]c2c1 (optimized conformer: 72.96394096695172 kcal/mol)

>  <smiles>  (59) 
O=C(C=Cc1cccs1)Nc1ccc2c(=O)[nH]c(=O)[nH]c2c1

>  <score_type>  (59) 
oracle

>  <origin>  (59) 
adg

>  <m_score__min__energy>  (59) 
-12.98

>  <m_primary>  (59) 
energy

$$$$
59:0
     RDKit          3D

 52 55  0  0  0  0  0  0  0  0999 V2000
   56.8180   29.6220   42.9060 C   0  0  0  0  0  0  0  0  0  0  0  0
   57.4680   30.4470   43.7450 C   0  0  0  0  0  0  0  0  0  0  0  0
   57.4770   31.8190   43.4240 C   0  0  0  0  0  0  0  0  0  0  0  0
   57.8790   32.7710   44.3560 C   0  0  0  0  0  0  0  0  0  0  0  0
   58.2620   32.3850   45.6430 C   0  0  0  0  0  0  0  0  0  0  0  0
   58.6570   33.4040   46.6430 C   0  0  0  0  0  0  0  0  0  0  0  0
   57.8280   34.2920   46.9830 O   0  0  0  0  0  0  0  0  0  0  0  0
   59.9640   33.3910   47.2430 N   0  0  0  0  0  0  0  0  0  0  0  0
   60.1060   33.7490   48.6600 C   0  0  0  0  0  0  0  0  0  0  0  0
   61.2840   33.0010   49.3210 C   0  0  0  0  0  0  0  0  0  0  0  0
   62.2780   32.4960   48.3430 N   0  0  0  0  0  0  0  0  0  0  0  0
   63.5470   32.0860   49.0000 C   0  0  0  0  0  0  0  0  0  0  0  0
   63.3660   31.4520   50.3990 C   0  0  0  0  0  0  0  0  0  0  0  0
   64.7380   31.0500   50.9910 C   0  0  0  0  0  0  0  0  0  0  0  0
   65.8420   31.6500   50.3290 O   0  0  0  0  0  0  0  0  0  0  0  0
   65.6130   33.0340   50.1440 C   0  0  0  0  0  0  0  0  0  0  0  0
   64.5360   33.2700   49.0710 C   0  0  0  0  0  0  0  0  0  0  0  0
   62.4330   33.4120   47.1980 C   0  0  0  0  0  0  0  0  0  0  0  0
   61.1480   33.3760   46.3720 C   0  0  0  0  0  0  0  0  0  0  0  0
   58.3310   31.0200   45.9560 C   0  0  0  0  0  0  0  0  0  0  0  0
   58.0160   30.0270   45.0010 C   0  0  0  0  0  0  0  0  0  0  0  0
   58.2860   28.7420   45.3460 C   0  0  0  0  0  0  0  0  0  0  0  0
   57.2870   27.6930   45.6360 C   0  0  0  0  0  0  0  0  0  0  0  0
   57.5670   26.4870   46.1650 N   0  0  0  0  0  0  0  0  0  0  0  0
   56.3470   25.9390   46.3510 C   0  0  0  0  0  0  0  0  0  0  0  0
   56.1880   24.7840   46.8280 O   0  0  0  0  0  0  0  0  0  0  0  0
   55.3100   26.7280   45.9970 N   0  0  0  0  0  0  0  0  0  0  0  0
   55.9240   27.8380   45.5580 C   0  0  0  0  0  0  0  0  0  0  0  0
   55.2510   28.9630   45.0980 O   0  0  0  0  0  0  0  0  0  0  0  0
   56.7828   28.5423   43.1136 H   0  0  0  0  0  0  0  0  0  0  0  0
   56.3213   30.0266   42.0118 H   0  0  0  0  0  0  0  0  0  0  0  0
   57.1614   32.1426   42.4212 H   0  0  0  0  0  0  0  0  0  0  0  0
   57.8953   33.8350   44.0774 H   0  0  0  0  0  0  0  0  0  0  0  0
   60.2820   34.8320   48.7385 H   0  0  0  0  0  0  0  0  0  0  0  0
   59.1809   33.4620   49.1813 H   0  0  0  0  0  0  0  0  0  0  0  0
   61.7921   33.6900   50.0118 H   0  0  0  0  0  0  0  0  0  0  0  0
   60.8653   32.1275   49.8422 H   0  0  0  0  0  0  0  0  0  0  0  0
   63.9616   31.2920   48.3615 H   0  0  0  0  0  0  0  0  0  0  0  0
   62.8824   32.1800   51.0669 H   0  0  0  0  0  0  0  0  0  0  0  0
   62.7408   30.5519   50.3045 H   0  0  0  0  0  0  0  0  0  0  0  0
   64.7617   31.3509   52.0488 H   0  0  0  0  0  0  0  0  0  0  0  0
   64.8379   29.9621   50.8625 H   0  0  0  0  0  0  0  0  0  0  0  0
   65.2778   33.4745   51.0946 H   0  0  0  0  0  0  0  0  0  0  0  0
   66.5501   33.5057   49.8133 H   0  0  0  0  0  0  0  0  0  0  0  0
   63.9803   34.1870   49.3165 H   0  0  0  0  0  0  0  0  0  0  0  0
   65.0334   33.3664   48.0946 H   0  0  0  0  0  0  0  0  0  0  0  0
   62.6117   34.4345   47.5622 H   0  0  0  0  0  0  0  0  0  0  0  0
   63.2879   33.1014   46.5794 H   0  0  0  0  0  0  0  0  0  0  0  0
   61.1200   34.2548   45.7110 H   0  0  0  0  0  0  0  0  0  0  0  0
   61.1368   32.4492   45.7796 H   0  0  0  0  0  0  0  0  0  0  0  0
   58.6372   30.7152   46.9676 H   0  0  0  0  0  0  0  0  0  0  0  0
   59.3458   28.4557   45.4160 H   0  0  0  0  0  0  0  0  0  0  0  0
  1  2  2  0
  2  3  1  0
  3  4  2  0
  4  5  1  0
  5  6  1  0
  6  7  2  0
  6  8  1  0
  8  9  1  0
  9 10  1  0
 10 11  1  0
 11 12  1  0
 12 13  1  0
 13 14  1  0
 14 15  1  0
 15 16  1  0
 16 17  1  0
 11 18  1  0
 18 19  1  0
  5 20  2  0
 20 21  1  0
 21 22  2  3
 22 23  1  0
 23 24  1  0
 24 25  1  0
 25 26  2  0
 25 27  1  0
 27 28  1  0
 28 29  1  0
 21  2  1  0
 28 23  2  0
 19  8  1  0
 17 12  1  0
  1 30  1  0
  1 31  1  0
  3 32  1  0
  4 33  1  0
  9 34  1  0
  9 35  1  0
 10 36  1  0
 10 37  1  0
 12 38  1  0
 13 39  1  0
 13 40  1  0
 14 41  1  0
 14 42  1  0
 16 43  1  0
 16 44  1  0
 17 45  1  0
 17 46  1  0
 18 47  1  0
 18 48  1  0
 19 49  1  0
 19 50  1  0
 20 51  1  0
 22 52  1  0
M  CHG  3  24  -1  27  -1  29  -1
M  END
>  <UniqueID>  (60) 
60

>  <SMILES>  (60) 
C=c1ccc(C(=O)N2CCN(C3CCOCC3)CC2)cc1=Cc1[n-]c(=O)[n-]c1[O-]

>  <Energy>  (60) 
125.61153046905424

>  <Genealogy>  (60) 
C=c1ccc(C(=O)N2CCN(C3CCOCC3)CC2)cc1=Cc1[n-]c(=O)[n-]c1[O-] (protonated)
C=c1ccc(C(=O)N2CCN(C3CCOCC3)CC2)cc1=Cc1[n-]c(=O)[n-]c1[O-] (3D coordinates assigned)
C=c1ccc(C(=O)N2CCN(C3CCOCC3)CC2)cc1=Cc1[n-]c(=O)[n-]c1[O-] (nonaromatic ring conformer: 125.61153046905424 kcal/mol)

>  <smiles>  (60) 
C=c1ccc(C(=O)N2CCN(C3CCOCC3)CC2)cc1=Cc1[nH]c(=O)[nH]c1O

>  <score_type>  (60) 
oracle

>  <origin>  (60) 
adg

>  <m_score__min__energy>  (60) 
-17.920000000000002

>  <m_primary>  (60) 
energy

$$$$
60:0
     RDKit          3D

 78 82  0  0  0  0  0  0  0  0999 V2000
   57.7850   31.7750   43.4480 C   0  0  0  0  0  0  0  0  0  0  0  0
   57.0620   31.4990   44.7220 C   0  0  0  0  0  0  0  0  0  0  0  0
   56.2360   30.5540   44.7710 O   0  0  0  0  0  0  0  0  0  0  0  0
   57.3810   32.2470   45.9010 N   0  0  0  0  0  0  0  0  0  0  0  0
   58.7040   32.4470   46.4100 C   0  0  0  0  0  0  0  0  0  0  0  0
   59.2270   33.7370   46.6000 C   0  0  0  0  0  0  0  0  0  0  0  0
   60.5470   33.9030   47.0240 C   0  0  0  0  0  0  0  0  0  0  0  0
   61.3540   32.7870   47.2690 C   0  0  0  0  0  0  0  0  0  0  0  0
   63.0230   33.0300   47.7710 S   0  0  0  0  0  0  0  0  0  0  0  0
   63.6830   34.1170   46.9640 O   0  0  0  0  0  0  0  0  0  0  0  0
   63.7780   31.7500   47.5580 O   0  0  0  0  0  0  0  0  0  0  0  0
   63.0390   33.4330   49.4670 N   0  0  0  0  0  0  0  0  0  0  0  0
   64.0770   33.4490   50.2520 C   0  0  0  0  0  0  0  0  0  0  0  0
   65.0010   32.3870   50.3070 C   0  0  0  0  0  0  0  0  0  0  0  0
   66.1310   32.4910   51.1380 C   0  0  0  0  0  0  0  0  0  0  0  0
   67.0580   31.4470   51.2920 O   0  0  0  0  0  0  0  0  0  0  0  0
   66.7150   30.1210   51.5770 C   0  0  0  0  0  0  0  0  0  0  0  0
   67.6940   29.1150   51.6270 C   0  0  0  0  0  0  0  0  0  0  0  0
   67.3210   27.7890   51.8690 C   0  0  0  0  0  0  0  0  0  0  0  0
   65.9740   27.4660   52.0570 C   0  0  0  0  0  0  0  0  0  0  0  0
   64.9890   28.4710   52.0500 C   0  0  0  0  0  0  0  0  0  0  0  0
   63.5600   28.1110   52.1900 C   0  0  0  0  0  0  0  0  0  0  0  0
   63.2160   27.3220   53.1180 O   0  0  0  0  0  0  0  0  0  0  0  0
   62.5580   28.5780   51.2610 N   0  0  0  0  0  0  0  0  0  0  0  0
   62.6750   29.8880   50.6070 C   0  0  0  0  0  0  0  0  0  0  0  0
   61.3210   30.6070   50.6070 C   0  0  0  0  0  0  0  0  0  0  0  0
   60.2260   29.7260   50.1690 N   0  0  0  0  0  0  0  0  0  0  0  0
   58.9180   30.2650   49.8740 C   0  0  0  0  0  0  0  0  0  0  0  0
   58.1470   29.6380   49.0950 O   0  0  0  0  0  0  0  0  0  0  0  0
   58.3930   31.5050   50.5700 C   0  0  0  0  0  0  0  0  0  0  0  0
   59.2500   32.7220   50.1570 C   0  0  0  0  0  0  0  0  0  0  0  0
   59.1430   33.8330   51.2050 C   0  0  0  0  0  0  0  0  0  0  0  0
   59.6930   33.4130   52.5170 N   0  0  0  0  0  0  0  0  0  0  0  0
   59.1230   34.2360   53.5990 C   0  0  0  0  0  0  0  0  0  0  0  0
   59.5530   31.9620   52.8050 C   0  0  0  0  0  0  0  0  0  0  0  0
   58.3330   31.3300   52.1120 C   0  0  0  0  0  0  0  0  0  0  0  0
   60.5070   28.3100   49.8860 C   0  0  0  0  0  0  0  0  0  0  0  0
   61.4020   27.7170   50.9780 C   0  0  0  0  0  0  0  0  0  0  0  0
   65.3720   29.8010   51.8150 C   0  0  0  0  0  0  0  0  0  0  0  0
   66.3280   33.6660   51.8660 C   0  0  0  0  0  0  0  0  0  0  0  0
   65.3810   34.6870   51.8030 C   0  0  0  0  0  0  0  0  0  0  0  0
   64.2880   34.5540   51.0130 N   0  0  0  0  0  0  0  0  0  0  0  0
   60.8330   31.5000   47.0840 C   0  0  0  0  0  0  0  0  0  0  0  0
   59.5160   31.3320   46.6440 C   0  0  0  0  0  0  0  0  0  0  0  0
   58.7909   32.1590   43.6731 H   0  0  0  0  0  0  0  0  0  0  0  0
   57.8691   30.8457   42.8654 H   0  0  0  0  0  0  0  0  0  0  0  0
   57.2285   32.5239   42.8654 H   0  0  0  0  0  0  0  0  0  0  0  0
   58.5953   34.6182   46.4143 H   0  0  0  0  0  0  0  0  0  0  0  0
   60.9538   34.9151   47.1659 H   0  0  0  0  0  0  0  0  0  0  0  0
   64.8397   31.4816   49.7035 H   0  0  0  0  0  0  0  0  0  0  0  0
   68.7533   29.3699   51.4759 H   0  0  0  0  0  0  0  0  0  0  0  0
   68.0871   27.0008   51.9114 H   0  0  0  0  0  0  0  0  0  0  0  0
   65.6814   26.4170   52.2118 H   0  0  0  0  0  0  0  0  0  0  0  0
   63.4105   30.4999   51.1498 H   0  0  0  0  0  0  0  0  0  0  0  0
   63.0010   29.7402   49.5669 H   0  0  0  0  0  0  0  0  0  0  0  0
   61.1065   30.9592   51.6268 H   0  0  0  0  0  0  0  0  0  0  0  0
   61.3836   31.4469   49.8994 H   0  0  0  0  0  0  0  0  0  0  0  0
   57.3549   31.6770   50.2494 H   0  0  0  0  0  0  0  0  0  0  0  0
   60.3010   32.4105   50.0656 H   0  0  0  0  0  0  0  0  0  0  0  0
   58.8831   33.1051   49.1934 H   0  0  0  0  0  0  0  0  0  0  0  0
   59.7022   34.7113   50.8501 H   0  0  0  0  0  0  0  0  0  0  0  0
   58.0775   34.0692   51.3427 H   0  0  0  0  0  0  0  0  0  0  0  0
   59.4146   33.8149   54.5725 H   0  0  0  0  0  0  0  0  0  0  0  0
   59.5029   35.2650   53.5160 H   0  0  0  0  0  0  0  0  0  0  0  0
   58.0262   34.2422   53.5160 H   0  0  0  0  0  0  0  0  0  0  0  0
   60.4604   31.4460   52.4581 H   0  0  0  0  0  0  0  0  0  0  0  0
   59.4102   31.8527   53.8902 H   0  0  0  0  0  0  0  0  0  0  0  0
   58.3058   30.2560   52.3480 H   0  0  0  0  0  0  0  0  0  0  0  0
   57.4290   31.8376   52.4796 H   0  0  0  0  0  0  0  0  0  0  0  0
   59.5596   27.7521   49.8507 H   0  0  0  0  0  0  0  0  0  0  0  0
   61.0252   28.2345   48.9186 H   0  0  0  0  0  0  0  0  0  0  0  0
   60.8111   27.5999   51.8984 H   0  0  0  0  0  0  0  0  0  0  0  0
   61.7770   26.7455   50.6235 H   0  0  0  0  0  0  0  0  0  0  0  0
   64.6128   30.5970   51.8178 H   0  0  0  0  0  0  0  0  0  0  0  0
   67.2278   33.7857   52.4874 H   0  0  0  0  0  0  0  0  0  0  0  0
   65.5213   35.6028   52.3960 H   0  0  0  0  0  0  0  0  0  0  0  0
   61.4610   30.6196   47.2852 H   0  0  0  0  0  0  0  0  0  0  0  0
   59.1173   30.3198   46.4814 H   0  0  0  0  0  0  0  0  0  0  0  0
  1  2  1  0
  2  3  2  0
  2  4  1  0
  4  5  1  0
  5  6  2  0
  6  7  1  0
  7  8  2  0
  8  9  1  0
  9 10  2  0
  9 11  2  0
  9 12  1  0
 12 13  2  3
 13 14  1  0
 14 15  2  0
 15 16  1  0
 16 17  1  0
 17 18  2  0
 18 19  1  0
 19 20  2  0
 20 21  1  0
 21 22  1  0
 22 23  2  0
 22 24  1  0
 24 25  1  0
 25 26  1  0
 26 27  1  0
 27 28  1  0
 28 29  2  0
 28 30  1  0
 30 31  1  0
 31 32  1  0
 32 33  1  0
 33 34  1  0
 33 35  1  0
 35 36  1  0
 27 37  1  0
 37 38  1  0
 21 39  2  0
 15 40  1  0
 40 41  2  0
 41 42  1  0
  8 43  1  0
 43 44  2  0
 44  5  1  0
 42 13  1  0
 39 17  1  0
 38 24  1  0
 36 30  1  0
  1 45  1  0
  1 46  1  0
  1 47  1  0
  6 48  1  0
  7 49  1  0
 14 50  1  0
 18 51  1  0
 19 52  1  0
 20 53  1  0
 25 54  1  0
 25 55  1  0
 26 56  1  0
 26 57  1  0
 30 58  1  0
 31 59  1  0
 31 60  1  0
 32 61  1  0
 32 62  1  0
 34 63  1  0
 34 64  1  0
 34 65  1  0
 35 66  1  0
 35 67  1  0
 36 68  1  0
 36 69  1  0
 37 70  1  0
 37 71  1  0
 38 72  1  0
 38 73  1  0
 39 74  1  0
 40 75  1  0
 41 76  1  0
 43 77  1  0
 44 78  1  0
M  CHG  2   4  -1  42  -1
M  END
>  <UniqueID>  (61) 
61

>  <SMILES>  (61) 
CC(=O)[N-]c1ccc(S(=O)(=O)N=c2cc(Oc3cccc(C(=O)N4CCN(C(=O)C5CCN(C)CC5)CC4)c3)cc[n-]2)cc1

>  <Energy>  (61) 
112.23892687141804

>  <Genealogy>  (61) 
CC(=O)[N-]c1ccc(S(=O)(=O)N=c2cc(Oc3cccc(C(=O)N4CCN(C(=O)C5CCN(C)CC5)CC4)c3)cc[n-]2)cc1 (protonated)
CC(=O)[N-]c1ccc(S(=O)(=O)N=c2cc(Oc3cccc(C(=O)N4CCN(C(=O)C5CCN(C)CC5)CC4)c3)cc[n-]2)cc1 (3D coordinates assigned)
CC(=O)[N-]c1ccc(S(=O)(=O)N=c2cc(Oc3cccc(C(=O)N4CCN(C(=O)C5CCN(C)CC5)CC4)c3)cc[n-]2)cc1 (nonaromatic ring conformer: 112.23892687141804 kcal/mol)

>  <smiles>  (61) 
CC(=O)Nc1ccc(S(=O)(=O)N=c2cc(Oc3cccc(C(=O)N4CCN(C(=O)C5CCN(C)CC5)CC4)c3)cc[nH]2)cc1

>  <score_type>  (61) 
oracle

>  <origin>  (61) 
adg

>  <m_score__min__energy>  (61) 
-13.630000000000001

>  <m_primary>  (61) 
energy

$$$$
61:0
     RDKit          3D

 36 38  0  0  0  0  0  0  0  0999 V2000
   54.6643   30.9758   43.9571 H   0  0  0  0  0  0  0  0  0  0  0  0
   55.5000   30.2760   44.1050 C   0  0  0  0  0  0  0  0  0  0  0  0
   55.5320   29.2760   45.0100 N   0  0  0  0  0  0  0  0  0  0  0  0
   56.7440   28.7080   44.8220 C   0  0  0  0  0  0  0  0  0  0  0  0
   57.1720   27.6720   45.4840 N   0  0  0  0  0  0  0  0  0  0  0  0
   56.4640   26.4330   45.6320 C   0  0  0  0  0  0  0  0  0  0  0  0
   55.2650   26.4640   46.0150 O   0  0  0  0  0  0  0  0  0  0  0  0
   57.0730   25.1340   45.2910 C   0  0  0  0  0  0  0  0  0  0  0  0
   56.5200   24.0950   44.0890 S   0  0  0  0  0  0  0  0  0  0  0  0
   57.7220   22.9350   44.2720 C   0  0  0  0  0  0  0  0  0  0  0  0
   57.8102   22.0016   43.6967 H   0  0  0  0  0  0  0  0  0  0  0  0
   58.5850   23.3580   45.2750 C   0  0  0  0  0  0  0  0  0  0  0  0
   59.4648   22.7803   45.5948 H   0  0  0  0  0  0  0  0  0  0  0  0
   58.2300   24.5890   45.8410 C   0  0  0  0  0  0  0  0  0  0  0  0
   58.8076   25.0764   46.6402 H   0  0  0  0  0  0  0  0  0  0  0  0
   57.4640   29.2880   43.8450 N   0  0  0  0  0  0  0  0  0  0  0  0
   58.4160   29.0210   43.5070 H   0  0  0  0  0  0  0  0  0  0  0  0
   56.6820   30.2810   43.3950 C   0  0  0  0  0  0  0  0  0  0  0  0
   57.0470   31.2120   42.2820 C   0  0  0  0  0  0  0  0  0  0  0  0
   57.5588   30.6455   41.4901 H   0  0  0  0  0  0  0  0  0  0  0  0
   56.1282   31.6714   41.8885 H   0  0  0  0  0  0  0  0  0  0  0  0
   58.1550   32.5350   42.8860 S   0  0  0  0  0  0  0  0  0  0  0  0
   57.3140   32.8230   44.4850 C   0  0  0  0  0  0  0  0  0  0  0  0
   56.6103   33.6613   44.3752 H   0  0  0  0  0  0  0  0  0  0  0  0
   56.7792   31.9048   44.7695 H   0  0  0  0  0  0  0  0  0  0  0  0
   58.3070   33.1530   45.5660 C   0  0  0  0  0  0  0  0  0  0  0  0
   58.7150   34.4820   45.7670 C   0  0  0  0  0  0  0  0  0  0  0  0
   58.3018   35.2830   45.1365 H   0  0  0  0  0  0  0  0  0  0  0  0
   59.6440   34.7910   46.7650 C   0  0  0  0  0  0  0  0  0  0  0  0
   59.9606   35.8334   46.9170 H   0  0  0  0  0  0  0  0  0  0  0  0
   60.1710   33.7770   47.5700 C   0  0  0  0  0  0  0  0  0  0  0  0
   61.3390   34.1670   48.8200 Cl  0  0  0  0  0  0  0  0  0  0  0  0
   59.7670   32.4520   47.3780 C   0  0  0  0  0  0  0  0  0  0  0  0
   60.1803   31.6543   48.0127 H   0  0  0  0  0  0  0  0  0  0  0  0
   58.8390   32.1400   46.3810 C   0  0  0  0  0  0  0  0  0  0  0  0
   58.5236   31.0965   46.2337 H   0  0  0  0  0  0  0  0  0  0  0  0
  1  2  1  0
  2  3  1  0
  3  4  1  0
  4  5  2  0
  5  6  1  0
  6  7  2  0
  6  8  1  0
  8  9  1  0
  9 10  1  0
 10 11  1  0
 10 12  2  0
 12 13  1  0
 12 14  1  0
 14 15  1  0
  4 16  1  0
 16 17  1  0
 16 18  1  0
 18 19  1  0
 19 20  1  0
 19 21  1  0
 19 22  1  0
 22 23  1  0
 23 24  1  0
 23 25  1  0
 23 26  1  0
 26 27  2  0
 27 28  1  0
 27 29  1  0
 29 30  1  0
 29 31  2  0
 31 32  1  0
 31 33  1  0
 33 34  1  0
 33 35  2  0
 35 36  1  0
 18  2  2  0
 35 26  1  0
 14  8  2  0
M  CHG  1   3  -1
M  END
>  <UniqueID>  (62) 
62

>  <SMILES>  (62) 
O=C(/N=c1\[n-]cc(CSCc2ccc(Cl)cc2)[nH]1)c1cccs1

>  <Energy>  (62) 
94.39128694049879

>  <Genealogy>  (62) 
O=C(N=c1[n-]cc(CSCc2ccc(Cl)cc2)[nH]1)c1cccs1 (protonated)
O=C(/N=c1\[n-]cc(CSCc2ccc(Cl)cc2)[nH]1)c1cccs1 (cis-trans isomerization)
O=C(/N=c1\[n-]cc(CSCc2ccc(Cl)cc2)[nH]1)c1cccs1 (3D coordinates assigned)
O=C(/N=c1\[n-]cc(CSCc2ccc(Cl)cc2)[nH]1)c1cccs1 (optimized conformer: 94.39128694049879 kcal/mol)

>  <smiles>  (62) 
O=C(N=c1[nH]cc(CSCc2ccc(Cl)cc2)[nH]1)c1cccs1

>  <score_type>  (62) 
oracle

>  <origin>  (62) 
adg

>  <m_score__min__energy>  (62) 
-10.32

>  <m_primary>  (62) 
energy

$$$$
62:0
     RDKit          3D

 55 59  0  0  0  0  0  0  0  0999 V2000
   60.1360   28.8730   46.4980 O   0  0  0  0  0  0  0  0  0  0  0  0
   59.0880   29.5730   46.5490 C   0  0  0  0  0  0  0  0  0  0  0  0
   58.6530   30.1690   47.8380 C   0  0  0  0  0  0  0  0  0  0  0  0
   58.7470   31.4790   48.1540 C   0  0  0  0  0  0  0  0  0  0  0  0
   58.7660   31.8980   49.5830 C   0  0  0  0  0  0  0  0  0  0  0  0
   59.3330   33.1300   49.9690 C   0  0  0  0  0  0  0  0  0  0  0  0
   59.3350   33.5190   51.3100 C   0  0  0  0  0  0  0  0  0  0  0  0
   58.7700   32.6910   52.2830 C   0  0  0  0  0  0  0  0  0  0  0  0
   58.1990   31.4710   51.9140 C   0  0  0  0  0  0  0  0  0  0  0  0
   58.1930   31.0760   50.5730 C   0  0  0  0  0  0  0  0  0  0  0  0
   58.7530   32.5370   47.1150 C   0  0  0  0  0  0  0  0  0  0  0  0
   59.9690   33.0010   46.5890 C   0  0  0  0  0  0  0  0  0  0  0  0
   59.9760   34.0170   45.6280 C   0  0  0  0  0  0  0  0  0  0  0  0
   58.7720   34.5830   45.1960 C   0  0  0  0  0  0  0  0  0  0  0  0
   57.5600   34.1370   45.7290 C   0  0  0  0  0  0  0  0  0  0  0  0
   57.5480   33.1220   46.6900 C   0  0  0  0  0  0  0  0  0  0  0  0
   58.3300   29.7880   45.3400 N   0  0  0  0  0  0  0  0  0  0  0  0
   58.8540   30.6520   44.2700 C   0  0  0  0  0  0  0  0  0  0  0  0
   57.7500   31.5820   43.7550 C   0  0  0  0  0  0  0  0  0  0  0  0
   56.4700   30.8320   43.3280 C   0  0  0  0  0  0  0  0  0  0  0  0
   56.4310   29.3670   43.7860 C   0  0  0  0  0  0  0  0  0  0  0  0
   56.9770   29.2050   45.2160 C   0  0  1  0  0  0  0  0  0  0  0  0
   56.9930   27.7470   45.5860 C   0  0  0  0  0  0  0  0  0  0  0  0
   58.1390   27.0180   45.6390 N   0  0  0  0  0  0  0  0  0  0  0  0
   57.6900   25.7960   45.9540 C   0  0  0  0  0  0  0  0  0  0  0  0
   58.4340   24.6290   46.1230 C   0  0  0  0  0  0  0  0  0  0  0  0
   59.7820   24.6320   45.9860 F   0  0  0  0  0  0  0  0  0  0  0  0
   57.7360   23.4460   46.4270 C   0  0  0  0  0  0  0  0  0  0  0  0
   56.3280   23.4590   46.5520 C   0  0  0  0  0  0  0  0  0  0  0  0
   55.6650   22.3120   46.8400 F   0  0  0  0  0  0  0  0  0  0  0  0
   55.6090   24.6570   46.3750 C   0  0  0  0  0  0  0  0  0  0  0  0
   56.3350   25.8080   46.0770 C   0  0  0  0  0  0  0  0  0  0  0  0
   55.8600   27.0400   45.8450 N   0  0  0  0  0  0  0  0  0  0  0  0
   58.2222   29.4933   48.5915 H   0  0  0  0  0  0  0  0  0  0  0  0
   59.7768   33.7892   49.2084 H   0  0  0  0  0  0  0  0  0  0  0  0
   59.7829   34.4805   51.6012 H   0  0  0  0  0  0  0  0  0  0  0  0
   58.7748   32.9996   53.3388 H   0  0  0  0  0  0  0  0  0  0  0  0
   57.7531   30.8196   52.6801 H   0  0  0  0  0  0  0  0  0  0  0  0
   57.7374   30.1160   50.2888 H   0  0  0  0  0  0  0  0  0  0  0  0
   60.9182   32.5646   46.9334 H   0  0  0  0  0  0  0  0  0  0  0  0
   60.9301   34.3717   45.2111 H   0  0  0  0  0  0  0  0  0  0  0  0
   58.7794   35.3790   44.4369 H   0  0  0  0  0  0  0  0  0  0  0  0
   56.6137   34.5853   45.3919 H   0  0  0  0  0  0  0  0  0  0  0  0
   56.5926   32.7802   47.1148 H   0  0  0  0  0  0  0  0  0  0  0  0
   59.6841   31.2565   44.6644 H   0  0  0  0  0  0  0  0  0  0  0  0
   59.2098   30.0225   43.4411 H   0  0  0  0  0  0  0  0  0  0  0  0
   57.4891   32.2906   44.5548 H   0  0  0  0  0  0  0  0  0  0  0  0
   58.1427   32.0909   42.8623 H   0  0  0  0  0  0  0  0  0  0  0  0
   55.6022   31.3535   43.7580 H   0  0  0  0  0  0  0  0  0  0  0  0
   56.4531   30.8254   42.2281 H   0  0  0  0  0  0  0  0  0  0  0  0
   55.3901   29.0123   43.7591 H   0  0  0  0  0  0  0  0  0  0  0  0
   57.0649   28.7776   43.1072 H   0  0  0  0  0  0  0  0  0  0  0  0
   56.3170   29.7478   45.9086 H   0  0  0  0  0  0  0  0  0  0  0  0
   58.2890   22.5056   46.5682 H   0  0  0  0  0  0  0  0  0  0  0  0
   54.5133   24.6829   46.4687 H   0  0  0  0  0  0  0  0  0  0  0  0
  1  2  2  0
  2  3  1  0
  3  4  2  3
  4  5  1  0
  5  6  2  0
  6  7  1  0
  7  8  2  0
  8  9  1  0
  9 10  2  0
  4 11  1  0
 11 12  2  0
 12 13  1  0
 13 14  2  0
 14 15  1  0
 15 16  2  0
  2 17  1  0
 17 18  1  0
 18 19  1  0
 19 20  1  0
 20 21  1  0
 21 22  1  0
 22 23  1  0
 23 24  2  0
 24 25  1  0
 25 26  2  0
 26 27  1  0
 26 28  1  0
 28 29  2  0
 29 30  1  0
 29 31  1  0
 31 32  2  0
 32 33  1  0
 10  5  1  0
 16 11  1  0
 22 17  1  0
 33 23  1  0
 32 25  1  0
  3 34  1  0
  6 35  1  0
  7 36  1  0
  8 37  1  0
  9 38  1  0
 10 39  1  0
 12 40  1  0
 13 41  1  0
 14 42  1  0
 15 43  1  0
 16 44  1  0
 18 45  1  0
 18 46  1  0
 19 47  1  0
 19 48  1  0
 20 49  1  0
 20 50  1  0
 21 51  1  0
 21 52  1  0
 22 53  1  1
 28 54  1  0
 31 55  1  0
M  CHG  1  33  -1
M  END
>  <UniqueID>  (63) 
63

>  <SMILES>  (63) 
O=C(C=C(c1ccccc1)c1ccccc1)N1CCCC[C@H]1c1nc2c(F)cc(F)cc2[n-]1

>  <Energy>  (63) 
109.5333952468826

>  <Genealogy>  (63) 
O=C(C=C(c1ccccc1)c1ccccc1)N1CCCCC1c1nc2c(F)cc(F)cc2[n-]1 (protonated)
O=C(C=C(c1ccccc1)c1ccccc1)N1CCCC[C@H]1c1nc2c(F)cc(F)cc2[n-]1 (chirality)
O=C(C=C(c1ccccc1)c1ccccc1)N1CCCC[C@H]1c1nc2c(F)cc(F)cc2[n-]1 (3D coordinates assigned)
O=C(C=C(c1ccccc1)c1ccccc1)N1CCCC[C@H]1c1nc2c(F)cc(F)cc2[n-]1 (nonaromatic ring conformer: 109.5333952468826 kcal/mol)

>  <smiles>  (63) 
O=C(C=C(c1ccccc1)c1ccccc1)N1CCCCC1c1nc2c(F)cc(F)cc2[nH]1

>  <score_type>  (63) 
oracle

>  <origin>  (63) 
adg

>  <m_score__min__energy>  (63) 
-10.19

>  <m_primary>  (63) 
energy

$$$$
63:0
     RDKit          3D

 35 36  0  0  0  0  0  0  0  0999 V2000
   56.1260   21.2380   44.7720 C   0  0  0  0  0  0  0  0  0  0  0  0
   57.0410   21.4770   43.8280 C   0  0  0  0  0  0  0  0  0  0  0  0
   58.2990   22.2390   44.1340 C   0  0  0  0  0  0  0  0  0  0  0  0
   58.0090   23.4350   44.9230 N   0  0  0  0  0  0  0  0  0  0  0  0
   59.0390   24.1140   45.6550 C   0  0  0  0  0  0  0  0  0  0  0  0
   60.1920   23.6100   45.7360 O   0  0  0  0  0  0  0  0  0  0  0  0
   58.7480   25.3970   46.3770 C   0  0  0  0  0  0  0  0  0  0  0  0
   57.3330   25.8490   46.1480 C   0  0  0  0  0  0  0  0  0  0  0  0
   56.2800   25.0210   46.2600 N   0  0  0  0  0  0  0  0  0  0  0  0
   55.2240   25.8110   45.9840 C   0  0  0  0  0  0  0  0  0  0  0  0
   54.0390   25.3880   45.9900 O   0  0  0  0  0  0  0  0  0  0  0  0
   55.5400   27.0900   45.7030 N   0  0  0  0  0  0  0  0  0  0  0  0
   56.8820   27.1160   45.8010 C   0  0  0  0  0  0  0  0  0  0  0  0
   57.6710   28.3380   45.5650 C   0  0  0  0  0  0  0  0  0  0  0  0
   58.8870   28.2320   45.2500 O   0  0  0  0  0  0  0  0  0  0  0  0
   57.0870   29.6320   45.7360 N   0  0  0  0  0  0  0  0  0  0  0  0
   57.5270   30.8060   45.0420 C   0  0  0  0  0  0  0  0  0  0  0  0
   57.2620   30.9870   43.6680 C   0  0  0  0  0  0  0  0  0  0  0  0
   56.3250   29.8150   42.7470 Cl  0  0  0  0  0  0  0  0  0  0  0  0
   57.6960   32.1500   43.0210 C   0  0  0  0  0  0  0  0  0  0  0  0
   58.3780   33.1390   43.7340 C   0  0  0  0  0  0  0  0  0  0  0  0
   58.6210   32.9760   45.0980 C   0  0  0  0  0  0  0  0  0  0  0  0
   58.1910   31.8190   45.7570 C   0  0  0  0  0  0  0  0  0  0  0  0
   58.5280   31.6390   47.4730 Cl  0  0  0  0  0  0  0  0  0  0  0  0
   55.2127   20.6776   44.5234 H   0  0  0  0  0  0  0  0  0  0  0  0
   56.2861   21.6016   45.7977 H   0  0  0  0  0  0  0  0  0  0  0  0
   56.8696   21.1083   42.8059 H   0  0  0  0  0  0  0  0  0  0  0  0
   58.9829   21.5909   44.7016 H   0  0  0  0  0  0  0  0  0  0  0  0
   58.7603   22.5491   43.1847 H   0  0  0  0  0  0  0  0  0  0  0  0
   57.0350   23.8150   44.9550 H   0  0  0  0  0  0  0  0  0  0  0  0
   58.9043   25.2439   47.4550 H   0  0  0  0  0  0  0  0  0  0  0  0
   59.4251   26.1725   45.9894 H   0  0  0  0  0  0  0  0  0  0  0  0
   57.4993   32.2857   41.9473 H   0  0  0  0  0  0  0  0  0  0  0  0
   58.7239   34.0475   43.2192 H   0  0  0  0  0  0  0  0  0  0  0  0
   59.1526   33.7599   45.6575 H   0  0  0  0  0  0  0  0  0  0  0  0
  1  2  2  0
  2  3  1  0
  3  4  1  0
  4  5  1  0
  5  6  2  0
  5  7  1  0
  7  8  1  0
  8  9  1  0
  9 10  1  0
 10 11  2  0
 10 12  1  0
 12 13  1  0
 13 14  1  0
 14 15  2  0
 14 16  1  0
 16 17  1  0
 17 18  2  0
 18 19  1  0
 18 20  1  0
 20 21  2  0
 21 22  1  0
 22 23  2  0
 23 24  1  0
 13  8  2  0
 23 17  1  0
  1 25  1  0
  1 26  1  0
  2 27  1  0
  3 28  1  0
  3 29  1  0
  4 30  1  0
  7 31  1  0
  7 32  1  0
 20 33  1  0
 21 34  1  0
 22 35  1  0
M  CHG  3   9  -1  12  -1  16  -1
M  END
>  <UniqueID>  (64) 
64

>  <SMILES>  (64) 
C=CCNC(=O)Cc1[n-]c(=O)[n-]c1C(=O)[N-]c1c(Cl)cccc1Cl

>  <Energy>  (64) 
63.53467095390801

>  <Genealogy>  (64) 
C=CCNC(=O)Cc1[n-]c(=O)[n-]c1C(=O)[N-]c1c(Cl)cccc1Cl (protonated)
C=CCNC(=O)Cc1[n-]c(=O)[n-]c1C(=O)[N-]c1c(Cl)cccc1Cl (3D coordinates assigned)
C=CCNC(=O)Cc1[n-]c(=O)[n-]c1C(=O)[N-]c1c(Cl)cccc1Cl (optimized conformer: 63.53467095390801 kcal/mol)

>  <smiles>  (64) 
C=CCNC(=O)Cc1[nH]c(=O)[nH]c1C(=O)Nc1c(Cl)cccc1Cl

>  <score_type>  (64) 
oracle

>  <origin>  (64) 
adg

>  <m_score__min__energy>  (64) 
-12.75

>  <m_primary>  (64) 
energy

$$$$
64:0
     RDKit          3D

 50 52  0  0  0  0  0  0  0  0999 V2000
   59.2970   34.9780   45.3190 C   0  0  0  0  0  0  0  0  0  0  0  0
   59.5070   35.3100   46.7900 C   0  0  0  0  0  0  0  0  0  0  0  0
   59.1560   34.1690   47.6280 N   0  0  0  0  0  0  0  0  0  0  0  0
   58.2380   33.1410   47.2350 C   0  0  0  0  0  0  0  0  0  0  0  0
   57.0040   33.3210   47.4190 O   0  0  0  0  0  0  0  0  0  0  0  0
   58.7650   31.8750   46.6340 C   0  0  0  0  0  0  0  0  0  0  0  0
   58.4080   31.4210   45.4000 C   0  0  0  0  0  0  0  0  0  0  0  0
   57.4570   32.1510   44.4940 C   0  0  0  0  0  0  0  0  0  0  0  0
   59.0130   30.2370   44.8590 N   0  0  0  0  0  0  0  0  0  0  0  0
   59.7670   29.4230   45.5310 C   0  0  0  0  0  0  0  0  0  0  0  0
   60.3500   28.2360   44.8290 C   0  0  0  0  0  0  0  0  0  0  0  0
   59.9450   29.5930   47.0150 C   0  0  2  0  0  0  0  0  0  0  0  0
   58.9750   28.6750   47.7160 C   0  0  0  0  0  0  0  0  0  0  0  0
   59.2670   28.2060   48.8480 O   0  0  0  0  0  0  0  0  0  0  0  0
   57.7600   28.2910   47.0550 N   0  0  0  0  0  0  0  0  0  0  0  0
   57.4110   26.9790   46.5960 C   0  0  0  0  0  0  0  0  0  0  0  0
   58.3640   25.9530   46.4700 C   0  0  0  0  0  0  0  0  0  0  0  0
   57.9580   24.6900   46.0350 C   0  0  0  0  0  0  0  0  0  0  0  0
   56.6130   24.4520   45.7470 C   0  0  0  0  0  0  0  0  0  0  0  0
   55.6890   25.4850   45.9080 C   0  0  0  0  0  0  0  0  0  0  0  0
   56.1030   26.7100   46.3270 N   0  0  0  0  0  0  0  0  0  0  0  0
   59.7520   31.0690   47.4750 C   0  0  1  0  0  0  0  0  0  0  0  0
   61.0910   31.7850   47.6950 C   0  0  0  0  0  0  0  0  0  0  0  0
   61.4780   32.7430   46.7340 C   0  0  0  0  0  0  0  0  0  0  0  0
   62.6770   33.4430   46.8550 C   0  0  0  0  0  0  0  0  0  0  0  0
   63.5120   33.2140   47.9430 C   0  0  0  0  0  0  0  0  0  0  0  0
   63.1500   32.2900   48.9250 C   0  0  0  0  0  0  0  0  0  0  0  0
   64.2450   32.0540   50.2850 Cl  0  0  0  0  0  0  0  0  0  0  0  0
   61.9400   31.5740   48.8190 C   0  0  0  0  0  0  0  0  0  0  0  0
   61.5370   30.4460   50.1100 Cl  0  0  0  0  0  0  0  0  0  0  0  0
   58.7108   34.0513   45.2323 H   0  0  0  0  0  0  0  0  0  0  0  0
   58.7552   35.8016   44.8310 H   0  0  0  0  0  0  0  0  0  0  0  0
   60.2733   34.8413   44.8310 H   0  0  0  0  0  0  0  0  0  0  0  0
   60.5633   35.5687   46.9552 H   0  0  0  0  0  0  0  0  0  0  0  0
   58.8613   36.1593   47.0580 H   0  0  0  0  0  0  0  0  0  0  0  0
   56.7290   32.7099   45.1003 H   0  0  0  0  0  0  0  0  0  0  0  0
   58.0198   32.8512   43.8592 H   0  0  0  0  0  0  0  0  0  0  0  0
   56.9261   31.4263   43.8592 H   0  0  0  0  0  0  0  0  0  0  0  0
   60.7071   27.5089   45.5731 H   0  0  0  0  0  0  0  0  0  0  0  0
   59.5794   27.7676   44.1991 H   0  0  0  0  0  0  0  0  0  0  0  0
   61.1917   28.5595   44.1991 H   0  0  0  0  0  0  0  0  0  0  0  0
   60.9796   29.3292   47.2797 H   0  0  0  0  0  0  0  0  0  0  0  0
   59.4200   26.1437   46.7120 H   0  0  0  0  0  0  0  0  0  0  0  0
   58.6970   23.8835   45.9194 H   0  0  0  0  0  0  0  0  0  0  0  0
   56.2855   23.4618   45.3973 H   0  0  0  0  0  0  0  0  0  0  0  0
   54.6243   25.3079   45.6956 H   0  0  0  0  0  0  0  0  0  0  0  0
   59.2623   31.0030   48.4578 H   0  0  0  0  0  0  0  0  0  0  0  0
   60.8215   32.9409   45.8739 H   0  0  0  0  0  0  0  0  0  0  0  0
   62.9633   34.1780   46.0884 H   0  0  0  0  0  0  0  0  0  0  0  0
   64.4613   33.7629   48.0303 H   0  0  0  0  0  0  0  0  0  0  0  0
  1  2  1  0
  2  3  1  0
  3  4  1  0
  4  5  2  0
  4  6  1  0
  6  7  2  0
  7  8  1  0
  7  9  1  0
  9 10  2  0
 10 11  1  0
 10 12  1  0
 12 13  1  0
 13 14  2  0
 13 15  1  0
 15 16  1  0
 16 17  2  0
 17 18  1  0
 18 19  2  0
 19 20  1  0
 20 21  2  0
 12 22  1  0
 22 23  1  0
 23 24  2  0
 24 25  1  0
 25 26  2  0
 26 27  1  0
 27 28  1  0
 27 29  2  0
 29 30  1  0
 22  6  1  0
 29 23  1  0
 21 16  1  0
  1 31  1  0
  1 32  1  0
  1 33  1  0
  2 34  1  0
  2 35  1  0
  8 36  1  0
  8 37  1  0
  8 38  1  0
 11 39  1  0
 11 40  1  0
 11 41  1  0
 12 42  1  1
 17 43  1  0
 18 44  1  0
 19 45  1  0
 20 46  1  0
 22 47  1  1
 24 48  1  0
 25 49  1  0
 26 50  1  0
M  CHG  2   3  -1  15  -1
M  END
>  <UniqueID>  (65) 
65

>  <SMILES>  (65) 
CC[N-]C(=O)C1=C(C)N=C(C)[C@H](C(=O)[N-]c2ccccn2)[C@H]1c1cccc(Cl)c1Cl

>  <Energy>  (65) 
62.520164145689215

>  <Genealogy>  (65) 
CC[N-]C(=O)C1=C(C)N=C(C)C(C(=O)[N-]c2ccccn2)C1c1cccc(Cl)c1Cl (protonated)
CC[N-]C(=O)C1=C(C)N=C(C)[C@H](C(=O)[N-]c2ccccn2)[C@H]1c1cccc(Cl)c1Cl (chirality)
CC[N-]C(=O)C1=C(C)N=C(C)[C@H](C(=O)[N-]c2ccccn2)[C@H]1c1cccc(Cl)c1Cl (3D coordinates assigned)
CC[N-]C(=O)C1=C(C)N=C(C)[C@H](C(=O)[N-]c2ccccn2)[C@H]1c1cccc(Cl)c1Cl (nonaromatic ring conformer: 62.520164145689215 kcal/mol)

>  <smiles>  (65) 
CCNC(=O)C1=C(C)N=C(C)C(C(=O)Nc2ccccn2)C1c1cccc(Cl)c1Cl

>  <score_type>  (65) 
oracle

>  <origin>  (65) 
adg

>  <m_score__min__energy>  (65) 
-11.51

>  <m_primary>  (65) 
energy

$$$$
65:0
     RDKit          3D

 46 49  0  0  0  0  0  0  0  0999 V2000
   54.8170   22.5920   48.9540 C   0  0  0  0  0  0  0  0  0  0  0  0
   55.6720   21.9890   47.8940 C   0  0  0  0  0  0  0  0  0  0  0  0
   55.2840   21.6910   46.6070 C   0  0  0  0  0  0  0  0  0  0  0  0
   56.4410   21.2130   46.0260 C   0  0  0  0  0  0  0  0  0  0  0  0
   56.5910   20.7360   44.6080 C   0  0  0  0  0  0  0  0  0  0  0  0
   57.2170   21.7260   43.6990 N   0  0  0  0  0  0  0  0  0  0  0  0
   56.2840   22.6620   43.0320 C   0  0  0  0  0  0  0  0  0  0  0  0
   55.8420   23.8390   43.9250 C   0  0  0  0  0  0  0  0  0  0  0  0
   56.9500   24.3440   44.8080 C   0  0  0  0  0  0  0  0  0  0  0  0
   58.1360   23.6350   44.9420 C   0  0  0  0  0  0  0  0  0  0  0  0
   59.1660   24.4350   45.9950 S   0  0  0  0  0  0  0  0  0  0  0  0
   58.1040   25.7050   46.3110 C   0  0  0  0  0  0  0  0  0  0  0  0
   58.3340   26.7520   47.2630 N   0  0  0  0  0  0  0  0  0  0  0  0
   59.1670   27.8980   47.0510 C   0  0  0  0  0  0  0  0  0  0  0  0
   60.2960   27.9340   47.6090 O   0  0  0  0  0  0  0  0  0  0  0  0
   58.7140   29.0590   46.2500 C   0  0  0  0  0  0  0  0  0  0  0  0
   58.3930   28.8990   44.8900 C   0  0  0  0  0  0  0  0  0  0  0  0
   57.9560   29.9900   44.1330 C   0  0  0  0  0  0  0  0  0  0  0  0
   57.8240   31.2460   44.7270 C   0  0  0  0  0  0  0  0  0  0  0  0
   58.1260   31.4150   46.0800 C   0  0  0  0  0  0  0  0  0  0  0  0
   58.5650   30.3280   46.8440 C   0  0  0  0  0  0  0  0  0  0  0  0
   58.8680   30.5230   48.1530 F   0  0  0  0  0  0  0  0  0  0  0  0
   56.9070   25.5100   45.6110 C   0  0  0  0  0  0  0  0  0  0  0  0
   55.7470   26.4280   45.7250 C   0  0  0  0  0  0  0  0  0  0  0  0
   54.4350   25.9280   45.9680 N   0  0  0  0  0  0  0  0  0  0  0  0
   55.9140   27.6730   45.6220 O   0  0  0  0  0  0  0  0  0  0  0  0
   58.4460   22.3680   44.2080 C   0  0  0  0  0  0  0  0  0  0  0  0
   57.4380   21.2150   46.9340 N   0  0  0  0  0  0  0  0  0  0  0  0
   56.9430   21.6940   48.0380 O   0  0  0  0  0  0  0  0  0  0  0  0
   55.2097   22.3150   49.9435 H   0  0  0  0  0  0  0  0  0  0  0  0
   54.8226   23.6871   48.8507 H   0  0  0  0  0  0  0  0  0  0  0  0
   53.7873   22.2192   48.8507 H   0  0  0  0  0  0  0  0  0  0  0  0
   54.2897   21.8063   46.1509 H   0  0  0  0  0  0  0  0  0  0  0  0
   57.2137   19.8293   44.6127 H   0  0  0  0  0  0  0  0  0  0  0  0
   55.5759   20.5525   44.2262 H   0  0  0  0  0  0  0  0  0  0  0  0
   56.7810   23.0707   42.1398 H   0  0  0  0  0  0  0  0  0  0  0  0
   55.3781   22.0898   42.7831 H   0  0  0  0  0  0  0  0  0  0  0  0
   55.5028   24.6627   43.2796 H   0  0  0  0  0  0  0  0  0  0  0  0
   55.0348   23.4762   44.5784 H   0  0  0  0  0  0  0  0  0  0  0  0
   58.4864   27.9093   44.4191 H   0  0  0  0  0  0  0  0  0  0  0  0
   57.7158   29.8583   43.0676 H   0  0  0  0  0  0  0  0  0  0  0  0
   57.4818   32.1035   44.1290 H   0  0  0  0  0  0  0  0  0  0  0  0
   58.0185   32.4054   46.5464 H   0  0  0  0  0  0  0  0  0  0  0  0
   53.6050   26.3330   45.4790 H   0  0  0  0  0  0  0  0  0  0  0  0
   59.1072   22.5984   43.3596 H   0  0  0  0  0  0  0  0  0  0  0  0
   58.9355   21.6737   44.9069 H   0  0  0  0  0  0  0  0  0  0  0  0
  1  2  1  0
  2  3  2  0
  3  4  1  0
  4  5  1  0
  5  6  1  0
  6  7  1  0
  7  8  1  0
  8  9  1  0
  9 10  2  0
 10 11  1  0
 11 12  1  0
 12 13  1  0
 13 14  1  0
 14 15  2  0
 14 16  1  0
 16 17  2  0
 17 18  1  0
 18 19  2  0
 19 20  1  0
 20 21  2  0
 21 22  1  0
 12 23  2  0
 23 24  1  0
 24 25  1  0
 24 26  2  0
 10 27  1  0
  4 28  2  0
 28 29  1  0
 29  2  1  0
 27  6  1  0
 23  9  1  0
 21 16  1  0
  1 30  1  0
  1 31  1  0
  1 32  1  0
  3 33  1  0
  5 34  1  0
  5 35  1  0
  7 36  1  0
  7 37  1  0
  8 38  1  0
  8 39  1  0
 17 40  1  0
 18 41  1  0
 19 42  1  0
 20 43  1  0
 25 44  1  0
 27 45  1  0
 27 46  1  0
M  CHG  2  13  -1  25  -1
M  END
>  <UniqueID>  (66) 
66

>  <SMILES>  (66) 
Cc1cc(CN2CCc3c(sc([N-]C(=O)c4ccccc4F)c3C([NH-])=O)C2)no1

>  <Energy>  (66) 
121.70546986056334

>  <Genealogy>  (66) 
Cc1cc(CN2CCc3c(sc([N-]C(=O)c4ccccc4F)c3C([NH-])=O)C2)no1 (protonated)
Cc1cc(CN2CCc3c(sc([N-]C(=O)c4ccccc4F)c3C([NH-])=O)C2)no1 (3D coordinates assigned)
Cc1cc(CN2CCc3c(sc([N-]C(=O)c4ccccc4F)c3C([NH-])=O)C2)no1 (nonaromatic ring conformer: 121.70546986056334 kcal/mol)

>  <smiles>  (66) 
Cc1cc(CN2CCc3c(sc(NC(=O)c4ccccc4F)c3C(N)=O)C2)no1

>  <score_type>  (66) 
oracle

>  <origin>  (66) 
adg

>  <m_score__min__energy>  (66) 
-13.44

>  <m_primary>  (66) 
energy

$$$$
66:0
     RDKit          3D

 40 42  0  0  0  0  0  0  0  0999 V2000
   53.6730   22.5860   45.1220 N   0  0  0  0  0  0  0  0  0  0  0  0
   54.9450   22.9960   44.6250 C   0  0  0  0  0  0  0  0  0  0  0  0
   55.5230   22.2790   43.7640 O   0  0  0  0  0  0  0  0  0  0  0  0
   55.5760   24.2500   45.1150 C   0  0  0  0  0  0  0  0  0  0  0  0
   56.9740   24.3900   45.1030 C   0  0  0  0  0  0  0  0  0  0  0  0
   57.5540   25.5330   45.5500 N   0  0  0  0  0  0  0  0  0  0  0  0
   56.8100   26.5630   46.0270 C   0  0  0  0  0  0  0  0  0  0  0  0
   57.4110   27.6470   46.4230 N   0  0  0  0  0  0  0  0  0  0  0  0
   57.3860   28.9330   45.7800 C   0  0  0  0  0  0  0  0  0  0  0  0
   56.6030   29.1920   44.6450 C   0  0  0  0  0  0  0  0  0  0  0  0
   56.5870   30.4680   44.0800 C   0  0  0  0  0  0  0  0  0  0  0  0
   57.3350   31.5040   44.6780 C   0  0  0  0  0  0  0  0  0  0  0  0
   57.3770   32.7180   44.2020 N   0  0  0  0  0  0  0  0  0  0  0  0
   57.4980   33.9570   44.9150 C   0  0  0  0  0  0  0  0  0  0  0  0
   56.5610   34.7950   44.8460 O   0  0  0  0  0  0  0  0  0  0  0  0
   58.7030   34.2890   45.6110 N   0  0  0  0  0  0  0  0  0  0  0  0
   58.8250   34.2330   47.0610 C   0  0  0  0  0  0  0  0  0  0  0  0
   60.2690   34.0580   47.4300 C   0  0  0  0  0  0  0  0  0  0  0  0
   61.2270   33.8130   46.4330 C   0  0  0  0  0  0  0  0  0  0  0  0
   62.5790   33.6900   46.7710 C   0  0  0  0  0  0  0  0  0  0  0  0
   62.9830   33.8200   48.1030 C   0  0  0  0  0  0  0  0  0  0  0  0
   62.0360   34.0790   49.0980 C   0  0  0  0  0  0  0  0  0  0  0  0
   60.6840   34.2040   48.7640 C   0  0  0  0  0  0  0  0  0  0  0  0
   58.0750   31.2230   45.7830 N   0  0  0  0  0  0  0  0  0  0  0  0
   58.1060   29.9880   46.3480 C   0  0  0  0  0  0  0  0  0  0  0  0
   55.4550   26.4590   46.0390 N   0  0  0  0  0  0  0  0  0  0  0  0
   54.8230   25.3380   45.6040 C   0  0  0  0  0  0  0  0  0  0  0  0
   53.5650   25.2940   45.6430 O   0  0  0  0  0  0  0  0  0  0  0  0
   53.0040   23.2790   45.5230 H   0  0  0  0  0  0  0  0  0  0  0  0
   57.6024   23.5683   44.7290 H   0  0  0  0  0  0  0  0  0  0  0  0
   56.0001   28.3871   44.1992 H   0  0  0  0  0  0  0  0  0  0  0  0
   55.9949   30.6648   43.1741 H   0  0  0  0  0  0  0  0  0  0  0  0
   58.4445   35.1679   47.4983 H   0  0  0  0  0  0  0  0  0  0  0  0
   58.2401   33.3855   47.4479 H   0  0  0  0  0  0  0  0  0  0  0  0
   60.9135   33.7175   45.3830 H   0  0  0  0  0  0  0  0  0  0  0  0
   63.3251   33.4907   45.9877 H   0  0  0  0  0  0  0  0  0  0  0  0
   64.0458   33.7185   48.3680 H   0  0  0  0  0  0  0  0  0  0  0  0
   62.3549   34.1846   50.1454 H   0  0  0  0  0  0  0  0  0  0  0  0
   59.9430   34.4174   49.5484 H   0  0  0  0  0  0  0  0  0  0  0  0
   58.7009   29.8172   47.2574 H   0  0  0  0  0  0  0  0  0  0  0  0
  1  2  1  0
  2  3  2  0
  2  4  1  0
  4  5  2  0
  5  6  1  0
  6  7  1  0
  7  8  2  3
  8  9  1  0
  9 10  1  0
 10 11  2  0
 11 12  1  0
 12 13  2  3
 13 14  1  0
 14 15  2  0
 14 16  1  0
 16 17  1  0
 17 18  1  0
 18 19  2  0
 19 20  1  0
 20 21  2  0
 21 22  1  0
 22 23  2  0
 12 24  1  0
 24 25  1  0
  7 26  1  0
 26 27  1  0
 27 28  2  0
 27  4  1  0
 25  9  2  0
 23 18  1  0
  1 29  1  0
  5 30  1  0
 10 31  1  0
 11 32  1  0
 17 33  1  0
 17 34  1  0
 19 35  1  0
 20 36  1  0
 21 37  1  0
 22 38  1  0
 23 39  1  0
 25 40  1  0
M  CHG  5   1  -1   6  -1  16  -1  24  -1  26  -1
M  END
>  <UniqueID>  (67) 
67

>  <SMILES>  (67) 
[NH-]C(=O)c1c[n-]c(=Nc2ccc(=NC(=O)[N-]Cc3ccccc3)[n-]c2)[n-]c1=O

>  <Energy>  (67) 
57.53065524334571

>  <Genealogy>  (67) 
[NH-]C(=O)c1c[n-]c(=Nc2ccc(=NC(=O)[N-]Cc3ccccc3)[n-]c2)[n-]c1=O (protonated)
[NH-]C(=O)c1c[n-]c(=Nc2ccc(=NC(=O)[N-]Cc3ccccc3)[n-]c2)[n-]c1=O (3D coordinates assigned)
[NH-]C(=O)c1c[n-]c(=Nc2ccc(=NC(=O)[N-]Cc3ccccc3)[n-]c2)[n-]c1=O (optimized conformer: 57.53065524334571 kcal/mol)

>  <smiles>  (67) 
NC(=O)c1c[nH]c(=Nc2ccc(=NC(=O)NCc3ccccc3)[nH]c2)[nH]c1=O

>  <score_type>  (67) 
oracle

>  <origin>  (67) 
adg

>  <m_score__min__energy>  (67) 
-14.83

>  <m_primary>  (67) 
energy

$$$$
67:0
     RDKit          3D

 54 57  0  0  0  0  0  0  0  0999 V2000
   56.4310   29.6530   42.2450 C   0  0  0  0  0  0  0  0  0  0  0  0
   56.8250   30.4470   43.2530 C   0  0  0  0  0  0  0  0  0  0  0  0
   56.7980   30.1410   44.6210 C   0  0  0  0  0  0  0  0  0  0  0  0
   56.2060   29.1360   45.2950 C   0  0  0  0  0  0  0  0  0  0  0  0
   56.8210   27.8380   45.6190 C   0  0  0  0  0  0  0  0  0  0  0  0
   58.1240   27.5420   45.4450 N   0  0  0  0  0  0  0  0  0  0  0  0
   58.1790   26.2170   45.6970 C   0  0  0  0  0  0  0  0  0  0  0  0
   59.2530   25.5590   45.6350 O   0  0  0  0  0  0  0  0  0  0  0  0
   56.9920   25.6450   45.9870 N   0  0  0  0  0  0  0  0  0  0  0  0
   56.1400   26.6830   45.9150 C   0  0  0  0  0  0  0  0  0  0  0  0
   54.7700   26.5720   46.1090 O   0  0  0  0  0  0  0  0  0  0  0  0
   57.5440   31.1220   45.2500 C   0  0  0  0  0  0  0  0  0  0  0  0
   57.9390   32.0180   44.2750 C   0  0  0  0  0  0  0  0  0  0  0  0
   58.8420   33.1620   44.5250 C   0  0  0  0  0  0  0  0  0  0  0  0
   59.2190   33.8780   43.5570 O   0  0  0  0  0  0  0  0  0  0  0  0
   59.3480   33.4280   45.8440 N   0  0  0  0  0  0  0  0  0  0  0  0
   58.4280   33.3980   46.9940 C   0  0  0  0  0  0  0  0  0  0  0  0
   59.0700   34.0030   48.2460 C   0  0  0  0  0  0  0  0  0  0  0  0
   60.4250   33.4680   48.4150 N   0  0  0  0  0  0  0  0  0  0  0  0
   60.8830   33.0950   49.7150 C   0  0  0  0  0  0  0  0  0  0  0  0
   61.1340   33.9860   50.5710 O   0  0  0  0  0  0  0  0  0  0  0  0
   60.9520   31.6490   50.0960 C   0  0  0  0  0  0  0  0  0  0  0  0
   60.4130   30.8050   48.9700 C   0  0  0  0  0  0  0  0  0  0  0  0
   61.2440   30.4510   47.8950 C   0  0  0  0  0  0  0  0  0  0  0  0
   60.7510   29.6170   46.8850 C   0  0  0  0  0  0  0  0  0  0  0  0
   59.4740   29.1490   46.9490 N   0  0  0  0  0  0  0  0  0  0  0  0
   58.6510   29.4680   47.9870 C   0  0  0  0  0  0  0  0  0  0  0  0
   59.1040   30.2980   49.0180 C   0  0  0  0  0  0  0  0  0  0  0  0
   61.3480   33.3750   47.2760 C   0  0  0  0  0  0  0  0  0  0  0  0
   60.7150   33.9430   46.0010 C   0  0  0  0  0  0  0  0  0  0  0  0
   57.4800   31.6240   43.0640 N   0  0  0  0  0  0  0  0  0  0  0  0
   57.7210   32.3030   41.7850 C   0  0  0  0  0  0  0  0  0  0  0  0
   56.5011   30.0074   41.2060 H   0  0  0  0  0  0  0  0  0  0  0  0
   56.0381   28.6479   42.4579 H   0  0  0  0  0  0  0  0  0  0  0  0
   55.1721   29.2995   45.6331 H   0  0  0  0  0  0  0  0  0  0  0  0
   57.7783   31.1780   46.3233 H   0  0  0  0  0  0  0  0  0  0  0  0
   57.5242   33.9727   46.7431 H   0  0  0  0  0  0  0  0  0  0  0  0
   58.1793   32.3481   47.2082 H   0  0  0  0  0  0  0  0  0  0  0  0
   59.1195   35.0967   48.1393 H   0  0  0  0  0  0  0  0  0  0  0  0
   58.4641   33.7446   49.1269 H   0  0  0  0  0  0  0  0  0  0  0  0
   61.9980   31.3717   50.2935 H   0  0  0  0  0  0  0  0  0  0  0  0
   60.3499   31.4798   51.0009 H   0  0  0  0  0  0  0  0  0  0  0  0
   62.2766   30.8270   47.8469 H   0  0  0  0  0  0  0  0  0  0  0  0
   61.3960   29.3392   46.0384 H   0  0  0  0  0  0  0  0  0  0  0  0
   59.1210   28.5240   46.1860 H   0  0  0  0  0  0  0  0  0  0  0  0
   57.6255   29.0710   48.0144 H   0  0  0  0  0  0  0  0  0  0  0  0
   58.4411   30.5512   49.8585 H   0  0  0  0  0  0  0  0  0  0  0  0
   62.2611   33.9432   47.5070 H   0  0  0  0  0  0  0  0  0  0  0  0
   61.5837   32.3143   47.1048 H   0  0  0  0  0  0  0  0  0  0  0  0
   60.6850   35.0406   46.0674 H   0  0  0  0  0  0  0  0  0  0  0  0
   61.3171   33.6371   45.1327 H   0  0  0  0  0  0  0  0  0  0  0  0
   58.0834   33.3241   41.9746 H   0  0  0  0  0  0  0  0  0  0  0  0
   58.4765   31.7464   41.2110 H   0  0  0  0  0  0  0  0  0  0  0  0
   56.7837   32.3473   41.2110 H   0  0  0  0  0  0  0  0  0  0  0  0
  1  2  2  0
  2  3  1  0
  3  4  2  3
  4  5  1  0
  5  6  1  0
  6  7  1  0
  7  8  2  0
  7  9  1  0
  9 10  1  0
 10 11  1  0
  3 12  1  0
 12 13  2  0
 13 14  1  0
 14 15  2  0
 14 16  1  0
 16 17  1  0
 17 18  1  0
 18 19  1  0
 19 20  1  0
 20 21  2  0
 20 22  1  0
 22 23  1  0
 23 24  2  0
 24 25  1  0
 25 26  2  0
 26 27  1  0
 27 28  2  0
 19 29  1  0
 29 30  1  0
 13 31  1  0
 31 32  1  0
 31  2  1  0
 10  5  2  0
 30 16  1  0
 28 23  1  0
  1 33  1  0
  1 34  1  0
  4 35  1  0
 12 36  1  0
 17 37  1  0
 17 38  1  0
 18 39  1  0
 18 40  1  0
 22 41  1  0
 22 42  1  0
 24 43  1  0
 25 44  1  0
 26 45  1  0
 27 46  1  0
 28 47  1  0
 29 48  1  0
 29 49  1  0
 30 50  1  0
 30 51  1  0
 32 52  1  0
 32 53  1  0
 32 54  1  0
M  CHG  4   6  -1   9  -1  11  -1  26   1
M  END
>  <UniqueID>  (68) 
68

>  <SMILES>  (68) 
C=c1c(=Cc2[n-]c(=O)[n-]c2[O-])cc(C(=O)N2CCN(C(=O)Cc3cc[nH+]cc3)CC2)n1C

>  <Energy>  (68) 
132.81550091487256

>  <Genealogy>  (68) 
C=c1c(=Cc2[n-]c(=O)[n-]c2[O-])cc(C(=O)N2CCN(C(=O)Cc3cc[nH+]cc3)CC2)n1C (protonated)
C=c1c(=Cc2[n-]c(=O)[n-]c2[O-])cc(C(=O)N2CCN(C(=O)Cc3cc[nH+]cc3)CC2)n1C (3D coordinates assigned)
C=c1c(=Cc2[n-]c(=O)[n-]c2[O-])cc(C(=O)N2CCN(C(=O)Cc3cc[nH+]cc3)CC2)n1C (nonaromatic ring conformer: 132.81550091487256 kcal/mol)

>  <smiles>  (68) 
C=c1c(=Cc2[nH]c(=O)[nH]c2O)cc(C(=O)N2CCN(C(=O)Cc3ccncc3)CC2)n1C

>  <score_type>  (68) 
oracle

>  <origin>  (68) 
adg

>  <m_score__min__energy>  (68) 
-16.789999999999999

>  <m_primary>  (68) 
energy

$$$$
68:0
     RDKit          3D

 39 41  0  0  0  0  0  0  0  0999 V2000
   55.7466   31.1163   43.9474 H   0  0  0  0  0  0  0  0  0  0  0  0
   55.4380   30.1200   44.2970 C   0  0  0  0  0  0  0  0  0  0  0  0
   54.3875   29.8064   44.2066 H   0  0  0  0  0  0  0  0  0  0  0  0
   56.3400   29.2900   44.8320 C   0  0  0  0  0  0  0  0  0  0  0  0
   55.9270   28.0670   45.2540 N   0  0  0  0  0  0  0  0  0  0  0  0
   56.7670   27.1530   45.8060 C   0  0  0  0  0  0  0  0  0  0  0  0
   56.2310   25.8340   46.2280 C   0  0  0  0  0  0  0  0  0  0  0  0
   55.0900   25.2770   45.6150 C   0  0  0  0  0  0  0  0  0  0  0  0
   54.5773   25.8276   44.8126 H   0  0  0  0  0  0  0  0  0  0  0  0
   54.6060   24.0300   46.0200 C   0  0  0  0  0  0  0  0  0  0  0  0
   53.7122   23.6059   45.5391 H   0  0  0  0  0  0  0  0  0  0  0  0
   55.2550   23.3200   47.0350 C   0  0  0  0  0  0  0  0  0  0  0  0
   54.5900   21.6170   47.5850 Br  0  0  0  0  0  0  0  0  0  0  0  0
   56.3940   23.8570   47.6410 C   0  0  0  0  0  0  0  0  0  0  0  0
   56.9071   23.2977   48.4372 H   0  0  0  0  0  0  0  0  0  0  0  0
   56.8830   25.1030   47.2380 C   0  0  0  0  0  0  0  0  0  0  0  0
   57.7847   25.5153   47.7143 H   0  0  0  0  0  0  0  0  0  0  0  0
   58.1280   27.4700   45.9400 C   0  0  0  0  0  0  0  0  0  0  0  0
   58.8236   26.7247   46.3531 H   0  0  0  0  0  0  0  0  0  0  0  0
   58.6110   28.7370   45.5490 C   0  0  0  0  0  0  0  0  0  0  0  0
   59.9180   29.0680   45.6830 C   0  0  0  0  0  0  0  0  0  0  0  0
   60.6418   28.5525   45.0347 H   0  0  0  0  0  0  0  0  0  0  0  0
   60.4440   30.0670   46.6320 C   0  0  0  0  0  0  0  0  0  0  0  0
   61.0630   29.6630   47.6520 O   0  0  0  0  0  0  0  0  0  0  0  0
   60.2930   31.4750   46.3750 N   0  0  0  0  0  0  0  0  0  0  0  0
   59.7690   31.7670   45.5200 H   0  0  0  0  0  0  0  0  0  0  0  0
   60.6800   32.5080   47.2960 C   0  0  0  0  0  0  0  0  0  0  0  0
   59.7260   33.2190   48.0480 C   0  0  0  0  0  0  0  0  0  0  0  0
   58.6553   33.0001   47.9228 H   0  0  0  0  0  0  0  0  0  0  0  0
   60.1350   34.2030   48.9540 C   0  0  0  0  0  0  0  0  0  0  0  0
   59.3849   34.7615   49.5331 H   0  0  0  0  0  0  0  0  0  0  0  0
   61.4930   34.4780   49.1250 C   0  0  0  0  0  0  0  0  0  0  0  0
   61.8118   35.2585   49.8315 H   0  0  0  0  0  0  0  0  0  0  0  0
   62.4470   33.7610   48.3980 C   0  0  0  0  0  0  0  0  0  0  0  0
   63.5173   33.9730   48.5375 H   0  0  0  0  0  0  0  0  0  0  0  0
   62.0430   32.7750   47.4940 C   0  0  0  0  0  0  0  0  0  0  0  0
   62.7986   32.2045   46.9340 H   0  0  0  0  0  0  0  0  0  0  0  0
   57.6970   29.6530   44.9710 C   0  0  0  0  0  0  0  0  0  0  0  0
   58.0890   30.7930   44.5890 O   0  0  0  0  0  0  0  0  0  0  0  0
  1  2  1  0
  2  3  1  0
  2  4  2  0
  4  5  1  0
  5  6  1  0
  6  7  1  0
  7  8  2  0
  8  9  1  0
  8 10  1  0
 10 11  1  0
 10 12  2  0
 12 13  1  0
 12 14  1  0
 14 15  1  0
 14 16  2  0
 16 17  1  0
  6 18  2  0
 18 19  1  0
 18 20  1  0
 20 21  2  0
 21 22  1  0
 21 23  1  0
 23 24  2  0
 23 25  1  0
 25 26  1  0
 25 27  1  0
 27 28  2  0
 28 29  1  0
 28 30  1  0
 30 31  1  0
 30 32  2  0
 32 33  1  0
 32 34  1  0
 34 35  1  0
 34 36  2  0
 36 37  1  0
 20 38  1  0
 38 39  2  0
 38  4  1  0
 16  7  1  0
 36 27  1  0
M  CHG  1   5  -1
M  END
>  <UniqueID>  (69) 
69

>  <SMILES>  (69) 
C=c1[n-]c(-c2ccc(Br)cc2)c/c(=C\C(=O)Nc2ccccc2)c1=O

>  <Energy>  (69) 
61.002415943048995

>  <Genealogy>  (69) 
C=c1[n-]c(-c2ccc(Br)cc2)cc(=CC(=O)Nc2ccccc2)c1=O (protonated)
C=c1[n-]c(-c2ccc(Br)cc2)c/c(=C\C(=O)Nc2ccccc2)c1=O (cis-trans isomerization)
C=c1[n-]c(-c2ccc(Br)cc2)c/c(=C\C(=O)Nc2ccccc2)c1=O (3D coordinates assigned)
C=c1[n-]c(-c2ccc(Br)cc2)c/c(=C\C(=O)Nc2ccccc2)c1=O (optimized conformer: 61.002415943048995 kcal/mol)

>  <smiles>  (69) 
C=c1[nH]c(-c2ccc(Br)cc2)cc(=CC(=O)Nc2ccccc2)c1=O

>  <score_type>  (69) 
oracle

>  <origin>  (69) 
adg

>  <m_score__min__energy>  (69) 
-8.8399999999999999

>  <m_primary>  (69) 
energy

$$$$
69:0
     RDKit          3D

 33 34  0  0  0  0  0  0  0  0999 V2000
   60.5530   26.3870   47.9960 O   0  0  0  0  0  0  0  0  0  0  0  0
   59.3920   26.8650   47.8860 C   0  0  0  0  0  0  0  0  0  0  0  0
   58.2630   25.9690   47.4700 C   0  0  0  0  0  0  0  0  0  0  0  0
   57.9770   26.0810   45.9660 C   0  0  0  0  0  0  0  0  0  0  0  0
   57.4280   27.4420   45.5950 C   0  0  0  0  0  0  0  0  0  0  0  0
   56.0440   27.6990   45.6100 C   0  0  0  0  0  0  0  0  0  0  0  0
   55.1420   26.7170   45.9990 O   0  0  0  0  0  0  0  0  0  0  0  0
   55.5760   28.9180   45.2370 N   0  0  0  0  0  0  0  0  0  0  0  0
   56.4200   29.9020   44.8390 C   0  0  0  0  0  0  0  0  0  0  0  0
   55.9610   31.0240   44.4990 O   0  0  0  0  0  0  0  0  0  0  0  0
   57.7570   29.6790   44.8050 N   0  0  0  0  0  0  0  0  0  0  0  0
   58.2790   28.4780   45.1680 C   0  0  0  0  0  0  0  0  0  0  0  0
   59.5250   28.3080   45.1170 O   0  0  0  0  0  0  0  0  0  0  0  0
   59.1600   28.2640   48.1010 N   0  0  0  0  0  0  0  0  0  0  0  0
   60.2320   29.1940   48.4440 C   0  0  0  0  0  0  0  0  0  0  0  0
   59.9950   30.5280   47.7920 C   0  0  0  0  0  0  0  0  0  0  0  0
   61.0850   31.3260   47.4080 C   0  0  0  0  0  0  0  0  0  0  0  0
   60.8720   32.5580   46.7840 C   0  0  0  0  0  0  0  0  0  0  0  0
   59.5690   33.0010   46.5320 C   0  0  0  0  0  0  0  0  0  0  0  0
   59.2790   34.6840   45.6770 Br  0  0  0  0  0  0  0  0  0  0  0  0
   58.4780   32.2090   46.9070 C   0  0  0  0  0  0  0  0  0  0  0  0
   58.6890   30.9760   47.5330 C   0  0  0  0  0  0  0  0  0  0  0  0
   58.5279   24.9279   47.7064 H   0  0  0  0  0  0  0  0  0  0  0  0
   57.3595   26.2783   48.0159 H   0  0  0  0  0  0  0  0  0  0  0  0
   58.9126   25.9122   45.4127 H   0  0  0  0  0  0  0  0  0  0  0  0
   57.2204   25.3261   45.7060 H   0  0  0  0  0  0  0  0  0  0  0  0
   58.1950   28.6440   47.9720 H   0  0  0  0  0  0  0  0  0  0  0  0
   60.2636   29.3244   49.5358 H   0  0  0  0  0  0  0  0  0  0  0  0
   61.1882   28.7855   48.0851 H   0  0  0  0  0  0  0  0  0  0  0  0
   62.1113   30.9795   47.5994 H   0  0  0  0  0  0  0  0  0  0  0  0
   61.7301   33.1805   46.4904 H   0  0  0  0  0  0  0  0  0  0  0  0
   57.4532   32.5565   46.7093 H   0  0  0  0  0  0  0  0  0  0  0  0
   57.8290   30.3548   47.8236 H   0  0  0  0  0  0  0  0  0  0  0  0
  1  2  2  0
  2  3  1  0
  3  4  1  0
  4  5  1  0
  5  6  2  0
  6  7  1  0
  6  8  1  0
  8  9  1  0
  9 10  2  0
  9 11  1  0
 11 12  1  0
 12 13  2  0
  2 14  1  0
 14 15  1  0
 15 16  1  0
 16 17  2  0
 17 18  1  0
 18 19  2  0
 19 20  1  0
 19 21  1  0
 21 22  2  0
 12  5  1  0
 22 16  1  0
  3 23  1  0
  3 24  1  0
  4 25  1  0
  4 26  1  0
 14 27  1  0
 15 28  1  0
 15 29  1  0
 17 30  1  0
 18 31  1  0
 21 32  1  0
 22 33  1  0
M  CHG  3   7  -1   8  -1  11  -1
M  END
>  <UniqueID>  (70) 
70

>  <SMILES>  (70) 
O=C(CCc1c([O-])[n-]c(=O)[n-]c1=O)NCc1ccc(Br)cc1

>  <Energy>  (70) 
29.157517075916118

>  <Genealogy>  (70) 
O=C(CCc1c([O-])[n-]c(=O)[n-]c1=O)NCc1ccc(Br)cc1 (protonated)
O=C(CCc1c([O-])[n-]c(=O)[n-]c1=O)NCc1ccc(Br)cc1 (3D coordinates assigned)
O=C(CCc1c([O-])[n-]c(=O)[n-]c1=O)NCc1ccc(Br)cc1 (optimized conformer: 29.157517075916118 kcal/mol)

>  <smiles>  (70) 
O=C(CCc1c(O)[nH]c(=O)[nH]c1=O)NCc1ccc(Br)cc1

>  <score_type>  (70) 
oracle

>  <origin>  (70) 
adg

>  <m_score__min__energy>  (70) 
-15.66

>  <m_primary>  (70) 
energy

$$$$
70:0
     RDKit          3D

 47 49  0  0  0  0  0  0  0  0999 V2000
   59.0370   28.6580   44.4480 C   0  0  0  0  0  0  0  0  0  0  0  0
   57.6320   28.2650   44.6260 N   0  0  0  0  0  0  0  0  0  0  0  0
   57.3130   27.8720   46.0140 C   0  0  0  0  0  0  0  0  0  0  0  0
   56.5140   26.5900   46.1160 C   0  0  0  0  0  0  0  0  0  0  0  0
   55.2610   26.6380   45.9910 O   0  0  0  0  0  0  0  0  0  0  0  0
   57.1430   25.3090   46.2630 N   0  0  0  0  0  0  0  0  0  0  0  0
   56.9370   24.1700   45.4200 C   0  0  0  0  0  0  0  0  0  0  0  0
   56.3120   24.2890   44.1670 C   0  0  0  0  0  0  0  0  0  0  0  0
   56.1500   23.1640   43.3520 C   0  0  0  0  0  0  0  0  0  0  0  0
   56.6260   21.9140   43.7750 C   0  0  0  0  0  0  0  0  0  0  0  0
   56.4680   20.7840   42.9750 O   0  0  0  0  0  0  0  0  0  0  0  0
   57.2730   21.8000   45.0110 C   0  0  0  0  0  0  0  0  0  0  0  0
   57.4390   22.9260   45.8250 C   0  0  0  0  0  0  0  0  0  0  0  0
   56.5610   29.5100   44.0270 S   0  0  0  0  0  0  0  0  0  0  0  0
   55.2510   29.4870   44.7690 O   0  0  0  0  0  0  0  0  0  0  0  0
   56.2850   29.2950   42.5640 O   0  0  0  0  0  0  0  0  0  0  0  0
   57.3240   31.0840   44.2360 C   0  0  0  0  0  0  0  0  0  0  0  0
   57.6960   31.8340   43.1130 C   0  0  0  0  0  0  0  0  0  0  0  0
   58.3180   33.0730   43.2690 C   0  0  0  0  0  0  0  0  0  0  0  0
   58.5830   33.5740   44.5490 C   0  0  0  0  0  0  0  0  0  0  0  0
   59.1740   34.7580   44.6750 O   0  0  0  0  0  0  0  0  0  0  0  0
   59.4600   35.2950   45.8550 C   0  0  0  0  0  0  0  0  0  0  0  0
   60.0190   36.4210   45.9050 O   0  0  0  0  0  0  0  0  0  0  0  0
   59.1470   34.6190   47.0350 C   0  0  0  0  0  0  0  0  0  0  0  0
   58.5290   33.3620   46.9700 C   0  0  0  0  0  0  0  0  0  0  0  0
   58.1860   32.6500   48.2560 C   0  0  0  0  0  0  0  0  0  0  0  0
   59.3120   31.8250   48.6730 N   0  0  0  0  0  0  0  0  0  0  0  0
   59.9860   31.1540   47.8280 C   0  0  0  0  0  0  0  0  0  0  0  0
   60.8410   30.3050   46.7570 S   0  0  0  0  0  0  0  0  0  0  0  0
   58.2250   32.8220   45.6960 C   0  0  0  0  0  0  0  0  0  0  0  0
   57.5870   31.5760   45.5220 C   0  0  0  0  0  0  0  0  0  0  0  0
   59.5085   28.7899   45.4331 H   0  0  0  0  0  0  0  0  0  0  0  0
   59.5690   27.8742   43.8889 H   0  0  0  0  0  0  0  0  0  0  0  0
   59.0851   29.6041   43.8889 H   0  0  0  0  0  0  0  0  0  0  0  0
   58.2570   27.7372   46.5623 H   0  0  0  0  0  0  0  0  0  0  0  0
   56.6907   28.6730   46.4396 H   0  0  0  0  0  0  0  0  0  0  0  0
   55.9491   25.2699   43.8262 H   0  0  0  0  0  0  0  0  0  0  0  0
   55.6485   23.2595   42.3776 H   0  0  0  0  0  0  0  0  0  0  0  0
   56.9930   19.9340   43.1490 H   0  0  0  0  0  0  0  0  0  0  0  0
   57.6521   20.8223   45.3434 H   0  0  0  0  0  0  0  0  0  0  0  0
   57.9655   22.8343   46.7864 H   0  0  0  0  0  0  0  0  0  0  0  0
   57.4969   31.4444   42.1038 H   0  0  0  0  0  0  0  0  0  0  0  0
   58.6015   33.6589   42.3822 H   0  0  0  0  0  0  0  0  0  0  0  0
   59.3836   35.0695   48.0102 H   0  0  0  0  0  0  0  0  0  0  0  0
   57.9663   33.3919   49.0379 H   0  0  0  0  0  0  0  0  0  0  0  0
   57.3046   32.0115   48.0963 H   0  0  0  0  0  0  0  0  0  0  0  0
   57.2935   30.9857   46.4026 H   0  0  0  0  0  0  0  0  0  0  0  0
  1  2  1  0
  2  3  1  0
  3  4  1  0
  4  5  2  0
  4  6  1  0
  6  7  1  0
  7  8  2  0
  8  9  1  0
  9 10  2  0
 10 11  1  0
 10 12  1  0
 12 13  2  0
  2 14  1  0
 14 15  2  0
 14 16  2  0
 14 17  1  0
 17 18  2  0
 18 19  1  0
 19 20  2  0
 20 21  1  0
 21 22  1  0
 22 23  2  0
 22 24  1  0
 24 25  2  0
 25 26  1  0
 26 27  1  0
 27 28  2  0
 28 29  2  0
 25 30  1  0
 30 31  2  0
 13  7  1  0
 31 17  1  0
 30 20  1  0
  1 32  1  0
  1 33  1  0
  1 34  1  0
  3 35  1  0
  3 36  1  0
  8 37  1  0
  9 38  1  0
 11 39  1  0
 12 40  1  0
 13 41  1  0
 18 42  1  0
 19 43  1  0
 24 44  1  0
 26 45  1  0
 26 46  1  0
 31 47  1  0
M  CHG  1   6  -1
M  END
>  <UniqueID>  (71) 
71

>  <SMILES>  (71) 
CN(CC(=O)[N-]c1ccc(O)cc1)S(=O)(=O)c1ccc2oc(=O)cc(CN=C=S)c2c1

>  <Energy>  (71) 
58.774505566929065

>  <Genealogy>  (71) 
CN(CC(=O)[N-]c1ccc(O)cc1)S(=O)(=O)c1ccc2oc(=O)cc(CN=C=S)c2c1 (protonated)
CN(CC(=O)[N-]c1ccc(O)cc1)S(=O)(=O)c1ccc2oc(=O)cc(CN=C=S)c2c1 (3D coordinates assigned)
CN(CC(=O)[N-]c1ccc(O)cc1)S(=O)(=O)c1ccc2oc(=O)cc(CN=C=S)c2c1 (optimized conformer: 58.774505566929065 kcal/mol)

>  <smiles>  (71) 
CN(CC(=O)Nc1ccc(O)cc1)S(=O)(=O)c1ccc2oc(=O)cc(CN=C=S)c2c1

>  <score_type>  (71) 
oracle

>  <origin>  (71) 
adg

>  <m_score__min__energy>  (71) 
-12.06

>  <m_primary>  (71) 
energy

$$$$
71:0
     RDKit          3D

 56 59  0  0  0  0  0  0  0  0999 V2000
   58.8710   30.3780   47.6400 C   0  0  0  0  0  0  0  0  0  0  0  0
   58.6130   30.7120   46.3650 C   0  0  0  0  0  0  0  0  0  0  0  0
   58.4730   29.8420   45.2690 C   0  0  0  0  0  0  0  0  0  0  0  0
   58.6690   28.5130   45.1570 C   0  0  0  0  0  0  0  0  0  0  0  0
   57.7200   27.4650   45.5790 C   0  0  0  0  0  0  0  0  0  0  0  0
   56.3340   27.7120   45.6130 C   0  0  0  0  0  0  0  0  0  0  0  0
   55.8020   28.9640   45.3020 O   0  0  0  0  0  0  0  0  0  0  0  0
   55.4840   26.7140   45.9680 N   0  0  0  0  0  0  0  0  0  0  0  0
   55.9410   25.4740   46.2800 C   0  0  0  0  0  0  0  0  0  0  0  0
   55.1290   24.5700   46.6090 O   0  0  0  0  0  0  0  0  0  0  0  0
   57.2710   25.2070   46.2330 N   0  0  0  0  0  0  0  0  0  0  0  0
   58.1660   26.1670   45.8840 C   0  0  0  0  0  0  0  0  0  0  0  0
   59.3920   25.8780   45.8380 O   0  0  0  0  0  0  0  0  0  0  0  0
   58.0910   30.6290   44.1970 C   0  0  0  0  0  0  0  0  0  0  0  0
   58.0440   31.9310   44.6480 C   0  0  0  0  0  0  0  0  0  0  0  0
   57.7430   33.1140   43.7760 C   0  0  0  0  0  0  0  0  0  0  0  0
   58.3690   31.9890   45.9610 N   0  0  0  0  0  0  0  0  0  0  0  0
   58.4010   33.2050   46.7890 C   0  0  0  0  0  0  0  0  0  0  0  0
   59.7120   33.3240   47.5290 C   0  0  0  0  0  0  0  0  0  0  0  0
   60.9280   33.2070   46.8380 C   0  0  0  0  0  0  0  0  0  0  0  0
   62.1440   33.3310   47.5170 C   0  0  0  0  0  0  0  0  0  0  0  0
   62.1640   33.5920   48.8970 C   0  0  0  0  0  0  0  0  0  0  0  0
   63.4170   33.7050   49.6000 N   0  0  0  0  0  0  0  0  0  0  0  0
   63.5100   34.4010   50.8860 C   0  0  0  0  0  0  0  0  0  0  0  0
   64.1060   33.4670   51.9550 C   0  0  0  0  0  0  0  0  0  0  0  0
   65.1070   32.5030   51.4240 N   0  0  0  0  0  0  0  0  0  0  0  0
   64.5670   31.1330   51.3580 C   0  0  0  0  0  0  0  0  0  0  0  0
   65.7010   32.9200   50.1350 C   0  0  0  0  0  0  0  0  0  0  0  0
   64.6320   33.1010   49.0440 C   0  0  0  0  0  0  0  0  0  0  0  0
   60.9470   33.7140   49.5870 C   0  0  0  0  0  0  0  0  0  0  0  0
   59.7320   33.5880   48.9080 C   0  0  0  0  0  0  0  0  0  0  0  0
   58.9567   31.1616   48.4073 H   0  0  0  0  0  0  0  0  0  0  0  0
   58.9966   29.3209   47.9170 H   0  0  0  0  0  0  0  0  0  0  0  0
   59.6188   28.1811   44.7124 H   0  0  0  0  0  0  0  0  0  0  0  0
   55.7360   29.7150   45.9790 H   0  0  0  0  0  0  0  0  0  0  0  0
   57.8671   30.2815   43.1776 H   0  0  0  0  0  0  0  0  0  0  0  0
   57.5208   33.9874   44.4068 H   0  0  0  0  0  0  0  0  0  0  0  0
   58.6142   33.3325   43.1409 H   0  0  0  0  0  0  0  0  0  0  0  0
   56.8733   32.8896   43.1409 H   0  0  0  0  0  0  0  0  0  0  0  0
   58.2731   34.0845   46.1409 H   0  0  0  0  0  0  0  0  0  0  0  0
   57.5872   33.1470   47.5268 H   0  0  0  0  0  0  0  0  0  0  0  0
   60.9244   33.0164   45.7546 H   0  0  0  0  0  0  0  0  0  0  0  0
   63.0906   33.2235   46.9671 H   0  0  0  0  0  0  0  0  0  0  0  0
   64.1557   35.2846   50.7749 H   0  0  0  0  0  0  0  0  0  0  0  0
   62.5020   34.7091   51.2007 H   0  0  0  0  0  0  0  0  0  0  0  0
   64.5944   34.0859   52.7220 H   0  0  0  0  0  0  0  0  0  0  0  0
   63.2734   32.8722   52.3588 H   0  0  0  0  0  0  0  0  0  0  0  0
   64.4157   30.7490   52.3776 H   0  0  0  0  0  0  0  0  0  0  0  0
   63.6056   31.1432   50.8236 H   0  0  0  0  0  0  0  0  0  0  0  0
   65.2768   30.4845   50.8236 H   0  0  0  0  0  0  0  0  0  0  0  0
   66.2282   33.8747   50.2785 H   0  0  0  0  0  0  0  0  0  0  0  0
   66.3934   32.1307   49.8069 H   0  0  0  0  0  0  0  0  0  0  0  0
   65.0303   33.7544   48.2538 H   0  0  0  0  0  0  0  0  0  0  0  0
   64.3778   32.1131   48.6323 H   0  0  0  0  0  0  0  0  0  0  0  0
   60.9501   33.9101   50.6694 H   0  0  0  0  0  0  0  0  0  0  0  0
   58.7852   33.6963   49.4574 H   0  0  0  0  0  0  0  0  0  0  0  0
  1  2  2  0
  2  3  1  0
  3  4  2  3
  4  5  1  0
  5  6  2  0
  6  7  1  0
  6  8  1  0
  8  9  1  0
  9 10  2  0
  9 11  1  0
 11 12  1  0
 12 13  2  0
  3 14  1  0
 14 15  2  0
 15 16  1  0
 15 17  1  0
 17 18  1  0
 18 19  1  0
 19 20  2  0
 20 21  1  0
 21 22  2  0
 22 23  1  0
 23 24  1  0
 24 25  1  0
 25 26  1  0
 26 27  1  0
 26 28  1  0
 28 29  1  0
 22 30  1  0
 30 31  2  0
 17  2  1  0
 31 19  1  0
 12  5  1  0
 29 23  1  0
  1 32  1  0
  1 33  1  0
  4 34  1  0
  7 35  1  0
 14 36  1  0
 16 37  1  0
 16 38  1  0
 16 39  1  0
 18 40  1  0
 18 41  1  0
 20 42  1  0
 21 43  1  0
 24 44  1  0
 24 45  1  0
 25 46  1  0
 25 47  1  0
 27 48  1  0
 27 49  1  0
 27 50  1  0
 28 51  1  0
 28 52  1  0
 29 53  1  0
 29 54  1  0
 30 55  1  0
 31 56  1  0
M  CHG  2   8  -1  11  -1
M  END
>  <UniqueID>  (72) 
72

>  <SMILES>  (72) 
C=c1c(=Cc2c(O)[n-]c(=O)[n-]c2=O)cc(C)n1Cc1ccc(N2CCN(C)CC2)cc1

>  <Energy>  (72) 
112.81431619557246

>  <Genealogy>  (72) 
C=c1c(=Cc2c(O)[n-]c(=O)[n-]c2=O)cc(C)n1Cc1ccc(N2CCN(C)CC2)cc1 (protonated)
C=c1c(=Cc2c(O)[n-]c(=O)[n-]c2=O)cc(C)n1Cc1ccc(N2CCN(C)CC2)cc1 (3D coordinates assigned)
C=c1c(=Cc2c(O)[n-]c(=O)[n-]c2=O)cc(C)n1Cc1ccc(N2CCN(C)CC2)cc1 (nonaromatic ring conformer: 112.81431619557246 kcal/mol)

>  <smiles>  (72) 
C=c1c(=Cc2c(O)[nH]c(=O)[nH]c2=O)cc(C)n1Cc1ccc(N2CCN(C)CC2)cc1

>  <score_type>  (72) 
oracle

>  <origin>  (72) 
adg

>  <m_score__min__energy>  (72) 
-13.74

>  <m_primary>  (72) 
energy

$$$$
72:0
     RDKit          3D

 61 64  0  0  0  0  0  0  0  0999 V2000
   55.1450   27.4810   45.3610 H   0  0  0  0  0  0  0  0  0  0  0  0
   55.8680   28.1630   45.5600 O   0  0  0  0  0  0  0  0  0  0  0  0
   57.2220   27.8240   45.5610 C   0  0  0  0  0  0  0  0  0  0  0  0
   58.2110   28.6290   44.9830 C   0  0  0  0  0  0  0  0  0  0  0  0
   57.9770   29.8530   44.1940 C   0  0  0  0  0  0  0  0  0  0  0  0
   57.7657   29.7421   43.1202 H   0  0  0  0  0  0  0  0  0  0  0  0
   58.0060   31.0960   44.7060 C   0  0  0  0  0  0  0  0  0  0  0  0
   58.8350   31.5180   45.7420 C   0  0  0  0  0  0  0  0  0  0  0  0
   59.8250   30.6830   46.5000 C   0  0  0  0  0  0  0  0  0  0  0  0
   59.6665   30.8167   47.5803 H   0  0  0  0  0  0  0  0  0  0  0  0
   59.6881   29.6235   46.2377 H   0  0  0  0  0  0  0  0  0  0  0  0
   60.8462   30.9967   46.2377 H   0  0  0  0  0  0  0  0  0  0  0  0
   58.5390   32.8570   45.9600 C   0  0  0  0  0  0  0  0  0  0  0  0
   59.1220   33.7280   47.0010 C   0  0  0  0  0  0  0  0  0  0  0  0
   59.4460   34.9070   46.6930 O   0  0  0  0  0  0  0  0  0  0  0  0
   59.3110   33.2610   48.3510 N   0  0  0  0  0  0  0  0  0  0  0  0
   58.5320   32.1330   48.8800 C   0  0  0  0  0  0  0  0  0  0  0  0
   57.5653   32.0792   48.3580 H   0  0  0  0  0  0  0  0  0  0  0  0
   59.0895   31.1981   48.7210 H   0  0  0  0  0  0  0  0  0  0  0  0
   58.2910   32.3320   50.3790 C   0  0  0  0  0  0  0  0  0  0  0  0
   57.6205   33.1916   50.5257 H   0  0  0  0  0  0  0  0  0  0  0  0
   57.8357   31.4179   50.7879 H   0  0  0  0  0  0  0  0  0  0  0  0
   59.5120   32.5740   51.0560 O   0  0  0  0  0  0  0  0  0  0  0  0
   60.0550   33.8100   50.6260 C   0  0  0  0  0  0  0  0  0  0  0  0
   59.3052   34.6023   50.7676 H   0  0  0  0  0  0  0  0  0  0  0  0
   60.9557   34.0255   51.2195 H   0  0  0  0  0  0  0  0  0  0  0  0
   60.4450   33.7460   49.1460 C   0  0  0  0  0  0  0  0  0  0  0  0
   60.7297   34.7506   48.8001 H   0  0  0  0  0  0  0  0  0  0  0  0
   61.2935   33.0565   49.0247 H   0  0  0  0  0  0  0  0  0  0  0  0
   57.5540   33.1930   45.0410 C   0  0  0  0  0  0  0  0  0  0  0  0
   56.9480   34.3760   44.9260 C   0  0  0  0  0  0  0  0  0  0  0  0
   57.2430   35.2108   45.5788 H   0  0  0  0  0  0  0  0  0  0  0  0
   56.1534   34.5166   44.1784 H   0  0  0  0  0  0  0  0  0  0  0  0
   57.2440   32.1290   44.2760 N   0  0  0  0  0  0  0  0  0  0  0  0
   56.5600   32.1300   43.4850 H   0  0  0  0  0  0  0  0  0  0  0  0
   59.6890   27.8290   45.1320 S   0  0  0  0  0  0  0  0  0  0  0  0
   59.0220   26.5340   45.9590 C   0  0  0  0  0  0  0  0  0  0  0  0
   59.6920   25.5420   46.3470 O   0  0  0  0  0  0  0  0  0  0  0  0
   57.6800   26.6680   46.1350 N   0  0  0  0  0  0  0  0  0  0  0  0
   56.7930   25.6850   46.7970 C   0  0  1  0  0  0  0  0  0  0  0  0
   56.0848   26.2475   47.4231 H   0  0  0  0  0  0  0  0  0  0  0  0
   55.9890   24.9000   45.7770 C   0  0  0  0  0  0  0  0  0  0  0  0
   54.7870   25.2300   45.5720 O   0  0  0  0  0  0  0  0  0  0  0  0
   56.5560   23.7960   45.0260 N   0  0  0  0  0  0  0  0  0  0  0  0
   58.0000   23.7310   44.7490 C   0  0  0  0  0  0  0  0  0  0  0  0
   58.2408   24.4211   43.9270 H   0  0  0  0  0  0  0  0  0  0  0  0
   58.5467   24.0149   45.6603 H   0  0  0  0  0  0  0  0  0  0  0  0
   58.4150   22.3100   44.3500 C   0  0  0  0  0  0  0  0  0  0  0  0
   59.4563   22.3250   43.9958 H   0  0  0  0  0  0  0  0  0  0  0  0
   58.3174   21.6556   45.2288 H   0  0  0  0  0  0  0  0  0  0  0  0
   57.5840   21.8120   43.3220 O   0  0  0  0  0  0  0  0  0  0  0  0
   56.2730   21.6460   43.8250 C   0  0  0  0  0  0  0  0  0  0  0  0
   55.6531   21.1517   43.0625 H   0  0  0  0  0  0  0  0  0  0  0  0
   56.3179   21.0311   44.7360 H   0  0  0  0  0  0  0  0  0  0  0  0
   55.6540   23.0030   44.1750 C   0  0  0  0  0  0  0  0  0  0  0  0
   55.4572   23.5580   43.2459 H   0  0  0  0  0  0  0  0  0  0  0  0
   54.7191   22.8273   44.7273 H   0  0  0  0  0  0  0  0  0  0  0  0
   57.5820   24.7480   47.7260 C   0  0  0  0  0  0  0  0  0  0  0  0
   57.3665   25.0039   48.7739 H   0  0  0  0  0  0  0  0  0  0  0  0
   57.2850   23.7063   47.5344 H   0  0  0  0  0  0  0  0  0  0  0  0
   58.6590   24.8633   47.5344 H   0  0  0  0  0  0  0  0  0  0  0  0
  1  2  1  0
  2  3  1  0
  3  4  2  0
  4  5  1  0
  5  6  1  0
  5  7  2  0
  7  8  1  0
  8  9  1  0
  9 10  1  0
  9 11  1  0
  9 12  1  0
  8 13  2  0
 13 14  1  0
 14 15  2  0
 14 16  1  0
 16 17  1  0
 17 18  1  0
 17 19  1  0
 17 20  1  0
 20 21  1  0
 20 22  1  0
 20 23  1  0
 23 24  1  0
 24 25  1  0
 24 26  1  0
 24 27  1  0
 27 28  1  0
 27 29  1  0
 13 30  1  0
 30 31  2  0
 31 32  1  0
 31 33  1  0
 30 34  1  0
 34 35  1  0
  4 36  1  0
 36 37  1  0
 37 38  2  0
 37 39  1  0
 39 40  1  0
 40 41  1  1
 40 42  1  0
 42 43  2  0
 42 44  1  0
 44 45  1  0
 45 46  1  0
 45 47  1  0
 45 48  1  0
 48 49  1  0
 48 50  1  0
 48 51  1  0
 51 52  1  0
 52 53  1  0
 52 54  1  0
 52 55  1  0
 55 56  1  0
 55 57  1  0
 40 58  1  0
 58 59  1  0
 58 60  1  0
 58 61  1  0
 39  3  1  0
 55 44  1  0
 34  7  1  0
 27 16  1  0
M  END
>  <UniqueID>  (73) 
73

>  <SMILES>  (73) 
C=c1[nH]/c(=C\c2sc(=O)n([C@H](C)C(=O)N3CCOCC3)c2O)c(C)c1C(=O)N1CCOCC1

>  <Energy>  (73) 
137.94660449044133

>  <Genealogy>  (73) 
C=c1[nH]c(=Cc2sc(=O)n([C@H](C)C(=O)N3CCOCC3)c2O)c(C)c1C(=O)N1CCOCC1 (chirality)
C=c1[nH]/c(=C\c2sc(=O)n([C@H](C)C(=O)N3CCOCC3)c2O)c(C)c1C(=O)N1CCOCC1 (cis-trans isomerization)
C=c1[nH]/c(=C\c2sc(=O)n([C@H](C)C(=O)N3CCOCC3)c2O)c(C)c1C(=O)N1CCOCC1 (3D coordinates assigned)
C=c1[nH]/c(=C\c2sc(=O)n([C@H](C)C(=O)N3CCOCC3)c2O)c(C)c1C(=O)N1CCOCC1 (nonaromatic ring conformer: 137.94660449044133 kcal/mol)

>  <smiles>  (73) 
C=c1[nH]c(=Cc2sc(=O)n(C(C)C(=O)N3CCOCC3)c2O)c(C)c1C(=O)N1CCOCC1

>  <score_type>  (73) 
oracle

>  <origin>  (73) 
adg

>  <m_score__min__energy>  (73) 
-9.8599999999999994

>  <m_primary>  (73) 
energy

$$$$
73:0
     RDKit          3D

 53 55  0  0  0  0  0  0  0  0999 V2000
   54.6650   25.3740   45.6140 C   0  0  0  0  0  0  0  0  0  0  0  0
   55.2130   26.6820   45.9420 N   0  0  0  0  0  0  0  0  0  0  0  0
   56.5990   26.9320   46.2080 C   0  0  0  0  0  0  0  0  0  0  0  0
   57.2790   26.0420   46.7850 O   0  0  0  0  0  0  0  0  0  0  0  0
   57.2490   28.1990   45.8230 C   0  0  0  0  0  0  0  0  0  0  0  0
   58.6090   28.3850   46.1150 C   0  0  0  0  0  0  0  0  0  0  0  0
   59.2700   29.5620   45.7330 C   0  0  0  0  0  0  0  0  0  0  0  0
   60.7340   29.7350   46.0400 C   0  0  0  0  0  0  0  0  0  0  0  0
   60.9070   30.4490   47.3200 N   0  0  0  0  0  0  0  0  0  0  0  0
   60.9040   29.5180   48.4630 C   0  0  0  0  0  0  0  0  0  0  0  0
   60.8780   30.3040   49.7900 C   0  0  0  0  0  0  0  0  0  0  0  0
   61.3760   31.6940   49.6520 N   0  0  0  0  0  0  0  0  0  0  0  0
   60.3050   32.6590   49.3070 C   0  0  0  0  0  0  0  0  0  0  0  0
   58.9960   31.9180   49.0470 C   0  0  0  0  0  0  0  0  0  0  0  0
   58.0570   32.7870   48.4190 O   0  0  0  0  0  0  0  0  0  0  0  0
   58.1900   33.2950   47.1190 C   0  0  0  0  0  0  0  0  0  0  0  0
   59.4640   33.6840   46.6850 C   0  0  0  0  0  0  0  0  0  0  0  0
   59.6490   34.1960   45.3980 C   0  0  0  0  0  0  0  0  0  0  0  0
   58.5600   34.3220   44.5320 C   0  0  0  0  0  0  0  0  0  0  0  0
   57.2840   33.9360   44.9540 C   0  0  0  0  0  0  0  0  0  0  0  0
   57.0950   33.4240   46.2410 C   0  0  0  0  0  0  0  0  0  0  0  0
   62.5200   31.7580   48.7190 C   0  0  0  0  0  0  0  0  0  0  0  0
   62.1540   31.2410   47.3100 C   0  0  0  0  0  0  0  0  0  0  0  0
   58.5610   30.5560   45.0430 C   0  0  0  0  0  0  0  0  0  0  0  0
   57.2100   30.3760   44.7430 C   0  0  0  0  0  0  0  0  0  0  0  0
   56.5440   29.2080   45.1290 C   0  0  0  0  0  0  0  0  0  0  0  0
   55.1870   29.0870   44.8260 O   0  0  0  0  0  0  0  0  0  0  0  0
   54.4367   24.8290   46.5418 H   0  0  0  0  0  0  0  0  0  0  0  0
   53.7437   25.4993   45.0262 H   0  0  0  0  0  0  0  0  0  0  0  0
   55.4005   24.8052   45.0262 H   0  0  0  0  0  0  0  0  0  0  0  0
   59.1629   27.5991   46.6494 H   0  0  0  0  0  0  0  0  0  0  0  0
   61.2099   28.7457   46.1089 H   0  0  0  0  0  0  0  0  0  0  0  0
   61.2017   30.3224   45.2361 H   0  0  0  0  0  0  0  0  0  0  0  0
   60.0142   28.8739   48.4047 H   0  0  0  0  0  0  0  0  0  0  0  0
   61.8155   28.9033   48.4277 H   0  0  0  0  0  0  0  0  0  0  0  0
   59.8414   30.3382   50.1565 H   0  0  0  0  0  0  0  0  0  0  0  0
   61.5460   29.7842   50.4925 H   0  0  0  0  0  0  0  0  0  0  0  0
   60.1658   33.3619   50.1416 H   0  0  0  0  0  0  0  0  0  0  0  0
   60.5942   33.2089   48.3993 H   0  0  0  0  0  0  0  0  0  0  0  0
   59.1898   31.0567   48.3908 H   0  0  0  0  0  0  0  0  0  0  0  0
   58.5815   31.5728   50.0056 H   0  0  0  0  0  0  0  0  0  0  0  0
   60.3251   33.5857   47.3624 H   0  0  0  0  0  0  0  0  0  0  0  0
   60.6528   34.5001   45.0665 H   0  0  0  0  0  0  0  0  0  0  0  0
   58.7062   34.7246   43.5188 H   0  0  0  0  0  0  0  0  0  0  0  0
   56.4269   34.0355   44.2717 H   0  0  0  0  0  0  0  0  0  0  0  0
   56.0897   33.1212   46.5691 H   0  0  0  0  0  0  0  0  0  0  0  0
   62.8524   32.8034   48.6374 H   0  0  0  0  0  0  0  0  0  0  0  0
   63.3175   31.1141   49.1182 H   0  0  0  0  0  0  0  0  0  0  0  0
   62.0229   32.1022   46.6383 H   0  0  0  0  0  0  0  0  0  0  0  0
   62.9692   30.5885   46.9641 H   0  0  0  0  0  0  0  0  0  0  0  0
   59.0717   31.4810   44.7371 H   0  0  0  0  0  0  0  0  0  0  0  0
   56.6637   31.1599   44.1979 H   0  0  0  0  0  0  0  0  0  0  0  0
   54.7690   28.2210   44.5080 H   0  0  0  0  0  0  0  0  0  0  0  0
  1  2  1  0
  2  3  1  0
  3  4  2  0
  3  5  1  0
  5  6  2  0
  6  7  1  0
  7  8  1  0
  8  9  1  0
  9 10  1  0
 10 11  1  0
 11 12  1  0
 12 13  1  0
 13 14  1  0
 14 15  1  0
 15 16  1  0
 16 17  2  0
 17 18  1  0
 18 19  2  0
 19 20  1  0
 20 21  2  0
 12 22  1  0
 22 23  1  0
  7 24  2  0
 24 25  1  0
 25 26  2  0
 26 27  1  0
 26  5  1  0
 23  9  1  0
 21 16  1  0
  1 28  1  0
  1 29  1  0
  1 30  1  0
  6 31  1  0
  8 32  1  0
  8 33  1  0
 10 34  1  0
 10 35  1  0
 11 36  1  0
 11 37  1  0
 13 38  1  0
 13 39  1  0
 14 40  1  0
 14 41  1  0
 17 42  1  0
 18 43  1  0
 19 44  1  0
 20 45  1  0
 21 46  1  0
 22 47  1  0
 22 48  1  0
 23 49  1  0
 23 50  1  0
 24 51  1  0
 25 52  1  0
 27 53  1  0
M  CHG  1   2  -1
M  END
>  <UniqueID>  (74) 
74

>  <SMILES>  (74) 
C[N-]C(=O)c1cc(CN2CCN(CCOc3ccccc3)CC2)ccc1O

>  <Energy>  (74) 
67.94233557146329

>  <Genealogy>  (74) 
C[N-]C(=O)c1cc(CN2CCN(CCOc3ccccc3)CC2)ccc1O (protonated)
C[N-]C(=O)c1cc(CN2CCN(CCOc3ccccc3)CC2)ccc1O (3D coordinates assigned)
C[N-]C(=O)c1cc(CN2CCN(CCOc3ccccc3)CC2)ccc1O (nonaromatic ring conformer: 67.94233557146329 kcal/mol)

>  <smiles>  (74) 
CNC(=O)c1cc(CN2CCN(CCOc3ccccc3)CC2)ccc1O

>  <score_type>  (74) 
oracle

>  <origin>  (74) 
adg

>  <m_score__min__energy>  (74) 
-11.1

>  <m_primary>  (74) 
energy

$$$$
74:0
     RDKit          3D

 64 68  0  0  0  0  0  0  0  0999 V2000
   60.1430   28.2880   45.3150 C   0  0  0  0  0  0  0  0  0  0  0  0
   58.9640   27.3970   45.7270 C   0  0  0  0  0  0  0  0  0  0  0  0
   57.7800   27.5420   45.0640 C   0  0  0  0  0  0  0  0  0  0  0  0
   57.4130   28.4450   43.9590 C   0  0  0  0  0  0  0  0  0  0  0  0
   57.4160   29.8760   44.3910 C   0  0  0  0  0  0  0  0  0  0  0  0
   56.3040   30.4870   44.5600 O   0  0  0  0  0  0  0  0  0  0  0  0
   58.5820   30.6140   44.6280 N   0  0  0  0  0  0  0  0  0  0  0  0
   58.4330   31.9780   45.0380 C   0  0  0  0  0  0  0  0  0  0  0  0
   57.8150   32.8440   44.1590 C   0  0  0  0  0  0  0  0  0  0  0  0
   57.6410   34.1740   44.4950 C   0  0  0  0  0  0  0  0  0  0  0  0
   58.1020   34.5940   45.7210 C   0  0  0  0  0  0  0  0  0  0  0  0
   58.7270   33.7350   46.6190 C   0  0  0  0  0  0  0  0  0  0  0  0
   59.1630   34.3230   47.9040 C   0  0  0  0  0  0  0  0  0  0  0  0
   60.1570   33.4640   48.5880 C   0  0  0  0  0  0  0  0  0  0  0  0
   59.7460   32.7200   49.6300 N   0  0  0  0  0  0  0  0  0  0  0  0
   60.5240   31.9250   50.3380 N   0  0  0  0  0  0  0  0  0  0  0  0
   61.8490   31.8070   50.0380 C   0  0  0  0  0  0  0  0  0  0  0  0
   62.5630   31.0490   50.7230 O   0  0  0  0  0  0  0  0  0  0  0  0
   62.3060   32.5430   48.9900 C   0  0  0  0  0  0  0  0  0  0  0  0
   61.4850   33.3810   48.2430 C   0  0  0  0  0  0  0  0  0  0  0  0
   62.0330   34.1370   47.1200 C   0  0  0  0  0  0  0  0  0  0  0  0
   63.1520   33.4420   46.3780 C   0  0  0  0  0  0  0  0  0  0  0  0
   63.7520   32.2840   47.0990 C   0  0  0  0  0  0  0  0  0  0  0  0
   63.7440   32.4640   48.6030 C   0  0  0  0  0  0  0  0  0  0  0  0
   58.8830   32.4240   46.2550 C   0  0  0  0  0  0  0  0  0  0  0  0
   56.6740   26.3650   45.8090 S   0  0  0  0  0  0  0  0  0  0  0  0
   57.9650   25.7760   46.9820 C   0  0  0  0  0  0  0  0  0  0  0  0
   57.7880   24.8830   47.8340 O   0  0  0  0  0  0  0  0  0  0  0  0
   59.0750   26.5260   46.6810 N   0  0  0  0  0  0  0  0  0  0  0  0
   60.2980   26.2690   47.4750 C   0  0  0  0  0  0  0  0  0  0  0  0
   60.3390   27.1010   48.7020 C   0  0  0  0  0  0  0  0  0  0  0  0
   59.7210   28.3540   48.7380 C   0  0  0  0  0  0  0  0  0  0  0  0
   59.7450   29.1450   49.8740 C   0  0  0  0  0  0  0  0  0  0  0  0
   60.3860   28.7230   51.0210 C   0  0  0  0  0  0  0  0  0  0  0  0
   61.0020   27.4900   51.0060 C   0  0  0  0  0  0  0  0  0  0  0  0
   60.9680   26.7140   49.8660 C   0  0  0  0  0  0  0  0  0  0  0  0
   60.6470   28.6689   46.2155 H   0  0  0  0  0  0  0  0  0  0  0  0
   60.8552   27.7004   44.7170 H   0  0  0  0  0  0  0  0  0  0  0  0
   59.7722   29.1335   44.7170 H   0  0  0  0  0  0  0  0  0  0  0  0
   58.1361   28.3183   43.1398 H   0  0  0  0  0  0  0  0  0  0  0  0
   56.3954   28.1881   43.6295 H   0  0  0  0  0  0  0  0  0  0  0  0
   59.5180   30.1670   44.5050 H   0  0  0  0  0  0  0  0  0  0  0  0
   57.4590   32.4743   43.1861 H   0  0  0  0  0  0  0  0  0  0  0  0
   57.1494   34.8741   43.8036 H   0  0  0  0  0  0  0  0  0  0  0  0
   57.9714   35.6495   46.0020 H   0  0  0  0  0  0  0  0  0  0  0  0
   59.6146   35.3073   47.7111 H   0  0  0  0  0  0  0  0  0  0  0  0
   58.2820   34.4157   48.5562 H   0  0  0  0  0  0  0  0  0  0  0  0
   60.1770   31.3580   51.1430 H   0  0  0  0  0  0  0  0  0  0  0  0
   61.2180   34.3315   46.4073 H   0  0  0  0  0  0  0  0  0  0  0  0
   62.4645   35.0556   47.5443 H   0  0  0  0  0  0  0  0  0  0  0  0
   62.7538   33.0795   45.4188 H   0  0  0  0  0  0  0  0  0  0  0  0
   63.9549   34.1846   46.2602 H   0  0  0  0  0  0  0  0  0  0  0  0
   63.1786   31.3789   46.8498 H   0  0  0  0  0  0  0  0  0  0  0  0
   64.8014   32.2015   46.7798 H   0  0  0  0  0  0  0  0  0  0  0  0
   64.2274   31.6070   49.0948 H   0  0  0  0  0  0  0  0  0  0  0  0
   64.2976   33.3643   48.9080 H   0  0  0  0  0  0  0  0  0  0  0  0
   59.3738   31.7218   46.9450 H   0  0  0  0  0  0  0  0  0  0  0  0
   60.3199   25.2076   47.7629 H   0  0  0  0  0  0  0  0  0  0  0  0
   61.1699   26.5270   46.8559 H   0  0  0  0  0  0  0  0  0  0  0  0
   59.2020   28.7213   47.8404 H   0  0  0  0  0  0  0  0  0  0  0  0
   59.2454   30.1249   49.8622 H   0  0  0  0  0  0  0  0  0  0  0  0
   60.4048   29.3532   51.9224 H   0  0  0  0  0  0  0  0  0  0  0  0
   61.5213   27.1244   51.9041 H   0  0  0  0  0  0  0  0  0  0  0  0
   61.4691   25.7350   49.8869 H   0  0  0  0  0  0  0  0  0  0  0  0
  1  2  1  0
  2  3  2  0
  3  4  1  0
  4  5  1  0
  5  6  2  0
  5  7  1  0
  7  8  1  0
  8  9  2  0
  9 10  1  0
 10 11  2  0
 11 12  1  0
 12 13  1  0
 13 14  1  0
 14 15  2  0
 15 16  1  0
 16 17  1  0
 17 18  2  0
 17 19  1  0
 19 20  2  0
 20 21  1  0
 21 22  1  0
 22 23  1  0
 23 24  1  0
 12 25  2  0
  3 26  1  0
 26 27  1  0
 27 28  2  0
 27 29  1  0
 29 30  1  0
 30 31  1  0
 31 32  2  0
 32 33  1  0
 33 34  2  0
 34 35  1  0
 35 36  2  0
 29  2  1  0
 36 31  1  0
 25  8  1  0
 20 14  1  0
 24 19  1  0
  1 37  1  0
  1 38  1  0
  1 39  1  0
  4 40  1  0
  4 41  1  0
  7 42  1  0
  9 43  1  0
 10 44  1  0
 11 45  1  0
 13 46  1  0
 13 47  1  0
 16 48  1  0
 21 49  1  0
 21 50  1  0
 22 51  1  0
 22 52  1  0
 23 53  1  0
 23 54  1  0
 24 55  1  0
 24 56  1  0
 25 57  1  0
 30 58  1  0
 30 59  1  0
 32 60  1  0
 33 61  1  0
 34 62  1  0
 35 63  1  0
 36 64  1  0
M  END
>  <smiles>  (75) 
Cc1c(CC(=O)Nc2cccc(Cc3n[nH]c(=O)c4c3CCCC4)c2)sc(=O)n1Cc1ccccc1

>  <score_type>  (75) 
oracle

>  <origin>  (75) 
adg

>  <m_score__min__energy>  (75) 
-11.119999999999999

>  <m_primary>  (75) 
energy

$$$$
75:0
     RDKit          3D

 45 48  0  0  1  0  0  0  0  0999 V2000
   56.6270   29.7070   52.4070 C   0  0  0  0  0  0  0  0  0  0  0  0
   57.2620   30.4080   51.3530 O   0  0  0  0  0  0  0  0  0  0  0  0
   57.9690   31.5820   51.5710 C   0  0  0  0  0  0  0  0  0  0  0  0
   57.4240   32.4980   52.4760 C   0  0  0  0  0  0  0  0  0  0  0  0
   58.1130   33.6750   52.7090 C   0  0  0  0  0  0  0  0  0  0  0  0
   59.3100   33.9150   52.0500 C   0  0  0  0  0  0  0  0  0  0  0  0
   59.8680   33.0390   51.1590 C   0  0  0  0  0  0  0  0  0  0  0  0
   61.0940   33.2830   50.4830 N   0  0  0  0  0  0  0  0  0  0  0  0
   62.3260   33.3320   51.0470 C   0  0  0  0  0  0  0  0  0  0  0  0
   62.6410   33.1780   52.2410 O   0  0  0  0  0  0  0  0  0  0  0  0
   63.2520   33.5870   50.0820 N   0  0  0  0  0  0  0  0  0  0  0  0
   62.5750   33.6910   48.9360 C   0  0  0  0  0  0  0  0  0  0  0  0
   63.0880   33.9490   47.6600 C   0  0  0  0  0  0  0  0  0  0  0  0
   62.1800   34.0040   46.6680 N   0  0  0  0  0  0  0  0  0  0  0  0
   60.8590   33.8210   46.8910 C   0  0  0  0  0  0  0  0  0  0  0  0
   60.0670   33.8930   45.8670 N   0  0  0  0  0  0  0  0  0  0  0  0
   59.2230   32.8030   45.4840 C   0  0  0  0  0  0  0  0  0  0  0  0
   59.2870   31.5850   46.1220 C   0  0  0  0  0  0  0  0  0  0  0  0
   58.4880   30.5270   45.7720 C   0  0  0  0  0  0  0  0  0  0  0  0
   57.5860   30.7160   44.7310 C   0  0  0  0  0  0  0  0  0  0  0  0
   56.5620   29.3510   44.2860 S   0  0  0  0  0  0  0  0  0  0  0  0
   56.4830   29.2000   42.5760 N   0  0  0  0  0  0  0  0  0  0  0  0
   55.1410   29.5880   44.7690 O   0  0  0  0  0  0  0  0  0  0  0  0
   57.0430   28.0670   44.8600 O   0  0  0  0  0  0  0  0  0  0  0  0
   57.4900   31.9120   44.0700 C   0  0  0  0  0  0  0  0  0  0  0  0
   58.3110   32.9600   44.4470 C   0  0  0  0  0  0  0  0  0  0  0  0
   60.3560   33.5720   48.1170 N   0  0  0  0  0  0  0  0  0  0  0  0
   61.2240   33.5060   49.1530 C   0  0  0  0  0  0  0  0  0  0  0  0
   59.1680   31.8520   50.9290 C   0  0  0  0  0  0  0  0  0  0  0  0
   56.9808   30.0976   53.3726 H   0  0  0  0  0  0  0  0  0  0  0  0
   55.5378   29.8424   52.3336 H   0  0  0  0  0  0  0  0  0  0  0  0
   56.8691   28.6365   52.3336 H   0  0  0  0  0  0  0  0  0  0  0  0
   56.4736   32.2886   52.9887 H   0  0  0  0  0  0  0  0  0  0  0  0
   57.7130   34.4181   53.4145 H   0  0  0  0  0  0  0  0  0  0  0  0
   59.8378   34.8582   52.2543 H   0  0  0  0  0  0  0  0  0  0  0  0
   64.2840   33.6790   50.2290 H   0  0  0  0  0  0  0  0  0  0  0  0
   64.1629   34.0972   47.4795 H   0  0  0  0  0  0  0  0  0  0  0  0
   62.5280   34.1930   45.7180 H   0  0  0  0  0  0  0  0  0  0  0  0
   60.0065   31.4554   46.9439 H   0  0  0  0  0  0  0  0  0  0  0  0
   58.5582   29.5626   46.2964 H   0  0  0  0  0  0  0  0  0  0  0  0
   56.6240   28.2270   42.2300 H   0  0  0  0  0  0  0  0  0  0  0  0
   55.6890   29.6970   42.1330 H   0  0  0  0  0  0  0  0  0  0  0  0
   56.7687   32.0377   43.2491 H   0  0  0  0  0  0  0  0  0  0  0  0
   58.2414   33.9243   43.9223 H   0  0  0  0  0  0  0  0  0  0  0  0
   59.5773   31.1149   50.2226 H   0  0  0  0  0  0  0  0  0  0  0  0
  1  2  1  0
  2  3  1  0
  3  4  2  0
  4  5  1  0
  5  6  2  0
  6  7  1  0
  7  8  1  0
  8  9  1  0
  9 10  2  0
  9 11  1  0
 11 12  1  0
 12 13  2  0
 13 14  1  0
 14 15  1  0
 15 16  2  0
 16 17  1  0
 17 18  2  0
 18 19  1  0
 19 20  2  0
 20 21  1  0
 21 22  1  0
 21 23  2  0
 21 24  2  0
 20 25  1  0
 25 26  2  0
 15 27  1  0
 27 28  2  0
  7 29  2  0
 29  3  1  0
 28  8  1  0
 28 12  1  0
 26 17  1  0
  1 30  1  0
  1 31  1  0
  1 32  1  0
  4 33  1  0
  5 34  1  0
  6 35  1  0
 11 36  1  0
 13 37  1  0
 14 38  1  0
 18 39  1  0
 19 40  1  0
 22 41  1  0
 22 42  1  0
 25 43  1  0
 26 44  1  0
 29 45  1  0
M  END
>  <smiles>  (76) 
COc1cccc(-n2c(=O)[nH]c3c[nH]c(=Nc4ccc(S(N)(=O)=O)cc4)nc32)c1

>  <score_type>  (76) 
oracle

>  <origin>  (76) 
adg

>  <m_score__min__energy>  (76) 
-8.8599999999999994

>  <m_primary>  (76) 
energy

$$$$
76:0
     RDKit          3D

 60 63  0  0  0  0  0  0  0  0999 V2000
   58.7536   26.5536   48.7059 H   0  0  0  0  0  0  0  0  0  0  0  0
   58.9460   27.0720   47.7550 C   0  0  0  0  0  0  0  0  0  0  0  0
   57.9280   27.2840   46.8770 N   0  0  0  0  0  0  0  0  0  0  0  0
   58.1190   27.9320   45.6900 C   0  0  0  0  0  0  0  0  0  0  0  0
   57.1370   28.1220   44.8570 N   0  0  0  0  0  0  0  0  0  0  0  0
   56.3970   29.3390   44.6550 C   0  0  0  0  0  0  0  0  0  0  0  0
   55.1520   29.3200   44.8460 O   0  0  0  0  0  0  0  0  0  0  0  0
   57.0330   30.5830   44.1480 C   0  0  0  0  0  0  0  0  0  0  0  0
   56.9360   30.9000   42.7810 C   0  0  0  0  0  0  0  0  0  0  0  0
   56.4108   30.2151   42.0990 H   0  0  0  0  0  0  0  0  0  0  0  0
   57.5000   32.0760   42.2810 C   0  0  0  0  0  0  0  0  0  0  0  0
   57.3720   32.4520   40.5740 Cl  0  0  0  0  0  0  0  0  0  0  0  0
   58.1670   32.9490   43.1410 C   0  0  0  0  0  0  0  0  0  0  0  0
   58.6179   33.8713   42.7460 H   0  0  0  0  0  0  0  0  0  0  0  0
   58.2630   32.6540   44.5010 C   0  0  0  0  0  0  0  0  0  0  0  0
   58.8009   33.3407   45.1712 H   0  0  0  0  0  0  0  0  0  0  0  0
   57.6780   31.4860   45.0230 C   0  0  0  0  0  0  0  0  0  0  0  0
   57.7870   31.1740   46.4220 N   0  0  0  0  0  0  0  0  0  0  0  0
   58.5420   31.9100   47.3970 C   0  0  0  0  0  0  0  0  0  0  0  0
   58.4170   33.1630   47.4380 O   0  0  0  0  0  0  0  0  0  0  0  0
   59.5080   31.2410   48.3010 C   0  0  0  0  0  0  0  0  0  0  0  0
   59.0440   30.6190   49.4720 C   0  0  0  0  0  0  0  0  0  0  0  0
   57.9675   30.6257   49.6983 H   0  0  0  0  0  0  0  0  0  0  0  0
   59.9320   29.9890   50.3580 C   0  0  0  0  0  0  0  0  0  0  0  0
   59.4060   29.3970   51.6420 C   0  0  0  0  0  0  0  0  0  0  0  0
   59.9030   28.1180   51.8540 F   0  0  0  0  0  0  0  0  0  0  0  0
   59.7840   30.2070   52.7020 F   0  0  0  0  0  0  0  0  0  0  0  0
   58.0250   29.3280   51.5970 F   0  0  0  0  0  0  0  0  0  0  0  0
   61.3040   29.9970   50.0680 C   0  0  0  0  0  0  0  0  0  0  0  0
   62.0127   29.5266   50.7655 H   0  0  0  0  0  0  0  0  0  0  0  0
   61.7760   30.5980   48.9000 C   0  0  0  0  0  0  0  0  0  0  0  0
   62.8531   30.5838   48.6772 H   0  0  0  0  0  0  0  0  0  0  0  0
   60.8860   31.2230   48.0030 C   0  0  0  0  0  0  0  0  0  0  0  0
   61.3340   31.8580   46.8290 O   0  0  0  0  0  0  0  0  0  0  0  0
   61.5550   33.2590   46.6700 C   0  0  0  0  0  0  0  0  0  0  0  0
   61.1447   33.5827   45.7021 H   0  0  0  0  0  0  0  0  0  0  0  0
   61.0554   33.7936   47.4914 H   0  0  0  0  0  0  0  0  0  0  0  0
   63.0550   33.5740   46.7130 C   0  0  0  0  0  0  0  0  0  0  0  0
   63.6201   32.6820   46.4048 H   0  0  0  0  0  0  0  0  0  0  0  0
   63.2600   34.4111   46.0295 H   0  0  0  0  0  0  0  0  0  0  0  0
   63.4690   33.9630   48.0780 N   0  0  0  0  0  0  0  0  0  0  0  0
   62.2850   34.1250   48.9410 C   0  0  0  0  0  0  0  0  0  0  0  0
   61.6680   34.9523   48.5603 H   0  0  0  0  0  0  0  0  0  0  0  0
   61.7046   33.1906   48.9343 H   0  0  0  0  0  0  0  0  0  0  0  0
   62.7200   34.4370   50.3850 C   0  0  0  0  0  0  0  0  0  0  0  0
   63.0912   35.4722   50.4099 H   0  0  0  0  0  0  0  0  0  0  0  0
   61.8305   34.2668   51.0094 H   0  0  0  0  0  0  0  0  0  0  0  0
   63.7410   33.5910   50.9220 O   0  0  0  0  0  0  0  0  0  0  0  0
   64.0760   32.5200   50.0610 C   0  0  0  0  0  0  0  0  0  0  0  0
   64.9247   31.9681   50.4912 H   0  0  0  0  0  0  0  0  0  0  0  0
   63.1944   31.8697   49.9616 H   0  0  0  0  0  0  0  0  0  0  0  0
   64.4660   33.0220   48.6560 C   0  0  0  0  0  0  0  0  0  0  0  0
   65.4356   33.5369   48.7243 H   0  0  0  0  0  0  0  0  0  0  0  0
   64.5130   32.1446   47.9942 H   0  0  0  0  0  0  0  0  0  0  0  0
   59.4030   28.3750   45.3480 C   0  0  0  0  0  0  0  0  0  0  0  0
   59.5763   28.8837   44.3882 H   0  0  0  0  0  0  0  0  0  0  0  0
   60.4620   28.1660   46.2350 C   0  0  0  0  0  0  0  0  0  0  0  0
   61.4729   28.5153   45.9781 H   0  0  0  0  0  0  0  0  0  0  0  0
   60.2350   27.5130   47.4480 C   0  0  0  0  0  0  0  0  0  0  0  0
   61.0622   27.3477   48.1540 H   0  0  0  0  0  0  0  0  0  0  0  0
  1  2  1  0
  2  3  1  0
  3  4  1  0
  4  5  2  0
  5  6  1  0
  6  7  2  0
  6  8  1  0
  8  9  2  0
  9 10  1  0
  9 11  1  0
 11 12  1  0
 11 13  2  0
 13 14  1  0
 13 15  1  0
 15 16  1  0
 15 17  2  0
 17 18  1  0
 18 19  1  0
 19 20  2  0
 19 21  1  0
 21 22  2  0
 22 23  1  0
 22 24  1  0
 24 25  1  0
 25 26  1  0
 25 27  1  0
 25 28  1  0
 24 29  2  0
 29 30  1  0
 29 31  1  0
 31 32  1  0
 31 33  2  0
 33 34  1  0
 34 35  1  0
 35 36  1  0
 35 37  1  0
 35 38  1  0
 38 39  1  0
 38 40  1  0
 38 41  1  0
 41 42  1  0
 42 43  1  0
 42 44  1  0
 42 45  1  0
 45 46  1  0
 45 47  1  0
 45 48  1  0
 48 49  1  0
 49 50  1  0
 49 51  1  0
 49 52  1  0
 52 53  1  0
 52 54  1  0
  4 55  1  0
 55 56  1  0
 55 57  2  0
 57 58  1  0
 57 59  1  0
 59 60  1  0
 59  2  2  0
 17  8  1  0
 33 21  1  0
 52 41  1  0
M  CHG  2   3  -1  18  -1
M  END
>  <UniqueID>  (77) 
75

>  <SMILES>  (77) 
O=C(/N=c1/cccc[n-]1)c1cc(Cl)ccc1[N-]C(=O)c1cc(C(F)(F)F)ccc1OCCN1CCOCC1

>  <Energy>  (77) 
94.51650747656433

>  <Genealogy>  (77) 
O=C(N=c1cccc[n-]1)c1cc(Cl)ccc1[N-]C(=O)c1cc(C(F)(F)F)ccc1OCCN1CCOCC1 (protonated)
O=C(/N=c1/cccc[n-]1)c1cc(Cl)ccc1[N-]C(=O)c1cc(C(F)(F)F)ccc1OCCN1CCOCC1 (cis-trans isomerization)
O=C(/N=c1/cccc[n-]1)c1cc(Cl)ccc1[N-]C(=O)c1cc(C(F)(F)F)ccc1OCCN1CCOCC1 (3D coordinates assigned)
O=C(/N=c1/cccc[n-]1)c1cc(Cl)ccc1[N-]C(=O)c1cc(C(F)(F)F)ccc1OCCN1CCOCC1 (nonaromatic ring conformer: 94.51650747656433 kcal/mol)

>  <smiles>  (77) 
O=C(N=c1cccc[nH]1)c1cc(Cl)ccc1NC(=O)c1cc(C(F)(F)F)ccc1OCCN1CCOCC1

>  <score_type>  (77) 
oracle

>  <origin>  (77) 
adg

>  <m_score__min__energy>  (77) 
-12.09

>  <m_primary>  (77) 
energy

$$$$
77:0
     RDKit          3D

 41 43  0  0  1  0  0  0  0  0999 V2000
   55.9230   30.4280   43.7470 S   0  0  0  0  0  0  0  0  0  0  0  0
   57.1510   29.8000   44.6250 C   0  0  0  0  0  0  0  0  0  0  0  0
   58.0690   30.5970   45.1920 N   0  0  0  0  0  0  0  0  0  0  0  0
   59.1070   30.1570   45.9270 C   0  0  0  0  0  0  0  0  0  0  0  0
   59.9140   30.9730   46.3780 N   0  0  0  0  0  0  0  0  0  0  0  0
   60.2290   31.3460   47.6720 C   0  0  0  0  0  0  0  0  0  0  0  0
   59.3920   32.4140   48.3450 C   0  0  0  0  0  0  0  0  0  0  0  0
   59.6970   33.8120   47.8850 C   0  0  0  0  0  0  0  0  0  0  0  0
   58.7160   34.4270   47.0520 N   0  0  0  0  0  0  0  0  0  0  0  0
   57.6410   33.4860   46.7390 C   0  0  0  0  0  0  0  0  0  0  0  0
   57.0060   33.8450   45.4370 C   0  0  0  0  0  0  0  0  0  0  0  0
   57.8510   33.6880   44.3430 O   0  0  0  0  0  0  0  0  0  0  0  0
   59.1900   33.8050   44.7290 C   0  0  0  0  0  0  0  0  0  0  0  0
   59.2330   34.8860   45.7930 C   0  0  0  0  0  0  0  0  0  0  0  0
   59.2660   28.8140   46.1310 C   0  0  0  0  0  0  0  0  0  0  0  0
   60.2990   28.3470   46.8760 C   0  0  0  0  0  0  0  0  0  0  0  0
   60.3970   26.9460   47.0440 C   0  0  0  0  0  0  0  0  0  0  0  0
   59.4490   26.1770   46.4490 C   0  0  0  0  0  0  0  0  0  0  0  0
   58.4040   26.6530   45.6990 C   0  0  0  0  0  0  0  0  0  0  0  0
   58.3120   28.0020   45.5380 C   0  0  0  0  0  0  0  0  0  0  0  0
   57.2890   28.4800   44.8090 N   0  0  0  0  0  0  0  0  0  0  0  0
   57.9320   31.6340   45.0270 H   0  0  0  0  0  0  0  0  0  0  0  0
   60.1622   30.4419   48.2950 H   0  0  0  0  0  0  0  0  0  0  0  0
   61.2252   31.8038   47.5831 H   0  0  0  0  0  0  0  0  0  0  0  0
   58.3323   32.2050   48.1365 H   0  0  0  0  0  0  0  0  0  0  0  0
   59.6293   32.3740   49.4184 H   0  0  0  0  0  0  0  0  0  0  0  0
   59.8202   34.4406   48.7793 H   0  0  0  0  0  0  0  0  0  0  0  0
   60.6010   33.7279   47.2639 H   0  0  0  0  0  0  0  0  0  0  0  0
   58.0556   32.4692   46.6732 H   0  0  0  0  0  0  0  0  0  0  0  0
   56.8816   33.5307   47.5336 H   0  0  0  0  0  0  0  0  0  0  0  0
   56.1251   33.2026   45.2909 H   0  0  0  0  0  0  0  0  0  0  0  0
   56.7420   34.9115   45.4902 H   0  0  0  0  0  0  0  0  0  0  0  0
   59.5527   32.8513   45.1400 H   0  0  0  0  0  0  0  0  0  0  0  0
   59.8322   34.0603   43.8732 H   0  0  0  0  0  0  0  0  0  0  0  0
   60.2766   35.2042   45.9331 H   0  0  0  0  0  0  0  0  0  0  0  0
   58.6029   35.7210   45.4527 H   0  0  0  0  0  0  0  0  0  0  0  0
   61.0310   29.0304   47.3312 H   0  0  0  0  0  0  0  0  0  0  0  0
   61.2096   26.4968   47.6338 H   0  0  0  0  0  0  0  0  0  0  0  0
   59.5251   25.0873   46.5787 H   0  0  0  0  0  0  0  0  0  0  0  0
   57.6691   25.9718   45.2454 H   0  0  0  0  0  0  0  0  0  0  0  0
   56.5710   27.8350   44.3650 H   0  0  0  0  0  0  0  0  0  0  0  0
  1  2  2  0
  2  3  1  0
  3  4  1  0
  4  5  2  0
  5  6  1  0
  6  7  1  0
  7  8  1  0
  8  9  1  0
  9 10  1  0
 10 11  1  0
 11 12  1  0
 12 13  1  0
 13 14  1  0
  4 15  1  0
 15 16  2  0
 16 17  1  0
 17 18  2  0
 18 19  1  0
 19 20  2  0
 20 21  1  0
 21  2  1  0
 14  9  1  0
 20 15  1  0
  3 22  1  0
  6 23  1  0
  6 24  1  0
  7 25  1  0
  7 26  1  0
  8 27  1  0
  8 28  1  0
 10 29  1  0
 10 30  1  0
 11 31  1  0
 11 32  1  0
 13 33  1  0
 13 34  1  0
 14 35  1  0
 14 36  1  0
 16 37  1  0
 17 38  1  0
 18 39  1  0
 19 40  1  0
 21 41  1  0
M  END
>  <smiles>  (78) 
S=c1[nH]c(=NCCCN2CCOCC2)c2ccccc2[nH]1

>  <score_type>  (78) 
oracle

>  <origin>  (78) 
adg

>  <m_score__min__energy>  (78) 
-7.0899999999999999

>  <m_primary>  (78) 
energy

$$$$
78:0
     RDKit          3D

 44 46  0  0  0  0  0  0  0  0999 V2000
   56.2330   29.3780   42.6880 C   0  0  0  0  0  0  0  0  0  0  0  0
   55.9660   29.9040   44.0640 C   0  0  0  0  0  0  0  0  0  0  0  0
   55.1450   29.3040   44.8070 O   0  0  0  0  0  0  0  0  0  0  0  0
   56.6210   31.0770   44.5570 N   0  0  0  0  0  0  0  0  0  0  0  0
   58.0540   31.3180   44.4340 C   0  0  0  0  0  0  0  0  0  0  0  0
   58.5740   31.8910   45.7200 C   0  0  0  0  0  0  0  0  0  0  0  0
   57.8420   32.8720   46.4060 C   0  0  0  0  0  0  0  0  0  0  0  0
   58.3120   33.3840   47.6190 C   0  0  0  0  0  0  0  0  0  0  0  0
   59.5160   32.9160   48.1640 C   0  0  0  0  0  0  0  0  0  0  0  0
   60.1260   33.5880   49.6790 S   0  0  0  0  0  0  0  0  0  0  0  0
   61.6190   33.7330   49.5900 O   0  0  0  0  0  0  0  0  0  0  0  0
   59.5370   34.9560   49.8860 O   0  0  0  0  0  0  0  0  0  0  0  0
   59.7250   32.5670   51.0400 N   0  0  0  0  0  0  0  0  0  0  0  0
   58.5580   33.1120   51.7680 C   0  0  0  0  0  0  0  0  0  0  0  0
   57.9130   32.0530   52.6670 C   0  0  0  0  0  0  0  0  0  0  0  0
   57.3520   30.8890   51.8140 C   0  0  0  0  0  0  0  0  0  0  0  0
   58.1400   30.6850   50.4950 C   0  0  0  0  0  0  0  0  0  0  0  0
   59.6000   31.1420   50.6390 C   0  0  0  0  0  0  0  0  0  0  0  0
   55.9410   31.1220   51.5140 N   0  0  0  0  0  0  0  0  0  0  0  0
   55.1830   30.0790   52.1060 C   0  0  0  0  0  0  0  0  0  0  0  0
   53.9300   30.0100   52.0230 O   0  0  0  0  0  0  0  0  0  0  0  0
   55.9640   29.1240   52.8010 N   0  0  0  0  0  0  0  0  0  0  0  0
   57.2870   29.6160   52.6210 C   0  0  0  0  0  0  0  0  0  0  0  0
   58.2940   29.0230   53.0910 O   0  0  0  0  0  0  0  0  0  0  0  0
   60.2360   31.9190   47.4930 C   0  0  0  0  0  0  0  0  0  0  0  0
   59.7660   31.4070   46.2790 C   0  0  0  0  0  0  0  0  0  0  0  0
   56.7298   28.3992   42.7596 H   0  0  0  0  0  0  0  0  0  0  0  0
   55.2818   29.2676   42.1467 H   0  0  0  0  0  0  0  0  0  0  0  0
   56.8835   30.0807   42.1467 H   0  0  0  0  0  0  0  0  0  0  0  0
   58.5688   30.3698   44.2197 H   0  0  0  0  0  0  0  0  0  0  0  0
   58.2388   32.0273   43.6138 H   0  0  0  0  0  0  0  0  0  0  0  0
   56.8937   33.2400   45.9873 H   0  0  0  0  0  0  0  0  0  0  0  0
   57.7350   34.1569   48.1478 H   0  0  0  0  0  0  0  0  0  0  0  0
   58.8877   33.9568   52.3906 H   0  0  0  0  0  0  0  0  0  0  0  0
   57.8116   33.4384   51.0288 H   0  0  0  0  0  0  0  0  0  0  0  0
   58.6683   31.6604   53.3637 H   0  0  0  0  0  0  0  0  0  0  0  0
   57.0865   32.5156   53.2264 H   0  0  0  0  0  0  0  0  0  0  0  0
   58.1234   29.6177   50.2294 H   0  0  0  0  0  0  0  0  0  0  0  0
   57.6634   31.2897   49.7094 H   0  0  0  0  0  0  0  0  0  0  0  0
   60.0888   30.5188   51.4024 H   0  0  0  0  0  0  0  0  0  0  0  0
   60.0774   31.0342   49.6539 H   0  0  0  0  0  0  0  0  0  0  0  0
   55.5520   31.9260   50.9720 H   0  0  0  0  0  0  0  0  0  0  0  0
   61.1742   31.5375   47.9223 H   0  0  0  0  0  0  0  0  0  0  0  0
   60.3341   30.6208   45.7601 H   0  0  0  0  0  0  0  0  0  0  0  0
  1  2  1  0
  2  3  2  0
  2  4  1  0
  4  5  1  0
  5  6  1  0
  6  7  2  0
  7  8  1  0
  8  9  2  0
  9 10  1  0
 10 11  2  0
 10 12  2  0
 10 13  1  0
 13 14  1  0
 14 15  1  0
 15 16  1  0
 16 17  1  0
 17 18  1  0
 16 19  1  0
 19 20  1  0
 20 21  2  0
 20 22  1  0
 22 23  1  0
 23 24  2  0
  9 25  1  0
 25 26  2  0
 26  6  1  0
 18 13  1  0
 23 16  1  0
  1 27  1  0
  1 28  1  0
  1 29  1  0
  5 30  1  0
  5 31  1  0
  7 32  1  0
  8 33  1  0
 14 34  1  0
 14 35  1  0
 15 36  1  0
 15 37  1  0
 17 38  1  0
 17 39  1  0
 18 40  1  0
 18 41  1  0
 19 42  1  0
 25 43  1  0
 26 44  1  0
M  CHG  2   4  -1  22  -1
M  END
>  <UniqueID>  (79) 
76

>  <SMILES>  (79) 
CC(=O)[N-]Cc1ccc(S(=O)(=O)N2CCC3(CC2)NC(=O)[N-]C3=O)cc1

>  <Energy>  (79) 
63.60257793365573

>  <Genealogy>  (79) 
CC(=O)[N-]Cc1ccc(S(=O)(=O)N2CCC3(CC2)NC(=O)[N-]C3=O)cc1 (protonated)
CC(=O)[N-]Cc1ccc(S(=O)(=O)N2CCC3(CC2)NC(=O)[N-]C3=O)cc1 (3D coordinates assigned)
CC(=O)[N-]Cc1ccc(S(=O)(=O)N2CCC3(CC2)NC(=O)[N-]C3=O)cc1 (nonaromatic ring conformer: 63.60257793365573 kcal/mol)

>  <smiles>  (79) 
CC(=O)NCc1ccc(S(=O)(=O)N2CCC3(CC2)NC(=O)NC3=O)cc1

>  <score_type>  (79) 
oracle

>  <origin>  (79) 
adg

>  <m_score__min__energy>  (79) 
-11.539999999999999

>  <m_primary>  (79) 
energy

$$$$
79:0
     RDKit          3D

 39 41  0  0  0  0  0  0  0  0999 V2000
   57.4000   24.9880   43.0040 C   0  0  0  0  0  0  0  0  0  0  0  0
   56.4740   24.4710   44.1100 C   0  0  1  0  0  0  0  0  0  0  0  0
   56.4580   22.9630   44.1080 C   0  0  0  0  0  0  0  0  0  0  0  0
   55.8450   22.3620   43.1820 O   0  0  0  0  0  0  0  0  0  0  0  0
   57.1740   22.2070   45.1070 N   0  0  0  0  0  0  0  0  0  0  0  0
   57.2980   20.7560   44.9600 C   0  0  0  0  0  0  0  0  0  0  0  0
   57.6170   22.8470   46.3520 C   0  0  0  0  0  0  0  0  0  0  0  0
   57.9930   24.3060   46.1180 C   0  0  0  0  0  0  0  0  0  0  0  0
   56.8970   24.9870   45.4200 N   0  0  0  0  0  0  0  0  0  0  0  0
   56.3940   26.2550   45.8920 C   0  0  0  0  0  0  0  0  0  0  0  0
   55.1520   26.4220   46.0130 O   0  0  0  0  0  0  0  0  0  0  0  0
   57.3160   27.3340   46.3030 C   0  0  0  0  0  0  0  0  0  0  0  0
   58.5120   27.1330   47.4820 S   0  0  0  0  0  0  0  0  0  0  0  0
   59.1260   28.6840   47.3610 C   0  0  0  0  0  0  0  0  0  0  0  0
   60.1770   29.2450   48.0820 C   0  0  0  0  0  0  0  0  0  0  0  0
   60.5190   30.5790   47.8270 C   0  0  0  0  0  0  0  0  0  0  0  0
   59.8070   31.3260   46.8680 C   0  0  0  0  0  0  0  0  0  0  0  0
   60.2380   33.0000   46.5700 Cl  0  0  0  0  0  0  0  0  0  0  0  0
   58.7490   30.7380   46.1530 C   0  0  0  0  0  0  0  0  0  0  0  0
   58.4170   29.3960   46.4010 C   0  0  0  0  0  0  0  0  0  0  0  0
   57.3870   28.6460   45.7940 C   0  0  0  0  0  0  0  0  0  0  0  0
   56.5460   29.1620   44.6940 C   0  0  0  0  0  0  0  0  0  0  0  0
   55.1420   29.3170   44.8820 N   0  0  0  0  0  0  0  0  0  0  0  0
   57.0600   29.4580   43.5840 O   0  0  0  0  0  0  0  0  0  0  0  0
   58.2752   25.4766   43.4571 H   0  0  0  0  0  0  0  0  0  0  0  0
   57.7326   24.1451   42.3805 H   0  0  0  0  0  0  0  0  0  0  0  0
   56.8570   25.7135   42.3805 H   0  0  0  0  0  0  0  0  0  0  0  0
   55.4532   24.8318   43.9155 H   0  0  0  0  0  0  0  0  0  0  0  0
   57.3379   20.2887   45.9550 H   0  0  0  0  0  0  0  0  0  0  0  0
   56.4297   20.3679   44.4073 H   0  0  0  0  0  0  0  0  0  0  0  0
   58.2195   20.5209   44.4073 H   0  0  0  0  0  0  0  0  0  0  0  0
   56.8020   22.8002   47.0893 H   0  0  0  0  0  0  0  0  0  0  0  0
   58.5050   22.3132   46.7214 H   0  0  0  0  0  0  0  0  0  0  0  0
   58.1736   24.7979   47.0852 H   0  0  0  0  0  0  0  0  0  0  0  0
   58.9053   24.3561   45.5055 H   0  0  0  0  0  0  0  0  0  0  0  0
   60.7244   28.6557   48.8324 H   0  0  0  0  0  0  0  0  0  0  0  0
   61.3482   31.0461   48.3786 H   0  0  0  0  0  0  0  0  0  0  0  0
   58.1880   31.3218   45.4084 H   0  0  0  0  0  0  0  0  0  0  0  0
   54.7290   29.3470   45.8390 H   0  0  0  0  0  0  0  0  0  0  0  0
  1  2  1  0
  2  3  1  0
  3  4  2  0
  3  5  1  0
  5  6  1  0
  5  7  1  0
  7  8  1  0
  8  9  1  0
  9 10  1  0
 10 11  2  0
 10 12  1  0
 12 13  1  0
 13 14  1  0
 14 15  2  0
 15 16  1  0
 16 17  2  0
 17 18  1  0
 17 19  1  0
 19 20  2  0
 20 21  1  0
 21 22  1  0
 22 23  1  0
 22 24  2  0
  9  2  1  0
 21 12  2  0
 20 14  1  0
  1 25  1  0
  1 26  1  0
  1 27  1  0
  2 28  1  6
  6 29  1  0
  6 30  1  0
  6 31  1  0
  7 32  1  0
  7 33  1  0
  8 34  1  0
  8 35  1  0
 15 36  1  0
 16 37  1  0
 19 38  1  0
 23 39  1  0
M  CHG  1  23  -1
M  END
>  <UniqueID>  (80) 
77

>  <SMILES>  (80) 
C[C@H]1C(=O)N(C)CCN1C(=O)c1sc2ccc(Cl)cc2c1C([NH-])=O

>  <Energy>  (80) 
78.48182062574021

>  <Genealogy>  (80) 
CC1C(=O)N(C)CCN1C(=O)c1sc2ccc(Cl)cc2c1C([NH-])=O (protonated)
C[C@H]1C(=O)N(C)CCN1C(=O)c1sc2ccc(Cl)cc2c1C([NH-])=O (chirality)
C[C@H]1C(=O)N(C)CCN1C(=O)c1sc2ccc(Cl)cc2c1C([NH-])=O (3D coordinates assigned)
C[C@H]1C(=O)N(C)CCN1C(=O)c1sc2ccc(Cl)cc2c1C([NH-])=O (nonaromatic ring conformer: 78.48182062574021 kcal/mol)

>  <smiles>  (80) 
CC1C(=O)N(C)CCN1C(=O)c1sc2ccc(Cl)cc2c1C(N)=O

>  <score_type>  (80) 
oracle

>  <origin>  (80) 
adg

>  <m_score__min__energy>  (80) 
-11.32

>  <m_primary>  (80) 
energy

$$$$
80:0
     RDKit          3D

 46 48  0  0  0  0  0  0  0  0999 V2000
   59.3200   33.4250   45.2310 C   0  0  0  0  0  0  0  0  0  0  0  0
   57.8780   33.1480   45.7010 C   0  0  0  0  0  0  0  0  0  0  0  0
   57.8520   33.0900   47.2400 C   0  0  0  0  0  0  0  0  0  0  0  0
   56.9610   34.2830   45.2090 C   0  0  0  0  0  0  0  0  0  0  0  0
   57.3910   31.8280   45.1380 C   0  0  0  0  0  0  0  0  0  0  0  0
   58.1730   30.7320   44.8270 C   0  0  0  0  0  0  0  0  0  0  0  0
   57.2510   29.8050   44.3750 C   0  0  0  0  0  0  0  0  0  0  0  0
   57.4900   28.5960   43.9540 N   0  0  0  0  0  0  0  0  0  0  0  0
   58.3660   27.6330   44.5590 C   0  0  0  0  0  0  0  0  0  0  0  0
   59.6090   27.8260   44.4910 O   0  0  0  0  0  0  0  0  0  0  0  0
   57.8670   26.3970   45.2130 C   0  0  0  0  0  0  0  0  0  0  0  0
   57.5070   25.3020   44.4090 C   0  0  0  0  0  0  0  0  0  0  0  0
   57.0600   24.1120   44.9870 C   0  0  0  0  0  0  0  0  0  0  0  0
   56.9650   24.0020   46.3730 C   0  0  0  0  0  0  0  0  0  0  0  0
   57.2980   25.0870   47.1860 C   0  0  0  0  0  0  0  0  0  0  0  0
   57.7220   26.3020   46.6170 C   0  0  0  0  0  0  0  0  0  0  0  0
   58.0350   27.4310   47.4490 N   0  0  0  0  0  0  0  0  0  0  0  0
   59.3140   27.7420   48.0170 C   0  0  0  0  0  0  0  0  0  0  0  0
   59.9860   26.8120   48.5340 O   0  0  0  0  0  0  0  0  0  0  0  0
   59.8870   29.1080   47.9600 C   0  0  0  0  0  0  0  0  0  0  0  0
   59.7090   29.9920   49.0390 C   0  0  0  0  0  0  0  0  0  0  0  0
   60.2480   31.2830   48.9920 C   0  0  0  0  0  0  0  0  0  0  0  0
   60.9750   31.6990   47.8730 C   0  0  0  0  0  0  0  0  0  0  0  0
   61.7090   33.4610   47.8110 Br  0  0  0  0  0  0  0  0  0  0  0  0
   61.1700   30.8220   46.8020 C   0  0  0  0  0  0  0  0  0  0  0  0
   60.6330   29.5310   46.8460 C   0  0  0  0  0  0  0  0  0  0  0  0
   56.0140   30.3330   44.3990 N   0  0  0  0  0  0  0  0  0  0  0  0
   56.1360   31.5420   44.8650 O   0  0  0  0  0  0  0  0  0  0  0  0
   59.9734   33.5505   46.1069 H   0  0  0  0  0  0  0  0  0  0  0  0
   59.6771   32.5790   44.6254 H   0  0  0  0  0  0  0  0  0  0  0  0
   59.3383   34.3431   44.6254 H   0  0  0  0  0  0  0  0  0  0  0  0
   58.2696   34.0218   47.6491 H   0  0  0  0  0  0  0  0  0  0  0  0
   56.8143   32.9708   47.5850 H   0  0  0  0  0  0  0  0  0  0  0  0
   58.4535   32.2360   47.5850 H   0  0  0  0  0  0  0  0  0  0  0  0
   56.5344   34.8110   46.0746 H   0  0  0  0  0  0  0  0  0  0  0  0
   57.5454   34.9888   44.6005 H   0  0  0  0  0  0  0  0  0  0  0  0
   56.1481   33.8600   44.6005 H   0  0  0  0  0  0  0  0  0  0  0  0
   59.2639   30.6231   44.9170 H   0  0  0  0  0  0  0  0  0  0  0  0
   57.5780   25.3831   43.3143 H   0  0  0  0  0  0  0  0  0  0  0  0
   56.7827   23.2608   44.3478 H   0  0  0  0  0  0  0  0  0  0  0  0
   56.6271   23.0588   46.8271 H   0  0  0  0  0  0  0  0  0  0  0  0
   57.2284   24.9913   48.2796 H   0  0  0  0  0  0  0  0  0  0  0  0
   59.1432   29.6673   49.9247 H   0  0  0  0  0  0  0  0  0  0  0  0
   60.0992   31.9713   49.8371 H   0  0  0  0  0  0  0  0  0  0  0  0
   61.7464   31.1475   45.9235 H   0  0  0  0  0  0  0  0  0  0  0  0
   60.7955   28.8425   46.0036 H   0  0  0  0  0  0  0  0  0  0  0  0
  1  2  1  0
  2  3  1  0
  2  4  1  0
  2  5  1  0
  5  6  2  0
  6  7  1  0
  7  8  2  3
  8  9  1  0
  9 10  2  0
  9 11  1  0
 11 12  2  0
 12 13  1  0
 13 14  2  0
 14 15  1  0
 15 16  2  0
 16 17  1  0
 17 18  1  0
 18 19  2  0
 18 20  1  0
 20 21  2  0
 21 22  1  0
 22 23  2  0
 23 24  1  0
 23 25  1  0
 25 26  2  0
  7 27  1  0
 27 28  1  0
 28  5  1  0
 16 11  1  0
 26 20  1  0
  1 29  1  0
  1 30  1  0
  1 31  1  0
  3 32  1  0
  3 33  1  0
  3 34  1  0
  4 35  1  0
  4 36  1  0
  4 37  1  0
  6 38  1  0
 12 39  1  0
 13 40  1  0
 14 41  1  0
 15 42  1  0
 21 43  1  0
 22 44  1  0
 25 45  1  0
 26 46  1  0
M  CHG  2  17  -1  27  -1
M  END
>  <UniqueID>  (81) 
78

>  <SMILES>  (81) 
CC(C)(C)c1cc(=NC(=O)c2ccccc2[N-]C(=O)c2ccc(Br)cc2)[n-]o1

>  <Energy>  (81) 
90.85640234451678

>  <Genealogy>  (81) 
CC(C)(C)c1cc(=NC(=O)c2ccccc2[N-]C(=O)c2ccc(Br)cc2)[n-]o1 (protonated)
CC(C)(C)c1cc(=NC(=O)c2ccccc2[N-]C(=O)c2ccc(Br)cc2)[n-]o1 (3D coordinates assigned)
CC(C)(C)c1cc(=NC(=O)c2ccccc2[N-]C(=O)c2ccc(Br)cc2)[n-]o1 (optimized conformer: 90.85640234451678 kcal/mol)

>  <smiles>  (81) 
CC(C)(C)c1cc(=NC(=O)c2ccccc2NC(=O)c2ccc(Br)cc2)[nH]o1

>  <score_type>  (81) 
oracle

>  <origin>  (81) 
adg

>  <m_score__min__energy>  (81) 
-13.19

>  <m_primary>  (81) 
energy

$$$$
81:0
     RDKit          3D

 59 62  0  0  0  0  0  0  0  0999 V2000
   56.8320   30.4810   42.7030 O   0  0  0  0  0  0  0  0  0  0  0  0
   57.3390   30.2360   43.8320 C   0  0  0  0  0  0  0  0  0  0  0  0
   57.7980   31.3630   44.6760 C   0  0  0  0  0  0  0  0  0  0  0  0
   58.5640   31.1190   45.8280 C   0  0  0  0  0  0  0  0  0  0  0  0
   59.0030   32.1800   46.6250 C   0  0  0  0  0  0  0  0  0  0  0  0
   58.6680   33.5010   46.2910 C   0  0  0  0  0  0  0  0  0  0  0  0
   59.1490   34.6510   47.1340 C   0  0  0  0  0  0  0  0  0  0  0  0
   59.9880   34.1830   48.1900 O   0  0  0  0  0  0  0  0  0  0  0  0
   61.3550   33.8790   48.0800 C   0  0  0  0  0  0  0  0  0  0  0  0
   62.0120   33.8620   46.8330 C   0  0  0  0  0  0  0  0  0  0  0  0
   63.3610   33.5110   46.7450 C   0  0  0  0  0  0  0  0  0  0  0  0
   64.0720   33.1740   47.8960 C   0  0  0  0  0  0  0  0  0  0  0  0
   63.4390   33.1930   49.1390 C   0  0  0  0  0  0  0  0  0  0  0  0
   62.0860   33.5600   49.2490 C   0  0  0  0  0  0  0  0  0  0  0  0
   61.4550   33.5520   50.5920 C   0  0  0  0  0  0  0  0  0  0  0  0
   62.1680   33.8330   51.5960 O   0  0  0  0  0  0  0  0  0  0  0  0
   60.0420   33.2800   50.7660 N   0  0  0  0  0  0  0  0  0  0  0  0
   59.5960   33.7150   52.1070 C   0  0  0  0  0  0  0  0  0  0  0  0
   58.1320   33.2920   52.3690 C   0  0  0  0  0  0  0  0  0  0  0  0
   57.5510   32.6740   51.2360 O   0  0  0  0  0  0  0  0  0  0  0  0
   58.2870   31.5150   50.8940 C   0  0  0  0  0  0  0  0  0  0  0  0
   59.7630   31.8420   50.5750 C   0  0  0  0  0  0  0  0  0  0  0  0
   57.8930   33.7470   45.1480 C   0  0  0  0  0  0  0  0  0  0  0  0
   57.4550   32.6860   44.3500 C   0  0  0  0  0  0  0  0  0  0  0  0
   57.4770   28.8690   44.2620 N   0  0  0  0  0  0  0  0  0  0  0  0
   57.7770   27.8350   43.2600 C   0  0  0  0  0  0  0  0  0  0  0  0
   57.8260   26.4340   43.8860 C   0  0  0  0  0  0  0  0  0  0  0  0
   58.6310   26.4620   45.1880 C   0  0  0  0  0  0  0  0  0  0  0  0
   58.0640   27.4630   46.2190 C   0  0  0  0  0  0  0  0  0  0  0  0
   57.0700   28.4730   45.6190 C   0  0  0  0  0  0  0  0  0  0  0  0
   58.8201   30.0857   46.1048 H   0  0  0  0  0  0  0  0  0  0  0  0
   59.6135   31.9786   47.5176 H   0  0  0  0  0  0  0  0  0  0  0  0
   59.7180   35.3491   46.5024 H   0  0  0  0  0  0  0  0  0  0  0  0
   58.2771   35.1588   47.5721 H   0  0  0  0  0  0  0  0  0  0  0  0
   61.4573   34.1276   45.9210 H   0  0  0  0  0  0  0  0  0  0  0  0
   63.8631   33.5004   45.7663 H   0  0  0  0  0  0  0  0  0  0  0  0
   65.1330   32.8929   47.8239 H   0  0  0  0  0  0  0  0  0  0  0  0
   64.0038   32.9182   50.0420 H   0  0  0  0  0  0  0  0  0  0  0  0
   59.4920   33.8280   50.0620 H   0  0  0  0  0  0  0  0  0  0  0  0
   60.2445   33.2564   52.8680 H   0  0  0  0  0  0  0  0  0  0  0  0
   59.6580   34.8121   52.1579 H   0  0  0  0  0  0  0  0  0  0  0  0
   58.1115   32.5836   53.2103 H   0  0  0  0  0  0  0  0  0  0  0  0
   57.5512   34.1974   52.5991 H   0  0  0  0  0  0  0  0  0  0  0  0
   58.2534   30.8106   51.7382 H   0  0  0  0  0  0  0  0  0  0  0  0
   57.8329   31.0768   49.9930 H   0  0  0  0  0  0  0  0  0  0  0  0
   60.4129   31.2580   51.2432 H   0  0  0  0  0  0  0  0  0  0  0  0
   59.9587   31.5846   49.5236 H   0  0  0  0  0  0  0  0  0  0  0  0
   57.6285   34.7801   44.8782 H   0  0  0  0  0  0  0  0  0  0  0  0
   56.8383   32.8881   43.4618 H   0  0  0  0  0  0  0  0  0  0  0  0
   56.9961   27.8521   42.4854 H   0  0  0  0  0  0  0  0  0  0  0  0
   58.7653   28.0523   42.8287 H   0  0  0  0  0  0  0  0  0  0  0  0
   56.8013   26.0961   44.1000 H   0  0  0  0  0  0  0  0  0  0  0  0
   58.3107   25.7433   43.1803 H   0  0  0  0  0  0  0  0  0  0  0  0
   58.6181   25.4553   45.6312 H   0  0  0  0  0  0  0  0  0  0  0  0
   59.6529   26.7845   44.9395 H   0  0  0  0  0  0  0  0  0  0  0  0
   57.5485   26.8949   47.0073 H   0  0  0  0  0  0  0  0  0  0  0  0
   58.9153   28.0416   46.6069 H   0  0  0  0  0  0  0  0  0  0  0  0
   56.0717   28.0131   45.5755 H   0  0  0  0  0  0  0  0  0  0  0  0
   57.0532   29.3696   46.2560 H   0  0  0  0  0  0  0  0  0  0  0  0
  1  2  2  0
  2  3  1  0
  3  4  2  0
  4  5  1  0
  5  6  2  0
  6  7  1  0
  7  8  1  0
  8  9  1  0
  9 10  2  0
 10 11  1  0
 11 12  2  0
 12 13  1  0
 13 14  2  0
 14 15  1  0
 15 16  2  0
 15 17  1  0
 17 18  1  0
 18 19  1  0
 19 20  1  0
 20 21  1  0
 21 22  1  0
  6 23  1  0
 23 24  2  0
  2 25  1  0
 25 26  1  0
 26 27  1  0
 27 28  1  0
 28 29  1  0
 29 30  1  0
 24  3  1  0
 30 25  1  0
 14  9  1  0
 22 17  1  0
  4 31  1  0
  5 32  1  0
  7 33  1  0
  7 34  1  0
 10 35  1  0
 11 36  1  0
 12 37  1  0
 13 38  1  0
 17 39  1  0
 18 40  1  0
 18 41  1  0
 19 42  1  0
 19 43  1  0
 21 44  1  0
 21 45  1  0
 22 46  1  0
 22 47  1  0
 23 48  1  0
 24 49  1  0
 26 50  1  0
 26 51  1  0
 27 52  1  0
 27 53  1  0
 28 54  1  0
 28 55  1  0
 29 56  1  0
 29 57  1  0
 30 58  1  0
 30 59  1  0
M  CHG  1  17   1
M  END
>  <UniqueID>  (82) 
79

>  <SMILES>  (82) 
O=C(c1ccc(COc2ccccc2C(=O)[NH+]2CCOCC2)cc1)N1CCCCC1

>  <Energy>  (82) 
81.94899728172506

>  <Genealogy>  (82) 
O=C(c1ccc(COc2ccccc2C(=O)[NH+]2CCOCC2)cc1)N1CCCCC1 (protonated)
O=C(c1ccc(COc2ccccc2C(=O)[NH+]2CCOCC2)cc1)N1CCCCC1 (3D coordinates assigned)
O=C(c1ccc(COc2ccccc2C(=O)[NH+]2CCOCC2)cc1)N1CCCCC1 (nonaromatic ring conformer: 81.94899728172506 kcal/mol)

>  <smiles>  (82) 
O=C(c1ccc(COc2ccccc2C(=O)N2CCOCC2)cc1)N1CCCCC1

>  <score_type>  (82) 
oracle

>  <origin>  (82) 
adg

>  <m_score__min__energy>  (82) 
-8.0700000000000003

>  <m_primary>  (82) 
energy

$$$$
82:0
     RDKit          3D

 55 58  0  0  0  0  0  0  0  0999 V2000
   59.3970   27.7690   48.5460 H   0  0  0  0  0  0  0  0  0  0  0  0
   60.1340   27.0500   48.3740 N   0  0  0  0  0  0  0  0  0  0  0  0
   60.2980   26.9050   46.6570 S   0  0  0  0  0  0  0  0  0  0  0  0
   61.5110   26.0540   46.3850 O   0  0  0  0  0  0  0  0  0  0  0  0
   60.4810   28.2560   46.0160 O   0  0  0  0  0  0  0  0  0  0  0  0
   58.8670   26.0850   45.9750 C   0  0  0  0  0  0  0  0  0  0  0  0
   58.9900   24.7190   45.6290 C   0  0  0  0  0  0  0  0  0  0  0  0
   59.9546   24.2087   45.7675 H   0  0  0  0  0  0  0  0  0  0  0  0
   57.9030   24.0100   45.1140 C   0  0  0  0  0  0  0  0  0  0  0  0
   58.0166   22.9502   44.8422 H   0  0  0  0  0  0  0  0  0  0  0  0
   56.6720   24.6460   44.9440 C   0  0  0  0  0  0  0  0  0  0  0  0
   55.8136   24.0827   44.5491 H   0  0  0  0  0  0  0  0  0  0  0  0
   56.5270   25.9960   45.2740 C   0  0  0  0  0  0  0  0  0  0  0  0
   55.5521   26.4866   45.1369 H   0  0  0  0  0  0  0  0  0  0  0  0
   57.6130   26.7370   45.7800 C   0  0  0  0  0  0  0  0  0  0  0  0
   57.3840   28.1770   46.0520 C   0  0  0  0  0  0  0  0  0  0  0  0
   57.9810   28.7270   47.0220 O   0  0  0  0  0  0  0  0  0  0  0  0
   56.5000   28.9500   45.2330 N   0  0  0  0  0  0  0  0  0  0  0  0
   56.8680   30.0040   44.5530 C   0  0  0  0  0  0  0  0  0  0  0  0
   57.3180   31.1340   45.1850 N   0  0  0  0  0  0  0  0  0  0  0  0
   57.5630   32.2900   44.4890 C   0  0  0  0  0  0  0  0  0  0  0  0
   57.9470   33.4550   45.1640 O   0  0  0  0  0  0  0  0  0  0  0  0
   58.8600   33.4280   46.2280 C   0  0  0  0  0  0  0  0  0  0  0  0
   59.1730   34.6190   46.9030 C   0  0  0  0  0  0  0  0  0  0  0  0
   58.7464   35.5739   46.5622 H   0  0  0  0  0  0  0  0  0  0  0  0
   60.0270   34.5890   48.0080 C   0  0  0  0  0  0  0  0  0  0  0  0
   60.2513   35.5181   48.5525 H   0  0  0  0  0  0  0  0  0  0  0  0
   60.5970   33.3840   48.4240 C   0  0  0  0  0  0  0  0  0  0  0  0
   61.2409   33.3655   49.3157 H   0  0  0  0  0  0  0  0  0  0  0  0
   60.3550   32.1880   47.7110 C   0  0  0  0  0  0  0  0  0  0  0  0
   61.0050   30.9280   48.1620 C   0  0  0  0  0  0  0  0  0  0  0  0
   62.2560   30.8110   47.9630 O   0  0  0  0  0  0  0  0  0  0  0  0
   60.2290   29.8340   48.7570 N   0  0  0  0  0  0  0  0  0  0  0  0
   60.0970   29.0830   48.0150 H   0  0  0  0  0  0  0  0  0  0  0  0
   60.9670   29.1770   49.8710 C   0  0  0  0  0  0  0  0  0  0  0  0
   60.6237   28.1353   49.9546 H   0  0  0  0  0  0  0  0  0  0  0  0
   62.0405   29.2338   49.6377 H   0  0  0  0  0  0  0  0  0  0  0  0
   60.7450   29.8850   51.2370 C   0  0  0  0  0  0  0  0  0  0  0  0
   60.0086   29.3116   51.8193 H   0  0  0  0  0  0  0  0  0  0  0  0
   61.7126   29.9319   51.7580 H   0  0  0  0  0  0  0  0  0  0  0  0
   60.2690   31.2100   51.0740 O   0  0  0  0  0  0  0  0  0  0  0  0
   58.9790   31.1950   50.4730 C   0  0  0  0  0  0  0  0  0  0  0  0
   58.2524   30.8369   51.2172 H   0  0  0  0  0  0  0  0  0  0  0  0
   58.7648   32.2216   50.1411 H   0  0  0  0  0  0  0  0  0  0  0  0
   58.8900   30.2850   49.2240 C   0  0  0  0  0  0  0  0  0  0  0  0
   58.2859   29.4002   49.4733 H   0  0  0  0  0  0  0  0  0  0  0  0
   58.4305   30.8700   48.4136 H   0  0  0  0  0  0  0  0  0  0  0  0
   59.4770   32.2240   46.6130 C   0  0  0  0  0  0  0  0  0  0  0  0
   59.2708   31.3018   46.0499 H   0  0  0  0  0  0  0  0  0  0  0  0
   57.3950   32.3100   43.0980 C   0  0  0  0  0  0  0  0  0  0  0  0
   57.5199   33.2491   42.5389 H   0  0  0  0  0  0  0  0  0  0  0  0
   57.0690   31.1340   42.4280 C   0  0  0  0  0  0  0  0  0  0  0  0
   57.0335   31.1172   41.3287 H   0  0  0  0  0  0  0  0  0  0  0  0
   56.7870   29.9750   43.1560 C   0  0  0  0  0  0  0  0  0  0  0  0
   56.4770   28.8260   42.5090 F   0  0  0  0  0  0  0  0  0  0  0  0
  1  2  1  0
  2  3  1  0
  3  4  2  0
  3  5  2  0
  3  6  1  0
  6  7  2  0
  7  8  1  0
  7  9  1  0
  9 10  1  0
  9 11  2  0
 11 12  1  0
 11 13  1  0
 13 14  1  0
 13 15  2  0
 15 16  1  0
 16 17  2  0
 16 18  1  0
 18 19  2  0
 19 20  1  0
 20 21  1  0
 21 22  1  0
 22 23  1  0
 23 24  2  0
 24 25  1  0
 24 26  1  0
 26 27  1  0
 26 28  2  0
 28 29  1  0
 28 30  1  0
 30 31  1  0
 31 32  2  0
 31 33  1  0
 33 34  1  0
 33 35  1  0
 35 36  1  0
 35 37  1  0
 35 38  1  0
 38 39  1  0
 38 40  1  0
 38 41  1  0
 41 42  1  0
 42 43  1  0
 42 44  1  0
 42 45  1  0
 45 46  1  0
 45 47  1  0
 30 48  2  0
 48 49  1  0
 21 50  2  0
 50 51  1  0
 50 52  1  0
 52 53  1  0
 52 54  2  0
 54 55  1  0
 15  6  1  0
 54 19  1  0
 48 23  1  0
 45 33  1  0
M  CHG  3   2  -1  20  -1  33   1
M  END
>  <UniqueID>  (83) 
80

>  <SMILES>  (83) 
[NH-]S(=O)(=O)c1ccccc1C(=O)/N=c1\[n-]c(Oc2cccc(C(=O)[NH+]3CCOCC3)c2)ccc1F

>  <Energy>  (83) 
98.59749056640615

>  <Genealogy>  (83) 
[NH-]S(=O)(=O)c1ccccc1C(=O)N=c1[n-]c(Oc2cccc(C(=O)[NH+]3CCOCC3)c2)ccc1F (protonated)
[NH-]S(=O)(=O)c1ccccc1C(=O)/N=c1\[n-]c(Oc2cccc(C(=O)[NH+]3CCOCC3)c2)ccc1F (cis-trans isomerization)
[NH-]S(=O)(=O)c1ccccc1C(=O)/N=c1\[n-]c(Oc2cccc(C(=O)[NH+]3CCOCC3)c2)ccc1F (3D coordinates assigned)
[NH-]S(=O)(=O)c1ccccc1C(=O)/N=c1\[n-]c(Oc2cccc(C(=O)[NH+]3CCOCC3)c2)ccc1F (nonaromatic ring conformer: 98.59749056640615 kcal/mol)

>  <smiles>  (83) 
NS(=O)(=O)c1ccccc1C(=O)N=c1[nH]c(Oc2cccc(C(=O)N3CCOCC3)c2)ccc1F

>  <score_type>  (83) 
oracle

>  <origin>  (83) 
adg

>  <m_score__min__energy>  (83) 
-13.51

>  <m_primary>  (83) 
energy

$$$$
83:0
     RDKit          3D

 62 65  0  0  0  0  0  0  0  0999 V2000
   61.3230   30.7230   47.2380 C   0  0  0  0  0  0  0  0  0  0  0  0
   60.6480   29.6910   47.7260 C   0  0  0  0  0  0  0  0  0  0  0  0
   59.8110   28.8300   46.8800 C   0  0  0  0  0  0  0  0  0  0  0  0
   58.4980   29.0410   46.6360 N   0  0  0  0  0  0  0  0  0  0  0  0
   57.9670   28.0660   45.8470 C   0  0  0  0  0  0  0  0  0  0  0  0
   56.5400   28.0540   45.4940 C   0  0  0  0  0  0  0  0  0  0  0  0
   55.8320   27.0570   45.7860 O   0  0  0  0  0  0  0  0  0  0  0  0
   55.9270   29.1870   44.8680 N   0  0  0  0  0  0  0  0  0  0  0  0
   56.6690   30.2870   44.3420 C   0  0  0  0  0  0  0  0  0  0  0  0
   57.0320   31.4120   45.0490 C   0  0  0  0  0  0  0  0  0  0  0  0
   57.5950   32.2710   44.1230 C   0  0  0  0  0  0  0  0  0  0  0  0
   58.1380   33.6030   44.4670 C   0  0  0  0  0  0  0  0  0  0  0  0
   57.3530   34.5880   44.5020 O   0  0  0  0  0  0  0  0  0  0  0  0
   59.5260   33.8190   44.7570 N   0  0  0  0  0  0  0  0  0  0  0  0
   60.1010   33.9510   46.0630 C   0  0  0  0  0  0  0  0  0  0  0  0
   59.4270   33.9690   47.2690 C   0  0  0  0  0  0  0  0  0  0  0  0
   60.4130   33.8750   48.2370 C   0  0  0  0  0  0  0  0  0  0  0  0
   60.1340   33.6980   49.6710 C   0  0  0  0  0  0  0  0  0  0  0  0
   60.9190   34.1950   50.5230 O   0  0  0  0  0  0  0  0  0  0  0  0
   58.9450   33.0310   50.0890 N   0  0  0  0  0  0  0  0  0  0  0  0
   58.5110   31.7490   49.5410 C   0  0  0  0  0  0  0  0  0  0  0  0
   58.7610   30.6240   50.5710 C   0  0  0  0  0  0  0  0  0  0  0  0
   57.5520   30.1630   51.2860 N   0  0  0  0  0  0  0  0  0  0  0  0
   57.8450   29.3280   52.4630 C   0  0  0  0  0  0  0  0  0  0  0  0
   56.5320   28.8650   53.1320 C   0  0  0  0  0  0  0  0  0  0  0  0
   55.3950   29.2280   52.3650 O   0  0  0  0  0  0  0  0  0  0  0  0
   55.3250   30.6390   52.2540 C   0  0  0  0  0  0  0  0  0  0  0  0
   56.5890   31.2350   51.5970 C   0  0  0  0  0  0  0  0  0  0  0  0
   61.6390   33.8480   47.6620 N   0  0  0  0  0  0  0  0  0  0  0  0
   62.9270   33.6420   48.3150 C   0  0  0  0  0  0  0  0  0  0  0  0
   61.4500   33.8970   46.3290 C   0  0  0  0  0  0  0  0  0  0  0  0
   57.5290   31.7260   42.8810 N   0  0  0  0  0  0  0  0  0  0  0  0
   57.8310   32.3510   41.5960 C   0  0  0  0  0  0  0  0  0  0  0  0
   56.9820   30.5020   43.0150 C   0  0  0  0  0  0  0  0  0  0  0  0
   58.8560   27.0640   45.4660 C   0  0  0  0  0  0  0  0  0  0  0  0
   60.3560   27.4260   46.1360 S   0  0  0  0  0  0  0  0  0  0  0  0
   61.9387   31.3431   47.9062 H   0  0  0  0  0  0  0  0  0  0  0  0
   61.2672   30.9589   46.1650 H   0  0  0  0  0  0  0  0  0  0  0  0
   60.7173   29.4722   48.8018 H   0  0  0  0  0  0  0  0  0  0  0  0
   56.9012   31.5902   46.1266 H   0  0  0  0  0  0  0  0  0  0  0  0
   58.3408   34.0422   47.4264 H   0  0  0  0  0  0  0  0  0  0  0  0
   57.4372   31.7972   49.3072 H   0  0  0  0  0  0  0  0  0  0  0  0
   59.0821   31.5349   48.6256 H   0  0  0  0  0  0  0  0  0  0  0  0
   59.1946   29.7635   50.0404 H   0  0  0  0  0  0  0  0  0  0  0  0
   59.4326   31.0442   51.3341 H   0  0  0  0  0  0  0  0  0  0  0  0
   58.4222   28.4463   52.1478 H   0  0  0  0  0  0  0  0  0  0  0  0
   58.4257   29.9197   53.1860 H   0  0  0  0  0  0  0  0  0  0  0  0
   56.5540   27.7706   53.2405 H   0  0  0  0  0  0  0  0  0  0  0  0
   56.4551   29.3573   54.1127 H   0  0  0  0  0  0  0  0  0  0  0  0
   54.4496   30.9034   51.6426 H   0  0  0  0  0  0  0  0  0  0  0  0
   55.2439   31.0544   53.2693 H   0  0  0  0  0  0  0  0  0  0  0  0
   56.3069   31.7514   50.6676 H   0  0  0  0  0  0  0  0  0  0  0  0
   57.0554   31.9467   52.2940 H   0  0  0  0  0  0  0  0  0  0  0  0
   62.7923   33.6635   49.4065 H   0  0  0  0  0  0  0  0  0  0  0  0
   63.3381   32.6667   48.0155 H   0  0  0  0  0  0  0  0  0  0  0  0
   63.6218   34.4404   48.0155 H   0  0  0  0  0  0  0  0  0  0  0  0
   62.2484   33.8943   45.5723 H   0  0  0  0  0  0  0  0  0  0  0  0
   58.3038   33.3295   41.7663 H   0  0  0  0  0  0  0  0  0  0  0  0
   58.5170   31.7064   41.0269 H   0  0  0  0  0  0  0  0  0  0  0  0
   56.8996   32.4879   41.0269 H   0  0  0  0  0  0  0  0  0  0  0  0
   56.8118   29.7872   42.1964 H   0  0  0  0  0  0  0  0  0  0  0  0
   58.6196   26.1917   44.8390 H   0  0  0  0  0  0  0  0  0  0  0  0
  1  2  2  0
  2  3  1  0
  3  4  2  0
  4  5  1  0
  5  6  1  0
  6  7  2  0
  6  8  1  0
  8  9  1  0
  9 10  1  0
 10 11  2  0
 11 12  1  0
 12 13  2  0
 12 14  1  0
 14 15  1  0
 15 16  1  0
 16 17  2  0
 17 18  1  0
 18 19  2  0
 18 20  1  0
 20 21  1  0
 21 22  1  0
 22 23  1  0
 23 24  1  0
 24 25  1  0
 25 26  1  0
 26 27  1  0
 27 28  1  0
 17 29  1  0
 29 30  1  0
 29 31  1  0
 11 32  1  0
 32 33  1  0
 32 34  1  0
  5 35  2  0
 35 36  1  0
 36  3  1  0
 34  9  2  0
 31 15  2  0
 28 23  1  0
  1 37  1  0
  1 38  1  0
  2 39  1  0
 10 40  1  0
 16 41  1  0
 21 42  1  0
 21 43  1  0
 22 44  1  0
 22 45  1  0
 24 46  1  0
 24 47  1  0
 25 48  1  0
 25 49  1  0
 27 50  1  0
 27 51  1  0
 28 52  1  0
 28 53  1  0
 30 54  1  0
 30 55  1  0
 30 56  1  0
 31 57  1  0
 33 58  1  0
 33 59  1  0
 33 60  1  0
 34 61  1  0
 35 62  1  0
M  CHG  3   8  -1  14  -1  20  -1
M  END
>  <UniqueID>  (84) 
81

>  <SMILES>  (84) 
C=Cc1nc(C(=O)[N-]c2cc(C(=O)[N-]c3cc(C(=O)[N-]CCN4CCOCC4)n(C)c3)n(C)c2)cs1

>  <Energy>  (84) 
167.02545923675987

>  <Genealogy>  (84) 
C=Cc1nc(C(=O)[N-]c2cc(C(=O)[N-]c3cc(C(=O)[N-]CCN4CCOCC4)n(C)c3)n(C)c2)cs1 (protonated)
C=Cc1nc(C(=O)[N-]c2cc(C(=O)[N-]c3cc(C(=O)[N-]CCN4CCOCC4)n(C)c3)n(C)c2)cs1 (3D coordinates assigned)
C=Cc1nc(C(=O)[N-]c2cc(C(=O)[N-]c3cc(C(=O)[N-]CCN4CCOCC4)n(C)c3)n(C)c2)cs1 (nonaromatic ring conformer: 167.02545923675987 kcal/mol)

>  <smiles>  (84) 
C=Cc1nc(C(=O)Nc2cc(C(=O)Nc3cc(C(=O)NCCN4CCOCC4)n(C)c3)n(C)c2)cs1

>  <score_type>  (84) 
oracle

>  <origin>  (84) 
adg

>  <m_score__min__energy>  (84) 
-13.789999999999999

>  <m_primary>  (84) 
energy

$$$$
84:0
     RDKit          3D

 48 50  0  0  0  0  0  0  0  0999 V2000
   55.0270   22.8570   48.1490 C   0  0  0  0  0  0  0  0  0  0  0  0
   53.9610   22.7130   47.3630 C   0  0  0  0  0  0  0  0  0  0  0  0
   53.7910   23.4630   46.1100 C   0  0  0  0  0  0  0  0  0  0  0  0
   52.9630   23.0500   45.2560 O   0  0  0  0  0  0  0  0  0  0  0  0
   54.5580   24.6460   45.8570 N   0  0  0  0  0  0  0  0  0  0  0  0
   55.6390   24.7210   44.8810 C   0  0  0  0  0  0  0  0  0  0  0  0
   56.6520   25.7560   45.2950 C   0  0  0  0  0  0  0  0  0  0  0  0
   57.7840   25.9840   44.5050 C   0  0  0  0  0  0  0  0  0  0  0  0
   58.7380   26.9280   44.8950 C   0  0  0  0  0  0  0  0  0  0  0  0
   58.5830   27.6640   46.0860 C   0  0  0  0  0  0  0  0  0  0  0  0
   59.6140   28.6710   46.4650 C   0  0  0  0  0  0  0  0  0  0  0  0
   60.8020   28.2860   46.6500 O   0  0  0  0  0  0  0  0  0  0  0  0
   59.2960   30.0690   46.6130 N   0  0  0  0  0  0  0  0  0  0  0  0
   60.3090   31.0560   46.8600 C   0  0  0  0  0  0  0  0  0  0  0  0
   61.5240   30.6690   47.4420 C   0  0  0  0  0  0  0  0  0  0  0  0
   62.5000   31.6180   47.7470 C   0  0  0  0  0  0  0  0  0  0  0  0
   62.2720   32.9670   47.4800 C   0  0  0  0  0  0  0  0  0  0  0  0
   63.5010   34.1590   47.8630 Cl  0  0  0  0  0  0  0  0  0  0  0  0
   61.0670   33.3680   46.9060 C   0  0  0  0  0  0  0  0  0  0  0  0
   60.0700   32.4250   46.5920 C   0  0  0  0  0  0  0  0  0  0  0  0
   58.8150   32.8830   45.9400 C   0  0  0  0  0  0  0  0  0  0  0  0
   58.7280   34.0630   45.5080 O   0  0  0  0  0  0  0  0  0  0  0  0
   57.6470   32.0490   45.8980 N   0  0  0  0  0  0  0  0  0  0  0  0
   57.2320   31.3290   44.8930 C   0  0  0  0  0  0  0  0  0  0  0  0
   57.4080   31.7240   43.5500 C   0  0  0  0  0  0  0  0  0  0  0  0
   56.9220   30.9060   42.5260 C   0  0  0  0  0  0  0  0  0  0  0  0
   56.2640   29.7160   42.8360 C   0  0  0  0  0  0  0  0  0  0  0  0
   56.0940   29.3600   44.1740 C   0  0  0  0  0  0  0  0  0  0  0  0
   56.5710   30.1680   45.1580 N   0  0  0  0  0  0  0  0  0  0  0  0
   57.4330   27.4360   46.8710 C   0  0  0  0  0  0  0  0  0  0  0  0
   56.4840   26.4850   46.4830 C   0  0  0  0  0  0  0  0  0  0  0  0
   55.1087   22.2729   49.0775 H   0  0  0  0  0  0  0  0  0  0  0  0
   55.8255   23.5600   47.8695 H   0  0  0  0  0  0  0  0  0  0  0  0
   53.1758   22.0038   47.6639 H   0  0  0  0  0  0  0  0  0  0  0  0
   56.1317   23.7401   44.8103 H   0  0  0  0  0  0  0  0  0  0  0  0
   55.2184   25.0050   43.9051 H   0  0  0  0  0  0  0  0  0  0  0  0
   57.9238   25.4176   43.5725 H   0  0  0  0  0  0  0  0  0  0  0  0
   59.6221   27.0986   44.2631 H   0  0  0  0  0  0  0  0  0  0  0  0
   58.3230   30.4150   46.4850 H   0  0  0  0  0  0  0  0  0  0  0  0
   61.7097   29.6070   47.6603 H   0  0  0  0  0  0  0  0  0  0  0  0
   63.4514   31.3011   48.1991 H   0  0  0  0  0  0  0  0  0  0  0  0
   60.8929   34.4336   46.6959 H   0  0  0  0  0  0  0  0  0  0  0  0
   57.9226   32.6664   43.3111 H   0  0  0  0  0  0  0  0  0  0  0  0
   57.0586   31.2010   41.4751 H   0  0  0  0  0  0  0  0  0  0  0  0
   55.8835   29.0656   42.0346 H   0  0  0  0  0  0  0  0  0  0  0  0
   55.5742   28.4258   44.4329 H   0  0  0  0  0  0  0  0  0  0  0  0
   57.2816   28.0113   47.7963 H   0  0  0  0  0  0  0  0  0  0  0  0
   55.5999   26.3069   47.1129 H   0  0  0  0  0  0  0  0  0  0  0  0
  1  2  2  0
  2  3  1  0
  3  4  2  0
  3  5  1  0
  5  6  1  0
  6  7  1  0
  7  8  2  0
  8  9  1  0
  9 10  2  0
 10 11  1  0
 11 12  2  0
 11 13  1  0
 13 14  1  0
 14 15  2  0
 15 16  1  0
 16 17  2  0
 17 18  1  0
 17 19  1  0
 19 20  2  0
 20 21  1  0
 21 22  2  0
 21 23  1  0
 23 24  2  3
 24 25  1  0
 25 26  2  0
 26 27  1  0
 27 28  2  0
 28 29  1  0
 10 30  1  0
 30 31  2  0
 31  7  1  0
 20 14  1  0
 29 24  1  0
  1 32  1  0
  1 33  1  0
  2 34  1  0
  6 35  1  0
  6 36  1  0
  8 37  1  0
  9 38  1  0
 13 39  1  0
 15 40  1  0
 16 41  1  0
 19 42  1  0
 25 43  1  0
 26 44  1  0
 27 45  1  0
 28 46  1  0
 30 47  1  0
 31 48  1  0
M  CHG  2   5  -1  29  -1
M  END
>  <UniqueID>  (85) 
82

>  <SMILES>  (85) 
C=CC(=O)[N-]Cc1ccc(C(=O)Nc2ccc(Cl)cc2C(=O)N=c2cccc[n-]2)cc1

>  <Energy>  (85) 
66.99746015446968

>  <Genealogy>  (85) 
C=CC(=O)[N-]Cc1ccc(C(=O)Nc2ccc(Cl)cc2C(=O)N=c2cccc[n-]2)cc1 (protonated)
C=CC(=O)[N-]Cc1ccc(C(=O)Nc2ccc(Cl)cc2C(=O)N=c2cccc[n-]2)cc1 (3D coordinates assigned)
C=CC(=O)[N-]Cc1ccc(C(=O)Nc2ccc(Cl)cc2C(=O)N=c2cccc[n-]2)cc1 (optimized conformer: 66.99746015446968 kcal/mol)

>  <smiles>  (85) 
C=CC(=O)NCc1ccc(C(=O)Nc2ccc(Cl)cc2C(=O)N=c2cccc[nH]2)cc1

>  <score_type>  (85) 
oracle

>  <origin>  (85) 
adg

>  <m_score__min__energy>  (85) 
-11.640000000000001

>  <m_primary>  (85) 
energy

$$$$
85:0
     RDKit          3D

 26 26  0  0  0  0  0  0  0  0999 V2000
   54.3540   28.9270   44.5050 H   0  0  0  0  0  0  0  0  0  0  0  0
   55.1750   29.4110   44.8430 O   0  0  0  0  0  0  0  0  0  0  0  0
   55.6820   30.4790   44.1400 N   0  0  0  0  0  0  0  0  0  0  0  0
   56.9410   30.5450   43.8580 C   0  0  0  0  0  0  0  0  0  0  0  0
   57.2651   30.3793   42.8200 H   0  0  0  0  0  0  0  0  0  0  0  0
   57.9630   30.8380   44.8940 C   0  0  0  0  0  0  0  0  0  0  0  0
   58.8020   29.9330   45.4660 N   0  0  0  0  0  0  0  0  0  0  0  0
   58.9010   28.4850   45.2630 C   0  0  0  0  0  0  0  0  0  0  0  0
   58.4632   28.2258   44.2877 H   0  0  0  0  0  0  0  0  0  0  0  0
   58.3567   27.9752   46.0716 H   0  0  0  0  0  0  0  0  0  0  0  0
   60.3590   28.0380   45.2930 C   0  0  0  0  0  0  0  0  0  0  0  0
   60.6900   27.9365   46.3371 H   0  0  0  0  0  0  0  0  0  0  0  0
   60.4560   27.0689   44.7818 H   0  0  0  0  0  0  0  0  0  0  0  0
   60.9825   28.7862   44.7818 H   0  0  0  0  0  0  0  0  0  0  0  0
   59.5100   30.6230   46.3840 C   0  0  0  0  0  0  0  0  0  0  0  0
   60.2791   30.2020   47.0482 H   0  0  0  0  0  0  0  0  0  0  0  0
   59.1120   31.9400   46.3530 C   0  0  0  0  0  0  0  0  0  0  0  0
   59.5096   32.7469   46.9862 H   0  0  0  0  0  0  0  0  0  0  0  0
   58.1540   32.0740   45.4170 N   0  0  0  0  0  0  0  0  0  0  0  0
   57.4260   33.3120   45.1240 C   0  0  0  0  0  0  0  0  0  0  0  0
   56.9115   33.2094   44.1572 H   0  0  0  0  0  0  0  0  0  0  0  0
   56.6942   33.4930   45.9251 H   0  0  0  0  0  0  0  0  0  0  0  0
   58.3870   34.4920   45.0580 C   0  0  0  0  0  0  0  0  0  0  0  0
   58.6467   34.8109   46.0782 H   0  0  0  0  0  0  0  0  0  0  0  0
   59.3006   34.1915   44.5241 H   0  0  0  0  0  0  0  0  0  0  0  0
   57.9077   35.3258   44.5241 H   0  0  0  0  0  0  0  0  0  0  0  0
  1  2  1  0
  2  3  1  0
  3  4  2  0
  4  5  1  0
  4  6  1  0
  6  7  1  0
  7  8  1  0
  8  9  1  0
  8 10  1  0
  8 11  1  0
 11 12  1  0
 11 13  1  0
 11 14  1  0
  7 15  1  0
 15 16  1  0
 15 17  2  0
 17 18  1  0
 17 19  1  0
 19 20  1  0
 20 21  1  0
 20 22  1  0
 20 23  1  0
 23 24  1  0
 23 25  1  0
 23 26  1  0
 19  6  2  0
M  CHG  1  19   1
M  END
>  <UniqueID>  (86) 
83

>  <SMILES>  (86) 
CCn1cc[n+](CC)c1/C=N/O

>  <Energy>  (86) 
48.368865253939646

>  <Genealogy>  (86) 
CCn1cc[n+](CC)c1/C=N/O (cis-trans isomerization)
CCn1cc[n+](CC)c1/C=N/O (3D coordinates assigned)
CCn1cc[n+](CC)c1/C=N/O (optimized conformer: 48.368865253939646 kcal/mol)

>  <smiles>  (86) 
CCn1cc[n+](CC)c1C=NO

>  <score_type>  (86) 
oracle

>  <origin>  (86) 
adg

>  <m_score__min__energy>  (86) 
-4.0899999999999999

>  <m_primary>  (86) 
energy

$$$$
86:0
     RDKit          3D

 53 55  0  0  0  0  0  0  0  0999 V2000
   57.8470   32.3500   41.1310 C   0  0  0  0  0  0  0  0  0  0  0  0
   57.2960   31.9420   42.3800 O   0  0  0  0  0  0  0  0  0  0  0  0
   57.7420   32.3940   43.6310 C   0  0  0  0  0  0  0  0  0  0  0  0
   58.6890   33.4260   43.7590 C   0  0  0  0  0  0  0  0  0  0  0  0
   59.1040   33.8550   45.0200 C   0  0  0  0  0  0  0  0  0  0  0  0
   58.5890   33.2560   46.1790 C   0  0  0  0  0  0  0  0  0  0  0  0
   58.9890   33.7150   47.5280 C   0  0  0  0  0  0  0  0  0  0  0  0
   58.9400   34.9480   47.7960 O   0  0  0  0  0  0  0  0  0  0  0  0
   59.5100   32.7970   48.5030 N   0  0  0  0  0  0  0  0  0  0  0  0
   60.5630   33.2020   49.4370 C   0  0  0  0  0  0  0  0  0  0  0  0
   61.8090   32.3190   49.2740 C   0  0  0  0  0  0  0  0  0  0  0  0
   61.4620   30.8540   49.2980 C   0  0  0  0  0  0  0  0  0  0  0  0
   61.6970   30.0810   50.4450 C   0  0  0  0  0  0  0  0  0  0  0  0
   61.2650   28.7550   50.4760 C   0  0  0  0  0  0  0  0  0  0  0  0
   61.4570   28.0540   51.5060 O   0  0  0  0  0  0  0  0  0  0  0  0
   60.6080   28.2090   49.3720 C   0  0  0  0  0  0  0  0  0  0  0  0
   60.3890   29.0040   48.2320 C   0  0  0  0  0  0  0  0  0  0  0  0
   59.6310   28.4960   47.0600 C   0  0  0  0  0  0  0  0  0  0  0  0
   59.8610   29.0500   45.7880 C   0  0  0  0  0  0  0  0  0  0  0  0
   59.1290   28.6150   44.6800 C   0  0  0  0  0  0  0  0  0  0  0  0
   58.1630   27.6200   44.8240 C   0  0  0  0  0  0  0  0  0  0  0  0
   57.9350   27.0390   46.0780 C   0  0  0  0  0  0  0  0  0  0  0  0
   56.7030   25.7960   46.2620 S   0  0  0  0  0  0  0  0  0  0  0  0
   55.1450   26.4810   45.9630 N   0  0  0  0  0  0  0  0  0  0  0  0
   56.9550   24.6790   45.2880 O   0  0  0  0  0  0  0  0  0  0  0  0
   56.7450   25.2360   47.6580 O   0  0  0  0  0  0  0  0  0  0  0  0
   58.6680   27.4750   47.1900 C   0  0  0  0  0  0  0  0  0  0  0  0
   60.8200   30.2980   48.2360 N   0  0  0  0  0  0  0  0  0  0  0  0
   57.6550   32.2150   46.0510 C   0  0  0  0  0  0  0  0  0  0  0  0
   57.2180   31.7890   44.7830 C   0  0  0  0  0  0  0  0  0  0  0  0
   56.2640   30.7720   44.6270 O   0  0  0  0  0  0  0  0  0  0  0  0
   56.2910   29.7890   43.5960 C   0  0  0  0  0  0  0  0  0  0  0  0
   58.7194   32.9960   41.3086 H   0  0  0  0  0  0  0  0  0  0  0  0
   58.1580   31.4627   40.5601 H   0  0  0  0  0  0  0  0  0  0  0  0
   57.0890   32.9063   40.5601 H   0  0  0  0  0  0  0  0  0  0  0  0
   59.1058   33.8987   42.8575 H   0  0  0  0  0  0  0  0  0  0  0  0
   59.8398   34.6682   45.1058 H   0  0  0  0  0  0  0  0  0  0  0  0
   59.3620   31.7710   48.3800 H   0  0  0  0  0  0  0  0  0  0  0  0
   60.8356   34.2494   49.2404 H   0  0  0  0  0  0  0  0  0  0  0  0
   60.1845   33.0899   50.4637 H   0  0  0  0  0  0  0  0  0  0  0  0
   62.2900   32.5555   48.3134 H   0  0  0  0  0  0  0  0  0  0  0  0
   62.4865   32.5242   50.1160 H   0  0  0  0  0  0  0  0  0  0  0  0
   62.2168   30.5163   51.3113 H   0  0  0  0  0  0  0  0  0  0  0  0
   60.2639   27.1644   49.3932 H   0  0  0  0  0  0  0  0  0  0  0  0
   60.6239   29.8327   45.6642 H   0  0  0  0  0  0  0  0  0  0  0  0
   59.3155   29.0590   43.6910 H   0  0  0  0  0  0  0  0  0  0  0  0
   57.5792   27.2908   43.9518 H   0  0  0  0  0  0  0  0  0  0  0  0
   55.1770   27.4690   46.3020 H   0  0  0  0  0  0  0  0  0  0  0  0
   58.4901   27.0160   48.1737 H   0  0  0  0  0  0  0  0  0  0  0  0
   57.2599   31.7262   46.9538 H   0  0  0  0  0  0  0  0  0  0  0  0
   56.3186   28.7858   44.0465 H   0  0  0  0  0  0  0  0  0  0  0  0
   55.3898   29.8865   42.9728 H   0  0  0  0  0  0  0  0  0  0  0  0
   57.1855   29.9358   42.9728 H   0  0  0  0  0  0  0  0  0  0  0  0
  1  2  1  0
  2  3  1  0
  3  4  2  0
  4  5  1  0
  5  6  2  0
  6  7  1  0
  7  8  2  0
  7  9  1  0
  9 10  1  0
 10 11  1  0
 11 12  1  0
 12 13  2  0
 13 14  1  0
 14 15  2  0
 14 16  1  0
 16 17  2  0
 17 18  1  0
 18 19  2  0
 19 20  1  0
 20 21  2  0
 21 22  1  0
 22 23  1  0
 23 24  1  0
 23 25  2  0
 23 26  2  0
 22 27  2  0
 17 28  1  0
  6 29  1  0
 29 30  2  0
 30 31  1  0
 31 32  1  0
 30  3  1  0
 28 12  1  0
 27 18  1  0
  1 33  1  0
  1 34  1  0
  1 35  1  0
  4 36  1  0
  5 37  1  0
  9 38  1  0
 10 39  1  0
 10 40  1  0
 11 41  1  0
 11 42  1  0
 13 43  1  0
 16 44  1  0
 19 45  1  0
 20 46  1  0
 21 47  1  0
 24 48  1  0
 27 49  1  0
 29 50  1  0
 32 51  1  0
 32 52  1  0
 32 53  1  0
M  CHG  2  24  -1  28  -1
M  END
>  <UniqueID>  (87) 
84

>  <SMILES>  (87) 
COc1ccc(C(=O)NCCc2cc(=O)cc(-c3cccc(S([NH-])(=O)=O)c3)[n-]2)cc1OC

>  <Energy>  (87) 
54.03428939188263

>  <Genealogy>  (87) 
COc1ccc(C(=O)NCCc2cc(=O)cc(-c3cccc(S([NH-])(=O)=O)c3)[n-]2)cc1OC (protonated)
COc1ccc(C(=O)NCCc2cc(=O)cc(-c3cccc(S([NH-])(=O)=O)c3)[n-]2)cc1OC (3D coordinates assigned)
COc1ccc(C(=O)NCCc2cc(=O)cc(-c3cccc(S([NH-])(=O)=O)c3)[n-]2)cc1OC (optimized conformer: 54.03428939188263 kcal/mol)

>  <smiles>  (87) 
COc1ccc(C(=O)NCCc2cc(=O)cc(-c3cccc(S(N)(=O)=O)c3)[nH]2)cc1OC

>  <score_type>  (87) 
oracle

>  <origin>  (87) 
adg

>  <m_score__min__energy>  (87) 
-12.51

>  <m_primary>  (87) 
energy

$$$$
87:0
     RDKit          3D

 59 62  0  0  0  0  0  0  0  0999 V2000
   59.1020   33.1880   53.5920 C   0  0  0  0  0  0  0  0  0  0  0  0
   58.5050   33.9540   52.4200 C   0  0  0  0  0  0  0  0  0  0  0  0
   59.4320   33.9710   51.3360 O   0  0  0  0  0  0  0  0  0  0  0  0
   59.4970   32.9910   50.3350 C   0  0  0  0  0  0  0  0  0  0  0  0
   58.6400   31.8740   50.3150 C   0  0  0  0  0  0  0  0  0  0  0  0
   58.7460   30.9240   49.2950 C   0  0  0  0  0  0  0  0  0  0  0  0
   59.6960   31.0810   48.2730 C   0  0  0  0  0  0  0  0  0  0  0  0
   59.7770   30.1180   47.2000 N   0  0  0  0  0  0  0  0  0  0  0  0
   59.7410   30.5580   45.9070 C   0  0  0  0  0  0  0  0  0  0  0  0
   59.8440   29.6570   44.8470 C   0  0  0  0  0  0  0  0  0  0  0  0
   60.0110   28.3000   45.1120 C   0  0  0  0  0  0  0  0  0  0  0  0
   60.0650   27.8460   46.4330 C   0  0  0  0  0  0  0  0  0  0  0  0
   60.3120   26.4100   46.7110 C   0  0  0  0  0  0  0  0  0  0  0  0
   61.4920   25.9670   46.6970 O   0  0  0  0  0  0  0  0  0  0  0  0
   59.2320   25.5040   46.9780 N   0  0  0  0  0  0  0  0  0  0  0  0
   58.5340   24.7540   45.9730 C   0  0  0  0  0  0  0  0  0  0  0  0
   59.0270   23.5000   45.5650 C   0  0  0  0  0  0  0  0  0  0  0  0
   58.3690   22.7690   44.5750 C   0  0  0  0  0  0  0  0  0  0  0  0
   57.2170   23.2830   43.9760 C   0  0  0  0  0  0  0  0  0  0  0  0
   56.7200   24.5290   44.3670 C   0  0  0  0  0  0  0  0  0  0  0  0
   57.3660   25.2720   45.3670 C   0  0  0  0  0  0  0  0  0  0  0  0
   56.6440   26.8110   45.8650 S   0  0  0  0  0  0  0  0  0  0  0  0
   55.1450   26.7010   45.9930 O   0  0  0  0  0  0  0  0  0  0  0  0
   57.2190   27.2090   47.1980 O   0  0  0  0  0  0  0  0  0  0  0  0
   57.0150   28.0410   44.6930 N   0  0  0  0  0  0  0  0  0  0  0  0
   56.1230   29.1900   44.8740 C   0  0  0  0  0  0  0  0  0  0  0  0
   56.6860   30.3820   44.1560 C   0  0  0  0  0  0  0  0  0  0  0  0
   56.8270   30.3710   42.7580 C   0  0  0  0  0  0  0  0  0  0  0  0
   57.3720   31.4770   42.0990 C   0  0  0  0  0  0  0  0  0  0  0  0
   57.7930   32.5930   42.8280 C   0  0  0  0  0  0  0  0  0  0  0  0
   57.6740   32.6040   44.2200 C   0  0  0  0  0  0  0  0  0  0  0  0
   57.1260   31.5000   44.8840 C   0  0  0  0  0  0  0  0  0  0  0  0
   59.8960   28.7780   47.4770 C   0  0  0  0  0  0  0  0  0  0  0  0
   59.8240   28.3720   48.6700 O   0  0  0  0  0  0  0  0  0  0  0  0
   60.5530   32.1910   48.2990 C   0  0  0  0  0  0  0  0  0  0  0  0
   60.4510   33.1370   49.3240 C   0  0  0  0  0  0  0  0  0  0  0  0
   58.7549   33.6333   54.5360 H   0  0  0  0  0  0  0  0  0  0  0  0
   58.7829   32.1364   53.5435 H   0  0  0  0  0  0  0  0  0  0  0  0
   60.1997   33.2407   53.5435 H   0  0  0  0  0  0  0  0  0  0  0  0
   57.5746   33.4633   52.0981 H   0  0  0  0  0  0  0  0  0  0  0  0
   58.2888   34.9866   52.7313 H   0  0  0  0  0  0  0  0  0  0  0  0
   57.8845   31.7485   51.1046 H   0  0  0  0  0  0  0  0  0  0  0  0
   58.0809   30.0478   49.2930 H   0  0  0  0  0  0  0  0  0  0  0  0
   59.6298   31.6326   45.6999 H   0  0  0  0  0  0  0  0  0  0  0  0
   59.7936   30.0161   43.8085 H   0  0  0  0  0  0  0  0  0  0  0  0
   60.1005   27.5848   44.2811 H   0  0  0  0  0  0  0  0  0  0  0  0
   59.9373   23.0935   46.0299 H   0  0  0  0  0  0  0  0  0  0  0  0
   58.7580   21.7874   44.2663 H   0  0  0  0  0  0  0  0  0  0  0  0
   56.7000   22.7060   43.1951 H   0  0  0  0  0  0  0  0  0  0  0  0
   55.8153   24.9306   43.8872 H   0  0  0  0  0  0  0  0  0  0  0  0
   55.1304   28.9511   44.4645 H   0  0  0  0  0  0  0  0  0  0  0  0
   56.0336   29.4179   45.9464 H   0  0  0  0  0  0  0  0  0  0  0  0
   56.5080   29.4905   42.1810 H   0  0  0  0  0  0  0  0  0  0  0  0
   57.4698   31.4690   41.0034 H   0  0  0  0  0  0  0  0  0  0  0  0
   58.2181   33.4627   42.3056 H   0  0  0  0  0  0  0  0  0  0  0  0
   58.0108   33.4798   44.7941 H   0  0  0  0  0  0  0  0  0  0  0  0
   57.0396   31.5080   45.9806 H   0  0  0  0  0  0  0  0  0  0  0  0
   61.3086   32.3180   47.5098 H   0  0  0  0  0  0  0  0  0  0  0  0
   61.1279   34.0040   49.3346 H   0  0  0  0  0  0  0  0  0  0  0  0
  1  2  1  0
  2  3  1  0
  3  4  1  0
  4  5  2  0
  5  6  1  0
  6  7  2  0
  7  8  1  0
  8  9  1  0
  9 10  2  0
 10 11  1  0
 11 12  2  0
 12 13  1  0
 13 14  2  0
 13 15  1  0
 15 16  1  0
 16 17  2  0
 17 18  1  0
 18 19  2  0
 19 20  1  0
 20 21  2  0
 21 22  1  0
 22 23  2  0
 22 24  2  0
 22 25  1  0
 25 26  1  0
 26 27  1  0
 27 28  2  0
 28 29  1  0
 29 30  2  0
 30 31  1  0
 31 32  2  0
 12 33  1  0
 33 34  2  0
  7 35  1  0
 35 36  2  0
 36  4  1  0
 33  8  1  0
 21 16  1  0
 32 27  1  0
  1 37  1  0
  1 38  1  0
  1 39  1  0
  2 40  1  0
  2 41  1  0
  5 42  1  0
  6 43  1  0
  9 44  1  0
 10 45  1  0
 11 46  1  0
 17 47  1  0
 18 48  1  0
 19 49  1  0
 20 50  1  0
 26 51  1  0
 26 52  1  0
 28 53  1  0
 29 54  1  0
 30 55  1  0
 31 56  1  0
 32 57  1  0
 35 58  1  0
 36 59  1  0
M  CHG  2  15  -1  25  -1
M  END
>  <UniqueID>  (88) 
85

>  <SMILES>  (88) 
CCOc1ccc(-n2cccc(C(=O)[N-]c3ccccc3S(=O)(=O)[N-]Cc3ccccc3)c2=O)cc1

>  <Energy>  (88) 
72.24911571474297

>  <Genealogy>  (88) 
CCOc1ccc(-n2cccc(C(=O)[N-]c3ccccc3S(=O)(=O)[N-]Cc3ccccc3)c2=O)cc1 (protonated)
CCOc1ccc(-n2cccc(C(=O)[N-]c3ccccc3S(=O)(=O)[N-]Cc3ccccc3)c2=O)cc1 (3D coordinates assigned)
CCOc1ccc(-n2cccc(C(=O)[N-]c3ccccc3S(=O)(=O)[N-]Cc3ccccc3)c2=O)cc1 (optimized conformer: 72.24911571474297 kcal/mol)

>  <smiles>  (88) 
CCOc1ccc(-n2cccc(C(=O)Nc3ccccc3S(=O)(=O)NCc3ccccc3)c2=O)cc1

>  <score_type>  (88) 
oracle

>  <origin>  (88) 
adg

>  <m_score__min__energy>  (88) 
-13.41

>  <m_primary>  (88) 
energy

$$$$
88:0
     RDKit          3D

 41 43  0  0  0  0  0  0  0  0999 V2000
   55.6310   30.8110   44.3080 O   0  0  0  0  0  0  0  0  0  0  0  0
   57.0780   30.4740   44.5410 S   0  0  0  0  0  0  0  0  0  0  0  0
   57.8770   31.0340   43.3980 O   0  0  0  0  0  0  0  0  0  0  0  0
   57.2680   28.7180   44.5790 C   0  0  0  0  0  0  0  0  0  0  0  0
   57.9640   28.0600   43.5560 C   0  0  0  0  0  0  0  0  0  0  0  0
   58.1340   26.6730   43.5980 C   0  0  0  0  0  0  0  0  0  0  0  0
   57.6090   25.9240   44.6580 C   0  0  0  0  0  0  0  0  0  0  0  0
   57.8120   24.5030   44.6620 N   0  0  0  0  0  0  0  0  0  0  0  0
   57.1480   23.6880   43.9440 C   0  0  0  0  0  0  0  0  0  0  0  0
   56.3090   22.6570   43.0330 S   0  0  0  0  0  0  0  0  0  0  0  0
   56.9020   26.5860   45.6810 C   0  0  0  0  0  0  0  0  0  0  0  0
   56.7320   27.9720   45.6380 C   0  0  0  0  0  0  0  0  0  0  0  0
   57.6080   31.2060   46.0390 N   0  0  0  0  0  0  0  0  0  0  0  0
   58.0320   32.6020   45.8060 C   0  0  0  0  0  0  0  0  0  0  0  0
   58.9290   33.1260   46.9320 C   0  0  0  0  0  0  0  0  0  0  0  0
   60.1130   32.2700   47.0730 N   0  0  0  0  0  0  0  0  0  0  0  0
   61.3420   32.7960   47.6190 C   0  0  0  0  0  0  0  0  0  0  0  0
   62.5840   32.4040   47.0880 C   0  0  0  0  0  0  0  0  0  0  0  0
   63.7610   32.9270   47.6240 C   0  0  0  0  0  0  0  0  0  0  0  0
   63.6990   33.8340   48.6800 C   0  0  0  0  0  0  0  0  0  0  0  0
   62.4550   34.2060   49.1880 C   0  0  0  0  0  0  0  0  0  0  0  0
   61.3130   33.6890   48.6560 N   0  0  0  0  0  0  0  0  0  0  0  0
   60.0410   30.8770   46.6130 C   0  0  0  0  0  0  0  0  0  0  0  0
   58.6020   30.3550   46.7360 C   0  0  0  0  0  0  0  0  0  0  0  0
   58.3783   28.6373   42.7164 H   0  0  0  0  0  0  0  0  0  0  0  0
   58.6846   26.1661   42.7918 H   0  0  0  0  0  0  0  0  0  0  0  0
   56.4817   26.0088   46.5178 H   0  0  0  0  0  0  0  0  0  0  0  0
   56.1750   28.4803   46.4388 H   0  0  0  0  0  0  0  0  0  0  0  0
   58.5876   32.6507   44.8579 H   0  0  0  0  0  0  0  0  0  0  0  0
   57.1292   33.2295   45.7715 H   0  0  0  0  0  0  0  0  0  0  0  0
   59.2478   34.1519   46.6957 H   0  0  0  0  0  0  0  0  0  0  0  0
   58.3641   33.1177   47.8759 H   0  0  0  0  0  0  0  0  0  0  0  0
   62.6271   31.6883   46.2538 H   0  0  0  0  0  0  0  0  0  0  0  0
   64.7357   32.6241   47.2140 H   0  0  0  0  0  0  0  0  0  0  0  0
   64.6219   34.2521   49.1084 H   0  0  0  0  0  0  0  0  0  0  0  0
   62.3957   34.9204   50.0223 H   0  0  0  0  0  0  0  0  0  0  0  0
   60.4020   33.9770   49.0760 H   0  0  0  0  0  0  0  0  0  0  0  0
   60.3586   30.8242   45.5612 H   0  0  0  0  0  0  0  0  0  0  0  0
   60.7035   30.2574   47.2353 H   0  0  0  0  0  0  0  0  0  0  0  0
   58.5593   29.3439   46.3050 H   0  0  0  0  0  0  0  0  0  0  0  0
   58.3435   30.3610   47.8052 H   0  0  0  0  0  0  0  0  0  0  0  0
  1  2  2  0
  2  3  2  0
  2  4  1  0
  4  5  2  0
  5  6  1  0
  6  7  2  0
  7  8  1  0
  8  9  2  0
  9 10  2  0
  7 11  1  0
 11 12  2  0
  2 13  1  0
 13 14  1  0
 14 15  1  0
 15 16  1  0
 16 17  1  0
 17 18  2  0
 18 19  1  0
 19 20  2  0
 20 21  1  0
 21 22  2  0
 16 23  1  0
 23 24  1  0
 12  4  1  0
 24 13  1  0
 22 17  1  0
  5 25  1  0
  6 26  1  0
 11 27  1  0
 12 28  1  0
 14 29  1  0
 14 30  1  0
 15 31  1  0
 15 32  1  0
 18 33  1  0
 19 34  1  0
 20 35  1  0
 21 36  1  0
 22 37  1  0
 23 38  1  0
 23 39  1  0
 24 40  1  0
 24 41  1  0
M  CHG  1  22   1
M  END
>  <UniqueID>  (89) 
86

>  <SMILES>  (89) 
O=S(=O)(c1ccc(N=C=S)cc1)N1CCN(c2cccc[nH+]2)CC1

>  <Energy>  (89) 
50.80809564271103

>  <Genealogy>  (89) 
O=S(=O)(c1ccc(N=C=S)cc1)N1CCN(c2cccc[nH+]2)CC1 (protonated)
O=S(=O)(c1ccc(N=C=S)cc1)N1CCN(c2cccc[nH+]2)CC1 (3D coordinates assigned)
O=S(=O)(c1ccc(N=C=S)cc1)N1CCN(c2cccc[nH+]2)CC1 (nonaromatic ring conformer: 50.80809564271103 kcal/mol)

>  <smiles>  (89) 
O=S(=O)(c1ccc(N=C=S)cc1)N1CCN(c2ccccn2)CC1

>  <score_type>  (89) 
oracle

>  <origin>  (89) 
adg

>  <m_score__min__energy>  (89) 
-6.7800000000000002

>  <m_primary>  (89) 
energy

$$$$
89:0
     RDKit          3D

 50 53  0  0  0  0  0  0  0  0999 V2000
   57.1230   29.1060   52.0310 O   0  0  0  0  0  0  0  0  0  0  0  0
   56.6130   30.2580   52.1620 C   0  0  0  0  0  0  0  0  0  0  0  0
   55.3620   30.4230   52.9670 C   0  0  0  0  0  0  0  0  0  0  0  0
   54.5380   29.1290   53.0110 C   0  0  0  0  0  0  0  0  0  0  0  0
   53.0480   29.3590   53.3040 C   0  0  0  0  0  0  0  0  0  0  0  0
   52.3890   30.2260   52.2620 C   0  0  0  0  0  0  0  0  0  0  0  0
   52.3720   29.8200   50.9170 C   0  0  0  0  0  0  0  0  0  0  0  0
   51.7950   30.6450   49.9420 C   0  0  0  0  0  0  0  0  0  0  0  0
   51.2220   31.8700   50.3040 C   0  0  0  0  0  0  0  0  0  0  0  0
   50.6410   32.6750   49.3340 O   0  0  0  0  0  0  0  0  0  0  0  0
   51.2290   32.2760   51.6450 C   0  0  0  0  0  0  0  0  0  0  0  0
   50.6420   33.4840   52.0110 O   0  0  0  0  0  0  0  0  0  0  0  0
   51.8190   31.4580   52.6210 C   0  0  0  0  0  0  0  0  0  0  0  0
   57.1710   31.3740   51.5140 O   0  0  0  0  0  0  0  0  0  0  0  0
   58.2700   32.0750   52.0220 C   0  0  0  0  0  0  0  0  0  0  0  0
   58.1800   32.7190   53.2780 C   0  0  0  0  0  0  0  0  0  0  0  0
   59.3030   33.3850   53.7540 C   0  0  0  0  0  0  0  0  0  0  0  0
   60.4630   33.4230   53.0570 C   0  0  0  0  0  0  0  0  0  0  0  0
   60.5960   32.8200   51.8100 C   0  0  0  0  0  0  0  0  0  0  0  0
   59.4780   32.1410   51.2730 C   0  0  0  0  0  0  0  0  0  0  0  0
   59.5850   31.5010   49.9120 C   0  0  0  0  0  0  0  0  0  0  0  0
   59.5150   32.5470   48.8280 C   0  0  0  0  0  0  0  0  0  0  0  0
   58.3340   32.6850   48.0730 C   0  0  0  0  0  0  0  0  0  0  0  0
   58.2580   33.6220   47.0370 C   0  0  0  0  0  0  0  0  0  0  0  0
   59.3580   34.4310   46.7450 C   0  0  0  0  0  0  0  0  0  0  0  0
   59.2810   35.3600   45.7120 O   0  0  0  0  0  0  0  0  0  0  0  0
   60.5360   34.3050   47.4930 C   0  0  0  0  0  0  0  0  0  0  0  0
   60.6230   33.3650   48.5270 C   0  0  0  0  0  0  0  0  0  0  0  0
   61.8110   33.2530   49.2450 O   0  0  0  0  0  0  0  0  0  0  0  0
   61.4060   34.1310   53.7780 O   0  0  0  0  0  0  0  0  0  0  0  0
   60.7980   34.5710   55.0000 C   0  0  0  0  0  0  0  0  0  0  0  0
   59.4540   34.0760   54.9430 O   0  0  0  0  0  0  0  0  0  0  0  0
   55.6344   30.7068   53.9943 H   0  0  0  0  0  0  0  0  0  0  0  0
   54.7492   31.2026   52.4908 H   0  0  0  0  0  0  0  0  0  0  0  0
   54.6273   28.6264   52.0366 H   0  0  0  0  0  0  0  0  0  0  0  0
   54.9384   28.5192   53.8343 H   0  0  0  0  0  0  0  0  0  0  0  0
   52.5375   28.3849   53.3285 H   0  0  0  0  0  0  0  0  0  0  0  0
   52.9705   29.8766   54.2715 H   0  0  0  0  0  0  0  0  0  0  0  0
   52.8119   28.8538   50.6290 H   0  0  0  0  0  0  0  0  0  0  0  0
   51.7923   30.3289   48.8884 H   0  0  0  0  0  0  0  0  0  0  0  0
   51.8349   31.7834   53.6716 H   0  0  0  0  0  0  0  0  0  0  0  0
   57.2478   32.6934   53.8614 H   0  0  0  0  0  0  0  0  0  0  0  0
   61.5455   32.8702   51.2568 H   0  0  0  0  0  0  0  0  0  0  0  0
   60.5437   30.9668   49.8378 H   0  0  0  0  0  0  0  0  0  0  0  0
   58.7480   30.7991   49.7828 H   0  0  0  0  0  0  0  0  0  0  0  0
   57.4643   32.0508   48.2998 H   0  0  0  0  0  0  0  0  0  0  0  0
   57.3316   33.7215   46.4523 H   0  0  0  0  0  0  0  0  0  0  0  0
   61.3985   34.9490   47.2663 H   0  0  0  0  0  0  0  0  0  0  0  0
   61.3279   34.1526   55.8684 H   0  0  0  0  0  0  0  0  0  0  0  0
   60.8318   35.6651   55.1086 H   0  0  0  0  0  0  0  0  0  0  0  0
  1  2  2  0
  2  3  1  0
  3  4  1  0
  4  5  1  0
  5  6  1  0
  6  7  2  0
  7  8  1  0
  8  9  2  0
  9 10  1  0
  9 11  1  0
 11 12  1  0
 11 13  2  0
  2 14  1  0
 14 15  1  0
 15 16  2  0
 16 17  1  0
 17 18  2  0
 18 19  1  0
 19 20  2  0
 20 21  1  0
 21 22  1  0
 22 23  2  0
 23 24  1  0
 24 25  2  0
 25 26  1  0
 25 27  1  0
 27 28  2  0
 28 29  1  0
 18 30  1  0
 30 31  1  0
 31 32  1  0
 13  6  1  0
 20 15  1  0
 28 22  1  0
 32 17  1  0
  3 33  1  0
  3 34  1  0
  4 35  1  0
  4 36  1  0
  5 37  1  0
  5 38  1  0
  7 39  1  0
  8 40  1  0
 13 41  1  0
 16 42  1  0
 19 43  1  0
 21 44  1  0
 21 45  1  0
 23 46  1  0
 24 47  1  0
 27 48  1  0
 31 49  1  0
 31 50  1  0
M  CHG  4  10  -1  12  -1  26  -1  29  -1
M  END
>  <UniqueID>  (90) 
87

>  <SMILES>  (90) 
O=C(CCCc1ccc([O-])c([O-])c1)Oc1cc2c(cc1Cc1ccc([O-])cc1[O-])OCO2

>  <Energy>  (90) 
80.44894962378547

>  <Genealogy>  (90) 
O=C(CCCc1ccc([O-])c([O-])c1)Oc1cc2c(cc1Cc1ccc([O-])cc1[O-])OCO2 (protonated)
O=C(CCCc1ccc([O-])c([O-])c1)Oc1cc2c(cc1Cc1ccc([O-])cc1[O-])OCO2 (3D coordinates assigned)
O=C(CCCc1ccc([O-])c([O-])c1)Oc1cc2c(cc1Cc1ccc([O-])cc1[O-])OCO2 (nonaromatic ring conformer: 80.44894962378547 kcal/mol)

>  <smiles>  (90) 
O=C(CCCc1ccc(O)c(O)c1)Oc1cc2c(cc1Cc1ccc(O)cc1O)OCO2

>  <score_type>  (90) 
oracle

>  <origin>  (90) 
adg

>  <m_score__min__energy>  (90) 
-19.309999999999999

>  <m_primary>  (90) 
energy

$$$$
