0:0
     RDKit          3D

 36 37  0  0  0  0  0  0  0  0999 V2000
   54.4080   29.3450   45.5630 H   0  0  0  0  0  0  0  0  0  0  0  0
   55.1430   29.1840   44.8410 N   0  0  0  0  0  0  0  0  0  0  0  0
   56.4590   29.7100   45.0020 C   0  0  0  0  0  0  0  0  0  0  0  0
   57.1690   29.2990   45.9570 O   0  0  0  0  0  0  0  0  0  0  0  0
   56.9920   30.7020   44.0350 C   0  0  0  0  0  0  0  0  0  0  0  0
   56.5520   30.6400   42.6980 C   0  0  0  0  0  0  0  0  0  0  0  0
   55.8120   29.8810   42.4044 H   0  0  0  0  0  0  0  0  0  0  0  0
   57.0430   31.5290   41.7420 C   0  0  0  0  0  0  0  0  0  0  0  0
   56.6947   31.4634   40.7006 H   0  0  0  0  0  0  0  0  0  0  0  0
   57.9730   32.4990   42.1040 C   0  0  0  0  0  0  0  0  0  0  0  0
   58.3600   33.1981   41.3480 H   0  0  0  0  0  0  0  0  0  0  0  0
   58.4150   32.5860   43.4240 C   0  0  0  0  0  0  0  0  0  0  0  0
   59.1382   33.3659   43.7044 H   0  0  0  0  0  0  0  0  0  0  0  0
   57.9470   31.6880   44.4020 C   0  0  0  0  0  0  0  0  0  0  0  0
   58.3510   31.8590   45.7750 N   0  0  0  0  0  0  0  0  0  0  0  0
   58.4670   31.0010   46.3590 H   0  0  0  0  0  0  0  0  0  0  0  0
   58.4660   33.1430   46.4140 C   0  0  0  0  0  0  0  0  0  0  0  0
   58.4820   34.1980   45.7250 O   0  0  0  0  0  0  0  0  0  0  0  0
   58.4990   33.2570   47.8800 C   0  0  0  0  0  0  0  0  0  0  0  0
   58.3106   34.2480   48.3187 H   0  0  0  0  0  0  0  0  0  0  0  0
   58.7420   32.2410   48.7210 C   0  0  0  0  0  0  0  0  0  0  0  0
   59.4870   31.0560   48.4130 N   0  0  0  0  0  0  0  0  0  0  0  0
   60.8130   31.1100   47.7970 C   0  0  0  0  0  0  0  0  0  0  0  0
   61.5816   31.1413   48.5833 H   0  0  0  0  0  0  0  0  0  0  0  0
   60.9637   30.2172   47.1723 H   0  0  0  0  0  0  0  0  0  0  0  0
   60.8906   32.0121   47.1723 H   0  0  0  0  0  0  0  0  0  0  0  0
   59.2440   30.1040   49.4960 C   0  0  0  0  0  0  0  0  0  0  0  0
   58.6524   29.2516   49.1306 H   0  0  0  0  0  0  0  0  0  0  0  0
   60.1850   29.6988   49.8963 H   0  0  0  0  0  0  0  0  0  0  0  0
   58.5010   30.8380   50.5140 N   0  0  0  0  0  0  0  0  0  0  0  0
   58.1010   30.2910   51.7740 C   0  0  0  0  0  0  0  0  0  0  0  0
   58.7657   30.3856   52.6453 H   0  0  0  0  0  0  0  0  0  0  0  0
   56.9940   29.7020   51.8940 O   0  0  0  0  0  0  0  0  0  0  0  0
   58.1840   32.1910   50.0950 C   0  0  0  0  0  0  0  0  0  0  0  0
   57.0972   32.3609   50.0891 H   0  0  0  0  0  0  0  0  0  0  0  0
   58.5928   32.9638   50.7626 H   0  0  0  0  0  0  0  0  0  0  0  0
  1  2  1  0
  2  3  1  0
  3  4  2  0
  3  5  1  0
  5  6  2  0
  6  7  1  0
  6  8  1  0
  8  9  1  0
  8 10  2  0
 10 11  1  0
 10 12  1  0
 12 13  1  0
 12 14  2  0
 14 15  1  0
 15 16  1  0
 15 17  1  0
 17 18  2  0
 17 19  1  0
 19 20  1  0
 19 21  2  0
 21 22  1  0
 22 23  1  0
 23 24  1  0
 23 25  1  0
 23 26  1  0
 22 27  1  0
 27 28  1  0
 27 29  1  0
 27 30  1  0
 30 31  1  0
 31 32  1  0
 31 33  2  0
 30 34  1  0
 34 35  1  0
 34 36  1  0
 14  5  1  0
 34 21  1  0
M  CHG  1   2  -1
M  END
>  <UniqueID>  (1) 
1

>  <SMILES>  (1) 
CN1CN(C=O)C/C1=C/C(=O)Nc1ccccc1C([NH-])=O

>  <Energy>  (1) 
57.43077136042622

>  <Genealogy>  (1) 
CN1CN(C=O)CC1=CC(=O)Nc1ccccc1C([NH-])=O (protonated)
CN1CN(C=O)C/C1=C/C(=O)Nc1ccccc1C([NH-])=O (cis-trans isomerization)
CN1CN(C=O)C/C1=C/C(=O)Nc1ccccc1C([NH-])=O (3D coordinates assigned)
CN1CN(C=O)C/C1=C/C(=O)Nc1ccccc1C([NH-])=O (nonaromatic ring conformer: 57.43077136042622 kcal/mol)

>  <smiles>  (1) 
CN1CN(C=O)CC1=CC(=O)Nc1ccccc1C(N)=O

>  <score_type>  (1) 
oracle

>  <origin>  (1) 
adg

>  <m_score__min__energy>  (1) 
-9.5500000000000007

>  <m_primary>  (1) 
energy

$$$$
1:0
     RDKit          3D

 48 50  0  0  0  0  0  0  0  0999 V2000
   57.8094   33.1222   42.3841 H   0  0  0  0  0  0  0  0  0  0  0  0
   57.7980   32.6840   43.3930 C   0  0  0  0  0  0  0  0  0  0  0  0
   57.2260   31.4680   43.6290 N   0  0  0  0  0  0  0  0  0  0  0  0
   57.1950   30.9160   44.8890 C   0  0  0  0  0  0  0  0  0  0  0  0
   56.6580   29.7500   45.0970 N   0  0  0  0  0  0  0  0  0  0  0  0
   57.2210   28.4640   44.6860 C   0  0  0  0  0  0  0  0  0  0  0  0
   57.6842   28.5747   43.6944 H   0  0  0  0  0  0  0  0  0  0  0  0
   56.4101   27.7215   44.6522 H   0  0  0  0  0  0  0  0  0  0  0  0
   58.2870   27.9810   45.6890 C   0  0  0  0  0  0  0  0  0  0  0  0
   59.0919   27.4808   45.1305 H   0  0  0  0  0  0  0  0  0  0  0  0
   57.7889   27.2989   46.3937 H   0  0  0  0  0  0  0  0  0  0  0  0
   58.8840   29.0920   46.4910 N   0  0  0  0  0  0  0  0  0  0  0  0
   58.2330   29.9100   46.4530 H   0  0  0  0  0  0  0  0  0  0  0  0
   59.0130   28.7260   47.9310 C   0  0  0  0  0  0  0  0  0  0  0  0
   59.9884   28.2379   48.0737 H   0  0  0  0  0  0  0  0  0  0  0  0
   58.1606   28.0697   48.1606 H   0  0  0  0  0  0  0  0  0  0  0  0
   58.9230   29.9090   48.9090 C   0  0  0  0  0  0  0  0  0  0  0  0
   58.9516   29.5333   49.9425 H   0  0  0  0  0  0  0  0  0  0  0  0
   59.7721   30.5881   48.7421 H   0  0  0  0  0  0  0  0  0  0  0  0
   57.9810   30.4519   48.7421 H   0  0  0  0  0  0  0  0  0  0  0  0
   60.1540   29.5650   45.8810 C   0  0  0  0  0  0  0  0  0  0  0  0
   59.9651   30.5237   45.3759 H   0  0  0  0  0  0  0  0  0  0  0  0
   60.8912   29.6673   46.6910 H   0  0  0  0  0  0  0  0  0  0  0  0
   60.7290   28.5770   44.8570 C   0  0  0  0  0  0  0  0  0  0  0  0
   61.2144   27.7429   45.3848 H   0  0  0  0  0  0  0  0  0  0  0  0
   59.9161   28.1882   44.2261 H   0  0  0  0  0  0  0  0  0  0  0  0
   61.4686   29.0917   44.2261 H   0  0  0  0  0  0  0  0  0  0  0  0
   57.7470   31.5890   45.9420 N   0  0  0  0  0  0  0  0  0  0  0  0
   58.3390   32.7850   45.7020 C   0  0  0  0  0  0  0  0  0  0  0  0
   58.3640   33.3470   44.4700 C   0  0  0  0  0  0  0  0  0  0  0  0
   58.9380   34.5630   44.5110 N   0  0  0  0  0  0  0  0  0  0  0  0
   59.2550   34.6830   45.8290 C   0  0  0  0  0  0  0  0  0  0  0  0
   59.7830   35.7250   46.3040 O   0  0  0  0  0  0  0  0  0  0  0  0
   58.9260   33.6030   46.5870 N   0  0  0  0  0  0  0  0  0  0  0  0
   59.0620   33.4280   48.0390 C   0  0  0  0  0  0  0  0  0  0  0  0
   58.8094   34.3810   48.5269 H   0  0  0  0  0  0  0  0  0  0  0  0
   58.3831   32.6110   48.3248 H   0  0  0  0  0  0  0  0  0  0  0  0
   60.4820   33.0090   48.4960 C   0  0  0  0  0  0  0  0  0  0  0  0
   60.1575   32.4959   49.4133 H   0  0  0  0  0  0  0  0  0  0  0  0
   61.3340   32.2730   47.4600 C   0  0  0  0  0  0  0  0  0  0  0  0
   61.7091   31.2955   47.7975 H   0  0  0  0  0  0  0  0  0  0  0  0
   60.9021   31.9654   46.4962 H   0  0  0  0  0  0  0  0  0  0  0  0
   62.3630   33.3920   47.5260 C   0  0  0  0  0  0  0  0  0  0  0  0
   62.4690   34.0960   46.3380 F   0  0  0  0  0  0  0  0  0  0  0  0
   63.5910   32.9700   48.0090 F   0  0  0  0  0  0  0  0  0  0  0  0
   61.5310   34.1200   48.5730 C   0  0  0  0  0  0  0  0  0  0  0  0
   62.0202   34.2107   49.5541 H   0  0  0  0  0  0  0  0  0  0  0  0
   61.2445   35.1722   48.4286 H   0  0  0  0  0  0  0  0  0  0  0  0
  1  2  1  0
  2  3  2  0
  3  4  1  0
  4  5  2  0
  5  6  1  0
  6  7  1  0
  6  8  1  0
  6  9  1  0
  9 10  1  0
  9 11  1  0
  9 12  1  0
 12 13  1  0
 12 14  1  0
 14 15  1  0
 14 16  1  0
 14 17  1  0
 17 18  1  0
 17 19  1  0
 17 20  1  0
 12 21  1  0
 21 22  1  0
 21 23  1  0
 21 24  1  0
 24 25  1  0
 24 26  1  0
 24 27  1  0
  4 28  1  0
 28 29  1  0
 29 30  2  0
 30 31  1  0
 31 32  1  0
 32 33  2  0
 32 34  1  0
 34 35  1  0
 35 36  1  0
 35 37  1  0
 35 38  1  0
 38 39  1  0
 38 40  1  0
 40 41  1  0
 40 42  1  0
 40 43  1  0
 43 44  1  0
 43 45  1  0
 43 46  1  0
 46 47  1  0
 46 48  1  0
 30  2  1  0
 46 38  1  0
 34 29  1  0
M  CHG  3  12   1  28  -1  31  -1
M  END
>  <UniqueID>  (2) 
2

>  <SMILES>  (2) 
CC[NH+](CC)CC/N=c1\ncc2[n-]c(=O)n(CC3CC(F)(F)C3)c2[n-]1

>  <Energy>  (2) 
157.3453806981404

>  <Genealogy>  (2) 
CC[NH+](CC)CCN=c1ncc2[n-]c(=O)n(CC3CC(F)(F)C3)c2[n-]1 (protonated)
CC[NH+](CC)CC/N=c1\ncc2[n-]c(=O)n(CC3CC(F)(F)C3)c2[n-]1 (cis-trans isomerization)
CC[NH+](CC)CC/N=c1\ncc2[n-]c(=O)n(CC3CC(F)(F)C3)c2[n-]1 (3D coordinates assigned)
CC[NH+](CC)CC/N=c1\ncc2[n-]c(=O)n(CC3CC(F)(F)C3)c2[n-]1 (nonaromatic ring conformer: 157.3453806981404 kcal/mol)

>  <smiles>  (2) 
CCN(CC)CCN=c1ncc2[nH]c(=O)n(CC3CC(F)(F)C3)c2[nH]1

>  <score_type>  (2) 
oracle

>  <origin>  (2) 
adg

>  <m_score__min__energy>  (2) 
-7.4500000000000002

>  <m_primary>  (2) 
energy

$$$$
2:0
     RDKit          3D

 42 44  0  0  0  0  0  0  0  0999 V2000
   61.2650   33.8400   48.4690 C   0  0  0  0  0  0  0  0  0  0  0  0
   59.8500   33.6260   48.9940 C   0  0  0  0  0  0  0  0  0  0  0  0
   58.8930   34.2440   48.1340 O   0  0  0  0  0  0  0  0  0  0  0  0
   58.5900   33.8420   46.8230 C   0  0  0  0  0  0  0  0  0  0  0  0
   59.3750   34.3480   45.7800 C   0  0  0  0  0  0  0  0  0  0  0  0
   59.1170   33.9850   44.4560 C   0  0  0  0  0  0  0  0  0  0  0  0
   58.0780   33.1010   44.1620 C   0  0  0  0  0  0  0  0  0  0  0  0
   57.3060   32.5570   45.1930 C   0  0  0  0  0  0  0  0  0  0  0  0
   56.2600   31.6340   44.8710 N   0  0  0  0  0  0  0  0  0  0  0  0
   56.4430   30.2520   44.5370 C   0  0  0  0  0  0  0  0  0  0  0  0
   55.5190   29.4380   44.7990 O   0  0  0  0  0  0  0  0  0  0  0  0
   57.6810   29.7480   43.8390 C   0  0  0  0  0  0  0  0  0  0  0  0
   58.3680   28.7180   44.6300 N   0  0  0  0  0  0  0  0  0  0  0  0
   58.5570   27.4060   44.3080 C   0  0  0  0  0  0  0  0  0  0  0  0
   58.0900   26.7650   43.0370 C   0  0  0  0  0  0  0  0  0  0  0  0
   59.2740   26.7370   45.2440 N   0  0  0  0  0  0  0  0  0  0  0  0
   59.5160   27.6530   46.1950 C   0  0  0  0  0  0  0  0  0  0  0  0
   60.2230   27.4880   47.3830 C   0  0  0  0  0  0  0  0  0  0  0  0
   60.3450   28.6060   48.2300 C   0  0  0  0  0  0  0  0  0  0  0  0
   59.7590   29.8400   47.8750 C   0  0  0  0  0  0  0  0  0  0  0  0
   59.0480   29.9720   46.6670 C   0  0  0  0  0  0  0  0  0  0  0  0
   58.9580   28.8490   45.8380 C   0  0  0  0  0  0  0  0  0  0  0  0
   57.5450   32.9440   46.5210 C   0  0  0  0  0  0  0  0  0  0  0  0
   61.9585   33.9449   49.3164 H   0  0  0  0  0  0  0  0  0  0  0  0
   61.5631   32.9767   47.8559 H   0  0  0  0  0  0  0  0  0  0  0  0
   61.2945   34.7528   47.8559 H   0  0  0  0  0  0  0  0  0  0  0  0
   59.6440   32.5468   49.0467 H   0  0  0  0  0  0  0  0  0  0  0  0
   59.7716   34.0792   49.9932 H   0  0  0  0  0  0  0  0  0  0  0  0
   60.2021   35.0374   46.0051 H   0  0  0  0  0  0  0  0  0  0  0  0
   59.7339   34.3967   43.6437 H   0  0  0  0  0  0  0  0  0  0  0  0
   57.8659   32.8316   43.1168 H   0  0  0  0  0  0  0  0  0  0  0  0
   57.3933   29.3191   42.8678 H   0  0  0  0  0  0  0  0  0  0  0  0
   58.3696   30.5955   43.7065 H   0  0  0  0  0  0  0  0  0  0  0  0
   57.4576   25.8970   43.2749 H   0  0  0  0  0  0  0  0  0  0  0  0
   57.5088   27.4926   42.4514 H   0  0  0  0  0  0  0  0  0  0  0  0
   58.9607   26.4348   42.4514 H   0  0  0  0  0  0  0  0  0  0  0  0
   59.5740   25.7370   45.2300 H   0  0  0  0  0  0  0  0  0  0  0  0
   60.6701   26.5191   47.6502 H   0  0  0  0  0  0  0  0  0  0  0  0
   60.9009   28.5172   49.1750 H   0  0  0  0  0  0  0  0  0  0  0  0
   59.8585   30.7050   48.5472 H   0  0  0  0  0  0  0  0  0  0  0  0
   58.5791   30.9261   46.3846 H   0  0  0  0  0  0  0  0  0  0  0  0
   56.9147   32.5453   47.3295 H   0  0  0  0  0  0  0  0  0  0  0  0
  1  2  1  0
  2  3  1  0
  3  4  1  0
  4  5  2  0
  5  6  1  0
  6  7  2  0
  7  8  1  0
  8  9  1  0
  9 10  1  0
 10 11  2  0
 10 12  1  0
 12 13  1  0
 13 14  1  0
 14 15  1  0
 14 16  2  0
 16 17  1  0
 17 18  2  0
 18 19  1  0
 19 20  2  0
 20 21  1  0
 21 22  2  0
  8 23  2  0
 23  4  1  0
 22 13  1  0
 22 17  1  0
  1 24  1  0
  1 25  1  0
  1 26  1  0
  2 27  1  0
  2 28  1  0
  5 29  1  0
  6 30  1  0
  7 31  1  0
 12 32  1  0
 12 33  1  0
 15 34  1  0
 15 35  1  0
 15 36  1  0
 16 37  1  0
 18 38  1  0
 19 39  1  0
 20 40  1  0
 21 41  1  0
 23 42  1  0
M  CHG  2   9  -1  16   1
M  END
>  <UniqueID>  (3) 
3

>  <SMILES>  (3) 
CCOc1cccc([N-]C(=O)Cn2c(C)[nH+]c3ccccc32)c1

>  <Energy>  (3) 
80.69378071235279

>  <Genealogy>  (3) 
CCOc1cccc([N-]C(=O)Cn2c(C)[nH+]c3ccccc32)c1 (protonated)
CCOc1cccc([N-]C(=O)Cn2c(C)[nH+]c3ccccc32)c1 (3D coordinates assigned)
CCOc1cccc([N-]C(=O)Cn2c(C)[nH+]c3ccccc32)c1 (optimized conformer: 80.69378071235279 kcal/mol)

>  <smiles>  (3) 
CCOc1cccc(NC(=O)Cn2c(C)nc3ccccc32)c1

>  <score_type>  (3) 
oracle

>  <origin>  (3) 
adg

>  <m_score__min__energy>  (3) 
-7.6200000000000001

>  <m_primary>  (3) 
energy

$$$$
3:0
     RDKit          3D

 32 34  0  0  0  0  0  0  0  0999 V2000
   59.0470   27.5060   45.1260 O   0  0  0  0  0  0  0  0  0  0  0  0
   58.1660   26.6150   45.2610 C   0  0  0  0  0  0  0  0  0  0  0  0
   58.5330   25.3070   45.1870 N   0  0  0  0  0  0  0  0  0  0  0  0
   57.6290   24.3030   45.3800 C   0  0  0  0  0  0  0  0  0  0  0  0
   58.0100   22.9430   45.2990 C   0  0  0  0  0  0  0  0  0  0  0  0
   59.8040   22.3930   44.8980 Br  0  0  0  0  0  0  0  0  0  0  0  0
   57.0600   21.9400   45.5150 C   0  0  0  0  0  0  0  0  0  0  0  0
   55.7350   22.2690   45.8120 C   0  0  0  0  0  0  0  0  0  0  0  0
   54.4510   20.8840   46.1020 Br  0  0  0  0  0  0  0  0  0  0  0  0
   55.3480   23.6070   45.8930 C   0  0  0  0  0  0  0  0  0  0  0  0
   56.2890   24.6320   45.6770 C   0  0  0  0  0  0  0  0  0  0  0  0
   55.9310   25.9890   45.7410 C   0  0  0  0  0  0  0  0  0  0  0  0
   54.7390   26.3180   46.0010 O   0  0  0  0  0  0  0  0  0  0  0  0
   56.8620   26.9570   45.5040 N   0  0  0  0  0  0  0  0  0  0  0  0
   56.4520   28.3050   45.5460 N   0  0  0  0  0  0  0  0  0  0  0  0
   56.5710   29.3780   44.1870 S   0  0  0  0  0  0  0  0  0  0  0  0
   57.3340   28.7020   43.0850 O   0  0  0  0  0  0  0  0  0  0  0  0
   55.1900   29.7160   43.6980 O   0  0  0  0  0  0  0  0  0  0  0  0
   57.4400   30.8380   44.6580 C   0  0  0  0  0  0  0  0  0  0  0  0
   58.1010   30.8840   45.8930 C   0  0  0  0  0  0  0  0  0  0  0  0
   58.7670   32.0470   46.2920 C   0  0  0  0  0  0  0  0  0  0  0  0
   58.7790   33.1680   45.4560 C   0  0  0  0  0  0  0  0  0  0  0  0
   59.6860   34.7580   46.0030 Br  0  0  0  0  0  0  0  0  0  0  0  0
   58.1260   33.1240   44.2200 C   0  0  0  0  0  0  0  0  0  0  0  0
   57.4580   31.9620   43.8200 C   0  0  0  0  0  0  0  0  0  0  0  0
   59.5350   25.0920   44.9880 H   0  0  0  0  0  0  0  0  0  0  0  0
   57.3583   20.8832   45.4506 H   0  0  0  0  0  0  0  0  0  0  0  0
   54.3038   23.8622   46.1265 H   0  0  0  0  0  0  0  0  0  0  0  0
   58.0959   30.0023   46.5506 H   0  0  0  0  0  0  0  0  0  0  0  0
   59.2816   32.0801   47.2637 H   0  0  0  0  0  0  0  0  0  0  0  0
   58.1378   34.0048   43.5612 H   0  0  0  0  0  0  0  0  0  0  0  0
   56.9462   31.9299   42.8468 H   0  0  0  0  0  0  0  0  0  0  0  0
  1  2  2  0
  2  3  1  0
  3  4  1  0
  4  5  2  0
  5  6  1  0
  5  7  1  0
  7  8  2  0
  8  9  1  0
  8 10  1  0
 10 11  2  0
 11 12  1  0
 12 13  2  0
 12 14  1  0
 14 15  1  0
 15 16  1  0
 16 17  2  0
 16 18  2  0
 16 19  1  0
 19 20  2  0
 20 21  1  0
 21 22  2  0
 22 23  1  0
 22 24  1  0
 24 25  2  0
 14  2  1  0
 25 19  1  0
 11  4  1  0
  3 26  1  0
  7 27  1  0
 10 28  1  0
 20 29  1  0
 21 30  1  0
 24 31  1  0
 25 32  1  0
M  CHG  1  15  -1
M  END
>  <UniqueID>  (4) 
4

>  <SMILES>  (4) 
O=c1[nH]c2c(Br)cc(Br)cc2c(=O)n1[N-]S(=O)(=O)c1ccc(Br)cc1

>  <Energy>  (4) 
49.90271276753699

>  <Genealogy>  (4) 
O=c1[nH]c2c(Br)cc(Br)cc2c(=O)n1[N-]S(=O)(=O)c1ccc(Br)cc1 (protonated)
O=c1[nH]c2c(Br)cc(Br)cc2c(=O)n1[N-]S(=O)(=O)c1ccc(Br)cc1 (3D coordinates assigned)
O=c1[nH]c2c(Br)cc(Br)cc2c(=O)n1[N-]S(=O)(=O)c1ccc(Br)cc1 (optimized conformer: 49.90271276753699 kcal/mol)

>  <smiles>  (4) 
O=c1[nH]c2c(Br)cc(Br)cc2c(=O)n1NS(=O)(=O)c1ccc(Br)cc1

>  <score_type>  (4) 
oracle

>  <origin>  (4) 
adg

>  <m_score__min__energy>  (4) 
-10.31

>  <m_primary>  (4) 
energy

$$$$
4:0
     RDKit          3D

 62 64  0  0  0  0  0  0  0  0999 V2000
   53.3070   24.5150   45.2540 C   0  0  0  0  0  0  0  0  0  0  0  0
   54.2020   25.5530   45.6510 O   0  0  0  0  0  0  0  0  0  0  0  0
   55.5530   25.3580   45.9710 C   0  0  0  0  0  0  0  0  0  0  0  0
   55.9280   24.1310   46.5190 C   0  0  0  0  0  0  0  0  0  0  0  0
   57.2490   23.9010   46.8930 C   0  0  0  0  0  0  0  0  0  0  0  0
   58.2150   24.8940   46.7180 C   0  0  0  0  0  0  0  0  0  0  0  0
   57.8890   26.1330   46.1130 C   0  0  0  0  0  0  0  0  0  0  0  0
   58.9450   27.2560   45.9450 C   0  0  0  0  0  0  0  0  0  0  0  0
   60.3120   26.7470   46.2330 C   0  0  0  0  0  0  0  0  0  0  0  0
   61.3790   26.3570   46.4600 N   0  0  0  0  0  0  0  0  0  0  0  0
   58.6710   28.4030   46.9670 C   0  0  0  0  0  0  0  0  0  0  0  0
   57.7850   29.5160   46.3890 C   0  0  0  0  0  0  0  0  0  0  0  0
   58.3260   30.1300   45.1410 N   0  0  0  0  0  0  0  0  0  0  0  0
   57.2320   30.5400   44.2250 C   0  0  0  0  0  0  0  0  0  0  0  0
   57.7230   31.5880   43.1990 C   0  0  0  0  0  0  0  0  0  0  0  0
   57.8100   33.0050   43.7880 C   0  0  0  0  0  0  0  0  0  0  0  0
   58.5190   32.9990   45.0710 N   0  0  0  0  0  0  0  0  0  0  0  0
   59.2730   34.1290   45.5450 C   0  0  0  0  0  0  0  0  0  0  0  0
   59.2560   35.2090   44.8950 O   0  0  0  0  0  0  0  0  0  0  0  0
   60.1390   34.0290   46.7490 C   0  0  0  0  0  0  0  0  0  0  0  0
   61.4630   33.8220   46.6280 C   0  0  0  0  0  0  0  0  0  0  0  0
   62.3160   33.7200   47.7800 N   0  0  0  0  0  0  0  0  0  0  0  0
   63.7520   33.4890   47.5920 C   0  0  0  0  0  0  0  0  0  0  0  0
   61.7370   33.6630   49.0900 C   0  0  0  0  0  0  0  0  0  0  0  0
   62.4640   33.4380   50.0990 O   0  0  0  0  0  0  0  0  0  0  0  0
   60.3210   33.8500   49.2430 N   0  0  0  0  0  0  0  0  0  0  0  0
   59.7390   33.8350   50.5830 C   0  0  0  0  0  0  0  0  0  0  0  0
   59.4930   34.2670   48.1030 C   0  0  0  0  0  0  0  0  0  0  0  0
   59.3420   29.2970   44.4500 C   0  0  0  0  0  0  0  0  0  0  0  0
   58.9780   27.8040   44.4800 C   0  0  0  0  0  0  0  0  0  0  0  0
   56.5310   26.3510   45.7660 C   0  0  0  0  0  0  0  0  0  0  0  0
   52.8886   24.0297   46.1481 H   0  0  0  0  0  0  0  0  0  0  0  0
   52.4910   24.9440   44.6539 H   0  0  0  0  0  0  0  0  0  0  0  0
   53.8514   23.7710   44.6539 H   0  0  0  0  0  0  0  0  0  0  0  0
   55.1754   23.3406   46.6563 H   0  0  0  0  0  0  0  0  0  0  0  0
   57.5334   22.9318   47.3287 H   0  0  0  0  0  0  0  0  0  0  0  0
   59.2459   24.7113   47.0554 H   0  0  0  0  0  0  0  0  0  0  0  0
   58.1693   27.9763   47.8480 H   0  0  0  0  0  0  0  0  0  0  0  0
   59.6403   28.8530   47.2275 H   0  0  0  0  0  0  0  0  0  0  0  0
   56.7955   29.0906   46.1654 H   0  0  0  0  0  0  0  0  0  0  0  0
   57.7394   30.3140   47.1448 H   0  0  0  0  0  0  0  0  0  0  0  0
   56.8653   29.6544   43.6854 H   0  0  0  0  0  0  0  0  0  0  0  0
   56.4272   30.9906   44.8243 H   0  0  0  0  0  0  0  0  0  0  0  0
   58.7220   31.2925   42.8459 H   0  0  0  0  0  0  0  0  0  0  0  0
   56.9909   31.6155   42.3784 H   0  0  0  0  0  0  0  0  0  0  0  0
   58.3485   33.6551   43.0827 H   0  0  0  0  0  0  0  0  0  0  0  0
   56.7887   33.3783   43.9542 H   0  0  0  0  0  0  0  0  0  0  0  0
   58.5090   32.1130   45.6210 H   0  0  0  0  0  0  0  0  0  0  0  0
   61.9026   33.7287   45.6240 H   0  0  0  0  0  0  0  0  0  0  0  0
   64.2423   33.4101   48.5735 H   0  0  0  0  0  0  0  0  0  0  0  0
   63.9028   32.5551   47.0307 H   0  0  0  0  0  0  0  0  0  0  0  0
   64.1880   34.3285   47.0307 H   0  0  0  0  0  0  0  0  0  0  0  0
   60.5438   33.8557   51.3326 H   0  0  0  0  0  0  0  0  0  0  0  0
   59.0944   34.7168   50.7127 H   0  0  0  0  0  0  0  0  0  0  0  0
   59.1406   32.9211   50.7127 H   0  0  0  0  0  0  0  0  0  0  0  0
   58.5478   33.7055   48.1385 H   0  0  0  0  0  0  0  0  0  0  0  0
   59.3451   35.3529   48.1980 H   0  0  0  0  0  0  0  0  0  0  0  0
   59.4164   29.6236   43.4022 H   0  0  0  0  0  0  0  0  0  0  0  0
   60.3003   29.4242   44.9748 H   0  0  0  0  0  0  0  0  0  0  0  0
   57.9862   27.6678   44.0241 H   0  0  0  0  0  0  0  0  0  0  0  0
   59.7440   27.2487   43.9189 H   0  0  0  0  0  0  0  0  0  0  0  0
   56.2354   27.3156   45.3277 H   0  0  0  0  0  0  0  0  0  0  0  0
  1  2  1  0
  2  3  1  0
  3  4  2  0
  4  5  1  0
  5  6  2  0
  6  7  1  0
  7  8  1  0
  8  9  1  0
  9 10  3  0
  8 11  1  0
 11 12  1  0
 12 13  1  0
 13 14  1  0
 14 15  1  0
 15 16  1  0
 16 17  1  0
 17 18  1  0
 18 19  2  0
 18 20  1  0
 20 21  2  0
 21 22  1  0
 22 23  1  0
 22 24  1  0
 24 25  2  0
 24 26  1  0
 26 27  1  0
 26 28  1  0
 13 29  1  0
 29 30  1  0
  7 31  2  0
 31  3  1  0
 30  8  1  0
 28 20  1  0
  1 32  1  0
  1 33  1  0
  1 34  1  0
  4 35  1  0
  5 36  1  0
  6 37  1  0
 11 38  1  0
 11 39  1  0
 12 40  1  0
 12 41  1  0
 14 42  1  0
 14 43  1  0
 15 44  1  0
 15 45  1  0
 16 46  1  0
 16 47  1  0
 17 48  1  0
 21 49  1  0
 23 50  1  0
 23 51  1  0
 23 52  1  0
 27 53  1  0
 27 54  1  0
 27 55  1  0
 28 56  1  0
 28 57  1  0
 29 58  1  0
 29 59  1  0
 30 60  1  0
 30 61  1  0
 31 62  1  0
M  END
>  <UniqueID>  (5) 
5

>  <SMILES>  (5) 
COc1cccc(C2(C#N)CCN(CCCNC(=O)C3=CN(C)C(=O)N(C)C3)CC2)c1

>  <Energy>  (5) 
75.33487249045639

>  <Genealogy>  (5) 
COc1cccc(C2(C#N)CCN(CCCNC(=O)C3=CN(C)C(=O)N(C)C3)CC2)c1 (3D coordinates assigned)
COc1cccc(C2(C#N)CCN(CCCNC(=O)C3=CN(C)C(=O)N(C)C3)CC2)c1 (nonaromatic ring conformer: 75.33487249045639 kcal/mol)

>  <smiles>  (5) 
COc1cccc(C2(C#N)CCN(CCCNC(=O)C3=CN(C)C(=O)N(C)C3)CC2)c1

>  <score_type>  (5) 
oracle

>  <origin>  (5) 
adg

>  <m_score__min__energy>  (5) 
-9.2200000000000006

>  <m_primary>  (5) 
energy

$$$$
5:0
     RDKit          3D

 43 45  0  0  0  0  0  0  0  0999 V2000
   57.6150   32.3440   41.1590 C   0  0  0  0  0  0  0  0  0  0  0  0
   57.0620   31.3190   42.1450 C   0  0  0  0  0  0  0  0  0  0  0  0
   57.5140   31.6280   43.5490 C   0  0  0  0  0  0  0  0  0  0  0  0
   57.9720   32.8830   43.8050 N   0  0  0  0  0  0  0  0  0  0  0  0
   58.3790   33.2600   45.0420 C   0  0  0  0  0  0  0  0  0  0  0  0
   58.8510   34.5560   45.2670 C   0  0  0  0  0  0  0  0  0  0  0  0
   59.2720   34.9330   46.5460 C   0  0  0  0  0  0  0  0  0  0  0  0
   59.2160   34.0200   47.6120 C   0  0  0  0  0  0  0  0  0  0  0  0
   59.6760   34.4350   48.9840 C   0  0  0  0  0  0  0  0  0  0  0  0
   61.0230   34.9080   48.9450 O   0  0  0  0  0  0  0  0  0  0  0  0
   62.1680   34.0940   48.9380 C   0  0  0  0  0  0  0  0  0  0  0  0
   62.6150   33.4180   47.7850 C   0  0  0  0  0  0  0  0  0  0  0  0
   63.7600   32.6170   47.8380 C   0  0  0  0  0  0  0  0  0  0  0  0
   64.4690   32.4840   49.0350 C   0  0  0  0  0  0  0  0  0  0  0  0
   64.0350   33.1560   50.1810 C   0  0  0  0  0  0  0  0  0  0  0  0
   62.8900   33.9570   50.1310 C   0  0  0  0  0  0  0  0  0  0  0  0
   58.7520   32.7130   47.3790 C   0  0  0  0  0  0  0  0  0  0  0  0
   58.3270   32.3310   46.0970 C   0  0  0  0  0  0  0  0  0  0  0  0
   57.8620   31.0740   45.8560 N   0  0  0  0  0  0  0  0  0  0  0  0
   57.4350   30.6950   44.6140 C   0  0  0  0  0  0  0  0  0  0  0  0
   56.9550   29.2760   44.4180 C   0  0  0  0  0  0  0  0  0  0  0  0
   58.1330   28.3340   44.1860 C   0  0  0  0  0  0  0  0  0  0  0  0
   58.0661   33.1800   41.7136 H   0  0  0  0  0  0  0  0  0  0  0  0
   58.3792   31.8690   40.5263 H   0  0  0  0  0  0  0  0  0  0  0  0
   56.7983   32.7219   40.5263 H   0  0  0  0  0  0  0  0  0  0  0  0
   55.9628   31.3392   42.1075 H   0  0  0  0  0  0  0  0  0  0  0  0
   57.4368   30.3233   41.8654 H   0  0  0  0  0  0  0  0  0  0  0  0
   58.8913   35.2788   44.4388 H   0  0  0  0  0  0  0  0  0  0  0  0
   59.6497   35.9516   46.7186 H   0  0  0  0  0  0  0  0  0  0  0  0
   59.0224   35.2377   49.3562 H   0  0  0  0  0  0  0  0  0  0  0  0
   59.6277   33.5620   49.6515 H   0  0  0  0  0  0  0  0  0  0  0  0
   62.0613   33.5208   46.8401 H   0  0  0  0  0  0  0  0  0  0  0  0
   64.1035   32.0903   46.9354 H   0  0  0  0  0  0  0  0  0  0  0  0
   65.3677   31.8510   49.0751 H   0  0  0  0  0  0  0  0  0  0  0  0
   64.5944   33.0547   51.1227 H   0  0  0  0  0  0  0  0  0  0  0  0
   62.5532   34.4840   51.0359 H   0  0  0  0  0  0  0  0  0  0  0  0
   58.7220   31.9871   48.2049 H   0  0  0  0  0  0  0  0  0  0  0  0
   57.8300   30.3830   46.6400 H   0  0  0  0  0  0  0  0  0  0  0  0
   56.4063   28.9535   45.3152 H   0  0  0  0  0  0  0  0  0  0  0  0
   56.2983   29.2440   43.5362 H   0  0  0  0  0  0  0  0  0  0  0  0
   58.5392   28.0092   45.1553 H   0  0  0  0  0  0  0  0  0  0  0  0
   57.7935   27.4554   43.6177 H   0  0  0  0  0  0  0  0  0  0  0  0
   58.9154   28.8583   43.6177 H   0  0  0  0  0  0  0  0  0  0  0  0
  1  2  1  0
  2  3  1  0
  3  4  2  0
  4  5  1  0
  5  6  2  0
  6  7  1  0
  7  8  2  0
  8  9  1  0
  9 10  1  0
 10 11  1  0
 11 12  2  0
 12 13  1  0
 13 14  2  0
 14 15  1  0
 15 16  2  0
  8 17  1  0
 17 18  2  0
 18 19  1  0
 19 20  2  0
 20 21  1  0
 21 22  1  0
 20  3  1  0
 18  5  1  0
 16 11  1  0
  1 23  1  0
  1 24  1  0
  1 25  1  0
  2 26  1  0
  2 27  1  0
  6 28  1  0
  7 29  1  0
  9 30  1  0
  9 31  1  0
 12 32  1  0
 13 33  1  0
 14 34  1  0
 15 35  1  0
 16 36  1  0
 17 37  1  0
 19 38  1  0
 21 39  1  0
 21 40  1  0
 22 41  1  0
 22 42  1  0
 22 43  1  0
M  CHG  1  19   1
M  END
>  <UniqueID>  (6) 
6

>  <SMILES>  (6) 
CCc1nc2ccc(COc3ccccc3)cc2[nH+]c1CC

>  <Energy>  (6) 
43.287049805639946

>  <Genealogy>  (6) 
CCc1nc2ccc(COc3ccccc3)cc2[nH+]c1CC (protonated)
CCc1nc2ccc(COc3ccccc3)cc2[nH+]c1CC (3D coordinates assigned)
CCc1nc2ccc(COc3ccccc3)cc2[nH+]c1CC (optimized conformer: 43.287049805639946 kcal/mol)

>  <smiles>  (6) 
CCc1nc2ccc(COc3ccccc3)cc2nc1CC

>  <score_type>  (6) 
oracle

>  <origin>  (6) 
adg

>  <m_score__min__energy>  (6) 
-6.2000000000000002

>  <m_primary>  (6) 
energy

$$$$
6:0
     RDKit          3D

 46 48  0  0  0  0  0  0  0  0999 V2000
   60.9910   28.0100   50.6970 C   0  0  0  0  0  0  0  0  0  0  0  0
   61.1140   27.8180   49.2920 O   0  0  0  0  0  0  0  0  0  0  0  0
   60.0300   27.6960   48.4070 C   0  0  0  0  0  0  0  0  0  0  0  0
   59.7190   26.4800   47.7720 C   0  0  0  0  0  0  0  0  0  0  0  0
   58.6320   26.3940   46.9000 C   0  0  0  0  0  0  0  0  0  0  0  0
   57.8270   27.5170   46.6540 C   0  0  0  0  0  0  0  0  0  0  0  0
   56.6720   27.4330   45.7300 C   0  0  0  0  0  0  0  0  0  0  0  0
   56.2310   26.3020   45.3930 O   0  0  0  0  0  0  0  0  0  0  0  0
   56.0000   28.6030   45.2430 N   0  0  0  0  0  0  0  0  0  0  0  0
   56.6160   29.7210   44.5860 C   0  0  0  0  0  0  0  0  0  0  0  0
   56.4170   29.9720   43.2190 C   0  0  0  0  0  0  0  0  0  0  0  0
   57.0180   31.0770   42.6150 C   0  0  0  0  0  0  0  0  0  0  0  0
   57.8120   31.9460   43.3680 C   0  0  0  0  0  0  0  0  0  0  0  0
   58.0100   31.7190   44.7420 C   0  0  0  0  0  0  0  0  0  0  0  0
   58.8370   32.6440   45.5560 C   0  0  0  0  0  0  0  0  0  0  0  0
   59.0420   33.8180   45.1430 O   0  0  0  0  0  0  0  0  0  0  0  0
   59.3630   32.2350   46.8290 N   0  0  0  0  0  0  0  0  0  0  0  0
   60.4730   32.8770   47.4790 C   0  0  0  0  0  0  0  0  0  0  0  0
   61.7830   32.4920   47.1600 C   0  0  0  0  0  0  0  0  0  0  0  0
   62.8680   33.1240   47.7690 C   0  0  0  0  0  0  0  0  0  0  0  0
   62.6360   34.1510   48.6840 C   0  0  0  0  0  0  0  0  0  0  0  0
   61.3630   34.5330   48.9690 N   0  0  0  0  0  0  0  0  0  0  0  0
   60.2890   33.9300   48.3910 C   0  0  0  0  0  0  0  0  0  0  0  0
   57.3920   30.6070   45.3440 C   0  0  0  0  0  0  0  0  0  0  0  0
   58.1460   28.7350   47.2760 C   0  0  0  0  0  0  0  0  0  0  0  0
   59.2410   28.8290   48.1570 C   0  0  0  0  0  0  0  0  0  0  0  0
   59.5780   30.0300   48.8030 O   0  0  0  0  0  0  0  0  0  0  0  0
   58.8030   30.6400   49.8300 C   0  0  0  0  0  0  0  0  0  0  0  0
   61.5115   27.1975   51.2251 H   0  0  0  0  0  0  0  0  0  0  0  0
   61.4395   28.9749   50.9759 H   0  0  0  0  0  0  0  0  0  0  0  0
   59.9269   28.0060   50.9759 H   0  0  0  0  0  0  0  0  0  0  0  0
   60.3367   25.5903   47.9638 H   0  0  0  0  0  0  0  0  0  0  0  0
   58.4050   25.4396   46.4024 H   0  0  0  0  0  0  0  0  0  0  0  0
   55.7861   29.2962   42.6230 H   0  0  0  0  0  0  0  0  0  0  0  0
   56.8661   31.2648   41.5418 H   0  0  0  0  0  0  0  0  0  0  0  0
   58.2850   32.8128   42.8834 H   0  0  0  0  0  0  0  0  0  0  0  0
   58.8420   31.5040   47.3640 H   0  0  0  0  0  0  0  0  0  0  0  0
   61.9559   31.6896   46.4277 H   0  0  0  0  0  0  0  0  0  0  0  0
   63.8963   32.8152   47.5298 H   0  0  0  0  0  0  0  0  0  0  0  0
   63.4834   34.6518   49.1750 H   0  0  0  0  0  0  0  0  0  0  0  0
   59.2721   34.2683   48.6388 H   0  0  0  0  0  0  0  0  0  0  0  0
   57.5199   30.4317   46.4224 H   0  0  0  0  0  0  0  0  0  0  0  0
   57.5337   29.6259   47.0728 H   0  0  0  0  0  0  0  0  0  0  0  0
   59.1912   30.3344   50.8128 H   0  0  0  0  0  0  0  0  0  0  0  0
   58.8650   31.7342   49.7353 H   0  0  0  0  0  0  0  0  0  0  0  0
   57.7540   30.3227   49.7353 H   0  0  0  0  0  0  0  0  0  0  0  0
  1  2  1  0
  2  3  1  0
  3  4  2  0
  4  5  1  0
  5  6  2  0
  6  7  1  0
  7  8  2  0
  7  9  1  0
  9 10  1  0
 10 11  2  0
 11 12  1  0
 12 13  2  0
 13 14  1  0
 14 15  1  0
 15 16  2  0
 15 17  1  0
 17 18  1  0
 18 19  2  0
 19 20  1  0
 20 21  2  0
 21 22  1  0
 22 23  2  0
 14 24  2  0
  6 25  1  0
 25 26  2  0
 26 27  1  0
 27 28  1  0
 26  3  1  0
 24 10  1  0
 23 18  1  0
  1 29  1  0
  1 30  1  0
  1 31  1  0
  4 32  1  0
  5 33  1  0
 11 34  1  0
 12 35  1  0
 13 36  1  0
 17 37  1  0
 19 38  1  0
 20 39  1  0
 21 40  1  0
 23 41  1  0
 24 42  1  0
 25 43  1  0
 28 44  1  0
 28 45  1  0
 28 46  1  0
M  CHG  1   9  -1
M  END
>  <UniqueID>  (7) 
7

>  <SMILES>  (7) 
COc1ccc(C(=O)[N-]c2cccc(C(=O)Nc3cccnc3)c2)cc1OC

>  <Energy>  (7) 
60.93846322495968

>  <Genealogy>  (7) 
COc1ccc(C(=O)[N-]c2cccc(C(=O)Nc3cccnc3)c2)cc1OC (protonated)
COc1ccc(C(=O)[N-]c2cccc(C(=O)Nc3cccnc3)c2)cc1OC (3D coordinates assigned)
COc1ccc(C(=O)[N-]c2cccc(C(=O)Nc3cccnc3)c2)cc1OC (optimized conformer: 60.93846322495968 kcal/mol)

>  <smiles>  (7) 
COc1ccc(C(=O)Nc2cccc(C(=O)Nc3cccnc3)c2)cc1OC

>  <score_type>  (7) 
oracle

>  <origin>  (7) 
adg

>  <m_score__min__energy>  (7) 
-9.6999999999999993

>  <m_primary>  (7) 
energy

$$$$
7:0
     RDKit          3D

 43 45  0  0  0  0  0  0  0  0999 V2000
   59.1550   22.1620   44.5300 C   0  0  0  0  0  0  0  0  0  0  0  0
   57.7950   22.4870   44.1120 N   0  0  0  0  0  0  0  0  0  0  0  0
   57.1040   21.9130   43.1080 C   0  0  0  0  0  0  0  0  0  0  0  0
   55.8690   22.4390   42.9590 N   0  0  0  0  0  0  0  0  0  0  0  0
   55.7880   23.3860   43.9160 C   0  0  0  0  0  0  0  0  0  0  0  0
   56.9680   23.4170   44.6280 C   0  0  0  0  0  0  0  0  0  0  0  0
   57.2790   24.3380   45.7740 C   0  0  0  0  0  0  0  0  0  0  0  0
   57.4860   25.6970   45.2890 N   0  0  0  0  0  0  0  0  0  0  0  0
   56.7340   26.8260   45.7490 C   0  0  0  0  0  0  0  0  0  0  0  0
   55.5050   26.6990   45.9990 O   0  0  0  0  0  0  0  0  0  0  0  0
   57.3980   28.1380   45.9370 C   0  0  0  0  0  0  0  0  0  0  0  0
   58.3080   28.3370   46.9890 C   0  0  0  0  0  0  0  0  0  0  0  0
   58.9320   29.5760   47.1650 C   0  0  0  0  0  0  0  0  0  0  0  0
   58.6610   30.6430   46.2920 C   0  0  0  0  0  0  0  0  0  0  0  0
   59.3280   31.9570   46.4760 C   0  0  0  0  0  0  0  0  0  0  0  0
   58.5880   33.1520   46.4030 C   0  0  0  0  0  0  0  0  0  0  0  0
   59.2210   34.3870   46.5650 C   0  0  0  0  0  0  0  0  0  0  0  0
   60.5950   34.4460   46.8050 C   0  0  0  0  0  0  0  0  0  0  0  0
   61.3450   33.2660   46.8890 C   0  0  0  0  0  0  0  0  0  0  0  0
   63.0820   33.3320   47.1710 S   0  0  0  0  0  0  0  0  0  0  0  0
   63.7440   31.7390   47.0760 N   0  0  0  0  0  0  0  0  0  0  0  0
   63.3500   33.9080   48.5330 O   0  0  0  0  0  0  0  0  0  0  0  0
   63.7390   34.2070   46.1410 O   0  0  0  0  0  0  0  0  0  0  0  0
   60.7130   32.0270   46.7180 C   0  0  0  0  0  0  0  0  0  0  0  0
   57.7510   30.4450   45.2400 C   0  0  0  0  0  0  0  0  0  0  0  0
   57.1270   29.2070   45.0640 C   0  0  0  0  0  0  0  0  0  0  0  0
   59.2078   22.1494   45.6287 H   0  0  0  0  0  0  0  0  0  0  0  0
   59.4324   21.1723   44.1382 H   0  0  0  0  0  0  0  0  0  0  0  0
   59.8499   22.9194   44.1382 H   0  0  0  0  0  0  0  0  0  0  0  0
   57.5023   21.1039   42.4781 H   0  0  0  0  0  0  0  0  0  0  0  0
   54.9170   24.0322   44.0995 H   0  0  0  0  0  0  0  0  0  0  0  0
   56.4390   24.3301   46.4841 H   0  0  0  0  0  0  0  0  0  0  0  0
   58.1968   23.9921   46.2721 H   0  0  0  0  0  0  0  0  0  0  0  0
   58.5315   27.5109   47.6801 H   0  0  0  0  0  0  0  0  0  0  0  0
   59.6411   29.7165   47.9941 H   0  0  0  0  0  0  0  0  0  0  0  0
   57.5045   33.1134   46.2172 H   0  0  0  0  0  0  0  0  0  0  0  0
   58.6349   35.3158   46.5032 H   0  0  0  0  0  0  0  0  0  0  0  0
   61.0895   35.4208   46.9283 H   0  0  0  0  0  0  0  0  0  0  0  0
   64.5000   31.7660   46.3540 H   0  0  0  0  0  0  0  0  0  0  0  0
   64.2100   31.5470   47.9910 H   0  0  0  0  0  0  0  0  0  0  0  0
   61.3043   31.1011   46.7733 H   0  0  0  0  0  0  0  0  0  0  0  0
   57.5278   31.2714   44.5491 H   0  0  0  0  0  0  0  0  0  0  0  0
   56.4174   29.0673   44.2352 H   0  0  0  0  0  0  0  0  0  0  0  0
  1  2  1  0
  2  3  1  0
  3  4  2  0
  4  5  1  0
  5  6  2  0
  6  7  1  0
  7  8  1  0
  8  9  1  0
  9 10  2  0
  9 11  1  0
 11 12  2  0
 12 13  1  0
 13 14  2  0
 14 15  1  0
 15 16  2  0
 16 17  1  0
 17 18  2  0
 18 19  1  0
 19 20  1  0
 20 21  1  0
 20 22  2  0
 20 23  2  0
 19 24  2  0
 14 25  1  0
 25 26  2  0
  6  2  1  0
 26 11  1  0
 24 15  1  0
  1 27  1  0
  1 28  1  0
  1 29  1  0
  3 30  1  0
  5 31  1  0
  7 32  1  0
  7 33  1  0
 12 34  1  0
 13 35  1  0
 16 36  1  0
 17 37  1  0
 18 38  1  0
 21 39  1  0
 21 40  1  0
 24 41  1  0
 25 42  1  0
 26 43  1  0
M  CHG  1   8  -1
M  END
>  <UniqueID>  (8) 
8

>  <SMILES>  (8) 
Cn1cncc1C[N-]C(=O)c1ccc(-c2cccc(S(N)(=O)=O)c2)cc1

>  <Energy>  (8) 
76.23125034008004

>  <Genealogy>  (8) 
Cn1cncc1C[N-]C(=O)c1ccc(-c2cccc(S(N)(=O)=O)c2)cc1 (protonated)
Cn1cncc1C[N-]C(=O)c1ccc(-c2cccc(S(N)(=O)=O)c2)cc1 (3D coordinates assigned)
Cn1cncc1C[N-]C(=O)c1ccc(-c2cccc(S(N)(=O)=O)c2)cc1 (optimized conformer: 76.23125034008004 kcal/mol)

>  <smiles>  (8) 
Cn1cncc1CNC(=O)c1ccc(-c2cccc(S(N)(=O)=O)c2)cc1

>  <score_type>  (8) 
oracle

>  <origin>  (8) 
adg

>  <m_score__min__energy>  (8) 
-10.720000000000001

>  <m_primary>  (8) 
energy

$$$$
8:0
     RDKit          3D

 34 35  0  0  0  0  0  0  0  0999 V2000
   57.4710   26.2040   46.2320 C   0  0  0  0  0  0  0  0  0  0  0  0
   56.3260   27.0900   45.8730 C   0  0  0  0  0  0  0  0  0  0  0  0
   55.1460   26.6670   46.0020 O   0  0  0  0  0  0  0  0  0  0  0  0
   56.5800   28.3970   45.3490 N   0  0  0  0  0  0  0  0  0  0  0  0
   57.5630   28.6890   44.3050 C   0  0  1  0  0  0  0  0  0  0  0  0
   56.8900   29.5080   43.1810 C   0  0  0  0  0  0  0  0  0  0  0  0
   56.9390   31.0270   43.4350 C   0  0  0  0  0  0  0  0  0  0  0  0
   57.0270   31.3010   44.8810 N   0  0  0  0  0  0  0  0  0  0  0  0
   56.7080   32.7010   45.2310 C   0  0  0  0  0  0  0  0  0  0  0  0
   57.8840   33.4630   45.7820 C   0  0  0  0  0  0  0  0  0  0  0  0
   58.7650   34.2330   45.0490 C   0  0  0  0  0  0  0  0  0  0  0  0
   59.6610   34.7420   45.9630 C   0  0  0  0  0  0  0  0  0  0  0  0
   59.2730   34.2520   47.1940 C   0  0  0  0  0  0  0  0  0  0  0  0
   58.2110   33.4930   47.0530 O   0  0  0  0  0  0  0  0  0  0  0  0
   58.3120   30.8440   45.4590 C   0  0  0  0  0  0  0  0  0  0  0  0
   58.7590   29.4750   44.8880 C   0  0  1  0  0  0  0  0  0  0  0  0
   59.4090   28.7340   45.8890 O   0  0  0  0  0  0  0  0  0  0  0  0
   57.5551   26.1390   47.3269 H   0  0  0  0  0  0  0  0  0  0  0  0
   57.3015   25.1995   45.8169 H   0  0  0  0  0  0  0  0  0  0  0  0
   58.4008   26.6201   45.8169 H   0  0  0  0  0  0  0  0  0  0  0  0
   57.9398   27.7406   43.8945 H   0  0  0  0  0  0  0  0  0  0  0  0
   57.4058   29.2937   42.2334 H   0  0  0  0  0  0  0  0  0  0  0  0
   55.8309   29.2129   43.1461 H   0  0  0  0  0  0  0  0  0  0  0  0
   57.8200   31.4510   42.9310 H   0  0  0  0  0  0  0  0  0  0  0  0
   56.0212   31.4860   43.0389 H   0  0  0  0  0  0  0  0  0  0  0  0
   56.3533   33.2146   44.3252 H   0  0  0  0  0  0  0  0  0  0  0  0
   55.9419   32.6718   46.0198 H   0  0  0  0  0  0  0  0  0  0  0  0
   58.7537   34.4042   43.9625 H   0  0  0  0  0  0  0  0  0  0  0  0
   60.5135   35.4050   45.7542 H   0  0  0  0  0  0  0  0  0  0  0  0
   59.7771   34.4651   48.1482 H   0  0  0  0  0  0  0  0  0  0  0  0
   59.0870   31.5914   45.2338 H   0  0  0  0  0  0  0  0  0  0  0  0
   58.1706   30.7266   46.5435 H   0  0  0  0  0  0  0  0  0  0  0  0
   59.4630   29.6539   44.0619 H   0  0  0  0  0  0  0  0  0  0  0  0
   58.7090   28.1990   46.3480 H   0  0  0  0  0  0  0  0  0  0  0  0
  1  2  1  0
  2  3  2  0
  2  4  1  0
  4  5  1  0
  5  6  1  0
  6  7  1  0
  7  8  1  0
  8  9  1  0
  9 10  1  0
 10 11  2  0
 11 12  1  0
 12 13  2  0
 13 14  1  0
  8 15  1  0
 15 16  1  0
 16 17  1  0
 16  5  1  0
 14 10  1  0
  1 18  1  0
  1 19  1  0
  1 20  1  0
  5 21  1  6
  6 22  1  0
  6 23  1  0
  7 24  1  0
  7 25  1  0
  9 26  1  0
  9 27  1  0
 11 28  1  0
 12 29  1  0
 13 30  1  0
 15 31  1  0
 15 32  1  0
 16 33  1  6
 17 34  1  0
M  CHG  1   4  -1
M  END
>  <UniqueID>  (9) 
9

>  <SMILES>  (9) 
CC(=O)[N-][C@H]1CCN(Cc2ccco2)C[C@H]1O

>  <Energy>  (9) 
64.0519645077114

>  <Genealogy>  (9) 
CC(=O)[N-]C1CCN(Cc2ccco2)CC1O (protonated)
CC(=O)[N-][C@H]1CCN(Cc2ccco2)C[C@H]1O (chirality)
CC(=O)[N-][C@H]1CCN(Cc2ccco2)C[C@H]1O (3D coordinates assigned)
CC(=O)[N-][C@H]1CCN(Cc2ccco2)C[C@H]1O (nonaromatic ring conformer: 64.0519645077114 kcal/mol)

>  <smiles>  (9) 
CC(=O)NC1CCN(Cc2ccco2)CC1O

>  <score_type>  (9) 
oracle

>  <origin>  (9) 
adg

>  <m_score__min__energy>  (9) 
-8.0500000000000007

>  <m_primary>  (9) 
energy

$$$$
9:0
     RDKit          3D

 44 47  0  0  0  0  0  0  0  0999 V2000
   54.4460   25.1140   45.6050 C   0  0  0  0  0  0  0  0  0  0  0  0
   55.0970   26.3160   45.9950 O   0  0  0  0  0  0  0  0  0  0  0  0
   56.4350   26.3540   46.4010 C   0  0  0  0  0  0  0  0  0  0  0  0
   56.8400   25.5790   47.3110 O   0  0  0  0  0  0  0  0  0  0  0  0
   57.3750   27.3010   45.7600 C   0  0  0  0  0  0  0  0  0  0  0  0
   58.7090   26.9330   45.5160 C   0  0  0  0  0  0  0  0  0  0  0  0
   59.5880   27.8270   44.9000 C   0  0  0  0  0  0  0  0  0  0  0  0
   59.1460   29.0960   44.5180 C   0  0  0  0  0  0  0  0  0  0  0  0
   57.8190   29.4850   44.7560 C   0  0  0  0  0  0  0  0  0  0  0  0
   57.3560   30.7850   44.3360 N   0  0  0  0  0  0  0  0  0  0  0  0
   57.0000   30.9980   42.9300 C   0  0  0  0  0  0  0  0  0  0  0  0
   57.5270   31.9360   45.1910 C   0  0  0  0  0  0  0  0  0  0  0  0
   56.5830   32.7630   45.3150 O   0  0  0  0  0  0  0  0  0  0  0  0
   58.7810   32.1760   45.9290 C   0  0  0  0  0  0  0  0  0  0  0  0
   59.7260   33.1700   45.6620 C   0  0  0  0  0  0  0  0  0  0  0  0
   60.8120   33.1300   46.5430 C   0  0  0  0  0  0  0  0  0  0  0  0
   61.9040   34.0000   46.5260 C   0  0  0  0  0  0  0  0  0  0  0  0
   62.9240   33.8350   47.4760 C   0  0  0  0  0  0  0  0  0  0  0  0
   62.8500   32.8030   48.4370 C   0  0  0  0  0  0  0  0  0  0  0  0
   63.8690   32.6390   49.3870 C   0  0  0  0  0  0  0  0  0  0  0  0
   63.7890   31.6130   50.3340 C   0  0  0  0  0  0  0  0  0  0  0  0
   62.6930   30.7450   50.3420 C   0  0  0  0  0  0  0  0  0  0  0  0
   61.6680   30.8940   49.4050 C   0  0  0  0  0  0  0  0  0  0  0  0
   61.7360   31.9190   48.4470 C   0  0  0  0  0  0  0  0  0  0  0  0
   60.7350   32.1130   47.4850 C   0  0  0  0  0  0  0  0  0  0  0  0
   59.3140   31.2450   47.2370 S   0  0  0  0  0  0  0  0  0  0  0  0
   56.9400   28.5820   45.3800 C   0  0  0  0  0  0  0  0  0  0  0  0
   54.1426   24.5538   46.5017 H   0  0  0  0  0  0  0  0  0  0  0  0
   53.5561   25.3568   45.0058 H   0  0  0  0  0  0  0  0  0  0  0  0
   55.1356   24.5013   45.0058 H   0  0  0  0  0  0  0  0  0  0  0  0
   59.0634   25.9346   45.8119 H   0  0  0  0  0  0  0  0  0  0  0  0
   60.6312   27.5309   44.7152 H   0  0  0  0  0  0  0  0  0  0  0  0
   59.8415   29.7935   44.0284 H   0  0  0  0  0  0  0  0  0  0  0  0
   56.0574   31.5620   42.8718 H   0  0  0  0  0  0  0  0  0  0  0  0
   57.7989   31.5666   42.4316 H   0  0  0  0  0  0  0  0  0  0  0  0
   56.8766   30.0252   42.4316 H   0  0  0  0  0  0  0  0  0  0  0  0
   59.6269   33.9035   44.8483 H   0  0  0  0  0  0  0  0  0  0  0  0
   61.9641   34.8042   45.7779 H   0  0  0  0  0  0  0  0  0  0  0  0
   63.7883   34.5154   47.4719 H   0  0  0  0  0  0  0  0  0  0  0  0
   64.7334   33.3193   49.3871 H   0  0  0  0  0  0  0  0  0  0  0  0
   64.5918   31.4884   51.0757 H   0  0  0  0  0  0  0  0  0  0  0  0
   62.6377   29.9405   51.0902 H   0  0  0  0  0  0  0  0  0  0  0  0
   60.8076   30.2087   49.4173 H   0  0  0  0  0  0  0  0  0  0  0  0
   55.8994   28.8820   45.5730 H   0  0  0  0  0  0  0  0  0  0  0  0
  1  2  1  0
  2  3  1  0
  3  4  2  0
  3  5  1  0
  5  6  2  0
  6  7  1  0
  7  8  2  0
  8  9  1  0
  9 10  1  0
 10 11  1  0
 10 12  1  0
 12 13  2  0
 12 14  1  0
 14 15  2  0
 15 16  1  0
 16 17  2  0
 17 18  1  0
 18 19  2  0
 19 20  1  0
 20 21  2  0
 21 22  1  0
 22 23  2  0
 23 24  1  0
 24 25  2  0
 25 26  1  0
  9 27  2  0
 27  5  1  0
 26 14  1  0
 25 16  1  0
 24 19  1  0
  1 28  1  0
  1 29  1  0
  1 30  1  0
  6 31  1  0
  7 32  1  0
  8 33  1  0
 11 34  1  0
 11 35  1  0
 11 36  1  0
 15 37  1  0
 17 38  1  0
 18 39  1  0
 20 40  1  0
 21 41  1  0
 22 42  1  0
 23 43  1  0
 27 44  1  0
M  END
>  <UniqueID>  (10) 
10

>  <SMILES>  (10) 
COC(=O)c1cccc(N(C)C(=O)c2cc3ccc4ccccc4c3s2)c1

>  <Energy>  (10) 
87.23066095077672

>  <Genealogy>  (10) 
COC(=O)c1cccc(N(C)C(=O)c2cc3ccc4ccccc4c3s2)c1 (3D coordinates assigned)
COC(=O)c1cccc(N(C)C(=O)c2cc3ccc4ccccc4c3s2)c1 (optimized conformer: 87.23066095077672 kcal/mol)

>  <smiles>  (10) 
COC(=O)c1cccc(N(C)C(=O)c2cc3ccc4ccccc4c3s2)c1

>  <score_type>  (10) 
oracle

>  <origin>  (10) 
adg

>  <m_score__min__energy>  (10) 
-9.3000000000000007

>  <m_primary>  (10) 
energy

$$$$
10:0
     RDKit          3D

 31 32  0  0  0  0  0  0  0  0999 V2000
   64.1110   32.6520   47.1990 N   0  0  0  0  0  0  0  0  0  0  0  0
   63.2020   33.9150   46.3570 S   0  0  0  0  0  0  0  0  0  0  0  0
   61.7900   33.8550   47.4850 C   0  0  0  0  0  0  0  0  0  0  0  0
   62.0710   33.8560   48.8580 C   0  0  0  0  0  0  0  0  0  0  0  0
   61.0300   33.8490   49.7800 C   0  0  0  0  0  0  0  0  0  0  0  0
   59.7150   33.8660   49.3310 C   0  0  0  0  0  0  0  0  0  0  0  0
   59.4580   33.8880   47.9610 C   0  0  0  0  0  0  0  0  0  0  0  0
   60.4810   33.8600   47.0470 N   0  0  0  0  0  0  0  0  0  0  0  0
   60.1230   33.9310   45.6140 C   0  0  0  0  0  0  0  0  0  0  0  0
   58.6020   33.9920   45.3900 C   0  0  0  0  0  0  0  0  0  0  0  0
   58.0760   32.7530   44.7180 C   0  0  0  0  0  0  0  0  0  0  0  0
   57.7740   31.6080   45.4730 C   0  0  0  0  0  0  0  0  0  0  0  0
   57.2820   30.4590   44.8450 C   0  0  0  0  0  0  0  0  0  0  0  0
   57.0920   30.4460   43.4600 C   0  0  0  0  0  0  0  0  0  0  0  0
   57.3980   31.5780   42.7000 C   0  0  0  0  0  0  0  0  0  0  0  0
   57.8930   32.7280   43.3240 C   0  0  0  0  0  0  0  0  0  0  0  0
   64.9050   33.0970   47.7070 H   0  0  0  0  0  0  0  0  0  0  0  0
   64.5200   32.0180   46.4760 H   0  0  0  0  0  0  0  0  0  0  0  0
   63.1144   33.8623   49.2062 H   0  0  0  0  0  0  0  0  0  0  0  0
   61.2462   33.8301   50.8584 H   0  0  0  0  0  0  0  0  0  0  0  0
   58.8834   33.8621   50.0510 H   0  0  0  0  0  0  0  0  0  0  0  0
   58.4174   33.9285   47.6067 H   0  0  0  0  0  0  0  0  0  0  0  0
   60.5801   34.8327   45.1803 H   0  0  0  0  0  0  0  0  0  0  0  0
   60.4961   33.0163   45.1301 H   0  0  0  0  0  0  0  0  0  0  0  0
   58.1047   34.1045   46.3647 H   0  0  0  0  0  0  0  0  0  0  0  0
   58.3918   34.8480   44.7319 H   0  0  0  0  0  0  0  0  0  0  0  0
   57.9250   31.6147   46.5626 H   0  0  0  0  0  0  0  0  0  0  0  0
   57.0445   29.5655   45.4410 H   0  0  0  0  0  0  0  0  0  0  0  0
   56.7010   29.5433   42.9678 H   0  0  0  0  0  0  0  0  0  0  0  0
   57.2495   31.5648   41.6101 H   0  0  0  0  0  0  0  0  0  0  0  0
   58.1398   33.6153   42.7225 H   0  0  0  0  0  0  0  0  0  0  0  0
  1  2  1  0
  2  3  1  0
  3  4  2  0
  4  5  1  0
  5  6  2  0
  6  7  1  0
  7  8  2  0
  8  9  1  0
  9 10  1  0
 10 11  1  0
 11 12  2  0
 12 13  1  0
 13 14  2  0
 14 15  1  0
 15 16  2  0
  8  3  1  0
 16 11  1  0
  1 17  1  0
  1 18  1  0
  4 19  1  0
  5 20  1  0
  6 21  1  0
  7 22  1  0
  9 23  1  0
  9 24  1  0
 10 25  1  0
 10 26  1  0
 12 27  1  0
 13 28  1  0
 14 29  1  0
 15 30  1  0
 16 31  1  0
M  CHG  1   8   1
M  END
>  <UniqueID>  (11) 
11

>  <SMILES>  (11) 
NSc1cccc[n+]1CCc1ccccc1

>  <Energy>  (11) 
30.11820339485359

>  <Genealogy>  (11) 
NSc1cccc[n+]1CCc1ccccc1 (3D coordinates assigned)
NSc1cccc[n+]1CCc1ccccc1 (optimized conformer: 30.11820339485359 kcal/mol)

>  <smiles>  (11) 
NSc1cccc[n+]1CCc1ccccc1

>  <score_type>  (11) 
oracle

>  <origin>  (11) 
adg

>  <m_score__min__energy>  (11) 
-5.4299999999999997

>  <m_primary>  (11) 
energy

$$$$
11:0
     RDKit          3D

 47 50  0  0  0  0  0  0  0  0999 V2000
   57.3420   32.4570   44.9570 C   0  0  0  0  0  0  0  0  0  0  0  0
   58.5850   32.1970   45.7410 C   0  0  0  0  0  0  0  0  0  0  0  0
   59.0750   33.0050   46.6520 O   0  0  0  0  0  0  0  0  0  0  0  0
   60.1570   32.4340   47.1430 C   0  0  0  0  0  0  0  0  0  0  0  0
   60.9890   33.0460   48.2060 C   0  0  0  0  0  0  0  0  0  0  0  0
   60.4790   33.2830   49.4980 C   0  0  0  0  0  0  0  0  0  0  0  0
   61.2880   33.8640   50.4810 C   0  0  0  0  0  0  0  0  0  0  0  0
   62.6070   34.2150   50.1880 C   0  0  0  0  0  0  0  0  0  0  0  0
   63.3870   34.7780   51.1430 F   0  0  0  0  0  0  0  0  0  0  0  0
   63.1220   33.9860   48.9100 C   0  0  0  0  0  0  0  0  0  0  0  0
   62.3200   33.4060   47.9230 C   0  0  0  0  0  0  0  0  0  0  0  0
   60.3960   31.2370   46.5600 N   0  0  0  0  0  0  0  0  0  0  0  0
   59.4000   31.0870   45.6700 C   0  0  0  0  0  0  0  0  0  0  0  0
   59.2080   29.8750   44.8040 C   0  0  0  0  0  0  0  0  0  0  0  0
   57.8970   29.2340   45.0480 N   0  0  0  0  0  0  0  0  0  0  0  0
   57.3350   28.5320   43.8700 C   0  0  0  0  0  0  0  0  0  0  0  0
   58.1360   27.3010   43.4130 C   0  0  0  0  0  0  0  0  0  0  0  0
   57.7550   26.0760   44.1920 C   0  0  0  0  0  0  0  0  0  0  0  0
   57.2610   24.9500   43.5130 C   0  0  0  0  0  0  0  0  0  0  0  0
   56.9130   23.7970   44.2210 C   0  0  0  0  0  0  0  0  0  0  0  0
   56.4010   22.6440   43.5300 C   0  0  0  0  0  0  0  0  0  0  0  0
   55.9880   21.7160   42.9730 N   0  0  0  0  0  0  0  0  0  0  0  0
   57.0670   23.7790   45.6070 C   0  0  0  0  0  0  0  0  0  0  0  0
   57.5590   24.8680   46.2500 N   0  0  0  0  0  0  0  0  0  0  0  0
   57.9220   26.0070   45.5950 C   0  0  0  0  0  0  0  0  0  0  0  0
   58.4540   27.1480   46.4340 C   0  0  0  0  0  0  0  0  0  0  0  0
   57.7400   28.5210   46.3360 C   0  0  0  0  0  0  0  0  0  0  0  0
   56.5033   32.6324   45.6468 H   0  0  0  0  0  0  0  0  0  0  0  0
   57.4871   33.3442   44.3231 H   0  0  0  0  0  0  0  0  0  0  0  0
   57.1194   31.5860   44.3231 H   0  0  0  0  0  0  0  0  0  0  0  0
   59.4401   33.0100   49.7350 H   0  0  0  0  0  0  0  0  0  0  0  0
   60.8833   34.0447   51.4878 H   0  0  0  0  0  0  0  0  0  0  0  0
   64.1614   34.2628   48.6797 H   0  0  0  0  0  0  0  0  0  0  0  0
   62.7318   33.2297   46.9183 H   0  0  0  0  0  0  0  0  0  0  0  0
   61.1680   30.5600   46.7480 H   0  0  0  0  0  0  0  0  0  0  0  0
   59.2664   30.1777   43.7481 H   0  0  0  0  0  0  0  0  0  0  0  0
   59.9971   29.1487   45.0484 H   0  0  0  0  0  0  0  0  0  0  0  0
   56.3156   28.2037   44.1209 H   0  0  0  0  0  0  0  0  0  0  0  0
   57.3657   29.2495   43.0368 H   0  0  0  0  0  0  0  0  0  0  0  0
   57.9380   27.1218   42.3459 H   0  0  0  0  0  0  0  0  0  0  0  0
   59.2039   27.5010   43.5852 H   0  0  0  0  0  0  0  0  0  0  0  0
   57.1477   24.9761   42.4192 H   0  0  0  0  0  0  0  0  0  0  0  0
   56.7895   22.8815   46.1793 H   0  0  0  0  0  0  0  0  0  0  0  0
   58.4069   26.8296   47.4859 H   0  0  0  0  0  0  0  0  0  0  0  0
   59.4619   27.3345   46.0349 H   0  0  0  0  0  0  0  0  0  0  0  0
   56.6653   28.3560   46.5025 H   0  0  0  0  0  0  0  0  0  0  0  0
   58.2148   29.1614   47.0939 H   0  0  0  0  0  0  0  0  0  0  0  0
  1  2  1  0
  2  3  1  0
  3  4  1  0
  4  5  1  0
  5  6  2  0
  6  7  1  0
  7  8  2  0
  8  9  1  0
  8 10  1  0
 10 11  2  0
  4 12  2  0
 12 13  1  0
 13 14  1  0
 14 15  1  0
 15 16  1  0
 16 17  1  0
 17 18  1  0
 18 19  2  0
 19 20  1  0
 20 21  1  0
 21 22  3  0
 20 23  2  0
 23 24  1  0
 24 25  2  0
 25 26  1  0
 26 27  1  0
 13  2  2  0
 27 15  1  0
 11  5  1  0
 25 18  1  0
  1 28  1  0
  1 29  1  0
  1 30  1  0
  6 31  1  0
  7 32  1  0
 10 33  1  0
 11 34  1  0
 12 35  1  0
 14 36  1  0
 14 37  1  0
 16 38  1  0
 16 39  1  0
 17 40  1  0
 17 41  1  0
 19 42  1  0
 23 43  1  0
 26 44  1  0
 26 45  1  0
 27 46  1  0
 27 47  1  0
M  CHG  1  12   1
M  END
>  <UniqueID>  (12) 
12

>  <SMILES>  (12) 
Cc1oc(-c2ccc(F)cc2)[nH+]c1CN1CCc2cc(C#N)cnc2CC1

>  <Energy>  (12) 
97.46511715309418

>  <Genealogy>  (12) 
Cc1oc(-c2ccc(F)cc2)[nH+]c1CN1CCc2cc(C#N)cnc2CC1 (protonated)
Cc1oc(-c2ccc(F)cc2)[nH+]c1CN1CCc2cc(C#N)cnc2CC1 (3D coordinates assigned)
Cc1oc(-c2ccc(F)cc2)[nH+]c1CN1CCc2cc(C#N)cnc2CC1 (nonaromatic ring conformer: 97.46511715309418 kcal/mol)

>  <smiles>  (12) 
Cc1oc(-c2ccc(F)cc2)nc1CN1CCc2cc(C#N)cnc2CC1

>  <score_type>  (12) 
oracle

>  <origin>  (12) 
adg

>  <m_score__min__energy>  (12) 
-4.79

>  <m_primary>  (12) 
energy

$$$$
12:0
     RDKit          3D

 33 35  0  0  0  0  0  0  0  0999 V2000
   56.0300   32.4435   45.0355 H   0  0  0  0  0  0  0  0  0  0  0  0
   57.1070   32.4360   44.8120 C   0  0  0  0  0  0  0  0  0  0  0  0
   57.5270   31.6790   43.7810 C   0  0  0  0  0  0  0  0  0  0  0  0
   57.7230   30.2600   43.9060 N   0  0  0  0  0  0  0  0  0  0  0  0
   57.0030   29.2890   43.2920 C   0  0  0  0  0  0  0  0  0  0  0  0
   56.1803   29.4887   42.5896 H   0  0  0  0  0  0  0  0  0  0  0  0
   57.4110   28.0450   43.6410 N   0  0  0  0  0  0  0  0  0  0  0  0
   57.0240   27.1320   43.3140 H   0  0  0  0  0  0  0  0  0  0  0  0
   58.4080   28.2530   44.5180 C   0  0  0  0  0  0  0  0  0  0  0  0
   59.1580   27.3050   45.2100 C   0  0  0  0  0  0  0  0  0  0  0  0
   58.9960   26.2277   45.0581 H   0  0  0  0  0  0  0  0  0  0  0  0
   60.1310   27.7770   46.1110 C   0  0  0  0  0  0  0  0  0  0  0  0
   60.7521   27.0603   46.6683 H   0  0  0  0  0  0  0  0  0  0  0  0
   60.3160   29.1640   46.3050 C   0  0  0  0  0  0  0  0  0  0  0  0
   61.0758   29.5192   47.0167 H   0  0  0  0  0  0  0  0  0  0  0  0
   59.5350   30.0950   45.5940 C   0  0  0  0  0  0  0  0  0  0  0  0
   59.6609   31.1773   45.7446 H   0  0  0  0  0  0  0  0  0  0  0  0
   58.5950   29.5950   44.6910 C   0  0  0  0  0  0  0  0  0  0  0  0
   57.8190   32.3360   42.4640 C   0  0  0  0  0  0  0  0  0  0  0  0
   58.2601   33.3284   42.6391 H   0  0  0  0  0  0  0  0  0  0  0  0
   58.5262   31.7159   41.8937 H   0  0  0  0  0  0  0  0  0  0  0  0
   56.8848   32.4454   41.8937 H   0  0  0  0  0  0  0  0  0  0  0  0
   57.9930   33.2590   45.6660 C   0  0  0  0  0  0  0  0  0  0  0  0
   58.7860   34.2520   45.0700 C   0  0  0  0  0  0  0  0  0  0  0  0
   58.7385   34.4104   43.9825 H   0  0  0  0  0  0  0  0  0  0  0  0
   59.6360   35.0410   45.8510 C   0  0  0  0  0  0  0  0  0  0  0  0
   60.2429   35.8276   45.3788 H   0  0  0  0  0  0  0  0  0  0  0  0
   59.7160   34.8320   47.2310 C   0  0  0  0  0  0  0  0  0  0  0  0
   60.3790   35.4590   47.8453 H   0  0  0  0  0  0  0  0  0  0  0  0
   58.9530   33.8260   47.8290 C   0  0  0  0  0  0  0  0  0  0  0  0
   59.0216   33.6564   48.9137 H   0  0  0  0  0  0  0  0  0  0  0  0
   58.1020   33.0340   47.0510 C   0  0  0  0  0  0  0  0  0  0  0  0
   57.5157   32.2322   47.5236 H   0  0  0  0  0  0  0  0  0  0  0  0
  1  2  1  0
  2  3  2  0
  3  4  1  0
  4  5  1  0
  5  6  1  0
  5  7  2  0
  7  8  1  0
  7  9  1  0
  9 10  2  0
 10 11  1  0
 10 12  1  0
 12 13  1  0
 12 14  2  0
 14 15  1  0
 14 16  1  0
 16 17  1  0
 16 18  2  0
  3 19  1  0
 19 20  1  0
 19 21  1  0
 19 22  1  0
  2 23  1  0
 23 24  2  0
 24 25  1  0
 24 26  1  0
 26 27  1  0
 26 28  2  0
 28 29  1  0
 28 30  1  0
 30 31  1  0
 30 32  2  0
 32 33  1  0
 18  4  1  0
 32 23  1  0
 18  9  1  0
M  CHG  1   7   1
M  END
>  <UniqueID>  (13) 
13

>  <SMILES>  (13) 
C/C(=C/c1ccccc1)n1c[nH+]c2ccccc21

>  <Energy>  (13) 
82.38524463336084

>  <Genealogy>  (13) 
CC(=Cc1ccccc1)n1c[nH+]c2ccccc21 (protonated)
C/C(=C/c1ccccc1)n1c[nH+]c2ccccc21 (cis-trans isomerization)
C/C(=C/c1ccccc1)n1c[nH+]c2ccccc21 (3D coordinates assigned)
C/C(=C/c1ccccc1)n1c[nH+]c2ccccc21 (optimized conformer: 82.38524463336084 kcal/mol)

>  <smiles>  (13) 
CC(=Cc1ccccc1)n1cnc2ccccc21

>  <score_type>  (13) 
oracle

>  <origin>  (13) 
adg

>  <m_score__min__energy>  (13) 
-5.9800000000000004

>  <m_primary>  (13) 
energy

$$$$
13:0
     RDKit          3D

 55 59  0  0  0  0  0  0  0  0999 V2000
   56.2980   30.0940   43.5870 C   0  0  0  0  0  0  0  0  0  0  0  0
   56.3740   30.8510   44.7910 O   0  0  0  0  0  0  0  0  0  0  0  0
   57.5280   31.5080   45.2410 C   0  0  0  0  0  0  0  0  0  0  0  0
   57.6470   32.8820   45.0060 C   0  0  0  0  0  0  0  0  0  0  0  0
   58.7760   33.5830   45.4380 C   0  0  0  0  0  0  0  0  0  0  0  0
   59.8140   32.9120   46.1020 C   0  0  0  0  0  0  0  0  0  0  0  0
   60.9970   33.6740   46.6290 C   0  0  0  0  0  0  0  0  0  0  0  0
   61.0440   33.5640   48.0920 N   0  0  0  0  0  0  0  0  0  0  0  0
   59.8490   33.8060   48.8770 C   0  0  0  0  0  0  0  0  0  0  0  0
   58.9020   34.4720   48.3750 O   0  0  0  0  0  0  0  0  0  0  0  0
   59.7040   33.3280   50.2760 C   0  0  0  0  0  0  0  0  0  0  0  0
   59.1250   34.1720   51.2360 C   0  0  0  0  0  0  0  0  0  0  0  0
   59.0170   33.7580   52.5620 C   0  0  0  0  0  0  0  0  0  0  0  0
   59.4860   32.4960   52.9250 C   0  0  0  0  0  0  0  0  0  0  0  0
   60.0280   31.6730   51.9900 N   0  0  0  0  0  0  0  0  0  0  0  0
   60.1300   32.0450   50.6830 C   0  0  0  0  0  0  0  0  0  0  0  0
   60.8140   30.8860   49.4970 S   0  0  0  0  0  0  0  0  0  0  0  0
   62.2990   31.8710   49.3810 C   0  0  0  0  0  0  0  0  0  0  0  0
   63.4780   31.4370   49.9960 C   0  0  0  0  0  0  0  0  0  0  0  0
   64.6480   32.2110   49.9120 C   0  0  0  0  0  0  0  0  0  0  0  0
   65.8640   31.7720   50.5480 N   0  0  0  0  0  0  0  0  0  0  0  0
   67.1050   32.5410   50.3770 C   0  0  0  0  0  0  0  0  0  0  0  0
   67.9940   32.4740   51.6410 C   0  0  0  0  0  0  0  0  0  0  0  0
   67.5040   31.5930   52.6360 O   0  0  0  0  0  0  0  0  0  0  0  0
   67.1820   30.3450   52.0600 C   0  0  0  0  0  0  0  0  0  0  0  0
   65.8950   30.4810   51.2450 C   0  0  0  0  0  0  0  0  0  0  0  0
   64.6130   33.4320   49.2200 C   0  0  0  0  0  0  0  0  0  0  0  0
   63.4300   33.8720   48.6200 C   0  0  0  0  0  0  0  0  0  0  0  0
   62.2650   33.0980   48.7020 C   0  0  0  0  0  0  0  0  0  0  0  0
   59.6950   31.5360   46.3480 C   0  0  0  0  0  0  0  0  0  0  0  0
   58.5640   30.8350   45.9180 C   0  0  0  0  0  0  0  0  0  0  0  0
   56.1909   29.0268   43.8310 H   0  0  0  0  0  0  0  0  0  0  0  0
   55.4286   30.4250   43.0000 H   0  0  0  0  0  0  0  0  0  0  0  0
   57.2159   30.2456   43.0000 H   0  0  0  0  0  0  0  0  0  0  0  0
   56.8442   33.4156   44.4761 H   0  0  0  0  0  0  0  0  0  0  0  0
   58.8513   34.6653   45.2567 H   0  0  0  0  0  0  0  0  0  0  0  0
   61.9207   33.2572   46.2010 H   0  0  0  0  0  0  0  0  0  0  0  0
   60.9040   34.7329   46.3459 H   0  0  0  0  0  0  0  0  0  0  0  0
   58.7548   35.1648   50.9404 H   0  0  0  0  0  0  0  0  0  0  0  0
   58.5660   34.4205   53.3154 H   0  0  0  0  0  0  0  0  0  0  0  0
   59.4169   32.1658   53.9720 H   0  0  0  0  0  0  0  0  0  0  0  0
   60.3620   30.7270   52.2840 H   0  0  0  0  0  0  0  0  0  0  0  0
   63.4894   30.4855   50.5479 H   0  0  0  0  0  0  0  0  0  0  0  0
   67.6652   32.1300   49.5242 H   0  0  0  0  0  0  0  0  0  0  0  0
   66.8367   33.5930   50.1999 H   0  0  0  0  0  0  0  0  0  0  0  0
   68.9975   32.1367   51.3422 H   0  0  0  0  0  0  0  0  0  0  0  0
   68.0036   33.4822   52.0809 H   0  0  0  0  0  0  0  0  0  0  0  0
   68.0016   30.0220   51.4013 H   0  0  0  0  0  0  0  0  0  0  0  0
   67.0373   29.5987   52.8551 H   0  0  0  0  0  0  0  0  0  0  0  0
   65.8472   29.6685   50.5050 H   0  0  0  0  0  0  0  0  0  0  0  0
   65.0336   30.4231   51.9266 H   0  0  0  0  0  0  0  0  0  0  0  0
   65.5227   34.0464   49.1496 H   0  0  0  0  0  0  0  0  0  0  0  0
   63.4134   34.8306   48.0808 H   0  0  0  0  0  0  0  0  0  0  0  0
   60.4965   31.0051   46.8826 H   0  0  0  0  0  0  0  0  0  0  0  0
   58.4830   29.7547   46.1090 H   0  0  0  0  0  0  0  0  0  0  0  0
  1  2  1  0
  2  3  1  0
  3  4  2  0
  4  5  1  0
  5  6  2  0
  6  7  1  0
  7  8  1  0
  8  9  1  0
  9 10  2  0
  9 11  1  0
 11 12  2  0
 12 13  1  0
 13 14  2  0
 14 15  1  0
 15 16  2  0
 16 17  1  0
 17 18  1  0
 18 19  2  0
 19 20  1  0
 20 21  1  0
 21 22  1  0
 22 23  1  0
 23 24  1  0
 24 25  1  0
 25 26  1  0
 20 27  2  0
 27 28  1  0
 28 29  2  0
  6 30  1  0
 30 31  2  0
 31  3  1  0
 29  8  1  0
 16 11  1  0
 29 18  1  0
 26 21  1  0
  1 32  1  0
  1 33  1  0
  1 34  1  0
  4 35  1  0
  5 36  1  0
  7 37  1  0
  7 38  1  0
 12 39  1  0
 13 40  1  0
 14 41  1  0
 15 42  1  0
 19 43  1  0
 22 44  1  0
 22 45  1  0
 23 46  1  0
 23 47  1  0
 25 48  1  0
 25 49  1  0
 26 50  1  0
 26 51  1  0
 27 52  1  0
 28 53  1  0
 30 54  1  0
 31 55  1  0
M  CHG  1  15   1
M  END
>  <UniqueID>  (14) 
14

>  <SMILES>  (14) 
COc1ccc(CN2C(=O)c3ccc[nH+]c3Sc3cc(N4CCOCC4)ccc32)cc1

>  <Energy>  (14) 
81.22102400572882

>  <Genealogy>  (14) 
COc1ccc(CN2C(=O)c3ccc[nH+]c3Sc3cc(N4CCOCC4)ccc32)cc1 (protonated)
COc1ccc(CN2C(=O)c3ccc[nH+]c3Sc3cc(N4CCOCC4)ccc32)cc1 (3D coordinates assigned)
COc1ccc(CN2C(=O)c3ccc[nH+]c3Sc3cc(N4CCOCC4)ccc32)cc1 (nonaromatic ring conformer: 81.22102400572882 kcal/mol)

>  <smiles>  (14) 
COc1ccc(CN2C(=O)c3cccnc3Sc3cc(N4CCOCC4)ccc32)cc1

>  <score_type>  (14) 
oracle

>  <origin>  (14) 
adg

>  <m_score__min__energy>  (14) 
-6.9100000000000001

>  <m_primary>  (14) 
energy

$$$$
14:0
     RDKit          3D

 44 46  0  0  0  0  0  0  0  0999 V2000
   55.2060   24.8180   45.6530 C   0  0  0  0  0  0  0  0  0  0  0  0
   55.4740   26.1690   46.0150 O   0  0  0  0  0  0  0  0  0  0  0  0
   56.6370   26.8690   45.6620 C   0  0  0  0  0  0  0  0  0  0  0  0
   57.8450   26.1650   45.6120 C   0  0  0  0  0  0  0  0  0  0  0  0
   59.0310   26.8160   45.2660 C   0  0  0  0  0  0  0  0  0  0  0  0
   59.0210   28.1800   44.9640 C   0  0  0  0  0  0  0  0  0  0  0  0
   57.8190   28.9060   45.0080 C   0  0  0  0  0  0  0  0  0  0  0  0
   57.8030   30.3490   44.6920 C   0  0  0  0  0  0  0  0  0  0  0  0
   57.7120   31.3220   45.6260 N   0  0  0  0  0  0  0  0  0  0  0  0
   57.7420   32.4510   44.8930 C   0  0  0  0  0  0  0  0  0  0  0  0
   57.6000   33.8280   45.4670 C   0  0  0  0  0  0  0  0  0  0  0  0
   57.8140   33.8050   46.9230 N   0  0  0  0  0  0  0  0  0  0  0  0
   58.9920   34.5600   47.4320 C   0  0  0  0  0  0  0  0  0  0  0  0
   60.0570   34.9470   46.3620 C   0  0  0  0  0  0  0  0  0  0  0  0
   61.1090   33.8780   46.0150 C   0  0  0  0  0  0  0  0  0  0  0  0
   61.8240   33.1680   47.4790 S   0  0  0  0  0  0  0  0  0  0  0  0
   62.7680   34.1520   48.1130 O   0  0  0  0  0  0  0  0  0  0  0  0
   62.5710   31.9120   47.1250 O   0  0  0  0  0  0  0  0  0  0  0  0
   60.5050   32.7890   48.6050 C   0  0  0  0  0  0  0  0  0  0  0  0
   59.5810   33.9950   48.7560 C   0  0  0  0  0  0  0  0  0  0  0  0
   57.8280   32.1340   43.5570 C   0  0  0  0  0  0  0  0  0  0  0  0
   57.8710   30.8290   43.4680 O   0  0  0  0  0  0  0  0  0  0  0  0
   56.6290   28.2460   45.3580 C   0  0  0  0  0  0  0  0  0  0  0  0
   55.0857   24.2116   46.5628 H   0  0  0  0  0  0  0  0  0  0  0  0
   54.2817   24.7742   45.0583 H   0  0  0  0  0  0  0  0  0  0  0  0
   56.0436   24.4247   45.0583 H   0  0  0  0  0  0  0  0  0  0  0  0
   57.8607   25.0905   45.8470 H   0  0  0  0  0  0  0  0  0  0  0  0
   59.9756   26.2534   45.2311 H   0  0  0  0  0  0  0  0  0  0  0  0
   59.9579   28.6875   44.6907 H   0  0  0  0  0  0  0  0  0  0  0  0
   58.3437   34.4921   45.0024 H   0  0  0  0  0  0  0  0  0  0  0  0
   56.5833   34.1950   45.2630 H   0  0  0  0  0  0  0  0  0  0  0  0
   57.8770   32.8110   47.2470 H   0  0  0  0  0  0  0  0  0  0  0  0
   56.9550   34.2090   47.3690 H   0  0  0  0  0  0  0  0  0  0  0  0
   58.5671   35.5358   47.7099 H   0  0  0  0  0  0  0  0  0  0  0  0
   59.5214   35.2007   45.4353 H   0  0  0  0  0  0  0  0  0  0  0  0
   60.6248   35.7775   46.8067 H   0  0  0  0  0  0  0  0  0  0  0  0
   60.6285   33.0806   45.4291 H   0  0  0  0  0  0  0  0  0  0  0  0
   61.9120   34.3590   45.4372 H   0  0  0  0  0  0  0  0  0  0  0  0
   59.9292   31.9359   48.2169 H   0  0  0  0  0  0  0  0  0  0  0  0
   60.9314   32.5371   49.5872 H   0  0  0  0  0  0  0  0  0  0  0  0
   58.7407   33.6989   49.4011 H   0  0  0  0  0  0  0  0  0  0  0  0
   60.2023   34.7995   49.1765 H   0  0  0  0  0  0  0  0  0  0  0  0
   57.8555   32.8457   42.7187 H   0  0  0  0  0  0  0  0  0  0  0  0
   55.6839   28.8077   45.3952 H   0  0  0  0  0  0  0  0  0  0  0  0
  1  2  1  0
  2  3  1  0
  3  4  2  0
  4  5  1  0
  5  6  2  0
  6  7  1  0
  7  8  1  0
  8  9  2  0
  9 10  1  0
 10 11  1  0
 11 12  1  0
 12 13  1  0
 13 14  1  0
 14 15  1  0
 15 16  1  0
 16 17  2  0
 16 18  2  0
 16 19  1  0
 19 20  1  0
 10 21  2  0
 21 22  1  0
  7 23  2  0
 23  3  1  0
 22  8  1  0
 20 13  1  0
  1 24  1  0
  1 25  1  0
  1 26  1  0
  4 27  1  0
  5 28  1  0
  6 29  1  0
 11 30  1  0
 11 31  1  0
 12 32  1  0
 12 33  1  0
 13 34  1  0
 14 35  1  0
 14 36  1  0
 15 37  1  0
 15 38  1  0
 19 39  1  0
 19 40  1  0
 20 41  1  0
 20 42  1  0
 21 43  1  0
 23 44  1  0
M  CHG  1  12   1
M  END
>  <UniqueID>  (15) 
15

>  <SMILES>  (15) 
COc1cccc(-c2nc(C[NH2+]C3CCS(=O)(=O)CC3)co2)c1

>  <Energy>  (15) 
76.1454542186447

>  <Genealogy>  (15) 
COc1cccc(-c2nc(C[NH2+]C3CCS(=O)(=O)CC3)co2)c1 (protonated)
COc1cccc(-c2nc(C[NH2+]C3CCS(=O)(=O)CC3)co2)c1 (3D coordinates assigned)
COc1cccc(-c2nc(C[NH2+]C3CCS(=O)(=O)CC3)co2)c1 (nonaromatic ring conformer: 76.1454542186447 kcal/mol)

>  <smiles>  (15) 
COc1cccc(-c2nc(CNC3CCS(=O)(=O)CC3)co2)c1

>  <score_type>  (15) 
oracle

>  <origin>  (15) 
adg

>  <m_score__min__energy>  (15) 
-6.2300000000000004

>  <m_primary>  (15) 
energy

$$$$
15:0
     RDKit          3D

 43 44  0  0  0  0  0  0  0  0999 V2000
   54.6860   30.2730   44.8920 H   0  0  0  0  0  0  0  0  0  0  0  0
   55.1540   29.3400   44.8680 N   0  0  0  0  0  0  0  0  0  0  0  0
   56.4440   29.2350   44.8980 C   0  0  0  0  0  0  0  0  0  0  0  0
   57.0970   28.4040   45.7390 N   0  0  0  0  0  0  0  0  0  0  0  0
   58.3960   28.6090   45.4280 C   0  0  0  0  0  0  0  0  0  0  0  0
   59.5360   27.8700   46.0600 C   0  0  0  0  0  0  0  0  0  0  0  0
   59.2606   26.8099   46.1613 H   0  0  0  0  0  0  0  0  0  0  0  0
   60.4197   27.9890   45.4159 H   0  0  0  0  0  0  0  0  0  0  0  0
   59.8780   28.4290   47.4470 C   0  0  0  0  0  0  0  0  0  0  0  0
   59.0994   28.1173   48.1588 H   0  0  0  0  0  0  0  0  0  0  0  0
   60.8622   28.0359   47.7418 H   0  0  0  0  0  0  0  0  0  0  0  0
   59.9570   29.9330   47.4380 C   0  0  0  0  0  0  0  0  0  0  0  0
   61.1250   30.5880   47.0240 C   0  0  0  0  0  0  0  0  0  0  0  0
   61.9889   30.0010   46.6789 H   0  0  0  0  0  0  0  0  0  0  0  0
   61.1950   31.9450   47.0470 N   0  0  0  0  0  0  0  0  0  0  0  0
   60.1500   32.7130   47.4640 C   0  0  0  0  0  0  0  0  0  0  0  0
   60.2910   34.2080   47.4880 C   0  0  0  0  0  0  0  0  0  0  0  0
   60.1713   34.5560   48.5246 H   0  0  0  0  0  0  0  0  0  0  0  0
   61.2858   34.4541   47.0882 H   0  0  0  0  0  0  0  0  0  0  0  0
   59.2490   34.9170   46.6080 C   0  0  0  0  0  0  0  0  0  0  0  0
   58.2464   34.6470   46.9712 H   0  0  0  0  0  0  0  0  0  0  0  0
   59.4463   35.9965   46.6831 H   0  0  0  0  0  0  0  0  0  0  0  0
   59.3420   34.5450   45.1140 C   0  0  0  0  0  0  0  0  0  0  0  0
   59.2711   35.4660   44.5168 H   0  0  0  0  0  0  0  0  0  0  0  0
   60.3027   34.0325   44.9580 H   0  0  0  0  0  0  0  0  0  0  0  0
   58.2260   33.5850   44.6720 C   0  0  0  0  0  0  0  0  0  0  0  0
   57.9005   33.8555   43.6567 H   0  0  0  0  0  0  0  0  0  0  0  0
   58.6204   32.5583   44.6907 H   0  0  0  0  0  0  0  0  0  0  0  0
   57.0310   33.6620   45.6150 C   0  0  0  0  0  0  0  0  0  0  0  0
   57.3838   33.6393   46.6566 H   0  0  0  0  0  0  0  0  0  0  0  0
   56.4811   34.5974   45.4345 H   0  0  0  0  0  0  0  0  0  0  0  0
   56.3656   32.8049   45.4345 H   0  0  0  0  0  0  0  0  0  0  0  0
   58.9660   32.0980   47.8910 C   0  0  0  0  0  0  0  0  0  0  0  0
   58.1144   32.7076   48.2274 H   0  0  0  0  0  0  0  0  0  0  0  0
   58.8760   30.7050   47.8860 C   0  0  0  0  0  0  0  0  0  0  0  0
   57.9560   30.2126   48.2339 H   0  0  0  0  0  0  0  0  0  0  0  0
   58.5040   29.5360   44.4100 C   0  0  0  0  0  0  0  0  0  0  0  0
   59.4383   29.8814   43.9434 H   0  0  0  0  0  0  0  0  0  0  0  0
   57.2630   29.9400   44.0920 N   0  0  0  0  0  0  0  0  0  0  0  0
   56.8910   30.8510   43.0140 C   0  0  0  0  0  0  0  0  0  0  0  0
   56.5080   31.7890   43.4424 H   0  0  0  0  0  0  0  0  0  0  0  0
   57.7738   31.0648   42.3936 H   0  0  0  0  0  0  0  0  0  0  0  0
   56.1108   30.3858   42.3936 H   0  0  0  0  0  0  0  0  0  0  0  0
  1  2  1  0
  2  3  2  0
  3  4  1  0
  4  5  1  0
  5  6  1  0
  6  7  1  0
  6  8  1  0
  6  9  1  0
  9 10  1  0
  9 11  1  0
  9 12  1  0
 12 13  2  0
 13 14  1  0
 13 15  1  0
 15 16  2  0
 16 17  1  0
 17 18  1  0
 17 19  1  0
 17 20  1  0
 20 21  1  0
 20 22  1  0
 20 23  1  0
 23 24  1  0
 23 25  1  0
 23 26  1  0
 26 27  1  0
 26 28  1  0
 26 29  1  0
 29 30  1  0
 29 31  1  0
 29 32  1  0
 16 33  1  0
 33 34  1  0
 33 35  2  0
 35 36  1  0
  5 37  2  0
 37 38  1  0
 37 39  1  0
 39 40  1  0
 40 41  1  0
 40 42  1  0
 40 43  1  0
 39  3  1  0
 35 12  1  0
M  CHG  1   4  -1
M  END
>  <UniqueID>  (16) 
16

>  <SMILES>  (16) 
[H]/N=c1\[n-]c(CCc2ccc(CCCCC)nc2)cn1C

>  <Energy>  (16) 
59.49836209595883

>  <Genealogy>  (16) 
CCCCCc1ccc(CCc2cn(C)c(=N)[n-]2)cn1 (protonated)
[H]/N=c1\[n-]c(CCc2ccc(CCCCC)nc2)cn1C (cis-trans isomerization)
[H]/N=c1\[n-]c(CCc2ccc(CCCCC)nc2)cn1C (3D coordinates assigned)
[H]/N=c1\[n-]c(CCc2ccc(CCCCC)nc2)cn1C (optimized conformer: 59.49836209595883 kcal/mol)

>  <smiles>  (16) 
CCCCCc1ccc(CCc2cn(C)c(=N)[nH]2)cn1

>  <score_type>  (16) 
oracle

>  <origin>  (16) 
adg

>  <m_score__min__energy>  (16) 
-9.4399999999999995

>  <m_primary>  (16) 
energy

$$$$
16:0
     RDKit          3D

 43 46  0  0  0  0  0  0  0  0999 V2000
   58.3190   32.5030   48.8840 O   0  0  0  0  0  0  0  0  0  0  0  0
   58.9770   32.7100   49.9340 C   0  0  0  0  0  0  0  0  0  0  0  0
   60.2030   33.3620   49.8140 N   0  0  0  0  0  0  0  0  0  0  0  0
   60.8790   33.8560   48.6930 C   0  0  0  0  0  0  0  0  0  0  0  0
   62.3700   34.5780   49.0920 S   0  0  0  0  0  0  0  0  0  0  0  0
   60.5960   33.8820   47.3460 N   0  0  0  0  0  0  0  0  0  0  0  0
   59.5050   33.4190   46.5840 C   0  0  0  0  0  0  0  0  0  0  0  0
   58.5770   34.3380   46.0670 C   0  0  0  0  0  0  0  0  0  0  0  0
   57.5360   33.8940   45.2920 C   0  0  0  0  0  0  0  0  0  0  0  0
   57.3810   32.5560   45.0080 C   0  0  0  0  0  0  0  0  0  0  0  0
   58.2800   31.6210   45.5020 C   0  0  0  0  0  0  0  0  0  0  0  0
   58.1110   30.2020   45.1980 C   0  0  0  0  0  0  0  0  0  0  0  0
   57.6260   29.2790   46.0480 N   0  0  0  0  0  0  0  0  0  0  0  0
   57.5890   28.0650   45.4820 C   0  0  0  0  0  0  0  0  0  0  0  0
   57.1870   26.8150   45.9190 C   0  0  0  0  0  0  0  0  0  0  0  0
   57.2770   25.7370   45.0720 C   0  0  0  0  0  0  0  0  0  0  0  0
   57.7600   25.8630   43.7880 C   0  0  0  0  0  0  0  0  0  0  0  0
   58.1540   27.1240   43.3780 C   0  0  0  0  0  0  0  0  0  0  0  0
   58.0830   28.2370   44.1900 C   0  0  0  0  0  0  0  0  0  0  0  0
   58.3880   29.5380   44.0550 N   0  0  0  0  0  0  0  0  0  0  0  0
   59.3250   32.0570   46.2780 C   0  0  0  0  0  0  0  0  0  0  0  0
   58.3580   32.2320   51.1650 C   0  0  0  0  0  0  0  0  0  0  0  0
   57.6630   31.0150   51.1470 C   0  0  0  0  0  0  0  0  0  0  0  0
   57.0480   30.4940   52.2580 C   0  0  0  0  0  0  0  0  0  0  0  0
   57.0820   31.1520   53.4660 C   0  0  0  0  0  0  0  0  0  0  0  0
   57.7590   32.3500   53.5070 C   0  0  0  0  0  0  0  0  0  0  0  0
   58.3860   32.8800   52.3700 C   0  0  0  0  0  0  0  0  0  0  0  0
   59.0120   34.0560   52.5590 F   0  0  0  0  0  0  0  0  0  0  0  0
   60.7160   33.5130   50.7510 H   0  0  0  0  0  0  0  0  0  0  0  0
   61.3440   34.3480   46.7130 H   0  0  0  0  0  0  0  0  0  0  0  0
   58.6848   35.4112   46.2831 H   0  0  0  0  0  0  0  0  0  0  0  0
   56.8129   34.6193   44.8907 H   0  0  0  0  0  0  0  0  0  0  0  0
   56.5375   32.2250   44.3843 H   0  0  0  0  0  0  0  0  0  0  0  0
   56.7973   26.6851   46.9394 H   0  0  0  0  0  0  0  0  0  0  0  0
   56.9550   24.7474   45.4284 H   0  0  0  0  0  0  0  0  0  0  0  0
   57.8296   24.9953   43.1155 H   0  0  0  0  0  0  0  0  0  0  0  0
   58.5424   27.2450   42.3560 H   0  0  0  0  0  0  0  0  0  0  0  0
   58.7840   29.9910   43.1930 H   0  0  0  0  0  0  0  0  0  0  0  0
   60.0418   31.3213   46.6717 H   0  0  0  0  0  0  0  0  0  0  0  0
   57.6081   30.4537   50.2026 H   0  0  0  0  0  0  0  0  0  0  0  0
   56.5183   29.5330   52.1813 H   0  0  0  0  0  0  0  0  0  0  0  0
   56.5902   30.7392   54.3591 H   0  0  0  0  0  0  0  0  0  0  0  0
   57.8094   32.9054   54.4552 H   0  0  0  0  0  0  0  0  0  0  0  0
  1  2  2  0
  2  3  1  0
  3  4  1  0
  4  5  2  0
  4  6  1  0
  6  7  1  0
  7  8  2  0
  8  9  1  0
  9 10  2  0
 10 11  1  0
 11 12  1  0
 12 13  2  0
 13 14  1  0
 14 15  2  0
 15 16  1  0
 16 17  2  0
 17 18  1  0
 18 19  2  0
 19 20  1  0
 11 21  2  0
  2 22  1  0
 22 23  2  0
 23 24  1  0
 24 25  2  0
 25 26  1  0
 26 27  2  0
 27 28  1  0
 21  7  1  0
 27 22  1  0
 20 12  1  0
 19 14  1  0
  3 29  1  0
  6 30  1  0
  8 31  1  0
  9 32  1  0
 10 33  1  0
 15 34  1  0
 16 35  1  0
 17 36  1  0
 18 37  1  0
 20 38  1  0
 21 39  1  0
 23 40  1  0
 24 41  1  0
 25 42  1  0
 26 43  1  0
M  END
>  <smiles>  (17) 
O=C(NC(=S)Nc1cccc(-c2nc3ccccc3[nH]2)c1)c1ccccc1F

>  <score_type>  (17) 
oracle

>  <origin>  (17) 
adg

>  <m_score__min__energy>  (17) 
-8.2300000000000004

>  <m_primary>  (17) 
energy

$$$$
17:0
     RDKit          3D

 30 32  0  0  1  0  0  0  0  0999 V2000
   55.9240   29.9160   44.8820 O   0  0  0  0  0  0  0  0  0  0  0  0
   57.1270   29.7970   44.5510 C   0  0  0  0  0  0  0  0  0  0  0  0
   57.7230   30.8490   43.6990 C   0  0  0  0  0  0  0  0  0  0  0  0
   57.9960   32.0240   44.6240 C   0  0  0  0  0  0  0  0  0  0  0  0
   58.1040   31.9140   45.9320 C   0  0  0  0  0  0  0  0  0  0  0  0
   58.3580   33.0680   46.6880 C   0  0  0  0  0  0  0  0  0  0  0  0
   58.4490   34.3920   45.4830 S   0  0  0  0  0  0  0  0  0  0  0  0
   58.1380   33.2980   44.0300 C   0  0  0  0  0  0  0  0  0  0  0  0
   57.8480   28.6790   44.9990 N   0  0  0  0  0  0  0  0  0  0  0  0
   57.1990   27.6730   45.4790 C   0  0  0  0  0  0  0  0  0  0  0  0
   57.7990   26.5300   45.9520 C   0  0  0  0  0  0  0  0  0  0  0  0
   56.8040   25.6860   46.3790 C   0  0  0  0  0  0  0  0  0  0  0  0
   57.0650   24.3410   46.9590 C   0  0  0  0  0  0  0  0  0  0  0  0
   57.7030   23.3360   46.0760 C   0  0  0  0  0  0  0  0  0  0  0  0
   56.2160   23.2510   46.4120 C   0  0  0  0  0  0  0  0  0  0  0  0
   55.6350   26.3060   46.1680 N   0  0  0  0  0  0  0  0  0  0  0  0
   55.8750   27.4920   45.6320 N   0  0  0  0  0  0  0  0  0  0  0  0
   58.6599   30.4912   43.2472 H   0  0  0  0  0  0  0  0  0  0  0  0
   57.0526   31.1302   42.8735 H   0  0  0  0  0  0  0  0  0  0  0  0
   57.9970   30.9353   46.4226 H   0  0  0  0  0  0  0  0  0  0  0  0
   58.4754   33.1437   47.7791 H   0  0  0  0  0  0  0  0  0  0  0  0
   58.0781   33.5701   42.9659 H   0  0  0  0  0  0  0  0  0  0  0  0
   58.8799   26.3284   45.9827 H   0  0  0  0  0  0  0  0  0  0  0  0
   57.3001   24.7183   47.9652 H   0  0  0  0  0  0  0  0  0  0  0  0
   58.0250   23.6166   45.0623 H   0  0  0  0  0  0  0  0  0  0  0  0
   58.5640   22.6564   46.1579 H   0  0  0  0  0  0  0  0  0  0  0  0
   55.4617   23.4710   45.6422 H   0  0  0  0  0  0  0  0  0  0  0  0
   55.5511   22.4857   46.8389 H   0  0  0  0  0  0  0  0  0  0  0  0
   54.6820   25.9140   46.3940 H   0  0  0  0  0  0  0  0  0  0  0  0
   55.1460   28.1770   45.3680 H   0  0  0  0  0  0  0  0  0  0  0  0
  1  2  2  0
  2  3  1  0
  3  4  1  0
  4  5  1  0
  5  6  2  0
  6  7  1  0
  7  8  1  0
  2  9  1  0
  9 10  2  0
 10 11  1  0
 11 12  2  0
 12 13  1  0
 13 14  1  0
 14 15  1  0
 12 16  1  0
 16 17  1  0
  8  4  2  0
 17 10  1  0
 15 13  1  0
  3 18  1  0
  3 19  1  0
  5 20  1  0
  6 21  1  0
  8 22  1  0
 11 23  1  0
 13 24  1  0
 14 25  1  0
 14 26  1  0
 15 27  1  0
 15 28  1  0
 16 29  1  0
 17 30  1  0
M  END
>  <smiles>  (18) 
O=C(Cc1ccsc1)N=c1cc(C2CC2)[nH][nH]1

>  <score_type>  (18) 
oracle

>  <origin>  (18) 
adg

>  <m_score__min__energy>  (18) 
-7

>  <m_primary>  (18) 
energy

$$$$
18:0
     RDKit          3D

 49 52  0  0  0  0  0  0  0  0999 V2000
   55.1630   25.5930   46.2710 N   0  0  0  0  0  0  0  0  0  0  0  0
   56.0790   26.2430   45.9840 C   0  0  0  0  0  0  0  0  0  0  0  0
   57.2170   27.0500   45.6310 C   0  0  0  0  0  0  0  0  0  0  0  0
   58.4970   26.4800   45.5900 C   0  0  0  0  0  0  0  0  0  0  0  0
   59.6030   27.2670   45.2470 C   0  0  0  0  0  0  0  0  0  0  0  0
   59.4340   28.6220   44.9510 C   0  0  0  0  0  0  0  0  0  0  0  0
   58.1570   29.2010   44.9930 C   0  0  0  0  0  0  0  0  0  0  0  0
   57.9320   30.9130   44.6350 S   0  0  0  0  0  0  0  0  0  0  0  0
   58.2710   31.1840   43.1950 O   0  0  0  0  0  0  0  0  0  0  0  0
   56.4840   31.2570   44.8560 O   0  0  0  0  0  0  0  0  0  0  0  0
   58.9440   31.8850   45.6790 N   0  0  2  0  0  0  0  0  0  0  0  0
   58.8010   31.4170   47.0720 C   0  0  0  0  0  0  0  0  0  0  0  0
   59.1920   32.4930   48.1190 C   0  0  0  0  0  0  0  0  0  0  0  0
   58.9780   31.8870   49.5110 C   0  0  0  0  0  0  0  0  0  0  0  0
   58.5540   32.7050   50.5830 C   0  0  0  0  0  0  0  0  0  0  0  0
   58.3600   32.1700   51.8600 C   0  0  0  0  0  0  0  0  0  0  0  0
   58.5880   30.8120   52.0920 C   0  0  0  0  0  0  0  0  0  0  0  0
   59.0100   29.9860   51.0480 C   0  0  0  0  0  0  0  0  0  0  0  0
   59.2080   30.5140   49.7680 C   0  0  0  0  0  0  0  0  0  0  0  0
   60.6490   32.9890   48.0560 C   0  0  0  0  0  0  0  0  0  0  0  0
   61.1060   33.8780   49.0510 C   0  0  0  0  0  0  0  0  0  0  0  0
   62.4350   34.3080   49.0750 C   0  0  0  0  0  0  0  0  0  0  0  0
   63.3380   33.8420   48.1180 C   0  0  0  0  0  0  0  0  0  0  0  0
   62.9160   32.9340   47.1440 C   0  0  0  0  0  0  0  0  0  0  0  0
   61.5860   32.4970   47.1190 C   0  0  0  0  0  0  0  0  0  0  0  0
   58.2890   33.5770   47.9480 O   0  0  0  0  0  0  0  0  0  0  0  0
   58.3970   34.2150   46.6860 C   0  0  0  0  0  0  0  0  0  0  0  0
   58.6270   33.2870   45.5140 C   0  0  0  0  0  0  0  0  0  0  0  0
   58.6380   33.7800   44.3950 O   0  0  0  0  0  0  0  0  0  0  0  0
   57.0490   28.4090   45.3320 C   0  0  0  0  0  0  0  0  0  0  0  0
   58.6325   25.4145   45.8273 H   0  0  0  0  0  0  0  0  0  0  0  0
   60.6065   26.8179   45.2105 H   0  0  0  0  0  0  0  0  0  0  0  0
   60.3059   29.2372   44.6839 H   0  0  0  0  0  0  0  0  0  0  0  0
   59.9310   31.7440   45.3680 H   0  0  0  0  0  0  0  0  0  0  0  0
   57.7521   31.1308   47.2392 H   0  0  0  0  0  0  0  0  0  0  0  0
   59.4862   30.5667   47.2042 H   0  0  0  0  0  0  0  0  0  0  0  0
   58.3744   33.7764   50.4102 H   0  0  0  0  0  0  0  0  0  0  0  0
   58.0273   32.8196   52.6830 H   0  0  0  0  0  0  0  0  0  0  0  0
   58.4352   30.3927   53.0974 H   0  0  0  0  0  0  0  0  0  0  0  0
   59.1873   28.9163   51.2330 H   0  0  0  0  0  0  0  0  0  0  0  0
   59.5456   29.8563   48.9535 H   0  0  0  0  0  0  0  0  0  0  0  0
   60.4059   34.2380   49.8193 H   0  0  0  0  0  0  0  0  0  0  0  0
   62.7701   35.0144   49.8487 H   0  0  0  0  0  0  0  0  0  0  0  0
   64.3815   34.1897   48.1308 H   0  0  0  0  0  0  0  0  0  0  0  0
   63.6302   32.5614   46.3949 H   0  0  0  0  0  0  0  0  0  0  0  0
   61.2674   31.7640   46.3632 H   0  0  0  0  0  0  0  0  0  0  0  0
   57.4644   34.7691   46.5037 H   0  0  0  0  0  0  0  0  0  0  0  0
   59.2863   34.8598   46.7445 H   0  0  0  0  0  0  0  0  0  0  0  0
   56.0447   28.8566   45.3632 H   0  0  0  0  0  0  0  0  0  0  0  0
  1  2  3  0
  2  3  1  0
  3  4  2  0
  4  5  1  0
  5  6  2  0
  6  7  1  0
  7  8  1  0
  8  9  2  0
  8 10  2  0
  8 11  1  0
 11 12  1  0
 12 13  1  0
 13 14  1  0
 14 15  2  0
 15 16  1  0
 16 17  2  0
 17 18  1  0
 18 19  2  0
 13 20  1  0
 20 21  2  0
 21 22  1  0
 22 23  2  0
 23 24  1  0
 24 25  2  0
 13 26  1  0
 26 27  1  0
 27 28  1  0
 28 29  2  0
  7 30  2  0
 30  3  1  0
 28 11  1  0
 19 14  1  0
 25 20  1  0
  4 31  1  0
  5 32  1  0
  6 33  1  0
 11 34  1  6
 12 35  1  0
 12 36  1  0
 15 37  1  0
 16 38  1  0
 17 39  1  0
 18 40  1  0
 19 41  1  0
 21 42  1  0
 22 43  1  0
 23 44  1  0
 24 45  1  0
 25 46  1  0
 27 47  1  0
 27 48  1  0
 30 49  1  0
M  CHG  1  11   1
M  END
>  <UniqueID>  (19) 
17

>  <SMILES>  (19) 
N#Cc1cccc(S(=O)(=O)[N@@H+]2CC(c3ccccc3)(c3ccccc3)OCC2=O)c1

>  <Energy>  (19) 
70.02234627826587

>  <Genealogy>  (19) 
N#Cc1cccc(S(=O)(=O)[NH+]2CC(c3ccccc3)(c3ccccc3)OCC2=O)c1 (protonated)
N#Cc1cccc(S(=O)(=O)[N@@H+]2CC(c3ccccc3)(c3ccccc3)OCC2=O)c1 (chirality)
N#Cc1cccc(S(=O)(=O)[N@@H+]2CC(c3ccccc3)(c3ccccc3)OCC2=O)c1 (3D coordinates assigned)
N#Cc1cccc(S(=O)(=O)[N@@H+]2CC(c3ccccc3)(c3ccccc3)OCC2=O)c1 (nonaromatic ring conformer: 70.02234627826587 kcal/mol)

>  <smiles>  (19) 
N#Cc1cccc(S(=O)(=O)N2CC(c3ccccc3)(c3ccccc3)OCC2=O)c1

>  <score_type>  (19) 
oracle

>  <origin>  (19) 
adg

>  <m_score__min__energy>  (19) 
-8.6400000000000006

>  <m_primary>  (19) 
energy

$$$$
19:0
     RDKit          3D

 41 43  0  0  0  0  0  0  0  0999 V2000
   56.6770   21.6680   47.2660 H   0  0  0  0  0  0  0  0  0  0  0  0
   57.1580   22.5920   47.3280 N   0  0  0  0  0  0  0  0  0  0  0  0
   57.2740   23.4260   46.3360 C   0  0  0  0  0  0  0  0  0  0  0  0
   56.8870   23.0780   45.0220 C   0  0  0  0  0  0  0  0  0  0  0  0
   56.3420   21.7670   44.7370 C   0  0  0  0  0  0  0  0  0  0  0  0
   55.9080   20.7190   44.5070 N   0  0  0  0  0  0  0  0  0  0  0  0
   57.0370   24.0240   43.9840 C   0  0  0  0  0  0  0  0  0  0  0  0
   56.6580   23.6940   42.6330 N   0  0  0  0  0  0  0  0  0  0  0  0
   56.0220   22.8970   42.4180 H   0  0  0  0  0  0  0  0  0  0  0  0
   57.0010   24.2440   41.8150 H   0  0  0  0  0  0  0  0  0  0  0  0
   57.5690   25.2970   44.2840 C   0  0  0  0  0  0  0  0  0  0  0  0
   57.7780   26.2750   43.2400 C   0  0  0  0  0  0  0  0  0  0  0  0
   57.9470   27.0590   42.4050 N   0  0  0  0  0  0  0  0  0  0  0  0
   57.9310   25.6010   45.6090 C   0  0  0  0  0  0  0  0  0  0  0  0
   58.4690   26.8900   45.9500 N   0  0  0  0  0  0  0  0  0  0  0  0
   59.7060   27.3650   45.3180 C   0  0  0  0  0  0  0  0  0  0  0  0
   60.5324   27.2980   46.0409 H   0  0  0  0  0  0  0  0  0  0  0  0
   59.9239   26.7393   44.4399 H   0  0  0  0  0  0  0  0  0  0  0  0
   59.5440   28.8220   44.8670 C   0  0  0  0  0  0  0  0  0  0  0  0
   60.5399   29.2496   44.6791 H   0  0  0  0  0  0  0  0  0  0  0  0
   58.9314   28.8315   43.9534 H   0  0  0  0  0  0  0  0  0  0  0  0
   58.8600   29.6360   45.8860 N   0  0  0  0  0  0  0  0  0  0  0  0
   58.4740   30.9880   45.5730 C   0  0  0  0  0  0  0  0  0  0  0  0
   58.4130   31.9620   46.5850 C   0  0  0  0  0  0  0  0  0  0  0  0
   58.6700   31.6927   47.6201 H   0  0  0  0  0  0  0  0  0  0  0  0
   58.0270   33.2720   46.2820 C   0  0  0  0  0  0  0  0  0  0  0  0
   57.9840   34.0303   47.0777 H   0  0  0  0  0  0  0  0  0  0  0  0
   57.6960   33.6180   44.9690 C   0  0  0  0  0  0  0  0  0  0  0  0
   57.3952   34.6490   44.7314 H   0  0  0  0  0  0  0  0  0  0  0  0
   57.7470   32.6550   43.9580 C   0  0  0  0  0  0  0  0  0  0  0  0
   57.4840   32.9282   42.9254 H   0  0  0  0  0  0  0  0  0  0  0  0
   58.1320   31.3440   44.2570 C   0  0  0  0  0  0  0  0  0  0  0  0
   58.1673   30.5881   43.4586 H   0  0  0  0  0  0  0  0  0  0  0  0
   58.5000   29.0360   47.1790 C   0  0  0  0  0  0  0  0  0  0  0  0
   59.4132   28.8499   47.7633 H   0  0  0  0  0  0  0  0  0  0  0  0
   57.8437   29.7245   47.7315 H   0  0  0  0  0  0  0  0  0  0  0  0
   57.7670   27.7130   46.9440 C   0  0  0  0  0  0  0  0  0  0  0  0
   57.7103   27.1599   47.8932 H   0  0  0  0  0  0  0  0  0  0  0  0
   56.7582   27.9344   46.5653 H   0  0  0  0  0  0  0  0  0  0  0  0
   57.7810   24.6650   46.5850 N   0  0  0  0  0  0  0  0  0  0  0  0
   58.0520   24.9140   47.5630 H   0  0  0  0  0  0  0  0  0  0  0  0
  1  2  1  0
  2  3  2  0
  3  4  1  0
  4  5  1  0
  5  6  3  0
  4  7  2  0
  7  8  1  0
  8  9  1  0
  8 10  1  0
  7 11  1  0
 11 12  1  0
 12 13  3  0
 11 14  2  0
 14 15  1  0
 15 16  1  0
 16 17  1  0
 16 18  1  0
 16 19  1  0
 19 20  1  0
 19 21  1  0
 19 22  1  0
 22 23  1  0
 23 24  2  0
 24 25  1  0
 24 26  1  0
 26 27  1  0
 26 28  2  0
 28 29  1  0
 28 30  1  0
 30 31  1  0
 30 32  2  0
 32 33  1  0
 22 34  1  0
 34 35  1  0
 34 36  1  0
 34 37  1  0
 37 38  1  0
 37 39  1  0
 14 40  1  0
 40 41  1  0
 40  3  1  0
 37 15  1  0
 32 23  1  0
M  END
>  <UniqueID>  (20) 
18

>  <SMILES>  (20) 
[H]/N=c1/[nH]c(N2CCN(c3ccccc3)CC2)c(C#N)c(N)c1C#N

>  <Energy>  (20) 
56.87156582465402

>  <Genealogy>  (20) 
[H]/N=c1/[nH]c(N2CCN(c3ccccc3)CC2)c(C#N)c(N)c1C#N (cis-trans isomerization)
[H]/N=c1/[nH]c(N2CCN(c3ccccc3)CC2)c(C#N)c(N)c1C#N (3D coordinates assigned)
[H]/N=c1/[nH]c(N2CCN(c3ccccc3)CC2)c(C#N)c(N)c1C#N (nonaromatic ring conformer: 56.87156582465402 kcal/mol)

>  <smiles>  (20) 
N#Cc1c(N2CCN(c3ccccc3)CC2)[nH]c(=N)c(C#N)c1N

>  <score_type>  (20) 
oracle

>  <origin>  (20) 
adg

>  <m_score__min__energy>  (20) 
-6.2300000000000004

>  <m_primary>  (20) 
energy

$$$$
20:0
     RDKit          3D

 28 29  0  0  0  0  0  0  0  0999 V2000
   55.3610   26.7320   45.9900 O   0  0  0  0  0  0  0  0  0  0  0  0
   56.6100   27.2940   45.7400 C   0  0  0  0  0  0  0  0  0  0  0  0
   57.7730   26.7100   46.2590 C   0  0  0  0  0  0  0  0  0  0  0  0
   59.0180   27.2840   46.0010 C   0  0  0  0  0  0  0  0  0  0  0  0
   59.1120   28.4410   45.2240 C   0  0  0  0  0  0  0  0  0  0  0  0
   57.9510   29.0360   44.6890 C   0  0  0  0  0  0  0  0  0  0  0  0
   58.0090   30.2270   43.8800 N   0  0  0  0  0  0  0  0  0  0  0  0
   57.1400   31.3920   44.0560 C   0  0  0  0  0  0  0  0  0  0  0  0
   57.8410   32.4620   44.8530 C   0  0  0  0  0  0  0  0  0  0  0  0
   58.5120   33.5060   44.1950 C   0  0  0  0  0  0  0  0  0  0  0  0
   59.1580   34.5040   44.9310 C   0  0  0  0  0  0  0  0  0  0  0  0
   59.1300   34.4730   46.3280 C   0  0  0  0  0  0  0  0  0  0  0  0
   58.4540   33.4450   46.9910 C   0  0  0  0  0  0  0  0  0  0  0  0
   57.8070   32.4450   46.2580 C   0  0  0  0  0  0  0  0  0  0  0  0
   56.7030   28.4520   44.9600 C   0  0  0  0  0  0  0  0  0  0  0  0
   55.1360   26.3160   46.8870 H   0  0  0  0  0  0  0  0  0  0  0  0
   57.7043   25.7981   46.8704 H   0  0  0  0  0  0  0  0  0  0  0  0
   59.9291   26.8238   46.4110 H   0  0  0  0  0  0  0  0  0  0  0  0
   60.0969   28.8903   45.0285 H   0  0  0  0  0  0  0  0  0  0  0  0
   58.7430   30.2900   43.1380 H   0  0  0  0  0  0  0  0  0  0  0  0
   56.8711   31.7948   43.0683 H   0  0  0  0  0  0  0  0  0  0  0  0
   56.2357   31.0806   44.5994 H   0  0  0  0  0  0  0  0  0  0  0  0
   58.5293   33.5386   43.0956 H   0  0  0  0  0  0  0  0  0  0  0  0
   59.6888   35.3144   44.4100 H   0  0  0  0  0  0  0  0  0  0  0  0
   59.6401   35.2578   46.9058 H   0  0  0  0  0  0  0  0  0  0  0  0
   58.4308   33.4224   48.0905 H   0  0  0  0  0  0  0  0  0  0  0  0
   57.2693   31.6419   46.7832 H   0  0  0  0  0  0  0  0  0  0  0  0
   55.7886   28.9098   44.5547 H   0  0  0  0  0  0  0  0  0  0  0  0
  1  2  1  0
  2  3  2  0
  3  4  1  0
  4  5  2  0
  5  6  1  0
  6  7  1  0
  7  8  1  0
  8  9  1  0
  9 10  2  0
 10 11  1  0
 11 12  2  0
 12 13  1  0
 13 14  2  0
  6 15  2  0
 15  2  1  0
 14  9  1  0
  1 16  1  0
  3 17  1  0
  4 18  1  0
  5 19  1  0
  7 20  1  0
  8 21  1  0
  8 22  1  0
 10 23  1  0
 11 24  1  0
 12 25  1  0
 13 26  1  0
 14 27  1  0
 15 28  1  0
M  END
>  <UniqueID>  (21) 
19

>  <SMILES>  (21) 
Oc1cccc(NCc2ccccc2)c1

>  <Energy>  (21) 
27.416493801026803

>  <Genealogy>  (21) 
Oc1cccc(NCc2ccccc2)c1 (3D coordinates assigned)
Oc1cccc(NCc2ccccc2)c1 (optimized conformer: 27.416493801026803 kcal/mol)

>  <smiles>  (21) 
Oc1cccc(NCc2ccccc2)c1

>  <score_type>  (21) 
oracle

>  <origin>  (21) 
adg

>  <m_score__min__energy>  (21) 
-7.0800000000000001

>  <m_primary>  (21) 
energy

$$$$
21:0
     RDKit          3D

 37 39  0  0  1  0  0  0  0  0999 V2000
   55.5130   29.3130   45.0270 O   0  0  0  0  0  0  0  0  0  0  0  0
   56.4850   29.9040   44.4700 C   0  0  0  0  0  0  0  0  0  0  0  0
   57.5480   29.0730   43.8300 C   0  0  0  0  0  0  0  0  0  0  0  0
   58.1860   27.9080   45.0680 S   0  0  0  0  0  0  0  0  0  0  0  0
   59.2080   28.8500   46.1920 C   0  0  0  0  0  0  0  0  0  0  0  0
   60.3640   29.4890   45.7980 C   0  0  0  0  0  0  0  0  0  0  0  0
   61.1210   30.2100   46.7240 C   0  0  0  0  0  0  0  0  0  0  0  0
   60.6440   30.2340   48.0110 C   0  0  0  0  0  0  0  0  0  0  0  0
   59.4880   29.5970   48.4130 C   0  0  0  0  0  0  0  0  0  0  0  0
   58.8010   28.9180   47.4760 N   0  0  0  0  0  0  0  0  0  0  0  0
   56.5580   31.3240   44.4570 N   0  0  0  0  0  0  0  0  0  0  0  0
   57.3820   31.9510   45.2480 C   0  0  0  0  0  0  0  0  0  0  0  0
   57.9190   31.5860   46.4440 N   0  0  0  0  0  0  0  0  0  0  0  0
   58.7070   32.4900   46.9370 N   0  0  0  0  0  0  0  0  0  0  0  0
   59.0370   33.5210   46.5700 C   0  0  0  0  0  0  0  0  0  0  0  0
   59.8810   34.7240   46.8840 C   0  0  0  0  0  0  0  0  0  0  0  0
   61.1310   34.2060   47.5160 C   0  0  0  0  0  0  0  0  0  0  0  0
   61.3270   34.1700   48.8740 C   0  0  0  0  0  0  0  0  0  0  0  0
   62.5140   33.6740   49.3630 C   0  0  0  0  0  0  0  0  0  0  0  0
   63.5060   33.2150   48.5080 C   0  0  0  0  0  0  0  0  0  0  0  0
   64.6790   32.7250   48.9500 F   0  0  0  0  0  0  0  0  0  0  0  0
   63.3070   33.2550   47.1290 C   0  0  0  0  0  0  0  0  0  0  0  0
   62.1120   33.7530   46.6300 C   0  0  0  0  0  0  0  0  0  0  0  0
   58.0670   33.6170   44.9070 S   0  0  0  0  0  0  0  0  0  0  0  0
   57.1243   28.5174   42.9804 H   0  0  0  0  0  0  0  0  0  0  0  0
   58.3607   29.7163   43.4616 H   0  0  0  0  0  0  0  0  0  0  0  0
   60.6917   29.4308   44.7496 H   0  0  0  0  0  0  0  0  0  0  0  0
   62.0475   30.7295   46.4381 H   0  0  0  0  0  0  0  0  0  0  0  0
   61.2165   30.7935   48.7655 H   0  0  0  0  0  0  0  0  0  0  0  0
   59.1422   29.6423   49.4563 H   0  0  0  0  0  0  0  0  0  0  0  0
   57.6830   30.6630   46.8690 H   0  0  0  0  0  0  0  0  0  0  0  0
   60.1200   35.2729   45.9612 H   0  0  0  0  0  0  0  0  0  0  0  0
   59.3530   35.4190   47.5535 H   0  0  0  0  0  0  0  0  0  0  0  0
   60.5476   34.5319   49.5607 H   0  0  0  0  0  0  0  0  0  0  0  0
   62.6792   33.6408   50.4500 H   0  0  0  0  0  0  0  0  0  0  0  0
   64.0889   32.8956   46.4438 H   0  0  0  0  0  0  0  0  0  0  0  0
   61.9380   33.7909   45.5445 H   0  0  0  0  0  0  0  0  0  0  0  0
  1  2  2  0
  2  3  1  0
  3  4  1  0
  4  5  1  0
  5  6  2  0
  6  7  1  0
  7  8  2  0
  8  9  1  0
  9 10  2  0
  2 11  1  0
 11 12  2  0
 12 13  1  0
 13 14  1  0
 14 15  2  0
 15 16  1  0
 16 17  1  0
 17 18  2  0
 18 19  1  0
 19 20  2  0
 20 21  1  0
 20 22  1  0
 22 23  2  0
 15 24  1  0
 10  5  1  0
 24 12  1  0
 23 17  1  0
  3 25  1  0
  3 26  1  0
  6 27  1  0
  7 28  1  0
  8 29  1  0
  9 30  1  0
 13 31  1  0
 16 32  1  0
 16 33  1  0
 18 34  1  0
 19 35  1  0
 22 36  1  0
 23 37  1  0
M  END
>  <smiles>  (22) 
O=C(CSc1ccccn1)N=c1[nH]nc(Cc2ccc(F)cc2)s1

>  <score_type>  (22) 
oracle

>  <origin>  (22) 
adg

>  <m_score__min__energy>  (22) 
-9.0399999999999991

>  <m_primary>  (22) 
energy

$$$$
22:0
     RDKit          3D

 73 78  0  0  1  0  0  0  0  0999 V2000
   60.2490   34.1450   50.0830 O   0  0  0  0  0  0  0  0  0  0  0  0
   59.9540   33.1620   50.8010 C   0  0  0  0  0  0  0  0  0  0  0  0
   60.2240   33.3190   52.2610 C   0  0  0  0  0  0  0  0  0  0  0  0
   61.4770   32.7990   52.6960 N   0  0  0  0  0  0  0  0  0  0  0  0
   62.5430   33.7760   52.6700 C   0  0  0  0  0  0  0  0  0  0  0  0
   63.4350   33.5820   51.4490 C   0  0  0  0  0  0  0  0  0  0  0  0
   64.0750   32.2930   51.4750 N   0  0  0  0  0  0  0  0  0  0  0  0
   64.6750   31.9580   50.2260 C   0  0  0  0  0  0  0  0  0  0  0  0
   63.8920   32.3280   49.0330 C   0  0  0  0  0  0  0  0  0  0  0  0
   62.8770   31.5380   48.5150 C   0  0  0  0  0  0  0  0  0  0  0  0
   62.1690   31.9210   47.3970 C   0  0  0  0  0  0  0  0  0  0  0  0
   62.4220   33.0960   46.7300 C   0  0  0  0  0  0  0  0  0  0  0  0
   63.4320   33.8950   47.2350 C   0  0  0  0  0  0  0  0  0  0  0  0
   64.1530   33.5220   48.3620 C   0  0  0  0  0  0  0  0  0  0  0  0
   63.2790   31.2760   52.0850 C   0  0  0  0  0  0  0  0  0  0  0  0
   61.8020   31.5640   52.0230 C   0  0  0  0  0  0  0  0  0  0  0  0
   59.4050   32.0100   50.2190 N   0  0  0  0  0  0  0  0  0  0  0  0
   59.1190   31.7830   48.8630 C   0  0  0  0  0  0  0  0  0  0  0  0
   59.4200   30.6580   48.1470 C   0  0  0  0  0  0  0  0  0  0  0  0
   59.1010   30.5070   46.7940 C   0  0  0  0  0  0  0  0  0  0  0  0
   58.4570   31.5080   46.1160 C   0  0  0  0  0  0  0  0  0  0  0  0
   58.1220   31.4040   44.7840 C   0  0  0  0  0  0  0  0  0  0  0  0
   58.4100   30.3400   44.1160 N   0  0  0  0  0  0  0  0  0  0  0  0
   58.0770   29.0310   44.6020 C   0  0  0  0  0  0  0  0  0  0  0  0
   56.8480   28.7400   45.1580 C   0  0  0  0  0  0  0  0  0  0  0  0
   56.6450   27.4380   45.5920 C   0  0  0  0  0  0  0  0  0  0  0  0
   57.6530   26.4780   45.4650 C   0  0  0  0  0  0  0  0  0  0  0  0
   57.4370   25.1700   45.9050 O   0  0  0  0  0  0  0  0  0  0  0  0
   57.2700   24.1670   44.9580 C   0  0  0  0  0  0  0  0  0  0  0  0
   56.3290   24.2330   43.9470 C   0  0  0  0  0  0  0  0  0  0  0  0
   56.1860   23.2040   43.0090 C   0  0  0  0  0  0  0  0  0  0  0  0
   57.0350   22.1020   43.1300 C   0  0  0  0  0  0  0  0  0  0  0  0
   57.9790   22.0190   44.1320 C   0  0  0  0  0  0  0  0  0  0  0  0
   58.1040   23.0600   45.0600 C   0  0  0  0  0  0  0  0  0  0  0  0
   58.8780   26.7870   44.9040 C   0  0  0  0  0  0  0  0  0  0  0  0
   59.0770   28.0740   44.4760 C   0  0  0  0  0  0  0  0  0  0  0  0
   57.4870   32.4410   44.1940 N   0  0  0  0  0  0  0  0  0  0  0  0
   57.1730   33.5670   44.8700 C   0  0  0  0  0  0  0  0  0  0  0  0
   57.5100   33.6500   46.1770 N   0  0  0  0  0  0  0  0  0  0  0  0
   58.1420   32.6510   46.8160 C   0  0  0  0  0  0  0  0  0  0  0  0
   58.4600   32.7920   48.1490 C   0  0  0  0  0  0  0  0  0  0  0  0
   60.1971   34.3923   52.5005 H   0  0  0  0  0  0  0  0  0  0  0  0
   59.4495   32.7383   52.7834 H   0  0  0  0  0  0  0  0  0  0  0  0
   62.1053   34.7847   52.6386 H   0  0  0  0  0  0  0  0  0  0  0  0
   63.1560   33.6487   53.5745 H   0  0  0  0  0  0  0  0  0  0  0  0
   62.8212   33.6602   50.5395 H   0  0  0  0  0  0  0  0  0  0  0  0
   64.2135   34.3591   51.4577 H   0  0  0  0  0  0  0  0  0  0  0  0
   65.6467   32.4701   50.1673 H   0  0  0  0  0  0  0  0  0  0  0  0
   64.7541   30.8610   50.2104 H   0  0  0  0  0  0  0  0  0  0  0  0
   62.6319   30.5853   49.0072 H   0  0  0  0  0  0  0  0  0  0  0  0
   61.3713   31.2618   47.0241 H   0  0  0  0  0  0  0  0  0  0  0  0
   61.8488   33.3870   45.8374 H   0  0  0  0  0  0  0  0  0  0  0  0
   63.6689   34.8451   46.7338 H   0  0  0  0  0  0  0  0  0  0  0  0
   64.9487   34.1842   48.7340 H   0  0  0  0  0  0  0  0  0  0  0  0
   63.4719   30.3240   51.5688 H   0  0  0  0  0  0  0  0  0  0  0  0
   63.5601   31.2332   53.1476 H   0  0  0  0  0  0  0  0  0  0  0  0
   61.4961   31.6396   50.9691 H   0  0  0  0  0  0  0  0  0  0  0  0
   61.2683   30.7446   52.5268 H   0  0  0  0  0  0  0  0  0  0  0  0
   59.1910   31.2150   50.8910 H   0  0  0  0  0  0  0  0  0  0  0  0
   59.9372   29.8332   48.6591 H   0  0  0  0  0  0  0  0  0  0  0  0
   59.3692   29.5776   46.2702 H   0  0  0  0  0  0  0  0  0  0  0  0
   56.0643   29.5061   45.2529 H   0  0  0  0  0  0  0  0  0  0  0  0
   55.6805   27.1582   46.0408 H   0  0  0  0  0  0  0  0  0  0  0  0
   55.6767   25.1160   43.8782 H   0  0  0  0  0  0  0  0  0  0  0  0
   55.4343   23.2612   42.2079 H   0  0  0  0  0  0  0  0  0  0  0  0
   56.9485   21.2778   42.4066 H   0  0  0  0  0  0  0  0  0  0  0  0
   58.6324   21.1368   44.2020 H   0  0  0  0  0  0  0  0  0  0  0  0
   58.8548   23.0022   45.8618 H   0  0  0  0  0  0  0  0  0  0  0  0
   59.6662   26.0262   44.8044 H   0  0  0  0  0  0  0  0  0  0  0  0
   60.0414   28.3532   44.0266 H   0  0  0  0  0  0  0  0  0  0  0  0
   57.2570   32.3060   43.1770 H   0  0  0  0  0  0  0  0  0  0  0  0
   56.6548   34.3979   44.3689 H   0  0  0  0  0  0  0  0  0  0  0  0
   58.1887   33.7235   48.6674 H   0  0  0  0  0  0  0  0  0  0  0  0
  1  2  2  0
  2  3  1  0
  3  4  1  0
  4  5  1  0
  5  6  1  0
  6  7  1  0
  7  8  1  0
  8  9  1  0
  9 10  2  0
 10 11  1  0
 11 12  2  0
 12 13  1  0
 13 14  2  0
  7 15  1  0
 15 16  1  0
  2 17  1  0
 17 18  1  0
 18 19  2  0
 19 20  1  0
 20 21  2  0
 21 22  1  0
 22 23  2  0
 23 24  1  0
 24 25  2  0
 25 26  1  0
 26 27  2  0
 27 28  1  0
 28 29  1  0
 29 30  2  0
 30 31  1  0
 31 32  2  0
 32 33  1  0
 33 34  2  0
 27 35  1  0
 35 36  2  0
 22 37  1  0
 37 38  1  0
 38 39  2  0
 39 40  1  0
 40 41  2  0
 16  4  1  0
 41 18  1  0
 14  9  1  0
 40 21  1  0
 36 24  1  0
 34 29  1  0
  3 42  1  0
  3 43  1  0
  5 44  1  0
  5 45  1  0
  6 46  1  0
  6 47  1  0
  8 48  1  0
  8 49  1  0
 10 50  1  0
 11 51  1  0
 12 52  1  0
 13 53  1  0
 14 54  1  0
 15 55  1  0
 15 56  1  0
 16 57  1  0
 16 58  1  0
 17 59  1  0
 19 60  1  0
 20 61  1  0
 25 62  1  0
 26 63  1  0
 30 64  1  0
 31 65  1  0
 32 66  1  0
 33 67  1  0
 34 68  1  0
 35 69  1  0
 36 70  1  0
 37 71  1  0
 38 72  1  0
 41 73  1  0
M  END
>  <smiles>  (23) 
O=C(CN1CCN(Cc2ccccc2)CC1)Nc1ccc2c(=Nc3ccc(Oc4ccccc4)cc3)[nH]cnc2c1

>  <score_type>  (23) 
oracle

>  <origin>  (23) 
adg

>  <m_score__min__energy>  (23) 
-9.7100000000000009

>  <m_primary>  (23) 
energy

$$$$
23:0
     RDKit          3D

 40 42  0  0  0  0  0  0  0  0999 V2000
   60.3780   33.8370   46.5780 C   0  0  0  0  0  0  0  0  0  0  0  0
   61.6400   33.1170   46.9410 C   0  0  0  0  0  0  0  0  0  0  0  0
   62.8460   33.7250   47.2200 C   0  0  0  0  0  0  0  0  0  0  0  0
   63.6930   32.6850   47.5470 C   0  0  0  0  0  0  0  0  0  0  0  0
   63.0290   31.5160   47.4590 N   0  0  0  0  0  0  0  0  0  0  0  0
   61.7880   31.7790   47.0790 N   0  0  0  0  0  0  0  0  0  0  0  0
   60.8010   30.7530   46.8900 C   0  0  0  0  0  0  0  0  0  0  0  0
   59.5900   30.7810   47.5980 C   0  0  0  0  0  0  0  0  0  0  0  0
   58.6230   29.8080   47.3490 C   0  0  0  0  0  0  0  0  0  0  0  0
   58.8540   28.8210   46.3820 C   0  0  0  0  0  0  0  0  0  0  0  0
   57.7850   27.8200   46.0290 C   0  0  0  0  0  0  0  0  0  0  0  0
   57.1360   28.1640   44.7530 N   0  0  0  0  0  0  0  0  0  0  0  0
   56.2560   29.3410   44.8610 C   0  0  0  0  0  0  0  0  0  0  0  0
   56.8480   30.5260   44.1390 C   0  0  0  0  0  0  0  0  0  0  0  0
   57.4740   31.5590   44.8560 C   0  0  0  0  0  0  0  0  0  0  0  0
   58.0710   32.6260   44.1770 C   0  0  0  0  0  0  0  0  0  0  0  0
   58.0360   32.6760   42.7810 C   0  0  0  0  0  0  0  0  0  0  0  0
   57.3950   31.6640   42.0620 C   0  0  0  0  0  0  0  0  0  0  0  0
   56.7970   30.5950   42.7360 C   0  0  0  0  0  0  0  0  0  0  0  0
   60.0800   28.8180   45.7030 C   0  0  0  0  0  0  0  0  0  0  0  0
   61.0100   29.7780   45.9580 N   0  0  0  0  0  0  0  0  0  0  0  0
   59.8507   34.1379   47.4953 H   0  0  0  0  0  0  0  0  0  0  0  0
   60.6233   34.7311   45.9860 H   0  0  0  0  0  0  0  0  0  0  0  0
   59.7331   33.1709   45.9860 H   0  0  0  0  0  0  0  0  0  0  0  0
   63.0807   34.7992   47.1889 H   0  0  0  0  0  0  0  0  0  0  0  0
   64.7489   32.7941   47.8354 H   0  0  0  0  0  0  0  0  0  0  0  0
   59.4045   31.5664   48.3455 H   0  0  0  0  0  0  0  0  0  0  0  0
   57.6781   29.8153   47.9122 H   0  0  0  0  0  0  0  0  0  0  0  0
   58.2413   26.8228   45.9424 H   0  0  0  0  0  0  0  0  0  0  0  0
   57.0226   27.8293   46.8219 H   0  0  0  0  0  0  0  0  0  0  0  0
   56.5340   27.3510   44.4840 H   0  0  0  0  0  0  0  0  0  0  0  0
   55.2783   29.1012   44.4176 H   0  0  0  0  0  0  0  0  0  0  0  0
   56.1438   29.5986   45.9245 H   0  0  0  0  0  0  0  0  0  0  0  0
   57.4947   31.5286   45.9554 H   0  0  0  0  0  0  0  0  0  0  0  0
   58.5689   33.4272   44.7428 H   0  0  0  0  0  0  0  0  0  0  0  0
   58.5130   33.5119   42.2483 H   0  0  0  0  0  0  0  0  0  0  0  0
   57.3608   31.7084   40.9634 H   0  0  0  0  0  0  0  0  0  0  0  0
   56.2849   29.8054   42.1665 H   0  0  0  0  0  0  0  0  0  0  0  0
   60.2916   28.0352   44.9598 H   0  0  0  0  0  0  0  0  0  0  0  0
   61.9060   29.7610   45.4200 H   0  0  0  0  0  0  0  0  0  0  0  0
  1  2  1  0
  2  3  2  0
  3  4  1  0
  4  5  2  0
  5  6  1  0
  6  7  1  0
  7  8  2  0
  8  9  1  0
  9 10  2  0
 10 11  1  0
 11 12  1  0
 12 13  1  0
 13 14  1  0
 14 15  2  0
 15 16  1  0
 16 17  2  0
 17 18  1  0
 18 19  2  0
 10 20  1  0
 20 21  2  0
  6  2  1  0
 21  7  1  0
 19 14  1  0
  1 22  1  0
  1 23  1  0
  1 24  1  0
  3 25  1  0
  4 26  1  0
  8 27  1  0
  9 28  1  0
 11 29  1  0
 11 30  1  0
 12 31  1  0
 13 32  1  0
 13 33  1  0
 15 34  1  0
 16 35  1  0
 17 36  1  0
 18 37  1  0
 19 38  1  0
 20 39  1  0
 21 40  1  0
M  CHG  1  21   1
M  END
>  <UniqueID>  (24) 
20

>  <SMILES>  (24) 
Cc1ccnn1-c1ccc(CNCc2ccccc2)c[nH+]1

>  <Energy>  (24) 
72.74214293711582

>  <Genealogy>  (24) 
Cc1ccnn1-c1ccc(CNCc2ccccc2)c[nH+]1 (protonated)
Cc1ccnn1-c1ccc(CNCc2ccccc2)c[nH+]1 (3D coordinates assigned)
Cc1ccnn1-c1ccc(CNCc2ccccc2)c[nH+]1 (optimized conformer: 72.74214293711582 kcal/mol)

>  <smiles>  (24) 
Cc1ccnn1-c1ccc(CNCc2ccccc2)cn1

>  <score_type>  (24) 
oracle

>  <origin>  (24) 
adg

>  <m_score__min__energy>  (24) 
-6.0300000000000002

>  <m_primary>  (24) 
energy

$$$$
24:0
     RDKit          3D

 49 51  0  0  0  0  0  0  0  0999 V2000
   55.9810   30.3030   44.7790 O   0  0  0  0  0  0  0  0  0  0  0  0
   57.1870   30.6460   44.6300 C   0  0  0  0  0  0  0  0  0  0  0  0
   58.1550   29.6710   44.1990 N   0  0  0  0  0  0  0  0  0  0  0  0
   57.9160   28.2530   44.2080 C   0  0  0  0  0  0  0  0  0  0  0  0
   57.5000   27.6340   45.3980 C   0  0  0  0  0  0  0  0  0  0  0  0
   57.2460   26.2590   45.4300 C   0  0  0  0  0  0  0  0  0  0  0  0
   57.3920   25.4920   44.2690 C   0  0  0  0  0  0  0  0  0  0  0  0
   57.0400   23.6160   44.3130 Br  0  0  0  0  0  0  0  0  0  0  0  0
   57.7830   26.1040   43.0740 C   0  0  0  0  0  0  0  0  0  0  0  0
   58.0380   27.4790   43.0390 C   0  0  0  0  0  0  0  0  0  0  0  0
   57.5680   32.0180   44.8700 N   0  0  0  0  0  0  0  0  0  0  0  0
   58.8350   32.5480   44.3490 C   0  0  0  0  0  0  0  0  0  0  0  0
   58.8790   34.0840   44.4240 C   0  0  0  0  0  0  0  0  0  0  0  0
   58.5010   34.6120   45.7570 N   0  0  0  0  0  0  0  0  0  0  0  0
   59.6340   35.0850   46.5820 C   0  0  0  0  0  0  0  0  0  0  0  0
   60.6090   33.9620   47.0020 C   0  0  0  0  0  0  0  0  0  0  0  0
   60.0620   33.1270   48.1690 C   0  0  0  0  0  0  0  0  0  0  0  0
   59.9470   31.6660   47.8140 C   0  0  0  0  0  0  0  0  0  0  0  0
   59.0190   30.8480   48.4810 C   0  0  0  0  0  0  0  0  0  0  0  0
   58.9280   29.4880   48.1700 C   0  0  0  0  0  0  0  0  0  0  0  0
   59.7600   28.9360   47.1920 C   0  0  0  0  0  0  0  0  0  0  0  0
   60.6860   29.7420   46.5250 C   0  0  0  0  0  0  0  0  0  0  0  0
   60.7830   31.1020   46.8350 C   0  0  0  0  0  0  0  0  0  0  0  0
   57.5050   33.8240   46.5180 C   0  0  0  0  0  0  0  0  0  0  0  0
   56.6730   32.9120   45.6150 C   0  0  0  0  0  0  0  0  0  0  0  0
   59.0550   29.9980   43.7810 H   0  0  0  0  0  0  0  0  0  0  0  0
   57.3731   28.2345   46.3109 H   0  0  0  0  0  0  0  0  0  0  0  0
   56.9311   25.7801   46.3689 H   0  0  0  0  0  0  0  0  0  0  0  0
   57.8903   25.5027   42.1592 H   0  0  0  0  0  0  0  0  0  0  0  0
   58.3351   27.9572   42.0940 H   0  0  0  0  0  0  0  0  0  0  0  0
   59.6649   32.1375   44.9429 H   0  0  0  0  0  0  0  0  0  0  0  0
   58.9239   32.2521   43.2933 H   0  0  0  0  0  0  0  0  0  0  0  0
   59.9017   34.4167   44.1927 H   0  0  0  0  0  0  0  0  0  0  0  0
   58.1469   34.4690   43.6989 H   0  0  0  0  0  0  0  0  0  0  0  0
   60.1954   35.8339   46.0041 H   0  0  0  0  0  0  0  0  0  0  0  0
   59.2066   35.5014   47.5061 H   0  0  0  0  0  0  0  0  0  0  0  0
   60.7784   33.2991   46.1407 H   0  0  0  0  0  0  0  0  0  0  0  0
   61.5457   34.4338   47.3336 H   0  0  0  0  0  0  0  0  0  0  0  0
   60.7404   33.2311   49.0286 H   0  0  0  0  0  0  0  0  0  0  0  0
   59.0548   33.4983   48.4092 H   0  0  0  0  0  0  0  0  0  0  0  0
   58.3619   31.2794   49.2505 H   0  0  0  0  0  0  0  0  0  0  0  0
   58.2008   28.8517   48.6956 H   0  0  0  0  0  0  0  0  0  0  0  0
   59.6857   27.8662   46.9472 H   0  0  0  0  0  0  0  0  0  0  0  0
   61.3396   29.3061   45.7550 H   0  0  0  0  0  0  0  0  0  0  0  0
   61.5161   31.7327   46.3109 H   0  0  0  0  0  0  0  0  0  0  0  0
   58.0342   33.2035   47.2561 H   0  0  0  0  0  0  0  0  0  0  0  0
   56.8183   34.5313   47.0060 H   0  0  0  0  0  0  0  0  0  0  0  0
   55.9854   32.3136   46.2308 H   0  0  0  0  0  0  0  0  0  0  0  0
   56.0923   33.5236   44.9088 H   0  0  0  0  0  0  0  0  0  0  0  0
  1  2  2  0
  2  3  1  0
  3  4  1  0
  4  5  2  0
  5  6  1  0
  6  7  2  0
  7  8  1  0
  7  9  1  0
  9 10  2  0
  2 11  1  0
 11 12  1  0
 12 13  1  0
 13 14  1  0
 14 15  1  0
 15 16  1  0
 16 17  1  0
 17 18  1  0
 18 19  2  0
 19 20  1  0
 20 21  2  0
 21 22  1  0
 22 23  2  0
 14 24  1  0
 24 25  1  0
 10  4  1  0
 25 11  1  0
 23 18  1  0
  3 26  1  0
  5 27  1  0
  6 28  1  0
  9 29  1  0
 10 30  1  0
 12 31  1  0
 12 32  1  0
 13 33  1  0
 13 34  1  0
 15 35  1  0
 15 36  1  0
 16 37  1  0
 16 38  1  0
 17 39  1  0
 17 40  1  0
 19 41  1  0
 20 42  1  0
 21 43  1  0
 22 44  1  0
 23 45  1  0
 24 46  1  0
 24 47  1  0
 25 48  1  0
 25 49  1  0
M  END
>  <UniqueID>  (25) 
21

>  <SMILES>  (25) 
O=C(Nc1ccc(Br)cc1)N1CCN(CCCc2ccccc2)CC1

>  <Energy>  (25) 
60.63395195908823

>  <Genealogy>  (25) 
O=C(Nc1ccc(Br)cc1)N1CCN(CCCc2ccccc2)CC1 (3D coordinates assigned)
O=C(Nc1ccc(Br)cc1)N1CCN(CCCc2ccccc2)CC1 (nonaromatic ring conformer: 60.63395195908823 kcal/mol)

>  <smiles>  (25) 
O=C(Nc1ccc(Br)cc1)N1CCN(CCCc2ccccc2)CC1

>  <score_type>  (25) 
oracle

>  <origin>  (25) 
adg

>  <m_score__min__energy>  (25) 
-8.0099999999999998

>  <m_primary>  (25) 
energy

$$$$
25:0
     RDKit          3D

 43 45  0  0  0  0  0  0  0  0999 V2000
   57.2990   20.3540   44.4270 N   0  0  0  0  0  0  0  0  0  0  0  0
   56.9370   21.5640   43.7610 C   0  0  0  0  0  0  0  0  0  0  0  0
   55.9620   21.5660   42.9630 O   0  0  0  0  0  0  0  0  0  0  0  0
   57.7370   22.8250   43.9770 C   0  0  0  0  0  0  0  0  0  0  0  0
   58.3240   22.8830   45.4130 C   0  0  0  0  0  0  0  0  0  0  0  0
   57.6530   23.9470   46.2890 C   0  0  0  0  0  0  0  0  0  0  0  0
   57.7250   25.2630   45.6300 N   0  0  0  0  0  0  0  0  0  0  0  0
   57.9900   26.4490   46.4220 C   0  0  0  0  0  0  0  0  0  0  0  0
   58.1770   26.3430   47.6650 O   0  0  0  0  0  0  0  0  0  0  0  0
   58.0320   27.8340   45.8300 C   0  0  0  0  0  0  0  0  0  0  0  0
   56.3750   28.3460   45.2500 S   0  0  0  0  0  0  0  0  0  0  0  0
   56.8940   29.9590   44.6720 C   0  0  0  0  0  0  0  0  0  0  0  0
   57.4340   30.9000   45.4730 N   0  0  0  0  0  0  0  0  0  0  0  0
   57.7780   32.0240   44.7840 C   0  0  0  0  0  0  0  0  0  0  0  0
   58.4100   33.1840   45.4630 C   0  0  0  0  0  0  0  0  0  0  0  0
   58.4620   33.2270   46.8710 C   0  0  0  0  0  0  0  0  0  0  0  0
   59.0610   34.3070   47.5270 C   0  0  0  0  0  0  0  0  0  0  0  0
   59.6180   35.3530   46.7900 C   0  0  0  0  0  0  0  0  0  0  0  0
   59.5810   35.3210   45.3960 C   0  0  0  0  0  0  0  0  0  0  0  0
   58.9840   34.2450   44.7320 C   0  0  0  0  0  0  0  0  0  0  0  0
   57.4930   31.9710   43.4140 C   0  0  0  0  0  0  0  0  0  0  0  0
   56.8000   30.4770   43.0800 S   0  0  0  0  0  0  0  0  0  0  0  0
   57.4770   25.3500   44.1790 C   0  0  0  0  0  0  0  0  0  0  0  0
   56.8730   24.0540   43.6270 C   0  0  0  0  0  0  0  0  0  0  0  0
   56.7490   19.4800   44.2640 H   0  0  0  0  0  0  0  0  0  0  0  0
   58.1130   20.3210   45.0790 H   0  0  0  0  0  0  0  0  0  0  0  0
   58.6047   22.8270   43.3009 H   0  0  0  0  0  0  0  0  0  0  0  0
   58.1876   21.9002   45.8879 H   0  0  0  0  0  0  0  0  0  0  0  0
   59.3872   23.1507   45.3245 H   0  0  0  0  0  0  0  0  0  0  0  0
   56.5986   23.6763   46.4472 H   0  0  0  0  0  0  0  0  0  0  0  0
   58.1746   23.9991   47.2561 H   0  0  0  0  0  0  0  0  0  0  0  0
   58.3804   28.5426   46.5958 H   0  0  0  0  0  0  0  0  0  0  0  0
   58.7190   27.8284   44.9709 H   0  0  0  0  0  0  0  0  0  0  0  0
   58.0279   32.4045   47.4584 H   0  0  0  0  0  0  0  0  0  0  0  0
   59.0932   34.3321   48.6262 H   0  0  0  0  0  0  0  0  0  0  0  0
   60.0862   36.2027   47.3084 H   0  0  0  0  0  0  0  0  0  0  0  0
   60.0231   36.1452   44.8170 H   0  0  0  0  0  0  0  0  0  0  0  0
   58.9618   34.2258   43.6324 H   0  0  0  0  0  0  0  0  0  0  0  0
   57.6889   32.7692   42.6829 H   0  0  0  0  0  0  0  0  0  0  0  0
   56.7797   26.1785   43.9858 H   0  0  0  0  0  0  0  0  0  0  0  0
   58.4407   25.5197   43.6766 H   0  0  0  0  0  0  0  0  0  0  0  0
   55.8695   23.9177   44.0563 H   0  0  0  0  0  0  0  0  0  0  0  0
   56.8260   24.1382   42.5312 H   0  0  0  0  0  0  0  0  0  0  0  0
  1  2  1  0
  2  3  2  0
  2  4  1  0
  4  5  1  0
  5  6  1  0
  6  7  1  0
  7  8  1  0
  8  9  2  0
  8 10  1  0
 10 11  1  0
 11 12  1  0
 12 13  2  0
 13 14  1  0
 14 15  1  0
 15 16  2  0
 16 17  1  0
 17 18  2  0
 18 19  1  0
 19 20  2  0
 14 21  2  0
 21 22  1  0
  7 23  1  0
 23 24  1  0
 24  4  1  0
 22 12  1  0
 20 15  1  0
  1 25  1  0
  1 26  1  0
  4 27  1  0
  5 28  1  0
  5 29  1  0
  6 30  1  0
  6 31  1  0
 10 32  1  0
 10 33  1  0
 16 34  1  0
 17 35  1  0
 18 36  1  0
 19 37  1  0
 20 38  1  0
 21 39  1  0
 23 40  1  0
 23 41  1  0
 24 42  1  0
 24 43  1  0
M  END
>  <UniqueID>  (26) 
22

>  <SMILES>  (26) 
NC(=O)C1CCN(C(=O)CSc2nc(-c3ccccc3)cs2)CC1

>  <Energy>  (26) 
71.90140366097577

>  <Genealogy>  (26) 
NC(=O)C1CCN(C(=O)CSc2nc(-c3ccccc3)cs2)CC1 (3D coordinates assigned)
NC(=O)C1CCN(C(=O)CSc2nc(-c3ccccc3)cs2)CC1 (nonaromatic ring conformer: 71.90140366097577 kcal/mol)

>  <smiles>  (26) 
NC(=O)C1CCN(C(=O)CSc2nc(-c3ccccc3)cs2)CC1

>  <score_type>  (26) 
oracle

>  <origin>  (26) 
adg

>  <m_score__min__energy>  (26) 
-9.3900000000000006

>  <m_primary>  (26) 
energy

$$$$
26:0
     RDKit          3D

 32 32  0  0  0  0  0  0  0  0999 V2000
   58.1270   27.1580   43.3530 C   0  0  0  0  0  0  0  0  0  0  0  0
   57.3930   28.4130   43.1780 N   0  0  0  0  0  0  0  0  0  0  0  0
   57.7980   29.3690   44.1780 C   0  0  0  0  0  0  0  0  0  0  0  0
   57.7850   30.7450   43.8930 C   0  0  0  0  0  0  0  0  0  0  0  0
   58.1510   31.6720   44.8720 C   0  0  0  0  0  0  0  0  0  0  0  0
   58.5240   31.2420   46.1530 C   0  0  0  0  0  0  0  0  0  0  0  0
   58.8940   32.2030   47.1570 N   0  0  0  0  0  0  0  0  0  0  0  0
   60.0880   31.9700   47.9830 C   0  0  0  0  0  0  0  0  0  0  0  0
   61.3260   31.7620   47.1110 C   0  0  0  0  0  0  0  0  0  0  0  0
   62.4390   33.1480   47.2470 Cl  0  0  0  0  0  0  0  0  0  0  0  0
   58.1310   33.4500   47.2830 C   0  0  0  0  0  0  0  0  0  0  0  0
   59.0370   34.6530   47.0370 C   0  0  0  0  0  0  0  0  0  0  0  0
   59.2640   34.9050   45.2880 Cl  0  0  0  0  0  0  0  0  0  0  0  0
   58.5300   29.8680   46.4450 C   0  0  0  0  0  0  0  0  0  0  0  0
   58.9140   29.4270   47.6680 F   0  0  0  0  0  0  0  0  0  0  0  0
   58.1650   28.9400   45.4650 C   0  0  0  0  0  0  0  0  0  0  0  0
   58.2482   26.9507   44.4265 H   0  0  0  0  0  0  0  0  0  0  0  0
   57.5668   26.3368   42.8820 H   0  0  0  0  0  0  0  0  0  0  0  0
   59.1174   27.2437   42.8820 H   0  0  0  0  0  0  0  0  0  0  0  0
   57.5830   28.7910   42.2200 H   0  0  0  0  0  0  0  0  0  0  0  0
   56.3660   28.2240   43.2530 H   0  0  0  0  0  0  0  0  0  0  0  0
   57.4851   31.0940   42.8939 H   0  0  0  0  0  0  0  0  0  0  0  0
   58.1465   32.7464   44.6361 H   0  0  0  0  0  0  0  0  0  0  0  0
   60.2497   32.8410   48.6351 H   0  0  0  0  0  0  0  0  0  0  0  0
   59.9265   31.0629   48.5839 H   0  0  0  0  0  0  0  0  0  0  0  0
   61.8463   30.8489   47.4359 H   0  0  0  0  0  0  0  0  0  0  0  0
   61.0063   31.6692   46.0626 H   0  0  0  0  0  0  0  0  0  0  0  0
   57.3158   33.4527   46.5444 H   0  0  0  0  0  0  0  0  0  0  0  0
   57.7182   33.5154   48.3005 H   0  0  0  0  0  0  0  0  0  0  0  0
   58.5769   35.5502   47.4767 H   0  0  0  0  0  0  0  0  0  0  0  0
   60.0159   34.4662   47.5027 H   0  0  0  0  0  0  0  0  0  0  0  0
   58.1651   27.8661   45.7031 H   0  0  0  0  0  0  0  0  0  0  0  0
  1  2  1  0
  2  3  1  0
  3  4  2  0
  4  5  1  0
  5  6  2  0
  6  7  1  0
  7  8  1  0
  8  9  1  0
  9 10  1  0
  7 11  1  0
 11 12  1  0
 12 13  1  0
  6 14  1  0
 14 15  1  0
 14 16  2  0
 16  3  1  0
  1 17  1  0
  1 18  1  0
  1 19  1  0
  2 20  1  0
  2 21  1  0
  4 22  1  0
  5 23  1  0
  8 24  1  0
  8 25  1  0
  9 26  1  0
  9 27  1  0
 11 28  1  0
 11 29  1  0
 12 30  1  0
 12 31  1  0
 16 32  1  0
M  CHG  1   2   1
M  END
>  <UniqueID>  (27) 
23

>  <SMILES>  (27) 
C[NH2+]c1ccc(N(CCCl)CCCl)c(F)c1

>  <Energy>  (27) 
27.19007802130845

>  <Genealogy>  (27) 
C[NH2+]c1ccc(N(CCCl)CCCl)c(F)c1 (protonated)
C[NH2+]c1ccc(N(CCCl)CCCl)c(F)c1 (3D coordinates assigned)
C[NH2+]c1ccc(N(CCCl)CCCl)c(F)c1 (optimized conformer: 27.19007802130845 kcal/mol)

>  <smiles>  (27) 
CNc1ccc(N(CCCl)CCCl)c(F)c1

>  <score_type>  (27) 
oracle

>  <origin>  (27) 
adg

>  <m_score__min__energy>  (27) 
-3.8199999999999998

>  <m_primary>  (27) 
energy

$$$$
27:0
     RDKit          3D

 33 33  0  0  0  0  0  0  0  0999 V2000
   63.3850   33.8460   46.2940 C   0  0  0  0  0  0  0  0  0  0  0  0
   63.9200   32.9330   47.3230 N   0  0  0  0  0  0  0  0  0  0  0  0
   63.3420   31.5900   47.1420 C   0  0  0  0  0  0  0  0  0  0  0  0
   63.6290   33.4270   48.6870 C   0  0  0  0  0  0  0  0  0  0  0  0
   62.2220   33.8370   48.8250 C   0  0  0  0  0  0  0  0  0  0  0  0
   61.0690   34.1730   48.9330 C   0  0  0  0  0  0  0  0  0  0  0  0
   59.6660   34.5830   49.0610 C   0  0  0  0  0  0  0  0  0  0  0  0
   59.1190   34.9680   47.7600 N   0  0  0  0  0  0  0  0  0  0  0  0
   58.5510   34.0240   46.8330 C   0  0  0  0  0  0  0  0  0  0  0  0
   58.6000   32.6530   47.1310 C   0  0  0  0  0  0  0  0  0  0  0  0
   58.0610   31.7120   46.2500 C   0  0  0  0  0  0  0  0  0  0  0  0
   57.4570   32.1240   45.0480 C   0  0  0  0  0  0  0  0  0  0  0  0
   56.9010   31.1590   44.1370 N   0  0  0  0  0  0  0  0  0  0  0  0
   57.2970   31.0970   42.9540 O   0  0  0  0  0  0  0  0  0  0  0  0
   55.9170   30.2910   44.5510 O   0  0  0  0  0  0  0  0  0  0  0  0
   57.4050   33.4960   44.7510 C   0  0  0  0  0  0  0  0  0  0  0  0
   57.9450   34.4370   45.6320 C   0  0  0  0  0  0  0  0  0  0  0  0
   62.8866   34.6966   46.7819 H   0  0  0  0  0  0  0  0  0  0  0  0
   64.2098   34.2150   45.6666 H   0  0  0  0  0  0  0  0  0  0  0  0
   62.6600   33.3068   45.6666 H   0  0  0  0  0  0  0  0  0  0  0  0
   64.9580   32.8550   47.1940 H   0  0  0  0  0  0  0  0  0  0  0  0
   63.1478   31.1387   48.1262 H   0  0  0  0  0  0  0  0  0  0  0  0
   62.3983   31.6693   46.5823 H   0  0  0  0  0  0  0  0  0  0  0  0
   64.0483   30.9592   46.5823 H   0  0  0  0  0  0  0  0  0  0  0  0
   63.8399   32.6251   49.4099 H   0  0  0  0  0  0  0  0  0  0  0  0
   64.2639   34.3046   48.8783 H   0  0  0  0  0  0  0  0  0  0  0  0
   59.0801   33.7443   49.4651 H   0  0  0  0  0  0  0  0  0  0  0  0
   59.6108   35.4483   49.7379 H   0  0  0  0  0  0  0  0  0  0  0  0
   59.1290   35.9790   47.4860 H   0  0  0  0  0  0  0  0  0  0  0  0
   59.0676   32.3161   48.0679 H   0  0  0  0  0  0  0  0  0  0  0  0
   58.1092   30.6414   46.4980 H   0  0  0  0  0  0  0  0  0  0  0  0
   56.9345   33.8331   43.8156 H   0  0  0  0  0  0  0  0  0  0  0  0
   57.8960   35.5078   45.3849 H   0  0  0  0  0  0  0  0  0  0  0  0
  1  2  1  0
  2  3  1  0
  2  4  1  0
  4  5  1  0
  5  6  3  0
  6  7  1  0
  7  8  1  0
  8  9  1  0
  9 10  2  0
 10 11  1  0
 11 12  2  0
 12 13  1  0
 13 14  2  0
 13 15  1  0
 12 16  1  0
 16 17  2  0
 17  9  1  0
  1 18  1  0
  1 19  1  0
  1 20  1  0
  2 21  1  0
  3 22  1  0
  3 23  1  0
  3 24  1  0
  4 25  1  0
  4 26  1  0
  7 27  1  0
  7 28  1  0
  8 29  1  0
 10 30  1  0
 11 31  1  0
 16 32  1  0
 17 33  1  0
M  CHG  3   2   1  13   1  15  -1
M  END
>  <UniqueID>  (28) 
24

>  <SMILES>  (28) 
C[NH+](C)CC#CCNc1ccc([N+](=O)[O-])cc1

>  <Energy>  (28) 
27.19586114889642

>  <Genealogy>  (28) 
C[NH+](C)CC#CCNc1ccc([N+](=O)[O-])cc1 (protonated)
C[NH+](C)CC#CCNc1ccc([N+](=O)[O-])cc1 (3D coordinates assigned)
C[NH+](C)CC#CCNc1ccc([N+](=O)[O-])cc1 (optimized conformer: 27.19586114889642 kcal/mol)

>  <smiles>  (28) 
CN(C)CC#CCNc1ccc([N+](=O)[O-])cc1

>  <score_type>  (28) 
oracle

>  <origin>  (28) 
adg

>  <m_score__min__energy>  (28) 
-4.6699999999999999

>  <m_primary>  (28) 
energy

$$$$
28:0
     RDKit          3D

 57 59  0  0  0  0  0  0  0  0999 V2000
   59.4580   30.7320   45.6150 C   0  0  0  0  0  0  0  0  0  0  0  0
   58.0930   30.2830   45.1620 C   0  0  0  0  0  0  0  0  0  0  0  0
   57.6310   29.0060   45.5260 C   0  0  0  0  0  0  0  0  0  0  0  0
   56.3510   28.5850   45.1670 C   0  0  0  0  0  0  0  0  0  0  0  0
   55.8990   27.2980   45.6200 N   0  0  0  0  0  0  0  0  0  0  0  0
   56.6700   26.2560   46.2470 C   0  0  0  0  0  0  0  0  0  0  0  0
   56.0710   25.4070   46.9570 O   0  0  0  0  0  0  0  0  0  0  0  0
   58.1010   26.1870   46.1510 N   0  0  0  0  0  0  0  0  0  0  0  0
   58.9470   26.6840   47.0050 C   0  0  0  0  0  0  0  0  0  0  0  0
   58.6440   27.6850   47.8970 C   0  0  0  0  0  0  0  0  0  0  0  0
   59.8640   27.9440   48.5010 C   0  0  0  0  0  0  0  0  0  0  0  0
   60.1680   29.0500   49.4970 C   0  0  0  0  0  0  0  0  0  0  0  0
   61.0360   30.1140   48.7990 C   0  0  0  0  0  0  0  0  0  0  0  0
   60.9350   28.4720   50.7040 C   0  0  0  0  0  0  0  0  0  0  0  0
   58.8610   29.6970   49.9990 C   0  0  0  0  0  0  0  0  0  0  0  0
   60.7660   27.1280   47.9930 O   0  0  0  0  0  0  0  0  0  0  0  0
   60.2480   26.3480   47.0880 N   0  0  0  0  0  0  0  0  0  0  0  0
   55.5480   29.4270   44.3820 C   0  0  0  0  0  0  0  0  0  0  0  0
   55.9630   30.7260   44.0860 C   0  0  0  0  0  0  0  0  0  0  0  0
   57.2460   31.1690   44.4600 C   0  0  0  0  0  0  0  0  0  0  0  0
   57.7020   32.5160   44.2270 N   0  0  0  0  0  0  0  0  0  0  0  0
   57.7530   33.6570   45.0970 C   0  0  0  0  0  0  0  0  0  0  0  0
   57.0570   34.6680   44.8010 O   0  0  0  0  0  0  0  0  0  0  0  0
   58.5420   33.6890   46.3390 C   0  0  0  0  0  0  0  0  0  0  0  0
   58.1320   32.9870   47.4810 C   0  0  0  0  0  0  0  0  0  0  0  0
   58.9040   33.0350   48.6450 C   0  0  0  0  0  0  0  0  0  0  0  0
   60.1020   33.7850   48.6550 C   0  0  0  0  0  0  0  0  0  0  0  0
   60.9510   33.8520   49.8260 N   0  0  0  0  0  0  0  0  0  0  0  0
   60.3830   33.5090   51.1390 C   0  0  0  0  0  0  0  0  0  0  0  0
   62.3770   34.2150   49.7230 C   0  0  0  0  0  0  0  0  0  0  0  0
   60.4700   34.4590   47.5250 N   0  0  0  0  0  0  0  0  0  0  0  0
   59.7240   34.4390   46.3910 C   0  0  0  0  0  0  0  0  0  0  0  0
   59.4940   30.7438   46.7143 H   0  0  0  0  0  0  0  0  0  0  0  0
   60.2189   30.0368   45.2307 H   0  0  0  0  0  0  0  0  0  0  0  0
   59.6577   31.7432   45.2307 H   0  0  0  0  0  0  0  0  0  0  0  0
   58.2853   28.3328   46.0993 H   0  0  0  0  0  0  0  0  0  0  0  0
   57.6715   28.1632   48.0852 H   0  0  0  0  0  0  0  0  0  0  0  0
   61.5397   30.7314   49.5574 H   0  0  0  0  0  0  0  0  0  0  0  0
   61.7900   29.6175   48.1706 H   0  0  0  0  0  0  0  0  0  0  0  0
   60.3981   30.7529   48.1706 H   0  0  0  0  0  0  0  0  0  0  0  0
   60.4692   28.8230   51.6366 H   0  0  0  0  0  0  0  0  0  0  0  0
   60.9009   27.3731   50.6681 H   0  0  0  0  0  0  0  0  0  0  0  0
   61.9819   28.8077   50.6681 H   0  0  0  0  0  0  0  0  0  0  0  0
   58.8528   29.7011   51.0990 H   0  0  0  0  0  0  0  0  0  0  0  0
   58.7975   30.7306   49.6280 H   0  0  0  0  0  0  0  0  0  0  0  0
   58.0006   29.1208   49.6280 H   0  0  0  0  0  0  0  0  0  0  0  0
   54.5848   29.0604   43.9974 H   0  0  0  0  0  0  0  0  0  0  0  0
   55.2826   31.4091   43.5564 H   0  0  0  0  0  0  0  0  0  0  0  0
   57.2029   32.3985   47.4610 H   0  0  0  0  0  0  0  0  0  0  0  0
   58.5818   32.4932   49.5465 H   0  0  0  0  0  0  0  0  0  0  0  0
   61.0338   33.9020   51.9340 H   0  0  0  0  0  0  0  0  0  0  0  0
   59.3810   33.9531   51.2324 H   0  0  0  0  0  0  0  0  0  0  0  0
   60.3095   32.4154   51.2324 H   0  0  0  0  0  0  0  0  0  0  0  0
   62.8016   34.3231   50.7320 H   0  0  0  0  0  0  0  0  0  0  0  0
   62.9179   33.4259   49.1801 H   0  0  0  0  0  0  0  0  0  0  0  0
   62.4748   35.1667   49.1801 H   0  0  0  0  0  0  0  0  0  0  0  0
   60.0485   35.0132   45.5107 H   0  0  0  0  0  0  0  0  0  0  0  0
  1  2  1  0
  2  3  2  0
  3  4  1  0
  4  5  1  0
  5  6  1  0
  6  7  2  0
  6  8  1  0
  8  9  2  3
  9 10  1  0
 10 11  2  0
 11 12  1  0
 12 13  1  0
 12 14  1  0
 12 15  1  0
 11 16  1  0
 16 17  1  0
  4 18  2  0
 18 19  1  0
 19 20  2  0
 20 21  1  0
 21 22  1  0
 22 23  2  0
 22 24  1  0
 24 25  2  0
 25 26  1  0
 26 27  2  0
 27 28  1  0
 28 29  1  0
 28 30  1  0
 27 31  1  0
 31 32  2  0
 20  2  1  0
 32 24  1  0
 17  9  1  0
  1 33  1  0
  1 34  1  0
  1 35  1  0
  3 36  1  0
 10 37  1  0
 13 38  1  0
 13 39  1  0
 13 40  1  0
 14 41  1  0
 14 42  1  0
 14 43  1  0
 15 44  1  0
 15 45  1  0
 15 46  1  0
 18 47  1  0
 19 48  1  0
 25 49  1  0
 26 50  1  0
 29 51  1  0
 29 52  1  0
 29 53  1  0
 30 54  1  0
 30 55  1  0
 30 56  1  0
 32 57  1  0
M  CHG  3   5  -1  17  -1  21  -1
M  END
>  <UniqueID>  (29) 
25

>  <SMILES>  (29) 
Cc1cc([N-]C(=O)N=c2cc(C(C)(C)C)o[n-]2)ccc1[N-]C(=O)c1ccc(N(C)C)nc1

>  <Energy>  (29) 
104.79978849198916

>  <Genealogy>  (29) 
Cc1cc([N-]C(=O)N=c2cc(C(C)(C)C)o[n-]2)ccc1[N-]C(=O)c1ccc(N(C)C)nc1 (protonated)
Cc1cc([N-]C(=O)N=c2cc(C(C)(C)C)o[n-]2)ccc1[N-]C(=O)c1ccc(N(C)C)nc1 (3D coordinates assigned)
Cc1cc([N-]C(=O)N=c2cc(C(C)(C)C)o[n-]2)ccc1[N-]C(=O)c1ccc(N(C)C)nc1 (optimized conformer: 104.79978849198916 kcal/mol)

>  <smiles>  (29) 
Cc1cc(NC(=O)N=c2cc(C(C)(C)C)o[nH]2)ccc1NC(=O)c1ccc(N(C)C)nc1

>  <score_type>  (29) 
oracle

>  <origin>  (29) 
adg

>  <m_score__min__energy>  (29) 
-13.300000000000001

>  <m_primary>  (29) 
energy

$$$$
29:0
     RDKit          3D

 49 52  0  0  0  0  0  0  0  0999 V2000
   56.6200   30.0130   43.1170 C   0  0  0  0  0  0  0  0  0  0  0  0
   57.3010   31.1520   43.8360 C   0  0  0  0  0  0  0  0  0  0  0  0
   57.7790   32.2560   43.0940 C   0  0  0  0  0  0  0  0  0  0  0  0
   57.5830   32.3500   41.3460 Cl  0  0  0  0  0  0  0  0  0  0  0  0
   58.4380   33.3040   43.7410 C   0  0  0  0  0  0  0  0  0  0  0  0
   58.6390   33.2650   45.1190 C   0  0  0  0  0  0  0  0  0  0  0  0
   58.1740   32.1830   45.8650 C   0  0  0  0  0  0  0  0  0  0  0  0
   57.4870   31.1270   45.2400 C   0  0  0  0  0  0  0  0  0  0  0  0
   57.0640   29.9790   45.9930 N   0  0  0  0  0  0  0  0  0  0  0  0
   57.2980   28.6040   45.6730 C   0  0  0  0  0  0  0  0  0  0  0  0
   56.3420   27.8360   45.3860 O   0  0  0  0  0  0  0  0  0  0  0  0
   58.7040   28.0960   45.6250 C   0  0  0  0  0  0  0  0  0  0  0  0
   59.3420   28.2990   46.9370 N   0  0  0  0  0  0  0  0  0  0  0  0
   59.4120   29.5440   47.4250 N   0  0  0  0  0  0  0  0  0  0  0  0
   59.8650   29.8100   48.6810 C   0  0  0  0  0  0  0  0  0  0  0  0
   59.8130   31.2050   49.1700 C   0  0  0  0  0  0  0  0  0  0  0  0
   58.9980   31.4930   50.2750 C   0  0  0  0  0  0  0  0  0  0  0  0
   58.8770   32.8020   50.7430 C   0  0  0  0  0  0  0  0  0  0  0  0
   59.5660   33.8360   50.1090 C   0  0  0  0  0  0  0  0  0  0  0  0
   60.3930   33.5620   49.0170 C   0  0  0  0  0  0  0  0  0  0  0  0
   60.5350   32.2480   48.5360 C   0  0  0  0  0  0  0  0  0  0  0  0
   61.4060   31.9960   47.4180 N   0  0  0  0  0  0  0  0  0  0  0  0
   62.5910   32.3840   47.4460 O   0  0  0  0  0  0  0  0  0  0  0  0
   60.9850   31.2400   46.3490 O   0  0  0  0  0  0  0  0  0  0  0  0
   60.3250   28.7530   49.4900 C   0  0  0  0  0  0  0  0  0  0  0  0
   60.8370   28.9690   50.7860 C   0  0  0  0  0  0  0  0  0  0  0  0
   61.2740   27.8920   51.5620 C   0  0  0  0  0  0  0  0  0  0  0  0
   61.2110   26.5930   51.0590 C   0  0  0  0  0  0  0  0  0  0  0  0
   60.7100   26.3620   49.7760 C   0  0  0  0  0  0  0  0  0  0  0  0
   60.2650   27.4380   48.9800 C   0  0  0  0  0  0  0  0  0  0  0  0
   59.7470   27.2280   47.6910 C   0  0  0  0  0  0  0  0  0  0  0  0
   59.6450   26.0540   47.2360 O   0  0  0  0  0  0  0  0  0  0  0  0
   56.2010   29.3123   43.8542 H   0  0  0  0  0  0  0  0  0  0  0  0
   55.8105   30.4092   42.4864 H   0  0  0  0  0  0  0  0  0  0  0  0
   57.3522   29.4874   42.4864 H   0  0  0  0  0  0  0  0  0  0  0  0
   58.8001   34.1646   43.1594 H   0  0  0  0  0  0  0  0  0  0  0  0
   59.1662   34.0904   45.6199 H   0  0  0  0  0  0  0  0  0  0  0  0
   58.3458   32.1550   46.9511 H   0  0  0  0  0  0  0  0  0  0  0  0
   58.6986   27.0233   45.3814 H   0  0  0  0  0  0  0  0  0  0  0  0
   59.2665   28.6431   44.8541 H   0  0  0  0  0  0  0  0  0  0  0  0
   59.0690   30.3440   46.8440 H   0  0  0  0  0  0  0  0  0  0  0  0
   58.4505   30.6811   50.7761 H   0  0  0  0  0  0  0  0  0  0  0  0
   58.2382   33.0185   51.6120 H   0  0  0  0  0  0  0  0  0  0  0  0
   59.4579   34.8695   50.4698 H   0  0  0  0  0  0  0  0  0  0  0  0
   60.9388   34.3825   48.5282 H   0  0  0  0  0  0  0  0  0  0  0  0
   60.8928   29.9912   51.1885 H   0  0  0  0  0  0  0  0  0  0  0  0
   61.6690   28.0696   52.5731 H   0  0  0  0  0  0  0  0  0  0  0  0
   61.5565   25.7488   51.6738 H   0  0  0  0  0  0  0  0  0  0  0  0
   60.6622   25.3353   49.3841 H   0  0  0  0  0  0  0  0  0  0  0  0
  1  2  1  0
  2  3  2  0
  3  4  1  0
  3  5  1  0
  5  6  2  0
  6  7  1  0
  7  8  2  0
  8  9  1  0
  9 10  1  0
 10 11  2  0
 10 12  1  0
 12 13  1  0
 13 14  1  0
 14 15  2  0
 15 16  1  0
 16 17  2  0
 17 18  1  0
 18 19  2  0
 19 20  1  0
 20 21  2  0
 21 22  1  0
 22 23  2  0
 22 24  1  0
 15 25  1  0
 25 26  2  0
 26 27  1  0
 27 28  2  0
 28 29  1  0
 29 30  2  0
 30 31  1  0
 31 32  2  0
  8  2  1  0
 31 13  1  0
 21 16  1  0
 30 25  1  0
  1 33  1  0
  1 34  1  0
  1 35  1  0
  5 36  1  0
  6 37  1  0
  7 38  1  0
 12 39  1  0
 12 40  1  0
 14 41  1  0
 17 42  1  0
 18 43  1  0
 19 44  1  0
 20 45  1  0
 26 46  1  0
 27 47  1  0
 28 48  1  0
 29 49  1  0
M  CHG  4   9  -1  14   1  22   1  24  -1
M  END
>  <UniqueID>  (30) 
26

>  <SMILES>  (30) 
Cc1c(Cl)cccc1[N-]C(=O)Cn1[nH+]c(-c2ccccc2[N+](=O)[O-])c2ccccc2c1=O

>  <Energy>  (30) 
75.86022621270396

>  <Genealogy>  (30) 
Cc1c(Cl)cccc1[N-]C(=O)Cn1[nH+]c(-c2ccccc2[N+](=O)[O-])c2ccccc2c1=O (protonated)
Cc1c(Cl)cccc1[N-]C(=O)Cn1[nH+]c(-c2ccccc2[N+](=O)[O-])c2ccccc2c1=O (3D coordinates assigned)
Cc1c(Cl)cccc1[N-]C(=O)Cn1[nH+]c(-c2ccccc2[N+](=O)[O-])c2ccccc2c1=O (optimized conformer: 75.86022621270396 kcal/mol)

>  <smiles>  (30) 
Cc1c(Cl)cccc1NC(=O)Cn1nc(-c2ccccc2[N+](=O)[O-])c2ccccc2c1=O

>  <score_type>  (30) 
oracle

>  <origin>  (30) 
adg

>  <m_score__min__energy>  (30) 
-8.7799999999999994

>  <m_primary>  (30) 
energy

$$$$
30:0
     RDKit          3D

 46 49  0  0  0  0  0  0  0  0999 V2000
   56.1060   29.2150   52.9070 O   0  0  0  0  0  0  0  0  0  0  0  0
   56.6670   30.0860   52.1920 C   0  0  0  0  0  0  0  0  0  0  0  0
   56.2290   31.5190   52.2600 C   0  0  0  0  0  0  0  0  0  0  0  0
   57.2590   32.4010   51.8020 O   0  0  0  0  0  0  0  0  0  0  0  0
   58.1870   32.0400   50.8170 C   0  0  0  0  0  0  0  0  0  0  0  0
   58.9130   33.0320   50.1520 C   0  0  0  0  0  0  0  0  0  0  0  0
   59.8330   32.6890   49.1510 C   0  0  0  0  0  0  0  0  0  0  0  0
   60.5480   33.7260   48.4590 N   0  0  0  0  0  0  0  0  0  0  0  0
   60.2250   34.1660   46.8100 S   0  0  0  0  0  0  0  0  0  0  0  0
   59.6290   35.5450   46.7830 O   0  0  0  0  0  0  0  0  0  0  0  0
   61.5130   34.1780   46.0370 O   0  0  0  0  0  0  0  0  0  0  0  0
   59.1230   33.0060   46.0710 C   0  0  0  0  0  0  0  0  0  0  0  0
   57.8630   33.4130   45.6140 C   0  0  0  0  0  0  0  0  0  0  0  0
   56.9730   32.4790   45.0760 C   0  0  0  0  0  0  0  0  0  0  0  0
   57.3330   31.1210   44.9870 C   0  0  0  0  0  0  0  0  0  0  0  0
   56.3980   30.1300   44.4090 C   0  0  0  0  0  0  0  0  0  0  0  0
   56.4030   29.8920   43.1720 O   0  0  0  0  0  0  0  0  0  0  0  0
   55.5160   29.4330   45.2280 O   0  0  0  0  0  0  0  0  0  0  0  0
   58.6030   30.7210   45.4410 C   0  0  0  0  0  0  0  0  0  0  0  0
   59.4920   31.6580   45.9760 C   0  0  0  0  0  0  0  0  0  0  0  0
   60.0430   31.3320   48.8560 C   0  0  0  0  0  0  0  0  0  0  0  0
   59.3310   30.3190   49.5210 C   0  0  0  0  0  0  0  0  0  0  0  0
   59.6090   28.8930   49.1960 C   0  0  0  0  0  0  0  0  0  0  0  0
   60.0910   28.1390   50.0840 O   0  0  0  0  0  0  0  0  0  0  0  0
   59.3780   28.3420   47.8370 C   0  0  0  0  0  0  0  0  0  0  0  0
   60.3900   28.3800   46.8590 C   0  0  0  0  0  0  0  0  0  0  0  0
   60.1700   27.8290   45.5920 C   0  0  0  0  0  0  0  0  0  0  0  0
   58.9380   27.2480   45.2850 C   0  0  0  0  0  0  0  0  0  0  0  0
   57.9190   27.2250   46.2410 C   0  0  0  0  0  0  0  0  0  0  0  0
   58.1340   27.7720   47.5100 C   0  0  0  0  0  0  0  0  0  0  0  0
   58.3980   30.6850   50.5140 C   0  0  0  0  0  0  0  0  0  0  0  0
   57.6680   29.6970   51.2500 N   0  0  0  0  0  0  0  0  0  0  0  0
   55.3376   31.6513   51.6292 H   0  0  0  0  0  0  0  0  0  0  0  0
   56.0042   31.7634   53.3087 H   0  0  0  0  0  0  0  0  0  0  0  0
   58.7616   34.0891   50.4157 H   0  0  0  0  0  0  0  0  0  0  0  0
   61.1830   34.3530   49.0020 H   0  0  0  0  0  0  0  0  0  0  0  0
   57.5727   34.4720   45.6788 H   0  0  0  0  0  0  0  0  0  0  0  0
   55.9853   32.8071   44.7200 H   0  0  0  0  0  0  0  0  0  0  0  0
   58.8986   29.6636   45.3746 H   0  0  0  0  0  0  0  0  0  0  0  0
   60.4846   31.3356   46.3235 H   0  0  0  0  0  0  0  0  0  0  0  0
   60.7806   31.0561   48.0880 H   0  0  0  0  0  0  0  0  0  0  0  0
   61.3590   28.8455   47.0923 H   0  0  0  0  0  0  0  0  0  0  0  0
   60.9690   27.8535   44.8363 H   0  0  0  0  0  0  0  0  0  0  0  0
   58.7696   26.8085   44.2908 H   0  0  0  0  0  0  0  0  0  0  0  0
   56.9456   26.7756   45.9948 H   0  0  0  0  0  0  0  0  0  0  0  0
   57.3262   27.7565   48.2564 H   0  0  0  0  0  0  0  0  0  0  0  0
  1  2  2  0
  2  3  1  0
  3  4  1  0
  4  5  1  0
  5  6  2  0
  6  7  1  0
  7  8  1  0
  8  9  1  0
  9 10  2  0
  9 11  2  0
  9 12  1  0
 12 13  2  0
 13 14  1  0
 14 15  2  0
 15 16  1  0
 16 17  2  0
 16 18  1  0
 15 19  1  0
 19 20  2  0
  7 21  2  0
 21 22  1  0
 22 23  1  0
 23 24  2  0
 23 25  1  0
 25 26  2  0
 26 27  1  0
 27 28  2  0
 28 29  1  0
 29 30  2  0
 22 31  2  0
 31 32  1  0
 32  2  1  0
 31  5  1  0
 20 12  1  0
 30 25  1  0
  3 33  1  0
  3 34  1  0
  6 35  1  0
  8 36  1  0
 13 37  1  0
 14 38  1  0
 19 39  1  0
 20 40  1  0
 21 41  1  0
 26 42  1  0
 27 43  1  0
 28 44  1  0
 29 45  1  0
 30 46  1  0
M  CHG  2  18  -1  32  -1
M  END
>  <UniqueID>  (31) 
27

>  <SMILES>  (31) 
O=C1COc2cc(NS(=O)(=O)c3ccc(C(=O)[O-])cc3)cc(C(=O)c3ccccc3)c2[N-]1

>  <Energy>  (31) 
61.66360488844476

>  <Genealogy>  (31) 
O=C1COc2cc(NS(=O)(=O)c3ccc(C(=O)[O-])cc3)cc(C(=O)c3ccccc3)c2[N-]1 (protonated)
O=C1COc2cc(NS(=O)(=O)c3ccc(C(=O)[O-])cc3)cc(C(=O)c3ccccc3)c2[N-]1 (3D coordinates assigned)
O=C1COc2cc(NS(=O)(=O)c3ccc(C(=O)[O-])cc3)cc(C(=O)c3ccccc3)c2[N-]1 (nonaromatic ring conformer: 61.66360488844476 kcal/mol)

>  <smiles>  (31) 
O=C1COc2cc(NS(=O)(=O)c3ccc(C(=O)O)cc3)cc(C(=O)c3ccccc3)c2N1

>  <score_type>  (31) 
oracle

>  <origin>  (31) 
adg

>  <m_score__min__energy>  (31) 
-12.970000000000001

>  <m_primary>  (31) 
energy

$$$$
31:0
     RDKit          3D

 42 45  0  0  0  0  0  0  0  0999 V2000
   51.0300   32.3400   50.0610 O   0  0  0  0  0  0  0  0  0  0  0  0
   51.1740   32.1850   51.3030 C   0  0  0  0  0  0  0  0  0  0  0  0
   50.2670   32.7880   52.1670 O   0  0  0  0  0  0  0  0  0  0  0  0
   52.2910   31.3730   51.8360 C   0  0  0  0  0  0  0  0  0  0  0  0
   52.1940   30.7610   53.0980 C   0  0  0  0  0  0  0  0  0  0  0  0
   53.2500   29.9900   53.5950 C   0  0  0  0  0  0  0  0  0  0  0  0
   54.4180   29.8090   52.8360 C   0  0  0  0  0  0  0  0  0  0  0  0
   55.5260   28.9790   53.3640 C   0  0  0  0  0  0  0  0  0  0  0  0
   55.3450   28.2940   54.4060 O   0  0  0  0  0  0  0  0  0  0  0  0
   56.8220   28.9640   52.7490 N   0  0  0  0  0  0  0  0  0  0  0  0
   57.4660   30.0990   52.2150 N   0  0  0  0  0  0  0  0  0  0  0  0
   57.9280   30.0970   50.9160 C   0  0  0  0  0  0  0  0  0  0  0  0
   58.5610   31.2280   50.3690 C   0  0  0  0  0  0  0  0  0  0  0  0
   59.0060   31.2290   49.0490 O   0  0  0  0  0  0  0  0  0  0  0  0
   58.7270   32.3390   51.2020 C   0  0  0  0  0  0  0  0  0  0  0  0
   58.2920   32.3110   52.5000 C   0  0  0  0  0  0  0  0  0  0  0  0
   58.5730   33.5370   53.0670 C   0  0  0  0  0  0  0  0  0  0  0  0
   59.1760   34.2760   52.0570 C   0  0  0  0  0  0  0  0  0  0  0  0
   59.2770   33.5420   50.9220 N   0  0  0  0  0  0  0  0  0  0  0  0
   59.7970   34.0310   49.6440 C   0  0  0  0  0  0  0  0  0  0  0  0
   61.1640   33.4760   49.3970 C   0  0  0  0  0  0  0  0  0  0  0  0
   62.3460   34.1870   49.4470 C   0  0  0  0  0  0  0  0  0  0  0  0
   63.3370   33.2770   49.1460 C   0  0  0  0  0  0  0  0  0  0  0  0
   62.6990   32.0740   48.9240 C   0  0  0  0  0  0  0  0  0  0  0  0
   61.4040   32.2240   49.0780 O   0  0  0  0  0  0  0  0  0  0  0  0
   57.6620   31.1870   53.0260 C   0  0  0  0  0  0  0  0  0  0  0  0
   57.2640   31.1800   54.2230 O   0  0  0  0  0  0  0  0  0  0  0  0
   54.5220   30.4380   51.5840 C   0  0  0  0  0  0  0  0  0  0  0  0
   53.4660   31.2070   51.0860 C   0  0  0  0  0  0  0  0  0  0  0  0
   51.2815   30.8894   53.6986 H   0  0  0  0  0  0  0  0  0  0  0  0
   53.1652   29.5222   54.5870 H   0  0  0  0  0  0  0  0  0  0  0  0
   57.7996   29.1966   50.2974 H   0  0  0  0  0  0  0  0  0  0  0  0
   59.9670   31.4500   48.8150 H   0  0  0  0  0  0  0  0  0  0  0  0
   58.3644   33.8600   54.0976 H   0  0  0  0  0  0  0  0  0  0  0  0
   59.5237   35.3141   52.1637 H   0  0  0  0  0  0  0  0  0  0  0  0
   59.1244   33.7149   48.8330 H   0  0  0  0  0  0  0  0  0  0  0  0
   59.8555   35.1290   49.6764 H   0  0  0  0  0  0  0  0  0  0  0  0
   62.4710   35.2551   49.6784 H   0  0  0  0  0  0  0  0  0  0  0  0
   64.4185   33.4710   49.0934 H   0  0  0  0  0  0  0  0  0  0  0  0
   63.1999   31.1314   48.6581 H   0  0  0  0  0  0  0  0  0  0  0  0
   55.4415   30.3245   50.9910 H   0  0  0  0  0  0  0  0  0  0  0  0
   53.5565   31.6853   50.0996 H   0  0  0  0  0  0  0  0  0  0  0  0
  1  2  2  0
  2  3  1  0
  2  4  1  0
  4  5  2  0
  5  6  1  0
  6  7  2  0
  7  8  1  0
  8  9  2  0
  8 10  1  0
 10 11  1  0
 11 12  1  0
 12 13  2  0
 13 14  1  0
 13 15  1  0
 15 16  2  0
 16 17  1  0
 17 18  2  0
 18 19  1  0
 19 20  1  0
 20 21  1  0
 21 22  2  0
 22 23  1  0
 23 24  2  0
 24 25  1  0
 16 26  1  0
 26 27  2  0
  7 28  1  0
 28 29  2  0
 29  4  1  0
 26 11  1  0
 19 15  1  0
 25 21  1  0
  5 30  1  0
  6 31  1  0
 12 32  1  0
 14 33  1  0
 17 34  1  0
 18 35  1  0
 20 36  1  0
 20 37  1  0
 22 38  1  0
 23 39  1  0
 24 40  1  0
 28 41  1  0
 29 42  1  0
M  CHG  2   3  -1  10  -1
M  END
>  <UniqueID>  (32) 
28

>  <SMILES>  (32) 
O=C([O-])c1ccc(C(=O)[N-]n2cc(O)c3c(ccn3Cc3ccco3)c2=O)cc1

>  <Energy>  (32) 
114.29423595315008

>  <Genealogy>  (32) 
O=C([O-])c1ccc(C(=O)[N-]n2cc(O)c3c(ccn3Cc3ccco3)c2=O)cc1 (protonated)
O=C([O-])c1ccc(C(=O)[N-]n2cc(O)c3c(ccn3Cc3ccco3)c2=O)cc1 (3D coordinates assigned)
O=C([O-])c1ccc(C(=O)[N-]n2cc(O)c3c(ccn3Cc3ccco3)c2=O)cc1 (optimized conformer: 114.29423595315008 kcal/mol)

>  <smiles>  (32) 
O=C(O)c1ccc(C(=O)Nn2cc(O)c3c(ccn3Cc3ccco3)c2=O)cc1

>  <score_type>  (32) 
oracle

>  <origin>  (32) 
adg

>  <m_score__min__energy>  (32) 
-11.98

>  <m_primary>  (32) 
energy

$$$$
32:0
     RDKit          3D

 36 38  0  0  0  0  0  0  0  0999 V2000
   55.2520   28.6270   45.6160 H   0  0  0  0  0  0  0  0  0  0  0  0
   55.1350   29.3390   44.8630 N   0  0  0  0  0  0  0  0  0  0  0  0
   56.2530   30.0720   44.3640 C   0  0  0  0  0  0  0  0  0  0  0  0
   56.2150   30.5080   43.1820 O   0  0  0  0  0  0  0  0  0  0  0  0
   57.4530   30.2970   45.2210 C   0  0  0  0  0  0  0  0  0  0  0  0
   58.1830   31.4820   45.0580 C   0  0  0  0  0  0  0  0  0  0  0  0
   57.8488   32.2271   44.3210 H   0  0  0  0  0  0  0  0  0  0  0  0
   59.2950   31.7240   45.7950 N   0  0  0  0  0  0  0  0  0  0  0  0
   59.8070   32.6170   45.6090 H   0  0  0  0  0  0  0  0  0  0  0  0
   59.6970   30.8870   46.7940 C   0  0  0  0  0  0  0  0  0  0  0  0
   60.7950   31.2410   47.6100 C   0  0  0  0  0  0  0  0  0  0  0  0
   61.5310   32.3990   47.2970 O   0  0  0  0  0  0  0  0  0  0  0  0
   62.9470   32.5460   47.3990 C   0  0  0  0  0  0  0  0  0  0  0  0
   63.4336   31.6546   46.9764 H   0  0  0  0  0  0  0  0  0  0  0  0
   63.2142   32.6611   48.4598 H   0  0  0  0  0  0  0  0  0  0  0  0
   63.4190   33.7810   46.6390 C   0  0  0  0  0  0  0  0  0  0  0  0
   63.7170   34.5607   47.3554 H   0  0  0  0  0  0  0  0  0  0  0  0
   64.2792   33.5159   46.0067 H   0  0  0  0  0  0  0  0  0  0  0  0
   62.6013   34.1572   46.0067 H   0  0  0  0  0  0  0  0  0  0  0  0
   61.1190   30.4320   48.7130 C   0  0  0  0  0  0  0  0  0  0  0  0
   61.9970   30.6744   49.3298 H   0  0  0  0  0  0  0  0  0  0  0  0
   60.3360   29.3270   49.0290 C   0  0  0  0  0  0  0  0  0  0  0  0
   60.5677   28.7307   49.9238 H   0  0  0  0  0  0  0  0  0  0  0  0
   59.2610   28.9710   48.2200 C   0  0  0  0  0  0  0  0  0  0  0  0
   58.6249   28.1204   48.5061 H   0  0  0  0  0  0  0  0  0  0  0  0
   58.9760   29.6870   47.0370 C   0  0  0  0  0  0  0  0  0  0  0  0
   57.9180   29.3270   46.1430 C   0  0  0  0  0  0  0  0  0  0  0  0
   57.3910   28.1290   46.0780 N   0  0  0  0  0  0  0  0  0  0  0  0
   57.4300   27.1540   45.0290 C   0  0  0  0  0  0  0  0  0  0  0  0
   57.0800   25.8170   45.2060 C   0  0  0  0  0  0  0  0  0  0  0  0
   56.6618   25.3707   46.1203 H   0  0  0  0  0  0  0  0  0  0  0  0
   57.4120   25.0100   43.7710 S   0  0  0  0  0  0  0  0  0  0  0  0
   58.0280   26.3320   42.9320 C   0  0  0  0  0  0  0  0  0  0  0  0
   58.3990   26.3246   41.8965 H   0  0  0  0  0  0  0  0  0  0  0  0
   57.9860   27.4330   43.7750 C   0  0  0  0  0  0  0  0  0  0  0  0
   58.3539   28.4286   43.4861 H   0  0  0  0  0  0  0  0  0  0  0  0
  1  2  1  0
  2  3  1  0
  3  4  2  0
  3  5  1  0
  5  6  2  0
  6  7  1  0
  6  8  1  0
  8  9  1  0
  8 10  1  0
 10 11  2  0
 11 12  1  0
 12 13  1  0
 13 14  1  0
 13 15  1  0
 13 16  1  0
 16 17  1  0
 16 18  1  0
 16 19  1  0
 11 20  1  0
 20 21  1  0
 20 22  2  0
 22 23  1  0
 22 24  1  0
 24 25  1  0
 24 26  2  0
 26 27  1  0
 27 28  2  0
 28 29  1  0
 29 30  2  0
 30 31  1  0
 30 32  1  0
 32 33  1  0
 33 34  1  0
 33 35  2  0
 35 36  1  0
 27  5  1  0
 35 29  1  0
 26 10  1  0
M  CHG  1   2  -1
M  END
>  <UniqueID>  (33) 
29

>  <SMILES>  (33) 
CCOc1cccc2/c(=N\c3ccsc3)c(C([NH-])=O)c[nH]c12

>  <Energy>  (33) 
90.15349298766631

>  <Genealogy>  (33) 
CCOc1cccc2c(=Nc3ccsc3)c(C([NH-])=O)c[nH]c12 (protonated)
CCOc1cccc2/c(=N\c3ccsc3)c(C([NH-])=O)c[nH]c12 (cis-trans isomerization)
CCOc1cccc2/c(=N\c3ccsc3)c(C([NH-])=O)c[nH]c12 (3D coordinates assigned)
CCOc1cccc2/c(=N\c3ccsc3)c(C([NH-])=O)c[nH]c12 (optimized conformer: 90.15349298766631 kcal/mol)

>  <smiles>  (33) 
CCOc1cccc2c(=Nc3ccsc3)c(C(N)=O)c[nH]c12

>  <score_type>  (33) 
oracle

>  <origin>  (33) 
adg

>  <m_score__min__energy>  (33) 
-9.1899999999999995

>  <m_primary>  (33) 
energy

$$$$
33:0
     RDKit          3D

 83 87  0  0  0  0  0  0  0  0999 V2000
   61.8870   34.2480   50.0250 H   0  0  0  0  0  0  0  0  0  0  0  0
   62.6620   34.0440   49.4450 O   0  0  0  0  0  0  0  0  0  0  0  0
   62.7250   32.3670   49.4020 S   0  0  0  0  0  0  0  0  0  0  0  0
   61.5560   31.6760   48.2820 C   0  0  0  0  0  0  0  0  0  0  0  0
   60.1680   31.7670   48.4930 C   0  0  0  0  0  0  0  0  0  0  0  0
   59.6150   32.4060   49.6530 N   0  0  0  0  0  0  0  0  0  0  0  0
   59.8610   33.7900   49.9840 C   0  0  0  0  0  0  0  0  0  0  0  0
   59.9450   34.1290   51.1950 O   0  0  0  0  0  0  0  0  0  0  0  0
   59.9690   34.8180   48.9880 N   0  0  0  0  0  0  0  0  0  0  0  0
   59.2930   34.8560   47.6980 C   0  0  0  0  0  0  0  0  0  0  0  0
   58.8385   35.8468   47.5509 H   0  0  0  0  0  0  0  0  0  0  0  0
   58.5079   34.0860   47.6717 H   0  0  0  0  0  0  0  0  0  0  0  0
   60.3020   34.5910   46.5910 C   0  0  0  0  0  0  0  0  0  0  0  0
   61.2752   34.3354   47.0354 H   0  0  0  0  0  0  0  0  0  0  0  0
   59.9521   33.7543   45.9685 H   0  0  0  0  0  0  0  0  0  0  0  0
   60.4084   35.4917   45.9685 H   0  0  0  0  0  0  0  0  0  0  0  0
   58.8060   31.6090   50.5310 C   0  0  0  0  0  0  0  0  0  0  0  0
   57.6710   32.1640   51.1400 C   0  0  0  0  0  0  0  0  0  0  0  0
   57.3919   33.2078   50.9334 H   0  0  0  0  0  0  0  0  0  0  0  0
   56.8940   31.3930   52.0090 C   0  0  0  0  0  0  0  0  0  0  0  0
   56.0013   31.8291   52.4811 H   0  0  0  0  0  0  0  0  0  0  0  0
   57.2500   30.0680   52.2790 C   0  0  0  0  0  0  0  0  0  0  0  0
   56.6391   29.4638   52.9659 H   0  0  0  0  0  0  0  0  0  0  0  0
   58.3810   29.5110   51.6770 C   0  0  0  0  0  0  0  0  0  0  0  0
   58.6600   28.4686   51.8903 H   0  0  0  0  0  0  0  0  0  0  0  0
   59.1590   30.2780   50.8030 C   0  0  0  0  0  0  0  0  0  0  0  0
   60.0483   29.8375   50.3285 H   0  0  0  0  0  0  0  0  0  0  0  0
   59.3240   31.1870   47.6000 N   0  0  0  0  0  0  0  0  0  0  0  0
   59.7790   30.5450   46.4910 C   0  0  0  0  0  0  0  0  0  0  0  0
   58.9560   29.9890   45.6520 N   0  0  0  0  0  0  0  0  0  0  0  0
   58.3170   28.7100   45.8150 C   0  0  0  0  0  0  0  0  0  0  0  0
   59.0030   27.6150   46.3690 C   0  0  0  0  0  0  0  0  0  0  0  0
   60.0501   27.7303   46.6857 H   0  0  0  0  0  0  0  0  0  0  0  0
   58.3660   26.3840   46.5200 C   0  0  0  0  0  0  0  0  0  0  0  0
   58.9199   25.5315   46.9400 H   0  0  0  0  0  0  0  0  0  0  0  0
   57.0250   26.2230   46.1410 C   0  0  0  0  0  0  0  0  0  0  0  0
   56.3770   24.9400   46.2630 N   0  0  0  0  0  0  0  0  0  0  0  0
   56.8720   23.9200   47.1910 C   0  0  0  0  0  0  0  0  0  0  0  0
   57.8103   24.2676   47.6478 H   0  0  0  0  0  0  0  0  0  0  0  0
   56.1182   23.7470   47.9732 H   0  0  0  0  0  0  0  0  0  0  0  0
   57.1290   22.6050   46.4380 C   0  0  0  0  0  0  0  0  0  0  0  0
   58.1237   22.6606   45.9717 H   0  0  0  0  0  0  0  0  0  0  0  0
   57.0560   21.7926   47.1760 H   0  0  0  0  0  0  0  0  0  0  0  0
   56.1300   22.3190   45.3780 N   0  0  0  0  0  0  0  0  0  0  0  0
   56.8360   22.2670   43.7740 S   0  0  0  0  0  0  0  0  0  0  0  0
   55.9230   21.4760   42.8800 O   0  0  0  0  0  0  0  0  0  0  0  0
   56.9500   23.6600   43.2230 O   0  0  0  0  0  0  0  0  0  0  0  0
   58.4490   21.5040   43.7350 C   0  0  0  0  0  0  0  0  0  0  0  0
   58.8009   21.3376   44.7638 H   0  0  0  0  0  0  0  0  0  0  0  0
   58.3861   20.5402   43.2086 H   0  0  0  0  0  0  0  0  0  0  0  0
   59.1542   22.1640   43.2086 H   0  0  0  0  0  0  0  0  0  0  0  0
   54.8950   23.1270   45.4440 C   0  0  0  0  0  0  0  0  0  0  0  0
   54.2784   22.9010   44.5615 H   0  0  0  0  0  0  0  0  0  0  0  0
   54.3761   22.8671   46.3785 H   0  0  0  0  0  0  0  0  0  0  0  0
   55.1780   24.6360   45.4730 C   0  0  0  0  0  0  0  0  0  0  0  0
   55.3280   24.9920   44.4431 H   0  0  0  0  0  0  0  0  0  0  0  0
   54.3188   25.1409   45.9388 H   0  0  0  0  0  0  0  0  0  0  0  0
   56.3280   27.3270   45.6200 C   0  0  0  0  0  0  0  0  0  0  0  0
   55.2734   27.2151   45.3281 H   0  0  0  0  0  0  0  0  0  0  0  0
   56.9640   28.5760   45.4670 C   0  0  0  0  0  0  0  0  0  0  0  0
   56.2870   29.6990   44.9650 O   0  0  0  0  0  0  0  0  0  0  0  0
   56.4980   30.2570   43.6730 C   0  0  0  0  0  0  0  0  0  0  0  0
   56.8854   31.2815   43.7749 H   0  0  0  0  0  0  0  0  0  0  0  0
   57.2259   29.6428   43.1227 H   0  0  0  0  0  0  0  0  0  0  0  0
   55.5458   30.2781   43.1227 H   0  0  0  0  0  0  0  0  0  0  0  0
   61.1160   30.4440   46.2810 N   0  0  0  0  0  0  0  0  0  0  0  0
   62.0060   30.9910   47.1490 C   0  0  0  0  0  0  0  0  0  0  0  0
   63.0853   30.8948   46.9599 H   0  0  0  0  0  0  0  0  0  0  0  0
   62.6700   31.6470   51.0070 C   0  0  0  0  0  0  0  0  0  0  0  0
   62.5900   30.2540   51.1400 C   0  0  0  0  0  0  0  0  0  0  0  0
   62.5332   29.6209   50.2422 H   0  0  0  0  0  0  0  0  0  0  0  0
   62.5820   29.6660   52.4060 C   0  0  0  0  0  0  0  0  0  0  0  0
   62.5236   28.5719   52.5031 H   0  0  0  0  0  0  0  0  0  0  0  0
   62.6480   30.4640   53.5480 C   0  0  0  0  0  0  0  0  0  0  0  0
   62.6489   29.9984   54.5446 H   0  0  0  0  0  0  0  0  0  0  0  0
   62.7130   31.8550   53.4270 C   0  0  0  0  0  0  0  0  0  0  0  0
   62.7621   32.4809   54.3302 H   0  0  0  0  0  0  0  0  0  0  0  0
   62.7160   32.4600   52.1540 C   0  0  0  0  0  0  0  0  0  0  0  0
   62.7600   33.8540   51.9970 O   0  0  0  0  0  0  0  0  0  0  0  0
   63.9390   34.6430   52.1170 C   0  0  0  0  0  0  0  0  0  0  0  0
   64.1700   34.7976   53.1813 H   0  0  0  0  0  0  0  0  0  0  0  0
   64.7785   34.1241   51.6312 H   0  0  0  0  0  0  0  0  0  0  0  0
   63.7795   35.6169   51.6312 H   0  0  0  0  0  0  0  0  0  0  0  0
  1  2  1  0
  3  2  1  1
  3  4  1  0
  4  5  1  0
  5  6  1  0
  6  7  1  0
  7  8  2  0
  7  9  1  0
  9 10  1  0
 10 11  1  0
 10 12  1  0
 10 13  1  0
 13 14  1  0
 13 15  1  0
 13 16  1  0
  6 17  1  0
 17 18  2  0
 18 19  1  0
 18 20  1  0
 20 21  1  0
 20 22  2  0
 22 23  1  0
 22 24  1  0
 24 25  1  0
 24 26  2  0
 26 27  1  0
  5 28  2  0
 28 29  1  0
 29 30  2  0
 30 31  1  0
 31 32  2  0
 32 33  1  0
 32 34  1  0
 34 35  1  0
 34 36  2  0
 36 37  1  0
 37 38  1  0
 38 39  1  0
 38 40  1  0
 38 41  1  0
 41 42  1  0
 41 43  1  0
 41 44  1  0
 44 45  1  0
 45 46  2  0
 45 47  2  0
 45 48  1  0
 48 49  1  0
 48 50  1  0
 48 51  1  0
 44 52  1  0
 52 53  1  0
 52 54  1  0
 52 55  1  0
 55 56  1  0
 55 57  1  0
 36 58  1  0
 58 59  1  0
 58 60  2  0
 60 61  1  0
 61 62  1  0
 62 63  1  0
 62 64  1  0
 62 65  1  0
 29 66  1  0
 66 67  1  0
 67 68  1  0
  3 69  1  0
 69 70  2  0
 70 71  1  0
 70 72  1  0
 72 73  1  0
 72 74  2  0
 74 75  1  0
 74 76  1  0
 76 77  1  0
 76 78  2  0
 78 79  1  0
 79 80  1  0
 80 81  1  0
 80 82  1  0
 80 83  1  0
 67  4  2  0
 78 69  1  0
 26 17  1  0
 60 31  1  0
 55 37  1  0
M  CHG  3   3   1   9  -1  66  -1
M  END
>  <UniqueID>  (34) 
30

>  <SMILES>  (34) 
CC[N-]C(=O)N(c1ccccc1)c1n/c(=N\c2ccc(N3CCN(S(C)(=O)=O)CC3)cc2OC)[n-]cc1[S@@+](O)c1ccccc1OC

>  <Energy>  (34) 
105.55887191293978

>  <Genealogy>  (34) 
CC[N-]C(=O)N(c1ccccc1)c1nc(=Nc2ccc(N3CCN(S(C)(=O)=O)CC3)cc2OC)[n-]cc1[S+](O)c1ccccc1OC (protonated)
CC[N-]C(=O)N(c1ccccc1)c1nc(=Nc2ccc(N3CCN(S(C)(=O)=O)CC3)cc2OC)[n-]cc1[S@@+](O)c1ccccc1OC (chirality)
CC[N-]C(=O)N(c1ccccc1)c1n/c(=N\c2ccc(N3CCN(S(C)(=O)=O)CC3)cc2OC)[n-]cc1[S@@+](O)c1ccccc1OC (cis-trans isomerization)
CC[N-]C(=O)N(c1ccccc1)c1n/c(=N\c2ccc(N3CCN(S(C)(=O)=O)CC3)cc2OC)[n-]cc1[S@@+](O)c1ccccc1OC (3D coordinates assigned)
CC[N-]C(=O)N(c1ccccc1)c1n/c(=N\c2ccc(N3CCN(S(C)(=O)=O)CC3)cc2OC)[n-]cc1[S@@+](O)c1ccccc1OC (nonaromatic ring conformer: 105.55887191293978 kcal/mol)

>  <smiles>  (34) 
CCNC(=O)N(c1ccccc1)c1nc(=Nc2ccc(N3CCN(S(C)(=O)=O)CC3)cc2OC)[nH]cc1[S+]([O-])c1ccccc1OC

>  <score_type>  (34) 
oracle

>  <origin>  (34) 
adg

>  <m_score__min__energy>  (34) 
-10.449999999999999

>  <m_primary>  (34) 
energy

$$$$
34:0
     RDKit          3D

 44 47  0  0  0  0  0  0  0  0999 V2000
   57.7700   28.2780   44.0370 C   0  0  0  0  0  0  0  0  0  0  0  0
   56.7060   29.7010   43.9600 S   0  0  0  0  0  0  0  0  0  0  0  0
   56.2080   29.8800   42.5540 O   0  0  0  0  0  0  0  0  0  0  0  0
   55.5260   29.4970   44.8680 O   0  0  0  0  0  0  0  0  0  0  0  0
   57.6050   31.1290   44.4610 C   0  0  0  0  0  0  0  0  0  0  0  0
   58.2030   31.1770   45.7280 C   0  0  0  0  0  0  0  0  0  0  0  0
   58.9320   32.3040   46.1190 C   0  0  0  0  0  0  0  0  0  0  0  0
   59.0680   33.3970   45.2500 C   0  0  0  0  0  0  0  0  0  0  0  0
   59.8900   34.5900   45.6530 C   0  0  0  0  0  0  0  0  0  0  0  0
   60.6470   34.2910   46.8750 N   0  0  0  0  0  0  0  0  0  0  0  0
   60.0490   34.4880   48.1070 C   0  0  0  0  0  0  0  0  0  0  0  0
   60.7200   34.1860   49.3090 C   0  0  0  0  0  0  0  0  0  0  0  0
   62.0010   33.6730   49.1990 C   0  0  0  0  0  0  0  0  0  0  0  0
   62.8560   33.3020   50.1630 N   0  0  0  0  0  0  0  0  0  0  0  0
   63.9550   32.8750   49.4720 C   0  0  0  0  0  0  0  0  0  0  0  0
   65.1750   32.3630   50.1460 C   0  0  0  0  0  0  0  0  0  0  0  0
   66.3850   33.0820   50.0740 C   0  0  0  0  0  0  0  0  0  0  0  0
   67.5360   32.6000   50.7020 C   0  0  0  0  0  0  0  0  0  0  0  0
   67.4970   31.3960   51.4080 C   0  0  0  0  0  0  0  0  0  0  0  0
   66.3080   30.6710   51.4850 C   0  0  0  0  0  0  0  0  0  0  0  0
   65.1510   31.1460   50.8590 C   0  0  0  0  0  0  0  0  0  0  0  0
   64.0080   30.4220   50.9710 F   0  0  0  0  0  0  0  0  0  0  0  0
   63.8210   32.9630   48.1170 N   0  0  0  0  0  0  0  0  0  0  0  0
   62.5950   33.4650   47.9350 C   0  0  0  0  0  0  0  0  0  0  0  0
   61.9170   33.7740   46.7690 C   0  0  0  0  0  0  0  0  0  0  0  0
   58.4850   33.3380   43.9740 C   0  0  0  0  0  0  0  0  0  0  0  0
   57.7570   32.2110   43.5840 C   0  0  0  0  0  0  0  0  0  0  0  0
   57.9625   28.0206   45.0890 H   0  0  0  0  0  0  0  0  0  0  0  0
   57.2835   27.4288   43.5348 H   0  0  0  0  0  0  0  0  0  0  0  0
   58.7221   28.5045   43.5348 H   0  0  0  0  0  0  0  0  0  0  0  0
   58.0983   30.3255   46.4165 H   0  0  0  0  0  0  0  0  0  0  0  0
   59.4015   32.3339   47.1133 H   0  0  0  0  0  0  0  0  0  0  0  0
   60.5908   34.8396   44.8427 H   0  0  0  0  0  0  0  0  0  0  0  0
   59.2200   35.4414   45.8435 H   0  0  0  0  0  0  0  0  0  0  0  0
   59.0259   34.8897   48.1493 H   0  0  0  0  0  0  0  0  0  0  0  0
   60.2478   34.3503   50.2888 H   0  0  0  0  0  0  0  0  0  0  0  0
   66.4234   34.0307   49.5186 H   0  0  0  0  0  0  0  0  0  0  0  0
   68.4748   33.1700   50.6402 H   0  0  0  0  0  0  0  0  0  0  0  0
   68.4040   31.0193   51.9034 H   0  0  0  0  0  0  0  0  0  0  0  0
   66.2801   29.7218   52.0403 H   0  0  0  0  0  0  0  0  0  0  0  0
   64.5130   32.7250   47.3740 H   0  0  0  0  0  0  0  0  0  0  0  0
   62.3808   33.6107   45.7850 H   0  0  0  0  0  0  0  0  0  0  0  0
   58.6019   34.1823   43.2787 H   0  0  0  0  0  0  0  0  0  0  0  0
   57.3010   32.1731   42.5837 H   0  0  0  0  0  0  0  0  0  0  0  0
  1  2  1  0
  2  3  2  0
  2  4  2  0
  2  5  1  0
  5  6  2  0
  6  7  1  0
  7  8  2  0
  8  9  1  0
  9 10  1  0
 10 11  1  0
 11 12  2  0
 12 13  1  0
 13 14  2  0
 14 15  1  0
 15 16  1  0
 16 17  2  0
 17 18  1  0
 18 19  2  0
 19 20  1  0
 20 21  2  0
 21 22  1  0
 15 23  2  0
 23 24  1  0
 24 25  2  0
  8 26  1  0
 26 27  2  0
 27  5  1  0
 25 10  1  0
 24 13  1  0
 21 16  1  0
  1 28  1  0
  1 29  1  0
  1 30  1  0
  6 31  1  0
  7 32  1  0
  9 33  1  0
  9 34  1  0
 11 35  1  0
 12 36  1  0
 17 37  1  0
 18 38  1  0
 19 39  1  0
 20 40  1  0
 23 41  1  0
 25 42  1  0
 26 43  1  0
 27 44  1  0
M  CHG  1  23   1
M  END
>  <UniqueID>  (35) 
31

>  <SMILES>  (35) 
CS(=O)(=O)c1ccc(Cn2ccc3nc(-c4ccccc4F)[nH+]c-3c2)cc1

>  <Energy>  (35) 
86.64386597526875

>  <Genealogy>  (35) 
CS(=O)(=O)c1ccc(Cn2ccc3nc(-c4ccccc4F)[nH+]c-3c2)cc1 (protonated)
CS(=O)(=O)c1ccc(Cn2ccc3nc(-c4ccccc4F)[nH+]c-3c2)cc1 (3D coordinates assigned)
CS(=O)(=O)c1ccc(Cn2ccc3nc(-c4ccccc4F)[nH+]c-3c2)cc1 (optimized conformer: 86.64386597526875 kcal/mol)

>  <smiles>  (35) 
CS(=O)(=O)c1ccc(Cn2ccc3nc(-c4ccccc4F)nc-3c2)cc1

>  <score_type>  (35) 
oracle

>  <origin>  (35) 
adg

>  <m_score__min__energy>  (35) 
-8.7100000000000009

>  <m_primary>  (35) 
energy

$$$$
35:0
     RDKit          3D

 39 40  0  0  0  0  0  0  0  0999 V2000
   59.5420   34.9570   46.0450 C   0  0  0  0  0  0  0  0  0  0  0  0
   58.8780   33.7210   45.5150 C   0  0  0  0  0  0  0  0  0  0  0  0
   58.4090   32.7400   46.3950 C   0  0  0  0  0  0  0  0  0  0  0  0
   57.7660   31.6030   45.9050 C   0  0  0  0  0  0  0  0  0  0  0  0
   57.5740   31.4250   44.5250 C   0  0  0  0  0  0  0  0  0  0  0  0
   56.7580   29.9540   43.9660 S   0  0  0  0  0  0  0  0  0  0  0  0
   55.5890   29.6940   44.8740 O   0  0  0  0  0  0  0  0  0  0  0  0
   56.2750   30.1170   42.5520 O   0  0  0  0  0  0  0  0  0  0  0  0
   57.8540   28.6110   44.0130 N   0  0  0  0  0  0  0  0  0  0  0  0
   58.2790   28.0200   45.2460 C   0  0  0  0  0  0  0  0  0  0  0  0
   57.6440   27.0330   45.9820 C   0  0  0  0  0  0  0  0  0  0  0  0
   56.3640   26.3350   45.6560 C   0  0  0  0  0  0  0  0  0  0  0  0
   58.3790   26.7620   47.0800 N   0  0  0  0  0  0  0  0  0  0  0  0
   59.4580   27.5320   47.0450 N   0  0  0  0  0  0  0  0  0  0  0  0
   60.4850   27.5220   48.0800 C   0  0  0  0  0  0  0  0  0  0  0  0
   59.4470   28.2910   45.9270 C   0  0  0  0  0  0  0  0  0  0  0  0
   60.4530   29.3510   45.5890 C   0  0  0  0  0  0  0  0  0  0  0  0
   57.9910   32.4440   43.6320 C   0  0  0  0  0  0  0  0  0  0  0  0
   57.7680   32.3420   42.1460 C   0  0  0  0  0  0  0  0  0  0  0  0
   58.6530   33.5760   44.1380 C   0  0  0  0  0  0  0  0  0  0  0  0
   59.5309   34.9363   47.1447 H   0  0  0  0  0  0  0  0  0  0  0  0
   60.5822   34.9955   45.6895 H   0  0  0  0  0  0  0  0  0  0  0  0
   58.9998   35.8456   45.6895 H   0  0  0  0  0  0  0  0  0  0  0  0
   58.5479   32.8657   47.4789 H   0  0  0  0  0  0  0  0  0  0  0  0
   57.4053   30.8372   46.6074 H   0  0  0  0  0  0  0  0  0  0  0  0
   58.3620   28.3650   43.1350 H   0  0  0  0  0  0  0  0  0  0  0  0
   55.8512   26.0553   46.5881 H   0  0  0  0  0  0  0  0  0  0  0  0
   55.7192   27.0064   45.0699 H   0  0  0  0  0  0  0  0  0  0  0  0
   56.5792   25.4293   45.0699 H   0  0  0  0  0  0  0  0  0  0  0  0
   60.0071   27.5267   49.0708 H   0  0  0  0  0  0  0  0  0  0  0  0
   61.1026   26.6178   47.9750 H   0  0  0  0  0  0  0  0  0  0  0  0
   61.1201   28.4140   47.9750 H   0  0  0  0  0  0  0  0  0  0  0  0
   60.8598   29.7796   46.5168 H   0  0  0  0  0  0  0  0  0  0  0  0
   61.2699   28.9071   45.0012 H   0  0  0  0  0  0  0  0  0  0  0  0
   59.9670   30.1436   45.0012 H   0  0  0  0  0  0  0  0  0  0  0  0
   56.7832   31.8915   41.9531 H   0  0  0  0  0  0  0  0  0  0  0  0
   57.8054   33.3467   41.6998 H   0  0  0  0  0  0  0  0  0  0  0  0
   58.5526   31.7132   41.6998 H   0  0  0  0  0  0  0  0  0  0  0  0
   58.9989   34.3578   43.4457 H   0  0  0  0  0  0  0  0  0  0  0  0
  1  2  1  0
  2  3  2  0
  3  4  1  0
  4  5  2  0
  5  6  1  0
  6  7  2  0
  6  8  2  0
  6  9  1  0
  9 10  1  0
 10 11  1  0
 11 12  1  0
 11 13  2  0
 13 14  1  0
 14 15  1  0
 14 16  1  0
 16 17  1  0
  5 18  1  0
 18 19  1  0
 18 20  2  0
 20  2  1  0
 16 10  2  0
  1 21  1  0
  1 22  1  0
  1 23  1  0
  3 24  1  0
  4 25  1  0
  9 26  1  0
 12 27  1  0
 12 28  1  0
 12 29  1  0
 15 30  1  0
 15 31  1  0
 15 32  1  0
 17 33  1  0
 17 34  1  0
 17 35  1  0
 19 36  1  0
 19 37  1  0
 19 38  1  0
 20 39  1  0
M  END
>  <UniqueID>  (36) 
32

>  <SMILES>  (36) 
Cc1ccc(S(=O)(=O)Nc2c(C)nn(C)c2C)c(C)c1

>  <Energy>  (36) 
74.35804762152598

>  <Genealogy>  (36) 
Cc1ccc(S(=O)(=O)Nc2c(C)nn(C)c2C)c(C)c1 (3D coordinates assigned)
Cc1ccc(S(=O)(=O)Nc2c(C)nn(C)c2C)c(C)c1 (optimized conformer: 74.35804762152598 kcal/mol)

>  <smiles>  (36) 
Cc1ccc(S(=O)(=O)Nc2c(C)nn(C)c2C)c(C)c1

>  <score_type>  (36) 
oracle

>  <origin>  (36) 
adg

>  <m_score__min__energy>  (36) 
-7.9900000000000002

>  <m_primary>  (36) 
energy

$$$$
36:0
     RDKit          3D

 28 29  0  0  0  0  0  0  0  0999 V2000
   57.7750   28.2140   44.0190 C   0  0  0  0  0  0  0  0  0  0  0  0
   57.4760   29.6290   44.3830 C   0  0  0  0  0  0  0  0  0  0  0  0
   58.4010   30.6150   44.6450 C   0  0  0  0  0  0  0  0  0  0  0  0
   57.6220   31.7190   44.9500 C   0  0  0  0  0  0  0  0  0  0  0  0
   58.0930   33.0760   45.3180 C   0  0  0  0  0  0  0  0  0  0  0  0
   58.8290   33.8220   44.4860 C   0  0  0  0  0  0  0  0  0  0  0  0
   59.2640   35.1820   44.9300 C   0  0  0  0  0  0  0  0  0  0  0  0
   59.7880   35.1030   46.3720 C   0  0  0  0  0  0  0  0  0  0  0  0
   58.8880   34.3460   47.3020 N   0  0  2  0  0  0  0  0  0  0  0  0
   59.6600   33.3580   48.0810 C   0  0  0  0  0  0  0  0  0  0  0  0
   57.7210   33.6920   46.6490 C   0  0  0  0  0  0  0  0  0  0  0  0
   56.3190   31.3770   44.8700 N   0  0  0  0  0  0  0  0  0  0  0  0
   56.2700   30.1220   44.5310 O   0  0  0  0  0  0  0  0  0  0  0  0
   57.9008   27.6185   44.9352 H   0  0  0  0  0  0  0  0  0  0  0  0
   56.9436   27.8042   43.4266 H   0  0  0  0  0  0  0  0  0  0  0  0
   58.7011   28.1756   43.4266 H   0  0  0  0  0  0  0  0  0  0  0  0
   59.4983   30.5429   44.6184 H   0  0  0  0  0  0  0  0  0  0  0  0
   59.1092   33.4414   43.4927 H   0  0  0  0  0  0  0  0  0  0  0  0
   60.0636   35.5461   44.2681 H   0  0  0  0  0  0  0  0  0  0  0  0
   58.4102   35.8741   44.8861 H   0  0  0  0  0  0  0  0  0  0  0  0
   60.7692   34.6059   46.3578 H   0  0  0  0  0  0  0  0  0  0  0  0
   59.8442   36.1347   46.7495 H   0  0  0  0  0  0  0  0  0  0  0  0
   58.5010   35.0310   47.9950 H   0  0  0  0  0  0  0  0  0  0  0  0
   59.5148   33.5439   49.1554 H   0  0  0  0  0  0  0  0  0  0  0  0
   59.3125   32.3440   47.8340 H   0  0  0  0  0  0  0  0  0  0  0  0
   60.7280   33.4499   47.8340 H   0  0  0  0  0  0  0  0  0  0  0  0
   57.3386   32.9021   47.3122 H   0  0  0  0  0  0  0  0  0  0  0  0
   56.9559   34.4612   46.4674 H   0  0  0  0  0  0  0  0  0  0  0  0
  1  2  1  0
  2  3  2  0
  3  4  1  0
  4  5  1  0
  5  6  2  0
  6  7  1  0
  7  8  1  0
  8  9  1  0
  9 10  1  0
  9 11  1  0
  4 12  2  0
 12 13  1  0
 13  2  1  0
 11  5  1  0
  1 14  1  0
  1 15  1  0
  1 16  1  0
  3 17  1  0
  6 18  1  0
  7 19  1  0
  7 20  1  0
  8 21  1  0
  8 22  1  0
  9 23  1  1
 10 24  1  0
 10 25  1  0
 10 26  1  0
 11 27  1  0
 11 28  1  0
M  CHG  1   9   1
M  END
>  <UniqueID>  (37) 
33

>  <SMILES>  (37) 
Cc1cc(C2=CCC[N@H+](C)C2)no1

>  <Energy>  (37) 
65.40519088131606

>  <Genealogy>  (37) 
Cc1cc(C2=CCC[NH+](C)C2)no1 (protonated)
Cc1cc(C2=CCC[N@H+](C)C2)no1 (chirality)
Cc1cc(C2=CCC[N@H+](C)C2)no1 (3D coordinates assigned)
Cc1cc(C2=CCC[N@H+](C)C2)no1 (nonaromatic ring conformer: 65.40519088131606 kcal/mol)

>  <smiles>  (37) 
Cc1cc(C2=CCCN(C)C2)no1

>  <score_type>  (37) 
oracle

>  <origin>  (37) 
adg

>  <m_score__min__energy>  (37) 
-5.0899999999999999

>  <m_primary>  (37) 
energy

$$$$
37:0
     RDKit          3D

 51 54  0  0  0  0  0  0  0  0999 V2000
   56.3370   25.9810   45.9720 C   0  0  0  0  0  0  0  0  0  0  0  0
   56.3400   27.4060   45.9620 O   0  0  0  0  0  0  0  0  0  0  0  0
   57.4790   28.2000   46.1730 C   0  0  0  0  0  0  0  0  0  0  0  0
   58.5880   27.7360   46.9050 C   0  0  0  0  0  0  0  0  0  0  0  0
   59.7030   28.5540   47.0930 C   0  0  0  0  0  0  0  0  0  0  0  0
   59.7240   29.8520   46.5650 C   0  0  0  0  0  0  0  0  0  0  0  0
   60.9520   30.7100   46.7130 C   0  0  0  0  0  0  0  0  0  0  0  0
   60.9400   31.3950   48.0100 N   0  0  0  0  0  0  0  0  0  0  0  0
   62.1250   31.4550   48.8110 C   0  0  0  0  0  0  0  0  0  0  0  0
   62.3680   30.5350   50.2070 S   0  0  0  0  0  0  0  0  0  0  0  0
   63.8520   31.2320   50.5690 C   0  0  0  0  0  0  0  0  0  0  0  0
   64.6910   30.9500   51.6440 C   0  0  0  0  0  0  0  0  0  0  0  0
   65.8980   31.6550   51.7470 C   0  0  0  0  0  0  0  0  0  0  0  0
   66.2420   32.6230   50.7840 C   0  0  0  0  0  0  0  0  0  0  0  0
   65.3810   32.8930   49.7070 C   0  0  0  0  0  0  0  0  0  0  0  0
   64.1760   32.1860   49.6100 C   0  0  0  0  0  0  0  0  0  0  0  0
   63.2000   32.3240   48.6110 C   0  0  0  0  0  0  0  0  0  0  0  0
   63.3670   33.4940   47.1020 Br  0  0  0  0  0  0  0  0  0  0  0  0
   59.5440   32.3070   48.4900 S   0  0  0  0  0  0  0  0  0  0  0  0
   58.4630   31.3800   48.9710 O   0  0  0  0  0  0  0  0  0  0  0  0
   59.9200   33.2370   49.6090 O   0  0  0  0  0  0  0  0  0  0  0  0
   58.9380   33.2050   47.1050 C   0  0  0  0  0  0  0  0  0  0  0  0
   57.5720   33.1540   46.7920 C   0  0  0  0  0  0  0  0  0  0  0  0
   57.0800   33.8450   45.6810 C   0  0  0  0  0  0  0  0  0  0  0  0
   57.9490   34.5880   44.8770 C   0  0  0  0  0  0  0  0  0  0  0  0
   59.3120   34.6410   45.1830 C   0  0  0  0  0  0  0  0  0  0  0  0
   59.8080   33.9510   46.2940 C   0  0  0  0  0  0  0  0  0  0  0  0
   58.6260   30.3160   45.8280 C   0  0  0  0  0  0  0  0  0  0  0  0
   57.4980   29.4950   45.6300 C   0  0  0  0  0  0  0  0  0  0  0  0
   56.3830   29.9270   44.8960 O   0  0  0  0  0  0  0  0  0  0  0  0
   56.3630   30.0910   43.4810 C   0  0  0  0  0  0  0  0  0  0  0  0
   56.3362   25.6216   47.0116 H   0  0  0  0  0  0  0  0  0  0  0  0
   55.4381   25.6126   45.4560 H   0  0  0  0  0  0  0  0  0  0  0  0
   57.2344   25.6088   45.4560 H   0  0  0  0  0  0  0  0  0  0  0  0
   58.5758   26.7222   47.3316 H   0  0  0  0  0  0  0  0  0  0  0  0
   60.5689   28.1784   47.6579 H   0  0  0  0  0  0  0  0  0  0  0  0
   61.8483   30.0758   46.6456 H   0  0  0  0  0  0  0  0  0  0  0  0
   60.9621   31.4624   45.9106 H   0  0  0  0  0  0  0  0  0  0  0  0
   64.4137   30.1936   52.3929 H   0  0  0  0  0  0  0  0  0  0  0  0
   66.5806   31.4509   52.5851 H   0  0  0  0  0  0  0  0  0  0  0  0
   67.1911   33.1715   50.8755 H   0  0  0  0  0  0  0  0  0  0  0  0
   65.6490   33.6472   48.9525 H   0  0  0  0  0  0  0  0  0  0  0  0
   56.8861   32.5689   47.4222 H   0  0  0  0  0  0  0  0  0  0  0  0
   56.0077   33.8040   45.4392 H   0  0  0  0  0  0  0  0  0  0  0  0
   57.5602   35.1313   44.0031 H   0  0  0  0  0  0  0  0  0  0  0  0
   59.9951   35.2259   44.5495 H   0  0  0  0  0  0  0  0  0  0  0  0
   60.8810   33.9929   46.5326 H   0  0  0  0  0  0  0  0  0  0  0  0
   58.6449   31.3294   45.4006 H   0  0  0  0  0  0  0  0  0  0  0  0
   56.2332   31.1557   43.2371 H   0  0  0  0  0  0  0  0  0  0  0  0
   57.3117   29.7307   43.0567 H   0  0  0  0  0  0  0  0  0  0  0  0
   55.5287   29.5132   43.0567 H   0  0  0  0  0  0  0  0  0  0  0  0
  1  2  1  0
  2  3  1  0
  3  4  2  0
  4  5  1  0
  5  6  2  0
  6  7  1  0
  7  8  1  0
  8  9  1  0
  9 10  1  0
 10 11  1  0
 11 12  2  0
 12 13  1  0
 13 14  2  0
 14 15  1  0
 15 16  2  0
 16 17  1  0
 17 18  1  0
  8 19  1  0
 19 20  2  0
 19 21  2  0
 19 22  1  0
 22 23  2  0
 23 24  1  0
 24 25  2  0
 25 26  1  0
 26 27  2  0
  6 28  1  0
 28 29  2  0
 29 30  1  0
 30 31  1  0
 29  3  1  0
 17  9  2  0
 27 22  1  0
 16 11  1  0
  1 32  1  0
  1 33  1  0
  1 34  1  0
  4 35  1  0
  5 36  1  0
  7 37  1  0
  7 38  1  0
 12 39  1  0
 13 40  1  0
 14 41  1  0
 15 42  1  0
 23 43  1  0
 24 44  1  0
 25 45  1  0
 26 46  1  0
 27 47  1  0
 28 48  1  0
 31 49  1  0
 31 50  1  0
 31 51  1  0
M  END
>  <UniqueID>  (38) 
34

>  <SMILES>  (38) 
COc1ccc(CN(c2sc3ccccc3c2Br)S(=O)(=O)c2ccccc2)cc1OC

>  <Energy>  (38) 
89.30777536255009

>  <Genealogy>  (38) 
COc1ccc(CN(c2sc3ccccc3c2Br)S(=O)(=O)c2ccccc2)cc1OC (3D coordinates assigned)
COc1ccc(CN(c2sc3ccccc3c2Br)S(=O)(=O)c2ccccc2)cc1OC (optimized conformer: 89.30777536255009 kcal/mol)

>  <smiles>  (38) 
COc1ccc(CN(c2sc3ccccc3c2Br)S(=O)(=O)c2ccccc2)cc1OC

>  <score_type>  (38) 
oracle

>  <origin>  (38) 
adg

>  <m_score__min__energy>  (38) 
-9.6699999999999999

>  <m_primary>  (38) 
energy

$$$$
38:0
     RDKit          3D

 50 52  0  0  0  0  0  0  0  0999 V2000
   59.3450   35.0340   47.0750 C   0  0  0  0  0  0  0  0  0  0  0  0
   59.7980   34.0620   46.1380 O   0  0  0  0  0  0  0  0  0  0  0  0
   58.9940   33.0480   45.5940 C   0  0  0  0  0  0  0  0  0  0  0  0
   58.4530   33.1380   44.2970 C   0  0  0  0  0  0  0  0  0  0  0  0
   57.6590   32.1050   43.7890 C   0  0  0  0  0  0  0  0  0  0  0  0
   57.3960   30.9700   44.5660 C   0  0  0  0  0  0  0  0  0  0  0  0
   56.4060   29.6660   43.9230 S   0  0  0  0  0  0  0  0  0  0  0  0
   55.8970   30.0290   42.5550 O   0  0  0  0  0  0  0  0  0  0  0  0
   55.2320   29.4350   44.8320 O   0  0  0  0  0  0  0  0  0  0  0  0
   57.3370   28.2080   43.8120 N   0  0  0  0  0  0  0  0  0  0  0  0
   58.4200   27.9130   44.7100 C   0  0  0  0  0  0  0  0  0  0  0  0
   59.6660   28.5390   44.5230 C   0  0  0  0  0  0  0  0  0  0  0  0
   60.7150   28.3200   45.4150 C   0  0  0  0  0  0  0  0  0  0  0  0
   60.5350   27.4820   46.5130 C   0  0  0  0  0  0  0  0  0  0  0  0
   59.3090   26.8470   46.7140 C   0  0  0  0  0  0  0  0  0  0  0  0
   58.2440   27.0340   45.8110 C   0  0  0  0  0  0  0  0  0  0  0  0
   56.9570   26.2700   46.0490 C   0  0  0  0  0  0  0  0  0  0  0  0
   56.9830   24.9110   45.3800 C   0  0  0  0  0  0  0  0  0  0  0  0
   56.9980   24.8490   43.9750 C   0  0  0  0  0  0  0  0  0  0  0  0
   56.9980   23.6200   43.3140 C   0  0  0  0  0  0  0  0  0  0  0  0
   56.9650   22.4260   44.0420 C   0  0  0  0  0  0  0  0  0  0  0  0
   56.9970   21.1060   43.3300 C   0  0  0  0  0  0  0  0  0  0  0  0
   56.9640   22.4720   45.4430 C   0  0  0  0  0  0  0  0  0  0  0  0
   56.9730   23.7020   46.1240 C   0  0  0  0  0  0  0  0  0  0  0  0
   56.9310   23.6990   47.6300 C   0  0  0  0  0  0  0  0  0  0  0  0
   57.9270   30.8790   45.8590 C   0  0  0  0  0  0  0  0  0  0  0  0
   58.7230   31.9100   46.3700 C   0  0  0  0  0  0  0  0  0  0  0  0
   59.3790   31.7600   47.9920 Cl  0  0  0  0  0  0  0  0  0  0  0  0
   59.5166   34.6658   48.0972 H   0  0  0  0  0  0  0  0  0  0  0  0
   59.8983   35.9729   46.9258 H   0  0  0  0  0  0  0  0  0  0  0  0
   58.2702   35.2141   46.9258 H   0  0  0  0  0  0  0  0  0  0  0  0
   58.6561   34.0258   43.6800 H   0  0  0  0  0  0  0  0  0  0  0  0
   57.2394   32.1843   42.7753 H   0  0  0  0  0  0  0  0  0  0  0  0
   57.0690   27.5230   43.0730 H   0  0  0  0  0  0  0  0  0  0  0  0
   59.8143   29.2089   43.6632 H   0  0  0  0  0  0  0  0  0  0  0  0
   61.6863   28.8098   45.2514 H   0  0  0  0  0  0  0  0  0  0  0  0
   61.3602   27.3207   47.2223 H   0  0  0  0  0  0  0  0  0  0  0  0
   59.1724   26.1928   47.5877 H   0  0  0  0  0  0  0  0  0  0  0  0
   56.8186   26.1323   47.1315 H   0  0  0  0  0  0  0  0  0  0  0  0
   56.1279   26.8500   45.6174 H   0  0  0  0  0  0  0  0  0  0  0  0
   57.0099   25.7805   43.3901 H   0  0  0  0  0  0  0  0  0  0  0  0
   57.0241   23.5900   42.2147 H   0  0  0  0  0  0  0  0  0  0  0  0
   57.0168   20.2913   44.0688 H   0  0  0  0  0  0  0  0  0  0  0  0
   56.1010   21.0076   42.6996 H   0  0  0  0  0  0  0  0  0  0  0  0
   57.8967   21.0512   42.6996 H   0  0  0  0  0  0  0  0  0  0  0  0
   56.9561   21.5337   46.0170 H   0  0  0  0  0  0  0  0  0  0  0  0
   57.9548   23.7721   48.0255 H   0  0  0  0  0  0  0  0  0  0  0  0
   56.3398   24.5572   47.9820 H   0  0  0  0  0  0  0  0  0  0  0  0
   56.4677   22.7655   47.9820 H   0  0  0  0  0  0  0  0  0  0  0  0
   57.7172   29.9926   46.4757 H   0  0  0  0  0  0  0  0  0  0  0  0
  1  2  1  0
  2  3  1  0
  3  4  2  0
  4  5  1  0
  5  6  2  0
  6  7  1  0
  7  8  2  0
  7  9  2  0
  7 10  1  0
 10 11  1  0
 11 12  2  0
 12 13  1  0
 13 14  2  0
 14 15  1  0
 15 16  2  0
 16 17  1  0
 17 18  1  0
 18 19  2  0
 19 20  1  0
 20 21  2  0
 21 22  1  0
 21 23  1  0
 23 24  2  0
 24 25  1  0
  6 26  1  0
 26 27  2  0
 27 28  1  0
 27  3  1  0
 16 11  1  0
 24 18  1  0
  1 29  1  0
  1 30  1  0
  1 31  1  0
  4 32  1  0
  5 33  1  0
 10 34  1  0
 12 35  1  0
 13 36  1  0
 14 37  1  0
 15 38  1  0
 17 39  1  0
 17 40  1  0
 19 41  1  0
 20 42  1  0
 22 43  1  0
 22 44  1  0
 22 45  1  0
 23 46  1  0
 25 47  1  0
 25 48  1  0
 25 49  1  0
 26 50  1  0
M  END
>  <UniqueID>  (39) 
35

>  <SMILES>  (39) 
COc1ccc(S(=O)(=O)Nc2ccccc2Cc2ccc(C)cc2C)cc1Cl

>  <Energy>  (39) 
57.51809220569475

>  <Genealogy>  (39) 
COc1ccc(S(=O)(=O)Nc2ccccc2Cc2ccc(C)cc2C)cc1Cl (3D coordinates assigned)
COc1ccc(S(=O)(=O)Nc2ccccc2Cc2ccc(C)cc2C)cc1Cl (optimized conformer: 57.51809220569475 kcal/mol)

>  <smiles>  (39) 
COc1ccc(S(=O)(=O)Nc2ccccc2Cc2ccc(C)cc2C)cc1Cl

>  <score_type>  (39) 
oracle

>  <origin>  (39) 
adg

>  <m_score__min__energy>  (39) 
-9.2100000000000009

>  <m_primary>  (39) 
energy

$$$$
39:0
     RDKit          3D

 54 57  0  0  0  0  0  0  0  0999 V2000
   64.7480   32.5860   52.9090 N   0  0  0  0  0  0  0  0  0  0  0  0
   64.3860   32.7960   51.8290 C   0  0  0  0  0  0  0  0  0  0  0  0
   63.9350   33.0570   50.4870 C   0  0  0  0  0  0  0  0  0  0  0  0
   64.4470   32.3120   49.4180 C   0  0  0  0  0  0  0  0  0  0  0  0
   64.0120   32.5640   48.1140 C   0  0  0  0  0  0  0  0  0  0  0  0
   63.0440   33.5530   47.8640 C   0  0  0  0  0  0  0  0  0  0  0  0
   62.5720   33.8410   46.4490 C   0  0  0  0  0  0  0  0  0  0  0  0
   61.0960   33.7700   46.2600 N   0  0  2  0  0  0  0  0  0  0  0  0
   60.4120   34.9550   46.8160 C   0  0  0  0  0  0  0  0  0  0  0  0
   58.9200   34.9330   46.4850 C   0  0  0  0  0  0  0  0  0  0  0  0
   58.2700   33.6910   47.1020 C   0  0  0  0  0  0  0  0  0  0  0  0
   58.9650   32.3590   46.6930 C   0  0  0  0  0  0  0  0  0  0  0  0
   58.5120   31.2610   47.7130 C   0  0  0  0  0  0  0  0  0  0  0  0
   58.4980   29.8480   47.1150 C   0  0  0  0  0  0  0  0  0  0  0  0
   57.6420   29.7940   45.9190 N   0  0  0  0  0  0  0  0  0  0  0  0
   57.0180   28.5580   45.5110 C   0  0  0  0  0  0  0  0  0  0  0  0
   55.9860   28.5930   44.7870 O   0  0  0  0  0  0  0  0  0  0  0  0
   57.5390   27.2240   45.9790 C   0  0  0  0  0  0  0  0  0  0  0  0
   56.5540   26.1310   45.7040 C   0  0  0  0  0  0  0  0  0  0  0  0
   56.8290   24.8750   45.2130 C   0  0  0  0  0  0  0  0  0  0  0  0
   55.6790   24.1810   45.1360 N   0  0  0  0  0  0  0  0  0  0  0  0
   54.7500   25.0510   45.5890 C   0  0  0  0  0  0  0  0  0  0  0  0
   55.2690   26.2090   45.9300 O   0  0  0  0  0  0  0  0  0  0  0  0
   57.3600   31.0300   45.1750 C   0  0  0  0  0  0  0  0  0  0  0  0
   58.5700   31.9670   45.2320 C   0  0  0  0  0  0  0  0  0  0  0  0
   60.4870   32.5390   46.7480 C   0  0  0  0  0  0  0  0  0  0  0  0
   61.1850   31.5680   47.0100 O   0  0  0  0  0  0  0  0  0  0  0  0
   62.5590   34.3170   48.9410 C   0  0  0  0  0  0  0  0  0  0  0  0
   62.9940   34.0630   50.2450 C   0  0  0  0  0  0  0  0  0  0  0  0
   65.1937   31.5262   49.6049 H   0  0  0  0  0  0  0  0  0  0  0  0
   64.4297   31.9847   47.2774 H   0  0  0  0  0  0  0  0  0  0  0  0
   62.9043   34.8534   46.1761 H   0  0  0  0  0  0  0  0  0  0  0  0
   63.0056   33.0572   45.8106 H   0  0  0  0  0  0  0  0  0  0  0  0
   60.9420   33.7790   45.2240 H   0  0  0  0  0  0  0  0  0  0  0  0
   60.5378   34.9630   47.9088 H   0  0  0  0  0  0  0  0  0  0  0  0
   60.8562   35.8570   46.3699 H   0  0  0  0  0  0  0  0  0  0  0  0
   58.4421   35.8360   46.8927 H   0  0  0  0  0  0  0  0  0  0  0  0
   58.7906   34.9061   45.3930 H   0  0  0  0  0  0  0  0  0  0  0  0
   58.3119   33.7837   48.1973 H   0  0  0  0  0  0  0  0  0  0  0  0
   57.2370   33.6458   46.7267 H   0  0  0  0  0  0  0  0  0  0  0  0
   59.2039   31.2717   48.5681 H   0  0  0  0  0  0  0  0  0  0  0  0
   57.4806   31.4991   48.0123 H   0  0  0  0  0  0  0  0  0  0  0  0
   59.5238   29.5640   46.8372 H   0  0  0  0  0  0  0  0  0  0  0  0
   58.0975   29.1516   47.8664 H   0  0  0  0  0  0  0  0  0  0  0  0
   58.4786   27.0010   45.4523 H   0  0  0  0  0  0  0  0  0  0  0  0
   57.7060   27.2770   47.0650 H   0  0  0  0  0  0  0  0  0  0  0  0
   57.8240   24.5007   44.9304 H   0  0  0  0  0  0  0  0  0  0  0  0
   53.6780   24.8160   45.6641 H   0  0  0  0  0  0  0  0  0  0  0  0
   57.1417   30.7813   44.1260 H   0  0  0  0  0  0  0  0  0  0  0  0
   56.4935   31.5333   45.6288 H   0  0  0  0  0  0  0  0  0  0  0  0
   59.4265   31.4640   44.7594 H   0  0  0  0  0  0  0  0  0  0  0  0
   58.2973   32.8923   44.7033 H   0  0  0  0  0  0  0  0  0  0  0  0
   61.8315   35.1209   48.7555 H   0  0  0  0  0  0  0  0  0  0  0  0
   62.5956   34.6552   51.0820 H   0  0  0  0  0  0  0  0  0  0  0  0
  1  2  3  0
  2  3  1  0
  3  4  2  0
  4  5  1  0
  5  6  2  0
  6  7  1  0
  7  8  1  0
  8  9  1  0
  9 10  1  0
 10 11  1  0
 11 12  1  0
 12 13  1  0
 13 14  1  0
 14 15  1  0
 15 16  1  0
 16 17  2  0
 16 18  1  0
 18 19  1  0
 19 20  2  0
 20 21  1  0
 21 22  2  0
 22 23  1  0
 15 24  1  0
 24 25  1  0
 12 26  1  0
 26 27  2  0
  6 28  1  0
 28 29  2  0
 29  3  1  0
 26  8  1  0
 25 12  1  0
 23 19  1  0
  4 30  1  0
  5 31  1  0
  7 32  1  0
  7 33  1  0
  8 34  1  6
  9 35  1  0
  9 36  1  0
 10 37  1  0
 10 38  1  0
 11 39  1  0
 11 40  1  0
 13 41  1  0
 13 42  1  0
 14 43  1  0
 14 44  1  0
 18 45  1  0
 18 46  1  0
 20 47  1  0
 22 48  1  0
 24 49  1  0
 24 50  1  0
 25 51  1  0
 25 52  1  0
 28 53  1  0
 29 54  1  0
M  CHG  1   8   1
M  END
>  <UniqueID>  (40) 
36

>  <SMILES>  (40) 
N#Cc1ccc(C[N@@H+]2CCCC3(CCN(C(=O)Cc4cnco4)CC3)C2=O)cc1

>  <Energy>  (40) 
98.16145794257974

>  <Genealogy>  (40) 
N#Cc1ccc(C[NH+]2CCCC3(CCN(C(=O)Cc4cnco4)CC3)C2=O)cc1 (protonated)
N#Cc1ccc(C[N@@H+]2CCCC3(CCN(C(=O)Cc4cnco4)CC3)C2=O)cc1 (chirality)
N#Cc1ccc(C[N@@H+]2CCCC3(CCN(C(=O)Cc4cnco4)CC3)C2=O)cc1 (3D coordinates assigned)
N#Cc1ccc(C[N@@H+]2CCCC3(CCN(C(=O)Cc4cnco4)CC3)C2=O)cc1 (nonaromatic ring conformer: 98.16145794257974 kcal/mol)

>  <smiles>  (40) 
N#Cc1ccc(CN2CCCC3(CCN(C(=O)Cc4cnco4)CC3)C2=O)cc1

>  <score_type>  (40) 
oracle

>  <origin>  (40) 
adg

>  <m_score__min__energy>  (40) 
-7.0899999999999999

>  <m_primary>  (40) 
energy

$$$$
40:0
     RDKit          3D

 45 48  0  0  0  0  0  0  0  0999 V2000
   56.3520   30.5670   44.8670 O   0  0  0  0  0  0  0  0  0  0  0  0
   57.6420   30.2130   44.9820 C   0  0  0  0  0  0  0  0  0  0  0  0
   58.4570   31.2100   44.4670 N   0  0  0  0  0  0  0  0  0  0  0  0
   57.8390   32.3850   43.9060 C   0  0  0  0  0  0  0  0  0  0  0  0
   57.2000   33.2920   44.9020 C   0  0  0  0  0  0  0  0  0  0  0  0
   58.3260   33.9610   45.6360 C   0  0  0  0  0  0  0  0  0  0  0  0
   59.1370   34.9730   45.1490 C   0  0  0  0  0  0  0  0  0  0  0  0
   60.0250   35.2730   46.1120 N   0  0  0  0  0  0  0  0  0  0  0  0
   59.7910   34.4820   47.1810 C   0  0  0  0  0  0  0  0  0  0  0  0
   60.4140   34.3910   48.4280 C   0  0  0  0  0  0  0  0  0  0  0  0
   59.9160   33.4610   49.3100 C   0  0  0  0  0  0  0  0  0  0  0  0
   58.8590   32.6320   49.0350 C   0  0  0  0  0  0  0  0  0  0  0  0
   58.2460   32.7230   47.8040 C   0  0  0  0  0  0  0  0  0  0  0  0
   58.7240   33.6360   46.9190 C   0  0  0  0  0  0  0  0  0  0  0  0
   57.7820   28.9830   45.5940 C   0  0  0  0  0  0  0  0  0  0  0  0
   57.5360   28.2050   44.1110 C   0  0  0  0  0  0  0  0  0  0  0  0
   57.5480   26.9480   44.0010 N   0  0  0  0  0  0  0  0  0  0  0  0
   57.7330   25.9750   44.9050 C   0  0  0  0  0  0  0  0  0  0  0  0
   57.7790   24.5780   44.6920 C   0  0  0  0  0  0  0  0  0  0  0  0
   56.9060   24.0360   43.7410 C   0  0  0  0  0  0  0  0  0  0  0  0
   56.8840   22.6840   43.5240 C   0  0  0  0  0  0  0  0  0  0  0  0
   57.7690   21.9290   44.2980 C   0  0  0  0  0  0  0  0  0  0  0  0
   58.6230   22.4600   45.2280 C   0  0  0  0  0  0  0  0  0  0  0  0
   58.6360   23.8100   45.4360 C   0  0  0  0  0  0  0  0  0  0  0  0
   57.9380   26.5440   46.1430 N   0  0  0  0  0  0  0  0  0  0  0  0
   57.9120   27.8380   46.1650 C   0  0  0  0  0  0  0  0  0  0  0  0
   58.1560   28.2500   47.4850 O   0  0  0  0  0  0  0  0  0  0  0  0
   59.4940   31.0890   44.5270 H   0  0  0  0  0  0  0  0  0  0  0  0
   58.6121   32.9555   43.3704 H   0  0  0  0  0  0  0  0  0  0  0  0
   57.0313   32.0269   43.2507 H   0  0  0  0  0  0  0  0  0  0  0  0
   56.5777   34.0419   44.3918 H   0  0  0  0  0  0  0  0  0  0  0  0
   56.5448   32.7371   45.5896 H   0  0  0  0  0  0  0  0  0  0  0  0
   59.0670   35.4439   44.1574 H   0  0  0  0  0  0  0  0  0  0  0  0
   60.7680   36.0120   46.0140 H   0  0  0  0  0  0  0  0  0  0  0  0
   61.2656   35.0350   48.6927 H   0  0  0  0  0  0  0  0  0  0  0  0
   60.3950   33.3769   50.2967 H   0  0  0  0  0  0  0  0  0  0  0  0
   58.5066   31.9072   49.7836 H   0  0  0  0  0  0  0  0  0  0  0  0
   57.3950   32.0756   47.5458 H   0  0  0  0  0  0  0  0  0  0  0  0
   57.3598   28.8156   43.2131 H   0  0  0  0  0  0  0  0  0  0  0  0
   57.3730   26.5300   42.9980 H   0  0  0  0  0  0  0  0  0  0  0  0
   56.2379   24.6960   43.1682 H   0  0  0  0  0  0  0  0  0  0  0  0
   56.2117   22.2214   42.7865 H   0  0  0  0  0  0  0  0  0  0  0  0
   57.7806   20.8389   44.1511 H   0  0  0  0  0  0  0  0  0  0  0  0
   59.2933   21.8042   45.8030 H   0  0  0  0  0  0  0  0  0  0  0  0
   59.3113   24.2651   46.1755 H   0  0  0  0  0  0  0  0  0  0  0  0
  1  2  2  0
  2  3  1  0
  3  4  1  0
  4  5  1  0
  5  6  1  0
  6  7  2  0
  7  8  1  0
  8  9  1  0
  9 10  2  0
 10 11  1  0
 11 12  2  0
 12 13  1  0
 13 14  2  0
  2 15  1  0
 15 16  2  0
 16 17  1  0
 17 18  1  0
 18 19  1  0
 19 20  2  0
 20 21  1  0
 21 22  2  0
 22 23  1  0
 23 24  2  0
 18 25  2  0
 25 26  1  0
 26 27  2  0
 14  6  1  0
 26 15  1  0
 14  9  1  0
 24 19  1  0
  3 28  1  0
  4 29  1  0
  4 30  1  0
  5 31  1  0
  5 32  1  0
  7 33  1  0
  8 34  1  0
 10 35  1  0
 11 36  1  0
 12 37  1  0
 13 38  1  0
 16 39  1  0
 17 40  1  0
 20 41  1  0
 21 42  1  0
 22 43  1  0
 23 44  1  0
 24 45  1  0
M  END
>  <smiles>  (41) 
O=C(NCCc1c[nH]c2ccccc12)c1c[nH]c(-c2ccccc2)nc1=O

>  <score_type>  (41) 
oracle

>  <origin>  (41) 
adg

>  <m_score__min__energy>  (41) 
-8.7100000000000009

>  <m_primary>  (41) 
energy

$$$$
41:0
     RDKit          3D

 28 29  0  0  0  0  0  0  0  0999 V2000
   58.1570   31.9760   50.5340 C   0  0  0  0  0  0  0  0  0  0  0  0
   58.9610   31.9350   49.2380 C   0  0  0  0  0  0  0  0  0  0  0  0
   58.1560   32.3460   48.1310 O   0  0  0  0  0  0  0  0  0  0  0  0
   58.5440   33.2440   47.1210 C   0  0  0  0  0  0  0  0  0  0  0  0
   59.2630   34.4250   47.4000 C   0  0  0  0  0  0  0  0  0  0  0  0
   59.6150   35.2980   46.3690 C   0  0  0  0  0  0  0  0  0  0  0  0
   59.2660   35.0030   45.0510 C   0  0  0  0  0  0  0  0  0  0  0  0
   58.5610   33.8340   44.7600 C   0  0  0  0  0  0  0  0  0  0  0  0
   58.1910   32.9510   45.7880 C   0  0  0  0  0  0  0  0  0  0  0  0
   57.4740   31.7460   45.4770 N   0  0  0  0  0  0  0  0  0  0  0  0
   56.3030   31.6990   44.8680 N   0  0  0  0  0  0  0  0  0  0  0  0
   55.9500   30.4310   44.7200 N   0  0  0  0  0  0  0  0  0  0  0  0
   56.8860   29.6350   45.2210 N   0  0  0  0  0  0  0  0  0  0  0  0
   57.8320   30.4670   45.6920 C   0  0  0  0  0  0  0  0  0  0  0  0
   59.3900   29.9130   46.3900 S   0  0  0  0  0  0  0  0  0  0  0  0
   59.8570   28.9840   44.8970 C   0  0  0  0  0  0  0  0  0  0  0  0
   58.8436   31.9410   51.3927 H   0  0  0  0  0  0  0  0  0  0  0  0
   57.5696   32.9053   50.5719 H   0  0  0  0  0  0  0  0  0  0  0  0
   57.4781   31.1113   50.5719 H   0  0  0  0  0  0  0  0  0  0  0  0
   59.8244   32.6107   49.3272 H   0  0  0  0  0  0  0  0  0  0  0  0
   59.3003   30.9031   49.0648 H   0  0  0  0  0  0  0  0  0  0  0  0
   59.5481   34.6596   48.4362 H   0  0  0  0  0  0  0  0  0  0  0  0
   60.1689   36.2207   46.5965 H   0  0  0  0  0  0  0  0  0  0  0  0
   59.5465   35.6920   44.2407 H   0  0  0  0  0  0  0  0  0  0  0  0
   58.2933   33.6026   43.7185 H   0  0  0  0  0  0  0  0  0  0  0  0
   60.3333   28.0364   45.1888 H   0  0  0  0  0  0  0  0  0  0  0  0
   58.9575   28.7736   44.2998 H   0  0  0  0  0  0  0  0  0  0  0  0
   60.5625   29.5804   44.2998 H   0  0  0  0  0  0  0  0  0  0  0  0
  1  2  1  0
  2  3  1  0
  3  4  1  0
  4  5  2  0
  5  6  1  0
  6  7  2  0
  7  8  1  0
  8  9  2  0
  9 10  1  0
 10 11  1  0
 11 12  2  0
 12 13  1  0
 13 14  2  0
 14 15  1  0
 15 16  1  0
  9  4  1  0
 14 10  1  0
  1 17  1  0
  1 18  1  0
  1 19  1  0
  2 20  1  0
  2 21  1  0
  5 22  1  0
  6 23  1  0
  7 24  1  0
  8 25  1  0
 16 26  1  0
 16 27  1  0
 16 28  1  0
M  END
>  <UniqueID>  (42) 
37

>  <SMILES>  (42) 
CCOc1ccccc1-n1nnnc1SC

>  <Energy>  (42) 
67.57455158215474

>  <Genealogy>  (42) 
CCOc1ccccc1-n1nnnc1SC (3D coordinates assigned)
CCOc1ccccc1-n1nnnc1SC (optimized conformer: 67.57455158215474 kcal/mol)

>  <smiles>  (42) 
CCOc1ccccc1-n1nnnc1SC

>  <score_type>  (42) 
oracle

>  <origin>  (42) 
adg

>  <m_score__min__energy>  (42) 
-6.7300000000000004

>  <m_primary>  (42) 
energy

$$$$
42:0
     RDKit          3D

 40 42  0  0  0  0  0  0  0  0999 V2000
   55.1470   27.3260   45.1600 H   0  0  0  0  0  0  0  0  0  0  0  0
   55.2700   26.7150   45.9960 N   0  0  0  0  0  0  0  0  0  0  0  0
   56.0840   25.7070   46.0620 C   0  0  0  0  0  0  0  0  0  0  0  0
   55.6770   24.5940   46.7300 N   0  0  0  0  0  0  0  0  0  0  0  0
   56.4690   23.4990   46.8700 C   0  0  0  0  0  0  0  0  0  0  0  0
   56.0977   22.6173   47.4129 H   0  0  0  0  0  0  0  0  0  0  0  0
   57.7510   23.4930   46.3260 C   0  0  0  0  0  0  0  0  0  0  0  0
   58.3996   22.6122   46.4422 H   0  0  0  0  0  0  0  0  0  0  0  0
   58.2040   24.6140   45.6330 C   0  0  0  0  0  0  0  0  0  0  0  0
   59.2181   24.6198   45.2068 H   0  0  0  0  0  0  0  0  0  0  0  0
   57.3750   25.7360   45.4750 C   0  0  0  0  0  0  0  0  0  0  0  0
   57.9780   27.1320   44.5650 S   0  0  0  0  0  0  0  0  0  0  0  0
   59.3250   27.5580   45.0840 O   0  0  0  0  0  0  0  0  0  0  0  0
   58.1100   26.7490   43.1180 O   0  0  0  0  0  0  0  0  0  0  0  0
   56.8840   28.4770   44.6810 N   0  0  0  0  0  0  0  0  0  0  0  0
   55.8670   28.2690   44.5610 H   0  0  0  0  0  0  0  0  0  0  0  0
   57.2990   29.8440   44.8590 C   0  0  0  0  0  0  0  0  0  0  0  0
   57.8330   30.2400   46.0930 C   0  0  0  0  0  0  0  0  0  0  0  0
   57.9209   29.5064   46.9079 H   0  0  0  0  0  0  0  0  0  0  0  0
   58.2550   31.5560   46.3000 C   0  0  0  0  0  0  0  0  0  0  0  0
   58.6682   31.8500   47.2761 H   0  0  0  0  0  0  0  0  0  0  0  0
   58.1550   32.5070   45.2690 C   0  0  0  0  0  0  0  0  0  0  0  0
   58.6030   33.9040   45.4840 C   0  0  0  0  0  0  0  0  0  0  0  0
   58.5230   34.7400   44.5430 O   0  0  0  0  0  0  0  0  0  0  0  0
   59.0780   34.3150   46.7740 N   0  0  0  0  0  0  0  0  0  0  0  0
   60.3480   33.9980   47.3600 C   0  0  0  0  0  0  0  0  0  0  0  0
   60.5300   33.9190   48.7530 C   0  0  0  0  0  0  0  0  0  0  0  0
   59.6767   34.0843   49.4272 H   0  0  0  0  0  0  0  0  0  0  0  0
   61.7920   33.6310   49.2840 C   0  0  0  0  0  0  0  0  0  0  0  0
   61.9263   33.5610   50.3735 H   0  0  0  0  0  0  0  0  0  0  0  0
   62.8830   33.4320   48.4320 C   0  0  0  0  0  0  0  0  0  0  0  0
   64.4650   33.0720   49.0980 Cl  0  0  0  0  0  0  0  0  0  0  0  0
   62.7130   33.5350   47.0470 C   0  0  0  0  0  0  0  0  0  0  0  0
   63.5719   33.3884   46.3755 H   0  0  0  0  0  0  0  0  0  0  0  0
   61.4530   33.8240   46.5160 C   0  0  0  0  0  0  0  0  0  0  0  0
   61.3277   33.9156   45.4270 H   0  0  0  0  0  0  0  0  0  0  0  0
   57.6270   32.1090   44.0280 C   0  0  0  0  0  0  0  0  0  0  0  0
   57.5468   32.8399   43.2099 H   0  0  0  0  0  0  0  0  0  0  0  0
   57.2030   30.7920   43.8250 C   0  0  0  0  0  0  0  0  0  0  0  0
   56.7913   30.4954   42.8490 H   0  0  0  0  0  0  0  0  0  0  0  0
  1  2  1  0
  2  3  2  0
  3  4  1  0
  4  5  1  0
  5  6  1  0
  5  7  2  0
  7  8  1  0
  7  9  1  0
  9 10  1  0
  9 11  2  0
 11 12  1  0
 12 13  2  0
 12 14  2  0
 12 15  1  0
 15 16  1  0
 15 17  1  0
 17 18  2  0
 18 19  1  0
 18 20  1  0
 20 21  1  0
 20 22  2  0
 22 23  1  0
 23 24  2  0
 23 25  1  0
 25 26  1  0
 26 27  2  0
 27 28  1  0
 27 29  1  0
 29 30  1  0
 29 31  2  0
 31 32  1  0
 31 33  1  0
 33 34  1  0
 33 35  2  0
 35 36  1  0
 22 37  1  0
 37 38  1  0
 37 39  2  0
 39 40  1  0
 11  3  1  0
 39 17  1  0
 35 26  1  0
M  CHG  2   4  -1  25  -1
M  END
>  <UniqueID>  (43) 
38

>  <SMILES>  (43) 
[H]/N=c1/[n-]cccc1S(=O)(=O)Nc1ccc(C(=O)[N-]c2ccc(Cl)cc2)cc1

>  <Energy>  (43) 
54.355363958239906

>  <Genealogy>  (43) 
N=c1[n-]cccc1S(=O)(=O)Nc1ccc(C(=O)[N-]c2ccc(Cl)cc2)cc1 (protonated)
[H]/N=c1/[n-]cccc1S(=O)(=O)Nc1ccc(C(=O)[N-]c2ccc(Cl)cc2)cc1 (cis-trans isomerization)
[H]/N=c1/[n-]cccc1S(=O)(=O)Nc1ccc(C(=O)[N-]c2ccc(Cl)cc2)cc1 (3D coordinates assigned)
[H]/N=c1/[n-]cccc1S(=O)(=O)Nc1ccc(C(=O)[N-]c2ccc(Cl)cc2)cc1 (optimized conformer: 54.355363958239906 kcal/mol)

>  <smiles>  (43) 
N=c1[nH]cccc1S(=O)(=O)Nc1ccc(C(=O)Nc2ccc(Cl)cc2)cc1

>  <score_type>  (43) 
oracle

>  <origin>  (43) 
adg

>  <m_score__min__energy>  (43) 
-12.42

>  <m_primary>  (43) 
energy

$$$$
43:0
     RDKit          3D

 56 58  0  0  0  0  0  0  0  0999 V2000
   56.5630   30.6390   43.6810 C   0  0  0  0  0  0  0  0  0  0  0  0
   56.5100   31.5710   44.7570 O   0  0  0  0  0  0  0  0  0  0  0  0
   57.5510   32.4480   45.1030 C   0  0  0  0  0  0  0  0  0  0  0  0
   57.4470   33.8410   44.9140 C   0  0  0  0  0  0  0  0  0  0  0  0
   58.4910   34.6840   45.2990 C   0  0  0  0  0  0  0  0  0  0  0  0
   59.6460   34.1540   45.8770 C   0  0  0  0  0  0  0  0  0  0  0  0
   59.7630   32.7760   46.0650 C   0  0  0  0  0  0  0  0  0  0  0  0
   58.7260   31.9180   45.6740 C   0  0  0  0  0  0  0  0  0  0  0  0
   58.8670   30.5040   45.8910 N   0  0  0  0  0  0  0  0  0  0  0  0
   59.4870   29.6860   44.8450 C   0  0  0  0  0  0  0  0  0  0  0  0
   58.9540   28.2400   44.8830 C   0  0  0  0  0  0  0  0  0  0  0  0
   58.8730   27.6670   46.2510 N   0  0  0  0  0  0  0  0  0  0  0  0
   60.1660   27.2800   46.7990 C   0  0  0  0  0  0  0  0  0  0  0  0
   60.7580   28.0010   47.5920 O   0  0  0  0  0  0  0  0  0  0  0  0
   60.7840   25.9530   46.4310 C   0  0  0  0  0  0  0  0  0  0  0  0
   59.7030   24.9470   46.0170 C   0  0  0  0  0  0  0  0  0  0  0  0
   58.4500   25.1740   46.7420 N   0  0  0  0  0  0  0  0  0  0  0  0
   57.0640   25.1340   45.6850 S   0  0  0  0  0  0  0  0  0  0  0  0
   57.3830   25.8960   44.4280 O   0  0  0  0  0  0  0  0  0  0  0  0
   55.8720   25.7740   46.3450 O   0  0  0  0  0  0  0  0  0  0  0  0
   56.7040   23.4640   45.2560 C   0  0  0  0  0  0  0  0  0  0  0  0
   56.2100   22.5660   46.2110 C   0  0  0  0  0  0  0  0  0  0  0  0
   55.9420   21.2390   45.8570 C   0  0  0  0  0  0  0  0  0  0  0  0
   56.1500   20.8030   44.5390 C   0  0  0  0  0  0  0  0  0  0  0  0
   55.8970   19.3730   44.1660 C   0  0  0  0  0  0  0  0  0  0  0  0
   56.6590   21.7000   43.5890 C   0  0  0  0  0  0  0  0  0  0  0  0
   56.9310   23.0250   43.9450 C   0  0  0  0  0  0  0  0  0  0  0  0
   58.1400   28.5560   47.1780 C   0  0  0  0  0  0  0  0  0  0  0  0
   58.7580   29.9540   47.2430 C   0  0  0  0  0  0  0  0  0  0  0  0
   56.6211   29.6170   44.0837 H   0  0  0  0  0  0  0  0  0  0  0  0
   55.6577   30.7392   43.0642 H   0  0  0  0  0  0  0  0  0  0  0  0
   57.4511   30.8411   43.0642 H   0  0  0  0  0  0  0  0  0  0  0  0
   56.5390   34.2657   44.4611 H   0  0  0  0  0  0  0  0  0  0  0  0
   58.4033   35.7698   45.1464 H   0  0  0  0  0  0  0  0  0  0  0  0
   60.4638   34.8224   46.1842 H   0  0  0  0  0  0  0  0  0  0  0  0
   60.6735   32.3613   46.5222 H   0  0  0  0  0  0  0  0  0  0  0  0
   59.2608   30.1267   43.8628 H   0  0  0  0  0  0  0  0  0  0  0  0
   60.5732   29.6628   45.0172 H   0  0  0  0  0  0  0  0  0  0  0  0
   57.9461   28.2302   44.4426 H   0  0  0  0  0  0  0  0  0  0  0  0
   59.6663   27.6209   44.3179 H   0  0  0  0  0  0  0  0  0  0  0  0
   58.3090   26.7900   46.1620 H   0  0  0  0  0  0  0  0  0  0  0  0
   61.4809   26.0995   45.5926 H   0  0  0  0  0  0  0  0  0  0  0  0
   61.3183   25.5569   47.3071 H   0  0  0  0  0  0  0  0  0  0  0  0
   59.5148   25.0488   44.9380 H   0  0  0  0  0  0  0  0  0  0  0  0
   60.0626   23.9360   46.2589 H   0  0  0  0  0  0  0  0  0  0  0  0
   56.0322   22.9050   47.2422 H   0  0  0  0  0  0  0  0  0  0  0  0
   55.5669   20.5349   46.6143 H   0  0  0  0  0  0  0  0  0  0  0  0
   55.7902   18.7692   45.0793 H   0  0  0  0  0  0  0  0  0  0  0  0
   54.9732   19.3068   43.5725 H   0  0  0  0  0  0  0  0  0  0  0  0
   56.7420   18.9938   43.5725 H   0  0  0  0  0  0  0  0  0  0  0  0
   56.8452   21.3602   42.5595 H   0  0  0  0  0  0  0  0  0  0  0  0
   57.3245   23.7248   43.1931 H   0  0  0  0  0  0  0  0  0  0  0  0
   57.0983   28.6441   46.8358 H   0  0  0  0  0  0  0  0  0  0  0  0
   58.1933   28.1147   48.1842 H   0  0  0  0  0  0  0  0  0  0  0  0
   58.1198   30.6087   47.8546 H   0  0  0  0  0  0  0  0  0  0  0  0
   59.7591   29.8911   47.6945 H   0  0  0  0  0  0  0  0  0  0  0  0
  1  2  1  0
  2  3  1  0
  3  4  2  0
  4  5  1  0
  5  6  2  0
  6  7  1  0
  7  8  2  0
  8  9  1  0
  9 10  1  0
 10 11  1  0
 11 12  1  0
 12 13  1  0
 13 14  2  0
 13 15  1  0
 15 16  1  0
 16 17  1  0
 17 18  1  0
 18 19  2  0
 18 20  2  0
 18 21  1  0
 21 22  2  0
 22 23  1  0
 23 24  2  0
 24 25  1  0
 24 26  1  0
 26 27  2  0
 12 28  1  0
 28 29  1  0
  8  3  1  0
 29  9  1  0
 27 21  1  0
  1 30  1  0
  1 31  1  0
  1 32  1  0
  4 33  1  0
  5 34  1  0
  6 35  1  0
  7 36  1  0
 10 37  1  0
 10 38  1  0
 11 39  1  0
 11 40  1  0
 12 41  1  0
 15 42  1  0
 15 43  1  0
 16 44  1  0
 16 45  1  0
 22 46  1  0
 23 47  1  0
 25 48  1  0
 25 49  1  0
 25 50  1  0
 26 51  1  0
 27 52  1  0
 28 53  1  0
 28 54  1  0
 29 55  1  0
 29 56  1  0
M  CHG  2  12   1  17  -1
M  END
>  <UniqueID>  (44) 
39

>  <SMILES>  (44) 
COc1ccccc1N1CC[NH+](C(=O)CC[N-]S(=O)(=O)c2ccc(C)cc2)CC1

>  <Energy>  (44) 
62.45628941712804

>  <Genealogy>  (44) 
COc1ccccc1N1CC[NH+](C(=O)CC[N-]S(=O)(=O)c2ccc(C)cc2)CC1 (protonated)
COc1ccccc1N1CC[NH+](C(=O)CC[N-]S(=O)(=O)c2ccc(C)cc2)CC1 (3D coordinates assigned)
COc1ccccc1N1CC[NH+](C(=O)CC[N-]S(=O)(=O)c2ccc(C)cc2)CC1 (nonaromatic ring conformer: 62.45628941712804 kcal/mol)

>  <smiles>  (44) 
COc1ccccc1N1CCN(C(=O)CCNS(=O)(=O)c2ccc(C)cc2)CC1

>  <score_type>  (44) 
oracle

>  <origin>  (44) 
adg

>  <m_score__min__energy>  (44) 
-8.4299999999999997

>  <m_primary>  (44) 
energy

$$$$
44:0
     RDKit          3D

 57 61  0  0  0  0  0  0  0  0999 V2000
   60.8580   30.5000   49.9630 C   0  0  0  0  0  0  0  0  0  0  0  0
   61.0700   30.4110   48.5600 O   0  0  0  0  0  0  0  0  0  0  0  0
   60.0540   30.6630   47.6370 C   0  0  0  0  0  0  0  0  0  0  0  0
   59.8150   31.9930   47.2280 C   0  0  0  0  0  0  0  0  0  0  0  0
   60.7080   33.0640   47.5980 N   0  0  0  0  0  0  0  0  0  0  0  0
   61.7680   33.4940   46.6790 C   0  0  0  0  0  0  0  0  0  0  0  0
   63.1300   33.3340   47.3550 C   0  0  0  0  0  0  0  0  0  0  0  0
   63.1960   34.0930   48.7050 C   0  0  0  0  0  0  0  0  0  0  0  0
   63.9880   33.3730   49.7170 N   0  0  0  0  0  0  0  0  0  0  0  0
   64.5660   32.0530   49.4520 C   0  0  0  0  0  0  0  0  0  0  0  0
   65.4930   31.7320   50.6450 C   0  0  0  0  0  0  0  0  0  0  0  0
   65.3580   32.9240   51.5180 C   0  0  0  0  0  0  0  0  0  0  0  0
   65.9680   33.1460   52.7520 C   0  0  0  0  0  0  0  0  0  0  0  0
   65.6710   34.3300   53.4460 C   0  0  0  0  0  0  0  0  0  0  0  0
   66.2560   34.5770   54.6450 F   0  0  0  0  0  0  0  0  0  0  0  0
   64.7580   35.2530   52.9050 C   0  0  0  0  0  0  0  0  0  0  0  0
   64.1570   35.0090   51.6620 C   0  0  0  0  0  0  0  0  0  0  0  0
   64.4920   33.8360   50.9690 C   0  0  0  0  0  0  0  0  0  0  0  0
   61.8250   34.5520   49.2700 C   0  0  0  0  0  0  0  0  0  0  0  0
   60.6540   33.6020   48.9680 C   0  0  0  0  0  0  0  0  0  0  0  0
   58.7150   32.2670   46.4120 C   0  0  0  0  0  0  0  0  0  0  0  0
   57.8970   31.2690   46.0100 N   0  0  0  0  0  0  0  0  0  0  0  0
   58.1170   29.9700   46.3390 C   0  0  0  0  0  0  0  0  0  0  0  0
   57.2230   28.9920   45.8950 C   0  0  0  0  0  0  0  0  0  0  0  0
   56.2230   29.3360   45.2060 O   0  0  0  0  0  0  0  0  0  0  0  0
   57.4390   27.6450   46.2220 C   0  0  0  0  0  0  0  0  0  0  0  0
   56.5120   26.5650   45.7890 C   0  0  0  0  0  0  0  0  0  0  0  0
   56.9460   25.5250   45.2240 O   0  0  0  0  0  0  0  0  0  0  0  0
   55.1420   26.6830   46.0080 O   0  0  0  0  0  0  0  0  0  0  0  0
   58.5790   27.3150   46.9680 C   0  0  0  0  0  0  0  0  0  0  0  0
   59.4720   28.2660   47.3870 N   0  0  0  0  0  0  0  0  0  0  0  0
   60.6790   27.7840   48.0790 C   0  0  0  0  0  0  0  0  0  0  0  0
   59.2380   29.6060   47.1310 C   0  0  0  0  0  0  0  0  0  0  0  0
   61.7470   30.1268   50.4926 H   0  0  0  0  0  0  0  0  0  0  0  0
   60.6792   31.5492   50.2410 H   0  0  0  0  0  0  0  0  0  0  0  0
   59.9838   29.8929   50.2410 H   0  0  0  0  0  0  0  0  0  0  0  0
   61.7362   32.8766   45.7692 H   0  0  0  0  0  0  0  0  0  0  0  0
   61.6143   34.5503   46.4132 H   0  0  0  0  0  0  0  0  0  0  0  0
   63.3130   32.2649   47.5384 H   0  0  0  0  0  0  0  0  0  0  0  0
   63.8947   33.7574   46.6872 H   0  0  0  0  0  0  0  0  0  0  0  0
   63.7259   35.0251   48.4591 H   0  0  0  0  0  0  0  0  0  0  0  0
   63.7697   31.2979   49.3757 H   0  0  0  0  0  0  0  0  0  0  0  0
   65.1223   32.0458   48.5031 H   0  0  0  0  0  0  0  0  0  0  0  0
   65.1613   30.8224   51.1672 H   0  0  0  0  0  0  0  0  0  0  0  0
   66.5323   31.5390   50.3406 H   0  0  0  0  0  0  0  0  0  0  0  0
   66.6675   32.4088   53.1732 H   0  0  0  0  0  0  0  0  0  0  0  0
   64.5142   36.1710   53.4599 H   0  0  0  0  0  0  0  0  0  0  0  0
   63.4364   35.7238   51.2381 H   0  0  0  0  0  0  0  0  0  0  0  0
   61.9182   34.6443   50.3622 H   0  0  0  0  0  0  0  0  0  0  0  0
   61.5879   35.5045   48.7734 H   0  0  0  0  0  0  0  0  0  0  0  0
   60.6870   32.7631   49.6788 H   0  0  0  0  0  0  0  0  0  0  0  0
   59.7212   34.1766   49.0667 H   0  0  0  0  0  0  0  0  0  0  0  0
   58.5133   33.3008   46.0948 H   0  0  0  0  0  0  0  0  0  0  0  0
   58.7621   26.2612   47.2247 H   0  0  0  0  0  0  0  0  0  0  0  0
   60.5269   27.8447   49.1667 H   0  0  0  0  0  0  0  0  0  0  0  0
   60.8728   26.7395   47.7936 H   0  0  0  0  0  0  0  0  0  0  0  0
   61.5390   28.4077   47.7936 H   0  0  0  0  0  0  0  0  0  0  0  0
  1  2  1  0
  2  3  1  0
  3  4  2  0
  4  5  1  0
  5  6  1  0
  6  7  1  0
  7  8  1  0
  8  9  1  0
  9 10  1  0
 10 11  1  0
 11 12  1  0
 12 13  2  0
 13 14  1  0
 14 15  1  0
 14 16  2  0
 16 17  1  0
 17 18  2  0
  8 19  1  0
 19 20  1  0
  4 21  1  0
 21 22  2  0
 22 23  1  0
 23 24  1  0
 24 25  2  0
 24 26  1  0
 26 27  1  0
 27 28  2  0
 27 29  1  0
 26 30  2  0
 30 31  1  0
 31 32  1  0
 31 33  1  0
 33  3  1  0
 20  5  1  0
 33 23  2  0
 18  9  1  0
 18 12  1  0
  1 34  1  0
  1 35  1  0
  1 36  1  0
  6 37  1  0
  6 38  1  0
  7 39  1  0
  7 40  1  0
  8 41  1  0
 10 42  1  0
 10 43  1  0
 11 44  1  0
 11 45  1  0
 13 46  1  0
 16 47  1  0
 17 48  1  0
 19 49  1  0
 19 50  1  0
 20 51  1  0
 20 52  1  0
 21 53  1  0
 30 54  1  0
 32 55  1  0
 32 56  1  0
 32 57  1  0
M  CHG  1  29  -1
M  END
>  <UniqueID>  (45) 
40

>  <SMILES>  (45) 
COc1c(N2CCC(N3CCc4cc(F)ccc43)CC2)cnc2c(=O)c(C(=O)[O-])cn(C)c12

>  <Energy>  (45) 
105.9864370184983

>  <Genealogy>  (45) 
COc1c(N2CCC(N3CCc4cc(F)ccc43)CC2)cnc2c(=O)c(C(=O)[O-])cn(C)c12 (protonated)
COc1c(N2CCC(N3CCc4cc(F)ccc43)CC2)cnc2c(=O)c(C(=O)[O-])cn(C)c12 (3D coordinates assigned)
COc1c(N2CCC(N3CCc4cc(F)ccc43)CC2)cnc2c(=O)c(C(=O)[O-])cn(C)c12 (nonaromatic ring conformer: 105.9864370184983 kcal/mol)

>  <smiles>  (45) 
COc1c(N2CCC(N3CCc4cc(F)ccc43)CC2)cnc2c(=O)c(C(=O)O)cn(C)c12

>  <score_type>  (45) 
oracle

>  <origin>  (45) 
adg

>  <m_score__min__energy>  (45) 
-10.51

>  <m_primary>  (45) 
energy

$$$$
45:0
     RDKit          3D

 41 43  0  0  0  0  0  0  0  0999 V2000
   60.3960   27.4020   49.4730 C   0  0  0  0  0  0  0  0  0  0  0  0
   60.4620   28.6030   48.6300 N   0  0  0  0  0  0  0  0  0  0  0  0
   61.1240   29.8090   49.1540 C   0  0  0  0  0  0  0  0  0  0  0  0
   60.6800   31.0210   48.3820 C   0  0  0  0  0  0  0  0  0  0  0  0
   61.5660   31.6810   47.5120 C   0  0  0  0  0  0  0  0  0  0  0  0
   61.1540   32.8240   46.8190 C   0  0  0  0  0  0  0  0  0  0  0  0
   59.8550   33.3170   46.9880 C   0  0  0  0  0  0  0  0  0  0  0  0
   59.2910   34.8730   46.0350 Br  0  0  0  0  0  0  0  0  0  0  0  0
   58.9710   32.6690   47.8570 C   0  0  0  0  0  0  0  0  0  0  0  0
   59.3820   31.5280   48.5540 C   0  0  0  0  0  0  0  0  0  0  0  0
   59.9230   28.6020   47.2830 C   0  0  0  0  0  0  0  0  0  0  0  0
   58.5390   28.5380   47.0390 C   0  0  0  0  0  0  0  0  0  0  0  0
   58.0790   28.5410   45.7140 C   0  0  0  0  0  0  0  0  0  0  0  0
   56.6380   28.4830   45.4000 C   0  0  0  0  0  0  0  0  0  0  0  0
   55.9930   27.4310   45.6540 O   0  0  0  0  0  0  0  0  0  0  0  0
   55.9910   29.5970   44.7660 N   0  0  0  0  0  0  0  0  0  0  0  0
   56.6250   30.6690   44.0510 C   0  0  0  0  0  0  0  0  0  0  0  0
   56.5950   30.6460   42.6500 C   0  0  0  0  0  0  0  0  0  0  0  0
   57.2190   31.6580   41.9130 C   0  0  0  0  0  0  0  0  0  0  0  0
   57.8890   32.6920   42.5710 C   0  0  0  0  0  0  0  0  0  0  0  0
   57.9460   32.7110   43.9680 C   0  0  0  0  0  0  0  0  0  0  0  0
   57.3270   31.6980   44.7080 C   0  0  0  0  0  0  0  0  0  0  0  0
   58.9800   28.6040   44.6970 N   0  0  0  0  0  0  0  0  0  0  0  0
   60.3120   28.6660   44.9410 C   0  0  0  0  0  0  0  0  0  0  0  0
   60.7690   28.6660   46.2190 N   0  0  0  0  0  0  0  0  0  0  0  0
   60.4122   27.6965   50.5327 H   0  0  0  0  0  0  0  0  0  0  0  0
   59.4664   26.8543   49.2588 H   0  0  0  0  0  0  0  0  0  0  0  0
   61.2600   26.7557   49.2588 H   0  0  0  0  0  0  0  0  0  0  0  0
   60.8605   29.9367   50.2143 H   0  0  0  0  0  0  0  0  0  0  0  0
   62.2131   29.6953   49.0493 H   0  0  0  0  0  0  0  0  0  0  0  0
   62.5876   31.2967   47.3758 H   0  0  0  0  0  0  0  0  0  0  0  0
   61.8519   33.3361   46.1402 H   0  0  0  0  0  0  0  0  0  0  0  0
   57.9508   33.0574   47.9925 H   0  0  0  0  0  0  0  0  0  0  0  0
   58.6847   31.0253   49.2404 H   0  0  0  0  0  0  0  0  0  0  0  0
   57.8272   28.4863   47.8761 H   0  0  0  0  0  0  0  0  0  0  0  0
   56.0780   29.8278   42.1272 H   0  0  0  0  0  0  0  0  0  0  0  0
   57.1820   31.6395   40.8138 H   0  0  0  0  0  0  0  0  0  0  0  0
   58.3719   33.4916   41.9901 H   0  0  0  0  0  0  0  0  0  0  0  0
   58.4779   33.5230   44.4854 H   0  0  0  0  0  0  0  0  0  0  0  0
   57.3888   31.7052   45.8062 H   0  0  0  0  0  0  0  0  0  0  0  0
   61.0227   28.7163   44.1029 H   0  0  0  0  0  0  0  0  0  0  0  0
  1  2  1  0
  2  3  1  0
  3  4  1  0
  4  5  2  0
  5  6  1  0
  6  7  2  0
  7  8  1  0
  7  9  1  0
  9 10  2  0
  2 11  1  0
 11 12  2  0
 12 13  1  0
 13 14  1  0
 14 15  2  0
 14 16  1  0
 16 17  1  0
 17 18  2  0
 18 19  1  0
 19 20  2  0
 20 21  1  0
 21 22  2  0
 13 23  2  0
 23 24  1  0
 24 25  2  0
 10  4  1  0
 25 11  1  0
 22 17  1  0
  1 26  1  0
  1 27  1  0
  1 28  1  0
  3 29  1  0
  3 30  1  0
  5 31  1  0
  6 32  1  0
  9 33  1  0
 10 34  1  0
 12 35  1  0
 18 36  1  0
 19 37  1  0
 20 38  1  0
 21 39  1  0
 22 40  1  0
 24 41  1  0
M  CHG  1  16  -1
M  END
>  <UniqueID>  (46) 
41

>  <SMILES>  (46) 
CN(Cc1ccc(Br)cc1)c1cc(C(=O)[N-]c2ccccc2)ncn1

>  <Energy>  (46) 
47.035154526171766

>  <Genealogy>  (46) 
CN(Cc1ccc(Br)cc1)c1cc(C(=O)[N-]c2ccccc2)ncn1 (protonated)
CN(Cc1ccc(Br)cc1)c1cc(C(=O)[N-]c2ccccc2)ncn1 (3D coordinates assigned)
CN(Cc1ccc(Br)cc1)c1cc(C(=O)[N-]c2ccccc2)ncn1 (optimized conformer: 47.035154526171766 kcal/mol)

>  <smiles>  (46) 
CN(Cc1ccc(Br)cc1)c1cc(C(=O)Nc2ccccc2)ncn1

>  <score_type>  (46) 
oracle

>  <origin>  (46) 
adg

>  <m_score__min__energy>  (46) 
-10.27

>  <m_primary>  (46) 
energy

$$$$
46:0
     RDKit          3D

 47 48  0  0  0  0  0  0  0  0999 V2000
   59.6110   34.4130   49.0510 C   0  0  0  0  0  0  0  0  0  0  0  0
   59.3740   33.0840   48.3650 C   0  0  0  0  0  0  0  0  0  0  0  0
   59.7380   32.9120   46.9340 C   0  0  0  0  0  0  0  0  0  0  0  0
   59.5310   33.8560   46.0080 C   0  0  0  0  0  0  0  0  0  0  0  0
   58.2470   33.9350   45.2850 C   0  0  0  0  0  0  0  0  0  0  0  0
   58.0250   33.3890   44.0800 C   0  0  0  0  0  0  0  0  0  0  0  0
   57.3820   32.0820   43.8430 C   0  0  0  0  0  0  0  0  0  0  0  0
   57.2450   31.5490   42.5490 C   0  0  0  0  0  0  0  0  0  0  0  0
   56.6700   30.2870   42.3850 C   0  0  0  0  0  0  0  0  0  0  0  0
   56.2590   29.5600   43.5020 C   0  0  0  0  0  0  0  0  0  0  0  0
   56.4400   30.1040   44.7750 C   0  0  0  0  0  0  0  0  0  0  0  0
   56.9990   31.3360   44.9150 N   0  0  0  0  0  0  0  0  0  0  0  0
   58.8610   32.0220   49.0190 C   0  0  0  0  0  0  0  0  0  0  0  0
   59.4510   30.6700   49.0330 C   0  0  0  0  0  0  0  0  0  0  0  0
   59.1430   29.8830   49.9700 O   0  0  0  0  0  0  0  0  0  0  0  0
   60.4190   30.2700   48.0520 N   0  0  0  0  0  0  0  0  0  0  0  0
   60.8480   28.8790   47.9280 C   0  0  0  0  0  0  0  0  0  0  0  0
   59.7170   28.0210   47.4310 C   0  0  0  0  0  0  0  0  0  0  0  0
   58.5980   28.6050   46.8180 C   0  0  0  0  0  0  0  0  0  0  0  0
   57.5300   27.8080   46.3960 C   0  0  0  0  0  0  0  0  0  0  0  0
   57.5610   26.4210   46.5950 C   0  0  0  0  0  0  0  0  0  0  0  0
   56.2220   25.4190   46.0520 S   0  0  0  0  0  0  0  0  0  0  0  0
   54.7710   26.3570   46.0450 N   0  0  0  0  0  0  0  0  0  0  0  0
   56.4960   24.9060   44.6650 O   0  0  0  0  0  0  0  0  0  0  0  0
   56.0570   24.2450   46.9770 O   0  0  0  0  0  0  0  0  0  0  0  0
   58.6750   25.8370   47.2150 C   0  0  0  0  0  0  0  0  0  0  0  0
   59.7430   26.6330   47.6380 C   0  0  0  0  0  0  0  0  0  0  0  0
   59.5859   34.2723   50.1417 H   0  0  0  0  0  0  0  0  0  0  0  0
   60.5938   34.8084   48.7548 H   0  0  0  0  0  0  0  0  0  0  0  0
   58.8254   35.1237   48.7548 H   0  0  0  0  0  0  0  0  0  0  0  0
   60.1995   31.9637   46.6212 H   0  0  0  0  0  0  0  0  0  0  0  0
   60.3270   34.5812   45.7834 H   0  0  0  0  0  0  0  0  0  0  0  0
   57.4186   34.4765   45.7651 H   0  0  0  0  0  0  0  0  0  0  0  0
   58.3481   33.9613   43.1979 H   0  0  0  0  0  0  0  0  0  0  0  0
   57.5876   32.1208   41.6740 H   0  0  0  0  0  0  0  0  0  0  0  0
   56.5414   29.8670   41.3765 H   0  0  0  0  0  0  0  0  0  0  0  0
   55.7973   28.5689   43.3813 H   0  0  0  0  0  0  0  0  0  0  0  0
   56.1305   29.5362   45.6648 H   0  0  0  0  0  0  0  0  0  0  0  0
   57.9309   32.1758   49.5857 H   0  0  0  0  0  0  0  0  0  0  0  0
   60.8420   31.0000   47.4370 H   0  0  0  0  0  0  0  0  0  0  0  0
   61.6858   28.8206   47.2176 H   0  0  0  0  0  0  0  0  0  0  0  0
   61.1630   28.5145   48.9169 H   0  0  0  0  0  0  0  0  0  0  0  0
   58.5611   29.6942   46.6690 H   0  0  0  0  0  0  0  0  0  0  0  0
   56.6613   28.2715   45.9055 H   0  0  0  0  0  0  0  0  0  0  0  0
   54.3040   26.1880   45.1250 H   0  0  0  0  0  0  0  0  0  0  0  0
   58.7084   24.7483   47.3690 H   0  0  0  0  0  0  0  0  0  0  0  0
   60.6078   26.1697   48.1354 H   0  0  0  0  0  0  0  0  0  0  0  0
  1  2  1  0
  2  3  1  0
  3  4  2  3
  4  5  1  0
  5  6  2  3
  6  7  1  0
  7  8  2  0
  8  9  1  0
  9 10  2  0
 10 11  1  0
 11 12  2  0
  2 13  2  3
 13 14  1  0
 14 15  2  0
 14 16  1  0
 16 17  1  0
 17 18  1  0
 18 19  2  0
 19 20  1  0
 20 21  2  0
 21 22  1  0
 22 23  1  0
 22 24  2  0
 22 25  2  0
 21 26  1  0
 26 27  2  0
 12  7  1  0
 27 18  1  0
  1 28  1  0
  1 29  1  0
  1 30  1  0
  3 31  1  0
  4 32  1  0
  5 33  1  0
  6 34  1  0
  8 35  1  0
  9 36  1  0
 10 37  1  0
 11 38  1  0
 13 39  1  0
 16 40  1  0
 17 41  1  0
 17 42  1  0
 19 43  1  0
 20 44  1  0
 23 45  1  0
 26 46  1  0
 27 47  1  0
M  CHG  1  23  -1
M  END
>  <UniqueID>  (47) 
42

>  <SMILES>  (47) 
CC(C=CC=Cc1ccccn1)=CC(=O)NCc1ccc(S([NH-])(=O)=O)cc1

>  <Energy>  (47) 
54.90526647683278

>  <Genealogy>  (47) 
CC(C=CC=Cc1ccccn1)=CC(=O)NCc1ccc(S([NH-])(=O)=O)cc1 (protonated)
CC(C=CC=Cc1ccccn1)=CC(=O)NCc1ccc(S([NH-])(=O)=O)cc1 (3D coordinates assigned)
CC(C=CC=Cc1ccccn1)=CC(=O)NCc1ccc(S([NH-])(=O)=O)cc1 (optimized conformer: 54.90526647683278 kcal/mol)

>  <smiles>  (47) 
CC(C=CC=Cc1ccccn1)=CC(=O)NCc1ccc(S(N)(=O)=O)cc1

>  <score_type>  (47) 
oracle

>  <origin>  (47) 
adg

>  <m_score__min__energy>  (47) 
-11.130000000000001

>  <m_primary>  (47) 
energy

$$$$
47:0
     RDKit          3D

 36 38  0  0  0  0  0  0  0  0999 V2000
   56.3040   30.1370   44.8630 O   0  0  0  0  0  0  0  0  0  0  0  0
   57.5290   30.3610   45.0640 C   0  0  0  0  0  0  0  0  0  0  0  0
   58.4700   29.2700   45.0620 N   0  0  0  0  0  0  0  0  0  0  0  0
   58.1220   27.9140   44.7320 C   0  0  0  0  0  0  0  0  0  0  0  0
   58.1330   27.5090   43.3890 C   0  0  0  0  0  0  0  0  0  0  0  0
   57.7740   26.2030   43.0400 C   0  0  0  0  0  0  0  0  0  0  0  0
   57.3830   25.2970   44.0290 C   0  0  0  0  0  0  0  0  0  0  0  0
   57.3430   25.6980   45.3670 C   0  0  0  0  0  0  0  0  0  0  0  0
   57.7020   27.0030   45.7200 C   0  0  0  0  0  0  0  0  0  0  0  0
   57.9710   31.7550   45.3080 C   0  0  0  0  0  0  0  0  0  0  0  0
   57.3750   32.8400   44.6400 C   0  0  0  0  0  0  0  0  0  0  0  0
   57.8150   34.1430   44.8790 C   0  0  0  0  0  0  0  0  0  0  0  0
   58.8550   34.3830   45.7780 C   0  0  0  0  0  0  0  0  0  0  0  0
   59.4750   33.3170   46.4490 C   0  0  0  0  0  0  0  0  0  0  0  0
   60.5840   33.5700   47.4040 C   0  0  0  0  0  0  0  0  0  0  0  0
   60.3130   33.9650   48.7270 C   0  0  0  0  0  0  0  0  0  0  0  0
   61.3570   34.2030   49.6240 C   0  0  0  0  0  0  0  0  0  0  0  0
   62.6840   34.0500   49.2130 C   0  0  0  0  0  0  0  0  0  0  0  0
   63.6940   34.2830   50.0860 F   0  0  0  0  0  0  0  0  0  0  0  0
   62.9670   33.6580   47.9020 C   0  0  0  0  0  0  0  0  0  0  0  0
   64.2530   33.5040   47.5010 F   0  0  0  0  0  0  0  0  0  0  0  0
   61.9230   33.4190   47.0010 C   0  0  0  0  0  0  0  0  0  0  0  0
   59.0280   32.0040   46.2040 C   0  0  0  0  0  0  0  0  0  0  0  0
   59.4540   29.4440   45.3610 H   0  0  0  0  0  0  0  0  0  0  0  0
   58.4259   28.2231   42.6053 H   0  0  0  0  0  0  0  0  0  0  0  0
   57.7995   25.8890   41.9861 H   0  0  0  0  0  0  0  0  0  0  0  0
   57.1067   24.2683   43.7545 H   0  0  0  0  0  0  0  0  0  0  0  0
   57.0285   24.9859   46.1442 H   0  0  0  0  0  0  0  0  0  0  0  0
   57.6561   27.3185   46.7728 H   0  0  0  0  0  0  0  0  0  0  0  0
   56.5580   32.6608   43.9256 H   0  0  0  0  0  0  0  0  0  0  0  0
   57.3392   34.9855   44.3557 H   0  0  0  0  0  0  0  0  0  0  0  0
   59.1912   35.4141   45.9621 H   0  0  0  0  0  0  0  0  0  0  0  0
   59.2710   34.0873   49.0575 H   0  0  0  0  0  0  0  0  0  0  0  0
   61.1342   34.5115   50.6561 H   0  0  0  0  0  0  0  0  0  0  0  0
   62.1514   33.1108   45.9701 H   0  0  0  0  0  0  0  0  0  0  0  0
   59.5115   31.1614   46.7199 H   0  0  0  0  0  0  0  0  0  0  0  0
  1  2  2  0
  2  3  1  0
  3  4  1  0
  4  5  2  0
  5  6  1  0
  6  7  2  0
  7  8  1  0
  8  9  2  0
  2 10  1  0
 10 11  2  0
 11 12  1  0
 12 13  2  0
 13 14  1  0
 14 15  1  0
 15 16  2  0
 16 17  1  0
 17 18  2  0
 18 19  1  0
 18 20  1  0
 20 21  1  0
 20 22  2  0
 14 23  2  0
  9  4  1  0
 23 10  1  0
 22 15  1  0
  3 24  1  0
  5 25  1  0
  6 26  1  0
  7 27  1  0
  8 28  1  0
  9 29  1  0
 11 30  1  0
 12 31  1  0
 13 32  1  0
 16 33  1  0
 17 34  1  0
 22 35  1  0
 23 36  1  0
M  END
>  <UniqueID>  (48) 
43

>  <SMILES>  (48) 
O=C(Nc1ccccc1)c1cccc(-c2ccc(F)c(F)c2)c1

>  <Energy>  (48) 
51.46244616132264

>  <Genealogy>  (48) 
O=C(Nc1ccccc1)c1cccc(-c2ccc(F)c(F)c2)c1 (3D coordinates assigned)
O=C(Nc1ccccc1)c1cccc(-c2ccc(F)c(F)c2)c1 (optimized conformer: 51.46244616132264 kcal/mol)

>  <smiles>  (48) 
O=C(Nc1ccccc1)c1cccc(-c2ccc(F)c(F)c2)c1

>  <score_type>  (48) 
oracle

>  <origin>  (48) 
adg

>  <m_score__min__energy>  (48) 
-8.0899999999999999

>  <m_primary>  (48) 
energy

$$$$
48:0
     RDKit          3D

 55 59  0  0  0  0  0  0  0  0999 V2000
   55.4480   29.9740   44.4760 O   0  0  0  0  0  0  0  0  0  0  0  0
   56.6230   29.7560   44.8670 C   0  0  0  0  0  0  0  0  0  0  0  0
   57.0900   28.4040   44.9270 N   0  0  0  0  0  0  0  0  0  0  0  0
   57.0190   27.5520   46.1070 C   0  0  0  0  0  0  0  0  0  0  0  0
   56.8670   26.1200   45.6800 C   0  0  0  0  0  0  0  0  0  0  0  0
   57.9920   25.3830   45.2750 C   0  0  0  0  0  0  0  0  0  0  0  0
   57.8520   24.0600   44.8440 C   0  0  0  0  0  0  0  0  0  0  0  0
   56.5870   23.4670   44.8040 C   0  0  0  0  0  0  0  0  0  0  0  0
   55.4610   24.1970   45.1900 C   0  0  0  0  0  0  0  0  0  0  0  0
   55.5940   25.5220   45.6200 C   0  0  0  0  0  0  0  0  0  0  0  0
   54.4860   26.2190   45.9760 F   0  0  0  0  0  0  0  0  0  0  0  0
   57.4810   30.8970   45.2420 C   0  0  0  0  0  0  0  0  0  0  0  0
   57.1420   32.2360   45.0480 C   0  0  0  0  0  0  0  0  0  0  0  0
   58.2370   32.9510   45.4760 C   0  0  0  0  0  0  0  0  0  0  0  0
   58.4810   34.3190   45.5060 C   0  0  0  0  0  0  0  0  0  0  0  0
   59.7280   34.7440   45.9940 C   0  0  0  0  0  0  0  0  0  0  0  0
   60.6770   33.7890   46.4230 C   0  0  0  0  0  0  0  0  0  0  0  0
   60.3910   32.4520   46.3700 N   0  0  0  0  0  0  0  0  0  0  0  0
   59.1770   32.0530   45.8990 C   0  0  0  0  0  0  0  0  0  0  0  0
   58.7340   30.7860   45.7660 N   0  0  0  0  0  0  0  0  0  0  0  0
   59.4600   29.5590   46.1080 C   0  0  0  0  0  0  0  0  0  0  0  0
   59.5490   29.3940   47.6270 C   0  0  0  0  0  0  0  0  0  0  0  0
   60.6030   30.1980   48.1590 O   0  0  0  0  0  0  0  0  0  0  0  0
   60.4470   31.3220   48.9920 C   0  0  0  0  0  0  0  0  0  0  0  0
   59.2170   31.6310   49.6030 C   0  0  0  0  0  0  0  0  0  0  0  0
   59.0920   32.7530   50.4240 C   0  0  0  0  0  0  0  0  0  0  0  0
   60.1880   33.5840   50.6550 C   0  0  0  0  0  0  0  0  0  0  0  0
   61.4250   33.2960   50.0640 C   0  0  0  0  0  0  0  0  0  0  0  0
   62.5310   34.1280   50.2980 C   0  0  0  0  0  0  0  0  0  0  0  0
   63.7640   33.8410   49.7080 C   0  0  0  0  0  0  0  0  0  0  0  0
   63.9030   32.7240   48.8830 C   0  0  0  0  0  0  0  0  0  0  0  0
   62.8120   31.8850   48.6420 C   0  0  0  0  0  0  0  0  0  0  0  0
   61.5610   32.1580   49.2280 C   0  0  0  0  0  0  0  0  0  0  0  0
   57.9413   27.6634   46.6961 H   0  0  0  0  0  0  0  0  0  0  0  0
   56.1550   27.8460   46.7210 H   0  0  0  0  0  0  0  0  0  0  0  0
   58.9883   25.8488   45.2970 H   0  0  0  0  0  0  0  0  0  0  0  0
   58.7382   23.4856   44.5362 H   0  0  0  0  0  0  0  0  0  0  0  0
   56.4784   22.4251   44.4684 H   0  0  0  0  0  0  0  0  0  0  0  0
   54.4661   23.7290   45.1560 H   0  0  0  0  0  0  0  0  0  0  0  0
   56.2013   32.6348   44.6404 H   0  0  0  0  0  0  0  0  0  0  0  0
   57.7266   35.0413   45.1608 H   0  0  0  0  0  0  0  0  0  0  0  0
   59.9649   35.8171   46.0420 H   0  0  0  0  0  0  0  0  0  0  0  0
   61.6538   34.1232   46.8027 H   0  0  0  0  0  0  0  0  0  0  0  0
   61.1050   31.7590   46.6840 H   0  0  0  0  0  0  0  0  0  0  0  0
   58.9311   28.6944   45.6804 H   0  0  0  0  0  0  0  0  0  0  0  0
   60.4783   29.6221   45.6969 H   0  0  0  0  0  0  0  0  0  0  0  0
   58.5953   29.7018   48.0806 H   0  0  0  0  0  0  0  0  0  0  0  0
   59.7569   28.3387   47.8576 H   0  0  0  0  0  0  0  0  0  0  0  0
   58.3457   30.9818   49.4318 H   0  0  0  0  0  0  0  0  0  0  0  0
   58.1233   32.9831   50.8916 H   0  0  0  0  0  0  0  0  0  0  0  0
   60.0809   34.4669   51.3023 H   0  0  0  0  0  0  0  0  0  0  0  0
   62.4263   35.0090   50.9483 H   0  0  0  0  0  0  0  0  0  0  0  0
   64.6273   34.4968   49.8940 H   0  0  0  0  0  0  0  0  0  0  0  0
   64.8761   32.5030   48.4202 H   0  0  0  0  0  0  0  0  0  0  0  0
   62.9310   31.0064   47.9909 H   0  0  0  0  0  0  0  0  0  0  0  0
  1  2  2  0
  2  3  1  0
  3  4  1  0
  4  5  1  0
  5  6  2  0
  6  7  1  0
  7  8  2  0
  8  9  1  0
  9 10  2  0
 10 11  1  0
  2 12  1  0
 12 13  2  0
 13 14  1  0
 14 15  2  0
 15 16  1  0
 16 17  2  0
 17 18  1  0
 18 19  2  0
 19 20  1  0
 20 21  1  0
 21 22  1  0
 22 23  1  0
 23 24  1  0
 24 25  2  0
 25 26  1  0
 26 27  2  0
 27 28  1  0
 28 29  2  0
 29 30  1  0
 30 31  2  0
 31 32  1  0
 32 33  2  0
 10  5  1  0
 20 12  1  0
 33 24  1  0
 19 14  1  0
 33 28  1  0
  4 34  1  0
  4 35  1  0
  6 36  1  0
  7 37  1  0
  8 38  1  0
  9 39  1  0
 13 40  1  0
 15 41  1  0
 16 42  1  0
 17 43  1  0
 18 44  1  0
 21 45  1  0
 21 46  1  0
 22 47  1  0
 22 48  1  0
 25 49  1  0
 26 50  1  0
 27 51  1  0
 29 52  1  0
 30 53  1  0
 31 54  1  0
 32 55  1  0
M  CHG  2   3  -1  18   1
M  END
>  <UniqueID>  (49) 
44

>  <SMILES>  (49) 
O=C([N-]Cc1ccccc1F)c1cc2ccc[nH+]c2n1CCOc1cccc2ccccc12

>  <Energy>  (49) 
101.49791957823196

>  <Genealogy>  (49) 
O=C([N-]Cc1ccccc1F)c1cc2ccc[nH+]c2n1CCOc1cccc2ccccc12 (protonated)
O=C([N-]Cc1ccccc1F)c1cc2ccc[nH+]c2n1CCOc1cccc2ccccc12 (3D coordinates assigned)
O=C([N-]Cc1ccccc1F)c1cc2ccc[nH+]c2n1CCOc1cccc2ccccc12 (optimized conformer: 101.49791957823196 kcal/mol)

>  <smiles>  (49) 
O=C(NCc1ccccc1F)c1cc2cccnc2n1CCOc1cccc2ccccc12

>  <score_type>  (49) 
oracle

>  <origin>  (49) 
adg

>  <m_score__min__energy>  (49) 
-9.1099999999999994

>  <m_primary>  (49) 
energy

$$$$
49:0
     RDKit          3D

 54 57  0  0  1  0  0  0  0  0999 V2000
   57.3940   32.4210   40.7270 C   0  0  0  0  0  0  0  0  0  0  0  0
   57.7620   31.9470   42.0990 C   0  0  0  0  0  0  0  0  0  0  0  0
   56.8880   30.9870   42.6380 O   0  0  0  0  0  0  0  0  0  0  0  0
   56.6370   30.9050   43.9910 C   0  0  0  0  0  0  0  0  0  0  0  0
   55.7630   30.1590   44.5020 O   0  0  0  0  0  0  0  0  0  0  0  0
   57.4220   31.7250   44.8830 C   0  0  0  0  0  0  0  0  0  0  0  0
   57.2000   33.5020   45.1530 S   0  0  0  0  0  0  0  0  0  0  0  0
   58.5200   33.6220   46.3260 C   0  0  0  0  0  0  0  0  0  0  0  0
   58.9740   34.7000   46.9990 N   0  0  0  0  0  0  0  0  0  0  0  0
   60.0040   34.5880   47.8620 C   0  0  0  0  0  0  0  0  0  0  0  0
   60.5350   33.3620   48.0010 N   0  0  0  0  0  0  0  0  0  0  0  0
   60.1130   32.2700   47.3540 C   0  0  0  0  0  0  0  0  0  0  0  0
   60.7100   31.1560   47.5800 N   0  0  0  0  0  0  0  0  0  0  0  0
   60.8630   30.6640   48.9060 C   0  0  0  0  0  0  0  0  0  0  0  0
   60.0540   29.6100   49.2760 C   0  0  0  0  0  0  0  0  0  0  0  0
   60.1180   29.0560   50.5350 C   0  0  0  0  0  0  0  0  0  0  0  0
   61.0290   29.5970   51.4170 C   0  0  0  0  0  0  0  0  0  0  0  0
   61.8480   30.6680   51.0360 C   0  0  0  0  0  0  0  0  0  0  0  0
   61.7940   31.2280   49.7880 C   0  0  0  0  0  0  0  0  0  0  0  0
   62.5370   32.2620   49.3130 O   0  0  0  0  0  0  0  0  0  0  0  0
   63.7490   32.0940   48.6510 C   0  0  0  0  0  0  0  0  0  0  0  0
   64.9090   32.7250   49.4000 C   0  0  0  0  0  0  0  0  0  0  0  0
   63.5860   32.7360   47.2750 C   0  0  0  0  0  0  0  0  0  0  0  0
   59.0320   32.3650   46.4420 C   0  0  0  0  0  0  0  0  0  0  0  0
   58.4930   31.3760   45.7190 C   0  0  0  0  0  0  0  0  0  0  0  0
   58.9320   29.9510   45.7280 C   0  0  0  0  0  0  0  0  0  0  0  0
   58.2920   29.0180   46.5190 C   0  0  0  0  0  0  0  0  0  0  0  0
   58.7500   27.7270   46.4750 C   0  0  0  0  0  0  0  0  0  0  0  0
   59.8140   27.3360   45.6770 C   0  0  0  0  0  0  0  0  0  0  0  0
   60.4470   28.2790   44.8900 C   0  0  0  0  0  0  0  0  0  0  0  0
   60.0080   29.5960   44.9100 C   0  0  0  0  0  0  0  0  0  0  0  0
   56.7212   33.2876   40.8067 H   0  0  0  0  0  0  0  0  0  0  0  0
   58.3047   32.7126   40.1833 H   0  0  0  0  0  0  0  0  0  0  0  0
   56.8858   31.6110   40.1833 H   0  0  0  0  0  0  0  0  0  0  0  0
   58.7690   31.5068   42.0518 H   0  0  0  0  0  0  0  0  0  0  0  0
   57.7071   32.8255   42.7587 H   0  0  0  0  0  0  0  0  0  0  0  0
   60.3885   35.4534   48.4217 H   0  0  0  0  0  0  0  0  0  0  0  0
   61.3270   33.2680   48.6630 H   0  0  0  0  0  0  0  0  0  0  0  0
   59.3392   29.2014   48.5465 H   0  0  0  0  0  0  0  0  0  0  0  0
   59.4691   28.2165   50.8250 H   0  0  0  0  0  0  0  0  0  0  0  0
   61.1139   29.1827   52.4324 H   0  0  0  0  0  0  0  0  0  0  0  0
   62.5617   31.0744   51.7677 H   0  0  0  0  0  0  0  0  0  0  0  0
   63.9884   31.0231   48.5747 H   0  0  0  0  0  0  0  0  0  0  0  0
   64.7397   32.6329   50.4830 H   0  0  0  0  0  0  0  0  0  0  0  0
   65.8431   32.2107   49.1299 H   0  0  0  0  0  0  0  0  0  0  0  0
   64.9847   33.7886   49.1299 H   0  0  0  0  0  0  0  0  0  0  0  0
   63.3169   33.7959   47.3944 H   0  0  0  0  0  0  0  0  0  0  0  0
   64.5324   32.6583   46.7197 H   0  0  0  0  0  0  0  0  0  0  0  0
   62.7913   32.2163   46.7197 H   0  0  0  0  0  0  0  0  0  0  0  0
   57.4450   29.3005   47.1614 H   0  0  0  0  0  0  0  0  0  0  0  0
   58.2527   26.9697   47.0988 H   0  0  0  0  0  0  0  0  0  0  0  0
   60.1500   26.2886   45.6704 H   0  0  0  0  0  0  0  0  0  0  0  0
   61.2939   27.9879   44.2513 H   0  0  0  0  0  0  0  0  0  0  0  0
   60.5036   30.3546   44.2864 H   0  0  0  0  0  0  0  0  0  0  0  0
  1  2  1  0
  2  3  1  0
  3  4  1  0
  4  5  2  0
  4  6  1  0
  6  7  1  0
  7  8  1  0
  8  9  1  0
  9 10  2  0
 10 11  1  0
 11 12  1  0
 12 13  2  0
 13 14  1  0
 14 15  2  0
 15 16  1  0
 16 17  2  0
 17 18  1  0
 18 19  2  0
 19 20  1  0
 20 21  1  0
 21 22  1  0
 21 23  1  0
 12 24  1  0
 24 25  1  0
 25 26  1  0
 26 27  2  0
 27 28  1  0
 28 29  2  0
 29 30  1  0
 30 31  2  0
 25  6  2  0
 31 26  1  0
 24  8  2  0
 19 14  1  0
  1 32  1  0
  1 33  1  0
  1 34  1  0
  2 35  1  0
  2 36  1  0
 10 37  1  0
 11 38  1  0
 15 39  1  0
 16 40  1  0
 17 41  1  0
 18 42  1  0
 21 43  1  0
 22 44  1  0
 22 45  1  0
 22 46  1  0
 23 47  1  0
 23 48  1  0
 23 49  1  0
 27 50  1  0
 28 51  1  0
 29 52  1  0
 30 53  1  0
 31 54  1  0
M  END
>  <smiles>  (50) 
CCOC(=O)c1sc2nc[nH]c(=Nc3ccccc3OC(C)C)c2c1-c1ccccc1

>  <score_type>  (50) 
oracle

>  <origin>  (50) 
adg

>  <m_score__min__energy>  (50) 
-8.1600000000000001

>  <m_primary>  (50) 
energy

$$$$
50:0
     RDKit          3D

 63 67  0  0  0  0  0  0  0  0999 V2000
   55.3730   29.9270   44.0350 C   0  0  0  0  0  0  0  0  0  0  0  0
   56.8080   29.7780   44.4630 C   0  0  0  0  0  0  0  0  0  0  0  0
   57.2880   28.4920   44.7600 C   0  0  0  0  0  0  0  0  0  0  0  0
   58.5910   28.3090   45.2250 C   0  0  0  0  0  0  0  0  0  0  0  0
   59.4300   29.4080   45.4020 C   0  0  0  0  0  0  0  0  0  0  0  0
   58.9770   30.6900   45.0920 C   0  0  0  0  0  0  0  0  0  0  0  0
   57.6850   30.8870   44.5860 C   0  0  0  0  0  0  0  0  0  0  0  0
   57.2930   32.2250   44.2450 N   0  0  0  0  0  0  0  0  0  0  0  0
   57.4350   33.3860   45.0750 C   0  0  0  0  0  0  0  0  0  0  0  0
   56.6480   34.3530   44.8930 O   0  0  0  0  0  0  0  0  0  0  0  0
   58.4540   33.4740   46.1480 C   0  0  0  0  0  0  0  0  0  0  0  0
   59.6980   34.0870   45.9200 C   0  0  0  0  0  0  0  0  0  0  0  0
   60.6390   34.1850   46.9500 C   0  0  0  0  0  0  0  0  0  0  0  0
   60.3580   33.6560   48.2180 C   0  0  0  0  0  0  0  0  0  0  0  0
   61.3100   33.7820   49.2870 N   0  0  0  0  0  0  0  0  0  0  0  0
   60.8800   33.4640   50.6630 C   0  0  0  0  0  0  0  0  0  0  0  0
   62.0070   33.6310   51.6970 C   0  0  0  0  0  0  0  0  0  0  0  0
   63.3120   33.1110   51.1560 C   0  0  0  0  0  0  0  0  0  0  0  0
   63.6510   33.3960   49.8290 C   0  0  0  0  0  0  0  0  0  0  0  0
   64.8420   32.9810   49.3250 N   0  0  0  0  0  0  0  0  0  0  0  0
   65.7150   32.2810   50.0930 C   0  0  0  0  0  0  0  0  0  0  0  0
   65.4100   31.9960   51.3850 N   0  0  0  0  0  0  0  0  0  0  0  0
   64.2320   32.3990   51.9380 C   0  0  0  0  0  0  0  0  0  0  0  0
   63.9410   32.1040   53.2750 O   0  0  0  0  0  0  0  0  0  0  0  0
   63.3900   30.8600   53.6890 C   0  0  0  0  0  0  0  0  0  0  0  0
   62.9870   30.0480   52.4670 C   0  0  0  0  0  0  0  0  0  0  0  0
   61.5810   30.1580   52.2680 O   0  0  0  0  0  0  0  0  0  0  0  0
   60.9450   30.0450   51.0240 C   0  0  0  0  0  0  0  0  0  0  0  0
   59.5630   29.7990   50.8990 C   0  0  0  0  0  0  0  0  0  0  0  0
   58.9770   29.7040   49.6320 C   0  0  0  0  0  0  0  0  0  0  0  0
   59.7600   29.8530   48.4850 C   0  0  0  0  0  0  0  0  0  0  0  0
   61.1310   30.0920   48.6020 C   0  0  0  0  0  0  0  0  0  0  0  0
   61.7200   30.1880   49.8660 C   0  0  0  0  0  0  0  0  0  0  0  0
   62.6950   34.1820   48.9850 C   0  0  0  0  0  0  0  0  0  0  0  0
   59.1280   33.0190   48.4400 C   0  0  0  0  0  0  0  0  0  0  0  0
   58.1860   32.9240   47.4120 C   0  0  0  0  0  0  0  0  0  0  0  0
   54.7300   29.9938   44.9250 H   0  0  0  0  0  0  0  0  0  0  0  0
   55.2628   30.8414   43.4336 H   0  0  0  0  0  0  0  0  0  0  0  0
   55.0773   29.0547   43.4336 H   0  0  0  0  0  0  0  0  0  0  0  0
   56.6305   27.6205   44.6248 H   0  0  0  0  0  0  0  0  0  0  0  0
   58.9563   27.2966   45.4521 H   0  0  0  0  0  0  0  0  0  0  0  0
   60.4505   29.2639   45.7866 H   0  0  0  0  0  0  0  0  0  0  0  0
   59.6397   31.5543   45.2460 H   0  0  0  0  0  0  0  0  0  0  0  0
   59.9331   34.4924   44.9248 H   0  0  0  0  0  0  0  0  0  0  0  0
   61.6040   34.6793   46.7646 H   0  0  0  0  0  0  0  0  0  0  0  0
   60.0517   34.1345   50.9355 H   0  0  0  0  0  0  0  0  0  0  0  0
   60.5736   32.4076   50.6769 H   0  0  0  0  0  0  0  0  0  0  0  0
   62.1174   34.6980   51.9406 H   0  0  0  0  0  0  0  0  0  0  0  0
   61.7458   33.0569   52.5982 H   0  0  0  0  0  0  0  0  0  0  0  0
   66.6718   31.9438   49.6678 H   0  0  0  0  0  0  0  0  0  0  0  0
   64.1404   30.3019   54.2681 H   0  0  0  0  0  0  0  0  0  0  0  0
   62.5037   31.0432   54.3143 H   0  0  0  0  0  0  0  0  0  0  0  0
   63.5141   30.4320   51.5812 H   0  0  0  0  0  0  0  0  0  0  0  0
   63.2543   28.9924   52.6230 H   0  0  0  0  0  0  0  0  0  0  0  0
   58.9432   29.6813   51.8001 H   0  0  0  0  0  0  0  0  0  0  0  0
   57.8979   29.5117   49.5391 H   0  0  0  0  0  0  0  0  0  0  0  0
   59.2969   29.7821   47.4898 H   0  0  0  0  0  0  0  0  0  0  0  0
   61.7481   30.2048   47.6984 H   0  0  0  0  0  0  0  0  0  0  0  0
   62.8002   30.3773   49.9520 H   0  0  0  0  0  0  0  0  0  0  0  0
   62.8189   35.2543   49.1968 H   0  0  0  0  0  0  0  0  0  0  0  0
   62.9044   33.9847   47.9233 H   0  0  0  0  0  0  0  0  0  0  0  0
   58.9037   32.5920   49.4286 H   0  0  0  0  0  0  0  0  0  0  0  0
   57.2281   32.4149   47.5942 H   0  0  0  0  0  0  0  0  0  0  0  0
  1  2  1  0
  2  3  2  0
  3  4  1  0
  4  5  2  0
  5  6  1  0
  6  7  2  0
  7  8  1  0
  8  9  1  0
  9 10  2  0
  9 11  1  0
 11 12  2  0
 12 13  1  0
 13 14  2  0
 14 15  1  0
 15 16  1  0
 16 17  1  0
 17 18  1  0
 18 19  2  0
 19 20  1  0
 20 21  2  0
 21 22  1  0
 22 23  2  0
 23 24  1  0
 24 25  1  0
 25 26  1  0
 26 27  1  0
 27 28  1  0
 28 29  2  0
 29 30  1  0
 30 31  2  0
 31 32  1  0
 32 33  2  0
 19 34  1  0
 14 35  1  0
 35 36  2  0
  7  2  1  0
 36 11  1  0
 34 15  1  0
 23 18  1  0
 33 28  1  0
  1 37  1  0
  1 38  1  0
  1 39  1  0
  3 40  1  0
  4 41  1  0
  5 42  1  0
  6 43  1  0
 12 44  1  0
 13 45  1  0
 16 46  1  0
 16 47  1  0
 17 48  1  0
 17 49  1  0
 21 50  1  0
 25 51  1  0
 25 52  1  0
 26 53  1  0
 26 54  1  0
 29 55  1  0
 30 56  1  0
 31 57  1  0
 32 58  1  0
 33 59  1  0
 34 60  1  0
 34 61  1  0
 35 62  1  0
 36 63  1  0
M  CHG  1   8  -1
M  END
>  <UniqueID>  (51) 
45

>  <SMILES>  (51) 
Cc1ccccc1[N-]C(=O)c1ccc(N2CCc3c(ncnc3OCCOc3ccccc3)C2)cc1

>  <Energy>  (51) 
82.71377023347479

>  <Genealogy>  (51) 
Cc1ccccc1[N-]C(=O)c1ccc(N2CCc3c(ncnc3OCCOc3ccccc3)C2)cc1 (protonated)
Cc1ccccc1[N-]C(=O)c1ccc(N2CCc3c(ncnc3OCCOc3ccccc3)C2)cc1 (3D coordinates assigned)
Cc1ccccc1[N-]C(=O)c1ccc(N2CCc3c(ncnc3OCCOc3ccccc3)C2)cc1 (nonaromatic ring conformer: 82.71377023347479 kcal/mol)

>  <smiles>  (51) 
Cc1ccccc1NC(=O)c1ccc(N2CCc3c(ncnc3OCCOc3ccccc3)C2)cc1

>  <score_type>  (51) 
oracle

>  <origin>  (51) 
adg

>  <m_score__min__energy>  (51) 
-9.6899999999999995

>  <m_primary>  (51) 
energy

$$$$
51:0
     RDKit          3D

 36 39  0  0  0  0  0  0  0  0999 V2000
   54.7010   24.6340   45.4380 C   0  0  0  0  0  0  0  0  0  0  0  0
   55.0750   25.9950   45.6210 O   0  0  0  0  0  0  0  0  0  0  0  0
   56.3020   26.4180   46.1620 C   0  0  0  0  0  0  0  0  0  0  0  0
   57.1410   25.5410   46.8720 C   0  0  0  0  0  0  0  0  0  0  0  0
   58.3500   25.9890   47.3970 C   0  0  0  0  0  0  0  0  0  0  0  0
   58.7460   27.3220   47.2260 C   0  0  0  0  0  0  0  0  0  0  0  0
   59.9600   27.8050   47.7410 C   0  0  0  0  0  0  0  0  0  0  0  0
   60.7460   27.0480   48.3740 O   0  0  0  0  0  0  0  0  0  0  0  0
   60.3040   29.1420   47.5470 C   0  0  0  0  0  0  0  0  0  0  0  0
   59.4270   29.9780   46.8440 C   0  0  0  0  0  0  0  0  0  0  0  0
   59.7440   31.4030   46.6030 C   0  0  0  0  0  0  0  0  0  0  0  0
   61.0260   31.8860   46.9320 C   0  0  0  0  0  0  0  0  0  0  0  0
   61.3690   33.2300   46.7180 C   0  0  0  0  0  0  0  0  0  0  0  0
   60.4490   34.1210   46.1570 C   0  0  0  0  0  0  0  0  0  0  0  0
   59.1820   33.6600   45.8030 C   0  0  0  0  0  0  0  0  0  0  0  0
   58.2490   34.4590   45.2270 N   0  0  0  0  0  0  0  0  0  0  0  0
   57.0220   33.3700   45.0170 S   0  0  0  0  0  0  0  0  0  0  0  0
   57.5810   31.9320   45.6080 N   0  0  0  0  0  0  0  0  0  0  0  0
   58.8220   32.2970   46.0210 C   0  0  0  0  0  0  0  0  0  0  0  0
   58.2910   29.4820   46.3570 O   0  0  0  0  0  0  0  0  0  0  0  0
   57.9110   28.2170   46.5130 C   0  0  0  0  0  0  0  0  0  0  0  0
   56.6800   27.7590   45.9780 C   0  0  0  0  0  0  0  0  0  0  0  0
   55.7890   28.5790   45.2580 O   0  0  0  0  0  0  0  0  0  0  0  0
   56.1320   29.4940   44.2230 C   0  0  0  0  0  0  0  0  0  0  0  0
   54.5693   24.1548   46.4193 H   0  0  0  0  0  0  0  0  0  0  0  0
   53.7563   24.5856   44.8766 H   0  0  0  0  0  0  0  0  0  0  0  0
   55.4884   24.1097   44.8766 H   0  0  0  0  0  0  0  0  0  0  0  0
   56.8397   24.4926   47.0137 H   0  0  0  0  0  0  0  0  0  0  0  0
   58.9980   25.2925   47.9492 H   0  0  0  0  0  0  0  0  0  0  0  0
   61.2525   29.5356   47.9412 H   0  0  0  0  0  0  0  0  0  0  0  0
   61.7694   31.1993   47.3631 H   0  0  0  0  0  0  0  0  0  0  0  0
   62.3723   33.5862   46.9946 H   0  0  0  0  0  0  0  0  0  0  0  0
   60.7221   35.1744   45.9967 H   0  0  0  0  0  0  0  0  0  0  0  0
   56.4851   30.4358   44.6684 H   0  0  0  0  0  0  0  0  0  0  0  0
   56.9290   29.0614   43.6004 H   0  0  0  0  0  0  0  0  0  0  0  0
   55.2470   29.6919   43.6004 H   0  0  0  0  0  0  0  0  0  0  0  0
  1  2  1  0
  2  3  1  0
  3  4  2  0
  4  5  1  0
  5  6  2  0
  6  7  1  0
  7  8  2  0
  7  9  1  0
  9 10  2  0
 10 11  1  0
 11 12  2  0
 12 13  1  0
 13 14  2  0
 14 15  1  0
 15 16  2  0
 16 17  1  0
 17 18  1  0
 18 19  2  0
 10 20  1  0
 20 21  1  0
 21 22  2  0
 22 23  1  0
 23 24  1  0
 22  3  1  0
 21  6  1  0
 19 11  1  0
 19 15  1  0
  1 25  1  0
  1 26  1  0
  1 27  1  0
  4 28  1  0
  5 29  1  0
  9 30  1  0
 12 31  1  0
 13 32  1  0
 14 33  1  0
 24 34  1  0
 24 35  1  0
 24 36  1  0
M  END
>  <UniqueID>  (52) 
46

>  <SMILES>  (52) 
COc1ccc2c(=O)cc(-c3cccc4nsnc34)oc2c1OC

>  <Energy>  (52) 
89.91108195299913

>  <Genealogy>  (52) 
COc1ccc2c(=O)cc(-c3cccc4nsnc34)oc2c1OC (3D coordinates assigned)
COc1ccc2c(=O)cc(-c3cccc4nsnc34)oc2c1OC (optimized conformer: 89.91108195299913 kcal/mol)

>  <smiles>  (52) 
COc1ccc2c(=O)cc(-c3cccc4nsnc34)oc2c1OC

>  <score_type>  (52) 
oracle

>  <origin>  (52) 
adg

>  <m_score__min__energy>  (52) 
-8.0999999999999996

>  <m_primary>  (52) 
energy

$$$$
52:0
     RDKit          3D

 31 32  0  0  0  0  0  0  0  0999 V2000
   58.5660   24.8730   46.7190 O   0  0  0  0  0  0  0  0  0  0  0  0
   57.5420   25.5840   46.7840 N   0  0  0  0  0  0  0  0  0  0  0  0
   56.4160   25.0580   47.3770 O   0  0  0  0  0  0  0  0  0  0  0  0
   57.5290   26.9290   46.2570 C   0  0  0  0  0  0  0  0  0  0  0  0
   58.7070   27.6970   46.2860 C   0  0  0  0  0  0  0  0  0  0  0  0
   58.7270   29.0070   45.7860 C   0  0  0  0  0  0  0  0  0  0  0  0
   60.0040   29.8010   45.7930 C   0  0  0  0  0  0  0  0  0  0  0  0
   59.7370   31.4010   46.5360 S   0  0  0  0  0  0  0  0  0  0  0  0
   58.8370   31.2660   47.7320 O   0  0  0  0  0  0  0  0  0  0  0  0
   59.0860   32.3240   45.5430 O   0  0  0  0  0  0  0  0  0  0  0  0
   61.2880   32.0680   47.0350 C   0  0  0  0  0  0  0  0  0  0  0  0
   61.6560   33.3640   46.6450 C   0  0  0  0  0  0  0  0  0  0  0  0
   62.8950   33.8870   47.0290 C   0  0  0  0  0  0  0  0  0  0  0  0
   63.7730   33.1160   47.7980 C   0  0  0  0  0  0  0  0  0  0  0  0
   63.4130   31.8210   48.1810 C   0  0  0  0  0  0  0  0  0  0  0  0
   62.1740   31.2960   47.7990 C   0  0  0  0  0  0  0  0  0  0  0  0
   57.5620   29.5520   45.2330 C   0  0  0  0  0  0  0  0  0  0  0  0
   56.3810   28.8040   45.1950 C   0  0  0  0  0  0  0  0  0  0  0  0
   55.2200   29.3510   44.6500 O   0  0  0  0  0  0  0  0  0  0  0  0
   56.3580   27.4990   45.7050 C   0  0  0  0  0  0  0  0  0  0  0  0
   55.1660   26.7830   45.6560 O   0  0  0  0  0  0  0  0  0  0  0  0
   59.6262   27.2636   46.7071 H   0  0  0  0  0  0  0  0  0  0  0  0
   60.7664   29.2563   46.3693 H   0  0  0  0  0  0  0  0  0  0  0  0
   60.3429   29.9411   44.7559 H   0  0  0  0  0  0  0  0  0  0  0  0
   60.9690   33.9701   46.0361 H   0  0  0  0  0  0  0  0  0  0  0  0
   63.1793   34.9055   46.7260 H   0  0  0  0  0  0  0  0  0  0  0  0
   64.7465   33.5288   48.1012 H   0  0  0  0  0  0  0  0  0  0  0  0
   64.1047   31.2140   48.7835 H   0  0  0  0  0  0  0  0  0  0  0  0
   61.8944   30.2752   48.0988 H   0  0  0  0  0  0  0  0  0  0  0  0
   57.5757   30.5739   44.8263 H   0  0  0  0  0  0  0  0  0  0  0  0
   54.3890   28.7910   44.5040 H   0  0  0  0  0  0  0  0  0  0  0  0
  1  2  2  0
  2  3  1  0
  2  4  1  0
  4  5  2  0
  5  6  1  0
  6  7  1  0
  7  8  1  0
  8  9  2  0
  8 10  2  0
  8 11  1  0
 11 12  2  0
 12 13  1  0
 13 14  2  0
 14 15  1  0
 15 16  2  0
  6 17  2  0
 17 18  1  0
 18 19  1  0
 18 20  2  0
 20 21  1  0
 20  4  1  0
 16 11  1  0
  5 22  1  0
  7 23  1  0
  7 24  1  0
 12 25  1  0
 13 26  1  0
 14 27  1  0
 15 28  1  0
 16 29  1  0
 17 30  1  0
 19 31  1  0
M  CHG  3   2   1   3  -1  21  -1
M  END
>  <UniqueID>  (53) 
47

>  <SMILES>  (53) 
O=[N+]([O-])c1cc(CS(=O)(=O)c2ccccc2)cc(O)c1[O-]

>  <Energy>  (53) 
31.299440093207096

>  <Genealogy>  (53) 
O=[N+]([O-])c1cc(CS(=O)(=O)c2ccccc2)cc(O)c1[O-] (protonated)
O=[N+]([O-])c1cc(CS(=O)(=O)c2ccccc2)cc(O)c1[O-] (3D coordinates assigned)
O=[N+]([O-])c1cc(CS(=O)(=O)c2ccccc2)cc(O)c1[O-] (optimized conformer: 31.299440093207096 kcal/mol)

>  <smiles>  (53) 
O=[N+]([O-])c1cc(CS(=O)(=O)c2ccccc2)cc(O)c1O

>  <score_type>  (53) 
oracle

>  <origin>  (53) 
adg

>  <m_score__min__energy>  (53) 
-11.68

>  <m_primary>  (53) 
energy

$$$$
53:0
     RDKit          3D

 47 49  0  0  0  0  0  0  0  0999 V2000
   58.2330   27.0180   43.2690 C   0  0  0  0  0  0  0  0  0  0  0  0
   58.1600   26.5400   44.6850 C   0  0  0  0  0  0  0  0  0  0  0  0
   57.2300   25.6550   45.1040 N   0  0  0  0  0  0  0  0  0  0  0  0
   57.5320   25.4450   46.4010 C   0  0  0  0  0  0  0  0  0  0  0  0
   58.6370   26.1900   46.7460 C   0  0  0  0  0  0  0  0  0  0  0  0
   59.0360   26.8730   45.6600 N   0  0  0  0  0  0  0  0  0  0  0  0
   60.1960   27.7640   45.5840 C   0  0  0  0  0  0  0  0  0  0  0  0
   60.3210   28.6440   46.8310 C   0  0  0  0  0  0  0  0  0  0  0  0
   59.5050   29.8730   46.6830 N   0  0  0  0  0  0  0  0  0  0  0  0
   58.0640   29.5680   46.5140 C   0  0  0  0  0  0  0  0  0  0  0  0
   57.5410   30.0060   45.1640 C   0  0  0  0  0  0  0  0  0  0  0  0
   58.2080   31.0200   44.4520 C   0  0  0  0  0  0  0  0  0  0  0  0
   57.7580   31.4130   43.1890 C   0  0  0  0  0  0  0  0  0  0  0  0
   56.6490   30.7900   42.6160 C   0  0  0  0  0  0  0  0  0  0  0  0
   55.9900   29.7670   43.3020 C   0  0  0  0  0  0  0  0  0  0  0  0
   56.4320   29.3650   44.5710 C   0  0  0  0  0  0  0  0  0  0  0  0
   55.7680   28.3370   45.2410 O   0  0  0  0  0  0  0  0  0  0  0  0
   59.8100   30.9170   47.6990 C   0  0  0  0  0  0  0  0  0  0  0  0
   59.6290   32.3490   47.2090 C   0  0  0  0  0  0  0  0  0  0  0  0
   58.3310   32.8760   47.0680 C   0  0  0  0  0  0  0  0  0  0  0  0
   58.1340   34.1770   46.6000 C   0  0  0  0  0  0  0  0  0  0  0  0
   59.2290   34.9780   46.2790 C   0  0  0  0  0  0  0  0  0  0  0  0
   60.5230   34.4860   46.4420 C   0  0  0  0  0  0  0  0  0  0  0  0
   60.7360   33.1850   46.9140 C   0  0  0  0  0  0  0  0  0  0  0  0
   62.4060   32.6700   47.1400 Cl  0  0  0  0  0  0  0  0  0  0  0  0
   58.3991   28.1053   43.2572 H   0  0  0  0  0  0  0  0  0  0  0  0
   59.0647   26.5144   42.7544 H   0  0  0  0  0  0  0  0  0  0  0  0
   57.2890   26.7856   42.7544 H   0  0  0  0  0  0  0  0  0  0  0  0
   56.9794   24.7794   47.0804 H   0  0  0  0  0  0  0  0  0  0  0  0
   59.1109   26.2208   47.7382 H   0  0  0  0  0  0  0  0  0  0  0  0
   61.1067   27.1550   45.4855 H   0  0  0  0  0  0  0  0  0  0  0  0
   60.0642   28.4227   44.7130 H   0  0  0  0  0  0  0  0  0  0  0  0
   59.9708   28.0804   47.7084 H   0  0  0  0  0  0  0  0  0  0  0  0
   61.3752   28.9303   46.9603 H   0  0  0  0  0  0  0  0  0  0  0  0
   57.9175   28.4825   46.6153 H   0  0  0  0  0  0  0  0  0  0  0  0
   57.5093   30.1210   47.2863 H   0  0  0  0  0  0  0  0  0  0  0  0
   59.0903   31.5069   44.8931 H   0  0  0  0  0  0  0  0  0  0  0  0
   58.2790   32.2150   42.6455 H   0  0  0  0  0  0  0  0  0  0  0  0
   56.2934   31.1044   41.6237 H   0  0  0  0  0  0  0  0  0  0  0  0
   55.1196   29.2740   42.8444 H   0  0  0  0  0  0  0  0  0  0  0  0
   55.9140   27.3640   45.0000 H   0  0  0  0  0  0  0  0  0  0  0  0
   59.1443   30.7622   48.5609 H   0  0  0  0  0  0  0  0  0  0  0  0
   60.8747   30.8054   47.9518 H   0  0  0  0  0  0  0  0  0  0  0  0
   57.4613   32.2553   47.3297 H   0  0  0  0  0  0  0  0  0  0  0  0
   57.1132   34.5703   46.4845 H   0  0  0  0  0  0  0  0  0  0  0  0
   59.0719   35.9976   45.8973 H   0  0  0  0  0  0  0  0  0  0  0  0
   61.3842   35.1253   46.1977 H   0  0  0  0  0  0  0  0  0  0  0  0
  1  2  1  0
  2  3  2  0
  3  4  1  0
  4  5  2  0
  5  6  1  0
  6  7  1  0
  7  8  1  0
  8  9  1  0
  9 10  1  0
 10 11  1  0
 11 12  2  0
 12 13  1  0
 13 14  2  0
 14 15  1  0
 15 16  2  0
 16 17  1  0
  9 18  1  0
 18 19  1  0
 19 20  2  0
 20 21  1  0
 21 22  2  0
 22 23  1  0
 23 24  2  0
 24 25  1  0
  6  2  1  0
 16 11  1  0
 24 19  1  0
  1 26  1  0
  1 27  1  0
  1 28  1  0
  4 29  1  0
  5 30  1  0
  7 31  1  0
  7 32  1  0
  8 33  1  0
  8 34  1  0
 10 35  1  0
 10 36  1  0
 12 37  1  0
 13 38  1  0
 14 39  1  0
 15 40  1  0
 17 41  1  0
 18 42  1  0
 18 43  1  0
 20 44  1  0
 21 45  1  0
 22 46  1  0
 23 47  1  0
M  END
>  <UniqueID>  (54) 
48

>  <SMILES>  (54) 
Cc1nccn1CCN(Cc1ccccc1O)Cc1ccccc1Cl

>  <Energy>  (54) 
82.75197962936745

>  <Genealogy>  (54) 
Cc1nccn1CCN(Cc1ccccc1O)Cc1ccccc1Cl (3D coordinates assigned)
Cc1nccn1CCN(Cc1ccccc1O)Cc1ccccc1Cl (optimized conformer: 82.75197962936745 kcal/mol)

>  <smiles>  (54) 
Cc1nccn1CCN(Cc1ccccc1O)Cc1ccccc1Cl

>  <score_type>  (54) 
oracle

>  <origin>  (54) 
adg

>  <m_score__min__energy>  (54) 
-8.6400000000000006

>  <m_primary>  (54) 
energy

$$$$
54:0
     RDKit          3D

 28 29  0  0  0  0  0  0  0  0999 V2000
   56.5260   30.4640   45.6030 H   0  0  0  0  0  0  0  0  0  0  0  0
   56.7440   31.2210   44.9650 O   0  0  0  0  0  0  0  0  0  0  0  0
   57.6390   32.2320   45.3080 C   0  0  0  0  0  0  0  0  0  0  0  0
   57.4380   33.5360   44.8310 C   0  0  0  0  0  0  0  0  0  0  0  0
   56.6009   33.7466   44.1492 H   0  0  0  0  0  0  0  0  0  0  0  0
   58.2960   34.5680   45.2180 C   0  0  0  0  0  0  0  0  0  0  0  0
   58.1387   35.5866   44.8337 H   0  0  0  0  0  0  0  0  0  0  0  0
   59.3530   34.3080   46.0920 C   0  0  0  0  0  0  0  0  0  0  0  0
   60.0194   35.1245   46.4070 H   0  0  0  0  0  0  0  0  0  0  0  0
   59.5650   33.0110   46.5670 C   0  0  0  0  0  0  0  0  0  0  0  0
   60.3896   32.8140   47.2678 H   0  0  0  0  0  0  0  0  0  0  0  0
   58.7330   31.9580   46.1560 C   0  0  0  0  0  0  0  0  0  0  0  0
   59.0020   30.5970   46.6700 C   0  0  0  0  0  0  0  0  0  0  0  0
   59.9464   30.4215   47.2060 H   0  0  0  0  0  0  0  0  0  0  0  0
   58.1820   29.5940   46.5230 N   0  0  0  0  0  0  0  0  0  0  0  0
   58.5520   28.2240   46.2960 C   0  0  0  0  0  0  0  0  0  0  0  0
   59.9030   27.8760   46.4340 C   0  0  0  0  0  0  0  0  0  0  0  0
   60.6484   28.6565   46.6464 H   0  0  0  0  0  0  0  0  0  0  0  0
   60.3100   26.5470   46.3040 C   0  0  0  0  0  0  0  0  0  0  0  0
   61.3706   26.2821   46.4266 H   0  0  0  0  0  0  0  0  0  0  0  0
   59.3730   25.5560   46.0190 C   0  0  0  0  0  0  0  0  0  0  0  0
   59.6920   24.5062   45.9403 H   0  0  0  0  0  0  0  0  0  0  0  0
   58.0310   25.8910   45.8330 C   0  0  0  0  0  0  0  0  0  0  0  0
   57.3003   25.1026   45.5997 H   0  0  0  0  0  0  0  0  0  0  0  0
   57.6030   27.2280   45.9410 C   0  0  0  0  0  0  0  0  0  0  0  0
   56.1930   27.5480   45.6200 C   0  0  0  0  0  0  0  0  0  0  0  0
   55.8980   28.5860   44.9700 O   0  0  0  0  0  0  0  0  0  0  0  0
   55.1740   26.6800   45.9980 O   0  0  0  0  0  0  0  0  0  0  0  0
  1  2  1  0
  2  3  1  0
  3  4  2  0
  4  5  1  0
  4  6  1  0
  6  7  1  0
  6  8  2  0
  8  9  1  0
  8 10  1  0
 10 11  1  0
 10 12  2  0
 12 13  1  0
 13 14  1  0
 13 15  2  0
 15 16  1  0
 16 17  2  0
 17 18  1  0
 17 19  1  0
 19 20  1  0
 19 21  2  0
 21 22  1  0
 21 23  1  0
 23 24  1  0
 23 25  2  0
 25 26  1  0
 26 27  2  0
 26 28  1  0
 12  3  1  0
 25 16  1  0
M  CHG  1  28  -1
M  END
>  <UniqueID>  (55) 
49

>  <SMILES>  (55) 
O=C([O-])c1ccccc1/N=C\c1ccccc1O

>  <Energy>  (55) 
45.81739244006333

>  <Genealogy>  (55) 
O=C([O-])c1ccccc1N=Cc1ccccc1O (protonated)
O=C([O-])c1ccccc1/N=C\c1ccccc1O (cis-trans isomerization)
O=C([O-])c1ccccc1/N=C\c1ccccc1O (3D coordinates assigned)
O=C([O-])c1ccccc1/N=C\c1ccccc1O (optimized conformer: 45.81739244006333 kcal/mol)

>  <smiles>  (55) 
O=C(O)c1ccccc1N=Cc1ccccc1O

>  <score_type>  (55) 
oracle

>  <origin>  (55) 
adg

>  <m_score__min__energy>  (55) 
-9.9499999999999993

>  <m_primary>  (55) 
energy

$$$$
55:0
     RDKit          3D

 36 38  0  0  0  0  0  0  0  0999 V2000
   59.5940   35.5660   45.7990 O   0  0  0  0  0  0  0  0  0  0  0  0
   59.6810   34.4150   46.3040 C   0  0  0  0  0  0  0  0  0  0  0  0
   60.5130   34.2370   47.4610 N   0  0  0  0  0  0  0  0  0  0  0  0
   61.5550   33.4610   47.5300 C   0  0  0  0  0  0  0  0  0  0  0  0
   61.5850   32.2850   48.1960 N   0  0  0  0  0  0  0  0  0  0  0  0
   62.7930   31.6750   48.0720 C   0  0  0  0  0  0  0  0  0  0  0  0
   63.7240   32.3610   47.2970 C   0  0  0  0  0  0  0  0  0  0  0  0
   63.0050   33.7820   46.7500 S   0  0  0  0  0  0  0  0  0  0  0  0
   58.8810   33.3090   45.7250 C   0  0  0  0  0  0  0  0  0  0  0  0
   58.5550   32.1770   46.4930 C   0  0  0  0  0  0  0  0  0  0  0  0
   57.7880   31.1460   45.9440 C   0  0  0  0  0  0  0  0  0  0  0  0
   57.3240   31.2380   44.6270 C   0  0  0  0  0  0  0  0  0  0  0  0
   56.3470   29.9470   43.9340 S   0  0  0  0  0  0  0  0  0  0  0  0
   55.1470   29.7220   44.8080 O   0  0  0  0  0  0  0  0  0  0  0  0
   55.8850   30.3140   42.5510 O   0  0  0  0  0  0  0  0  0  0  0  0
   57.2710   28.4810   43.8510 N   0  0  0  0  0  0  0  0  0  0  0  0
   57.7980   27.7680   44.9780 C   0  0  0  0  0  0  0  0  0  0  0  0
   59.1810   27.6900   45.2290 C   0  0  0  0  0  0  0  0  0  0  0  0
   59.6580   26.9930   46.3420 C   0  0  0  0  0  0  0  0  0  0  0  0
   58.7630   26.3660   47.2120 C   0  0  0  0  0  0  0  0  0  0  0  0
   57.3900   26.4340   46.9710 C   0  0  0  0  0  0  0  0  0  0  0  0
   56.9030   27.1330   45.8560 C   0  0  0  0  0  0  0  0  0  0  0  0
   55.5320   27.2020   45.6160 O   0  0  0  0  0  0  0  0  0  0  0  0
   57.6360   32.3670   43.8600 C   0  0  0  0  0  0  0  0  0  0  0  0
   58.4030   33.4000   44.4070 C   0  0  0  0  0  0  0  0  0  0  0  0
   63.0186   30.7099   48.5491 H   0  0  0  0  0  0  0  0  0  0  0  0
   64.7509   32.0320   47.0797 H   0  0  0  0  0  0  0  0  0  0  0  0
   58.9061   32.1026   47.5328 H   0  0  0  0  0  0  0  0  0  0  0  0
   57.5482   30.2592   46.5490 H   0  0  0  0  0  0  0  0  0  0  0  0
   59.8897   28.1803   44.5454 H   0  0  0  0  0  0  0  0  0  0  0  0
   60.7398   26.9379   46.5334 H   0  0  0  0  0  0  0  0  0  0  0  0
   59.1407   25.8181   48.0879 H   0  0  0  0  0  0  0  0  0  0  0  0
   56.6876   25.9382   47.6571 H   0  0  0  0  0  0  0  0  0  0  0  0
   55.1430   27.8480   44.9380 H   0  0  0  0  0  0  0  0  0  0  0  0
   57.2763   32.4415   42.8231 H   0  0  0  0  0  0  0  0  0  0  0  0
   58.6336   34.2892   43.8019 H   0  0  0  0  0  0  0  0  0  0  0  0
  1  2  2  0
  2  3  1  0
  3  4  2  3
  4  5  1  0
  5  6  1  0
  6  7  2  0
  7  8  1  0
  2  9  1  0
  9 10  2  0
 10 11  1  0
 11 12  2  0
 12 13  1  0
 13 14  2  0
 13 15  2  0
 13 16  1  0
 16 17  1  0
 17 18  2  0
 18 19  1  0
 19 20  2  0
 20 21  1  0
 21 22  2  0
 22 23  1  0
 12 24  1  0
 24 25  2  0
  8  4  1  0
 25  9  1  0
 22 17  1  0
  6 26  1  0
  7 27  1  0
 10 28  1  0
 11 29  1  0
 18 30  1  0
 19 31  1  0
 20 32  1  0
 21 33  1  0
 23 34  1  0
 24 35  1  0
 25 36  1  0
M  CHG  2   5  -1  16  -1
M  END
>  <UniqueID>  (56) 
50

>  <SMILES>  (56) 
O=C(N=c1[n-]ccs1)c1ccc(S(=O)(=O)[N-]c2ccccc2O)cc1

>  <Energy>  (56) 
79.1607892337079

>  <Genealogy>  (56) 
O=C(N=c1[n-]ccs1)c1ccc(S(=O)(=O)[N-]c2ccccc2O)cc1 (protonated)
O=C(N=c1[n-]ccs1)c1ccc(S(=O)(=O)[N-]c2ccccc2O)cc1 (3D coordinates assigned)
O=C(N=c1[n-]ccs1)c1ccc(S(=O)(=O)[N-]c2ccccc2O)cc1 (optimized conformer: 79.1607892337079 kcal/mol)

>  <smiles>  (56) 
O=C(N=c1[nH]ccs1)c1ccc(S(=O)(=O)Nc2ccccc2O)cc1

>  <score_type>  (56) 
oracle

>  <origin>  (56) 
adg

>  <m_score__min__energy>  (56) 
-12.65

>  <m_primary>  (56) 
energy

$$$$
56:0
     RDKit          3D

 44 47  0  0  0  0  0  0  0  0999 V2000
   56.8611   35.1524   45.5941 H   0  0  0  0  0  0  0  0  0  0  0  0
   57.4140   34.2210   45.7860 C   0  0  0  0  0  0  0  0  0  0  0  0
   58.5820   34.2560   46.4760 N   0  0  0  0  0  0  0  0  0  0  0  0
   59.2720   33.1090   46.7030 C   0  0  0  0  0  0  0  0  0  0  0  0
   60.5010   33.1410   47.4390 N   0  0  0  0  0  0  0  0  0  0  0  0
   60.6580   33.8390   48.6600 C   0  0  0  0  0  0  0  0  0  0  0  0
   61.9180   34.2680   48.8460 C   0  0  0  0  0  0  0  0  0  0  0  0
   62.1220   34.2200   50.2110 C   0  0  0  0  0  0  0  0  0  0  0  0
   63.4400   34.3210   50.9020 C   0  0  0  0  0  0  0  0  0  0  0  0
   63.2849   34.3091   51.9910 H   0  0  0  0  0  0  0  0  0  0  0  0
   64.0721   33.4687   50.6123 H   0  0  0  0  0  0  0  0  0  0  0  0
   63.9349   35.2597   50.6123 H   0  0  0  0  0  0  0  0  0  0  0  0
   61.0070   33.7340   50.8010 N   0  0  0  0  0  0  0  0  0  0  0  0
   60.1130   33.5020   49.8490 N   0  0  0  0  0  0  0  0  0  0  0  0
   58.9640   32.6360   50.0660 C   0  0  0  0  0  0  0  0  0  0  0  0
   58.7980   32.5109   51.1462 H   0  0  0  0  0  0  0  0  0  0  0  0
   58.0721   33.0885   49.6079 H   0  0  0  0  0  0  0  0  0  0  0  0
   59.1533   31.6540   49.6079 H   0  0  0  0  0  0  0  0  0  0  0  0
   62.7970   33.8400   47.7250 C   0  0  0  0  0  0  0  0  0  0  0  0
   63.2528   34.7073   47.2250 H   0  0  0  0  0  0  0  0  0  0  0  0
   63.6419   33.2139   48.0475 H   0  0  0  0  0  0  0  0  0  0  0  0
   61.8110   33.1040   46.7800 C   0  0  0  0  0  0  0  0  0  0  0  0
   61.7623   33.6157   45.8075 H   0  0  0  0  0  0  0  0  0  0  0  0
   62.1346   32.0694   46.5931 H   0  0  0  0  0  0  0  0  0  0  0  0
   58.7740   31.9260   46.2550 N   0  0  0  0  0  0  0  0  0  0  0  0
   57.6040   31.8840   45.5630 C   0  0  0  0  0  0  0  0  0  0  0  0
   57.0920   30.7560   45.1660 N   0  0  0  0  0  0  0  0  0  0  0  0
   57.7590   29.4850   45.0770 C   0  0  0  0  0  0  0  0  0  0  0  0
   59.1030   29.4640   44.6710 C   0  0  0  0  0  0  0  0  0  0  0  0
   59.6199   30.4089   44.4471 H   0  0  0  0  0  0  0  0  0  0  0  0
   59.7890   28.2540   44.5490 C   0  0  0  0  0  0  0  0  0  0  0  0
   60.8349   28.2457   44.2085 H   0  0  0  0  0  0  0  0  0  0  0  0
   59.1450   27.0540   44.8600 C   0  0  0  0  0  0  0  0  0  0  0  0
   59.6767   26.0993   44.7346 H   0  0  0  0  0  0  0  0  0  0  0  0
   57.8250   27.0600   45.3310 C   0  0  0  0  0  0  0  0  0  0  0  0
   57.1900   25.8120   45.6330 N   0  0  0  0  0  0  0  0  0  0  0  0
   55.9360   25.6600   46.3130 C   0  0  0  0  0  0  0  0  0  0  0  0
   55.8810   24.9620   47.3610 O   0  0  0  0  0  0  0  0  0  0  0  0
   54.7640   26.3410   45.8600 N   0  0  0  0  0  0  0  0  0  0  0  0
   54.8100   27.0230   45.0690 H   0  0  0  0  0  0  0  0  0  0  0  0
   53.8610   26.2220   46.3700 H   0  0  0  0  0  0  0  0  0  0  0  0
   57.1300   28.2780   45.4360 C   0  0  0  0  0  0  0  0  0  0  0  0
   56.0919   28.2875   45.7997 H   0  0  0  0  0  0  0  0  0  0  0  0
   56.9270   33.0370   45.3320 N   0  0  0  0  0  0  0  0  0  0  0  0
  1  2  1  0
  2  3  2  0
  3  4  1  0
  4  5  1  0
  5  6  1  0
  6  7  2  0
  7  8  1  0
  8  9  1  0
  9 10  1  0
  9 11  1  0
  9 12  1  0
  8 13  2  0
 13 14  1  0
 14 15  1  0
 15 16  1  0
 15 17  1  0
 15 18  1  0
  7 19  1  0
 19 20  1  0
 19 21  1  0
 19 22  1  0
 22 23  1  0
 22 24  1  0
  4 25  2  0
 25 26  1  0
 26 27  2  0
 27 28  1  0
 28 29  2  0
 29 30  1  0
 29 31  1  0
 31 32  1  0
 31 33  2  0
 33 34  1  0
 33 35  1  0
 35 36  1  0
 36 37  1  0
 37 38  2  0
 37 39  1  0
 39 40  1  0
 39 41  1  0
 35 42  2  0
 42 43  1  0
 26 44  1  0
 44  2  1  0
 22  5  1  0
 42 28  1  0
 14  6  1  0
M  CHG  2  36  -1  44  -1
M  END
>  <UniqueID>  (57) 
51

>  <SMILES>  (57) 
Cc1nn(C)c2c1CCN2c1nc[n-]/c(=N/c2cccc([N-]C(N)=O)c2)n1

>  <Energy>  (57) 
119.26123594607496

>  <Genealogy>  (57) 
Cc1nn(C)c2c1CCN2c1nc[n-]c(=Nc2cccc([N-]C(N)=O)c2)n1 (protonated)
Cc1nn(C)c2c1CCN2c1nc[n-]/c(=N/c2cccc([N-]C(N)=O)c2)n1 (cis-trans isomerization)
Cc1nn(C)c2c1CCN2c1nc[n-]/c(=N/c2cccc([N-]C(N)=O)c2)n1 (3D coordinates assigned)
Cc1nn(C)c2c1CCN2c1nc[n-]/c(=N/c2cccc([N-]C(N)=O)c2)n1 (nonaromatic ring conformer: 119.26123594607496 kcal/mol)

>  <smiles>  (57) 
Cc1nn(C)c2c1CCN2c1nc[nH]c(=Nc2cccc(NC(N)=O)c2)n1

>  <score_type>  (57) 
oracle

>  <origin>  (57) 
adg

>  <m_score__min__energy>  (57) 
-11.9

>  <m_primary>  (57) 
energy

$$$$
57:0
     RDKit          3D

 43 46  0  0  0  0  0  0  0  0999 V2000
   57.4380   27.0140   47.3030 O   0  0  0  0  0  0  0  0  0  0  0  0
   57.5820   27.0860   46.0530 C   0  0  0  0  0  0  0  0  0  0  0  0
   57.6950   28.4200   45.4330 C   0  0  0  0  0  0  0  0  0  0  0  0
   58.2810   29.5470   46.0100 C   0  0  0  0  0  0  0  0  0  0  0  0
   58.0980   30.5550   45.0890 C   0  0  0  0  0  0  0  0  0  0  0  0
   58.4650   31.8980   45.1310 C   0  0  0  0  0  0  0  0  0  0  0  0
   58.1220   32.7060   44.0300 C   0  0  0  0  0  0  0  0  0  0  0  0
   57.4250   32.1570   42.9300 C   0  0  0  0  0  0  0  0  0  0  0  0
   57.0630   30.7980   42.9210 C   0  0  0  0  0  0  0  0  0  0  0  0
   57.4190   30.0230   44.0250 C   0  0  0  0  0  0  0  0  0  0  0  0
   57.1590   28.7210   44.2240 N   0  0  0  0  0  0  0  0  0  0  0  0
   57.6150   25.8760   45.2740 N   0  0  0  0  0  0  0  0  0  0  0  0
   57.7620   25.8460   43.8270 C   0  0  0  0  0  0  0  0  0  0  0  0
   57.2160   24.4920   43.3930 C   0  0  0  0  0  0  0  0  0  0  0  0
   57.3070   23.5920   44.6440 C   0  0  0  0  0  0  0  0  0  0  0  0
   58.7080   22.8980   44.7070 C   0  0  0  0  0  0  0  0  0  0  0  0
   58.6670   21.5040   44.0690 C   0  0  0  0  0  0  0  0  0  0  0  0
   57.7400   20.5970   44.7800 N   0  0  0  0  0  0  0  0  0  0  0  0
   56.5780   21.2680   45.4030 C   0  0  0  0  0  0  0  0  0  0  0  0
   56.1640   22.5310   44.6380 C   0  0  0  0  0  0  0  0  0  0  0  0
   57.1600   24.6000   45.8050 C   0  0  0  0  0  0  0  0  0  0  0  0
   58.7805   29.6157   46.9876 H   0  0  0  0  0  0  0  0  0  0  0  0
   59.0045   32.3133   45.9950 H   0  0  0  0  0  0  0  0  0  0  0  0
   58.3982   33.7708   44.0261 H   0  0  0  0  0  0  0  0  0  0  0  0
   57.1637   32.7973   42.0746 H   0  0  0  0  0  0  0  0  0  0  0  0
   56.5174   30.3608   42.0718 H   0  0  0  0  0  0  0  0  0  0  0  0
   56.6470   28.0760   43.5810 H   0  0  0  0  0  0  0  0  0  0  0  0
   57.1845   26.6600   43.3645 H   0  0  0  0  0  0  0  0  0  0  0  0
   58.8092   25.9825   43.5193 H   0  0  0  0  0  0  0  0  0  0  0  0
   56.1711   24.5866   43.0624 H   0  0  0  0  0  0  0  0  0  0  0  0
   57.7825   24.0749   42.5474 H   0  0  0  0  0  0  0  0  0  0  0  0
   59.4397   23.5177   44.1679 H   0  0  0  0  0  0  0  0  0  0  0  0
   58.9948   22.7887   45.7633 H   0  0  0  0  0  0  0  0  0  0  0  0
   58.3373   21.6011   43.0241 H   0  0  0  0  0  0  0  0  0  0  0  0
   59.6772   21.0728   44.1287 H   0  0  0  0  0  0  0  0  0  0  0  0
   57.3930   19.8810   44.0980 H   0  0  0  0  0  0  0  0  0  0  0  0
   58.2680   20.0870   45.5270 H   0  0  0  0  0  0  0  0  0  0  0  0
   55.7297   20.5679   45.4176 H   0  0  0  0  0  0  0  0  0  0  0  0
   56.8653   21.5674   46.4217 H   0  0  0  0  0  0  0  0  0  0  0  0
   55.9307   22.2604   43.5976 H   0  0  0  0  0  0  0  0  0  0  0  0
   55.2823   22.9651   45.1321 H   0  0  0  0  0  0  0  0  0  0  0  0
   56.1093   24.6690   46.1231 H   0  0  0  0  0  0  0  0  0  0  0  0
   57.7430   24.2943   46.6863 H   0  0  0  0  0  0  0  0  0  0  0  0
  1  2  2  0
  2  3  1  0
  3  4  2  0
  4  5  1  0
  5  6  2  0
  6  7  1  0
  7  8  2  0
  8  9  1  0
  9 10  2  0
 10 11  1  0
  2 12  1  0
 12 13  1  0
 13 14  1  0
 14 15  1  0
 15 16  1  0
 16 17  1  0
 17 18  1  0
 18 19  1  0
 19 20  1  0
 15 21  1  0
 11  3  1  0
 21 12  1  0
 10  5  1  0
 20 15  1  0
  4 22  1  0
  6 23  1  0
  7 24  1  0
  8 25  1  0
  9 26  1  0
 11 27  1  0
 13 28  1  0
 13 29  1  0
 14 30  1  0
 14 31  1  0
 16 32  1  0
 16 33  1  0
 17 34  1  0
 17 35  1  0
 18 36  1  0
 18 37  1  0
 19 38  1  0
 19 39  1  0
 20 40  1  0
 20 41  1  0
 21 42  1  0
 21 43  1  0
M  CHG  1  18   1
M  END
>  <UniqueID>  (58) 
52

>  <SMILES>  (58) 
O=C(c1cc2ccccc2[nH]1)N1CCC2(CC[NH2+]CC2)C1

>  <Energy>  (58) 
90.76823895740674

>  <Genealogy>  (58) 
O=C(c1cc2ccccc2[nH]1)N1CCC2(CC[NH2+]CC2)C1 (protonated)
O=C(c1cc2ccccc2[nH]1)N1CCC2(CC[NH2+]CC2)C1 (3D coordinates assigned)
O=C(c1cc2ccccc2[nH]1)N1CCC2(CC[NH2+]CC2)C1 (nonaromatic ring conformer: 90.76823895740674 kcal/mol)

>  <smiles>  (58) 
O=C(c1cc2ccccc2[nH]1)N1CCC2(CCNCC2)C1

>  <score_type>  (58) 
oracle

>  <origin>  (58) 
adg

>  <m_score__min__energy>  (58) 
-6.7300000000000004

>  <m_primary>  (58) 
energy

$$$$
58:0
     RDKit          3D

 44 46  0  0  0  0  0  0  0  0999 V2000
   56.0320   22.0000   43.0010 N   0  0  0  0  0  0  0  0  0  0  0  0
   56.3110   23.0180   43.4760 C   0  0  0  0  0  0  0  0  0  0  0  0
   56.6590   24.2830   44.0680 C   0  0  0  0  0  0  0  0  0  0  0  0
   56.1270   24.6470   45.3100 C   0  0  0  0  0  0  0  0  0  0  0  0
   56.4660   25.8750   45.8840 C   0  0  0  0  0  0  0  0  0  0  0  0
   57.3320   26.7580   45.2210 C   0  0  0  0  0  0  0  0  0  0  0  0
   57.7100   28.0550   45.8300 C   0  0  0  0  0  0  0  0  0  0  0  0
   56.8230   28.9440   45.9480 O   0  0  0  0  0  0  0  0  0  0  0  0
   59.0530   28.3270   46.2920 N   0  0  0  0  0  0  0  0  0  0  0  0
   59.4750   27.6970   47.5630 C   0  0  0  0  0  0  0  0  0  0  0  0
   59.5350   28.6620   48.7600 C   0  0  0  0  0  0  0  0  0  0  0  0
   60.6600   29.6990   48.6520 C   0  0  0  0  0  0  0  0  0  0  0  0
   60.6520   30.3990   47.3610 N   0  0  0  0  0  0  0  0  0  0  0  0
   60.0250   31.6900   47.2570 C   0  0  0  0  0  0  0  0  0  0  0  0
   59.3700   32.0310   46.1150 N   0  0  0  0  0  0  0  0  0  0  0  0
   58.7960   33.2540   45.9620 C   0  0  0  0  0  0  0  0  0  0  0  0
   58.0970   33.6040   44.6820 C   0  0  0  0  0  0  0  0  0  0  0  0
   57.1180   34.5480   44.9320 F   0  0  0  0  0  0  0  0  0  0  0  0
   58.9950   34.1220   43.7650 F   0  0  0  0  0  0  0  0  0  0  0  0
   57.5120   32.4710   44.1460 F   0  0  0  0  0  0  0  0  0  0  0  0
   58.8830   34.1860   47.0020 C   0  0  0  0  0  0  0  0  0  0  0  0
   59.5480   33.8210   48.1700 C   0  0  0  0  0  0  0  0  0  0  0  0
   60.1030   32.5860   48.2830 N   0  0  0  0  0  0  0  0  0  0  0  0
   61.1480   29.7180   46.1570 C   0  0  0  0  0  0  0  0  0  0  0  0
   60.0260   28.9830   45.3940 C   0  0  0  0  0  0  0  0  0  0  0  0
   57.8760   26.3780   43.9820 C   0  0  0  0  0  0  0  0  0  0  0  0
   57.5370   25.1500   43.4070 C   0  0  0  0  0  0  0  0  0  0  0  0
   55.4412   23.9657   45.8350 H   0  0  0  0  0  0  0  0  0  0  0  0
   56.0504   26.1520   46.8641 H   0  0  0  0  0  0  0  0  0  0  0  0
   58.7618   26.8947   47.8030 H   0  0  0  0  0  0  0  0  0  0  0  0
   60.4988   27.3268   47.4058 H   0  0  0  0  0  0  0  0  0  0  0  0
   58.5750   29.1949   48.8264 H   0  0  0  0  0  0  0  0  0  0  0  0
   59.7375   28.0559   49.6553 H   0  0  0  0  0  0  0  0  0  0  0  0
   60.5369   30.4392   49.4563 H   0  0  0  0  0  0  0  0  0  0  0  0
   61.6181   29.1657   48.7392 H   0  0  0  0  0  0  0  0  0  0  0  0
   58.4357   35.1857   46.8993 H   0  0  0  0  0  0  0  0  0  0  0  0
   59.6241   34.5347   49.0035 H   0  0  0  0  0  0  0  0  0  0  0  0
   60.5780   32.3270   49.1760 H   0  0  0  0  0  0  0  0  0  0  0  0
   61.5989   30.4660   45.4883 H   0  0  0  0  0  0  0  0  0  0  0  0
   61.8854   28.9666   46.4758 H   0  0  0  0  0  0  0  0  0  0  0  0
   59.4902   29.7129   44.7693 H   0  0  0  0  0  0  0  0  0  0  0  0
   60.4996   28.1955   44.7894 H   0  0  0  0  0  0  0  0  0  0  0  0
   58.5730   27.0513   43.4615 H   0  0  0  0  0  0  0  0  0  0  0  0
   57.9610   24.8643   42.4331 H   0  0  0  0  0  0  0  0  0  0  0  0
  1  2  3  0
  2  3  1  0
  3  4  2  0
  4  5  1  0
  5  6  2  0
  6  7  1  0
  7  8  2  0
  7  9  1  0
  9 10  1  0
 10 11  1  0
 11 12  1  0
 12 13  1  0
 13 14  1  0
 14 15  2  0
 15 16  1  0
 16 17  1  0
 17 18  1  0
 17 19  1  0
 17 20  1  0
 16 21  2  0
 21 22  1  0
 22 23  2  0
 13 24  1  0
 24 25  1  0
  6 26  1  0
 26 27  2  0
 27  3  1  0
 25  9  1  0
 23 14  1  0
  4 28  1  0
  5 29  1  0
 10 30  1  0
 10 31  1  0
 11 32  1  0
 11 33  1  0
 12 34  1  0
 12 35  1  0
 21 36  1  0
 22 37  1  0
 23 38  1  0
 24 39  1  0
 24 40  1  0
 25 41  1  0
 25 42  1  0
 26 43  1  0
 27 44  1  0
M  CHG  1  23   1
M  END
>  <UniqueID>  (59) 
53

>  <SMILES>  (59) 
N#Cc1ccc(C(=O)N2CCCN(c3nc(C(F)(F)F)cc[nH+]3)CC2)cc1

>  <Energy>  (59) 
56.731045815347315

>  <Genealogy>  (59) 
N#Cc1ccc(C(=O)N2CCCN(c3nc(C(F)(F)F)cc[nH+]3)CC2)cc1 (protonated)
N#Cc1ccc(C(=O)N2CCCN(c3nc(C(F)(F)F)cc[nH+]3)CC2)cc1 (3D coordinates assigned)
N#Cc1ccc(C(=O)N2CCCN(c3nc(C(F)(F)F)cc[nH+]3)CC2)cc1 (nonaromatic ring conformer: 56.731045815347315 kcal/mol)

>  <smiles>  (59) 
N#Cc1ccc(C(=O)N2CCCN(c3nccc(C(F)(F)F)n3)CC2)cc1

>  <score_type>  (59) 
oracle

>  <origin>  (59) 
adg

>  <m_score__min__energy>  (59) 
-3.96

>  <m_primary>  (59) 
energy

$$$$
59:0
     RDKit          3D

 68 71  0  0  0  0  0  0  0  0999 V2000
   59.9930   29.8910   52.3080 N   0  0  0  0  0  0  0  0  0  0  0  0
   58.8110   29.7280   51.4510 C   0  0  1  0  0  0  0  0  0  0  0  0
   57.5050   29.7880   52.2990 C   0  0  0  0  0  0  0  0  0  0  0  0
   56.5760   30.9550   51.9300 C   0  0  0  0  0  0  0  0  0  0  0  0
   57.3590   32.2620   51.7630 C   0  0  0  0  0  0  0  0  0  0  0  0
   58.4970   32.1040   50.8410 N   0  0  0  0  0  0  0  0  0  0  0  0
   59.2510   33.2620   50.4200 C   0  0  0  0  0  0  0  0  0  0  0  0
   59.4950   34.1980   51.2300 O   0  0  0  0  0  0  0  0  0  0  0  0
   59.7220   33.3940   49.0300 C   0  0  0  0  0  0  0  0  0  0  0  0
   58.8100   33.1730   47.9900 C   0  0  0  0  0  0  0  0  0  0  0  0
   59.2020   33.3170   46.6570 C   0  0  0  0  0  0  0  0  0  0  0  0
   58.0180   33.0890   45.3730 S   0  0  0  0  0  0  0  0  0  0  0  0
   56.6490   32.9030   45.9650 O   0  0  0  0  0  0  0  0  0  0  0  0
   58.0010   34.3220   44.5130 O   0  0  0  0  0  0  0  0  0  0  0  0
   58.4730   31.6600   44.3720 C   0  0  0  0  0  0  0  0  0  0  0  0
   58.7730   30.4290   45.2470 C   0  0  0  0  0  0  0  0  0  0  0  0
   57.4950   29.7920   45.8290 C   0  0  0  0  0  0  0  0  0  0  0  0
   56.3270   29.8340   44.9250 N   0  0  0  0  0  0  0  0  0  0  0  0
   56.6930   30.0110   43.5140 C   0  0  0  0  0  0  0  0  0  0  0  0
   57.4080   31.3550   43.2900 C   0  0  0  0  0  0  0  0  0  0  0  0
   60.5200   33.6830   46.3600 C   0  0  0  0  0  0  0  0  0  0  0  0
   61.4410   33.8970   47.3890 C   0  0  0  0  0  0  0  0  0  0  0  0
   61.0600   33.7500   48.7390 C   0  0  0  0  0  0  0  0  0  0  0  0
   62.0000   33.9800   49.8140 N   0  0  0  0  0  0  0  0  0  0  0  0
   63.4570   33.8330   49.6980 C   0  0  0  0  0  0  0  0  0  0  0  0
   63.8130   32.3900   49.2450 C   0  0  0  0  0  0  0  0  0  0  0  0
   65.1990   31.9690   49.7410 C   0  0  0  0  0  0  0  0  0  0  0  0
   65.2570   31.9510   51.2820 C   0  0  0  0  0  0  0  0  0  0  0  0
   64.3520   33.0120   51.9450 C   0  0  0  0  0  0  0  0  0  0  0  0
   64.1360   34.2260   51.0350 C   0  0  0  0  0  0  0  0  0  0  0  0
   58.8190   30.7700   50.3130 C   0  0  0  0  0  0  0  0  0  0  0  0
   60.8000   29.3670   51.8980 H   0  0  0  0  0  0  0  0  0  0  0  0
   59.8040   29.5260   53.2690 H   0  0  0  0  0  0  0  0  0  0  0  0
   60.2600   30.9010   52.3690 H   0  0  0  0  0  0  0  0  0  0  0  0
   58.8451   28.7341   50.9810 H   0  0  0  0  0  0  0  0  0  0  0  0
   56.9539   28.8472   52.1533 H   0  0  0  0  0  0  0  0  0  0  0  0
   57.8101   29.9412   53.3447 H   0  0  0  0  0  0  0  0  0  0  0  0
   56.0651   30.7206   50.9845 H   0  0  0  0  0  0  0  0  0  0  0  0
   55.8484   31.0890   52.7441 H   0  0  0  0  0  0  0  0  0  0  0  0
   56.6832   33.0336   51.3656 H   0  0  0  0  0  0  0  0  0  0  0  0
   57.7544   32.5519   52.7477 H   0  0  0  0  0  0  0  0  0  0  0  0
   57.7752   32.8833   48.2253 H   0  0  0  0  0  0  0  0  0  0  0  0
   59.4028   31.9144   43.8421 H   0  0  0  0  0  0  0  0  0  0  0  0
   59.2932   29.6786   44.6336 H   0  0  0  0  0  0  0  0  0  0  0  0
   59.3942   30.7627   46.0913 H   0  0  0  0  0  0  0  0  0  0  0  0
   57.7112   28.7392   46.0634 H   0  0  0  0  0  0  0  0  0  0  0  0
   57.2262   30.3822   46.7175 H   0  0  0  0  0  0  0  0  0  0  0  0
   55.6950   30.6210   45.2050 H   0  0  0  0  0  0  0  0  0  0  0  0
   57.3634   29.1930   43.2117 H   0  0  0  0  0  0  0  0  0  0  0  0
   55.7730   30.0007   42.9111 H   0  0  0  0  0  0  0  0  0  0  0  0
   57.9029   31.3296   42.3080 H   0  0  0  0  0  0  0  0  0  0  0  0
   56.6463   32.1467   43.3448 H   0  0  0  0  0  0  0  0  0  0  0  0
   60.8322   33.8027   45.3120 H   0  0  0  0  0  0  0  0  0  0  0  0
   62.4743   34.1832   47.1434 H   0  0  0  0  0  0  0  0  0  0  0  0
   61.6330   34.3550   50.7190 H   0  0  0  0  0  0  0  0  0  0  0  0
   63.8425   34.5158   48.9265 H   0  0  0  0  0  0  0  0  0  0  0  0
   63.0629   31.6939   49.6485 H   0  0  0  0  0  0  0  0  0  0  0  0
   63.8195   32.3665   48.1453 H   0  0  0  0  0  0  0  0  0  0  0  0
   65.4254   30.9617   49.3614 H   0  0  0  0  0  0  0  0  0  0  0  0
   65.9371   32.6967   49.3727 H   0  0  0  0  0  0  0  0  0  0  0  0
   64.9409   30.9568   51.6307 H   0  0  0  0  0  0  0  0  0  0  0  0
   66.2929   32.1841   51.5695 H   0  0  0  0  0  0  0  0  0  0  0  0
   63.3759   32.5572   52.1693 H   0  0  0  0  0  0  0  0  0  0  0  0
   64.8480   33.3579   52.8639 H   0  0  0  0  0  0  0  0  0  0  0  0
   63.4974   34.9532   51.5579 H   0  0  0  0  0  0  0  0  0  0  0  0
   65.1209   34.6576   50.8031 H   0  0  0  0  0  0  0  0  0  0  0  0
   58.0707   30.4883   49.5576 H   0  0  0  0  0  0  0  0  0  0  0  0
   59.8206   30.7968   49.8591 H   0  0  0  0  0  0  0  0  0  0  0  0
  1  2  1  0
  2  3  1  0
  3  4  1  0
  4  5  1  0
  5  6  1  0
  6  7  1  0
  7  8  2  0
  7  9  1  0
  9 10  2  0
 10 11  1  0
 11 12  1  0
 12 13  2  0
 12 14  2  0
 12 15  1  0
 15 16  1  0
 16 17  1  0
 17 18  1  0
 18 19  1  0
 19 20  1  0
 11 21  2  0
 21 22  1  0
 22 23  2  0
 23 24  1  0
 24 25  1  0
 25 26  1  0
 26 27  1  0
 27 28  1  0
 28 29  1  0
 29 30  1  0
  6 31  1  0
 31  2  1  0
 23  9  1  0
 30 25  1  0
 20 15  1  0
  1 32  1  0
  1 33  1  0
  1 34  1  0
  2 35  1  6
  3 36  1  0
  3 37  1  0
  4 38  1  0
  4 39  1  0
  5 40  1  0
  5 41  1  0
 10 42  1  0
 15 43  1  0
 16 44  1  0
 16 45  1  0
 17 46  1  0
 17 47  1  0
 18 48  1  0
 19 49  1  0
 19 50  1  0
 20 51  1  0
 20 52  1  0
 21 53  1  0
 22 54  1  0
 24 55  1  0
 25 56  1  0
 26 57  1  0
 26 58  1  0
 27 59  1  0
 27 60  1  0
 28 61  1  0
 28 62  1  0
 29 63  1  0
 29 64  1  0
 30 65  1  0
 30 66  1  0
 31 67  1  0
 31 68  1  0
M  CHG  1   1   1
M  END
>  <UniqueID>  (60) 
54

>  <SMILES>  (60) 
[NH3+][C@H]1CCCN(C(=O)c2cc(S(=O)(=O)C3CCNCC3)ccc2NC2CCCCC2)C1

>  <Energy>  (60) 
83.20613259139402

>  <Genealogy>  (60) 
[NH3+]C1CCCN(C(=O)c2cc(S(=O)(=O)C3CCNCC3)ccc2NC2CCCCC2)C1 (protonated)
[NH3+][C@H]1CCCN(C(=O)c2cc(S(=O)(=O)C3CCNCC3)ccc2NC2CCCCC2)C1 (chirality)
[NH3+][C@H]1CCCN(C(=O)c2cc(S(=O)(=O)C3CCNCC3)ccc2NC2CCCCC2)C1 (3D coordinates assigned)
[NH3+][C@H]1CCCN(C(=O)c2cc(S(=O)(=O)C3CCNCC3)ccc2NC2CCCCC2)C1 (nonaromatic ring conformer: 83.20613259139402 kcal/mol)

>  <smiles>  (60) 
NC1CCCN(C(=O)c2cc(S(=O)(=O)C3CCNCC3)ccc2NC2CCCCC2)C1

>  <score_type>  (60) 
oracle

>  <origin>  (60) 
adg

>  <m_score__min__energy>  (60) 
-8.1500000000000004

>  <m_primary>  (60) 
energy

$$$$
60:0
     RDKit          3D

 71 74  0  0  0  0  0  0  0  0999 V2000
   64.9190   29.2560   53.1680 C   0  0  0  0  0  0  0  0  0  0  0  0
   65.3990   29.9050   51.9350 N   0  0  0  0  0  0  0  0  0  0  0  0
   66.6910   29.3140   51.5350 C   0  0  0  0  0  0  0  0  0  0  0  0
   65.5030   31.3680   52.1470 C   0  0  0  0  0  0  0  0  0  0  0  0
   64.2160   32.1110   51.7460 C   0  0  0  0  0  0  0  0  0  0  0  0
   63.6070   31.5130   50.5500 N   0  0  0  0  0  0  0  0  0  0  0  0
   63.9820   32.0020   49.2180 C   0  0  0  0  0  0  0  0  0  0  0  0
   62.8170   32.6950   48.5650 C   0  0  0  0  0  0  0  0  0  0  0  0
   62.2380   32.1740   47.3980 C   0  0  0  0  0  0  0  0  0  0  0  0
   61.1520   32.8190   46.8010 C   0  0  0  0  0  0  0  0  0  0  0  0
   60.6180   33.9890   47.3680 C   0  0  0  0  0  0  0  0  0  0  0  0
   59.4970   34.7090   46.7170 C   0  0  0  0  0  0  0  0  0  0  0  0
   59.6530   35.9100   46.3700 O   0  0  0  0  0  0  0  0  0  0  0  0
   58.2550   34.0630   46.4060 N   0  0  0  0  0  0  0  0  0  0  0  0
   58.0540   33.0560   45.4030 C   0  0  0  0  0  0  0  0  0  0  0  0
   58.0030   33.4490   44.0590 C   0  0  0  0  0  0  0  0  0  0  0  0
   57.7840   32.5020   43.0540 C   0  0  0  0  0  0  0  0  0  0  0  0
   57.5900   31.1590   43.3880 C   0  0  0  0  0  0  0  0  0  0  0  0
   57.6080   30.7630   44.7270 C   0  0  0  0  0  0  0  0  0  0  0  0
   57.8370   31.7030   45.7370 C   0  0  0  0  0  0  0  0  0  0  0  0
   57.7900   31.2970   47.0300 F   0  0  0  0  0  0  0  0  0  0  0  0
   61.1960   34.5010   48.5430 C   0  0  0  0  0  0  0  0  0  0  0  0
   62.2800   33.8540   49.1400 C   0  0  0  0  0  0  0  0  0  0  0  0
   62.4940   30.6110   50.6950 C   0  0  0  0  0  0  0  0  0  0  0  0
   62.7080   29.3840   50.8840 O   0  0  0  0  0  0  0  0  0  0  0  0
   61.0980   31.1080   50.6310 C   0  0  0  0  0  0  0  0  0  0  0  0
   60.6510   32.0560   51.5650 C   0  0  0  0  0  0  0  0  0  0  0  0
   59.3350   32.5210   51.5250 C   0  0  0  0  0  0  0  0  0  0  0  0
   58.4560   32.0520   50.5470 C   0  0  0  0  0  0  0  0  0  0  0  0
   58.8930   31.1220   49.6000 C   0  0  0  0  0  0  0  0  0  0  0  0
   60.2180   30.6510   49.6260 C   0  0  0  0  0  0  0  0  0  0  0  0
   60.7040   29.7570   48.6650 O   0  0  0  0  0  0  0  0  0  0  0  0
   60.3280   28.3930   48.5230 C   0  0  0  0  0  0  0  0  0  0  0  0
   59.6070   28.2510   47.2160 C   0  0  0  0  0  0  0  0  0  0  0  0
   60.3060   28.3970   46.0060 C   0  0  0  0  0  0  0  0  0  0  0  0
   59.6680   28.1410   44.7890 C   0  0  0  0  0  0  0  0  0  0  0  0
   58.3350   27.7210   44.7710 C   0  0  0  0  0  0  0  0  0  0  0  0
   57.6370   27.5560   45.9720 C   0  0  0  0  0  0  0  0  0  0  0  0
   56.3530   27.1210   45.9580 F   0  0  0  0  0  0  0  0  0  0  0  0
   58.2700   27.8180   47.1910 C   0  0  0  0  0  0  0  0  0  0  0  0
   65.3155   29.7921   54.0428 H   0  0  0  0  0  0  0  0  0  0  0  0
   63.8195   29.2798   53.1907 H   0  0  0  0  0  0  0  0  0  0  0  0
   65.2637   28.2117   53.1907 H   0  0  0  0  0  0  0  0  0  0  0  0
   64.6970   29.7170   51.1800 H   0  0  0  0  0  0  0  0  0  0  0  0
   67.2675   29.0503   52.4339 H   0  0  0  0  0  0  0  0  0  0  0  0
   66.5106   28.4089   50.9365 H   0  0  0  0  0  0  0  0  0  0  0  0
   67.2578   30.0424   50.9365 H   0  0  0  0  0  0  0  0  0  0  0  0
   65.7033   31.5575   53.2119 H   0  0  0  0  0  0  0  0  0  0  0  0
   66.3188   31.7423   51.5111 H   0  0  0  0  0  0  0  0  0  0  0  0
   63.4981   32.0595   52.5779 H   0  0  0  0  0  0  0  0  0  0  0  0
   64.4737   33.1562   51.5197 H   0  0  0  0  0  0  0  0  0  0  0  0
   64.8175   32.7110   49.3144 H   0  0  0  0  0  0  0  0  0  0  0  0
   64.2817   31.1460   48.5956 H   0  0  0  0  0  0  0  0  0  0  0  0
   62.6411   31.2533   46.9510 H   0  0  0  0  0  0  0  0  0  0  0  0
   60.7116   32.4082   45.8805 H   0  0  0  0  0  0  0  0  0  0  0  0
   58.1360   34.5081   43.7932 H   0  0  0  0  0  0  0  0  0  0  0  0
   57.7644   32.8144   41.9995 H   0  0  0  0  0  0  0  0  0  0  0  0
   57.4231   30.4139   42.5962 H   0  0  0  0  0  0  0  0  0  0  0  0
   57.4414   29.7076   44.9884 H   0  0  0  0  0  0  0  0  0  0  0  0
   60.7912   35.4183   48.9955 H   0  0  0  0  0  0  0  0  0  0  0  0
   62.7146   34.2567   50.0668 H   0  0  0  0  0  0  0  0  0  0  0  0
   61.3416   32.4347   52.3329 H   0  0  0  0  0  0  0  0  0  0  0  0
   58.9903   33.2580   52.2652 H   0  0  0  0  0  0  0  0  0  0  0  0
   57.4180   32.4151   50.5219 H   0  0  0  0  0  0  0  0  0  0  0  0
   58.1973   30.7565   48.8304 H   0  0  0  0  0  0  0  0  0  0  0  0
   61.2242   27.7552   48.5274 H   0  0  0  0  0  0  0  0  0  0  0  0
   59.6791   28.0842   49.3558 H   0  0  0  0  0  0  0  0  0  0  0  0
   61.3593   28.7140   46.0165 H   0  0  0  0  0  0  0  0  0  0  0  0
   60.2158   28.2703   43.8439 H   0  0  0  0  0  0  0  0  0  0  0  0
   57.8347   27.5202   43.8122 H   0  0  0  0  0  0  0  0  0  0  0  0
   57.7195   27.6847   48.1340 H   0  0  0  0  0  0  0  0  0  0  0  0
  1  2  1  0
  2  3  1  0
  2  4  1  0
  4  5  1  0
  5  6  1  0
  6  7  1  0
  7  8  1  0
  8  9  2  0
  9 10  1  0
 10 11  2  0
 11 12  1  0
 12 13  2  0
 12 14  1  0
 14 15  1  0
 15 16  2  0
 16 17  1  0
 17 18  2  0
 18 19  1  0
 19 20  2  0
 20 21  1  0
 11 22  1  0
 22 23  2  0
  6 24  1  0
 24 25  2  0
 24 26  1  0
 26 27  2  0
 27 28  1  0
 28 29  2  0
 29 30  1  0
 30 31  2  0
 31 32  1  0
 32 33  1  0
 33 34  1  0
 34 35  2  0
 35 36  1  0
 36 37  2  0
 37 38  1  0
 38 39  1  0
 38 40  2  0
 23  8  1  0
 31 26  1  0
 40 34  1  0
 20 15  1  0
  1 41  1  0
  1 42  1  0
  1 43  1  0
  2 44  1  0
  3 45  1  0
  3 46  1  0
  3 47  1  0
  4 48  1  0
  4 49  1  0
  5 50  1  0
  5 51  1  0
  7 52  1  0
  7 53  1  0
  9 54  1  0
 10 55  1  0
 16 56  1  0
 17 57  1  0
 18 58  1  0
 19 59  1  0
 22 60  1  0
 23 61  1  0
 27 62  1  0
 28 63  1  0
 29 64  1  0
 30 65  1  0
 33 66  1  0
 33 67  1  0
 35 68  1  0
 36 69  1  0
 37 70  1  0
 40 71  1  0
M  CHG  2   2   1  14  -1
M  END
>  <UniqueID>  (61) 
55

>  <SMILES>  (61) 
C[NH+](C)CCN(Cc1ccc(C(=O)[N-]c2ccccc2F)cc1)C(=O)c1ccccc1OCc1cccc(F)c1

>  <Energy>  (61) 
80.81657682767121

>  <Genealogy>  (61) 
C[NH+](C)CCN(Cc1ccc(C(=O)[N-]c2ccccc2F)cc1)C(=O)c1ccccc1OCc1cccc(F)c1 (protonated)
C[NH+](C)CCN(Cc1ccc(C(=O)[N-]c2ccccc2F)cc1)C(=O)c1ccccc1OCc1cccc(F)c1 (3D coordinates assigned)
C[NH+](C)CCN(Cc1ccc(C(=O)[N-]c2ccccc2F)cc1)C(=O)c1ccccc1OCc1cccc(F)c1 (optimized conformer: 80.81657682767121 kcal/mol)

>  <smiles>  (61) 
CN(C)CCN(Cc1ccc(C(=O)Nc2ccccc2F)cc1)C(=O)c1ccccc1OCc1cccc(F)c1

>  <score_type>  (61) 
oracle

>  <origin>  (61) 
adg

>  <m_score__min__energy>  (61) 
-9.9499999999999993

>  <m_primary>  (61) 
energy

$$$$
61:0
     RDKit          3D

 39 41  0  0  0  0  0  0  0  0999 V2000
   54.9267   29.0778   51.9130 H   0  0  0  0  0  0  0  0  0  0  0  0
   54.6990   30.1540   51.9090 C   0  0  0  0  0  0  0  0  0  0  0  0
   55.5750   30.9910   52.4870 C   0  0  0  0  0  0  0  0  0  0  0  0
   55.2592   31.5456   53.3829 H   0  0  0  0  0  0  0  0  0  0  0  0
   56.9480   31.2010   51.9720 C   0  0  0  0  0  0  0  0  0  0  0  0
   57.3950   32.2890   51.2330 C   0  0  0  0  0  0  0  0  0  0  0  0
   56.8062   33.1673   50.9298 H   0  0  0  0  0  0  0  0  0  0  0  0
   58.7310   32.0470   50.9540 C   0  0  0  0  0  0  0  0  0  0  0  0
   59.6400   32.8860   50.1470 C   0  0  0  0  0  0  0  0  0  0  0  0
   60.7500   33.2250   50.6410 O   0  0  0  0  0  0  0  0  0  0  0  0
   59.2990   33.3290   48.7760 C   0  0  0  0  0  0  0  0  0  0  0  0
   58.4280   32.5790   47.9650 C   0  0  0  0  0  0  0  0  0  0  0  0
   57.9999   31.6399   48.3456 H   0  0  0  0  0  0  0  0  0  0  0  0
   58.1030   33.0190   46.6790 C   0  0  0  0  0  0  0  0  0  0  0  0
   57.4290   32.4210   46.0481 H   0  0  0  0  0  0  0  0  0  0  0  0
   58.6330   34.2180   46.1930 C   0  0  0  0  0  0  0  0  0  0  0  0
   58.3090   34.6540   44.9140 O   0  0  0  0  0  0  0  0  0  0  0  0
   59.4850   34.9800   46.9970 C   0  0  0  0  0  0  0  0  0  0  0  0
   59.8991   35.9254   46.6165 H   0  0  0  0  0  0  0  0  0  0  0  0
   59.8120   34.5430   48.2840 C   0  0  0  0  0  0  0  0  0  0  0  0
   60.4747   35.1523   48.9161 H   0  0  0  0  0  0  0  0  0  0  0  0
   59.0420   30.8210   51.5100 C   0  0  0  0  0  0  0  0  0  0  0  0
   60.0250   30.3307   51.4527 H   0  0  0  0  0  0  0  0  0  0  0  0
   57.9590   30.3170   52.1330 N   0  0  0  0  0  0  0  0  0  0  0  0
   57.9020   29.0310   52.8240 C   0  0  0  0  0  0  0  0  0  0  0  0
   57.9094   29.1983   53.9112 H   0  0  0  0  0  0  0  0  0  0  0  0
   56.9796   28.5030   52.5405 H   0  0  0  0  0  0  0  0  0  0  0  0
   58.7741   28.4235   52.5405 H   0  0  0  0  0  0  0  0  0  0  0  0
   53.4400   30.6030   51.2650 C   0  0  0  0  0  0  0  0  0  0  0  0
   52.8650   29.9250   50.1700 C   0  0  0  0  0  0  0  0  0  0  0  0
   53.3485   29.0209   49.7714 H   0  0  0  0  0  0  0  0  0  0  0  0
   51.6830   30.3960   49.5880 C   0  0  0  0  0  0  0  0  0  0  0  0
   51.1220   29.7190   48.5110 O   0  0  0  0  0  0  0  0  0  0  0  0
   51.0670   31.5470   50.0840 C   0  0  0  0  0  0  0  0  0  0  0  0
   50.1337   31.9106   49.6293 H   0  0  0  0  0  0  0  0  0  0  0  0
   51.6360   32.2370   51.1580 C   0  0  0  0  0  0  0  0  0  0  0  0
   51.0280   33.3870   51.6450 O   0  0  0  0  0  0  0  0  0  0  0  0
   52.8190   31.7720   51.7410 C   0  0  0  0  0  0  0  0  0  0  0  0
   53.2679   32.3252   52.5791 H   0  0  0  0  0  0  0  0  0  0  0  0
  1  2  1  0
  2  3  2  0
  3  4  1  0
  3  5  1  0
  5  6  2  0
  6  7  1  0
  6  8  1  0
  8  9  1  0
  9 10  2  0
  9 11  1  0
 11 12  2  0
 12 13  1  0
 12 14  1  0
 14 15  1  0
 14 16  2  0
 16 17  1  0
 16 18  1  0
 18 19  1  0
 18 20  2  0
 20 21  1  0
  8 22  2  0
 22 23  1  0
 22 24  1  0
 24 25  1  0
 25 26  1  0
 25 27  1  0
 25 28  1  0
  2 29  1  0
 29 30  2  0
 30 31  1  0
 30 32  1  0
 32 33  1  0
 32 34  2  0
 34 35  1  0
 34 36  1  0
 36 37  1  0
 36 38  2  0
 38 39  1  0
 24  5  1  0
 38 29  1  0
 20 11  1  0
M  CHG  3  17  -1  33  -1  37  -1
M  END
>  <UniqueID>  (62) 
56

>  <SMILES>  (62) 
Cn1cc(C(=O)c2ccc([O-])cc2)cc1/C=C/c1cc([O-])cc([O-])c1

>  <Energy>  (62) 
74.55320797828314

>  <Genealogy>  (62) 
Cn1cc(C(=O)c2ccc([O-])cc2)cc1C=Cc1cc([O-])cc([O-])c1 (protonated)
Cn1cc(C(=O)c2ccc([O-])cc2)cc1/C=C/c1cc([O-])cc([O-])c1 (cis-trans isomerization)
Cn1cc(C(=O)c2ccc([O-])cc2)cc1/C=C/c1cc([O-])cc([O-])c1 (3D coordinates assigned)
Cn1cc(C(=O)c2ccc([O-])cc2)cc1/C=C/c1cc([O-])cc([O-])c1 (optimized conformer: 74.55320797828314 kcal/mol)

>  <smiles>  (62) 
Cn1cc(C(=O)c2ccc(O)cc2)cc1C=Cc1cc(O)cc(O)c1

>  <score_type>  (62) 
oracle

>  <origin>  (62) 
adg

>  <m_score__min__energy>  (62) 
-14.5

>  <m_primary>  (62) 
energy

$$$$
62:0
     RDKit          3D

 77 82  0  0  0  0  0  0  0  0999 V2000
   58.6440   31.8080   52.5960 C   0  0  0  0  0  0  0  0  0  0  0  0
   60.0150   31.5390   52.8690 O   0  0  0  0  0  0  0  0  0  0  0  0
   61.0610   31.7430   51.9530 C   0  0  0  0  0  0  0  0  0  0  0  0
   60.9210   32.5990   50.8440 C   0  0  0  0  0  0  0  0  0  0  0  0
   61.9760   32.7730   49.9300 C   0  0  0  0  0  0  0  0  0  0  0  0
   61.8920   33.6520   48.8240 C   0  0  0  0  0  0  0  0  0  0  0  0
   60.7400   34.3940   48.5300 O   0  0  0  0  0  0  0  0  0  0  0  0
   59.8650   34.1460   47.4620 C   0  0  0  0  0  0  0  0  0  0  0  0
   60.0970   34.8120   46.2560 C   0  0  0  0  0  0  0  0  0  0  0  0
   59.2780   34.6200   45.1880 N   0  0  0  0  0  0  0  0  0  0  0  0
   58.2330   33.7460   45.2390 C   0  0  0  0  0  0  0  0  0  0  0  0
   57.4340   33.4920   44.0780 N   0  0  0  0  0  0  0  0  0  0  0  0
   57.5670   32.3090   43.2870 C   0  0  0  0  0  0  0  0  0  0  0  0
   57.7440   32.4210   42.0430 O   0  0  0  0  0  0  0  0  0  0  0  0
   57.5430   30.9720   43.9180 C   0  0  0  0  0  0  0  0  0  0  0  0
   58.7420   30.3260   44.2590 C   0  0  0  0  0  0  0  0  0  0  0  0
   58.7320   29.0170   44.7490 C   0  0  0  0  0  0  0  0  0  0  0  0
   57.5190   28.3290   44.9270 C   0  0  0  0  0  0  0  0  0  0  0  0
   57.5080   26.9090   45.3840 C   0  0  0  0  0  0  0  0  0  0  0  0
   57.2990   26.5860   46.7400 C   0  0  0  0  0  0  0  0  0  0  0  0
   57.3260   25.2550   47.1660 C   0  0  0  0  0  0  0  0  0  0  0  0
   57.5590   24.2290   46.2500 C   0  0  0  0  0  0  0  0  0  0  0  0
   57.7680   24.5310   44.9030 C   0  0  0  0  0  0  0  0  0  0  0  0
   57.7470   25.8610   44.4700 C   0  0  0  0  0  0  0  0  0  0  0  0
   56.3140   28.9970   44.6290 C   0  0  0  0  0  0  0  0  0  0  0  0
   56.3270   30.2990   44.1180 C   0  0  0  0  0  0  0  0  0  0  0  0
   57.9810   33.0340   46.4140 C   0  0  0  0  0  0  0  0  0  0  0  0
   58.7860   33.2410   47.5390 C   0  0  0  0  0  0  0  0  0  0  0  0
   58.4670   32.2810   48.9750 Cl  0  0  0  0  0  0  0  0  0  0  0  0
   63.0140   33.8380   48.0100 C   0  0  0  0  0  0  0  0  0  0  0  0
   64.1860   33.1280   48.2650 C   0  0  0  0  0  0  0  0  0  0  0  0
   64.2480   32.2770   49.3200 N   0  0  0  0  0  0  0  0  0  0  0  0
   63.1930   32.0880   50.1550 C   0  0  0  0  0  0  0  0  0  0  0  0
   63.3340   31.2450   51.2590 C   0  0  0  0  0  0  0  0  0  0  0  0
   62.2770   31.0780   52.1720 C   0  0  0  0  0  0  0  0  0  0  0  0
   62.4050   30.2750   53.3180 O   0  0  0  0  0  0  0  0  0  0  0  0
   61.9780   28.9160   53.3900 C   0  0  0  0  0  0  0  0  0  0  0  0
   62.1330   28.2480   52.0230 C   0  0  0  0  0  0  0  0  0  0  0  0
   60.8200   28.2800   51.2260 C   0  0  0  0  0  0  0  0  0  0  0  0
   61.0800   28.4110   49.7780 N   0  0  0  0  0  0  0  0  0  0  0  0
   60.4090   27.3830   48.9730 C   0  0  0  0  0  0  0  0  0  0  0  0
   60.1140   28.0000   47.6080 C   0  0  0  0  0  0  0  0  0  0  0  0
   60.3970   29.4830   47.7600 C   0  0  0  0  0  0  0  0  0  0  0  0
   60.6000   29.6890   49.2480 C   0  0  0  0  0  0  0  0  0  0  0  0
   58.0957   31.9156   53.5435 H   0  0  0  0  0  0  0  0  0  0  0  0
   58.5614   32.7395   52.0168 H   0  0  0  0  0  0  0  0  0  0  0  0
   58.2155   30.9768   52.0168 H   0  0  0  0  0  0  0  0  0  0  0  0
   59.9748   33.1385   50.6904 H   0  0  0  0  0  0  0  0  0  0  0  0
   60.9516   35.4992   46.1696 H   0  0  0  0  0  0  0  0  0  0  0  0
   59.4880   35.1380   44.3060 H   0  0  0  0  0  0  0  0  0  0  0  0
   59.6988   30.8553   44.1393 H   0  0  0  0  0  0  0  0  0  0  0  0
   59.6817   28.5207   44.9976 H   0  0  0  0  0  0  0  0  0  0  0  0
   57.1131   27.3883   47.4692 H   0  0  0  0  0  0  0  0  0  0  0  0
   57.1630   25.0158   48.2272 H   0  0  0  0  0  0  0  0  0  0  0  0
   57.5780   23.1826   46.5888 H   0  0  0  0  0  0  0  0  0  0  0  0
   57.9496   23.7214   44.1808 H   0  0  0  0  0  0  0  0  0  0  0  0
   57.9182   26.0917   43.4082 H   0  0  0  0  0  0  0  0  0  0  0  0
   55.3534   28.4890   44.8001 H   0  0  0  0  0  0  0  0  0  0  0  0
   55.3787   30.7988   43.8713 H   0  0  0  0  0  0  0  0  0  0  0  0
   57.1517   32.3124   46.4545 H   0  0  0  0  0  0  0  0  0  0  0  0
   62.9715   34.5449   47.1683 H   0  0  0  0  0  0  0  0  0  0  0  0
   65.0608   33.2576   47.6109 H   0  0  0  0  0  0  0  0  0  0  0  0
   64.2802   30.7066   51.4163 H   0  0  0  0  0  0  0  0  0  0  0  0
   62.5910   28.3799   54.1294 H   0  0  0  0  0  0  0  0  0  0  0  0
   60.9203   28.8844   53.6904 H   0  0  0  0  0  0  0  0  0  0  0  0
   62.9099   28.7782   51.4526 H   0  0  0  0  0  0  0  0  0  0  0  0
   62.4125   27.1963   52.1836 H   0  0  0  0  0  0  0  0  0  0  0  0
   60.2661   27.3474   51.4086 H   0  0  0  0  0  0  0  0  0  0  0  0
   60.2324   29.1495   51.5555 H   0  0  0  0  0  0  0  0  0  0  0  0
   61.0648   26.5075   48.8571 H   0  0  0  0  0  0  0  0  0  0  0  0
   59.4806   27.0500   49.4599 H   0  0  0  0  0  0  0  0  0  0  0  0
   60.7672   27.5614   46.8392 H   0  0  0  0  0  0  0  0  0  0  0  0
   59.0765   27.8141   47.2932 H   0  0  0  0  0  0  0  0  0  0  0  0
   61.3031   29.7635   47.2030 H   0  0  0  0  0  0  0  0  0  0  0  0
   59.5805   30.1039   47.3629 H   0  0  0  0  0  0  0  0  0  0  0  0
   61.3450   30.4787   49.4251 H   0  0  0  0  0  0  0  0  0  0  0  0
   59.6665   30.0005   49.7396 H   0  0  0  0  0  0  0  0  0  0  0  0
  1  2  1  0
  2  3  1  0
  3  4  2  0
  4  5  1  0
  5  6  2  0
  6  7  1  0
  7  8  1  0
  8  9  2  0
  9 10  1  0
 10 11  2  0
 11 12  1  0
 12 13  1  0
 13 14  2  0
 13 15  1  0
 15 16  2  0
 16 17  1  0
 17 18  2  0
 18 19  1  0
 19 20  2  0
 20 21  1  0
 21 22  2  0
 22 23  1  0
 23 24  2  0
 18 25  1  0
 25 26  2  0
 11 27  1  0
 27 28  2  0
 28 29  1  0
  6 30  1  0
 30 31  2  0
 31 32  1  0
 32 33  2  0
 33 34  1  0
 34 35  2  0
 35 36  1  0
 36 37  1  0
 37 38  1  0
 38 39  1  0
 39 40  1  0
 40 41  1  0
 41 42  1  0
 42 43  1  0
 43 44  1  0
 35  3  1  0
 44 40  1  0
 33  5  1  0
 28  8  1  0
 26 15  1  0
 24 19  1  0
  1 45  1  0
  1 46  1  0
  1 47  1  0
  4 48  1  0
  9 49  1  0
 10 50  1  0
 16 51  1  0
 17 52  1  0
 20 53  1  0
 21 54  1  0
 22 55  1  0
 23 56  1  0
 24 57  1  0
 25 58  1  0
 26 59  1  0
 27 60  1  0
 30 61  1  0
 31 62  1  0
 34 63  1  0
 37 64  1  0
 37 65  1  0
 38 66  1  0
 38 67  1  0
 39 68  1  0
 39 69  1  0
 41 70  1  0
 41 71  1  0
 42 72  1  0
 42 73  1  0
 43 74  1  0
 43 75  1  0
 44 76  1  0
 44 77  1  0
M  CHG  2  10   1  12  -1
M  END
>  <UniqueID>  (63) 
57

>  <SMILES>  (63) 
COc1cc2c(Oc3c[nH+]c([N-]C(=O)c4ccc(-c5ccccc5)cc4)cc3Cl)ccnc2cc1OCCCN1CCCC1

>  <Energy>  (63) 
110.579336009418

>  <Genealogy>  (63) 
COc1cc2c(Oc3c[nH+]c([N-]C(=O)c4ccc(-c5ccccc5)cc4)cc3Cl)ccnc2cc1OCCCN1CCCC1 (protonated)
COc1cc2c(Oc3c[nH+]c([N-]C(=O)c4ccc(-c5ccccc5)cc4)cc3Cl)ccnc2cc1OCCCN1CCCC1 (3D coordinates assigned)
COc1cc2c(Oc3c[nH+]c([N-]C(=O)c4ccc(-c5ccccc5)cc4)cc3Cl)ccnc2cc1OCCCN1CCCC1 (nonaromatic ring conformer: 110.579336009418 kcal/mol)

>  <smiles>  (63) 
COc1cc2c(Oc3cnc(NC(=O)c4ccc(-c5ccccc5)cc4)cc3Cl)ccnc2cc1OCCCN1CCCC1

>  <score_type>  (63) 
oracle

>  <origin>  (63) 
adg

>  <m_score__min__energy>  (63) 
-11.289999999999999

>  <m_primary>  (63) 
energy

$$$$
63:0
     RDKit          3D

 52 54  0  0  0  0  0  0  0  0999 V2000
   57.8370   23.8440   45.0320 C   0  0  0  0  0  0  0  0  0  0  0  0
   57.7630   25.3160   44.6370 C   0  0  0  0  0  0  0  0  0  0  0  0
   58.8330   26.0820   45.2780 N   0  0  0  0  0  0  0  0  0  0  0  0
   58.8410   27.5160   45.4420 C   0  0  0  0  0  0  0  0  0  0  0  0
   59.6890   28.1570   46.3650 C   0  0  0  0  0  0  0  0  0  0  0  0
   59.6890   29.5660   46.5160 C   0  0  0  0  0  0  0  0  0  0  0  0
   60.5880   30.2330   47.4630 N   0  0  0  0  0  0  0  0  0  0  0  0
   60.4260   29.9660   48.9100 C   0  0  0  0  0  0  0  0  0  0  0  0
   61.4650   30.6410   49.8140 C   0  0  0  0  0  0  0  0  0  0  0  0
   61.8710   31.9660   49.3340 N   0  0  0  0  0  0  0  0  0  0  0  0
   60.7790   32.9540   49.3770 C   0  0  0  0  0  0  0  0  0  0  0  0
   62.4820   31.8450   48.0060 C   0  0  0  0  0  0  0  0  0  0  0  0
   61.5300   31.2540   46.9550 C   0  0  0  0  0  0  0  0  0  0  0  0
   58.7830   30.3080   45.7230 C   0  0  0  0  0  0  0  0  0  0  0  0
   57.9400   29.6780   44.8020 C   0  0  0  0  0  0  0  0  0  0  0  0
   56.8500   30.6420   43.8070 S   0  0  0  0  0  0  0  0  0  0  0  0
   55.5220   30.7370   44.5020 O   0  0  0  0  0  0  0  0  0  0  0  0
   56.6560   30.0010   42.4600 O   0  0  0  0  0  0  0  0  0  0  0  0
   57.4960   32.2380   43.5850 N   0  0  0  0  0  0  0  0  0  0  0  0
   57.9980   33.0550   44.6590 C   0  0  0  0  0  0  0  0  0  0  0  0
   57.3260   33.0510   45.8930 C   0  0  0  0  0  0  0  0  0  0  0  0
   57.7990   33.8200   46.9610 C   0  0  0  0  0  0  0  0  0  0  0  0
   58.9430   34.6050   46.8060 C   0  0  0  0  0  0  0  0  0  0  0  0
   59.6130   34.6270   45.5810 C   0  0  0  0  0  0  0  0  0  0  0  0
   59.1440   33.8610   44.5100 C   0  0  0  0  0  0  0  0  0  0  0  0
   57.9680   28.2880   44.6690 C   0  0  0  0  0  0  0  0  0  0  0  0
   57.8413   23.7584   46.1287 H   0  0  0  0  0  0  0  0  0  0  0  0
   56.9645   23.3111   44.6261 H   0  0  0  0  0  0  0  0  0  0  0  0
   58.7585   23.4013   44.6261 H   0  0  0  0  0  0  0  0  0  0  0  0
   57.8630   25.4015   43.5449 H   0  0  0  0  0  0  0  0  0  0  0  0
   56.7946   25.7206   44.9664 H   0  0  0  0  0  0  0  0  0  0  0  0
   59.6480   25.5400   45.6420 H   0  0  0  0  0  0  0  0  0  0  0  0
   60.3671   27.5502   46.9831 H   0  0  0  0  0  0  0  0  0  0  0  0
   59.4293   30.3194   49.2127 H   0  0  0  0  0  0  0  0  0  0  0  0
   60.5632   28.8823   49.0399 H   0  0  0  0  0  0  0  0  0  0  0  0
   61.0352   30.7499   50.8207 H   0  0  0  0  0  0  0  0  0  0  0  0
   62.3617   30.0038   49.8157 H   0  0  0  0  0  0  0  0  0  0  0  0
   60.5297   33.1796   50.4244 H   0  0  0  0  0  0  0  0  0  0  0  0
   61.0986   33.8761   48.8694 H   0  0  0  0  0  0  0  0  0  0  0  0
   59.8934   32.5440   48.8694 H   0  0  0  0  0  0  0  0  0  0  0  0
   62.7942   32.8455   47.6720 H   0  0  0  0  0  0  0  0  0  0  0  0
   63.3348   31.1566   48.0994 H   0  0  0  0  0  0  0  0  0  0  0  0
   60.9405   32.0785   46.5277 H   0  0  0  0  0  0  0  0  0  0  0  0
   62.1673   30.7424   46.2187 H   0  0  0  0  0  0  0  0  0  0  0  0
   58.7406   31.4017   45.8328 H   0  0  0  0  0  0  0  0  0  0  0  0
   57.4130   32.6530   42.6300 H   0  0  0  0  0  0  0  0  0  0  0  0
   56.4212   32.4385   46.0199 H   0  0  0  0  0  0  0  0  0  0  0  0
   57.2688   33.8063   47.9247 H   0  0  0  0  0  0  0  0  0  0  0  0
   59.3164   35.2058   47.6483 H   0  0  0  0  0  0  0  0  0  0  0  0
   60.5121   35.2487   45.4586 H   0  0  0  0  0  0  0  0  0  0  0  0
   59.6725   33.8876   43.5456 H   0  0  0  0  0  0  0  0  0  0  0  0
   57.2971   27.7959   43.9495 H   0  0  0  0  0  0  0  0  0  0  0  0
  1  2  1  0
  2  3  1  0
  3  4  1  0
  4  5  2  0
  5  6  1  0
  6  7  1  0
  7  8  1  0
  8  9  1  0
  9 10  1  0
 10 11  1  0
 10 12  1  0
 12 13  1  0
  6 14  2  0
 14 15  1  0
 15 16  1  0
 16 17  2  0
 16 18  2  0
 16 19  1  0
 19 20  1  0
 20 21  2  0
 21 22  1  0
 22 23  2  0
 23 24  1  0
 24 25  2  0
 15 26  2  0
 26  4  1  0
 13  7  1  0
 25 20  1  0
  1 27  1  0
  1 28  1  0
  1 29  1  0
  2 30  1  0
  2 31  1  0
  3 32  1  0
  5 33  1  0
  8 34  1  0
  8 35  1  0
  9 36  1  0
  9 37  1  0
 11 38  1  0
 11 39  1  0
 11 40  1  0
 12 41  1  0
 12 42  1  0
 13 43  1  0
 13 44  1  0
 14 45  1  0
 19 46  1  0
 21 47  1  0
 22 48  1  0
 23 49  1  0
 24 50  1  0
 25 51  1  0
 26 52  1  0
M  END
>  <UniqueID>  (64) 
58

>  <SMILES>  (64) 
CCNc1cc(N2CCN(C)CC2)cc(S(=O)(=O)Nc2ccccc2)c1

>  <Energy>  (64) 
62.896480943463715

>  <Genealogy>  (64) 
CCNc1cc(N2CCN(C)CC2)cc(S(=O)(=O)Nc2ccccc2)c1 (3D coordinates assigned)
CCNc1cc(N2CCN(C)CC2)cc(S(=O)(=O)Nc2ccccc2)c1 (nonaromatic ring conformer: 62.896480943463715 kcal/mol)

>  <smiles>  (64) 
CCNc1cc(N2CCN(C)CC2)cc(S(=O)(=O)Nc2ccccc2)c1

>  <score_type>  (64) 
oracle

>  <origin>  (64) 
adg

>  <m_score__min__energy>  (64) 
-8.0199999999999996

>  <m_primary>  (64) 
energy

$$$$
64:0
     RDKit          3D

 15 15  0  0  0  0  0  0  0  0999 V2000
   58.1330   32.4450   42.9140 C   0  0  0  0  0  0  0  0  0  0  0  0
   58.2070   33.0360   44.2560 N   0  0  0  0  0  0  0  0  0  0  0  0
   59.0560   34.0850   44.4880 C   0  0  0  0  0  0  0  0  0  0  0  0
   59.1430   34.6620   45.7570 C   0  0  0  0  0  0  0  0  0  0  0  0
   58.3580   34.1620   46.7930 C   0  0  0  0  0  0  0  0  0  0  0  0
   57.4960   33.0940   46.5520 C   0  0  0  0  0  0  0  0  0  0  0  0
   57.4290   32.5370   45.2710 C   0  0  0  0  0  0  0  0  0  0  0  0
   56.6450   31.5700   45.0620 O   0  0  0  0  0  0  0  0  0  0  0  0
   57.9967   31.3568   42.9996 H   0  0  0  0  0  0  0  0  0  0  0  0
   57.2822   32.8793   42.3685 H   0  0  0  0  0  0  0  0  0  0  0  0
   59.0646   32.6561   42.3685 H   0  0  0  0  0  0  0  0  0  0  0  0
   59.6751   34.4768   43.6675 H   0  0  0  0  0  0  0  0  0  0  0  0
   59.8264   35.5050   45.9368 H   0  0  0  0  0  0  0  0  0  0  0  0
   58.4181   34.6080   47.7967 H   0  0  0  0  0  0  0  0  0  0  0  0
   56.8724   32.6917   47.3640 H   0  0  0  0  0  0  0  0  0  0  0  0
  1  2  1  0
  2  3  1  0
  3  4  2  0
  4  5  1  0
  5  6  2  0
  6  7  1  0
  7  8  2  0
  7  2  1  0
  1  9  1  0
  1 10  1  0
  1 11  1  0
  3 12  1  0
  4 13  1  0
  5 14  1  0
  6 15  1  0
M  END
>  <UniqueID>  (65) 
59

>  <SMILES>  (65) 
Cn1ccccc1=O

>  <Energy>  (65) 
15.375703222593494

>  <Genealogy>  (65) 
Cn1ccccc1=O (3D coordinates assigned)
Cn1ccccc1=O (optimized conformer: 15.375703222593494 kcal/mol)

>  <smiles>  (65) 
Cn1ccccc1=O

>  <score_type>  (65) 
oracle

>  <origin>  (65) 
adg

>  <m_score__min__energy>  (65) 
-3.8599999999999999

>  <m_primary>  (65) 
energy

$$$$
65:0
     RDKit          3D

 42 44  0  0  0  0  0  0  0  0999 V2000
   57.7740   32.3810   40.8520 C   0  0  0  0  0  0  0  0  0  0  0  0
   57.4430   31.8670   42.2290 C   0  0  0  0  0  0  0  0  0  0  0  0
   57.9880   32.4930   43.3530 C   0  0  0  0  0  0  0  0  0  0  0  0
   57.6810   32.0200   44.6140 C   0  0  0  0  0  0  0  0  0  0  0  0
   58.2490   32.6760   45.7400 N   0  0  0  0  0  0  0  0  0  0  0  0
   58.8930   33.9540   45.4960 C   0  0  0  0  0  0  0  0  0  0  0  0
   59.2190   34.6720   46.7740 C   0  0  0  0  0  0  0  0  0  0  0  0
   59.7820   33.8910   47.7840 N   0  0  0  0  0  0  0  0  0  0  0  0
   60.4830   34.5340   48.8180 C   0  0  0  0  0  0  0  0  0  0  0  0
   61.8930   34.0210   48.8280 C   0  0  0  0  0  0  0  0  0  0  0  0
   62.5330   33.6370   47.6720 C   0  0  0  0  0  0  0  0  0  0  0  0
   63.8290   33.1660   47.6860 C   0  0  0  0  0  0  0  0  0  0  0  0
   64.4950   33.0790   48.8780 C   0  0  0  0  0  0  0  0  0  0  0  0
   63.8950   33.4520   50.0650 C   0  0  0  0  0  0  0  0  0  0  0  0
   64.5470   33.3680   51.2380 F   0  0  0  0  0  0  0  0  0  0  0  0
   62.6010   33.9170   50.0060 C   0  0  0  0  0  0  0  0  0  0  0  0
   59.4880   32.5270   47.8650 C   0  0  0  0  0  0  0  0  0  0  0  0
   58.2260   32.1650   47.0780 C   0  0  0  0  0  0  0  0  0  0  0  0
   56.8640   30.9670   44.6900 N   0  0  0  0  0  0  0  0  0  0  0  0
   56.3300   30.3540   43.6140 C   0  0  0  0  0  0  0  0  0  0  0  0
   55.5420   29.3390   43.6920 N   0  0  0  0  0  0  0  0  0  0  0  0
   56.6290   30.8150   42.3750 N   0  0  0  0  0  0  0  0  0  0  0  0
   58.3677   33.3030   40.9377 H   0  0  0  0  0  0  0  0  0  0  0  0
   58.3531   31.6214   40.3065 H   0  0  0  0  0  0  0  0  0  0  0  0
   56.8428   32.5939   40.3065 H   0  0  0  0  0  0  0  0  0  0  0  0
   58.6577   33.3575   43.2344 H   0  0  0  0  0  0  0  0  0  0  0  0
   59.8250   33.7813   44.9378 H   0  0  0  0  0  0  0  0  0  0  0  0
   58.1960   34.5818   44.9215 H   0  0  0  0  0  0  0  0  0  0  0  0
   59.9283   35.4785   46.5363 H   0  0  0  0  0  0  0  0  0  0  0  0
   58.2561   35.0250   47.1717 H   0  0  0  0  0  0  0  0  0  0  0  0
   60.4846   35.6204   48.6455 H   0  0  0  0  0  0  0  0  0  0  0  0
   60.0004   34.3288   49.7849 H   0  0  0  0  0  0  0  0  0  0  0  0
   61.9979   33.7074   46.7135 H   0  0  0  0  0  0  0  0  0  0  0  0
   64.3215   32.8638   46.7500 H   0  0  0  0  0  0  0  0  0  0  0  0
   65.5292   32.7044   48.8914 H   0  0  0  0  0  0  0  0  0  0  0  0
   62.1091   34.2196   50.9422 H   0  0  0  0  0  0  0  0  0  0  0  0
   60.3360   31.9561   47.4587 H   0  0  0  0  0  0  0  0  0  0  0  0
   59.3120   32.2794   48.9222 H   0  0  0  0  0  0  0  0  0  0  0  0
   58.1387   31.0693   47.0358 H   0  0  0  0  0  0  0  0  0  0  0  0
   57.3678   32.6193   47.5948 H   0  0  0  0  0  0  0  0  0  0  0  0
   56.6040   30.5770   45.6170 H   0  0  0  0  0  0  0  0  0  0  0  0
   55.1410   28.8380   42.8830 H   0  0  0  0  0  0  0  0  0  0  0  0
  1  2  1  0
  2  3  1  0
  3  4  2  0
  4  5  1  0
  5  6  1  0
  6  7  1  0
  7  8  1  0
  8  9  1  0
  9 10  1  0
 10 11  2  0
 11 12  1  0
 12 13  2  0
 13 14  1  0
 14 15  1  0
 14 16  2  0
  8 17  1  0
 17 18  1  0
  4 19  1  0
 19 20  1  0
 20 21  2  3
 20 22  1  0
 22  2  2  0
 18  5  1  0
 16 10  1  0
  1 23  1  0
  1 24  1  0
  1 25  1  0
  3 26  1  0
  6 27  1  0
  6 28  1  0
  7 29  1  0
  7 30  1  0
  9 31  1  0
  9 32  1  0
 11 33  1  0
 12 34  1  0
 13 35  1  0
 16 36  1  0
 17 37  1  0
 17 38  1  0
 18 39  1  0
 18 40  1  0
 19 41  1  0
 21 42  1  0
M  END
>  <smiles>  (66) 
Cc1cc(N2CCN(Cc3cccc(F)c3)CC2)[nH]c(=N)n1

>  <score_type>  (66) 
oracle

>  <origin>  (66) 
adg

>  <m_score__min__energy>  (66) 
-7.8300000000000001

>  <m_primary>  (66) 
energy

$$$$
66:0
     RDKit          3D

 49 51  0  0  0  0  0  0  0  0999 V2000
   56.6370   34.7634   45.7576 H   0  0  0  0  0  0  0  0  0  0  0  0
   57.2600   33.8570   45.7410 C   0  0  0  0  0  0  0  0  0  0  0  0
   56.7500   32.6940   45.2630 N   0  0  0  0  0  0  0  0  0  0  0  0
   57.5000   31.5620   45.2270 C   0  0  0  0  0  0  0  0  0  0  0  0
   56.9650   30.4600   44.7880 N   0  0  0  0  0  0  0  0  0  0  0  0
   57.4270   29.1200   45.0340 C   0  0  0  0  0  0  0  0  0  0  0  0
   57.7330   28.3040   43.9380 C   0  0  0  0  0  0  0  0  0  0  0  0
   57.5950   28.6871   42.9162 H   0  0  0  0  0  0  0  0  0  0  0  0
   58.2130   27.0050   44.1340 C   0  0  0  0  0  0  0  0  0  0  0  0
   58.4248   26.3637   43.2657 H   0  0  0  0  0  0  0  0  0  0  0  0
   58.4260   26.5150   45.4310 C   0  0  0  0  0  0  0  0  0  0  0  0
   58.9240   25.1380   45.6310 C   0  0  0  0  0  0  0  0  0  0  0  0
   59.9600   24.9600   46.3280 O   0  0  0  0  0  0  0  0  0  0  0  0
   58.2540   24.0000   45.0520 N   0  0  0  0  0  0  0  0  0  0  0  0
   58.9620   22.7160   45.0120 C   0  0  0  0  0  0  0  0  0  0  0  0
   59.1526   22.3703   46.0387 H   0  0  0  0  0  0  0  0  0  0  0  0
   58.3457   21.9737   44.4836 H   0  0  0  0  0  0  0  0  0  0  0  0
   59.9187   22.8411   44.4836 H   0  0  0  0  0  0  0  0  0  0  0  0
   56.8440   24.0820   44.6350 C   0  0  0  0  0  0  0  0  0  0  0  0
   56.5418   25.1389   44.5949 H   0  0  0  0  0  0  0  0  0  0  0  0
   56.2308   23.5327   45.3645 H   0  0  0  0  0  0  0  0  0  0  0  0
   56.6410   23.4500   43.2530 C   0  0  0  0  0  0  0  0  0  0  0  0
   57.6124   23.3738   42.7425 H   0  0  0  0  0  0  0  0  0  0  0  0
   55.9564   24.0814   42.6676 H   0  0  0  0  0  0  0  0  0  0  0  0
   56.0580   22.1100   43.3870 N   0  0  0  0  0  0  0  0  0  0  0  0
   55.8340   21.9510   44.3980 H   0  0  0  0  0  0  0  0  0  0  0  0
   57.0300   21.0910   42.9870 C   0  0  0  0  0  0  0  0  0  0  0  0
   57.4690   20.6307   43.8844 H   0  0  0  0  0  0  0  0  0  0  0  0
   56.5258   20.3184   42.3880 H   0  0  0  0  0  0  0  0  0  0  0  0
   57.8256   21.5582   42.3880 H   0  0  0  0  0  0  0  0  0  0  0  0
   58.1310   27.3360   46.5310 C   0  0  0  0  0  0  0  0  0  0  0  0
   58.2778   26.9551   47.5525 H   0  0  0  0  0  0  0  0  0  0  0  0
   57.6520   28.6340   46.3360 C   0  0  0  0  0  0  0  0  0  0  0  0
   57.4498   29.2791   47.2037 H   0  0  0  0  0  0  0  0  0  0  0  0
   58.7790   31.5910   45.6910 N   0  0  0  0  0  0  0  0  0  0  0  0
   59.3440   32.7320   46.1700 C   0  0  0  0  0  0  0  0  0  0  0  0
   60.7420   32.6830   46.6600 C   0  0  0  0  0  0  0  0  0  0  0  0
   61.5560   33.8300   46.6580 C   0  0  0  0  0  0  0  0  0  0  0  0
   61.1565   34.7914   46.3029 H   0  0  0  0  0  0  0  0  0  0  0  0
   62.8730   33.7410   47.1090 C   0  0  0  0  0  0  0  0  0  0  0  0
   63.5136   34.6352   47.1181 H   0  0  0  0  0  0  0  0  0  0  0  0
   63.3760   32.5180   47.5480 C   0  0  0  0  0  0  0  0  0  0  0  0
   64.4109   32.4412   47.9127 H   0  0  0  0  0  0  0  0  0  0  0  0
   62.5530   31.3920   47.5200 C   0  0  0  0  0  0  0  0  0  0  0  0
   62.9430   30.4200   47.8564 H   0  0  0  0  0  0  0  0  0  0  0  0
   61.2690   31.4910   47.0780 N   0  0  0  0  0  0  0  0  0  0  0  0
   60.6790   30.6290   47.0770 H   0  0  0  0  0  0  0  0  0  0  0  0
   58.5710   33.9060   46.2110 C   0  0  0  0  0  0  0  0  0  0  0  0
   59.0470   35.0580   46.7460 F   0  0  0  0  0  0  0  0  0  0  0  0
  1  2  1  0
  2  3  1  0
  3  4  1  0
  4  5  2  0
  5  6  1  0
  6  7  2  0
  7  8  1  0
  7  9  1  0
  9 10  1  0
  9 11  2  0
 11 12  1  0
 12 13  2  0
 12 14  1  0
 14 15  1  0
 15 16  1  0
 15 17  1  0
 15 18  1  0
 14 19  1  0
 19 20  1  0
 19 21  1  0
 19 22  1  0
 22 23  1  0
 22 24  1  0
 22 25  1  0
 25 26  1  0
 25 27  1  0
 27 28  1  0
 27 29  1  0
 27 30  1  0
 11 31  1  0
 31 32  1  0
 31 33  2  0
 33 34  1  0
  4 35  1  0
 35 36  2  0
 36 37  1  0
 37 38  2  0
 38 39  1  0
 38 40  1  0
 40 41  1  0
 40 42  2  0
 42 43  1  0
 42 44  1  0
 44 45  1  0
 44 46  2  0
 46 47  1  0
 36 48  1  0
 48 49  1  0
 48  2  2  0
 33  6  1  0
 46 37  1  0
M  CHG  2   3  -1  46   1
M  END
>  <UniqueID>  (67) 
60

>  <SMILES>  (67) 
CNCCN(C)C(=O)c1ccc(/N=c2\nc(-c3cccc[nH+]3)c(F)c[n-]2)cc1

>  <Energy>  (67) 
62.40243160898566

>  <Genealogy>  (67) 
CNCCN(C)C(=O)c1ccc(N=c2nc(-c3cccc[nH+]3)c(F)c[n-]2)cc1 (protonated)
CNCCN(C)C(=O)c1ccc(/N=c2\nc(-c3cccc[nH+]3)c(F)c[n-]2)cc1 (cis-trans isomerization)
CNCCN(C)C(=O)c1ccc(/N=c2\nc(-c3cccc[nH+]3)c(F)c[n-]2)cc1 (3D coordinates assigned)
CNCCN(C)C(=O)c1ccc(/N=c2\nc(-c3cccc[nH+]3)c(F)c[n-]2)cc1 (optimized conformer: 62.40243160898566 kcal/mol)

>  <smiles>  (67) 
CNCCN(C)C(=O)c1ccc(N=c2nc(-c3ccccn3)c(F)c[nH]2)cc1

>  <score_type>  (67) 
oracle

>  <origin>  (67) 
adg

>  <m_score__min__energy>  (67) 
-8.4000000000000004

>  <m_primary>  (67) 
energy

$$$$
67:0
     RDKit          3D

 26 28  0  0  0  0  0  0  0  0999 V2000
   58.9310   34.8320   46.2410 C   0  0  0  0  0  0  0  0  0  0  0  0
   58.5940   33.8350   47.1590 C   0  0  0  0  0  0  0  0  0  0  0  0
   58.1570   32.5850   46.7090 C   0  0  0  0  0  0  0  0  0  0  0  0
   58.0460   32.3260   45.3320 C   0  0  0  0  0  0  0  0  0  0  0  0
   57.5970   31.0040   44.8430 C   0  0  0  0  0  0  0  0  0  0  0  0
   56.4140   30.7430   44.1550 C   0  0  0  0  0  0  0  0  0  0  0  0
   56.3240   29.4290   43.8470 N   0  0  0  0  0  0  0  0  0  0  0  0
   57.4320   28.8530   44.3420 C   0  0  0  0  0  0  0  0  0  0  0  0
   57.7690   27.5010   44.2940 C   0  0  0  0  0  0  0  0  0  0  0  0
   58.9650   27.0990   44.9150 C   0  0  0  0  0  0  0  0  0  0  0  0
   59.7820   28.0440   45.5720 C   0  0  0  0  0  0  0  0  0  0  0  0
   59.4160   29.4020   45.6070 C   0  0  0  0  0  0  0  0  0  0  0  0
   58.2360   29.7790   44.9620 C   0  0  0  0  0  0  0  0  0  0  0  0
   58.4040   33.3300   44.4160 C   0  0  0  0  0  0  0  0  0  0  0  0
   58.8400   34.5790   44.8710 C   0  0  0  0  0  0  0  0  0  0  0  0
   59.2681   35.8166   46.5973 H   0  0  0  0  0  0  0  0  0  0  0  0
   58.6724   34.0332   48.2381 H   0  0  0  0  0  0  0  0  0  0  0  0
   57.8990   31.8009   47.4361 H   0  0  0  0  0  0  0  0  0  0  0  0
   55.6584   31.5000   43.8981 H   0  0  0  0  0  0  0  0  0  0  0  0
   55.5440   28.9600   43.3350 H   0  0  0  0  0  0  0  0  0  0  0  0
   57.1201   26.7720   43.7866 H   0  0  0  0  0  0  0  0  0  0  0  0
   59.2657   26.0412   44.8885 H   0  0  0  0  0  0  0  0  0  0  0  0
   60.7117   27.7163   46.0602 H   0  0  0  0  0  0  0  0  0  0  0  0
   60.0401   30.1441   46.1264 H   0  0  0  0  0  0  0  0  0  0  0  0
   58.3410   33.1327   43.3357 H   0  0  0  0  0  0  0  0  0  0  0  0
   59.1115   35.3627   44.1484 H   0  0  0  0  0  0  0  0  0  0  0  0
  1  2  2  0
  2  3  1  0
  3  4  2  0
  4  5  1  0
  5  6  2  0
  6  7  1  0
  7  8  1  0
  8  9  2  0
  9 10  1  0
 10 11  2  0
 11 12  1  0
 12 13  2  0
  4 14  1  0
 14 15  2  0
 15  1  1  0
 13  5  1  0
 13  8  1  0
  1 16  1  0
  2 17  1  0
  3 18  1  0
  6 19  1  0
  7 20  1  0
  9 21  1  0
 10 22  1  0
 11 23  1  0
 12 24  1  0
 14 25  1  0
 15 26  1  0
M  END
>  <UniqueID>  (68) 
61

>  <SMILES>  (68) 
c1ccc(-c2c[nH]c3ccccc23)cc1

>  <Energy>  (68) 
66.29277051888921

>  <Genealogy>  (68) 
c1ccc(-c2c[nH]c3ccccc23)cc1 (3D coordinates assigned)
c1ccc(-c2c[nH]c3ccccc23)cc1 (optimized conformer: 66.29277051888921 kcal/mol)

>  <smiles>  (68) 
c1ccc(-c2c[nH]c3ccccc23)cc1

>  <score_type>  (68) 
oracle

>  <origin>  (68) 
adg

>  <m_score__min__energy>  (68) 
-6.4100000000000001

>  <m_primary>  (68) 
energy

$$$$
68:0
     RDKit          3D

 45 47  0  0  0  0  0  0  0  0999 V2000
   59.4270   35.5780   46.7600 C   0  0  0  0  0  0  0  0  0  0  0  0
   59.2360   34.1660   46.2890 C   0  0  0  0  0  0  0  0  0  0  0  0
   58.6360   33.9120   45.0510 C   0  0  0  0  0  0  0  0  0  0  0  0
   58.4700   32.5960   44.5890 C   0  0  0  0  0  0  0  0  0  0  0  0
   57.7780   32.3670   43.2720 C   0  0  0  0  0  0  0  0  0  0  0  0
   58.9690   31.5200   45.3580 C   0  0  0  0  0  0  0  0  0  0  0  0
   58.8350   30.1670   44.8950 N   0  0  0  0  0  0  0  0  0  0  0  0
   57.5820   29.4670   44.9480 C   0  0  0  0  0  0  0  0  0  0  0  0
   56.5220   30.1080   45.1930 O   0  0  0  0  0  0  0  0  0  0  0  0
   57.5120   28.0080   44.6960 C   0  0  0  0  0  0  0  0  0  0  0  0
   57.0960   27.1200   45.7030 C   0  0  0  0  0  0  0  0  0  0  0  0
   57.0270   25.7450   45.4530 C   0  0  0  0  0  0  0  0  0  0  0  0
   57.3650   25.2300   44.1910 C   0  0  0  0  0  0  0  0  0  0  0  0
   57.2920   23.7700   43.9270 C   0  0  0  0  0  0  0  0  0  0  0  0
   56.3730   23.2570   42.9910 C   0  0  0  0  0  0  0  0  0  0  0  0
   56.3070   21.8820   42.7440 C   0  0  0  0  0  0  0  0  0  0  0  0
   57.1540   21.0060   43.4250 C   0  0  0  0  0  0  0  0  0  0  0  0
   58.0710   21.5020   44.3560 C   0  0  0  0  0  0  0  0  0  0  0  0
   58.1410   22.8760   44.6070 C   0  0  0  0  0  0  0  0  0  0  0  0
   57.7700   26.1200   43.1810 C   0  0  0  0  0  0  0  0  0  0  0  0
   57.8390   27.4930   43.4300 C   0  0  0  0  0  0  0  0  0  0  0  0
   59.5850   31.7750   46.6030 C   0  0  0  0  0  0  0  0  0  0  0  0
   60.1070   30.6450   47.4490 C   0  0  0  0  0  0  0  0  0  0  0  0
   59.7130   33.0970   47.0570 C   0  0  0  0  0  0  0  0  0  0  0  0
   59.4300   35.6004   47.8598 H   0  0  0  0  0  0  0  0  0  0  0  0
   60.3855   35.9639   46.3827 H   0  0  0  0  0  0  0  0  0  0  0  0
   58.6054   36.2047   46.3827 H   0  0  0  0  0  0  0  0  0  0  0  0
   58.2901   34.7529   44.4320 H   0  0  0  0  0  0  0  0  0  0  0  0
   56.7480   32.0261   43.4534 H   0  0  0  0  0  0  0  0  0  0  0  0
   57.7580   33.3064   42.7001 H   0  0  0  0  0  0  0  0  0  0  0  0
   58.3223   31.6011   42.7001 H   0  0  0  0  0  0  0  0  0  0  0  0
   59.6180   29.7590   44.3370 H   0  0  0  0  0  0  0  0  0  0  0  0
   56.8227   27.5089   46.6950 H   0  0  0  0  0  0  0  0  0  0  0  0
   56.7051   25.0612   46.2523 H   0  0  0  0  0  0  0  0  0  0  0  0
   55.7030   23.9421   42.4509 H   0  0  0  0  0  0  0  0  0  0  0  0
   55.5861   21.4900   42.0115 H   0  0  0  0  0  0  0  0  0  0  0  0
   57.0998   19.9250   43.2289 H   0  0  0  0  0  0  0  0  0  0  0  0
   58.7383   20.8109   44.8918 H   0  0  0  0  0  0  0  0  0  0  0  0
   58.8644   23.2610   45.3408 H   0  0  0  0  0  0  0  0  0  0  0  0
   58.0348   25.7321   42.1863 H   0  0  0  0  0  0  0  0  0  0  0  0
   58.1522   28.1772   42.6277 H   0  0  0  0  0  0  0  0  0  0  0  0
   59.9897   30.8989   48.5128 H   0  0  0  0  0  0  0  0  0  0  0  0
   59.5411   29.7284   47.2262 H   0  0  0  0  0  0  0  0  0  0  0  0
   61.1718   30.4817   47.2262 H   0  0  0  0  0  0  0  0  0  0  0  0
   60.1932   33.2952   48.0266 H   0  0  0  0  0  0  0  0  0  0  0  0
  1  2  1  0
  2  3  2  0
  3  4  1  0
  4  5  1  0
  4  6  2  0
  6  7  1  0
  7  8  1  0
  8  9  2  0
  8 10  1  0
 10 11  2  0
 11 12  1  0
 12 13  2  0
 13 14  1  0
 14 15  2  0
 15 16  1  0
 16 17  2  0
 17 18  1  0
 18 19  2  0
 13 20  1  0
 20 21  2  0
  6 22  1  0
 22 23  1  0
 22 24  2  0
 24  2  1  0
 21 10  1  0
 19 14  1  0
  1 25  1  0
  1 26  1  0
  1 27  1  0
  3 28  1  0
  5 29  1  0
  5 30  1  0
  5 31  1  0
  7 32  1  0
 11 33  1  0
 12 34  1  0
 15 35  1  0
 16 36  1  0
 17 37  1  0
 18 38  1  0
 19 39  1  0
 20 40  1  0
 21 41  1  0
 23 42  1  0
 23 43  1  0
 23 44  1  0
 24 45  1  0
M  END
>  <UniqueID>  (69) 
62

>  <SMILES>  (69) 
Cc1cc(C)c(NC(=O)c2ccc(-c3ccccc3)cc2)c(C)c1

>  <Energy>  (69) 
59.88689259380196

>  <Genealogy>  (69) 
Cc1cc(C)c(NC(=O)c2ccc(-c3ccccc3)cc2)c(C)c1 (3D coordinates assigned)
Cc1cc(C)c(NC(=O)c2ccc(-c3ccccc3)cc2)c(C)c1 (optimized conformer: 59.88689259380196 kcal/mol)

>  <smiles>  (69) 
Cc1cc(C)c(NC(=O)c2ccc(-c3ccccc3)cc2)c(C)c1

>  <score_type>  (69) 
oracle

>  <origin>  (69) 
adg

>  <m_score__min__energy>  (69) 
-8.3800000000000008

>  <m_primary>  (69) 
energy

$$$$
69:0
     RDKit          3D

 34 35  0  0  0  0  0  0  0  0999 V2000
   53.3430   23.0180   46.0420 C   0  0  0  0  0  0  0  0  0  0  0  0
   53.3840   24.4500   45.5260 C   0  0  0  0  0  0  0  0  0  0  0  0
   54.7650   25.0100   45.6360 C   0  0  0  0  0  0  0  0  0  0  0  0
   55.8830   24.2900   45.3970 N   0  0  0  0  0  0  0  0  0  0  0  0
   56.8750   25.1760   45.6110 C   0  0  0  0  0  0  0  0  0  0  0  0
   56.3200   26.3830   45.9710 C   0  0  0  0  0  0  0  0  0  0  0  0
   57.0500   27.6640   46.2350 C   0  0  0  0  0  0  0  0  0  0  0  0
   57.6750   28.1750   45.0110 N   0  0  0  0  0  0  0  0  0  0  0  0
   56.7400   29.4630   44.2980 S   0  0  0  0  0  0  0  0  0  0  0  0
   56.6780   29.2640   42.8090 O   0  0  0  0  0  0  0  0  0  0  0  0
   55.3440   29.4160   44.8530 O   0  0  0  0  0  0  0  0  0  0  0  0
   57.4610   31.0290   44.7180 C   0  0  0  0  0  0  0  0  0  0  0  0
   57.7710   31.2650   46.0680 C   0  0  0  0  0  0  0  0  0  0  0  0
   58.4060   32.4440   46.4600 C   0  0  0  0  0  0  0  0  0  0  0  0
   58.7310   33.4120   45.5100 C   0  0  0  0  0  0  0  0  0  0  0  0
   59.6330   35.0070   46.0450 Br  0  0  0  0  0  0  0  0  0  0  0  0
   58.3970   33.2130   44.1690 C   0  0  0  0  0  0  0  0  0  0  0  0
   57.7430   32.0370   43.7590 C   0  0  0  0  0  0  0  0  0  0  0  0
   57.4030   31.8770   42.3010 C   0  0  0  0  0  0  0  0  0  0  0  0
   55.0190   26.2510   45.9840 O   0  0  0  0  0  0  0  0  0  0  0  0
   53.3432   23.0245   47.1420 H   0  0  0  0  0  0  0  0  0  0  0  0
   52.4303   22.5232   45.6784 H   0  0  0  0  0  0  0  0  0  0  0  0
   54.2259   22.4718   45.6784 H   0  0  0  0  0  0  0  0  0  0  0  0
   53.0716   24.4632   44.4714 H   0  0  0  0  0  0  0  0  0  0  0  0
   52.7029   25.0649   46.1327 H   0  0  0  0  0  0  0  0  0  0  0  0
   57.9510   24.9690   45.5140 H   0  0  0  0  0  0  0  0  0  0  0  0
   56.3383   28.4119   46.6146 H   0  0  0  0  0  0  0  0  0  0  0  0
   57.8389   27.4711   46.9769 H   0  0  0  0  0  0  0  0  0  0  0  0
   57.5099   30.5110   46.8252 H   0  0  0  0  0  0  0  0  0  0  0  0
   58.6505   32.6102   47.5195 H   0  0  0  0  0  0  0  0  0  0  0  0
   58.6479   33.9838   43.4254 H   0  0  0  0  0  0  0  0  0  0  0  0
   56.4115   31.4104   42.2048 H   0  0  0  0  0  0  0  0  0  0  0  0
   57.3921   32.8645   41.8165 H   0  0  0  0  0  0  0  0  0  0  0  0
   58.1570   31.2392   41.8165 H   0  0  0  0  0  0  0  0  0  0  0  0
  1  2  1  0
  2  3  1  0
  3  4  2  0
  4  5  1  0
  5  6  2  0
  6  7  1  0
  7  8  1  0
  8  9  1  0
  9 10  2  0
  9 11  2  0
  9 12  1  0
 12 13  2  0
 13 14  1  0
 14 15  2  0
 15 16  1  0
 15 17  1  0
 17 18  2  0
 18 19  1  0
  6 20  1  0
 20  3  1  0
 18 12  1  0
  1 21  1  0
  1 22  1  0
  1 23  1  0
  2 24  1  0
  2 25  1  0
  5 26  1  0
  7 27  1  0
  7 28  1  0
 13 29  1  0
 14 30  1  0
 17 31  1  0
 19 32  1  0
 19 33  1  0
 19 34  1  0
M  CHG  1   8  -1
M  END
>  <UniqueID>  (70) 
63

>  <SMILES>  (70) 
CCc1ncc(C[N-]S(=O)(=O)c2ccc(Br)cc2C)o1

>  <Energy>  (70) 
56.83120861469585

>  <Genealogy>  (70) 
CCc1ncc(C[N-]S(=O)(=O)c2ccc(Br)cc2C)o1 (protonated)
CCc1ncc(C[N-]S(=O)(=O)c2ccc(Br)cc2C)o1 (3D coordinates assigned)
CCc1ncc(C[N-]S(=O)(=O)c2ccc(Br)cc2C)o1 (optimized conformer: 56.83120861469585 kcal/mol)

>  <smiles>  (70) 
CCc1ncc(CNS(=O)(=O)c2ccc(Br)cc2C)o1

>  <score_type>  (70) 
oracle

>  <origin>  (70) 
adg

>  <m_score__min__energy>  (70) 
-9.6799999999999997

>  <m_primary>  (70) 
energy

$$$$
70:0
     RDKit          3D

 26 27  0  0  0  0  0  0  0  0999 V2000
   57.7914   31.7914   43.1734 H   0  0  0  0  0  0  0  0  0  0  0  0
   57.3550   31.9110   44.1760 C   0  0  0  0  0  0  0  0  0  0  0  0
   56.2970   31.2300   44.4970 N   0  0  0  0  0  0  0  0  0  0  0  0
   56.3370   30.0280   45.1850 O   0  0  0  0  0  0  0  0  0  0  0  0
   57.4490   29.1710   45.2080 C   0  0  0  0  0  0  0  0  0  0  0  0
   58.2330   29.1150   46.3670 C   0  0  0  0  0  0  0  0  0  0  0  0
   57.9771   29.7450   47.2316 H   0  0  0  0  0  0  0  0  0  0  0  0
   59.3400   28.2620   46.4310 C   0  0  0  0  0  0  0  0  0  0  0  0
   59.9570   28.2290   47.3411 H   0  0  0  0  0  0  0  0  0  0  0  0
   59.6620   27.4520   45.3390 C   0  0  0  0  0  0  0  0  0  0  0  0
   60.5363   26.7862   45.3875 H   0  0  0  0  0  0  0  0  0  0  0  0
   58.8740   27.4870   44.1850 C   0  0  0  0  0  0  0  0  0  0  0  0
   59.1247   26.8441   43.3284 H   0  0  0  0  0  0  0  0  0  0  0  0
   57.7670   28.3390   44.1190 C   0  0  0  0  0  0  0  0  0  0  0  0
   57.1432   28.3587   43.2132 H   0  0  0  0  0  0  0  0  0  0  0  0
   57.9820   32.8430   45.1340 C   0  0  0  0  0  0  0  0  0  0  0  0
   58.6750   33.9660   44.6500 C   0  0  0  0  0  0  0  0  0  0  0  0
   58.7465   34.1401   43.5662 H   0  0  0  0  0  0  0  0  0  0  0  0
   59.2740   34.8630   45.5400 C   0  0  0  0  0  0  0  0  0  0  0  0
   59.8143   35.7401   45.1543 H   0  0  0  0  0  0  0  0  0  0  0  0
   59.1880   34.6480   46.9180 C   0  0  0  0  0  0  0  0  0  0  0  0
   59.6609   35.3547   47.6158 H   0  0  0  0  0  0  0  0  0  0  0  0
   58.5010   33.5350   47.4090 C   0  0  0  0  0  0  0  0  0  0  0  0
   58.4332   33.3667   48.4939 H   0  0  0  0  0  0  0  0  0  0  0  0
   57.8990   32.6340   46.5240 C   0  0  0  0  0  0  0  0  0  0  0  0
   57.3590   31.7593   46.9154 H   0  0  0  0  0  0  0  0  0  0  0  0
  1  2  1  0
  2  3  2  0
  3  4  1  0
  4  5  1  0
  5  6  2  0
  6  7  1  0
  6  8  1  0
  8  9  1  0
  8 10  2  0
 10 11  1  0
 10 12  1  0
 12 13  1  0
 12 14  2  0
 14 15  1  0
  2 16  1  0
 16 17  2  0
 17 18  1  0
 17 19  1  0
 19 20  1  0
 19 21  2  0
 21 22  1  0
 21 23  1  0
 23 24  1  0
 23 25  2  0
 25 26  1  0
 14  5  1  0
 25 16  1  0
M  END
>  <UniqueID>  (71) 
64

>  <SMILES>  (71) 
C(=N/Oc1ccccc1)\c1ccccc1

>  <Energy>  (71) 
33.688043465018325

>  <Genealogy>  (71) 
C(=N/Oc1ccccc1)\c1ccccc1 (cis-trans isomerization)
C(=N/Oc1ccccc1)\c1ccccc1 (3D coordinates assigned)
C(=N/Oc1ccccc1)\c1ccccc1 (optimized conformer: 33.688043465018325 kcal/mol)

>  <smiles>  (71) 
C(=NOc1ccccc1)c1ccccc1

>  <score_type>  (71) 
oracle

>  <origin>  (71) 
adg

>  <m_score__min__energy>  (71) 
-6.6200000000000001

>  <m_primary>  (71) 
energy

$$$$
71:0
     RDKit          3D

 43 43  0  0  0  0  0  0  0  0999 V2000
   57.9342   32.7448   48.6213 H   0  0  0  0  0  0  0  0  0  0  0  0
   58.1460   32.3730   47.6080 C   0  0  0  0  0  0  0  0  0  0  0  0
   58.7606   33.1087   47.0685 H   0  0  0  0  0  0  0  0  0  0  0  0
   57.1998   32.2196   47.0685 H   0  0  0  0  0  0  0  0  0  0  0  0
   58.8740   31.0950   47.6960 N   0  0  0  0  0  0  0  0  0  0  0  0
   59.1610   30.7930   49.1090 C   0  0  0  0  0  0  0  0  0  0  0  0
   58.5472   31.4389   49.7540 H   0  0  0  0  0  0  0  0  0  0  0  0
   58.9240   29.7386   49.3141 H   0  0  0  0  0  0  0  0  0  0  0  0
   60.2261   30.9760   49.3141 H   0  0  0  0  0  0  0  0  0  0  0  0
   60.1270   31.1400   46.9090 C   0  0  0  0  0  0  0  0  0  0  0  0
   60.8227   31.8538   47.3743 H   0  0  0  0  0  0  0  0  0  0  0  0
   59.8941   31.4572   45.8818 H   0  0  0  0  0  0  0  0  0  0  0  0
   60.7810   29.7450   46.8680 C   0  0  0  0  0  0  0  0  0  0  0  0
   61.3321   29.5847   47.8064 H   0  0  0  0  0  0  0  0  0  0  0  0
   61.4531   29.7132   45.9978 H   0  0  0  0  0  0  0  0  0  0  0  0
   59.7800   28.6590   46.7100 N   0  0  2  0  0  0  0  0  0  0  0  0
   58.8530   29.1060   46.5120 H   0  0  0  0  0  0  0  0  0  0  0  0
   59.6270   27.9450   47.9930 C   0  0  0  0  0  0  0  0  0  0  0  0
   59.7779   28.6490   48.8247 H   0  0  0  0  0  0  0  0  0  0  0  0
   58.6164   27.5152   48.0552 H   0  0  0  0  0  0  0  0  0  0  0  0
   60.3728   27.1388   48.0552 H   0  0  0  0  0  0  0  0  0  0  0  0
   60.1520   27.7000   45.6270 C   0  0  0  0  0  0  0  0  0  0  0  0
   60.3816   26.7253   46.0823 H   0  0  0  0  0  0  0  0  0  0  0  0
   61.0230   28.1142   45.0981 H   0  0  0  0  0  0  0  0  0  0  0  0
   59.0240   27.5100   44.5950 C   0  0  0  0  0  0  0  0  0  0  0  0
   59.3433   26.7641   43.8522 H   0  0  0  0  0  0  0  0  0  0  0  0
   58.8281   28.4829   44.1205 H   0  0  0  0  0  0  0  0  0  0  0  0
   57.7220   27.0300   45.2530 C   0  0  0  0  0  0  0  0  0  0  0  0
   57.9609   26.2778   46.0192 H   0  0  0  0  0  0  0  0  0  0  0  0
   57.0745   26.5938   44.4780 H   0  0  0  0  0  0  0  0  0  0  0  0
   57.0170   28.1460   45.8800 N   0  0  0  0  0  0  0  0  0  0  0  0
   56.8450   29.3000   45.3110 C   0  0  0  0  0  0  0  0  0  0  0  0
   55.6490   29.7390   44.8780 N   0  0  0  0  0  0  0  0  0  0  0  0
   55.8700   30.9420   44.3700 N   0  0  0  0  0  0  0  0  0  0  0  0
   57.1900   31.1790   44.5120 C   0  0  0  0  0  0  0  0  0  0  0  0
   57.8680   32.4410   44.0850 C   0  0  0  0  0  0  0  0  0  0  0  0
   57.6995   32.5959   43.0091 H   0  0  0  0  0  0  0  0  0  0  0  0
   58.9447   32.3533   44.2923 H   0  0  0  0  0  0  0  0  0  0  0  0
   57.3140   33.6340   44.8560 C   0  0  0  0  0  0  0  0  0  0  0  0
   57.4017   33.4452   45.9361 H   0  0  0  0  0  0  0  0  0  0  0  0
   57.8849   34.5370   44.5941 H   0  0  0  0  0  0  0  0  0  0  0  0
   56.2557   33.7805   44.5941 H   0  0  0  0  0  0  0  0  0  0  0  0
   57.7990   30.1720   45.0900 O   0  0  0  0  0  0  0  0  0  0  0  0
  1  2  1  0
  2  3  1  0
  2  4  1  0
  2  5  1  0
  5  6  1  0
  6  7  1  0
  6  8  1  0
  6  9  1  0
  5 10  1  0
 10 11  1  0
 10 12  1  0
 10 13  1  0
 13 14  1  0
 13 15  1  0
 13 16  1  0
 16 17  1  6
 16 18  1  0
 18 19  1  0
 18 20  1  0
 18 21  1  0
 16 22  1  0
 22 23  1  0
 22 24  1  0
 22 25  1  0
 25 26  1  0
 25 27  1  0
 25 28  1  0
 28 29  1  0
 28 30  1  0
 28 31  1  0
 31 32  2  0
 32 33  1  0
 33 34  1  0
 34 35  2  0
 35 36  1  0
 36 37  1  0
 36 38  1  0
 36 39  1  0
 39 40  1  0
 39 41  1  0
 39 42  1  0
 35 43  1  0
 43 32  1  0
M  CHG  2  16   1  33  -1
M  END
>  <UniqueID>  (72) 
65

>  <SMILES>  (72) 
CCc1n[n-]/c(=N/CCC[N@@H+](C)CCN(C)C)o1

>  <Energy>  (72) 
71.74247215534234

>  <Genealogy>  (72) 
CCc1n[n-]c(=NCCC[NH+](C)CCN(C)C)o1 (protonated)
CCc1n[n-]c(=NCCC[N@@H+](C)CCN(C)C)o1 (chirality)
CCc1n[n-]/c(=N/CCC[N@@H+](C)CCN(C)C)o1 (cis-trans isomerization)
CCc1n[n-]/c(=N/CCC[N@@H+](C)CCN(C)C)o1 (3D coordinates assigned)
CCc1n[n-]/c(=N/CCC[N@@H+](C)CCN(C)C)o1 (optimized conformer: 71.74247215534234 kcal/mol)

>  <smiles>  (72) 
CCc1n[nH]c(=NCCCN(C)CCN(C)C)o1

>  <score_type>  (72) 
oracle

>  <origin>  (72) 
adg

>  <m_score__min__energy>  (72) 
-4.6100000000000003

>  <m_primary>  (72) 
energy

$$$$
72:0
     RDKit          3D

 43 45  0  0  1  0  0  0  0  0999 V2000
   57.5010   26.0820   45.7730 C   0  0  0  0  0  0  0  0  0  0  0  0
   57.5520   27.2900   46.5420 N   0  0  0  0  0  0  0  0  0  0  0  0
   58.1100   28.3770   46.2020 C   0  0  0  0  0  0  0  0  0  0  0  0
   59.3440   28.6330   46.6710 N   0  0  0  0  0  0  0  0  0  0  0  0
   59.9150   29.7920   46.2930 C   0  0  0  0  0  0  0  0  0  0  0  0
   61.0820   30.0490   46.7280 N   0  0  0  0  0  0  0  0  0  0  0  0
   61.4310   31.2440   47.4070 C   0  0  0  0  0  0  0  0  0  0  0  0
   62.6980   31.7620   47.1190 C   0  0  0  0  0  0  0  0  0  0  0  0
   63.1620   32.9200   47.7120 C   0  0  0  0  0  0  0  0  0  0  0  0
   62.3320   33.5630   48.6090 C   0  0  0  0  0  0  0  0  0  0  0  0
   61.0850   33.0400   48.8820 C   0  0  0  0  0  0  0  0  0  0  0  0
   60.2990   33.7130   49.7770 F   0  0  0  0  0  0  0  0  0  0  0  0
   60.6040   31.8870   48.3020 C   0  0  0  0  0  0  0  0  0  0  0  0
   59.2990   30.6710   45.4820 N   0  0  0  0  0  0  0  0  0  0  0  0
   58.0480   30.4040   45.0110 C   0  0  0  0  0  0  0  0  0  0  0  0
   57.4810   31.3810   44.1600 N   0  0  0  0  0  0  0  0  0  0  0  0
   58.0980   32.5960   43.7480 C   0  0  0  0  0  0  0  0  0  0  0  0
   58.5070   33.4300   44.9280 C   0  0  0  0  0  0  0  0  0  0  0  0
   57.7570   33.3720   46.1040 C   0  0  0  0  0  0  0  0  0  0  0  0
   58.1460   34.1480   47.1910 C   0  0  0  0  0  0  0  0  0  0  0  0
   59.2430   34.9660   47.1370 C   0  0  0  0  0  0  0  0  0  0  0  0
   59.9800   35.0190   45.9730 C   0  0  0  0  0  0  0  0  0  0  0  0
   59.5970   34.2420   44.8730 C   0  0  0  0  0  0  0  0  0  0  0  0
   57.4210   29.2310   45.3690 C   0  0  0  0  0  0  0  0  0  0  0  0
   56.1430   28.9060   44.9110 N   0  0  0  0  0  0  0  0  0  0  0  0
   55.2510   29.7710   44.8670 O   0  0  0  0  0  0  0  0  0  0  0  0
   57.4645   25.2168   46.4513 H   0  0  0  0  0  0  0  0  0  0  0  0
   56.6023   26.0888   45.1387 H   0  0  0  0  0  0  0  0  0  0  0  0
   58.3970   26.0130   45.1387 H   0  0  0  0  0  0  0  0  0  0  0  0
   59.8040   27.9410   47.2960 H   0  0  0  0  0  0  0  0  0  0  0  0
   63.3421   31.2330   46.4011 H   0  0  0  0  0  0  0  0  0  0  0  0
   64.1606   33.3172   47.4773 H   0  0  0  0  0  0  0  0  0  0  0  0
   62.6636   34.4879   49.1035 H   0  0  0  0  0  0  0  0  0  0  0  0
   59.6041   31.4969   48.5426 H   0  0  0  0  0  0  0  0  0  0  0  0
   59.7810   31.5670   45.2110 H   0  0  0  0  0  0  0  0  0  0  0  0
   56.5060   31.1720   43.8040 H   0  0  0  0  0  0  0  0  0  0  0  0
   58.9906   32.3594   43.1502 H   0  0  0  0  0  0  0  0  0  0  0  0
   57.3712   33.1694   43.1538 H   0  0  0  0  0  0  0  0  0  0  0  0
   56.8717   32.7224   46.1701 H   0  0  0  0  0  0  0  0  0  0  0  0
   57.5567   34.1034   48.1188 H   0  0  0  0  0  0  0  0  0  0  0  0
   59.5317   35.5714   48.0089 H   0  0  0  0  0  0  0  0  0  0  0  0
   60.8651   35.6689   45.9088 H   0  0  0  0  0  0  0  0  0  0  0  0
   60.1887   34.2891   43.9469 H   0  0  0  0  0  0  0  0  0  0  0  0
  1  2  1  0
  2  3  2  0
  3  4  1  0
  4  5  1  0
  5  6  2  0
  6  7  1  0
  7  8  2  0
  8  9  1  0
  9 10  2  0
 10 11  1  0
 11 12  1  0
 11 13  2  0
  5 14  1  0
 14 15  1  0
 15 16  1  0
 16 17  1  0
 17 18  1  0
 18 19  2  0
 19 20  1  0
 20 21  2  0
 21 22  1  0
 22 23  2  0
 15 24  2  0
 24 25  1  0
 25 26  2  0
 24  3  1  0
 13  7  1  0
 23 18  1  0
  1 27  1  0
  1 28  1  0
  1 29  1  0
  4 30  1  0
  8 31  1  0
  9 32  1  0
 10 33  1  0
 13 34  1  0
 14 35  1  0
 16 36  1  0
 17 37  1  0
 17 38  1  0
 19 39  1  0
 20 40  1  0
 21 41  1  0
 22 42  1  0
 23 43  1  0
M  END
>  <smiles>  (73) 
CN=c1[nH]c(=Nc2cccc(F)c2)[nH]c(NCc2ccccc2)c1N=O

>  <score_type>  (73) 
oracle

>  <origin>  (73) 
adg

>  <m_score__min__energy>  (73) 
-7.6799999999999997

>  <m_primary>  (73) 
energy

$$$$
73:0
     RDKit          3D

 25 26  0  0  0  0  0  0  0  0999 V2000
   57.6490   28.5940   43.7950 N   0  0  0  0  0  0  0  0  0  0  0  0
   56.7040   30.0190   44.0430 S   0  0  0  0  0  0  0  0  0  0  0  0
   55.4840   29.6830   44.8540 O   0  0  0  0  0  0  0  0  0  0  0  0
   56.2680   30.5710   42.7150 O   0  0  0  0  0  0  0  0  0  0  0  0
   57.6570   31.2210   44.8920 C   0  0  0  0  0  0  0  0  0  0  0  0
   58.4950   30.9710   45.9710 C   0  0  0  0  0  0  0  0  0  0  0  0
   59.1530   32.1180   46.4280 C   0  0  0  0  0  0  0  0  0  0  0  0
   58.8300   33.2540   45.6990 C   0  0  0  0  0  0  0  0  0  0  0  0
   59.4890   34.8920   45.9800 S   0  0  0  0  0  0  0  0  0  0  0  0
   60.8340   34.2710   46.9880 C   0  0  0  0  0  0  0  0  0  0  0  0
   62.0220   33.8370   46.3840 C   0  0  0  0  0  0  0  0  0  0  0  0
   63.0740   33.3590   47.1710 C   0  0  0  0  0  0  0  0  0  0  0  0
   62.9410   33.3100   48.5620 C   0  0  0  0  0  0  0  0  0  0  0  0
   61.7550   33.7400   49.1670 C   0  0  0  0  0  0  0  0  0  0  0  0
   60.7020   34.2180   48.3810 C   0  0  0  0  0  0  0  0  0  0  0  0
   57.7320   32.8530   44.4900 S   0  0  0  0  0  0  0  0  0  0  0  0
   56.9940   27.8450   43.4760 H   0  0  0  0  0  0  0  0  0  0  0  0
   58.2930   28.7900   42.9960 H   0  0  0  0  0  0  0  0  0  0  0  0
   58.6275   29.9753   46.4194 H   0  0  0  0  0  0  0  0  0  0  0  0
   59.8532   32.1193   47.2764 H   0  0  0  0  0  0  0  0  0  0  0  0
   62.1267   33.8725   45.2896 H   0  0  0  0  0  0  0  0  0  0  0  0
   64.0068   33.0213   46.6957 H   0  0  0  0  0  0  0  0  0  0  0  0
   63.7689   32.9334   49.1807 H   0  0  0  0  0  0  0  0  0  0  0  0
   61.6509   33.7020   50.2614 H   0  0  0  0  0  0  0  0  0  0  0  0
   59.7688   34.5528   48.8575 H   0  0  0  0  0  0  0  0  0  0  0  0
  1  2  1  0
  2  3  2  0
  2  4  2  0
  2  5  1  0
  5  6  2  0
  6  7  1  0
  7  8  2  0
  8  9  1  0
  9 10  1  0
 10 11  2  0
 11 12  1  0
 12 13  2  0
 13 14  1  0
 14 15  2  0
  8 16  1  0
 16  5  1  0
 15 10  1  0
  1 17  1  0
  1 18  1  0
  6 19  1  0
  7 20  1  0
 11 21  1  0
 12 22  1  0
 13 23  1  0
 14 24  1  0
 15 25  1  0
M  END
>  <UniqueID>  (74) 
66

>  <SMILES>  (74) 
NS(=O)(=O)c1ccc(Sc2ccccc2)s1

>  <Energy>  (74) 
45.882664560874716

>  <Genealogy>  (74) 
NS(=O)(=O)c1ccc(Sc2ccccc2)s1 (3D coordinates assigned)
NS(=O)(=O)c1ccc(Sc2ccccc2)s1 (optimized conformer: 45.882664560874716 kcal/mol)

>  <smiles>  (74) 
NS(=O)(=O)c1ccc(Sc2ccccc2)s1

>  <score_type>  (74) 
oracle

>  <origin>  (74) 
adg

>  <m_score__min__energy>  (74) 
-7.8300000000000001

>  <m_primary>  (74) 
energy

$$$$
74:0
     RDKit          3D

 49 51  0  0  0  0  0  0  0  0999 V2000
   56.7590   26.1380   42.6280 H   0  0  0  0  0  0  0  0  0  0  0  0
   57.7520   26.1250   42.8300 O   0  0  0  0  0  0  0  0  0  0  0  0
   58.3040   26.7680   43.9220 N   0  0  0  0  0  0  0  0  0  0  0  0
   58.8000   26.1700   44.6210 H   0  0  0  0  0  0  0  0  0  0  0  0
   58.2010   28.0550   44.1210 C   0  0  0  0  0  0  0  0  0  0  0  0
   58.9450   28.6920   45.2340 C   0  0  0  0  0  0  0  0  0  0  0  0
   60.1840   29.3080   45.0010 C   0  0  0  0  0  0  0  0  0  0  0  0
   60.6221   29.2945   43.9921 H   0  0  0  0  0  0  0  0  0  0  0  0
   60.8440   29.9210   46.0180 N   0  0  0  0  0  0  0  0  0  0  0  0
   60.3480   29.9550   47.2850 C   0  0  0  0  0  0  0  0  0  0  0  0
   61.0360   30.6130   48.3140 O   0  0  0  0  0  0  0  0  0  0  0  0
   61.9260   31.6810   48.1320 C   0  0  0  0  0  0  0  0  0  0  0  0
   61.7300   32.6540   47.1340 C   0  0  0  0  0  0  0  0  0  0  0  0
   60.8541   32.5912   46.4715 H   0  0  0  0  0  0  0  0  0  0  0  0
   62.6450   33.7000   46.9820 C   0  0  0  0  0  0  0  0  0  0  0  0
   62.4815   34.4640   46.2077 H   0  0  0  0  0  0  0  0  0  0  0  0
   63.7660   33.7770   47.8110 C   0  0  0  0  0  0  0  0  0  0  0  0
   64.4737   34.6117   47.6996 H   0  0  0  0  0  0  0  0  0  0  0  0
   63.9930   32.7930   48.7860 C   0  0  0  0  0  0  0  0  0  0  0  0
   65.1730   32.9000   49.7070 C   0  0  0  0  0  0  0  0  0  0  0  0
   64.8274   32.8687   50.7508 H   0  0  0  0  0  0  0  0  0  0  0  0
   65.8594   32.0604   49.5226 H   0  0  0  0  0  0  0  0  0  0  0  0
   65.6971   33.8494   49.5226 H   0  0  0  0  0  0  0  0  0  0  0  0
   63.0660   31.7500   48.9430 C   0  0  0  0  0  0  0  0  0  0  0  0
   63.2366   30.9801   49.7099 H   0  0  0  0  0  0  0  0  0  0  0  0
   59.1160   29.3580   47.5600 C   0  0  0  0  0  0  0  0  0  0  0  0
   58.7001   29.3895   48.5779 H   0  0  0  0  0  0  0  0  0  0  0  0
   58.4160   28.7210   46.5340 C   0  0  0  0  0  0  0  0  0  0  0  0
   57.4488   28.2412   46.7444 H   0  0  0  0  0  0  0  0  0  0  0  0
   57.3870   28.8680   43.2570 N   0  0  0  0  0  0  0  0  0  0  0  0
   57.3810   28.6800   42.2290 H   0  0  0  0  0  0  0  0  0  0  0  0
   56.4760   29.8870   43.7760 C   0  0  0  0  0  0  0  0  0  0  0  0
   56.0366   29.5354   44.7212 H   0  0  0  0  0  0  0  0  0  0  0  0
   55.6798   30.0685   43.0390 H   0  0  0  0  0  0  0  0  0  0  0  0
   57.2240   31.1700   44.0210 C   0  0  0  0  0  0  0  0  0  0  0  0
   57.7500   31.9010   42.9450 C   0  0  0  0  0  0  0  0  0  0  0  0
   57.5806   31.5579   41.9137 H   0  0  0  0  0  0  0  0  0  0  0  0
   58.4880   33.0630   43.1800 C   0  0  0  0  0  0  0  0  0  0  0  0
   58.8957   33.6344   42.3331 H   0  0  0  0  0  0  0  0  0  0  0  0
   58.7100   33.5020   44.4880 C   0  0  0  0  0  0  0  0  0  0  0  0
   59.2917   34.4186   44.6651 H   0  0  0  0  0  0  0  0  0  0  0  0
   58.1970   32.7830   45.5750 C   0  0  0  0  0  0  0  0  0  0  0  0
   58.4410   33.2670   46.8700 O   0  0  0  0  0  0  0  0  0  0  0  0
   58.9460   34.5670   47.1600 C   0  0  0  0  0  0  0  0  0  0  0  0
   58.9995   34.7048   48.2500 H   0  0  0  0  0  0  0  0  0  0  0  0
   59.9514   34.6748   46.7270 H   0  0  0  0  0  0  0  0  0  0  0  0
   58.2770   35.3253   46.7270 H   0  0  0  0  0  0  0  0  0  0  0  0
   57.4560   31.6080   45.3350 C   0  0  0  0  0  0  0  0  0  0  0  0
   57.0571   31.0307   46.1821 H   0  0  0  0  0  0  0  0  0  0  0  0
  1  2  1  0
  2  3  1  0
  3  4  1  0
  3  5  2  0
  5  6  1  0
  6  7  2  0
  7  8  1  0
  7  9  1  0
  9 10  2  0
 10 11  1  0
 11 12  1  0
 12 13  2  0
 13 14  1  0
 13 15  1  0
 15 16  1  0
 15 17  2  0
 17 18  1  0
 17 19  1  0
 19 20  1  0
 20 21  1  0
 20 22  1  0
 20 23  1  0
 19 24  2  0
 24 25  1  0
 10 26  1  0
 26 27  1  0
 26 28  2  0
 28 29  1  0
  5 30  1  0
 30 31  1  0
 30 32  1  0
 32 33  1  0
 32 34  1  0
 32 35  1  0
 35 36  2  0
 36 37  1  0
 36 38  1  0
 38 39  1  0
 38 40  2  0
 40 41  1  0
 40 42  1  0
 42 43  1  0
 43 44  1  0
 44 45  1  0
 44 46  1  0
 44 47  1  0
 42 48  2  0
 48 49  1  0
 28  6  1  0
 48 35  1  0
 24 12  1  0
M  CHG  1   3   1
M  END
>  <UniqueID>  (75) 
67

>  <SMILES>  (75) 
COc1cccc(CN/C(=[NH+]\O)c2ccc(Oc3cccc(C)c3)nc2)c1

>  <Energy>  (75) 
60.19334773847503

>  <Genealogy>  (75) 
COc1cccc(CNC(=[NH+]O)c2ccc(Oc3cccc(C)c3)nc2)c1 (protonated)
COc1cccc(CN/C(=[NH+]\O)c2ccc(Oc3cccc(C)c3)nc2)c1 (cis-trans isomerization)
COc1cccc(CN/C(=[NH+]\O)c2ccc(Oc3cccc(C)c3)nc2)c1 (3D coordinates assigned)
COc1cccc(CN/C(=[NH+]\O)c2ccc(Oc3cccc(C)c3)nc2)c1 (optimized conformer: 60.19334773847503 kcal/mol)

>  <smiles>  (75) 
COc1cccc(CNC(=NO)c2ccc(Oc3cccc(C)c3)nc2)c1

>  <score_type>  (75) 
oracle

>  <origin>  (75) 
adg

>  <m_score__min__energy>  (75) 
-6.5899999999999999

>  <m_primary>  (75) 
energy

$$$$
75:0
     RDKit          3D

 54 57  0  0  0  0  0  0  0  0999 V2000
   56.6997   28.4947   43.7793 H   0  0  0  0  0  0  0  0  0  0  0  0
   56.9650   28.6720   44.8320 C   0  0  0  0  0  0  0  0  0  0  0  0
   56.9990   29.9020   45.2590 N   0  0  0  0  0  0  0  0  0  0  0  0
   58.0470   30.8940   44.9930 C   0  0  0  0  0  0  0  0  0  0  0  0
   59.0202   30.3913   44.8927 H   0  0  0  0  0  0  0  0  0  0  0  0
   58.1760   31.8870   46.1760 C   0  0  0  0  0  0  0  0  0  0  0  0
   57.7769   31.4123   47.0845 H   0  0  0  0  0  0  0  0  0  0  0  0
   59.2399   32.1390   46.2964 H   0  0  0  0  0  0  0  0  0  0  0  0
   57.4040   33.1880   45.9150 C   0  0  0  0  0  0  0  0  0  0  0  0
   56.3379   32.9464   45.7927 H   0  0  0  0  0  0  0  0  0  0  0  0
   57.5736   33.8537   46.7741 H   0  0  0  0  0  0  0  0  0  0  0  0
   57.8740   33.8980   44.6960 N   0  0  0  0  0  0  0  0  0  0  0  0
   58.8510   34.9560   45.0300 C   0  0  0  0  0  0  0  0  0  0  0  0
   59.4970   35.1375   44.1584 H   0  0  0  0  0  0  0  0  0  0  0  0
   58.3006   35.8699   45.2981 H   0  0  0  0  0  0  0  0  0  0  0  0
   59.7070   34.5490   46.2020 C   0  0  0  0  0  0  0  0  0  0  0  0
   59.3150   34.8810   47.5090 C   0  0  0  0  0  0  0  0  0  0  0  0
   58.3721   35.4220   47.6770 H   0  0  0  0  0  0  0  0  0  0  0  0
   60.1180   34.5270   48.5980 C   0  0  0  0  0  0  0  0  0  0  0  0
   59.8039   34.7864   49.6198 H   0  0  0  0  0  0  0  0  0  0  0  0
   61.3190   33.8440   48.3890 C   0  0  0  0  0  0  0  0  0  0  0  0
   61.9498   33.5660   49.2462 H   0  0  0  0  0  0  0  0  0  0  0  0
   61.7190   33.5140   47.0910 C   0  0  0  0  0  0  0  0  0  0  0  0
   62.6648   32.9764   46.9280 H   0  0  0  0  0  0  0  0  0  0  0  0
   60.9190   33.8660   45.9990 C   0  0  0  0  0  0  0  0  0  0  0  0
   61.2389   33.6078   44.9787 H   0  0  0  0  0  0  0  0  0  0  0  0
   58.3940   32.9950   43.6340 C   0  0  0  0  0  0  0  0  0  0  0  0
   58.2045   33.4551   42.6530 H   0  0  0  0  0  0  0  0  0  0  0  0
   59.4711   32.8535   43.8069 H   0  0  0  0  0  0  0  0  0  0  0  0
   57.7250   31.6170   43.6710 C   0  0  0  0  0  0  0  0  0  0  0  0
   56.6356   31.7414   43.5829 H   0  0  0  0  0  0  0  0  0  0  0  0
   58.1077   31.0141   42.8343 H   0  0  0  0  0  0  0  0  0  0  0  0
   57.2630   27.5020   45.6830 C   0  0  0  0  0  0  0  0  0  0  0  0
   56.5970   26.2900   45.6420 C   0  0  0  0  0  0  0  0  0  0  0  0
   55.7814   26.0093   44.9594 H   0  0  0  0  0  0  0  0  0  0  0  0
   57.1590   25.5020   46.6280 C   0  0  0  0  0  0  0  0  0  0  0  0
   56.8818   24.4674   46.8784 H   0  0  0  0  0  0  0  0  0  0  0  0
   58.1350   26.2630   47.2380 C   0  0  0  0  0  0  0  0  0  0  0  0
   58.7720   25.9254   48.0688 H   0  0  0  0  0  0  0  0  0  0  0  0
   58.1920   27.4810   46.6650 N   0  0  0  0  0  0  0  0  0  0  0  0
   59.0840   28.5430   47.0400 C   0  0  0  0  0  0  0  0  0  0  0  0
   58.9080   29.1830   48.2780 C   0  0  0  0  0  0  0  0  0  0  0  0
   58.0846   28.8751   48.9392 H   0  0  0  0  0  0  0  0  0  0  0  0
   59.7700   30.2070   48.6760 C   0  0  0  0  0  0  0  0  0  0  0  0
   59.6191   30.7077   49.6437 H   0  0  0  0  0  0  0  0  0  0  0  0
   60.8220   30.5950   47.8470 C   0  0  0  0  0  0  0  0  0  0  0  0
   61.5018   31.3997   48.1638 H   0  0  0  0  0  0  0  0  0  0  0  0
   61.0150   29.9650   46.6160 C   0  0  0  0  0  0  0  0  0  0  0  0
   61.8543   30.2685   45.9730 H   0  0  0  0  0  0  0  0  0  0  0  0
   60.1440   28.9450   46.1920 C   0  0  0  0  0  0  0  0  0  0  0  0
   60.3940   28.2750   44.8680 C   0  0  0  0  0  0  0  0  0  0  0  0
   60.7739   27.2568   45.0382 H   0  0  0  0  0  0  0  0  0  0  0  0
   59.4539   28.2252   44.2990 H   0  0  0  0  0  0  0  0  0  0  0  0
   61.1369   28.8532   44.2990 H   0  0  0  0  0  0  0  0  0  0  0  0
  1  2  1  0
  2  3  2  0
  3  4  1  0
  4  5  1  0
  4  6  1  0
  6  7  1  0
  6  8  1  0
  6  9  1  0
  9 10  1  0
  9 11  1  0
  9 12  1  0
 12 13  1  0
 13 14  1  0
 13 15  1  0
 13 16  1  0
 16 17  2  0
 17 18  1  0
 17 19  1  0
 19 20  1  0
 19 21  2  0
 21 22  1  0
 21 23  1  0
 23 24  1  0
 23 25  2  0
 25 26  1  0
 12 27  1  0
 27 28  1  0
 27 29  1  0
 27 30  1  0
 30 31  1  0
 30 32  1  0
  2 33  1  0
 33 34  2  0
 34 35  1  0
 34 36  1  0
 36 37  1  0
 36 38  2  0
 38 39  1  0
 38 40  1  0
 40 41  1  0
 41 42  2  0
 42 43  1  0
 42 44  1  0
 44 45  1  0
 44 46  2  0
 46 47  1  0
 46 48  1  0
 48 49  1  0
 48 50  2  0
 50 51  1  0
 51 52  1  0
 51 53  1  0
 51 54  1  0
 30  4  1  0
 40 33  1  0
 50 41  1  0
 25 16  1  0
M  END
>  <UniqueID>  (76) 
68

>  <SMILES>  (76) 
Cc1ccccc1-n1cccc1/C=N\C1CCN(Cc2ccccc2)CC1

>  <Energy>  (76) 
103.16322999039038

>  <Genealogy>  (76) 
Cc1ccccc1-n1cccc1/C=N\C1CCN(Cc2ccccc2)CC1 (cis-trans isomerization)
Cc1ccccc1-n1cccc1/C=N\C1CCN(Cc2ccccc2)CC1 (3D coordinates assigned)
Cc1ccccc1-n1cccc1/C=N\C1CCN(Cc2ccccc2)CC1 (nonaromatic ring conformer: 103.16322999039038 kcal/mol)

>  <smiles>  (76) 
Cc1ccccc1-n1cccc1C=NC1CCN(Cc2ccccc2)CC1

>  <score_type>  (76) 
oracle

>  <origin>  (76) 
adg

>  <m_score__min__energy>  (76) 
-8.6099999999999994

>  <m_primary>  (76) 
energy

$$$$
76:0
     RDKit          3D

 35 36  0  0  0  0  0  0  0  0999 V2000
   63.5970   33.8510   47.0350 C   0  0  0  0  0  0  0  0  0  0  0  0
   63.5240   33.5850   48.5290 C   0  0  0  0  0  0  0  0  0  0  0  0
   62.1970   33.2020   48.8750 O   0  0  0  0  0  0  0  0  0  0  0  0
   61.0710   33.3790   48.0560 C   0  0  0  0  0  0  0  0  0  0  0  0
   60.3820   34.6060   47.9950 C   0  0  0  0  0  0  0  0  0  0  0  0
   59.2690   34.7500   47.1640 C   0  0  0  0  0  0  0  0  0  0  0  0
   58.8310   33.6780   46.3840 C   0  0  0  0  0  0  0  0  0  0  0  0
   57.3130   33.8810   45.2450 Br  0  0  0  0  0  0  0  0  0  0  0  0
   59.5080   32.4560   46.4360 C   0  0  0  0  0  0  0  0  0  0  0  0
   60.6230   32.2980   47.2730 C   0  0  0  0  0  0  0  0  0  0  0  0
   61.4710   30.7510   47.3280 S   0  0  0  0  0  0  0  0  0  0  0  0
   61.2390   30.1200   48.6720 O   0  0  0  0  0  0  0  0  0  0  0  0
   62.9450   30.9600   47.1120 O   0  0  0  0  0  0  0  0  0  0  0  0
   60.8530   29.7270   46.0730 N   0  0  0  0  0  0  0  0  0  0  0  0
   59.7180   28.8600   46.1970 C   0  0  0  0  0  0  0  0  0  0  0  0
   58.5930   29.1150   45.4060 C   0  0  0  0  0  0  0  0  0  0  0  0
   57.4620   28.2970   45.4940 C   0  0  0  0  0  0  0  0  0  0  0  0
   57.4410   27.2040   46.3780 C   0  0  0  0  0  0  0  0  0  0  0  0
   56.2470   26.3360   46.4770 C   0  0  0  0  0  0  0  0  0  0  0  0
   55.1460   26.7020   45.9880 O   0  0  0  0  0  0  0  0  0  0  0  0
   56.3250   25.1010   47.1100 O   0  0  0  0  0  0  0  0  0  0  0  0
   58.5730   26.9480   47.1700 C   0  0  0  0  0  0  0  0  0  0  0  0
   59.7030   27.7670   47.0810 C   0  0  0  0  0  0  0  0  0  0  0  0
   63.8845   34.8987   46.8627 H   0  0  0  0  0  0  0  0  0  0  0  0
   64.3458   33.1858   46.5803 H   0  0  0  0  0  0  0  0  0  0  0  0
   62.6135   33.6612   46.5803 H   0  0  0  0  0  0  0  0  0  0  0  0
   64.2205   32.7754   48.7924 H   0  0  0  0  0  0  0  0  0  0  0  0
   63.7995   34.4968   49.0793 H   0  0  0  0  0  0  0  0  0  0  0  0
   60.7225   35.4555   48.6053 H   0  0  0  0  0  0  0  0  0  0  0  0
   58.7356   35.7112   47.1238 H   0  0  0  0  0  0  0  0  0  0  0  0
   59.1647   31.6137   45.8174 H   0  0  0  0  0  0  0  0  0  0  0  0
   58.5978   29.9659   44.7089 H   0  0  0  0  0  0  0  0  0  0  0  0
   56.5833   28.5102   44.8676 H   0  0  0  0  0  0  0  0  0  0  0  0
   58.5703   26.0961   47.8659 H   0  0  0  0  0  0  0  0  0  0  0  0
   60.5836   27.5552   47.7052 H   0  0  0  0  0  0  0  0  0  0  0  0
  1  2  1  0
  2  3  1  0
  3  4  1  0
  4  5  2  0
  5  6  1  0
  6  7  2  0
  7  8  1  0
  7  9  1  0
  9 10  2  0
 10 11  1  0
 11 12  2  0
 11 13  2  0
 11 14  1  0
 14 15  1  0
 15 16  2  0
 16 17  1  0
 17 18  2  0
 18 19  1  0
 19 20  2  0
 19 21  1  0
 18 22  1  0
 22 23  2  0
 10  4  1  0
 23 15  1  0
  1 24  1  0
  1 25  1  0
  1 26  1  0
  2 27  1  0
  2 28  1  0
  5 29  1  0
  6 30  1  0
  9 31  1  0
 16 32  1  0
 17 33  1  0
 22 34  1  0
 23 35  1  0
M  CHG  2  14  -1  21  -1
M  END
>  <UniqueID>  (77) 
69

>  <SMILES>  (77) 
CCOc1ccc(Br)cc1S(=O)(=O)[N-]c1ccc(C(=O)[O-])cc1

>  <Energy>  (77) 
36.557005270175665

>  <Genealogy>  (77) 
CCOc1ccc(Br)cc1S(=O)(=O)[N-]c1ccc(C(=O)[O-])cc1 (protonated)
CCOc1ccc(Br)cc1S(=O)(=O)[N-]c1ccc(C(=O)[O-])cc1 (3D coordinates assigned)
CCOc1ccc(Br)cc1S(=O)(=O)[N-]c1ccc(C(=O)[O-])cc1 (optimized conformer: 36.557005270175665 kcal/mol)

>  <smiles>  (77) 
CCOc1ccc(Br)cc1S(=O)(=O)Nc1ccc(C(=O)O)cc1

>  <score_type>  (77) 
oracle

>  <origin>  (77) 
adg

>  <m_score__min__energy>  (77) 
-10.869999999999999

>  <m_primary>  (77) 
energy

$$$$
77:0
     RDKit          3D

 41 43  0  0  0  0  0  0  0  0999 V2000
   59.8690   34.6310   49.3120 O   0  0  0  0  0  0  0  0  0  0  0  0
   59.8720   33.7140   48.4480 C   0  0  0  0  0  0  0  0  0  0  0  0
   60.6910   32.5590   48.6770 N   0  0  0  0  0  0  0  0  0  0  0  0
   60.3420   31.1980   48.3780 C   0  0  0  0  0  0  0  0  0  0  0  0
   61.0140   30.4730   47.3800 C   0  0  0  0  0  0  0  0  0  0  0  0
   60.6240   29.1640   47.1020 C   0  0  0  0  0  0  0  0  0  0  0  0
   59.5470   28.5930   47.7890 C   0  0  0  0  0  0  0  0  0  0  0  0
   59.0910   27.2320   47.4560 C   0  0  0  0  0  0  0  0  0  0  0  0
   59.9470   26.3220   47.2980 O   0  0  0  0  0  0  0  0  0  0  0  0
   57.7050   26.9160   47.2790 N   0  0  0  0  0  0  0  0  0  0  0  0
   56.8500   26.9950   45.7690 S   0  0  0  0  0  0  0  0  0  0  0  0
   57.4130   25.9650   44.8320 O   0  0  0  0  0  0  0  0  0  0  0  0
   55.3970   26.6970   46.0050 O   0  0  0  0  0  0  0  0  0  0  0  0
   57.0490   28.5840   45.0310 C   0  0  0  0  0  0  0  0  0  0  0  0
   58.3280   29.1040   44.7820 C   0  0  0  0  0  0  0  0  0  0  0  0
   58.4720   30.3360   44.1360 C   0  0  0  0  0  0  0  0  0  0  0  0
   57.3400   31.0570   43.7430 C   0  0  0  0  0  0  0  0  0  0  0  0
   56.0640   30.5470   43.9980 C   0  0  0  0  0  0  0  0  0  0  0  0
   55.9180   29.3140   44.6410 C   0  0  0  0  0  0  0  0  0  0  0  0
   58.9040   29.3450   48.7810 C   0  0  0  0  0  0  0  0  0  0  0  0
   59.3040   30.6200   49.0430 N   0  0  0  0  0  0  0  0  0  0  0  0
   59.0770   33.8820   47.2080 C   0  0  0  0  0  0  0  0  0  0  0  0
   59.6270   34.5600   46.1050 C   0  0  0  0  0  0  0  0  0  0  0  0
   58.8840   34.7200   44.9310 C   0  0  0  0  0  0  0  0  0  0  0  0
   57.5910   34.1970   44.8430 C   0  0  0  0  0  0  0  0  0  0  0  0
   57.0420   33.5080   45.9270 C   0  0  0  0  0  0  0  0  0  0  0  0
   57.7810   33.3460   47.1020 C   0  0  0  0  0  0  0  0  0  0  0  0
   61.8419   30.9349   46.8220 H   0  0  0  0  0  0  0  0  0  0  0  0
   61.1632   28.5795   46.3420 H   0  0  0  0  0  0  0  0  0  0  0  0
   59.2197   28.5414   45.0956 H   0  0  0  0  0  0  0  0  0  0  0  0
   59.4763   30.7382   43.9369 H   0  0  0  0  0  0  0  0  0  0  0  0
   57.4538   32.0251   43.2334 H   0  0  0  0  0  0  0  0  0  0  0  0
   55.1737   31.1162   43.6925 H   0  0  0  0  0  0  0  0  0  0  0  0
   54.9124   28.9157   44.8414 H   0  0  0  0  0  0  0  0  0  0  0  0
   58.0727   28.9037   49.3504 H   0  0  0  0  0  0  0  0  0  0  0  0
   58.7980   31.1650   49.7780 H   0  0  0  0  0  0  0  0  0  0  0  0
   60.6472   34.9666   46.1662 H   0  0  0  0  0  0  0  0  0  0  0  0
   59.3180   35.2583   44.0755 H   0  0  0  0  0  0  0  0  0  0  0  0
   57.0060   34.3278   43.9207 H   0  0  0  0  0  0  0  0  0  0  0  0
   56.0261   33.0922   45.8556 H   0  0  0  0  0  0  0  0  0  0  0  0
   57.3463   32.7957   47.9495 H   0  0  0  0  0  0  0  0  0  0  0  0
  1  2  2  0
  2  3  1  0
  3  4  1  0
  4  5  2  0
  5  6  1  0
  6  7  2  0
  7  8  1  0
  8  9  2  0
  8 10  1  0
 10 11  1  0
 11 12  2  0
 11 13  2  0
 11 14  1  0
 14 15  2  0
 15 16  1  0
 16 17  2  0
 17 18  1  0
 18 19  2  0
  7 20  1  0
 20 21  2  0
  2 22  1  0
 22 23  2  0
 23 24  1  0
 24 25  2  0
 25 26  1  0
 26 27  2  0
 21  4  1  0
 27 22  1  0
 19 14  1  0
  5 28  1  0
  6 29  1  0
 15 30  1  0
 16 31  1  0
 17 32  1  0
 18 33  1  0
 19 34  1  0
 20 35  1  0
 21 36  1  0
 23 37  1  0
 24 38  1  0
 25 39  1  0
 26 40  1  0
 27 41  1  0
M  CHG  3   3  -1  10  -1  21   1
M  END
>  <UniqueID>  (78) 
70

>  <SMILES>  (78) 
O=C([N-]c1ccc(C(=O)[N-]S(=O)(=O)c2ccccc2)c[nH+]1)c1ccccc1

>  <Energy>  (78) 
56.26081693004073

>  <Genealogy>  (78) 
O=C([N-]c1ccc(C(=O)[N-]S(=O)(=O)c2ccccc2)c[nH+]1)c1ccccc1 (protonated)
O=C([N-]c1ccc(C(=O)[N-]S(=O)(=O)c2ccccc2)c[nH+]1)c1ccccc1 (3D coordinates assigned)
O=C([N-]c1ccc(C(=O)[N-]S(=O)(=O)c2ccccc2)c[nH+]1)c1ccccc1 (optimized conformer: 56.26081693004073 kcal/mol)

>  <smiles>  (78) 
O=C(Nc1ccc(C(=O)NS(=O)(=O)c2ccccc2)cn1)c1ccccc1

>  <score_type>  (78) 
oracle

>  <origin>  (78) 
adg

>  <m_score__min__energy>  (78) 
-10.93

>  <m_primary>  (78) 
energy

$$$$
78:0
     RDKit          3D

 39 41  0  0  1  0  0  0  0  0999 V2000
   55.9030   30.0780   43.0830 C   0  0  0  0  0  0  0  0  0  0  0  0
   56.2070   30.2590   44.4890 N   0  0  0  0  0  0  0  0  0  0  0  0
   57.1940   29.6720   45.0860 C   0  0  0  0  0  0  0  0  0  0  0  0
   57.3450   28.3410   44.9860 N   0  0  0  0  0  0  0  0  0  0  0  0
   58.3340   27.6510   45.5680 C   0  0  0  0  0  0  0  0  0  0  0  0
   58.5090   26.2180   45.4700 C   0  0  0  0  0  0  0  0  0  0  0  0
   59.5920   25.6010   46.0650 C   0  0  0  0  0  0  0  0  0  0  0  0
   59.7940   24.2440   45.9940 C   0  0  0  0  0  0  0  0  0  0  0  0
   58.9020   23.4370   45.3120 C   0  0  0  0  0  0  0  0  0  0  0  0
   59.0470   21.9770   45.1910 C   0  0  0  0  0  0  0  0  0  0  0  0
   60.3510   21.5240   45.6190 N   0  0  0  0  0  0  0  0  0  0  0  0
   57.8250   24.0510   44.7200 C   0  0  0  0  0  0  0  0  0  0  0  0
   57.6260   25.4270   44.7940 C   0  0  0  0  0  0  0  0  0  0  0  0
   59.2210   28.3830   46.2980 N   0  0  0  0  0  0  0  0  0  0  0  0
   59.1260   29.7170   46.4370 C   0  0  0  0  0  0  0  0  0  0  0  0
   60.0080   30.4310   47.1610 N   0  0  0  0  0  0  0  0  0  0  0  0
   59.8870   31.7850   47.2870 C   0  0  0  0  0  0  0  0  0  0  0  0
   60.7450   32.4170   47.9810 O   0  0  0  0  0  0  0  0  0  0  0  0
   58.8850   32.4630   46.6920 N   0  0  0  0  0  0  0  0  0  0  0  0
   58.7480   33.9120   46.8210 C   0  0  0  0  0  0  0  0  0  0  0  0
   57.9870   31.7750   45.9610 C   0  0  0  0  0  0  0  0  0  0  0  0
   57.0420   32.3930   45.3990 O   0  0  0  0  0  0  0  0  0  0  0  0
   58.0970   30.4060   45.8280 C   0  0  0  0  0  0  0  0  0  0  0  0
   54.9620   29.5177   42.9805 H   0  0  0  0  0  0  0  0  0  0  0  0
   55.7987   31.0612   42.6009 H   0  0  0  0  0  0  0  0  0  0  0  0
   56.7177   29.5178   42.6009 H   0  0  0  0  0  0  0  0  0  0  0  0
   56.6380   27.8340   44.4150 H   0  0  0  0  0  0  0  0  0  0  0  0
   60.3181   26.2177   46.6149 H   0  0  0  0  0  0  0  0  0  0  0  0
   60.6716   23.7962   46.4832 H   0  0  0  0  0  0  0  0  0  0  0  0
   58.2807   21.4915   45.8132 H   0  0  0  0  0  0  0  0  0  0  0  0
   58.9266   21.7108   44.1305 H   0  0  0  0  0  0  0  0  0  0  0  0
   60.4130   20.5000   45.7160 H   0  0  0  0  0  0  0  0  0  0  0  0
   61.0590   21.9330   44.9630 H   0  0  0  0  0  0  0  0  0  0  0  0
   57.0971   23.4362   44.1703 H   0  0  0  0  0  0  0  0  0  0  0  0
   56.7512   25.8796   44.3043 H   0  0  0  0  0  0  0  0  0  0  0  0
   60.7830   29.9010   47.6190 H   0  0  0  0  0  0  0  0  0  0  0  0
   58.7222   34.1845   47.8864 H   0  0  0  0  0  0  0  0  0  0  0  0
   59.6035   34.4057   46.3368 H   0  0  0  0  0  0  0  0  0  0  0  0
   57.8152   34.2367   46.3368 H   0  0  0  0  0  0  0  0  0  0  0  0
  1  2  1  0
  2  3  2  0
  3  4  1  0
  4  5  1  0
  5  6  1  0
  6  7  2  0
  7  8  1  0
  8  9  2  0
  9 10  1  0
 10 11  1  0
  9 12  1  0
 12 13  2  0
  5 14  2  0
 14 15  1  0
 15 16  1  0
 16 17  1  0
 17 18  2  0
 17 19  1  0
 19 20  1  0
 19 21  1  0
 21 22  2  0
 21 23  1  0
 23  3  1  0
 13  6  1  0
 23 15  2  0
  1 24  1  0
  1 25  1  0
  1 26  1  0
  4 27  1  0
  7 28  1  0
  8 29  1  0
 10 30  1  0
 10 31  1  0
 11 32  1  0
 11 33  1  0
 12 34  1  0
 13 35  1  0
 16 36  1  0
 20 37  1  0
 20 38  1  0
 20 39  1  0
M  END
>  <smiles>  (79) 
CN=c1[nH]c(-c2ccc(CN)cc2)nc2[nH]c(=O)n(C)c(=O)c12

>  <score_type>  (79) 
oracle

>  <origin>  (79) 
adg

>  <m_score__min__energy>  (79) 
-7.4699999999999998

>  <m_primary>  (79) 
energy

$$$$
79:0
     RDKit          3D

 34 35  0  0  0  0  0  0  0  0999 V2000
   59.5166   31.5434   48.1086 H   0  0  0  0  0  0  0  0  0  0  0  0
   59.0160   32.1390   47.3310 C   0  0  0  0  0  0  0  0  0  0  0  0
   58.0570   31.5720   46.5520 N   0  0  0  0  0  0  0  0  0  0  0  0
   57.4110   32.2750   45.5780 C   0  0  0  0  0  0  0  0  0  0  0  0
   56.4950   31.7140   44.8460 N   0  0  0  0  0  0  0  0  0  0  0  0
   56.7560   30.6860   43.8430 C   0  0  0  0  0  0  0  0  0  0  0  0
   57.6816   30.1521   44.1040 H   0  0  0  0  0  0  0  0  0  0  0  0
   56.8606   31.1668   42.8592 H   0  0  0  0  0  0  0  0  0  0  0  0
   55.5990   29.6890   43.7860 C   0  0  0  0  0  0  0  0  0  0  0  0
   55.7202   29.0483   42.9001 H   0  0  0  0  0  0  0  0  0  0  0  0
   54.6555   30.2517   43.7301 H   0  0  0  0  0  0  0  0  0  0  0  0
   55.5690   28.8680   44.9550 O   0  0  0  0  0  0  0  0  0  0  0  0
   56.6360   28.1060   45.4650 C   0  0  0  0  0  0  0  0  0  0  0  0
   57.9650   28.5760   45.4830 C   0  0  0  0  0  0  0  0  0  0  0  0
   58.1962   29.5775   45.0912 H   0  0  0  0  0  0  0  0  0  0  0  0
   58.9890   27.7780   45.9950 C   0  0  0  0  0  0  0  0  0  0  0  0
   60.0244   28.1495   45.9986 H   0  0  0  0  0  0  0  0  0  0  0  0
   58.7030   26.5110   46.5020 C   0  0  0  0  0  0  0  0  0  0  0  0
   59.5129   25.8841   46.9032 H   0  0  0  0  0  0  0  0  0  0  0  0
   57.3890   26.0370   46.5010 C   0  0  0  0  0  0  0  0  0  0  0  0
   57.1666   25.0385   46.9053 H   0  0  0  0  0  0  0  0  0  0  0  0
   56.3470   26.8330   45.9840 C   0  0  0  0  0  0  0  0  0  0  0  0
   55.0140   26.3910   45.9650 O   0  0  0  0  0  0  0  0  0  0  0  0
   54.6060   25.0730   45.6160 C   0  0  0  0  0  0  0  0  0  0  0  0
   54.4257   24.4905   46.5315 H   0  0  0  0  0  0  0  0  0  0  0  0
   53.6805   25.1205   45.0234 H   0  0  0  0  0  0  0  0  0  0  0  0
   55.3965   24.5893   45.0234 H   0  0  0  0  0  0  0  0  0  0  0  0
   57.7350   33.6180   45.3630 C   0  0  0  0  0  0  0  0  0  0  0  0
   57.2202   34.1937   44.5797 H   0  0  0  0  0  0  0  0  0  0  0  0
   58.7170   34.2230   46.1500 C   0  0  0  0  0  0  0  0  0  0  0  0
   58.9795   35.2792   45.9899 H   0  0  0  0  0  0  0  0  0  0  0  0
   59.3660   33.4810   47.1430 C   0  0  0  0  0  0  0  0  0  0  0  0
   60.3810   34.0910   47.9620 C   0  0  0  0  0  0  0  0  0  0  0  0
   61.1970   34.5800   48.6200 N   0  0  0  0  0  0  0  0  0  0  0  0
  1  2  1  0
  2  3  1  0
  3  4  1  0
  4  5  2  0
  5  6  1  0
  6  7  1  0
  6  8  1  0
  6  9  1  0
  9 10  1  0
  9 11  1  0
  9 12  1  0
 12 13  1  0
 13 14  2  0
 14 15  1  0
 14 16  1  0
 16 17  1  0
 16 18  2  0
 18 19  1  0
 18 20  1  0
 20 21  1  0
 20 22  2  0
 22 23  1  0
 23 24  1  0
 24 25  1  0
 24 26  1  0
 24 27  1  0
  4 28  1  0
 28 29  1  0
 28 30  2  0
 30 31  1  0
 30 32  1  0
 32 33  1  0
 33 34  3  0
 32  2  2  0
 22 13  1  0
M  CHG  1   3  -1
M  END
>  <UniqueID>  (80) 
71

>  <SMILES>  (80) 
COc1ccccc1OCC/N=c1/ccc(C#N)c[n-]1

>  <Energy>  (80) 
32.25254329288753

>  <Genealogy>  (80) 
COc1ccccc1OCCN=c1ccc(C#N)c[n-]1 (protonated)
COc1ccccc1OCC/N=c1/ccc(C#N)c[n-]1 (cis-trans isomerization)
COc1ccccc1OCC/N=c1/ccc(C#N)c[n-]1 (3D coordinates assigned)
COc1ccccc1OCC/N=c1/ccc(C#N)c[n-]1 (optimized conformer: 32.25254329288753 kcal/mol)

>  <smiles>  (80) 
COc1ccccc1OCCN=c1ccc(C#N)c[nH]1

>  <score_type>  (80) 
oracle

>  <origin>  (80) 
adg

>  <m_score__min__energy>  (80) 
-8.5899999999999999

>  <m_primary>  (80) 
energy

$$$$
80:0
     RDKit          3D

 36 37  0  0  0  0  0  0  0  0999 V2000
   57.4325   35.0556   44.3736 H   0  0  0  0  0  0  0  0  0  0  0  0
   57.8990   34.2130   44.9050 C   0  0  0  0  0  0  0  0  0  0  0  0
   58.9920   34.4400   45.7450 C   0  0  0  0  0  0  0  0  0  0  0  0
   59.3818   35.4604   45.8747 H   0  0  0  0  0  0  0  0  0  0  0  0
   59.5950   33.3670   46.4250 C   0  0  0  0  0  0  0  0  0  0  0  0
   60.6960   33.5410   47.2770 O   0  0  0  0  0  0  0  0  0  0  0  0
   61.9310   32.8390   47.1540 C   0  0  0  0  0  0  0  0  0  0  0  0
   61.8363   32.0640   46.3792 H   0  0  0  0  0  0  0  0  0  0  0  0
   62.1817   32.3681   48.1160 H   0  0  0  0  0  0  0  0  0  0  0  0
   63.0320   33.8120   46.7650 C   0  0  0  0  0  0  0  0  0  0  0  0
   63.4965   34.2225   47.6737 H   0  0  0  0  0  0  0  0  0  0  0  0
   63.7929   33.2858   46.1699 H   0  0  0  0  0  0  0  0  0  0  0  0
   62.6034   34.6318   46.1699 H   0  0  0  0  0  0  0  0  0  0  0  0
   59.0880   32.0740   46.2530 C   0  0  0  0  0  0  0  0  0  0  0  0
   59.5581   31.2324   46.7827 H   0  0  0  0  0  0  0  0  0  0  0  0
   57.9840   31.8350   45.4110 C   0  0  0  0  0  0  0  0  0  0  0  0
   57.4580   30.4630   45.2300 C   0  0  0  0  0  0  0  0  0  0  0  0
   56.2860   30.2900   44.7930 O   0  0  0  0  0  0  0  0  0  0  0  0
   58.3110   29.3290   45.4450 N   0  0  0  0  0  0  0  0  0  0  0  0
   58.0060   28.1330   45.8780 C   0  0  0  0  0  0  0  0  0  0  0  0
   58.8220   27.3920   46.7790 C   0  0  0  0  0  0  0  0  0  0  0  0
   60.0730   27.8850   47.1840 O   0  0  0  0  0  0  0  0  0  0  0  0
   60.2710   29.0270   48.0110 C   0  0  0  0  0  0  0  0  0  0  0  0
   60.2191   28.7276   49.0682 H   0  0  0  0  0  0  0  0  0  0  0  0
   61.2584   29.4644   47.8019 H   0  0  0  0  0  0  0  0  0  0  0  0
   59.4885   29.7713   47.8019 H   0  0  0  0  0  0  0  0  0  0  0  0
   58.3670   26.1330   47.2130 C   0  0  0  0  0  0  0  0  0  0  0  0
   58.9618   25.5578   47.9379 H   0  0  0  0  0  0  0  0  0  0  0  0
   57.1700   25.6100   46.7320 C   0  0  0  0  0  0  0  0  0  0  0  0
   56.8139   24.6285   47.0782 H   0  0  0  0  0  0  0  0  0  0  0  0
   56.4290   26.3400   45.8100 C   0  0  0  0  0  0  0  0  0  0  0  0
   55.4915   25.9268   45.4096 H   0  0  0  0  0  0  0  0  0  0  0  0
   56.8590   27.5620   45.4020 N   0  0  0  0  0  0  0  0  0  0  0  0
   56.2690   28.0870   44.7160 H   0  0  0  0  0  0  0  0  0  0  0  0
   57.3960   32.9210   44.7370 C   0  0  0  0  0  0  0  0  0  0  0  0
   56.5350   32.7515   44.0738 H   0  0  0  0  0  0  0  0  0  0  0  0
  1  2  1  0
  2  3  2  0
  3  4  1  0
  3  5  1  0
  5  6  1  0
  6  7  1  0
  7  8  1  0
  7  9  1  0
  7 10  1  0
 10 11  1  0
 10 12  1  0
 10 13  1  0
  5 14  2  0
 14 15  1  0
 14 16  1  0
 16 17  1  0
 17 18  2  0
 17 19  1  0
 19 20  2  0
 20 21  1  0
 21 22  1  0
 22 23  1  0
 23 24  1  0
 23 25  1  0
 23 26  1  0
 21 27  2  0
 27 28  1  0
 27 29  1  0
 29 30  1  0
 29 31  2  0
 31 32  1  0
 31 33  1  0
 33 34  1  0
 16 35  2  0
 35 36  1  0
 35  2  1  0
 33 20  1  0
M  END
>  <UniqueID>  (81) 
72

>  <SMILES>  (81) 
CCOc1cccc(C(=O)/N=c2/[nH]cccc2OC)c1

>  <Energy>  (81) 
45.665527458636106

>  <Genealogy>  (81) 
CCOc1cccc(C(=O)/N=c2/[nH]cccc2OC)c1 (cis-trans isomerization)
CCOc1cccc(C(=O)/N=c2/[nH]cccc2OC)c1 (3D coordinates assigned)
CCOc1cccc(C(=O)/N=c2/[nH]cccc2OC)c1 (optimized conformer: 45.665527458636106 kcal/mol)

>  <smiles>  (81) 
CCOc1cccc(C(=O)N=c2[nH]cccc2OC)c1

>  <score_type>  (81) 
oracle

>  <origin>  (81) 
adg

>  <m_score__min__energy>  (81) 
-6.5599999999999996

>  <m_primary>  (81) 
energy

$$$$
81:0
     RDKit          3D

 36 38  0  0  0  0  0  0  0  0999 V2000
   58.0020   28.2020   46.5310 O   0  0  0  0  0  0  0  0  0  0  0  0
   56.9650   27.7280   45.9920 C   0  0  0  0  0  0  0  0  0  0  0  0
   56.4810   26.4330   46.3680 N   0  0  0  0  0  0  0  0  0  0  0  0
   56.3740   25.2820   45.5170 C   0  0  0  0  0  0  0  0  0  0  0  0
   57.3790   24.9420   44.5910 C   0  0  0  0  0  0  0  0  0  0  0  0
   57.2240   23.8250   43.7640 C   0  0  0  0  0  0  0  0  0  0  0  0
   56.0650   23.0480   43.8440 C   0  0  0  0  0  0  0  0  0  0  0  0
   55.9160   21.9660   43.0400 F   0  0  0  0  0  0  0  0  0  0  0  0
   55.0540   23.3950   44.7450 C   0  0  0  0  0  0  0  0  0  0  0  0
   55.2050   24.5130   45.5710 C   0  0  0  0  0  0  0  0  0  0  0  0
   56.2040   28.5160   45.0660 N   0  0  0  0  0  0  0  0  0  0  0  0
   56.6710   29.7390   44.4710 C   0  0  0  0  0  0  0  0  0  0  0  0
   56.5520   29.9180   43.0860 C   0  0  0  0  0  0  0  0  0  0  0  0
   57.0170   31.0860   42.4820 C   0  0  0  0  0  0  0  0  0  0  0  0
   57.6200   32.0840   43.2520 C   0  0  0  0  0  0  0  0  0  0  0  0
   57.7730   31.9170   44.6400 C   0  0  0  0  0  0  0  0  0  0  0  0
   58.4280   32.9690   45.4590 C   0  0  0  0  0  0  0  0  0  0  0  0
   58.6030   32.8010   46.8440 C   0  0  0  0  0  0  0  0  0  0  0  0
   59.2190   33.8000   47.6010 C   0  0  0  0  0  0  0  0  0  0  0  0
   59.6580   34.9630   46.9690 C   0  0  0  0  0  0  0  0  0  0  0  0
   59.4860   35.1160   45.6300 N   0  0  0  0  0  0  0  0  0  0  0  0
   58.8880   34.1600   44.8700 C   0  0  0  0  0  0  0  0  0  0  0  0
   57.3010   30.7340   45.2400 C   0  0  0  0  0  0  0  0  0  0  0  0
   58.2883   25.5566   44.5180 H   0  0  0  0  0  0  0  0  0  0  0  0
   58.0159   23.5573   43.0490 H   0  0  0  0  0  0  0  0  0  0  0  0
   54.1387   22.7878   44.8042 H   0  0  0  0  0  0  0  0  0  0  0  0
   54.4003   24.7903   46.2678 H   0  0  0  0  0  0  0  0  0  0  0  0
   55.2210   28.2170   44.8760 H   0  0  0  0  0  0  0  0  0  0  0  0
   56.0888   29.1321   42.4713 H   0  0  0  0  0  0  0  0  0  0  0  0
   56.9087   31.2220   41.3958 H   0  0  0  0  0  0  0  0  0  0  0  0
   57.9772   33.0058   42.7696 H   0  0  0  0  0  0  0  0  0  0  0  0
   58.2536   31.8797   47.3329 H   0  0  0  0  0  0  0  0  0  0  0  0
   59.3565   33.6708   48.6847 H   0  0  0  0  0  0  0  0  0  0  0  0
   60.1439   35.7571   47.5550 H   0  0  0  0  0  0  0  0  0  0  0  0
   58.7635   34.3193   43.7887 H   0  0  0  0  0  0  0  0  0  0  0  0
   57.4264   30.5862   46.3228 H   0  0  0  0  0  0  0  0  0  0  0  0
  1  2  2  0
  2  3  1  0
  3  4  1  0
  4  5  2  0
  5  6  1  0
  6  7  2  0
  7  8  1  0
  7  9  1  0
  9 10  2  0
  2 11  1  0
 11 12  1  0
 12 13  2  0
 13 14  1  0
 14 15  2  0
 15 16  1  0
 16 17  1  0
 17 18  2  0
 18 19  1  0
 19 20  2  0
 20 21  1  0
 21 22  2  0
 16 23  2  0
 10  4  1  0
 23 12  1  0
 22 17  1  0
  5 24  1  0
  6 25  1  0
  9 26  1  0
 10 27  1  0
 11 28  1  0
 13 29  1  0
 14 30  1  0
 15 31  1  0
 18 32  1  0
 19 33  1  0
 20 34  1  0
 22 35  1  0
 23 36  1  0
M  CHG  1   3  -1
M  END
>  <UniqueID>  (82) 
73

>  <SMILES>  (82) 
O=C([N-]c1ccc(F)cc1)Nc1cccc(-c2cccnc2)c1

>  <Energy>  (82) 
51.45898905616616

>  <Genealogy>  (82) 
O=C([N-]c1ccc(F)cc1)Nc1cccc(-c2cccnc2)c1 (protonated)
O=C([N-]c1ccc(F)cc1)Nc1cccc(-c2cccnc2)c1 (3D coordinates assigned)
O=C([N-]c1ccc(F)cc1)Nc1cccc(-c2cccnc2)c1 (optimized conformer: 51.45898905616616 kcal/mol)

>  <smiles>  (82) 
O=C(Nc1ccc(F)cc1)Nc1cccc(-c2cccnc2)c1

>  <score_type>  (82) 
oracle

>  <origin>  (82) 
adg

>  <m_score__min__energy>  (82) 
-9.9100000000000001

>  <m_primary>  (82) 
energy

$$$$
82:0
     RDKit          3D

 36 37  0  0  0  0  0  0  0  0999 V2000
   58.8820   31.5170   48.0120 C   0  0  0  0  0  0  0  0  0  0  0  0
   58.5560   32.2650   46.7430 C   0  0  0  0  0  0  0  0  0  0  0  0
   59.0560   33.5740   46.5470 C   0  0  0  0  0  0  0  0  0  0  0  0
   60.1290   34.3450   47.7130 Cl  0  0  0  0  0  0  0  0  0  0  0  0
   58.7050   34.2960   45.4010 C   0  0  0  0  0  0  0  0  0  0  0  0
   57.8690   33.7300   44.4400 C   0  0  0  0  0  0  0  0  0  0  0  0
   57.3960   32.4290   44.6040 C   0  0  0  0  0  0  0  0  0  0  0  0
   57.7560   31.6770   45.7290 C   0  0  0  0  0  0  0  0  0  0  0  0
   57.2730   30.3310   45.8210 N   0  0  0  0  0  0  0  0  0  0  0  0
   56.5990   29.6500   44.7580 C   0  0  0  0  0  0  0  0  0  0  0  0
   55.3790   29.3470   44.8660 O   0  0  0  0  0  0  0  0  0  0  0  0
   57.3630   29.2260   43.5510 C   0  0  0  0  0  0  0  0  0  0  0  0
   58.7700   28.1900   44.0640 S   0  0  0  0  0  0  0  0  0  0  0  0
   57.7700   26.6980   44.1990 C   0  0  0  0  0  0  0  0  0  0  0  0
   57.7750   25.8190   43.1590 N   0  0  0  0  0  0  0  0  0  0  0  0
   57.0600   24.6980   43.2020 N   0  0  0  0  0  0  0  0  0  0  0  0
   56.3020   24.3870   44.2810 C   0  0  0  0  0  0  0  0  0  0  0  0
   55.5030   23.1200   44.2840 C   0  0  0  0  0  0  0  0  0  0  0  0
   56.2760   25.2780   45.3610 C   0  0  0  0  0  0  0  0  0  0  0  0
   55.5700   25.0110   46.3740 O   0  0  0  0  0  0  0  0  0  0  0  0
   57.0140   26.4290   45.3130 N   0  0  0  0  0  0  0  0  0  0  0  0
   56.9860   27.3250   46.4040 N   0  0  0  0  0  0  0  0  0  0  0  0
   58.6127   32.1349   48.8813 H   0  0  0  0  0  0  0  0  0  0  0  0
   58.3121   30.5765   48.0400 H   0  0  0  0  0  0  0  0  0  0  0  0
   59.9588   31.2942   48.0400 H   0  0  0  0  0  0  0  0  0  0  0  0
   59.0910   35.3160   45.2577 H   0  0  0  0  0  0  0  0  0  0  0  0
   57.5821   34.3107   43.5509 H   0  0  0  0  0  0  0  0  0  0  0  0
   56.7343   31.9894   43.8432 H   0  0  0  0  0  0  0  0  0  0  0  0
   56.7057   28.6491   42.8838 H   0  0  0  0  0  0  0  0  0  0  0  0
   57.7337   30.1141   43.0183 H   0  0  0  0  0  0  0  0  0  0  0  0
   58.3480   26.0220   42.3110 H   0  0  0  0  0  0  0  0  0  0  0  0
   55.3085   22.8116   45.3218 H   0  0  0  0  0  0  0  0  0  0  0  0
   54.5472   23.2881   43.7662 H   0  0  0  0  0  0  0  0  0  0  0  0
   56.0666   22.3299   43.7662 H   0  0  0  0  0  0  0  0  0  0  0  0
   56.6630   28.3110   46.3080 H   0  0  0  0  0  0  0  0  0  0  0  0
   57.2890   27.0290   47.3580 H   0  0  0  0  0  0  0  0  0  0  0  0
  1  2  1  0
  2  3  2  0
  3  4  1  0
  3  5  1  0
  5  6  2  0
  6  7  1  0
  7  8  2  0
  8  9  1  0
  9 10  1  0
 10 11  2  0
 10 12  1  0
 12 13  1  0
 13 14  1  0
 14 15  2  0
 15 16  1  0
 16 17  2  0
 17 18  1  0
 17 19  1  0
 19 20  2  0
 19 21  1  0
 21 22  1  0
  8  2  1  0
 21 14  1  0
  1 23  1  0
  1 24  1  0
  1 25  1  0
  5 26  1  0
  6 27  1  0
  7 28  1  0
 12 29  1  0
 12 30  1  0
 15 31  1  0
 18 32  1  0
 18 33  1  0
 18 34  1  0
 22 35  1  0
 22 36  1  0
M  CHG  2   9  -1  15   1
M  END
>  <UniqueID>  (83) 
74

>  <SMILES>  (83) 
Cc1c(Cl)cccc1[N-]C(=O)CSc1[nH+]nc(C)c(=O)n1N

>  <Energy>  (83) 
42.467987069081985

>  <Genealogy>  (83) 
Cc1c(Cl)cccc1[N-]C(=O)CSc1[nH+]nc(C)c(=O)n1N (protonated)
Cc1c(Cl)cccc1[N-]C(=O)CSc1[nH+]nc(C)c(=O)n1N (3D coordinates assigned)
Cc1c(Cl)cccc1[N-]C(=O)CSc1[nH+]nc(C)c(=O)n1N (optimized conformer: 42.467987069081985 kcal/mol)

>  <smiles>  (83) 
Cc1c(Cl)cccc1NC(=O)CSc1nnc(C)c(=O)n1N

>  <score_type>  (83) 
oracle

>  <origin>  (83) 
adg

>  <m_score__min__energy>  (83) 
-8.0700000000000003

>  <m_primary>  (83) 
energy

$$$$
83:0
     RDKit          3D

 45 48  0  0  0  0  0  0  0  0999 V2000
   56.6360   29.0970   42.6370 C   0  0  0  0  0  0  0  0  0  0  0  0
   56.5240   29.6640   44.3200 S   0  0  0  0  0  0  0  0  0  0  0  0
   57.5530   28.9410   45.1420 O   0  0  0  0  0  0  0  0  0  0  0  0
   55.1620   29.3690   44.8840 O   0  0  0  0  0  0  0  0  0  0  0  0
   56.8440   31.3660   44.3990 N   0  0  0  0  0  0  0  0  0  0  0  0
   57.4690   32.0530   45.4930 C   0  0  0  0  0  0  0  0  0  0  0  0
   58.1540   31.3720   46.5160 C   0  0  0  0  0  0  0  0  0  0  0  0
   58.7440   32.0860   47.5630 C   0  0  0  0  0  0  0  0  0  0  0  0
   58.6380   33.4790   47.6180 C   0  0  0  0  0  0  0  0  0  0  0  0
   59.2990   34.1940   48.6710 N   0  0  0  0  0  0  0  0  0  0  0  0
   60.2460   33.8110   49.4950 C   0  0  0  0  0  0  0  0  0  0  0  0
   60.0610   33.6360   50.9030 C   0  0  0  0  0  0  0  0  0  0  0  0
   58.7970   33.4780   51.5210 C   0  0  0  0  0  0  0  0  0  0  0  0
   58.6880   33.3640   52.9100 C   0  0  0  0  0  0  0  0  0  0  0  0
   59.8320   33.3530   53.7060 C   0  0  0  0  0  0  0  0  0  0  0  0
   61.0910   33.4030   53.1120 C   0  0  0  0  0  0  0  0  0  0  0  0
   61.2110   33.5050   51.7210 C   0  0  0  0  0  0  0  0  0  0  0  0
   62.4420   33.4150   51.1640 N   0  0  0  0  0  0  0  0  0  0  0  0
   62.6440   33.4200   49.8240 C   0  0  0  0  0  0  0  0  0  0  0  0
   63.9520   33.2800   49.3030 C   0  0  0  0  0  0  0  0  0  0  0  0
   65.1270   33.0610   50.1800 C   0  0  0  0  0  0  0  0  0  0  0  0
   65.0570   33.2920   51.5890 N   0  0  0  0  0  0  0  0  0  0  0  0
   66.2020   32.6270   49.6840 O   0  0  0  0  0  0  0  0  0  0  0  0
   64.1500   33.3660   47.9170 C   0  0  0  0  0  0  0  0  0  0  0  0
   63.0730   33.5570   47.0560 C   0  0  0  0  0  0  0  0  0  0  0  0
   61.7810   33.6810   47.5630 C   0  0  0  0  0  0  0  0  0  0  0  0
   61.5430   33.6160   48.9530 C   0  0  0  0  0  0  0  0  0  0  0  0
   57.9920   34.1630   46.5770 C   0  0  0  0  0  0  0  0  0  0  0  0
   57.4010   33.4520   45.5280 C   0  0  0  0  0  0  0  0  0  0  0  0
   56.8492   28.0179   42.6271 H   0  0  0  0  0  0  0  0  0  0  0  0
   55.6829   29.2872   42.1218 H   0  0  0  0  0  0  0  0  0  0  0  0
   57.4452   29.6354   42.1218 H   0  0  0  0  0  0  0  0  0  0  0  0
   58.2255   30.2746   46.4919 H   0  0  0  0  0  0  0  0  0  0  0  0
   59.2952   31.5484   48.3486 H   0  0  0  0  0  0  0  0  0  0  0  0
   57.8894   33.4445   50.9004 H   0  0  0  0  0  0  0  0  0  0  0  0
   57.6952   33.2826   53.3767 H   0  0  0  0  0  0  0  0  0  0  0  0
   59.7409   33.3049   54.8012 H   0  0  0  0  0  0  0  0  0  0  0  0
   61.9943   33.3622   53.7383 H   0  0  0  0  0  0  0  0  0  0  0  0
   64.1450   33.4850   52.0610 H   0  0  0  0  0  0  0  0  0  0  0  0
   65.9100   33.1820   52.1810 H   0  0  0  0  0  0  0  0  0  0  0  0
   65.1669   33.2816   47.5062 H   0  0  0  0  0  0  0  0  0  0  0  0
   63.2426   33.6103   45.9705 H   0  0  0  0  0  0  0  0  0  0  0  0
   60.9377   33.8311   46.8729 H   0  0  0  0  0  0  0  0  0  0  0  0
   57.9504   35.2622   46.5862 H   0  0  0  0  0  0  0  0  0  0  0  0
   56.8796   33.9943   44.7255 H   0  0  0  0  0  0  0  0  0  0  0  0
  1  2  1  0
  2  3  2  0
  2  4  2  0
  2  5  1  0
  5  6  1  0
  6  7  2  0
  7  8  1  0
  8  9  2  0
  9 10  1  0
 10 11  2  3
 11 12  1  0
 12 13  2  0
 13 14  1  0
 14 15  2  0
 15 16  1  0
 16 17  2  0
 17 18  1  0
 18 19  1  0
 19 20  2  0
 20 21  1  0
 21 22  1  0
 21 23  2  0
 20 24  1  0
 24 25  2  0
 25 26  1  0
 26 27  2  0
  9 28  1  0
 28 29  2  0
 29  6  1  0
 27 11  1  0
 17 12  1  0
 27 19  1  0
  1 30  1  0
  1 31  1  0
  1 32  1  0
  7 33  1  0
  8 34  1  0
 13 35  1  0
 14 36  1  0
 15 37  1  0
 16 38  1  0
 22 39  1  0
 22 40  1  0
 24 41  1  0
 25 42  1  0
 26 43  1  0
 28 44  1  0
 29 45  1  0
M  CHG  2   5  -1  18  -1
M  END
>  <UniqueID>  (84) 
75

>  <SMILES>  (84) 
CS(=O)(=O)[N-]c1ccc(N=c2c3ccccc3[n-]c3c(C(N)=O)cccc23)cc1

>  <Energy>  (84) 
80.76597577321864

>  <Genealogy>  (84) 
CS(=O)(=O)[N-]c1ccc(N=c2c3ccccc3[n-]c3c(C(N)=O)cccc23)cc1 (protonated)
CS(=O)(=O)[N-]c1ccc(N=c2c3ccccc3[n-]c3c(C(N)=O)cccc23)cc1 (3D coordinates assigned)
CS(=O)(=O)[N-]c1ccc(N=c2c3ccccc3[n-]c3c(C(N)=O)cccc23)cc1 (optimized conformer: 80.76597577321864 kcal/mol)

>  <smiles>  (84) 
CS(=O)(=O)Nc1ccc(N=c2c3ccccc3[nH]c3c(C(N)=O)cccc23)cc1

>  <score_type>  (84) 
oracle

>  <origin>  (84) 
adg

>  <m_score__min__energy>  (84) 
-10.890000000000001

>  <m_primary>  (84) 
energy

$$$$
84:0
     RDKit          3D

 52 55  0  0  0  0  0  0  0  0999 V2000
   55.9080   19.6620   44.5090 C   0  0  0  0  0  0  0  0  0  0  0  0
   56.0060   20.7520   43.5980 O   0  0  0  0  0  0  0  0  0  0  0  0
   56.3310   22.0650   43.9680 C   0  0  0  0  0  0  0  0  0  0  0  0
   56.5020   23.0960   43.0250 C   0  0  0  0  0  0  0  0  0  0  0  0
   56.8250   24.3910   43.4450 C   0  0  0  0  0  0  0  0  0  0  0  0
   56.9790   24.6780   44.8120 C   0  0  0  0  0  0  0  0  0  0  0  0
   57.3260   26.0030   45.2500 N   0  0  0  0  0  0  0  0  0  0  0  0
   58.5460   26.5150   45.1840 N   0  0  0  0  0  0  0  0  0  0  0  0
   58.4960   27.7870   45.6240 C   0  0  0  0  0  0  0  0  0  0  0  0
   59.8950   28.9000   45.6650 S   0  0  0  0  0  0  0  0  0  0  0  0
   58.8930   30.3630   45.3400 C   0  0  0  0  0  0  0  0  0  0  0  0
   58.3830   30.5290   44.0450 C   0  0  0  0  0  0  0  0  0  0  0  0
   57.6250   31.6560   43.7220 C   0  0  0  0  0  0  0  0  0  0  0  0
   57.3770   32.6320   44.6860 C   0  0  0  0  0  0  0  0  0  0  0  0
   57.8740   32.4780   45.9820 C   0  0  0  0  0  0  0  0  0  0  0  0
   58.6180   31.3350   46.3320 C   0  0  0  0  0  0  0  0  0  0  0  0
   59.0840   31.1730   47.7300 C   0  0  0  0  0  0  0  0  0  0  0  0
   58.7920   30.1080   48.3400 O   0  0  0  0  0  0  0  0  0  0  0  0
   59.8800   32.1820   48.3990 N   0  0  0  0  0  0  0  0  0  0  0  0
   59.3490   32.8130   49.6110 C   0  0  0  0  0  0  0  0  0  0  0  0
   61.1990   32.5540   47.9400 C   0  0  0  0  0  0  0  0  0  0  0  0
   61.3650   33.4850   46.8990 C   0  0  0  0  0  0  0  0  0  0  0  0
   62.6440   33.8440   46.4640 C   0  0  0  0  0  0  0  0  0  0  0  0
   63.7710   33.2780   47.0650 C   0  0  0  0  0  0  0  0  0  0  0  0
   63.6200   32.3540   48.1010 C   0  0  0  0  0  0  0  0  0  0  0  0
   62.3420   31.9940   48.5390 C   0  0  0  0  0  0  0  0  0  0  0  0
   57.2060   28.1010   46.0100 C   0  0  0  0  0  0  0  0  0  0  0  0
   56.5010   26.9430   45.7560 C   0  0  0  0  0  0  0  0  0  0  0  0
   55.1450   26.7620   46.0030 O   0  0  0  0  0  0  0  0  0  0  0  0
   56.8200   23.6440   45.7480 C   0  0  0  0  0  0  0  0  0  0  0  0
   56.4950   22.3520   45.3280 C   0  0  0  0  0  0  0  0  0  0  0  0
   55.9422   20.0422   45.5407 H   0  0  0  0  0  0  0  0  0  0  0  0
   54.9585   19.1313   44.3450 H   0  0  0  0  0  0  0  0  0  0  0  0
   56.7476   18.9705   44.3450 H   0  0  0  0  0  0  0  0  0  0  0  0
   56.3811   22.8826   41.9527 H   0  0  0  0  0  0  0  0  0  0  0  0
   56.9592   25.1895   42.7004 H   0  0  0  0  0  0  0  0  0  0  0  0
   59.3880   26.0270   44.8050 H   0  0  0  0  0  0  0  0  0  0  0  0
   58.5814   29.7660   43.2779 H   0  0  0  0  0  0  0  0  0  0  0  0
   57.2227   31.7741   42.7050 H   0  0  0  0  0  0  0  0  0  0  0  0
   56.7891   33.5245   44.4255 H   0  0  0  0  0  0  0  0  0  0  0  0
   57.6826   33.2561   46.7356 H   0  0  0  0  0  0  0  0  0  0  0  0
   59.7683   32.3148   50.4976 H   0  0  0  0  0  0  0  0  0  0  0  0
   59.6273   33.8771   49.6224 H   0  0  0  0  0  0  0  0  0  0  0  0
   58.2530   32.7206   49.6224 H   0  0  0  0  0  0  0  0  0  0  0  0
   60.4809   33.9344   46.4231 H   0  0  0  0  0  0  0  0  0  0  0  0
   62.7631   34.5723   45.6483 H   0  0  0  0  0  0  0  0  0  0  0  0
   64.7774   33.5602   46.7221 H   0  0  0  0  0  0  0  0  0  0  0  0
   64.5080   31.9086   48.5733 H   0  0  0  0  0  0  0  0  0  0  0  0
   62.2295   31.2679   49.3576 H   0  0  0  0  0  0  0  0  0  0  0  0
   56.8309   29.0494   46.4220 H   0  0  0  0  0  0  0  0  0  0  0  0
   56.9523   23.8526   46.8199 H   0  0  0  0  0  0  0  0  0  0  0  0
   56.3668   21.5529   46.0729 H   0  0  0  0  0  0  0  0  0  0  0  0
  1  2  1  0
  2  3  1  0
  3  4  2  0
  4  5  1  0
  5  6  2  0
  6  7  1  0
  7  8  1  0
  8  9  2  0
  9 10  1  0
 10 11  1  0
 11 12  2  0
 12 13  1  0
 13 14  2  0
 14 15  1  0
 15 16  2  0
 16 17  1  0
 17 18  2  0
 17 19  1  0
 19 20  1  0
 19 21  1  0
 21 22  2  0
 22 23  1  0
 23 24  2  0
 24 25  1  0
 25 26  2  0
  9 27  1  0
 27 28  2  0
 28 29  1  0
  6 30  1  0
 30 31  2  0
 31  3  1  0
 28  7  1  0
 16 11  1  0
 26 21  1  0
  1 32  1  0
  1 33  1  0
  1 34  1  0
  4 35  1  0
  5 36  1  0
  8 37  1  0
 12 38  1  0
 13 39  1  0
 14 40  1  0
 15 41  1  0
 20 42  1  0
 20 43  1  0
 20 44  1  0
 22 45  1  0
 23 46  1  0
 24 47  1  0
 25 48  1  0
 26 49  1  0
 27 50  1  0
 30 51  1  0
 31 52  1  0
M  CHG  2   8   1  29  -1
M  END
>  <UniqueID>  (85) 
76

>  <SMILES>  (85) 
COc1ccc(-n2[nH+]c(Sc3ccccc3C(=O)N(C)c3ccccc3)cc2[O-])cc1

>  <Energy>  (85) 
97.23867550353602

>  <Genealogy>  (85) 
COc1ccc(-n2[nH+]c(Sc3ccccc3C(=O)N(C)c3ccccc3)cc2[O-])cc1 (protonated)
COc1ccc(-n2[nH+]c(Sc3ccccc3C(=O)N(C)c3ccccc3)cc2[O-])cc1 (3D coordinates assigned)
COc1ccc(-n2[nH+]c(Sc3ccccc3C(=O)N(C)c3ccccc3)cc2[O-])cc1 (optimized conformer: 97.23867550353602 kcal/mol)

>  <smiles>  (85) 
COc1ccc(-n2nc(Sc3ccccc3C(=O)N(C)c3ccccc3)cc2O)cc1

>  <score_type>  (85) 
oracle

>  <origin>  (85) 
adg

>  <m_score__min__energy>  (85) 
-11.390000000000001

>  <m_primary>  (85) 
energy

$$$$
85:0
     RDKit          3D

 65 68  0  0  0  0  0  0  0  0999 V2000
   53.6690   30.8770   51.4530 C   0  0  0  0  0  0  0  0  0  0  0  0
   54.7270   30.6580   52.5230 C   0  0  0  0  0  0  0  0  0  0  0  0
   55.7600   31.6290   52.3770 O   0  0  0  0  0  0  0  0  0  0  0  0
   57.0440   31.3510   51.8810 C   0  0  0  0  0  0  0  0  0  0  0  0
   57.8800   32.3490   51.3460 C   0  0  0  0  0  0  0  0  0  0  0  0
   59.1500   32.0210   50.8660 C   0  0  0  0  0  0  0  0  0  0  0  0
   59.6060   30.6920   50.9060 C   0  0  0  0  0  0  0  0  0  0  0  0
   60.9310   30.3590   50.4450 N   0  0  0  0  0  0  0  0  0  0  0  0
   61.1900   31.0430   49.2060 C   0  0  0  0  0  0  0  0  0  0  0  0
   62.4710   31.5240   48.9070 C   0  0  0  0  0  0  0  0  0  0  0  0
   62.6790   32.1410   47.6740 C   0  0  0  0  0  0  0  0  0  0  0  0
   63.8160   32.5880   47.3730 O   0  0  0  0  0  0  0  0  0  0  0  0
   61.6520   32.2560   46.7920 N   0  0  0  0  0  0  0  0  0  0  0  0
   60.4120   31.7780   47.0840 C   0  0  0  0  0  0  0  0  0  0  0  0
   59.2940   31.9230   46.1150 C   0  0  0  0  0  0  0  0  0  0  0  0
   58.6090   30.7720   45.6840 C   0  0  0  0  0  0  0  0  0  0  0  0
   57.5390   30.8650   44.7890 C   0  0  0  0  0  0  0  0  0  0  0  0
   56.6830   29.4040   44.3020 S   0  0  0  0  0  0  0  0  0  0  0  0
   55.2940   29.3910   44.8790 O   0  0  0  0  0  0  0  0  0  0  0  0
   56.5870   29.3660   42.8040 O   0  0  0  0  0  0  0  0  0  0  0  0
   57.5490   28.0020   44.8590 N   0  0  0  0  0  0  0  0  0  0  0  0
   57.3880   27.8130   46.3050 C   0  0  0  0  0  0  0  0  0  0  0  0
   56.8680   26.4030   46.6120 C   0  0  2  0  0  0  0  0  0  0  0  0
   57.5890   25.3230   45.8130 C   0  0  0  0  0  0  0  0  0  0  0  0
   56.5080   24.3150   45.5780 C   0  0  0  0  0  0  0  0  0  0  0  0
   55.2490   25.1550   45.6050 C   0  0  0  0  0  0  0  0  0  0  0  0
   55.4810   26.3250   46.3580 O   0  0  0  0  0  0  0  0  0  0  0  0
   57.1470   32.1160   44.3070 C   0  0  0  0  0  0  0  0  0  0  0  0
   57.8220   33.2680   44.7130 C   0  0  0  0  0  0  0  0  0  0  0  0
   58.9040   33.1890   45.6140 C   0  0  0  0  0  0  0  0  0  0  0  0
   59.6090   34.3350   46.0220 O   0  0  0  0  0  0  0  0  0  0  0  0
   59.2730   35.1800   47.1230 C   0  0  0  0  0  0  0  0  0  0  0  0
   59.7460   34.5670   48.4360 C   0  0  0  0  0  0  0  0  0  0  0  0
   60.1950   31.1780   48.2880 N   0  0  0  0  0  0  0  0  0  0  0  0
   58.7720   29.7000   51.4490 C   0  0  0  0  0  0  0  0  0  0  0  0
   57.5010   30.0280   51.9280 C   0  0  0  0  0  0  0  0  0  0  0  0
   52.6993   31.0777   51.9319 H   0  0  0  0  0  0  0  0  0  0  0  0
   53.9532   31.7353   50.8265 H   0  0  0  0  0  0  0  0  0  0  0  0
   53.5891   29.9763   50.8265 H   0  0  0  0  0  0  0  0  0  0  0  0
   54.2683   30.7577   53.5178 H   0  0  0  0  0  0  0  0  0  0  0  0
   55.1540   29.6500   52.4149 H   0  0  0  0  0  0  0  0  0  0  0  0
   57.5317   33.3916   51.3057 H   0  0  0  0  0  0  0  0  0  0  0  0
   59.7980   32.8084   50.4537 H   0  0  0  0  0  0  0  0  0  0  0  0
   61.0260   29.3240   50.3120 H   0  0  0  0  0  0  0  0  0  0  0  0
   61.6390   30.6480   51.1590 H   0  0  0  0  0  0  0  0  0  0  0  0
   63.2944   31.4174   49.6286 H   0  0  0  0  0  0  0  0  0  0  0  0
   58.9198   29.7848   46.0566 H   0  0  0  0  0  0  0  0  0  0  0  0
   58.3609   27.9546   46.7984 H   0  0  0  0  0  0  0  0  0  0  0  0
   56.6602   28.5480   46.6793 H   0  0  0  0  0  0  0  0  0  0  0  0
   57.0687   26.2195   47.6778 H   0  0  0  0  0  0  0  0  0  0  0  0
   57.9734   25.7220   44.8627 H   0  0  0  0  0  0  0  0  0  0  0  0
   58.4680   24.9098   46.3294 H   0  0  0  0  0  0  0  0  0  0  0  0
   56.6330   23.8209   44.6032 H   0  0  0  0  0  0  0  0  0  0  0  0
   56.5036   23.5026   46.3196 H   0  0  0  0  0  0  0  0  0  0  0  0
   54.9693   25.4297   44.5772 H   0  0  0  0  0  0  0  0  0  0  0  0
   54.4330   24.5784   46.0651 H   0  0  0  0  0  0  0  0  0  0  0  0
   56.3035   32.1934   43.6051 H   0  0  0  0  0  0  0  0  0  0  0  0
   57.5067   34.2482   44.3261 H   0  0  0  0  0  0  0  0  0  0  0  0
   59.7554   36.1592   46.9871 H   0  0  0  0  0  0  0  0  0  0  0  0
   58.1797   35.2952   47.1599 H   0  0  0  0  0  0  0  0  0  0  0  0
   59.3140   35.1268   49.2786 H   0  0  0  0  0  0  0  0  0  0  0  0
   59.4216   33.5172   48.4884 H   0  0  0  0  0  0  0  0  0  0  0  0
   60.8437   34.6146   48.4884 H   0  0  0  0  0  0  0  0  0  0  0  0
   59.1220   28.6583   51.4973 H   0  0  0  0  0  0  0  0  0  0  0  0
   56.8548   29.2415   52.3450 H   0  0  0  0  0  0  0  0  0  0  0  0
  1  2  1  0
  2  3  1  0
  3  4  1  0
  4  5  2  0
  5  6  1  0
  6  7  2  0
  7  8  1  0
  8  9  1  0
  9 10  2  0
 10 11  1  0
 11 12  2  0
 11 13  1  0
 13 14  2  0
 14 15  1  0
 15 16  2  0
 16 17  1  0
 17 18  1  0
 18 19  2  0
 18 20  2  0
 18 21  1  0
 21 22  1  0
 22 23  1  0
 23 24  1  0
 24 25  1  0
 25 26  1  0
 26 27  1  0
 17 28  2  0
 28 29  1  0
 29 30  2  0
 30 31  1  0
 31 32  1  0
 32 33  1  0
 14 34  1  0
  7 35  1  0
 35 36  2  0
 36  4  1  0
 34  9  1  0
 30 15  1  0
 27 23  1  0
  1 37  1  0
  1 38  1  0
  1 39  1  0
  2 40  1  0
  2 41  1  0
  5 42  1  0
  6 43  1  0
  8 44  1  0
  8 45  1  0
 10 46  1  0
 16 47  1  0
 22 48  1  0
 22 49  1  0
 23 50  1  1
 24 51  1  0
 24 52  1  0
 25 53  1  0
 25 54  1  0
 26 55  1  0
 26 56  1  0
 28 57  1  0
 29 58  1  0
 32 59  1  0
 32 60  1  0
 33 61  1  0
 33 62  1  0
 33 63  1  0
 35 64  1  0
 36 65  1  0
M  CHG  3   8   1  21  -1  34  -1
M  END
>  <UniqueID>  (86) 
77

>  <SMILES>  (86) 
CCOc1ccc([NH2+]c2cc(=O)nc(-c3cc(S(=O)(=O)[N-]C[C@@H]4CCCO4)ccc3OCC)[n-]2)cc1

>  <Energy>  (86) 
66.88483820396965

>  <Genealogy>  (86) 
CCOc1ccc([NH2+]c2cc(=O)nc(-c3cc(S(=O)(=O)[N-]CC4CCCO4)ccc3OCC)[n-]2)cc1 (protonated)
CCOc1ccc([NH2+]c2cc(=O)nc(-c3cc(S(=O)(=O)[N-]C[C@@H]4CCCO4)ccc3OCC)[n-]2)cc1 (chirality)
CCOc1ccc([NH2+]c2cc(=O)nc(-c3cc(S(=O)(=O)[N-]C[C@@H]4CCCO4)ccc3OCC)[n-]2)cc1 (3D coordinates assigned)
CCOc1ccc([NH2+]c2cc(=O)nc(-c3cc(S(=O)(=O)[N-]C[C@@H]4CCCO4)ccc3OCC)[n-]2)cc1 (nonaromatic ring conformer: 66.88483820396965 kcal/mol)

>  <smiles>  (86) 
CCOc1ccc(Nc2cc(=O)nc(-c3cc(S(=O)(=O)NCC4CCCO4)ccc3OCC)[nH]2)cc1

>  <score_type>  (86) 
oracle

>  <origin>  (86) 
adg

>  <m_score__min__energy>  (86) 
-11.17

>  <m_primary>  (86) 
energy

$$$$
86:0
     RDKit          3D

 49 51  0  0  0  0  0  0  0  0999 V2000
   57.2210   33.4640   46.6000 C   0  0  0  0  0  0  0  0  0  0  0  0
   58.4270   33.2850   45.6580 C   0  0  0  0  0  0  0  0  0  0  0  0
   58.0810   32.2190   44.6070 C   0  0  0  0  0  0  0  0  0  0  0  0
   58.7550   34.6070   44.9380 C   0  0  0  0  0  0  0  0  0  0  0  0
   59.5680   32.8080   46.3850 O   0  0  0  0  0  0  0  0  0  0  0  0
   60.1430   33.4060   47.5170 C   0  0  0  0  0  0  0  0  0  0  0  0
   59.7560   34.5390   47.9130 O   0  0  0  0  0  0  0  0  0  0  0  0
   61.2100   32.7310   48.2000 N   0  0  0  0  0  0  0  0  0  0  0  0
   62.5120   32.7850   47.8550 C   0  0  0  0  0  0  0  0  0  0  0  0
   63.3130   32.1460   48.7330 N   0  0  0  0  0  0  0  0  0  0  0  0
   62.4720   31.6700   49.6720 C   0  0  0  0  0  0  0  0  0  0  0  0
   61.1780   32.0190   49.3470 C   0  0  0  0  0  0  0  0  0  0  0  0
   59.9720   31.6030   50.0940 C   0  0  0  0  0  0  0  0  0  0  0  0
   58.9250   32.5130   50.3020 C   0  0  0  0  0  0  0  0  0  0  0  0
   57.7920   32.1340   51.0290 C   0  0  0  0  0  0  0  0  0  0  0  0
   57.7030   30.8460   51.5800 C   0  0  0  0  0  0  0  0  0  0  0  0
   56.4670   30.4270   52.3260 C   0  0  0  0  0  0  0  0  0  0  0  0
   55.2930   31.0840   51.7340 N   0  0  0  0  0  0  0  0  0  0  0  0
   54.0150   30.5900   52.2800 C   0  0  2  0  0  0  0  0  0  0  0  0
   53.9790   29.1860   52.2690 O   0  0  0  0  0  0  0  0  0  0  0  0
   52.8300   31.1510   51.5380 C   0  0  0  0  0  0  0  0  0  0  0  0
   51.9660   32.1290   51.9860 C   0  0  0  0  0  0  0  0  0  0  0  0
   51.0000   32.3160   51.0700 N   0  0  0  0  0  0  0  0  0  0  0  0
   51.3130   31.4330   50.1000 C   0  0  0  0  0  0  0  0  0  0  0  0
   50.6270   31.3040   49.0520 O   0  0  0  0  0  0  0  0  0  0  0  0
   52.4150   30.6960   50.3420 N   0  0  0  0  0  0  0  0  0  0  0  0
   58.7530   29.9380   51.3780 C   0  0  0  0  0  0  0  0  0  0  0  0
   59.8850   30.3170   50.6510 C   0  0  0  0  0  0  0  0  0  0  0  0
   57.5612   33.4135   47.6448 H   0  0  0  0  0  0  0  0  0  0  0  0
   56.7523   34.4416   46.4138 H   0  0  0  0  0  0  0  0  0  0  0  0
   56.4885   32.6647   46.4138 H   0  0  0  0  0  0  0  0  0  0  0  0
   57.7794   31.2898   45.1127 H   0  0  0  0  0  0  0  0  0  0  0  0
   57.2537   32.5793   43.9779 H   0  0  0  0  0  0  0  0  0  0  0  0
   58.9622   32.0247   43.9779 H   0  0  0  0  0  0  0  0  0  0  0  0
   58.9498   35.3920   45.6835 H   0  0  0  0  0  0  0  0  0  0  0  0
   59.6464   34.4701   44.3082 H   0  0  0  0  0  0  0  0  0  0  0  0
   57.9030   34.9027   44.3082 H   0  0  0  0  0  0  0  0  0  0  0  0
   62.8821   33.2956   46.9537 H   0  0  0  0  0  0  0  0  0  0  0  0
   62.7710   31.0930   50.5595 H   0  0  0  0  0  0  0  0  0  0  0  0
   58.9955   33.5308   49.8908 H   0  0  0  0  0  0  0  0  0  0  0  0
   56.9672   32.8481   51.1696 H   0  0  0  0  0  0  0  0  0  0  0  0
   56.3498   29.3354   52.2581 H   0  0  0  0  0  0  0  0  0  0  0  0
   56.5584   30.7202   53.3823 H   0  0  0  0  0  0  0  0  0  0  0  0
   55.3010   30.9140   50.7000 H   0  0  0  0  0  0  0  0  0  0  0  0
   53.9501   30.9395   53.3210 H   0  0  0  0  0  0  0  0  0  0  0  0
   53.3940   28.9240   51.5110 H   0  0  0  0  0  0  0  0  0  0  0  0
   52.0536   32.6693   52.9401 H   0  0  0  0  0  0  0  0  0  0  0  0
   58.6851   28.9220   51.7941 H   0  0  0  0  0  0  0  0  0  0  0  0
   60.7118   29.6044   50.5145 H   0  0  0  0  0  0  0  0  0  0  0  0
  1  2  1  0
  2  3  1  0
  2  4  1  0
  2  5  1  0
  5  6  1  0
  6  7  2  0
  6  8  1  0
  8  9  1  0
  9 10  2  0
 10 11  1  0
 11 12  2  0
 12 13  1  0
 13 14  2  0
 14 15  1  0
 15 16  2  0
 16 17  1  0
 17 18  1  0
 18 19  1  0
 19 20  1  0
 19 21  1  0
 21 22  2  0
 22 23  1  0
 23 24  1  0
 24 25  2  0
 24 26  1  0
 16 27  1  0
 27 28  2  0
 12  8  1  0
 28 13  1  0
 26 21  1  0
  1 29  1  0
  1 30  1  0
  1 31  1  0
  3 32  1  0
  3 33  1  0
  3 34  1  0
  4 35  1  0
  4 36  1  0
  4 37  1  0
  9 38  1  0
 11 39  1  0
 14 40  1  0
 15 41  1  0
 17 42  1  0
 17 43  1  0
 18 44  1  0
 19 45  1  1
 20 46  1  0
 22 47  1  0
 27 48  1  0
 28 49  1  0
M  CHG  2  23  -1  26  -1
M  END
>  <UniqueID>  (87) 
78

>  <SMILES>  (87) 
CC(C)(C)OC(=O)n1cncc1-c1ccc(CN[C@H](O)c2c[n-]c(=O)[n-]2)cc1

>  <Energy>  (87) 
110.69065586937064

>  <Genealogy>  (87) 
CC(C)(C)OC(=O)n1cncc1-c1ccc(CNC(O)c2c[n-]c(=O)[n-]2)cc1 (protonated)
CC(C)(C)OC(=O)n1cncc1-c1ccc(CN[C@H](O)c2c[n-]c(=O)[n-]2)cc1 (chirality)
CC(C)(C)OC(=O)n1cncc1-c1ccc(CN[C@H](O)c2c[n-]c(=O)[n-]2)cc1 (3D coordinates assigned)
CC(C)(C)OC(=O)n1cncc1-c1ccc(CN[C@H](O)c2c[n-]c(=O)[n-]2)cc1 (optimized conformer: 110.69065586937064 kcal/mol)

>  <smiles>  (87) 
CC(C)(C)OC(=O)n1cncc1-c1ccc(CNC(O)c2c[nH]c(=O)[nH]2)cc1

>  <score_type>  (87) 
oracle

>  <origin>  (87) 
adg

>  <m_score__min__energy>  (87) 
-12.73

>  <m_primary>  (87) 
energy

$$$$
87:0
     RDKit          3D

 43 45  0  0  0  0  0  0  0  0999 V2000
   60.1390   26.7480   46.9700 C   0  0  0  0  0  0  0  0  0  0  0  0
   58.9540   27.4440   46.3520 C   0  0  0  0  0  0  0  0  0  0  0  0
   57.7670   26.7150   46.1590 C   0  0  0  0  0  0  0  0  0  0  0  0
   56.6360   27.3250   45.6160 C   0  0  0  0  0  0  0  0  0  0  0  0
   56.6730   28.6710   45.2540 C   0  0  0  0  0  0  0  0  0  0  0  0
   55.5730   29.2610   44.7270 F   0  0  0  0  0  0  0  0  0  0  0  0
   57.8470   29.4080   45.4240 C   0  0  0  0  0  0  0  0  0  0  0  0
   59.0020   28.8100   45.9630 C   0  0  0  0  0  0  0  0  0  0  0  0
   60.2300   29.6310   46.0960 C   0  0  0  0  0  0  0  0  0  0  0  0
   61.2230   29.4020   45.3540 O   0  0  0  0  0  0  0  0  0  0  0  0
   60.2940   30.6800   47.0770 N   0  0  0  0  0  0  0  0  0  0  0  0
   61.3550   31.6480   47.1320 C   0  0  0  0  0  0  0  0  0  0  0  0
   62.6600   31.2560   47.4800 C   0  0  0  0  0  0  0  0  0  0  0  0
   63.7030   32.1860   47.4770 C   0  0  0  0  0  0  0  0  0  0  0  0
   63.4580   33.5110   47.1150 C   0  0  0  0  0  0  0  0  0  0  0  0
   62.1690   33.9110   46.7560 C   0  0  0  0  0  0  0  0  0  0  0  0
   61.1130   32.9890   46.7630 C   0  0  0  0  0  0  0  0  0  0  0  0
   59.7940   33.4340   46.4160 N   0  0  0  0  0  0  0  0  0  0  0  0
   59.5200   33.8750   45.0440 C   0  0  0  0  0  0  0  0  0  0  0  0
   58.0300   34.1440   44.8540 C   0  0  0  0  0  0  0  0  0  0  0  0
   57.2680   33.0640   45.4860 N   0  0  0  0  0  0  0  0  0  0  0  0
   57.3820   33.1040   46.9570 C   0  0  0  0  0  0  0  0  0  0  0  0
   58.7720   33.5540   47.4610 C   0  0  0  0  0  0  0  0  0  0  0  0
   60.0606   26.7941   48.0662 H   0  0  0  0  0  0  0  0  0  0  0  0
   60.1559   25.6965   46.6475 H   0  0  0  0  0  0  0  0  0  0  0  0
   61.0656   27.2454   46.6475 H   0  0  0  0  0  0  0  0  0  0  0  0
   57.7299   25.6520   46.4393 H   0  0  0  0  0  0  0  0  0  0  0  0
   55.7135   26.7432   45.4732 H   0  0  0  0  0  0  0  0  0  0  0  0
   57.8696   30.4686   45.1332 H   0  0  0  0  0  0  0  0  0  0  0  0
   59.5920   30.6700   47.8510 H   0  0  0  0  0  0  0  0  0  0  0  0
   62.8610   30.2104   47.7564 H   0  0  0  0  0  0  0  0  0  0  0  0
   64.7187   31.8730   47.7605 H   0  0  0  0  0  0  0  0  0  0  0  0
   64.2807   34.2411   47.1124 H   0  0  0  0  0  0  0  0  0  0  0  0
   61.9813   34.9554   46.4661 H   0  0  0  0  0  0  0  0  0  0  0  0
   60.0827   34.7983   44.8418 H   0  0  0  0  0  0  0  0  0  0  0  0
   59.8287   33.0812   44.3479 H   0  0  0  0  0  0  0  0  0  0  0  0
   57.7658   35.1044   45.3208 H   0  0  0  0  0  0  0  0  0  0  0  0
   57.7933   34.1882   43.7807 H   0  0  0  0  0  0  0  0  0  0  0  0
   56.2600   33.1830   45.2330 H   0  0  0  0  0  0  0  0  0  0  0  0
   56.6284   33.8053   47.3447 H   0  0  0  0  0  0  0  0  0  0  0  0
   57.2259   32.0772   47.3193 H   0  0  0  0  0  0  0  0  0  0  0  0
   58.7118   34.6045   47.7815 H   0  0  0  0  0  0  0  0  0  0  0  0
   59.0603   32.9017   48.2985 H   0  0  0  0  0  0  0  0  0  0  0  0
  1  2  1  0
  2  3  2  0
  3  4  1  0
  4  5  2  0
  5  6  1  0
  5  7  1  0
  7  8  2  0
  8  9  1  0
  9 10  2  0
  9 11  1  0
 11 12  1  0
 12 13  2  0
 13 14  1  0
 14 15  2  0
 15 16  1  0
 16 17  2  0
 17 18  1  0
 18 19  1  0
 19 20  1  0
 20 21  1  0
 21 22  1  0
 22 23  1  0
  8  2  1  0
 17 12  1  0
 23 18  1  0
  1 24  1  0
  1 25  1  0
  1 26  1  0
  3 27  1  0
  4 28  1  0
  7 29  1  0
 11 30  1  0
 13 31  1  0
 14 32  1  0
 15 33  1  0
 16 34  1  0
 19 35  1  0
 19 36  1  0
 20 37  1  0
 20 38  1  0
 21 39  1  0
 22 40  1  0
 22 41  1  0
 23 42  1  0
 23 43  1  0
M  END
>  <UniqueID>  (88) 
79

>  <SMILES>  (88) 
Cc1ccc(F)cc1C(=O)Nc1ccccc1N1CCNCC1

>  <Energy>  (88) 
61.5585702471598

>  <Genealogy>  (88) 
Cc1ccc(F)cc1C(=O)Nc1ccccc1N1CCNCC1 (3D coordinates assigned)
Cc1ccc(F)cc1C(=O)Nc1ccccc1N1CCNCC1 (nonaromatic ring conformer: 61.5585702471598 kcal/mol)

>  <smiles>  (88) 
Cc1ccc(F)cc1C(=O)Nc1ccccc1N1CCNCC1

>  <score_type>  (88) 
oracle

>  <origin>  (88) 
adg

>  <m_score__min__energy>  (88) 
-7.0199999999999996

>  <m_primary>  (88) 
energy

$$$$
88:0
     RDKit          3D

 41 43  0  0  0  0  0  0  0  0999 V2000
   56.6860   20.8270   43.3590 C   0  0  0  0  0  0  0  0  0  0  0  0
   55.8680   21.9250   43.7470 O   0  0  0  0  0  0  0  0  0  0  0  0
   56.3610   23.1610   44.1910 C   0  0  0  0  0  0  0  0  0  0  0  0
   57.0280   24.0590   43.3360 C   0  0  0  0  0  0  0  0  0  0  0  0
   57.5030   25.2790   43.8290 C   0  0  0  0  0  0  0  0  0  0  0  0
   57.3320   25.6160   45.1820 C   0  0  0  0  0  0  0  0  0  0  0  0
   57.7950   26.8810   45.6930 N   0  0  0  0  0  0  0  0  0  0  0  0
   57.4170   27.9910   45.0470 N   0  0  0  0  0  0  0  0  0  0  0  0
   57.7970   29.2400   45.4280 C   0  0  0  0  0  0  0  0  0  0  0  0
   57.3420   30.3870   44.6180 C   0  0  0  0  0  0  0  0  0  0  0  0
   56.7360   31.3300   45.2000 O   0  0  0  0  0  0  0  0  0  0  0  0
   57.4340   30.3670   43.1730 N   0  0  0  0  0  0  0  0  0  0  0  0
   57.5250   31.7350   42.6350 C   0  0  0  0  0  0  0  0  0  0  0  0
   56.2650   29.6710   42.6150 C   0  0  0  0  0  0  0  0  0  0  0  0
   58.5960   29.3680   46.5710 C   0  0  0  0  0  0  0  0  0  0  0  0
   59.0160   30.5640   47.1570 C   0  0  0  0  0  0  0  0  0  0  0  0
   59.9220   30.1860   48.5220 S   0  0  0  0  0  0  0  0  0  0  0  0
   59.7810   28.5170   48.3940 C   0  0  0  0  0  0  0  0  0  0  0  0
   60.3770   27.6020   49.3170 N   0  0  0  0  0  0  0  0  0  0  0  0
   59.0040   28.2180   47.2670 C   0  0  0  0  0  0  0  0  0  0  0  0
   58.5820   26.9570   46.8170 C   0  0  0  0  0  0  0  0  0  0  0  0
   58.8880   25.9120   47.4510 O   0  0  0  0  0  0  0  0  0  0  0  0
   56.6520   24.7260   46.0270 C   0  0  0  0  0  0  0  0  0  0  0  0
   56.1780   23.5060   45.5340 C   0  0  0  0  0  0  0  0  0  0  0  0
   57.0657   20.3174   44.2568 H   0  0  0  0  0  0  0  0  0  0  0  0
   56.0921   20.1209   42.7601 H   0  0  0  0  0  0  0  0  0  0  0  0
   57.5325   21.1940   42.7601 H   0  0  0  0  0  0  0  0  0  0  0  0
   57.1761   23.8005   42.2771 H   0  0  0  0  0  0  0  0  0  0  0  0
   58.0141   25.9795   43.1522 H   0  0  0  0  0  0  0  0  0  0  0  0
   58.2860   29.8400   42.8740 H   0  0  0  0  0  0  0  0  0  0  0  0
   57.5728   32.4536   43.4665 H   0  0  0  0  0  0  0  0  0  0  0  0
   58.4312   31.8270   42.0183 H   0  0  0  0  0  0  0  0  0  0  0  0
   56.6389   31.9462   42.0183 H   0  0  0  0  0  0  0  0  0  0  0  0
   55.6354   29.2961   43.4354 H   0  0  0  0  0  0  0  0  0  0  0  0
   55.6831   30.3698   41.9961 H   0  0  0  0  0  0  0  0  0  0  0  0
   56.6020   28.8264   41.9961 H   0  0  0  0  0  0  0  0  0  0  0  0
   58.7930   31.5766   46.7897 H   0  0  0  0  0  0  0  0  0  0  0  0
   60.9330   27.9110   50.1410 H   0  0  0  0  0  0  0  0  0  0  0  0
   60.2250   26.5760   49.1920 H   0  0  0  0  0  0  0  0  0  0  0  0
   56.4908   24.9891   47.0828 H   0  0  0  0  0  0  0  0  0  0  0  0
   55.6564   22.8113   46.2088 H   0  0  0  0  0  0  0  0  0  0  0  0
  1  2  1  0
  2  3  1  0
  3  4  2  0
  4  5  1  0
  5  6  2  0
  6  7  1  0
  7  8  1  0
  8  9  2  0
  9 10  1  0
 10 11  2  0
 10 12  1  0
 12 13  1  0
 12 14  1  0
  9 15  1  0
 15 16  2  0
 16 17  1  0
 17 18  1  0
 18 19  1  0
 18 20  2  0
 20 21  1  0
 21 22  2  0
  6 23  1  0
 23 24  2  0
 24  3  1  0
 21  7  1  0
 20 15  1  0
  1 25  1  0
  1 26  1  0
  1 27  1  0
  4 28  1  0
  5 29  1  0
 12 30  1  0
 13 31  1  0
 13 32  1  0
 13 33  1  0
 14 34  1  0
 14 35  1  0
 14 36  1  0
 16 37  1  0
 19 38  1  0
 19 39  1  0
 23 40  1  0
 24 41  1  0
M  CHG  1  12   1
M  END
>  <UniqueID>  (89) 
80

>  <SMILES>  (89) 
COc1ccc(-n2nc(C(=O)[NH+](C)C)c3csc(N)c3c2=O)cc1

>  <Energy>  (89) 
89.89755023273212

>  <Genealogy>  (89) 
COc1ccc(-n2nc(C(=O)[NH+](C)C)c3csc(N)c3c2=O)cc1 (protonated)
COc1ccc(-n2nc(C(=O)[NH+](C)C)c3csc(N)c3c2=O)cc1 (3D coordinates assigned)
COc1ccc(-n2nc(C(=O)[NH+](C)C)c3csc(N)c3c2=O)cc1 (optimized conformer: 89.89755023273212 kcal/mol)

>  <smiles>  (89) 
COc1ccc(-n2nc(C(=O)N(C)C)c3csc(N)c3c2=O)cc1

>  <score_type>  (89) 
oracle

>  <origin>  (89) 
adg

>  <m_score__min__energy>  (89) 
-5.5599999999999996

>  <m_primary>  (89) 
energy

$$$$
89:0
     RDKit          3D

 49 51  0  0  0  0  0  0  0  0999 V2000
   63.0220   33.7180   49.9220 C   0  0  0  0  0  0  0  0  0  0  0  0
   61.9940   33.8260   48.8260 C   0  0  0  0  0  0  0  0  0  0  0  0
   60.6780   34.1950   49.1500 C   0  0  0  0  0  0  0  0  0  0  0  0
   59.7050   34.3050   48.1560 C   0  0  0  0  0  0  0  0  0  0  0  0
   60.0290   34.0440   46.8220 C   0  0  0  0  0  0  0  0  0  0  0  0
   58.7960   34.2250   45.5750 S   0  0  0  0  0  0  0  0  0  0  0  0
   59.0150   35.5360   44.8730 O   0  0  0  0  0  0  0  0  0  0  0  0
   57.4260   34.2450   46.1950 O   0  0  0  0  0  0  0  0  0  0  0  0
   58.8810   32.9370   44.4050 N   0  0  0  0  0  0  0  0  0  0  0  0
   57.5470   32.4750   44.0100 C   0  0  0  0  0  0  0  0  0  0  0  0
   57.2960   31.0610   44.4670 C   0  0  0  0  0  0  0  0  0  0  0  0
   56.1330   30.3860   44.0690 C   0  0  0  0  0  0  0  0  0  0  0  0
   55.8920   29.0790   44.5020 C   0  0  0  0  0  0  0  0  0  0  0  0
   56.8170   28.4210   45.3290 C   0  0  0  0  0  0  0  0  0  0  0  0
   56.5520   27.0360   45.7860 C   0  0  0  0  0  0  0  0  0  0  0  0
   55.3650   26.6780   46.0130 O   0  0  0  0  0  0  0  0  0  0  0  0
   57.6080   26.0980   46.0310 N   0  0  0  0  0  0  0  0  0  0  0  0
   57.7630   24.8140   45.4090 C   0  0  0  0  0  0  0  0  0  0  0  0
   56.8790   24.4450   44.3880 C   0  0  0  0  0  0  0  0  0  0  0  0
   57.0080   23.2060   43.7550 C   0  0  0  0  0  0  0  0  0  0  0  0
   58.0310   22.3300   44.1300 C   0  0  0  0  0  0  0  0  0  0  0  0
   58.9370   22.6990   45.1340 C   0  0  0  0  0  0  0  0  0  0  0  0
   59.9690   21.8420   45.5070 O   0  0  0  0  0  0  0  0  0  0  0  0
   58.8070   23.9410   45.7670 C   0  0  0  0  0  0  0  0  0  0  0  0
   57.9780   29.1030   45.7340 C   0  0  0  0  0  0  0  0  0  0  0  0
   58.2200   30.4080   45.2980 C   0  0  0  0  0  0  0  0  0  0  0  0
   61.3350   33.6660   46.4860 C   0  0  0  0  0  0  0  0  0  0  0  0
   62.3260   33.5520   47.4780 C   0  0  0  0  0  0  0  0  0  0  0  0
   63.7260   33.1620   47.0810 C   0  0  0  0  0  0  0  0  0  0  0  0
   62.5218   33.7705   50.9003 H   0  0  0  0  0  0  0  0  0  0  0  0
   63.5535   32.7591   49.8330 H   0  0  0  0  0  0  0  0  0  0  0  0
   63.7412   34.5455   49.8330 H   0  0  0  0  0  0  0  0  0  0  0  0
   60.4119   34.3992   50.1976 H   0  0  0  0  0  0  0  0  0  0  0  0
   58.6791   34.5983   48.4235 H   0  0  0  0  0  0  0  0  0  0  0  0
   56.7917   33.1359   44.4603 H   0  0  0  0  0  0  0  0  0  0  0  0
   57.4835   32.4999   42.9121 H   0  0  0  0  0  0  0  0  0  0  0  0
   55.4067   30.8877   43.4127 H   0  0  0  0  0  0  0  0  0  0  0  0
   54.9715   28.5622   44.1929 H   0  0  0  0  0  0  0  0  0  0  0  0
   56.0782   25.1345   44.0823 H   0  0  0  0  0  0  0  0  0  0  0  0
   56.3035   22.9194   42.9603 H   0  0  0  0  0  0  0  0  0  0  0  0
   58.1250   21.3511   43.6372 H   0  0  0  0  0  0  0  0  0  0  0  0
   59.9360   20.8510   45.2990 H   0  0  0  0  0  0  0  0  0  0  0  0
   59.5240   24.2356   46.5475 H   0  0  0  0  0  0  0  0  0  0  0  0
   58.7002   28.6059   46.3983 H   0  0  0  0  0  0  0  0  0  0  0  0
   59.1394   30.9266   45.6075 H   0  0  0  0  0  0  0  0  0  0  0  0
   61.5883   33.4562   45.4363 H   0  0  0  0  0  0  0  0  0  0  0  0
   64.3300   32.9937   47.9848 H   0  0  0  0  0  0  0  0  0  0  0  0
   63.6941   32.2385   46.4842 H   0  0  0  0  0  0  0  0  0  0  0  0
   64.1761   33.9690   46.4842 H   0  0  0  0  0  0  0  0  0  0  0  0
  1  2  1  0
  2  3  2  0
  3  4  1  0
  4  5  2  0
  5  6  1  0
  6  7  2  0
  6  8  2  0
  6  9  1  0
  9 10  1  0
 10 11  1  0
 11 12  2  0
 12 13  1  0
 13 14  2  0
 14 15  1  0
 15 16  2  0
 15 17  1  0
 17 18  1  0
 18 19  2  0
 19 20  1  0
 20 21  2  0
 21 22  1  0
 22 23  1  0
 22 24  2  0
 14 25  1  0
 25 26  2  0
  5 27  1  0
 27 28  2  0
 28 29  1  0
 28  2  1  0
 26 11  1  0
 24 18  1  0
  1 30  1  0
  1 31  1  0
  1 32  1  0
  3 33  1  0
  4 34  1  0
 10 35  1  0
 10 36  1  0
 12 37  1  0
 13 38  1  0
 19 39  1  0
 20 40  1  0
 21 41  1  0
 23 42  1  0
 24 43  1  0
 25 44  1  0
 26 45  1  0
 27 46  1  0
 29 47  1  0
 29 48  1  0
 29 49  1  0
M  CHG  2   9  -1  17  -1
M  END
>  <UniqueID>  (90) 
81

>  <SMILES>  (90) 
Cc1ccc(S(=O)(=O)[N-]Cc2ccc(C(=O)[N-]c3cccc(O)c3)cc2)cc1C

>  <Energy>  (90) 
55.95293933127193

>  <Genealogy>  (90) 
Cc1ccc(S(=O)(=O)[N-]Cc2ccc(C(=O)[N-]c3cccc(O)c3)cc2)cc1C (protonated)
Cc1ccc(S(=O)(=O)[N-]Cc2ccc(C(=O)[N-]c3cccc(O)c3)cc2)cc1C (3D coordinates assigned)
Cc1ccc(S(=O)(=O)[N-]Cc2ccc(C(=O)[N-]c3cccc(O)c3)cc2)cc1C (optimized conformer: 55.95293933127193 kcal/mol)

>  <smiles>  (90) 
Cc1ccc(S(=O)(=O)NCc2ccc(C(=O)Nc3cccc(O)c3)cc2)cc1C

>  <score_type>  (90) 
oracle

>  <origin>  (90) 
adg

>  <m_score__min__energy>  (90) 
-12.890000000000001

>  <m_primary>  (90) 
energy

$$$$
90:0
     RDKit          3D

 43 46  0  0  0  0  0  0  0  0999 V2000
   58.9950   34.2030   44.5060 C   0  0  0  0  0  0  0  0  0  0  0  0
   57.8030   33.3410   44.5400 N   0  0  0  0  0  0  0  0  0  0  0  0
   57.5960   32.7550   45.8880 C   0  0  0  0  0  0  0  0  0  0  0  0
   58.1220   31.3170   46.0120 C   0  0  0  0  0  0  0  0  0  0  0  0
   57.5620   30.4630   44.9560 N   0  0  0  0  0  0  0  0  0  0  0  0
   57.4960   29.0300   45.1090 C   0  0  0  0  0  0  0  0  0  0  0  0
   58.6290   28.2090   44.8390 C   0  0  0  0  0  0  0  0  0  0  0  0
   58.5350   26.8120   44.9780 C   0  0  0  0  0  0  0  0  0  0  0  0
   57.3110   26.2930   45.3820 C   0  0  0  0  0  0  0  0  0  0  0  0
   56.9730   25.0120   45.5850 N   0  0  0  0  0  0  0  0  0  0  0  0
   55.6690   25.1120   45.9610 C   0  0  0  0  0  0  0  0  0  0  0  0
   54.8320   23.9170   46.3030 C   0  0  1  0  0  0  0  0  0  0  0  0
   53.7430   23.7070   45.2260 C   0  0  0  0  0  0  0  0  0  0  0  0
   52.8800   22.5580   45.5450 N   0  0  0  0  0  0  0  0  0  0  0  0
   53.5490   21.5470   46.3800 C   0  0  0  0  0  0  0  0  0  0  0  0
   55.0720   21.5510   46.1600 C   0  0  0  0  0  0  0  0  0  0  0  0
   55.6880   22.7930   46.4670 O   0  0  0  0  0  0  0  0  0  0  0  0
   55.1840   26.3830   45.9990 N   0  0  0  0  0  0  0  0  0  0  0  0
   56.2530   27.0980   45.6280 C   0  0  0  0  0  0  0  0  0  0  0  0
   56.3180   28.4450   45.4980 N   0  0  0  0  0  0  0  0  0  0  0  0
   57.0330   31.0940   43.7400 C   0  0  0  0  0  0  0  0  0  0  0  0
   57.8390   32.3580   43.4300 C   0  0  0  0  0  0  0  0  0  0  0  0
   59.3115   34.4318   45.5343 H   0  0  0  0  0  0  0  0  0  0  0  0
   59.8086   33.6830   43.9791 H   0  0  0  0  0  0  0  0  0  0  0  0
   58.7560   35.1386   43.9791 H   0  0  0  0  0  0  0  0  0  0  0  0
   58.1177   33.3826   46.6255 H   0  0  0  0  0  0  0  0  0  0  0  0
   56.5110   32.7219   46.0661 H   0  0  0  0  0  0  0  0  0  0  0  0
   59.2185   31.3255   45.9251 H   0  0  0  0  0  0  0  0  0  0  0  0
   57.8181   30.9138   46.9893 H   0  0  0  0  0  0  0  0  0  0  0  0
   59.5773   28.6675   44.5219 H   0  0  0  0  0  0  0  0  0  0  0  0
   59.3954   26.1574   44.7751 H   0  0  0  0  0  0  0  0  0  0  0  0
   54.2973   24.0679   47.2524 H   0  0  0  0  0  0  0  0  0  0  0  0
   53.1225   24.6132   45.1642 H   0  0  0  0  0  0  0  0  0  0  0  0
   54.2421   23.5065   44.2665 H   0  0  0  0  0  0  0  0  0  0  0  0
   52.0370   22.9050   46.0620 H   0  0  0  0  0  0  0  0  0  0  0  0
   53.3403   21.7627   47.4383 H   0  0  0  0  0  0  0  0  0  0  0  0
   53.1625   20.5564   46.0983 H   0  0  0  0  0  0  0  0  0  0  0  0
   55.5176   20.7745   46.7992 H   0  0  0  0  0  0  0  0  0  0  0  0
   55.2436   21.3619   45.0901 H   0  0  0  0  0  0  0  0  0  0  0  0
   57.1138   30.3916   42.8974 H   0  0  0  0  0  0  0  0  0  0  0  0
   55.9771   31.3607   43.8945 H   0  0  0  0  0  0  0  0  0  0  0  0
   58.8852   32.0728   43.2451 H   0  0  0  0  0  0  0  0  0  0  0  0
   57.3876   32.8341   42.5471 H   0  0  0  0  0  0  0  0  0  0  0  0
  1  2  1  0
  2  3  1  0
  3  4  1  0
  4  5  1  0
  5  6  1  0
  6  7  2  0
  7  8  1  0
  8  9  2  0
  9 10  1  0
 10 11  2  0
 11 12  1  0
 12 13  1  0
 13 14  1  0
 14 15  1  0
 15 16  1  0
 16 17  1  0
 11 18  1  0
 18 19  1  0
 19 20  2  0
  5 21  1  0
 21 22  1  0
 22  2  1  0
 20  6  1  0
 19  9  1  0
 17 12  1  0
  1 23  1  0
  1 24  1  0
  1 25  1  0
  3 26  1  0
  3 27  1  0
  4 28  1  0
  4 29  1  0
  7 30  1  0
  8 31  1  0
 12 32  1  1
 13 33  1  0
 13 34  1  0
 14 35  1  0
 15 36  1  0
 15 37  1  0
 16 38  1  0
 16 39  1  0
 21 40  1  0
 21 41  1  0
 22 42  1  0
 22 43  1  0
M  CHG  1  18  -1
M  END
>  <UniqueID>  (91) 
82

>  <SMILES>  (91) 
CN1CCN(c2ccc3nc([C@H]4CNCCO4)[n-]c3n2)CC1

>  <Energy>  (91) 
101.13452684927934

>  <Genealogy>  (91) 
CN1CCN(c2ccc3nc(C4CNCCO4)[n-]c3n2)CC1 (protonated)
CN1CCN(c2ccc3nc([C@H]4CNCCO4)[n-]c3n2)CC1 (chirality)
CN1CCN(c2ccc3nc([C@H]4CNCCO4)[n-]c3n2)CC1 (3D coordinates assigned)
CN1CCN(c2ccc3nc([C@H]4CNCCO4)[n-]c3n2)CC1 (nonaromatic ring conformer: 101.13452684927934 kcal/mol)

>  <smiles>  (91) 
CN1CCN(c2ccc3nc(C4CNCCO4)[nH]c3n2)CC1

>  <score_type>  (91) 
oracle

>  <origin>  (91) 
adg

>  <m_score__min__energy>  (91) 
-8.7599999999999998

>  <m_primary>  (91) 
energy

$$$$
91:0
     RDKit          3D

 28 29  0  0  0  0  0  0  0  0999 V2000
   56.0530   30.7430   44.5420 O   0  0  0  0  0  0  0  0  0  0  0  0
   57.3050   30.9100   44.5000 C   0  0  0  0  0  0  0  0  0  0  0  0
   57.8770   32.1530   45.0850 C   0  0  0  0  0  0  0  0  0  0  0  0
   58.1460   32.2130   46.4660 C   0  0  0  0  0  0  0  0  0  0  0  0
   58.6780   33.3710   47.0380 C   0  0  0  0  0  0  0  0  0  0  0  0
   58.9420   34.4870   46.2420 C   0  0  0  0  0  0  0  0  0  0  0  0
   58.6700   34.4480   44.8730 C   0  0  0  0  0  0  0  0  0  0  0  0
   58.1390   33.2900   44.2950 C   0  0  0  0  0  0  0  0  0  0  0  0
   58.1370   29.9090   43.8590 N   0  0  0  0  0  0  0  0  0  0  0  0
   57.3120   28.7360   43.4870 C   0  0  0  0  0  0  0  0  0  0  0  0
   58.1780   27.4690   43.3740 C   0  0  0  0  0  0  0  0  0  0  0  0
   58.8370   27.1130   44.5830 O   0  0  0  0  0  0  0  0  0  0  0  0
   59.0660   28.2120   45.4560 C   0  0  0  0  0  0  0  0  0  0  0  0
   59.2970   29.5430   44.7160 C   0  0  0  0  0  0  0  0  0  0  0  0
   57.9351   31.3395   47.1004 H   0  0  0  0  0  0  0  0  0  0  0  0
   58.8892   33.4036   48.1170 H   0  0  0  0  0  0  0  0  0  0  0  0
   59.3643   35.3970   46.6932 H   0  0  0  0  0  0  0  0  0  0  0  0
   58.8737   35.3297   44.2477 H   0  0  0  0  0  0  0  0  0  0  0  0
   57.9245   33.2669   43.2164 H   0  0  0  0  0  0  0  0  0  0  0  0
   58.5410   30.3150   42.9830 H   0  0  0  0  0  0  0  0  0  0  0  0
   56.5421   28.5785   44.2567 H   0  0  0  0  0  0  0  0  0  0  0  0
   56.8448   28.9305   42.5103 H   0  0  0  0  0  0  0  0  0  0  0  0
   57.5304   26.6323   43.0729 H   0  0  0  0  0  0  0  0  0  0  0  0
   58.9625   27.6829   42.6332 H   0  0  0  0  0  0  0  0  0  0  0  0
   58.1900   28.3250   46.1116 H   0  0  0  0  0  0  0  0  0  0  0  0
   59.9831   27.9916   46.0220 H   0  0  0  0  0  0  0  0  0  0  0  0
   59.4566   30.3394   45.4578 H   0  0  0  0  0  0  0  0  0  0  0  0
   60.1770   29.4242   44.0667 H   0  0  0  0  0  0  0  0  0  0  0  0
  1  2  2  0
  2  3  1  0
  3  4  2  0
  4  5  1  0
  5  6  2  0
  6  7  1  0
  7  8  2  0
  2  9  1  0
  9 10  1  0
 10 11  1  0
 11 12  1  0
 12 13  1  0
 13 14  1  0
  8  3  1  0
 14  9  1  0
  4 15  1  0
  5 16  1  0
  6 17  1  0
  7 18  1  0
  8 19  1  0
  9 20  1  0
 10 21  1  0
 10 22  1  0
 11 23  1  0
 11 24  1  0
 13 25  1  0
 13 26  1  0
 14 27  1  0
 14 28  1  0
M  CHG  1   9   1
M  END
>  <UniqueID>  (92) 
83

>  <SMILES>  (92) 
O=C(c1ccccc1)[NH+]1CCOCC1

>  <Energy>  (92) 
46.23740102231668

>  <Genealogy>  (92) 
O=C(c1ccccc1)[NH+]1CCOCC1 (protonated)
O=C(c1ccccc1)[NH+]1CCOCC1 (3D coordinates assigned)
O=C(c1ccccc1)[NH+]1CCOCC1 (nonaromatic ring conformer: 46.23740102231668 kcal/mol)

>  <smiles>  (92) 
O=C(c1ccccc1)N1CCOCC1

>  <score_type>  (92) 
oracle

>  <origin>  (92) 
adg

>  <m_score__min__energy>  (92) 
-4.7400000000000002

>  <m_primary>  (92) 
energy

$$$$
92:0
     RDKit          3D

 36 38  0  0  0  0  0  0  0  0999 V2000
   60.7642   33.6973   48.8442 H   0  0  0  0  0  0  0  0  0  0  0  0
   60.1040   33.6640   47.9650 C   0  0  0  0  0  0  0  0  0  0  0  0
   58.8290   33.1030   48.0700 C   0  0  0  0  0  0  0  0  0  0  0  0
   58.4831   32.7010   49.0337 H   0  0  0  0  0  0  0  0  0  0  0  0
   57.9920   33.0520   46.9510 C   0  0  0  0  0  0  0  0  0  0  0  0
   56.9872   32.6130   47.0382 H   0  0  0  0  0  0  0  0  0  0  0  0
   58.4290   33.5590   45.7160 C   0  0  0  0  0  0  0  0  0  0  0  0
   57.5050   33.5520   44.5300 C   0  0  0  0  0  0  0  0  0  0  0  0
   57.9968   34.0498   43.6813 H   0  0  0  0  0  0  0  0  0  0  0  0
   56.5792   34.0869   44.7884 H   0  0  0  0  0  0  0  0  0  0  0  0
   57.1800   32.1770   44.1630 N   0  0  0  0  0  0  0  0  0  0  0  0
   56.6450   31.3030   44.9990 N   0  0  0  0  0  0  0  0  0  0  0  0
   56.5230   30.1460   44.3220 C   0  0  0  0  0  0  0  0  0  0  0  0
   56.0760   29.0420   44.8350 N   0  0  0  0  0  0  0  0  0  0  0  0
   57.1200   27.8110   45.4680 S   0  0  0  0  0  0  0  0  0  0  0  0
   56.3190   26.9060   46.3620 O   0  0  0  0  0  0  0  0  0  0  0  0
   57.6840   27.0090   44.3300 O   0  0  0  0  0  0  0  0  0  0  0  0
   58.4490   28.5450   46.3650 C   0  0  0  0  0  0  0  0  0  0  0  0
   58.5540   28.3640   47.7530 C   0  0  0  0  0  0  0  0  0  0  0  0
   57.8093   27.7542   48.2856 H   0  0  0  0  0  0  0  0  0  0  0  0
   59.6040   28.9580   48.4590 C   0  0  0  0  0  0  0  0  0  0  0  0
   59.6830   28.8161   49.5469 H   0  0  0  0  0  0  0  0  0  0  0  0
   60.5540   29.7320   47.7860 C   0  0  0  0  0  0  0  0  0  0  0  0
   61.3811   30.1958   48.3435 H   0  0  0  0  0  0  0  0  0  0  0  0
   60.4520   29.9160   46.4040 C   0  0  0  0  0  0  0  0  0  0  0  0
   61.1958   30.5301   45.8751 H   0  0  0  0  0  0  0  0  0  0  0  0
   59.4050   29.3200   45.6930 C   0  0  0  0  0  0  0  0  0  0  0  0
   59.3315   29.4596   44.6044 H   0  0  0  0  0  0  0  0  0  0  0  0
   56.9760   30.2840   43.0260 C   0  0  0  0  0  0  0  0  0  0  0  0
   57.0002   29.5249   42.2303 H   0  0  0  0  0  0  0  0  0  0  0  0
   57.3920   31.6000   42.9630 C   0  0  0  0  0  0  0  0  0  0  0  0
   57.8242   32.0947   42.0807 H   0  0  0  0  0  0  0  0  0  0  0  0
   59.7040   34.1410   45.6240 C   0  0  0  0  0  0  0  0  0  0  0  0
   60.0451   34.5652   44.6682 H   0  0  0  0  0  0  0  0  0  0  0  0
   60.5410   34.1830   46.7430 C   0  0  0  0  0  0  0  0  0  0  0  0
   61.5449   34.6251   46.6616 H   0  0  0  0  0  0  0  0  0  0  0  0
  1  2  1  0
  2  3  2  0
  3  4  1  0
  3  5  1  0
  5  6  1  0
  5  7  2  0
  7  8  1  0
  8  9  1  0
  8 10  1  0
  8 11  1  0
 11 12  1  0
 12 13  1  0
 13 14  2  0
 14 15  1  0
 15 16  2  0
 15 17  2  0
 15 18  1  0
 18 19  2  0
 19 20  1  0
 19 21  1  0
 21 22  1  0
 21 23  2  0
 23 24  1  0
 23 25  1  0
 25 26  1  0
 25 27  2  0
 27 28  1  0
 13 29  1  0
 29 30  1  0
 29 31  2  0
 31 32  1  0
  7 33  1  0
 33 34  1  0
 33 35  2  0
 35 36  1  0
 35  2  1  0
 31 11  1  0
 27 18  1  0
M  CHG  1  12  -1
M  END
>  <UniqueID>  (93) 
84

>  <SMILES>  (93) 
O=S(=O)(/N=c1/ccn(Cc2ccccc2)[n-]1)c1ccccc1

>  <Energy>  (93) 
66.88041597980187

>  <Genealogy>  (93) 
O=S(=O)(N=c1ccn(Cc2ccccc2)[n-]1)c1ccccc1 (protonated)
O=S(=O)(/N=c1/ccn(Cc2ccccc2)[n-]1)c1ccccc1 (cis-trans isomerization)
O=S(=O)(/N=c1/ccn(Cc2ccccc2)[n-]1)c1ccccc1 (3D coordinates assigned)
O=S(=O)(/N=c1/ccn(Cc2ccccc2)[n-]1)c1ccccc1 (optimized conformer: 66.88041597980187 kcal/mol)

>  <smiles>  (93) 
O=S(=O)(N=c1ccn(Cc2ccccc2)[nH]1)c1ccccc1

>  <score_type>  (93) 
oracle

>  <origin>  (93) 
adg

>  <m_score__min__energy>  (93) 
-9.3699999999999992

>  <m_primary>  (93) 
energy

$$$$
93:0
     RDKit          3D

 39 40  0  0  1  0  0  0  0  0999 V2000
   57.3120   24.0870   44.1650 C   0  0  0  0  0  0  0  0  0  0  0  0
   57.8700   25.4220   44.5280 C   0  0  0  0  0  0  0  0  0  0  0  0
   57.7730   26.4430   43.4270 C   0  0  0  0  0  0  0  0  0  0  0  0
   58.4950   27.7260   43.7780 C   0  0  0  0  0  0  0  0  0  0  0  0
   58.0380   28.1550   45.1310 C   0  0  0  0  0  0  0  0  0  0  0  0
   56.5370   28.2150   45.2490 C   0  0  0  0  0  0  0  0  0  0  0  0
   55.8970   27.2940   45.8010 O   0  0  0  0  0  0  0  0  0  0  0  0
   55.9240   29.3750   44.6940 N   0  0  0  0  0  0  0  0  0  0  0  0
   56.5930   30.3740   44.2310 C   0  0  0  0  0  0  0  0  0  0  0  0
   56.6780   30.4880   42.8610 C   0  0  0  0  0  0  0  0  0  0  0  0
   57.3940   31.5590   42.3650 C   0  0  0  0  0  0  0  0  0  0  0  0
   57.9530   32.4050   43.2490 N   0  0  0  0  0  0  0  0  0  0  0  0
   57.8520   32.2660   44.5810 C   0  0  0  0  0  0  0  0  0  0  0  0
   58.4600   33.1850   45.5370 C   0  0  0  0  0  0  0  0  0  0  0  0
   58.5710   32.8800   46.8930 C   0  0  0  0  0  0  0  0  0  0  0  0
   59.1420   33.7420   47.8000 C   0  0  0  0  0  0  0  0  0  0  0  0
   59.6340   34.9590   47.4000 C   0  0  0  0  0  0  0  0  0  0  0  0
   59.5420   35.2910   46.0780 C   0  0  0  0  0  0  0  0  0  0  0  0
   60.0340   36.5070   45.6740 F   0  0  0  0  0  0  0  0  0  0  0  0
   58.9680   34.4230   45.1700 C   0  0  0  0  0  0  0  0  0  0  0  0
   57.1600   31.2320   45.0930 N   0  0  0  0  0  0  0  0  0  0  0  0
   57.0775   23.5260   45.0817 H   0  0  0  0  0  0  0  0  0  0  0  0
   56.3948   24.2216   43.5728 H   0  0  0  0  0  0  0  0  0  0  0  0
   58.0522   23.5289   43.5728 H   0  0  0  0  0  0  0  0  0  0  0  0
   57.3198   25.8014   45.4017 H   0  0  0  0  0  0  0  0  0  0  0  0
   58.9405   25.2754   44.7342 H   0  0  0  0  0  0  0  0  0  0  0  0
   58.2188   26.0232   42.5132 H   0  0  0  0  0  0  0  0  0  0  0  0
   56.7096   26.6816   43.2777 H   0  0  0  0  0  0  0  0  0  0  0  0
   59.5812   27.5526   43.7882 H   0  0  0  0  0  0  0  0  0  0  0  0
   58.2735   28.5056   43.0342 H   0  0  0  0  0  0  0  0  0  0  0  0
   58.4206   27.4399   45.8742 H   0  0  0  0  0  0  0  0  0  0  0  0
   58.4245   29.1702   45.3045 H   0  0  0  0  0  0  0  0  0  0  0  0
   56.1972   29.7587   42.1924 H   0  0  0  0  0  0  0  0  0  0  0  0
   57.5039   31.7156   41.2818 H   0  0  0  0  0  0  0  0  0  0  0  0
   58.4880   33.2030   42.8470 H   0  0  0  0  0  0  0  0  0  0  0  0
   58.1873   31.9132   47.2510 H   0  0  0  0  0  0  0  0  0  0  0  0
   59.2051   33.4522   48.8593 H   0  0  0  0  0  0  0  0  0  0  0  0
   60.0905   35.6491   48.1248 H   0  0  0  0  0  0  0  0  0  0  0  0
   58.9113   34.7251   44.1138 H   0  0  0  0  0  0  0  0  0  0  0  0
  1  2  1  0
  2  3  1  0
  3  4  1  0
  4  5  1  0
  5  6  1  0
  6  7  2  0
  6  8  1  0
  8  9  2  0
  9 10  1  0
 10 11  2  0
 11 12  1  0
 12 13  1  0
 13 14  1  0
 14 15  2  0
 15 16  1  0
 16 17  2  0
 17 18  1  0
 18 19  1  0
 18 20  2  0
 13 21  2  0
 21  9  1  0
 20 14  1  0
  1 22  1  0
  1 23  1  0
  1 24  1  0
  2 25  1  0
  2 26  1  0
  3 27  1  0
  3 28  1  0
  4 29  1  0
  4 30  1  0
  5 31  1  0
  5 32  1  0
 10 33  1  0
 11 34  1  0
 12 35  1  0
 15 36  1  0
 16 37  1  0
 17 38  1  0
 20 39  1  0
M  END
>  <smiles>  (94) 
CCCCCC(=O)N=c1cc[nH]c(-c2cccc(F)c2)n1

>  <score_type>  (94) 
oracle

>  <origin>  (94) 
adg

>  <m_score__min__energy>  (94) 
-7.3200000000000003

>  <m_primary>  (94) 
energy

$$$$
