0:0
     RDKit          3D

 38 40  0  0  1  0  0  0  0  0999 V2000
   64.5310   33.0980   49.1820 C   0  0  0  0  0  0  0  0  0  0  0  0
   63.0850   33.2260   48.7800 C   0  0  0  0  0  0  0  0  0  0  0  0
   62.6140   32.6430   47.6090 C   0  0  0  0  0  0  0  0  0  0  0  0
   58.5660   29.1240   45.0170 C   0  0  0  0  0  0  0  0  0  0  0  0
   57.2790   29.6090   44.9010 C   0  0  0  0  0  0  0  0  0  0  0  0
   56.9660   30.9230   44.4820 N   0  0  0  0  0  0  0  0  0  0  0  0
   57.6760   31.9540   44.8460 C   0  0  0  0  0  0  0  0  0  0  0  0
   59.1400   34.1030   45.4620 N   0  0  0  0  0  0  0  0  0  0  0  0
   58.8710   33.9060   44.1600 C   0  0  0  0  0  0  0  0  0  0  0  0
   58.1150   32.7980   43.8330 C   0  0  0  0  0  0  0  0  0  0  0  0
   57.8430   32.5950   42.5340 F   0  0  0  0  0  0  0  0  0  0  0  0
   58.7090   33.2790   46.4370 C   0  0  0  0  0  0  0  0  0  0  0  0
   59.0310   33.5750   47.6390 N   0  0  0  0  0  0  0  0  0  0  0  0
   60.3870   33.4820   48.0620 C   0  0  0  0  0  0  0  0  0  0  0  0
   60.8560   34.0600   49.2240 C   0  0  0  0  0  0  0  0  0  0  0  0
   58.7560   27.8070   45.4410 C   0  0  0  0  0  0  0  0  0  0  0  0
   57.6940   26.9790   45.7470 C   0  0  0  0  0  0  0  0  0  0  0  0
   56.3940   27.4700   45.6300 C   0  0  0  0  0  0  0  0  0  0  0  0
   55.2950   26.6710   45.9270 O   0  0  0  0  0  0  0  0  0  0  0  0
   56.2260   28.7730   45.2090 C   0  0  0  0  0  0  0  0  0  0  0  0
   57.9710   32.1900   46.1490 N   0  0  0  0  0  0  0  0  0  0  0  0
   61.2800   32.7740   47.2590 C   0  0  0  0  0  0  0  0  0  0  0  0
   62.2000   33.9330   49.5810 C   0  0  0  0  0  0  0  0  0  0  0  0
   64.6073   33.0912   50.2793 H   0  0  0  0  0  0  0  0  0  0  0  0
   64.9416   32.1600   48.7801 H   0  0  0  0  0  0  0  0  0  0  0  0
   65.1000   33.9493   48.7801 H   0  0  0  0  0  0  0  0  0  0  0  0
   63.3001   32.0781   46.9608 H   0  0  0  0  0  0  0  0  0  0  0  0
   59.4281   29.7645   44.7793 H   0  0  0  0  0  0  0  0  0  0  0  0
   59.7140   34.9430   45.7090 H   0  0  0  0  0  0  0  0  0  0  0  0
   59.2376   34.5982   43.3877 H   0  0  0  0  0  0  0  0  0  0  0  0
   60.1682   34.6232   49.8718 H   0  0  0  0  0  0  0  0  0  0  0  0
   59.7808   27.4181   45.5339 H   0  0  0  0  0  0  0  0  0  0  0  0
   57.8712   25.9453   46.0788 H   0  0  0  0  0  0  0  0  0  0  0  0
   55.1490   26.3230   46.8490 H   0  0  0  0  0  0  0  0  0  0  0  0
   55.2023   29.1643   45.1143 H   0  0  0  0  0  0  0  0  0  0  0  0
   57.6410   31.5600   46.8890 H   0  0  0  0  0  0  0  0  0  0  0  0
   60.9183   32.3103   46.3294 H   0  0  0  0  0  0  0  0  0  0  0  0
   62.5616   34.3995   50.5092 H   0  0  0  0  0  0  0  0  0  0  0  0
  1  2  1  0
  2  3  2  0
  3  4  1  0
  4  5  2  0
  5  6  1  0
  6  7  2  0
  7  8  1  0
  8  9  1  0
  9 10  2  0
 10 11  1  0
 10 12  1  0
 12 13  2  0
 13 14  1  0
 14 15  2  0
 15 16  1  0
 16 17  2  0
 17 18  1  0
 18 19  1  0
 18 20  2  0
 12 21  1  0
  5 22  1  0
 22 23  2  0
 23  2  1  0
 21  7  1  0
 20 14  1  0
  1 24  1  0
  1 25  1  0
  1 26  1  0
  3 27  1  0
  4 28  1  0
  8 29  1  0
  9 30  1  0
 15 31  1  0
 16 32  1  0
 17 33  1  0
 19 34  1  0
 20 35  1  0
 21 36  1  0
 22 37  1  0
 23 38  1  0
M  END
>  <smiles>  (1) 
Cc1ccc(N=c2[nH]cc(F)c(=Nc3cccc(O)c3)[nH]2)cc1

>  <score_type>  (1) 
oracle

>  <origin>  (1) 
adg

>  <m_score__min__energy>  (1) 
-8.1300000000000008

>  <m_primary>  (1) 
energy

$$$$
1:0
     RDKit          3D

 27 28  0  0  0  0  0  0  0  0999 V2000
   55.5480   26.6320   46.2450 O   0  0  0  0  0  0  0  0  0  0  0  0
   56.2820   27.4340   45.6090 C   0  0  0  0  0  0  0  0  0  0  0  0
   57.7030   27.0470   45.3040 C   0  0  0  0  0  0  0  0  0  0  0  0
   58.6600   28.0780   45.8440 C   0  0  0  0  0  0  0  0  0  0  0  0
   59.7790   28.4720   45.0920 C   0  0  0  0  0  0  0  0  0  0  0  0
   60.6810   29.4070   45.6090 C   0  0  0  0  0  0  0  0  0  0  0  0
   60.4760   29.9500   46.8820 C   0  0  0  0  0  0  0  0  0  0  0  0
   61.7090   31.2260   47.5870 Br  0  0  0  0  0  0  0  0  0  0  0  0
   59.3700   29.5530   47.6390 C   0  0  0  0  0  0  0  0  0  0  0  0
   58.4660   28.6170   47.1250 C   0  0  0  0  0  0  0  0  0  0  0  0
   55.7500   28.7150   45.2430 N   0  0  0  0  0  0  0  0  0  0  0  0
   56.3630   29.6710   44.3690 C   0  0  0  0  0  0  0  0  0  0  0  0
   57.1600   30.6840   44.9140 C   0  0  0  0  0  0  0  0  0  0  0  0
   57.7410   31.6420   44.0810 C   0  0  0  0  0  0  0  0  0  0  0  0
   57.4980   31.5910   42.7070 C   0  0  0  0  0  0  0  0  0  0  0  0
   56.6980   30.6190   42.1930 N   0  0  0  0  0  0  0  0  0  0  0  0
   56.1250   29.6720   42.9840 C   0  0  0  0  0  0  0  0  0  0  0  0
   57.9203   26.0736   45.7680 H   0  0  0  0  0  0  0  0  0  0  0  0
   57.8274   26.9841   44.2129 H   0  0  0  0  0  0  0  0  0  0  0  0
   59.9463   28.0435   44.0928 H   0  0  0  0  0  0  0  0  0  0  0  0
   61.5530   29.7161   45.0140 H   0  0  0  0  0  0  0  0  0  0  0  0
   59.2100   29.9775   48.6411 H   0  0  0  0  0  0  0  0  0  0  0  0
   57.6006   28.3027   47.7269 H   0  0  0  0  0  0  0  0  0  0  0  0
   57.3289   30.7255   46.0002 H   0  0  0  0  0  0  0  0  0  0  0  0
   58.3836   32.4289   44.5028 H   0  0  0  0  0  0  0  0  0  0  0  0
   57.9539   32.3375   42.0400 H   0  0  0  0  0  0  0  0  0  0  0  0
   55.4740   28.9054   42.5385 H   0  0  0  0  0  0  0  0  0  0  0  0
  1  2  2  0
  2  3  1  0
  3  4  1  0
  4  5  2  0
  5  6  1  0
  6  7  2  0
  7  8  1  0
  7  9  1  0
  9 10  2  0
  2 11  1  0
 11 12  1  0
 12 13  2  0
 13 14  1  0
 14 15  2  0
 15 16  1  0
 16 17  2  0
 10  4  1  0
 17 12  1  0
  3 18  1  0
  3 19  1  0
  5 20  1  0
  6 21  1  0
  9 22  1  0
 10 23  1  0
 13 24  1  0
 14 25  1  0
 15 26  1  0
 17 27  1  0
M  CHG  1  11  -1
M  END
>  <UniqueID>  (2) 
1

>  <SMILES>  (2) 
O=C(Cc1ccc(Br)cc1)[N-]c1cccnc1

>  <Energy>  (2) 
32.27936098324715

>  <Genealogy>  (2) 
O=C(Cc1ccc(Br)cc1)[N-]c1cccnc1 (protonated)
O=C(Cc1ccc(Br)cc1)[N-]c1cccnc1 (3D coordinates assigned)
O=C(Cc1ccc(Br)cc1)[N-]c1cccnc1 (optimized conformer: 32.27936098324715 kcal/mol)

>  <smiles>  (2) 
O=C(Cc1ccc(Br)cc1)Nc1cccnc1

>  <score_type>  (2) 
oracle

>  <origin>  (2) 
adg

>  <m_score__min__energy>  (2) 
-8.7799999999999994

>  <m_primary>  (2) 
energy

$$$$
2:0
     RDKit          3D

 27 28  0  0  0  0  0  0  0  0999 V2000
   57.3800   23.9860   46.6630 C   0  0  0  0  0  0  0  0  0  0  0  0
   57.0690   25.3750   46.2240 C   0  0  0  0  0  0  0  0  0  0  0  0
   57.9550   26.2620   45.6380 C   0  0  0  0  0  0  0  0  0  0  0  0
   57.1820   27.3970   45.4520 C   0  0  0  0  0  0  0  0  0  0  0  0
   57.5640   28.5380   44.9550 N   0  0  0  0  0  0  0  0  0  0  0  0
   56.8310   29.7720   45.0170 C   0  0  0  0  0  0  0  0  0  0  0  0
   55.5880   29.7430   44.8170 O   0  0  0  0  0  0  0  0  0  0  0  0
   57.5030   31.0760   45.2390 C   0  0  0  0  0  0  0  0  0  0  0  0
   58.2350   31.3020   46.4150 C   0  0  0  0  0  0  0  0  0  0  0  0
   58.8660   32.5310   46.6320 C   0  0  0  0  0  0  0  0  0  0  0  0
   58.7720   33.5620   45.6810 C   0  0  0  0  0  0  0  0  0  0  0  0
   59.4210   34.8260   45.9000 N   0  0  0  0  0  0  0  0  0  0  0  0
   59.9020   35.1100   47.0160 O   0  0  0  0  0  0  0  0  0  0  0  0
   59.5240   35.7460   44.8800 O   0  0  0  0  0  0  0  0  0  0  0  0
   58.0260   33.3380   44.5100 C   0  0  0  0  0  0  0  0  0  0  0  0
   57.3950   32.1100   44.2930 C   0  0  0  0  0  0  0  0  0  0  0  0
   55.9410   27.1770   45.9170 N   0  0  0  0  0  0  0  0  0  0  0  0
   55.9010   25.9600   46.3710 O   0  0  0  0  0  0  0  0  0  0  0  0
   57.3898   23.9424   47.7621 H   0  0  0  0  0  0  0  0  0  0  0  0
   56.6135   23.2987   46.2755 H   0  0  0  0  0  0  0  0  0  0  0  0
   58.3664   23.6912   46.2755 H   0  0  0  0  0  0  0  0  0  0  0  0
   59.0133   26.1047   45.3825 H   0  0  0  0  0  0  0  0  0  0  0  0
   58.3129   30.5070   47.1712 H   0  0  0  0  0  0  0  0  0  0  0  0
   59.4413   32.6925   47.5555 H   0  0  0  0  0  0  0  0  0  0  0  0
   57.9384   34.1363   43.7583 H   0  0  0  0  0  0  0  0  0  0  0  0
   56.8096   31.9515   43.3753 H   0  0  0  0  0  0  0  0  0  0  0  0
   55.1420   27.8490   45.9250 H   0  0  0  0  0  0  0  0  0  0  0  0
  1  2  1  0
  2  3  2  0
  3  4  1  0
  4  5  2  3
  5  6  1  0
  6  7  2  0
  6  8  1  0
  8  9  2  0
  9 10  1  0
 10 11  2  0
 11 12  1  0
 12 13  2  0
 12 14  1  0
 11 15  1  0
 15 16  2  0
  4 17  1  0
 17 18  1  0
 18  2  1  0
 16  8  1  0
  1 19  1  0
  1 20  1  0
  1 21  1  0
  3 22  1  0
  9 23  1  0
 10 24  1  0
 15 25  1  0
 16 26  1  0
 17 27  1  0
M  CHG  2  12   1  14  -1
M  END
>  <UniqueID>  (3) 
2

>  <SMILES>  (3) 
Cc1cc(=NC(=O)c2ccc([N+](=O)[O-])cc2)[nH]o1

>  <Energy>  (3) 
67.66684402617983

>  <Genealogy>  (3) 
Cc1cc(=NC(=O)c2ccc([N+](=O)[O-])cc2)[nH]o1 (3D coordinates assigned)
Cc1cc(=NC(=O)c2ccc([N+](=O)[O-])cc2)[nH]o1 (optimized conformer: 67.66684402617983 kcal/mol)

>  <smiles>  (3) 
Cc1cc(=NC(=O)c2ccc([N+](=O)[O-])cc2)[nH]o1

>  <score_type>  (3) 
oracle

>  <origin>  (3) 
adg

>  <m_score__min__energy>  (3) 
-7.4100000000000001

>  <m_primary>  (3) 
energy

$$$$
3:0
     RDKit          3D

 49 52  0  0  0  0  0  0  0  0999 V2000
   67.8780   26.4170   50.1330 C   0  0  0  0  0  0  0  0  0  0  0  0
   67.5120   27.2970   51.1910 O   0  0  0  0  0  0  0  0  0  0  0  0
   66.6090   26.9730   52.2150 C   0  0  0  0  0  0  0  0  0  0  0  0
   67.0940   26.2910   53.3380 C   0  0  0  0  0  0  0  0  0  0  0  0
   66.2350   25.9470   54.3850 C   0  0  0  0  0  0  0  0  0  0  0  0
   64.8800   26.2820   54.3190 C   0  0  0  0  0  0  0  0  0  0  0  0
   64.3800   26.9630   53.2030 C   0  0  0  0  0  0  0  0  0  0  0  0
   62.9860   27.3090   53.1350 C   0  0  0  0  0  0  0  0  0  0  0  0
   61.8160   27.5990   53.0780 C   0  0  0  0  0  0  0  0  0  0  0  0
   60.4220   27.9460   53.0080 C   0  0  0  0  0  0  0  0  0  0  0  0
   59.4690   27.1450   53.6390 C   0  0  0  0  0  0  0  0  0  0  0  0
   58.1160   27.4770   53.5630 C   0  0  0  0  0  0  0  0  0  0  0  0
   57.6930   28.6240   52.8790 C   0  0  0  0  0  0  0  0  0  0  0  0
   58.6590   29.4370   52.2250 C   0  0  0  0  0  0  0  0  0  0  0  0
   60.0150   29.0790   52.2960 C   0  0  0  0  0  0  0  0  0  0  0  0
   58.3010   30.5730   51.4180 N   0  0  0  0  0  0  0  0  0  0  0  0
   57.2490   31.4860   51.7410 C   0  0  0  0  0  0  0  0  0  0  0  0
   57.0280   32.4710   50.9890 O   0  0  0  0  0  0  0  0  0  0  0  0
   56.4100   31.2860   52.9580 C   0  0  0  0  0  0  0  0  0  0  0  0
   55.6520   29.9960   52.8030 C   0  0  0  0  0  0  0  0  0  0  0  0
   54.1780   29.9960   52.6470 C   0  0  0  0  0  0  0  0  0  0  0  0
   53.4330   28.8810   53.0660 C   0  0  0  0  0  0  0  0  0  0  0  0
   52.0440   28.8680   52.9320 C   0  0  0  0  0  0  0  0  0  0  0  0
   51.3800   29.9700   52.3880 C   0  0  0  0  0  0  0  0  0  0  0  0
   52.1020   31.1040   51.9770 C   0  0  0  0  0  0  0  0  0  0  0  0
   51.3930   32.2770   51.4130 C   0  0  0  0  0  0  0  0  0  0  0  0
   51.0230   32.3090   50.0350 N   0  0  0  0  0  0  0  0  0  0  0  0
   51.1080   33.2620   52.1460 O   0  0  0  0  0  0  0  0  0  0  0  0
   53.5020   31.1090   52.1150 C   0  0  0  0  0  0  0  0  0  0  0  0
   56.2760   28.8530   52.7930 N   0  0  0  0  0  0  0  0  0  0  0  0
   65.2420   27.3090   52.1520 C   0  0  0  0  0  0  0  0  0  0  0  0
   68.2681   25.4789   50.5547 H   0  0  0  0  0  0  0  0  0  0  0  0
   66.9950   26.2012   49.5135 H   0  0  0  0  0  0  0  0  0  0  0  0
   68.6536   26.8910   49.5135 H   0  0  0  0  0  0  0  0  0  0  0  0
   68.1595   26.0241   53.3962 H   0  0  0  0  0  0  0  0  0  0  0  0
   66.6261   25.4116   55.2627 H   0  0  0  0  0  0  0  0  0  0  0  0
   64.2058   26.0103   55.1446 H   0  0  0  0  0  0  0  0  0  0  0  0
   59.7849   26.2511   54.1968 H   0  0  0  0  0  0  0  0  0  0  0  0
   57.3707   26.8288   54.0471 H   0  0  0  0  0  0  0  0  0  0  0  0
   60.7671   29.6979   51.7848 H   0  0  0  0  0  0  0  0  0  0  0  0
   58.9340   30.8360   50.6280 H   0  0  0  0  0  0  0  0  0  0  0  0
   57.0533   31.2346   53.8488 H   0  0  0  0  0  0  0  0  0  0  0  0
   55.7090   32.1253   53.0769 H   0  0  0  0  0  0  0  0  0  0  0  0
   53.9480   28.0125   53.5026 H   0  0  0  0  0  0  0  0  0  0  0  0
   51.4702   27.9871   53.2558 H   0  0  0  0  0  0  0  0  0  0  0  0
   50.2854   29.9503   52.2806 H   0  0  0  0  0  0  0  0  0  0  0  0
   50.0200   32.3400   49.7480 H   0  0  0  0  0  0  0  0  0  0  0  0
   54.0753   31.9944   51.8030 H   0  0  0  0  0  0  0  0  0  0  0  0
   64.8494   27.8447   51.2752 H   0  0  0  0  0  0  0  0  0  0  0  0
  1  2  1  0
  2  3  1  0
  3  4  2  0
  4  5  1  0
  5  6  2  0
  6  7  1  0
  7  8  1  0
  8  9  3  0
  9 10  1  0
 10 11  2  0
 11 12  1  0
 12 13  2  0
 13 14  1  0
 14 15  2  0
 14 16  1  0
 16 17  1  0
 17 18  2  0
 17 19  1  0
 19 20  1  0
 20 21  1  0
 21 22  2  0
 22 23  1  0
 23 24  2  0
 24 25  1  0
 25 26  1  0
 26 27  1  0
 26 28  2  0
 25 29  2  0
 20 30  2  0
  7 31  2  0
 31  3  1  0
 15 10  1  0
 29 21  1  0
 30 13  1  0
  1 32  1  0
  1 33  1  0
  1 34  1  0
  4 35  1  0
  5 36  1  0
  6 37  1  0
 11 38  1  0
 12 39  1  0
 15 40  1  0
 16 41  1  0
 19 42  1  0
 19 43  1  0
 22 44  1  0
 23 45  1  0
 24 46  1  0
 27 47  1  0
 29 48  1  0
 31 49  1  0
M  CHG  1  27  -1
M  END
>  <UniqueID>  (4) 
3

>  <SMILES>  (4) 
COc1cccc(C#Cc2ccc3c(c2)NC(=O)CC(c2cccc(C([NH-])=O)c2)=N3)c1

>  <Energy>  (4) 
63.55186168661154

>  <Genealogy>  (4) 
COc1cccc(C#Cc2ccc3c(c2)NC(=O)CC(c2cccc(C([NH-])=O)c2)=N3)c1 (protonated)
COc1cccc(C#Cc2ccc3c(c2)NC(=O)CC(c2cccc(C([NH-])=O)c2)=N3)c1 (3D coordinates assigned)
COc1cccc(C#Cc2ccc3c(c2)NC(=O)CC(c2cccc(C([NH-])=O)c2)=N3)c1 (nonaromatic ring conformer: 63.55186168661154 kcal/mol)

>  <smiles>  (4) 
COc1cccc(C#Cc2ccc3c(c2)NC(=O)CC(c2cccc(C(N)=O)c2)=N3)c1

>  <score_type>  (4) 
oracle

>  <origin>  (4) 
adg

>  <m_score__min__energy>  (4) 
-9.4700000000000006

>  <m_primary>  (4) 
energy

$$$$
4:0
     RDKit          3D

 36 38  0  0  0  0  0  0  0  0999 V2000
   56.6500   30.3950   43.3510 C   0  0  0  0  0  0  0  0  0  0  0  0
   56.3430   31.0720   44.5440 O   0  0  0  0  0  0  0  0  0  0  0  0
   57.3960   31.6340   45.2540 C   0  0  0  0  0  0  0  0  0  0  0  0
   57.2350   32.9570   45.6420 C   0  0  0  0  0  0  0  0  0  0  0  0
   58.2640   33.5480   46.3520 C   0  0  0  0  0  0  0  0  0  0  0  0
   59.4290   32.8720   46.6800 C   0  0  0  0  0  0  0  0  0  0  0  0
   60.6630   33.7120   47.5770 S   0  0  0  0  0  0  0  0  0  0  0  0
   61.8140   34.1120   46.7120 O   0  0  0  0  0  0  0  0  0  0  0  0
   60.0560   34.9650   48.1510 O   0  0  0  0  0  0  0  0  0  0  0  0
   61.1710   32.7230   48.9210 N   0  0  0  0  0  0  0  0  0  0  0  0
   60.1160   32.0400   49.6120 C   0  0  0  0  0  0  0  0  0  0  0  0
   60.0520   30.6740   49.4600 C   0  0  0  0  0  0  0  0  0  0  0  0
   61.0470   29.9670   48.6080 C   0  0  0  0  0  0  0  0  0  0  0  0
   59.0790   29.9910   50.0880 N   0  0  0  0  0  0  0  0  0  0  0  0
   58.2070   30.6780   50.8430 C   0  0  0  0  0  0  0  0  0  0  0  0
   57.1540   30.1880   51.5610 N   0  0  0  0  0  0  0  0  0  0  0  0
   56.5620   31.2610   52.1620 C   0  0  0  0  0  0  0  0  0  0  0  0
   57.2440   32.3790   51.8160 N   0  0  0  0  0  0  0  0  0  0  0  0
   58.2410   32.0050   51.0140 N   0  0  0  0  0  0  0  0  0  0  0  0
   59.2000   32.7060   50.3980 C   0  0  0  0  0  0  0  0  0  0  0  0
   59.2720   33.9530   50.5270 O   0  0  0  0  0  0  0  0  0  0  0  0
   59.5630   31.5470   46.2780 C   0  0  0  0  0  0  0  0  0  0  0  0
   58.5490   30.9240   45.5650 C   0  0  0  0  0  0  0  0  0  0  0  0
   57.0936   29.4168   43.5883 H   0  0  0  0  0  0  0  0  0  0  0  0
   55.7304   30.2483   42.7656 H   0  0  0  0  0  0  0  0  0  0  0  0
   57.3663   30.9901   42.7656 H   0  0  0  0  0  0  0  0  0  0  0  0
   56.3207   33.5158   45.3933 H   0  0  0  0  0  0  0  0  0  0  0  0
   58.1538   34.5956   46.6689 H   0  0  0  0  0  0  0  0  0  0  0  0
   62.1740   32.6380   49.1990 H   0  0  0  0  0  0  0  0  0  0  0  0
   61.7760   29.4490   49.2485 H   0  0  0  0  0  0  0  0  0  0  0  0
   60.5299   29.2326   47.9729 H   0  0  0  0  0  0  0  0  0  0  0  0
   61.5704   30.6969   47.9729 H   0  0  0  0  0  0  0  0  0  0  0  0
   59.0000   28.9580   49.9960 H   0  0  0  0  0  0  0  0  0  0  0  0
   55.6793   31.2240   52.8173 H   0  0  0  0  0  0  0  0  0  0  0  0
   60.4783   30.9900   46.5269 H   0  0  0  0  0  0  0  0  0  0  0  0
   58.6571   29.8761   45.2484 H   0  0  0  0  0  0  0  0  0  0  0  0
  1  2  1  0
  2  3  1  0
  3  4  2  0
  4  5  1  0
  5  6  2  0
  6  7  1  0
  7  8  2  0
  7  9  2  0
  7 10  1  0
 10 11  1  0
 11 12  2  0
 12 13  1  0
 12 14  1  0
 14 15  1  0
 15 16  2  0
 16 17  1  0
 17 18  2  0
 18 19  1  0
 19 20  1  0
 20 21  2  0
  6 22  1  0
 22 23  2  0
 23  3  1  0
 20 11  1  0
 19 15  1  0
  1 24  1  0
  1 25  1  0
  1 26  1  0
  4 27  1  0
  5 28  1  0
 10 29  1  0
 13 30  1  0
 13 31  1  0
 13 32  1  0
 14 33  1  0
 17 34  1  0
 22 35  1  0
 23 36  1  0
M  END
>  <smiles>  (5) 
COc1ccc(S(=O)(=O)Nc2c(C)[nH]c3ncnn3c2=O)cc1

>  <score_type>  (5) 
oracle

>  <origin>  (5) 
adg

>  <m_score__min__energy>  (5) 
-7.5599999999999996

>  <m_primary>  (5) 
energy

$$$$
5:0
     RDKit          3D

 25 24  0  0  0  0  0  0  0  0999 V2000
   56.6865   34.2488   44.4647 H   0  0  0  0  0  0  0  0  0  0  0  0
   57.6290   33.7270   44.6870 C   0  0  0  0  0  0  0  0  0  0  0  0
   58.2560   34.0070   45.8480 C   0  0  0  0  0  0  0  0  0  0  0  0
   57.7680   33.3410   47.1060 C   0  0  0  0  0  0  0  0  0  0  0  0
   58.1615   33.8781   47.9816 H   0  0  0  0  0  0  0  0  0  0  0  0
   56.6684   33.3599   47.1280 H   0  0  0  0  0  0  0  0  0  0  0  0
   58.1173   32.2982   47.1280 H   0  0  0  0  0  0  0  0  0  0  0  0
   59.4280   34.9540   45.9200 C   0  0  0  0  0  0  0  0  0  0  0  0
   59.6744   35.1531   46.9734 H   0  0  0  0  0  0  0  0  0  0  0  0
   60.2966   34.5011   45.4195 H   0  0  0  0  0  0  0  0  0  0  0  0
   59.1677   35.8983   45.4195 H   0  0  0  0  0  0  0  0  0  0  0  0
   58.1440   32.7520   43.6940 C   0  0  0  0  0  0  0  0  0  0  0  0
   59.2140   32.8183   43.4477 H   0  0  0  0  0  0  0  0  0  0  0  0
   57.4370   31.7930   43.0620 C   0  0  0  0  0  0  0  0  0  0  0  0
   56.7772   32.1275   42.2479 H   0  0  0  0  0  0  0  0  0  0  0  0
   57.4510   30.3680   43.3380 N   0  0  0  0  0  0  0  0  0  0  0  0
   58.1520   29.9610   42.6740 H   0  0  0  0  0  0  0  0  0  0  0  0
   57.9370   30.0360   44.6890 C   0  0  0  0  0  0  0  0  0  0  0  0
   57.2728   30.4897   45.4394 H   0  0  0  0  0  0  0  0  0  0  0  0
   57.9438   28.9436   44.8180 H   0  0  0  0  0  0  0  0  0  0  0  0
   58.9571   30.4269   44.8180 H   0  0  0  0  0  0  0  0  0  0  0  0
   56.1720   29.7160   43.0110 C   0  0  0  0  0  0  0  0  0  0  0  0
   55.6483   29.4490   43.9408 H   0  0  0  0  0  0  0  0  0  0  0  0
   55.5482   30.4061   42.4240 H   0  0  0  0  0  0  0  0  0  0  0  0
   56.3640   28.8058   42.4240 H   0  0  0  0  0  0  0  0  0  0  0  0
  1  2  1  0
  2  3  2  0
  3  4  1  0
  4  5  1  0
  4  6  1  0
  4  7  1  0
  3  8  1  0
  8  9  1  0
  8 10  1  0
  8 11  1  0
  2 12  1  0
 12 13  1  0
 12 14  2  0
 14 15  1  0
 14 16  1  0
 16 17  1  0
 16 18  1  0
 18 19  1  0
 18 20  1  0
 18 21  1  0
 16 22  1  0
 22 23  1  0
 22 24  1  0
 22 25  1  0
M  CHG  1  16   1
M  END
>  <UniqueID>  (6) 
4

>  <SMILES>  (6) 
CC(C)=C/C=C\[NH+](C)C

>  <Energy>  (6) 
24.52806421445157

>  <Genealogy>  (6) 
CC(C)=CC=C[NH+](C)C (protonated)
CC(C)=C/C=C\[NH+](C)C (cis-trans isomerization)
CC(C)=C/C=C\[NH+](C)C (3D coordinates assigned)
CC(C)=C/C=C\[NH+](C)C (optimized conformer: 24.52806421445157 kcal/mol)

>  <smiles>  (6) 
CC(C)=CC=CN(C)C

>  <score_type>  (6) 
oracle

>  <origin>  (6) 
adg

>  <m_score__min__energy>  (6) 
-2.5499999999999998

>  <m_primary>  (6) 
energy

$$$$
6:0
     RDKit          3D

 58 61  0  0  0  0  0  0  0  0999 V2000
   56.5378   22.6970   43.5100 H   0  0  0  0  0  0  0  0  0  0  0  0
   56.6920   22.3400   44.5390 C   0  0  0  0  0  0  0  0  0  0  0  0
   56.5690   21.0180   44.8290 N   0  0  0  0  0  0  0  0  0  0  0  0
   56.7610   20.5510   46.0900 C   0  0  0  0  0  0  0  0  0  0  0  0
   56.6541   19.4776   46.3053 H   0  0  0  0  0  0  0  0  0  0  0  0
   57.0950   21.4430   47.1110 C   0  0  0  0  0  0  0  0  0  0  0  0
   57.3040   20.9980   48.3150 N   0  0  0  0  0  0  0  0  0  0  0  0
   56.2680   20.7550   49.3200 C   0  0  0  0  0  0  0  0  0  0  0  0
   55.7244   19.8349   49.0596 H   0  0  0  0  0  0  0  0  0  0  0  0
   56.7526   20.6545   50.3024 H   0  0  0  0  0  0  0  0  0  0  0  0
   55.2730   21.9230   49.3860 C   0  0  0  0  0  0  0  0  0  0  0  0
   54.6901   21.8399   50.3152 H   0  0  0  0  0  0  0  0  0  0  0  0
   55.8491   22.8596   49.3575 H   0  0  0  0  0  0  0  0  0  0  0  0
   54.3240   21.9280   48.2170 C   0  0  0  0  0  0  0  0  0  0  0  0
   53.5490   20.7900   47.9340 C   0  0  0  0  0  0  0  0  0  0  0  0
   53.6204   19.9040   48.5820 H   0  0  0  0  0  0  0  0  0  0  0  0
   52.6880   20.7790   46.8330 C   0  0  0  0  0  0  0  0  0  0  0  0
   52.0732   19.8908   46.6256 H   0  0  0  0  0  0  0  0  0  0  0  0
   52.6070   21.8950   45.9950 C   0  0  0  0  0  0  0  0  0  0  0  0
   51.7680   21.8730   44.8890 O   0  0  0  0  0  0  0  0  0  0  0  0
   53.3750   23.0310   46.2710 C   0  0  0  0  0  0  0  0  0  0  0  0
   53.3079   23.9111   45.6146 H   0  0  0  0  0  0  0  0  0  0  0  0
   54.2270   23.0510   47.3780 C   0  0  0  0  0  0  0  0  0  0  0  0
   54.8242   23.9493   47.5936 H   0  0  0  0  0  0  0  0  0  0  0  0
   57.2050   22.7680   46.8200 N   0  0  0  0  0  0  0  0  0  0  0  0
   57.0170   23.2480   45.5600 C   0  0  0  0  0  0  0  0  0  0  0  0
   57.1910   24.6920   45.2820 C   0  0  0  0  0  0  0  0  0  0  0  0
   56.7800   25.6150   46.1980 N   0  0  0  0  0  0  0  0  0  0  0  0
   56.8780   26.9520   45.9750 C   0  0  0  0  0  0  0  0  0  0  0  0
   56.5342   27.6609   46.7427 H   0  0  0  0  0  0  0  0  0  0  0  0
   57.4130   27.4320   44.7760 C   0  0  0  0  0  0  0  0  0  0  0  0
   57.4430   28.8490   44.5490 N   0  0  0  0  0  0  0  0  0  0  0  0
   56.3680   29.7750   44.7370 C   0  0  0  0  0  0  0  0  0  0  0  0
   55.1980   29.3270   44.8680 O   0  0  0  0  0  0  0  0  0  0  0  0
   56.6270   31.1780   44.8760 N   0  0  0  0  0  0  0  0  0  0  0  0
   57.7610   31.7810   45.5160 C   0  0  0  0  0  0  0  0  0  0  0  0
   58.5960   31.0650   46.3890 C   0  0  0  0  0  0  0  0  0  0  0  0
   58.3965   30.0013   46.5859 H   0  0  0  0  0  0  0  0  0  0  0  0
   59.6780   31.6940   47.0090 C   0  0  0  0  0  0  0  0  0  0  0  0
   60.3294   31.1151   47.6802 H   0  0  0  0  0  0  0  0  0  0  0  0
   59.9480   33.0620   46.7870 C   0  0  0  0  0  0  0  0  0  0  0  0
   61.0720   33.7210   47.4330 N   0  0  0  0  0  0  0  0  0  0  0  0
   62.3700   33.8310   46.7520 C   0  0  0  0  0  0  0  0  0  0  0  0
   63.1725   33.8990   47.5012 H   0  0  0  0  0  0  0  0  0  0  0  0
   62.5302   32.9432   46.1226 H   0  0  0  0  0  0  0  0  0  0  0  0
   62.3786   34.7331   46.1226 H   0  0  0  0  0  0  0  0  0  0  0  0
   60.9350   34.2880   48.7820 C   0  0  0  0  0  0  0  0  0  0  0  0
   61.1244   33.5042   49.5302 H   0  0  0  0  0  0  0  0  0  0  0  0
   61.6621   35.1030   48.9127 H   0  0  0  0  0  0  0  0  0  0  0  0
   59.9160   34.6812   48.9127 H   0  0  0  0  0  0  0  0  0  0  0  0
   59.0830   33.7750   45.9260 C   0  0  0  0  0  0  0  0  0  0  0  0
   59.2636   34.8439   45.7392 H   0  0  0  0  0  0  0  0  0  0  0  0
   58.0020   33.1410   45.3090 C   0  0  0  0  0  0  0  0  0  0  0  0
   57.3338   33.7187   44.6535 H   0  0  0  0  0  0  0  0  0  0  0  0
   57.8290   26.5030   43.8080 C   0  0  0  0  0  0  0  0  0  0  0  0
   58.2284   26.8542   42.8451 H   0  0  0  0  0  0  0  0  0  0  0  0
   57.7360   25.1350   44.0670 C   0  0  0  0  0  0  0  0  0  0  0  0
   58.0885   24.4067   43.3218 H   0  0  0  0  0  0  0  0  0  0  0  0
  1  2  1  0
  2  3  1  0
  3  4  2  0
  4  5  1  0
  4  6  1  0
  6  7  2  0
  7  8  1  0
  8  9  1  0
  8 10  1  0
  8 11  1  0
 11 12  1  0
 11 13  1  0
 11 14  1  0
 14 15  2  0
 15 16  1  0
 15 17  1  0
 17 18  1  0
 17 19  2  0
 19 20  1  0
 19 21  1  0
 21 22  1  0
 21 23  2  0
 23 24  1  0
  6 25  1  0
 25 26  1  0
 26 27  1  0
 27 28  2  0
 28 29  1  0
 29 30  1  0
 29 31  2  0
 31 32  1  0
 32 33  1  0
 33 34  2  0
 33 35  1  0
 35 36  1  0
 36 37  2  0
 37 38  1  0
 37 39  1  0
 39 40  1  0
 39 41  2  0
 41 42  1  0
 42 43  1  0
 43 44  1  0
 43 45  1  0
 43 46  1  0
 42 47  1  0
 47 48  1  0
 47 49  1  0
 47 50  1  0
 41 51  1  0
 51 52  1  0
 51 53  2  0
 53 54  1  0
 31 55  1  0
 55 56  1  0
 55 57  2  0
 57 58  1  0
 26  2  2  0
 57 27  1  0
 23 14  1  0
 53 36  1  0
M  CHG  4  20  -1  25  -1  32  -1  35  -1
M  END
>  <UniqueID>  (7) 
5

>  <SMILES>  (7) 
CN(C)c1ccc([N-]C(=O)[N-]c2ccc(-c3cnc/c(=N/CCc4ccc([O-])cc4)[n-]3)nc2)cc1

>  <Energy>  (7) 
68.79866022793563

>  <Genealogy>  (7) 
CN(C)c1ccc([N-]C(=O)[N-]c2ccc(-c3cncc(=NCCc4ccc([O-])cc4)[n-]3)nc2)cc1 (protonated)
CN(C)c1ccc([N-]C(=O)[N-]c2ccc(-c3cnc/c(=N/CCc4ccc([O-])cc4)[n-]3)nc2)cc1 (cis-trans isomerization)
CN(C)c1ccc([N-]C(=O)[N-]c2ccc(-c3cnc/c(=N/CCc4ccc([O-])cc4)[n-]3)nc2)cc1 (3D coordinates assigned)
CN(C)c1ccc([N-]C(=O)[N-]c2ccc(-c3cnc/c(=N/CCc4ccc([O-])cc4)[n-]3)nc2)cc1 (optimized conformer: 68.79866022793563 kcal/mol)

>  <smiles>  (7) 
CN(C)c1ccc(NC(=O)Nc2ccc(-c3cncc(=NCCc4ccc(O)cc4)[nH]3)nc2)cc1

>  <score_type>  (7) 
oracle

>  <origin>  (7) 
adg

>  <m_score__min__energy>  (7) 
-14.68

>  <m_primary>  (7) 
energy

$$$$
7:0
     RDKit          3D

 45 46  0  0  0  0  0  0  0  0999 V2000
   57.5680   29.5510   45.0780 C   0  0  0  0  0  0  0  0  0  0  0  0
   57.0090   30.8500   45.2510 O   0  0  0  0  0  0  0  0  0  0  0  0
   57.7550   32.0390   45.3030 C   0  0  0  0  0  0  0  0  0  0  0  0
   58.1210   32.6350   46.5260 C   0  0  0  0  0  0  0  0  0  0  0  0
   58.8860   33.8100   46.5480 C   0  0  0  0  0  0  0  0  0  0  0  0
   59.2940   34.4360   47.8570 C   0  0  0  0  0  0  0  0  0  0  0  0
   59.9980   33.4970   48.6710 O   0  0  0  0  0  0  0  0  0  0  0  0
   59.4060   32.4770   49.4350 C   0  0  0  0  0  0  0  0  0  0  0  0
   59.6750   31.1530   49.0890 C   0  0  0  0  0  0  0  0  0  0  0  0
   59.1060   30.0810   49.8010 C   0  0  0  0  0  0  0  0  0  0  0  0
   59.3840   28.7510   49.4440 O   0  0  0  0  0  0  0  0  0  0  0  0
   59.5380   28.2780   48.1090 C   0  0  0  0  0  0  0  0  0  0  0  0
   58.2390   30.3560   50.8900 C   0  0  0  0  0  0  0  0  0  0  0  0
   57.6130   29.3590   51.6640 O   0  0  0  0  0  0  0  0  0  0  0  0
   57.9470   28.9830   52.9950 C   0  0  0  0  0  0  0  0  0  0  0  0
   57.9690   31.6890   51.2420 C   0  0  0  0  0  0  0  0  0  0  0  0
   57.1000   31.9270   52.3210 O   0  0  0  0  0  0  0  0  0  0  0  0
   55.7520   31.4690   52.3890 C   0  0  0  0  0  0  0  0  0  0  0  0
   58.5600   32.7410   50.5230 C   0  0  0  0  0  0  0  0  0  0  0  0
   59.2660   34.4080   45.3400 C   0  0  0  0  0  0  0  0  0  0  0  0
   58.9030   33.8300   44.1220 C   0  0  0  0  0  0  0  0  0  0  0  0
   58.1500   32.6460   44.0940 C   0  0  0  0  0  0  0  0  0  0  0  0
   57.7720   32.0260   42.7790 C   0  0  0  0  0  0  0  0  0  0  0  0
   57.7616   29.1010   46.0629 H   0  0  0  0  0  0  0  0  0  0  0  0
   56.8620   28.9195   44.5188 H   0  0  0  0  0  0  0  0  0  0  0  0
   58.5120   29.6295   44.5188 H   0  0  0  0  0  0  0  0  0  0  0  0
   57.8035   32.1741   47.4730 H   0  0  0  0  0  0  0  0  0  0  0  0
   59.9458   35.2991   47.6563 H   0  0  0  0  0  0  0  0  0  0  0  0
   58.3879   34.7565   48.3920 H   0  0  0  0  0  0  0  0  0  0  0  0
   60.3453   30.9426   48.2426 H   0  0  0  0  0  0  0  0  0  0  0  0
   59.8785   27.2322   48.1275 H   0  0  0  0  0  0  0  0  0  0  0  0
   58.5732   28.3402   47.5844 H   0  0  0  0  0  0  0  0  0  0  0  0
   60.2812   28.8964   47.5844 H   0  0  0  0  0  0  0  0  0  0  0  0
   57.3888   29.6114   53.7046 H   0  0  0  0  0  0  0  0  0  0  0  0
   57.6837   27.9270   53.1547 H   0  0  0  0  0  0  0  0  0  0  0  0
   59.0267   29.1199   53.1547 H   0  0  0  0  0  0  0  0  0  0  0  0
   55.4521   31.3671   53.4424 H   0  0  0  0  0  0  0  0  0  0  0  0
   55.0929   32.1936   51.8885 H   0  0  0  0  0  0  0  0  0  0  0  0
   55.6707   30.4928   51.8885 H   0  0  0  0  0  0  0  0  0  0  0  0
   58.3577   33.7819   50.8156 H   0  0  0  0  0  0  0  0  0  0  0  0
   59.8535   35.3379   45.3508 H   0  0  0  0  0  0  0  0  0  0  0  0
   59.2091   34.3056   43.1785 H   0  0  0  0  0  0  0  0  0  0  0  0
   57.2071   31.0995   42.9593 H   0  0  0  0  0  0  0  0  0  0  0  0
   57.1492   32.7298   42.2074 H   0  0  0  0  0  0  0  0  0  0  0  0
   58.6829   31.7947   42.2074 H   0  0  0  0  0  0  0  0  0  0  0  0
  1  2  1  0
  2  3  1  0
  3  4  2  0
  4  5  1  0
  5  6  1  0
  6  7  1  0
  7  8  1  0
  8  9  2  0
  9 10  1  0
 10 11  1  0
 11 12  1  0
 10 13  2  0
 13 14  1  0
 14 15  1  0
 13 16  1  0
 16 17  1  0
 17 18  1  0
 16 19  2  0
  5 20  2  0
 20 21  1  0
 21 22  2  0
 22 23  1  0
 22  3  1  0
 19  8  1  0
  1 24  1  0
  1 25  1  0
  1 26  1  0
  4 27  1  0
  6 28  1  0
  6 29  1  0
  9 30  1  0
 12 31  1  0
 12 32  1  0
 12 33  1  0
 15 34  1  0
 15 35  1  0
 15 36  1  0
 18 37  1  0
 18 38  1  0
 18 39  1  0
 19 40  1  0
 20 41  1  0
 21 42  1  0
 23 43  1  0
 23 44  1  0
 23 45  1  0
M  END
>  <UniqueID>  (8) 
6

>  <SMILES>  (8) 
COc1cc(COc2cc(OC)c(OC)c(OC)c2)ccc1C

>  <Energy>  (8) 
44.44098069370014

>  <Genealogy>  (8) 
COc1cc(COc2cc(OC)c(OC)c(OC)c2)ccc1C (3D coordinates assigned)
COc1cc(COc2cc(OC)c(OC)c(OC)c2)ccc1C (optimized conformer: 44.44098069370014 kcal/mol)

>  <smiles>  (8) 
COc1cc(COc2cc(OC)c(OC)c(OC)c2)ccc1C

>  <score_type>  (8) 
oracle

>  <origin>  (8) 
adg

>  <m_score__min__energy>  (8) 
-6.5599999999999996

>  <m_primary>  (8) 
energy

$$$$
8:0
     RDKit          3D

 25 26  0  0  0  0  0  0  0  0999 V2000
   57.2092   33.1737   46.5459 H   0  0  0  0  0  0  0  0  0  0  0  0
   57.3800   32.7060   45.5650 C   0  0  0  0  0  0  0  0  0  0  0  0
   57.0710   31.3960   45.3730 N   0  0  0  0  0  0  0  0  0  0  0  0
   57.2560   30.7710   44.1760 C   0  0  0  0  0  0  0  0  0  0  0  0
   56.8940   29.3390   44.0650 C   0  0  0  0  0  0  0  0  0  0  0  0
   56.4070   28.6670   45.2330 N   0  0  0  0  0  0  0  0  0  0  0  0
   56.7260   27.4920   45.7050 C   0  0  0  0  0  0  0  0  0  0  0  0
   55.7080   26.6080   45.8950 N   0  0  0  0  0  0  0  0  0  0  0  0
   55.8950   25.3650   46.4100 C   0  0  0  0  0  0  0  0  0  0  0  0
   55.0367   24.6904   46.5453 H   0  0  0  0  0  0  0  0  0  0  0  0
   57.1720   24.9460   46.7660 C   0  0  0  0  0  0  0  0  0  0  0  0
   57.3286   23.9500   47.2059 H   0  0  0  0  0  0  0  0  0  0  0  0
   58.2500   25.8020   46.5590 C   0  0  0  0  0  0  0  0  0  0  0  0
   59.2651   25.4731   46.8262 H   0  0  0  0  0  0  0  0  0  0  0  0
   58.0560   27.0780   46.0140 C   0  0  0  0  0  0  0  0  0  0  0  0
   59.6640   28.0420   45.5840 Br  0  0  0  0  0  0  0  0  0  0  0  0
   57.0700   28.6640   42.9660 N   0  0  0  0  0  0  0  0  0  0  0  0
   56.6520   27.7200   42.8130 H   0  0  0  0  0  0  0  0  0  0  0  0
   57.6790   29.0430   42.2070 H   0  0  0  0  0  0  0  0  0  0  0  0
   57.8060   31.5000   43.1040 C   0  0  0  0  0  0  0  0  0  0  0  0
   57.9799   31.0121   42.1336 H   0  0  0  0  0  0  0  0  0  0  0  0
   58.1290   32.8470   43.2820 C   0  0  0  0  0  0  0  0  0  0  0  0
   58.5527   33.4262   42.4484 H   0  0  0  0  0  0  0  0  0  0  0  0
   57.9140   33.4570   44.5170 C   0  0  0  0  0  0  0  0  0  0  0  0
   58.1625   34.5185   44.6637 H   0  0  0  0  0  0  0  0  0  0  0  0
  1  2  1  0
  2  3  2  0
  3  4  1  0
  4  5  1  0
  5  6  1  0
  6  7  2  0
  7  8  1  0
  8  9  1  0
  9 10  1  0
  9 11  2  0
 11 12  1  0
 11 13  1  0
 13 14  1  0
 13 15  2  0
 15 16  1  0
  5 17  2  0
 17 18  1  0
 17 19  1  0
  4 20  2  0
 20 21  1  0
 20 22  1  0
 22 23  1  0
 22 24  2  0
 24 25  1  0
 24  2  1  0
 15  7  1  0
M  CHG  2   8  -1  17   1
M  END
>  <UniqueID>  (9) 
7

>  <SMILES>  (9) 
[NH2+]=C(/N=c1/[n-]cccc1Br)c1ccccn1

>  <Energy>  (9) 
46.018489517221596

>  <Genealogy>  (9) 
[NH2+]=C(N=c1[n-]cccc1Br)c1ccccn1 (protonated)
[NH2+]=C(/N=c1/[n-]cccc1Br)c1ccccn1 (cis-trans isomerization)
[NH2+]=C(/N=c1/[n-]cccc1Br)c1ccccn1 (3D coordinates assigned)
[NH2+]=C(/N=c1/[n-]cccc1Br)c1ccccn1 (optimized conformer: 46.018489517221596 kcal/mol)

>  <smiles>  (9) 
N=C(N=c1[nH]cccc1Br)c1ccccn1

>  <score_type>  (9) 
oracle

>  <origin>  (9) 
adg

>  <m_score__min__energy>  (9) 
-6.2999999999999998

>  <m_primary>  (9) 
energy

$$$$
9:0
     RDKit          3D

 48 50  0  0  0  0  0  0  0  0999 V2000
   57.1030   21.0880   42.8980 C   0  0  0  0  0  0  0  0  0  0  0  0
   56.1650   22.0960   43.0690 O   0  0  0  0  0  0  0  0  0  0  0  0
   55.9700   22.9140   44.1550 C   0  0  0  0  0  0  0  0  0  0  0  0
   55.2670   22.3580   45.2300 C   0  0  0  0  0  0  0  0  0  0  0  0
   55.0610   23.1590   46.3290 C   0  0  0  0  0  0  0  0  0  0  0  0
   55.5240   24.4530   46.3730 C   0  0  0  0  0  0  0  0  0  0  0  0
   56.2290   25.0330   45.3160 C   0  0  0  0  0  0  0  0  0  0  0  0
   56.6660   26.3670   45.4500 N   0  0  0  0  0  0  0  0  0  0  0  0
   57.9310   26.8120   45.8390 C   0  0  0  0  0  0  0  0  0  0  0  0
   58.8410   26.0220   46.1180 O   0  0  0  0  0  0  0  0  0  0  0  0
   58.2530   28.2730   45.9350 C   0  0  0  0  0  0  0  0  0  0  0  0
   57.0580   29.0780   45.9510 N   0  0  0  0  0  0  0  0  0  0  0  0
   58.9520   28.4890   47.2550 C   0  0  0  0  0  0  0  0  0  0  0  0
   59.0750   29.9740   47.5320 C   0  0  0  0  0  0  0  0  0  0  0  0
   59.4850   30.5900   46.2490 N   0  0  0  0  0  0  0  0  0  0  0  0
   59.2320   31.9540   46.1010 C   0  0  0  0  0  0  0  0  0  0  0  0
   60.1420   32.8220   46.6390 N   0  0  0  0  0  0  0  0  0  0  0  0
   59.9960   34.1540   46.5750 C   0  0  0  0  0  0  0  0  0  0  0  0
   58.9300   34.6990   45.9690 N   0  0  0  0  0  0  0  0  0  0  0  0
   57.9750   33.9160   45.4080 C   0  0  0  0  0  0  0  0  0  0  0  0
   56.9520   34.4370   44.8250 N   0  0  0  0  0  0  0  0  0  0  0  0
   58.1520   32.5330   45.4890 C   0  0  0  0  0  0  0  0  0  0  0  0
   57.1170   31.7330   44.9370 C   0  0  0  0  0  0  0  0  0  0  0  0
   56.2930   31.0710   44.4950 N   0  0  0  0  0  0  0  0  0  0  0  0
   60.1300   29.6800   45.3390 C   0  0  0  0  0  0  0  0  0  0  0  0
   59.1110   28.7110   44.7790 C   0  0  0  0  0  0  0  0  0  0  0  0
   56.4320   24.2290   44.2230 C   0  0  0  0  0  0  0  0  0  0  0  0
   57.4379   20.7281   43.8820 H   0  0  0  0  0  0  0  0  0  0  0  0
   56.6498   20.2566   42.3382 H   0  0  0  0  0  0  0  0  0  0  0  0
   57.9649   21.4802   42.3382 H   0  0  0  0  0  0  0  0  0  0  0  0
   54.8947   21.3234   45.1973 H   0  0  0  0  0  0  0  0  0  0  0  0
   54.5130   22.7550   47.1930 H   0  0  0  0  0  0  0  0  0  0  0  0
   55.3320   25.0537   47.2742 H   0  0  0  0  0  0  0  0  0  0  0  0
   55.9530   27.1340   45.2310 H   0  0  0  0  0  0  0  0  0  0  0  0
   56.4540   28.9910   45.1190 H   0  0  0  0  0  0  0  0  0  0  0  0
   57.2130   30.0660   46.2540 H   0  0  0  0  0  0  0  0  0  0  0  0
   58.3700   28.0143   48.0587 H   0  0  0  0  0  0  0  0  0  0  0  0
   59.9564   28.0424   47.2123 H   0  0  0  0  0  0  0  0  0  0  0  0
   58.1090   30.3835   47.8624 H   0  0  0  0  0  0  0  0  0  0  0  0
   59.8032   30.1784   48.3308 H   0  0  0  0  0  0  0  0  0  0  0  0
   61.0070   32.4800   47.1290 H   0  0  0  0  0  0  0  0  0  0  0  0
   60.7588   34.8068   47.0244 H   0  0  0  0  0  0  0  0  0  0  0  0
   56.1790   34.9300   45.3460 H   0  0  0  0  0  0  0  0  0  0  0  0
   60.5854   30.2486   44.5148 H   0  0  0  0  0  0  0  0  0  0  0  0
   60.9094   29.1193   45.8758 H   0  0  0  0  0  0  0  0  0  0  0  0
   58.4943   29.2079   44.0156 H   0  0  0  0  0  0  0  0  0  0  0  0
   59.6026   27.8505   44.3017 H   0  0  0  0  0  0  0  0  0  0  0  0
   56.9826   24.6386   43.3633 H   0  0  0  0  0  0  0  0  0  0  0  0
  1  2  1  0
  2  3  1  0
  3  4  2  0
  4  5  1  0
  5  6  2  0
  6  7  1  0
  7  8  1  0
  8  9  1  0
  9 10  2  0
  9 11  1  0
 11 12  1  0
 11 13  1  0
 13 14  1  0
 14 15  1  0
 15 16  1  0
 16 17  1  0
 17 18  1  0
 18 19  2  0
 19 20  1  0
 20 21  2  3
 20 22  1  0
 22 23  1  0
 23 24  3  0
 15 25  1  0
 25 26  1  0
  7 27  2  0
 27  3  1  0
 26 11  1  0
 22 16  2  0
  1 28  1  0
  1 29  1  0
  1 30  1  0
  4 31  1  0
  5 32  1  0
  6 33  1  0
  8 34  1  0
 12 35  1  0
 12 36  1  0
 13 37  1  0
 13 38  1  0
 14 39  1  0
 14 40  1  0
 17 41  1  0
 18 42  1  0
 21 43  1  0
 25 44  1  0
 25 45  1  0
 26 46  1  0
 26 47  1  0
 27 48  1  0
M  END
>  <smiles>  (10) 
COc1cccc(NC(=O)C2(N)CCN(c3[nH]cnc(=N)c3C#N)CC2)c1

>  <score_type>  (10) 
oracle

>  <origin>  (10) 
adg

>  <m_score__min__energy>  (10) 
-7.7800000000000002

>  <m_primary>  (10) 
energy

$$$$
10:0
     RDKit          3D

 57 61  0  0  0  0  0  0  0  0999 V2000
   62.8710   32.7130   48.9560 C   0  0  0  0  0  0  0  0  0  0  0  0
   61.9710   31.7090   48.3080 C   0  0  0  0  0  0  0  0  0  0  0  0
   62.2870   31.2250   47.0700 N   0  0  0  0  0  0  0  0  0  0  0  0
   61.5200   30.3260   46.4380 N   0  0  0  0  0  0  0  0  0  0  0  0
   60.3740   29.8270   46.9900 C   0  0  0  0  0  0  0  0  0  0  0  0
   59.5750   28.8690   46.2650 N   0  0  0  0  0  0  0  0  0  0  0  0
   59.1370   27.6140   46.9020 C   0  0  0  0  0  0  0  0  0  0  0  0
   58.8250   26.5330   45.8590 C   0  0  0  0  0  0  0  0  0  0  0  0
   57.8250   27.0140   44.7890 C   0  0  0  0  0  0  0  0  0  0  0  0
   57.9630   28.5210   44.4230 C   0  0  1  0  0  0  0  0  0  0  0  0
   56.8660   29.3790   45.0390 C   0  0  0  0  0  0  0  0  0  0  0  0
   55.6540   29.0900   44.8400 O   0  0  0  0  0  0  0  0  0  0  0  0
   57.1680   30.4150   45.9830 N   0  0  0  0  0  0  0  0  0  0  0  0
   57.7530   31.6880   45.6810 C   0  0  0  0  0  0  0  0  0  0  0  0
   57.8850   32.1330   44.3540 C   0  0  0  0  0  0  0  0  0  0  0  0
   58.4270   33.3950   44.0850 C   0  0  0  0  0  0  0  0  0  0  0  0
   58.8230   34.2250   45.1400 C   0  0  0  0  0  0  0  0  0  0  0  0
   59.3490   35.4480   44.8780 F   0  0  0  0  0  0  0  0  0  0  0  0
   58.6650   33.7980   46.4640 C   0  0  0  0  0  0  0  0  0  0  0  0
   58.1200   32.5370   46.7330 C   0  0  0  0  0  0  0  0  0  0  0  0
   59.3400   29.0740   44.8280 C   0  0  0  0  0  0  0  0  0  0  0  0
   60.0190   30.3110   48.2520 C   0  0  0  0  0  0  0  0  0  0  0  0
   58.9330   30.0110   48.9840 N   0  0  0  0  0  0  0  0  0  0  0  0
   59.0030   30.7310   50.0980 N   0  0  0  0  0  0  0  0  0  0  0  0
   58.0180   30.6330   51.1400 C   0  0  0  0  0  0  0  0  0  0  0  0
   58.0430   29.5430   52.0260 C   0  0  0  0  0  0  0  0  0  0  0  0
   57.1100   29.4550   53.0640 C   0  0  0  0  0  0  0  0  0  0  0  0
   56.1580   30.4650   53.2370 C   0  0  0  0  0  0  0  0  0  0  0  0
   56.1410   31.5630   52.3750 C   0  0  0  0  0  0  0  0  0  0  0  0
   57.0700   31.6520   51.3330 C   0  0  0  0  0  0  0  0  0  0  0  0
   60.1160   31.5140   50.0760 C   0  0  0  0  0  0  0  0  0  0  0  0
   60.4720   32.5540   51.1000 C   0  0  0  0  0  0  0  0  0  0  0  0
   60.7920   31.2390   48.8950 C   0  0  0  0  0  0  0  0  0  0  0  0
   62.7917   32.6246   50.0496 H   0  0  0  0  0  0  0  0  0  0  0  0
   63.9103   32.5268   48.6475 H   0  0  0  0  0  0  0  0  0  0  0  0
   62.5727   33.7258   48.6475 H   0  0  0  0  0  0  0  0  0  0  0  0
   59.9368   27.2513   47.5644 H   0  0  0  0  0  0  0  0  0  0  0  0
   58.2189   27.8186   47.4722 H   0  0  0  0  0  0  0  0  0  0  0  0
   59.7619   26.2430   45.3608 H   0  0  0  0  0  0  0  0  0  0  0  0
   58.3665   25.6833   46.3861 H   0  0  0  0  0  0  0  0  0  0  0  0
   57.9834   26.4208   43.8763 H   0  0  0  0  0  0  0  0  0  0  0  0
   56.8185   26.8809   45.2123 H   0  0  0  0  0  0  0  0  0  0  0  0
   57.8586   28.5755   43.3293 H   0  0  0  0  0  0  0  0  0  0  0  0
   57.5612   31.4872   43.5244 H   0  0  0  0  0  0  0  0  0  0  0  0
   58.5417   33.7343   43.0450 H   0  0  0  0  0  0  0  0  0  0  0  0
   58.9693   34.4537   47.2932 H   0  0  0  0  0  0  0  0  0  0  0  0
   57.9794   32.2116   47.7743 H   0  0  0  0  0  0  0  0  0  0  0  0
   60.1218   28.5534   44.2555 H   0  0  0  0  0  0  0  0  0  0  0  0
   59.3674   30.1525   44.6134 H   0  0  0  0  0  0  0  0  0  0  0  0
   58.8003   28.7548   51.9026 H   0  0  0  0  0  0  0  0  0  0  0  0
   57.1248   28.5911   53.7447 H   0  0  0  0  0  0  0  0  0  0  0  0
   55.4228   30.3942   54.0521 H   0  0  0  0  0  0  0  0  0  0  0  0
   55.3956   32.3597   52.5155 H   0  0  0  0  0  0  0  0  0  0  0  0
   57.0583   32.5234   50.6618 H   0  0  0  0  0  0  0  0  0  0  0  0
   60.3300   32.1390   52.1088 H   0  0  0  0  0  0  0  0  0  0  0  0
   61.5231   32.8514   50.9705 H   0  0  0  0  0  0  0  0  0  0  0  0
   59.8236   33.4331   50.9705 H   0  0  0  0  0  0  0  0  0  0  0  0
  1  2  1  0
  2  3  2  0
  3  4  1  0
  4  5  2  0
  5  6  1  0
  6  7  1  0
  7  8  1  0
  8  9  1  0
  9 10  1  0
 10 11  1  0
 11 12  2  0
 11 13  1  0
 13 14  1  0
 14 15  2  0
 15 16  1  0
 16 17  2  0
 17 18  1  0
 17 19  1  0
 19 20  2  0
 10 21  1  0
  5 22  1  0
 22 23  2  0
 23 24  1  0
 24 25  1  0
 25 26  2  0
 26 27  1  0
 27 28  2  0
 28 29  1  0
 29 30  2  0
 24 31  1  0
 31 32  1  0
 31 33  2  0
 33  2  1  0
 21  6  1  0
 33 22  1  0
 20 14  1  0
 30 25  1  0
  1 34  1  0
  1 35  1  0
  1 36  1  0
  7 37  1  0
  7 38  1  0
  8 39  1  0
  8 40  1  0
  9 41  1  0
  9 42  1  0
 10 43  1  6
 15 44  1  0
 16 45  1  0
 19 46  1  0
 20 47  1  0
 21 48  1  0
 21 49  1  0
 26 50  1  0
 27 51  1  0
 28 52  1  0
 29 53  1  0
 30 54  1  0
 32 55  1  0
 32 56  1  0
 32 57  1  0
M  CHG  1  13  -1
M  END
>  <UniqueID>  (11) 
8

>  <SMILES>  (11) 
Cc1nnc(N2CCC[C@@H](C(=O)[N-]c3ccc(F)cc3)C2)c2nn(-c3ccccc3)c(C)c12

>  <Energy>  (11) 
120.00957120592572

>  <Genealogy>  (11) 
Cc1nnc(N2CCCC(C(=O)[N-]c3ccc(F)cc3)C2)c2nn(-c3ccccc3)c(C)c12 (protonated)
Cc1nnc(N2CCC[C@@H](C(=O)[N-]c3ccc(F)cc3)C2)c2nn(-c3ccccc3)c(C)c12 (chirality)
Cc1nnc(N2CCC[C@@H](C(=O)[N-]c3ccc(F)cc3)C2)c2nn(-c3ccccc3)c(C)c12 (3D coordinates assigned)
Cc1nnc(N2CCC[C@@H](C(=O)[N-]c3ccc(F)cc3)C2)c2nn(-c3ccccc3)c(C)c12 (nonaromatic ring conformer: 120.00957120592572 kcal/mol)

>  <smiles>  (11) 
Cc1nnc(N2CCCC(C(=O)Nc3ccc(F)cc3)C2)c2nn(-c3ccccc3)c(C)c12

>  <score_type>  (11) 
oracle

>  <origin>  (11) 
adg

>  <m_score__min__energy>  (11) 
-12.84

>  <m_primary>  (11) 
energy

$$$$
11:0
     RDKit          3D

 44 46  0  0  0  0  0  0  0  0999 V2000
   56.1570   30.6130   44.7540 O   0  0  0  0  0  0  0  0  0  0  0  0
   57.3770   30.8540   44.5440 C   0  0  0  0  0  0  0  0  0  0  0  0
   57.8030   32.2520   44.2130 C   0  0  0  0  0  0  0  0  0  0  0  0
   58.3430   32.9260   45.4440 C   0  0  0  0  0  0  0  0  0  0  0  0
   57.9890   32.4470   46.7180 C   0  0  0  0  0  0  0  0  0  0  0  0
   58.4550   33.0890   47.8680 C   0  0  0  0  0  0  0  0  0  0  0  0
   59.2690   34.2190   47.7600 C   0  0  0  0  0  0  0  0  0  0  0  0
   59.6170   34.7110   46.4990 C   0  0  0  0  0  0  0  0  0  0  0  0
   59.1540   34.0730   45.3430 C   0  0  0  0  0  0  0  0  0  0  0  0
   59.4940   34.5770   44.1290 F   0  0  0  0  0  0  0  0  0  0  0  0
   58.3500   29.8010   44.6090 N   0  0  0  0  0  0  0  0  0  0  0  0
   58.0190   28.4030   44.6000 C   0  0  0  0  0  0  0  0  0  0  0  0
   57.6620   27.7710   45.7990 C   0  0  0  0  0  0  0  0  0  0  0  0
   57.3570   26.4070   45.8180 C   0  0  0  0  0  0  0  0  0  0  0  0
   57.4160   25.6470   44.6380 C   0  0  0  0  0  0  0  0  0  0  0  0
   57.1180   24.2370   44.6600 N   0  0  0  0  0  0  0  0  0  0  0  0
   55.8940   23.7150   44.0360 C   0  0  0  0  0  0  0  0  0  0  0  0
   56.2410   22.6500   42.9840 C   0  0  0  0  0  0  0  0  0  0  0  0
   57.4490   21.7700   43.3760 C   0  0  0  0  0  0  0  0  0  0  0  0
   57.7720   21.8460   44.8730 C   0  0  0  0  0  0  0  0  0  0  0  0
   58.0630   23.2980   45.2840 C   0  0  0  0  0  0  0  0  0  0  0  0
   57.8060   26.2750   43.4430 C   0  0  0  0  0  0  0  0  0  0  0  0
   58.1070   27.6390   43.4240 C   0  0  0  0  0  0  0  0  0  0  0  0
   58.5854   32.2219   43.4404 H   0  0  0  0  0  0  0  0  0  0  0  0
   56.9356   32.8170   43.8410 H   0  0  0  0  0  0  0  0  0  0  0  0
   57.3418   31.5622   46.8095 H   0  0  0  0  0  0  0  0  0  0  0  0
   58.1802   32.7037   48.8610 H   0  0  0  0  0  0  0  0  0  0  0  0
   59.6360   34.7215   48.6671 H   0  0  0  0  0  0  0  0  0  0  0  0
   60.2565   35.6021   46.4151 H   0  0  0  0  0  0  0  0  0  0  0  0
   59.3520   30.0690   44.7400 H   0  0  0  0  0  0  0  0  0  0  0  0
   57.6215   28.3526   46.7318 H   0  0  0  0  0  0  0  0  0  0  0  0
   57.0687   25.9252   46.7639 H   0  0  0  0  0  0  0  0  0  0  0  0
   55.2559   23.2648   44.8107 H   0  0  0  0  0  0  0  0  0  0  0  0
   55.3635   24.5433   43.5435 H   0  0  0  0  0  0  0  0  0  0  0  0
   55.3655   21.9985   42.8456 H   0  0  0  0  0  0  0  0  0  0  0  0
   56.5135   23.1825   42.0609 H   0  0  0  0  0  0  0  0  0  0  0  0
   57.2227   20.7252   43.1169 H   0  0  0  0  0  0  0  0  0  0  0  0
   58.3257   22.1432   42.8264 H   0  0  0  0  0  0  0  0  0  0  0  0
   56.9129   21.4713   45.4488 H   0  0  0  0  0  0  0  0  0  0  0  0
   58.6609   21.2315   45.0784 H   0  0  0  0  0  0  0  0  0  0  0  0
   57.9808   23.3828   46.3776 H   0  0  0  0  0  0  0  0  0  0  0  0
   59.0776   23.5548   44.9453 H   0  0  0  0  0  0  0  0  0  0  0  0
   57.8748   25.6880   42.5153 H   0  0  0  0  0  0  0  0  0  0  0  0
   58.4148   28.1179   42.4827 H   0  0  0  0  0  0  0  0  0  0  0  0
  1  2  2  0
  2  3  1  0
  3  4  1  0
  4  5  2  0
  5  6  1  0
  6  7  2  0
  7  8  1  0
  8  9  2  0
  9 10  1  0
  2 11  1  0
 11 12  1  0
 12 13  2  0
 13 14  1  0
 14 15  2  0
 15 16  1  0
 16 17  1  0
 17 18  1  0
 18 19  1  0
 19 20  1  0
 20 21  1  0
 15 22  1  0
 22 23  2  0
  9  4  1  0
 23 12  1  0
 21 16  1  0
  3 24  1  0
  3 25  1  0
  5 26  1  0
  6 27  1  0
  7 28  1  0
  8 29  1  0
 11 30  1  0
 13 31  1  0
 14 32  1  0
 17 33  1  0
 17 34  1  0
 18 35  1  0
 18 36  1  0
 19 37  1  0
 19 38  1  0
 20 39  1  0
 20 40  1  0
 21 41  1  0
 21 42  1  0
 22 43  1  0
 23 44  1  0
M  END
>  <UniqueID>  (12) 
9

>  <SMILES>  (12) 
O=C(Cc1ccccc1F)Nc1ccc(N2CCCCC2)cc1

>  <Energy>  (12) 
51.92338820733219

>  <Genealogy>  (12) 
O=C(Cc1ccccc1F)Nc1ccc(N2CCCCC2)cc1 (3D coordinates assigned)
O=C(Cc1ccccc1F)Nc1ccc(N2CCCCC2)cc1 (nonaromatic ring conformer: 51.92338820733219 kcal/mol)

>  <smiles>  (12) 
O=C(Cc1ccccc1F)Nc1ccc(N2CCCCC2)cc1

>  <score_type>  (12) 
oracle

>  <origin>  (12) 
adg

>  <m_score__min__energy>  (12) 
-8.1199999999999992

>  <m_primary>  (12) 
energy

$$$$
12:0
     RDKit          3D

 43 46  0  0  0  0  0  0  0  0999 V2000
   58.6690   32.6250   48.4470 C   0  0  0  0  0  0  0  0  0  0  0  0
   58.8200   32.4640   46.9180 C   0  0  1  0  0  0  0  0  0  0  0  0
   58.1780   33.6510   46.2550 C   0  0  0  0  0  0  0  0  0  0  0  0
   56.9810   33.8940   46.2990 O   0  0  0  0  0  0  0  0  0  0  0  0
   59.1580   34.5100   45.5410 C   0  0  0  0  0  0  0  0  0  0  0  0
   60.4330   33.7950   45.8150 C   0  0  0  0  0  0  0  0  0  0  0  0
   60.2650   32.6780   46.5250 C   0  0  0  0  0  0  0  0  0  0  0  0
   61.4120   31.8910   47.0560 C   0  0  0  0  0  0  0  0  0  0  0  0
   62.5630   32.6180   47.6980 C   0  0  0  0  0  0  0  0  0  0  0  0
   63.6050   32.7490   46.7730 O   0  0  0  0  0  0  0  0  0  0  0  0
   61.4660   30.5520   46.9460 C   0  0  0  0  0  0  0  0  0  0  0  0
   60.4280   29.7650   46.1970 C   0  0  1  0  0  0  0  0  0  0  0  0
   60.6830   28.2960   46.2070 C   0  0  0  0  0  0  0  0  0  0  0  0
   59.5620   27.6100   46.3860 C   0  0  0  0  0  0  0  0  0  0  0  0
   58.3860   28.5050   46.5760 C   0  0  0  0  0  0  0  0  0  0  0  0
   59.0380   29.8700   46.8430 C   0  0  2  0  0  0  0  0  0  0  0  0
   58.2050   31.1080   46.4050 C   0  0  2  0  0  0  0  0  0  0  0  0
   57.8670   31.1000   44.9190 C   0  0  0  0  0  0  0  0  0  0  0  0
   58.3770   31.9000   43.9050 C   0  0  0  0  0  0  0  0  0  0  0  0
   57.8140   31.5780   42.7630 O   0  0  0  0  0  0  0  0  0  0  0  0
   56.9600   30.6090   42.9850 C   0  0  0  0  0  0  0  0  0  0  0  0
   56.1800   30.0170   41.9980 O   0  0  0  0  0  0  0  0  0  0  0  0
   56.9430   30.2640   44.3160 C   0  0  0  0  0  0  0  0  0  0  0  0
   59.3353   31.9145   48.9581 H   0  0  0  0  0  0  0  0  0  0  0  0
   58.9372   33.6520   48.7358 H   0  0  0  0  0  0  0  0  0  0  0  0
   57.6270   32.4231   48.7358 H   0  0  0  0  0  0  0  0  0  0  0  0
   58.9447   34.5524   44.4627 H   0  0  0  0  0  0  0  0  0  0  0  0
   59.1541   35.5609   45.8660 H   0  0  0  0  0  0  0  0  0  0  0  0
   61.4142   34.1508   45.4678 H   0  0  0  0  0  0  0  0  0  0  0  0
   62.2320   33.6159   48.0215 H   0  0  0  0  0  0  0  0  0  0  0  0
   62.9160   32.0486   48.5705 H   0  0  0  0  0  0  0  0  0  0  0  0
   64.3890   32.2910   47.1740 H   0  0  0  0  0  0  0  0  0  0  0  0
   62.2994   30.0137   47.4211 H   0  0  0  0  0  0  0  0  0  0  0  0
   60.4749   30.1946   45.1855 H   0  0  0  0  0  0  0  0  0  0  0  0
   61.6756   27.8388   46.0817 H   0  0  0  0  0  0  0  0  0  0  0  0
   59.5071   26.5114   46.3933 H   0  0  0  0  0  0  0  0  0  0  0  0
   57.7603   28.5347   45.6718 H   0  0  0  0  0  0  0  0  0  0  0  0
   57.7147   28.1772   47.3834 H   0  0  0  0  0  0  0  0  0  0  0  0
   59.1063   30.0683   47.9228 H   0  0  0  0  0  0  0  0  0  0  0  0
   57.2326   31.0256   46.9126 H   0  0  0  0  0  0  0  0  0  0  0  0
   59.1369   32.6841   44.0380 H   0  0  0  0  0  0  0  0  0  0  0  0
   55.5180   29.2890   42.2360 H   0  0  0  0  0  0  0  0  0  0  0  0
   56.3275   29.4901   44.7979 H   0  0  0  0  0  0  0  0  0  0  0  0
  2  1  1  1
  2  3  1  0
  3  4  2  0
  3  5  1  0
  5  6  1  0
  6  7  2  0
  7  8  1  0
  8  9  1  0
  9 10  1  0
  8 11  2  0
 11 12  1  0
 12 13  1  0
 13 14  2  0
 14 15  1  0
 15 16  1  0
 16 17  1  0
 17 18  1  0
 18 19  2  0
 19 20  1  0
 20 21  1  0
 21 22  1  0
 21 23  2  0
  7  2  1  0
 16 12  1  0
 23 18  1  0
 17  2  1  0
  1 24  1  0
  1 25  1  0
  1 26  1  0
  5 27  1  0
  5 28  1  0
  6 29  1  0
  9 30  1  0
  9 31  1  0
 10 32  1  0
 11 33  1  0
 12 34  1  6
 13 35  1  0
 14 36  1  0
 15 37  1  0
 15 38  1  0
 16 39  1  1
 17 40  1  1
 19 41  1  0
 22 42  1  0
 23 43  1  0
M  END
>  <UniqueID>  (13) 
10

>  <SMILES>  (13) 
C[C@@]12C(=O)CC=C1C(CO)=C[C@H]1C=CCC1C2c1coc(O)c1

>  <Energy>  (13) 
92.92799422232945

>  <Genealogy>  (13) 
C[C@@]12C(=O)CC=C1C(CO)=C[C@H]1C=CCC1C2c1coc(O)c1 (chirality)
C[C@@]12C(=O)CC=C1C(CO)=C[C@H]1C=CCC1C2c1coc(O)c1 (3D coordinates assigned)
C[C@@]12C(=O)CC=C1C(CO)=C[C@H]1C=CCC1C2c1coc(O)c1 (nonaromatic ring conformer: 92.92799422232945 kcal/mol)

>  <smiles>  (13) 
CC12C(=O)CC=C1C(CO)=CC1C=CCC1C2c1coc(O)c1

>  <score_type>  (13) 
oracle

>  <origin>  (13) 
adg

>  <m_score__min__energy>  (13) 
-6.4000000000000004

>  <m_primary>  (13) 
energy

$$$$
13:0
     RDKit          3D

 37 39  0  0  0  0  0  0  0  0999 V2000
   56.4620   30.6880   44.8060 O   0  0  0  0  0  0  0  0  0  0  0  0
   57.7870   30.3350   45.4180 S   0  0  0  0  0  0  0  0  0  0  0  0
   58.8610   30.4110   44.3690 O   0  0  0  0  0  0  0  0  0  0  0  0
   58.1360   31.5150   46.6430 N   0  0  0  0  0  0  0  0  0  0  0  0
   58.6500   32.8320   46.3730 C   0  0  0  0  0  0  0  0  0  0  0  0
   59.0460   33.6450   47.4480 C   0  0  0  0  0  0  0  0  0  0  0  0
   59.5420   34.9320   47.2220 C   0  0  0  0  0  0  0  0  0  0  0  0
   59.6470   35.4230   45.9190 C   0  0  0  0  0  0  0  0  0  0  0  0
   59.2580   34.6250   44.8390 C   0  0  0  0  0  0  0  0  0  0  0  0
   58.7620   33.3370   45.0610 C   0  0  0  0  0  0  0  0  0  0  0  0
   57.7690   28.7090   46.1430 C   0  0  0  0  0  0  0  0  0  0  0  0
   57.2100   27.6890   45.3540 C   0  0  0  0  0  0  0  0  0  0  0  0
   57.4430   26.3830   45.6380 N   0  0  0  0  0  0  0  0  0  0  0  0
   58.2170   26.0090   46.6840 C   0  0  0  0  0  0  0  0  0  0  0  0
   58.7620   26.9740   47.5270 C   0  0  0  0  0  0  0  0  0  0  0  0
   58.4880   28.3340   47.3180 C   0  0  0  0  0  0  0  0  0  0  0  0
   58.8930   29.1550   48.2500 N   0  0  0  0  0  0  0  0  0  0  0  0
   60.0130   30.0490   48.2620 C   0  0  0  0  0  0  0  0  0  0  0  0
   60.8920   30.0920   47.1670 C   0  0  0  0  0  0  0  0  0  0  0  0
   61.9330   31.0240   47.1360 C   0  0  0  0  0  0  0  0  0  0  0  0
   62.0840   31.9420   48.1800 C   0  0  0  0  0  0  0  0  0  0  0  0
   63.3910   33.1100   48.1390 Cl  0  0  0  0  0  0  0  0  0  0  0  0
   61.1820   31.9360   49.2490 C   0  0  0  0  0  0  0  0  0  0  0  0
   60.1370   31.0050   49.2840 C   0  0  0  0  0  0  0  0  0  0  0  0
   59.0080   31.0310   50.6310 Cl  0  0  0  0  0  0  0  0  0  0  0  0
   57.9410   31.2410   47.6320 H   0  0  0  0  0  0  0  0  0  0  0  0
   58.9650   33.2652   48.4772 H   0  0  0  0  0  0  0  0  0  0  0  0
   59.8501   35.5590   48.0717 H   0  0  0  0  0  0  0  0  0  0  0  0
   60.0355   36.4369   45.7425 H   0  0  0  0  0  0  0  0  0  0  0  0
   59.3424   35.0114   43.8126 H   0  0  0  0  0  0  0  0  0  0  0  0
   58.4573   32.7138   44.2074 H   0  0  0  0  0  0  0  0  0  0  0  0
   56.5754   27.9530   44.4952 H   0  0  0  0  0  0  0  0  0  0  0  0
   58.4153   24.9428   46.8679 H   0  0  0  0  0  0  0  0  0  0  0  0
   59.4107   26.6684   48.3611 H   0  0  0  0  0  0  0  0  0  0  0  0
   60.7604   29.3895   46.3308 H   0  0  0  0  0  0  0  0  0  0  0  0
   62.6347   31.0354   46.2890 H   0  0  0  0  0  0  0  0  0  0  0  0
   61.2941   32.6652   50.0649 H   0  0  0  0  0  0  0  0  0  0  0  0
  1  2  2  0
  2  3  2  0
  2  4  1  0
  4  5  1  0
  5  6  2  0
  6  7  1  0
  7  8  2  0
  8  9  1  0
  9 10  2  0
  2 11  1  0
 11 12  2  0
 12 13  1  0
 13 14  1  0
 14 15  2  0
 15 16  1  0
 16 17  2  3
 17 18  1  0
 18 19  2  0
 19 20  1  0
 20 21  2  0
 21 22  1  0
 21 23  1  0
 23 24  2  0
 24 25  1  0
 10  5  1  0
 16 11  1  0
 24 18  1  0
  4 26  1  0
  6 27  1  0
  7 28  1  0
  8 29  1  0
  9 30  1  0
 10 31  1  0
 12 32  1  0
 14 33  1  0
 15 34  1  0
 19 35  1  0
 20 36  1  0
 23 37  1  0
M  CHG  1  13  -1
M  END
>  <UniqueID>  (14) 
11

>  <SMILES>  (14) 
O=S(=O)(Nc1ccccc1)c1c[n-]ccc1=Nc1ccc(Cl)cc1Cl

>  <Energy>  (14) 
64.68313636184688

>  <Genealogy>  (14) 
O=S(=O)(Nc1ccccc1)c1c[n-]ccc1=Nc1ccc(Cl)cc1Cl (protonated)
O=S(=O)(Nc1ccccc1)c1c[n-]ccc1=Nc1ccc(Cl)cc1Cl (3D coordinates assigned)
O=S(=O)(Nc1ccccc1)c1c[n-]ccc1=Nc1ccc(Cl)cc1Cl (optimized conformer: 64.68313636184688 kcal/mol)

>  <smiles>  (14) 
O=S(=O)(Nc1ccccc1)c1c[nH]ccc1=Nc1ccc(Cl)cc1Cl

>  <score_type>  (14) 
oracle

>  <origin>  (14) 
adg

>  <m_score__min__energy>  (14) 
-10.32

>  <m_primary>  (14) 
energy

$$$$
14:0
     RDKit          3D

 44 46  0  0  0  0  0  0  0  0999 V2000
   65.8640   31.3520   50.9450 C   0  0  0  0  0  0  0  0  0  0  0  0
   64.5200   31.1530   50.5160 O   0  0  0  0  0  0  0  0  0  0  0  0
   63.8760   31.9300   49.5410 C   0  0  0  0  0  0  0  0  0  0  0  0
   64.4610   33.0840   48.9870 C   0  0  0  0  0  0  0  0  0  0  0  0
   63.7810   33.8240   48.0160 C   0  0  0  0  0  0  0  0  0  0  0  0
   62.5050   33.4230   47.5770 C   0  0  0  0  0  0  0  0  0  0  0  0
   61.7770   34.1580   46.5750 N   0  0  0  0  0  0  0  0  0  0  0  0
   60.1490   34.7260   46.7770 S   0  0  0  0  0  0  0  0  0  0  0  0
   60.0140   36.0720   46.1210 O   0  0  0  0  0  0  0  0  0  0  0  0
   59.8530   34.8660   48.2440 O   0  0  0  0  0  0  0  0  0  0  0  0
   59.0130   33.5760   46.0780 C   0  0  0  0  0  0  0  0  0  0  0  0
   58.9510   32.2620   46.5580 C   0  0  0  0  0  0  0  0  0  0  0  0
   58.0420   31.3550   46.0070 C   0  0  0  0  0  0  0  0  0  0  0  0
   57.1960   31.7440   44.9600 C   0  0  0  0  0  0  0  0  0  0  0  0
   56.2620   30.7860   44.4400 N   0  0  0  0  0  0  0  0  0  0  0  0
   56.3600   29.3590   44.5270 C   0  0  0  0  0  0  0  0  0  0  0  0
   55.5200   28.6920   45.1890 O   0  0  0  0  0  0  0  0  0  0  0  0
   57.4060   28.6460   43.7320 C   0  0  0  0  0  0  0  0  0  0  0  0
   58.4220   28.0440   44.6490 C   0  0  0  0  0  0  0  0  0  0  0  0
   58.2130   26.9700   45.5040 C   0  0  0  0  0  0  0  0  0  0  0  0
   59.3280   26.6730   46.2970 C   0  0  0  0  0  0  0  0  0  0  0  0
   60.4080   27.5180   46.0800 C   0  0  0  0  0  0  0  0  0  0  0  0
   59.9750   28.6390   44.9010 S   0  0  0  0  0  0  0  0  0  0  0  0
   57.2470   33.0690   44.4920 C   0  0  0  0  0  0  0  0  0  0  0  0
   58.1590   33.9750   45.0430 C   0  0  0  0  0  0  0  0  0  0  0  0
   61.9250   32.2750   48.1380 C   0  0  0  0  0  0  0  0  0  0  0  0
   62.6060   31.5360   49.1080 C   0  0  0  0  0  0  0  0  0  0  0  0
   65.9010   31.3575   52.0444 H   0  0  0  0  0  0  0  0  0  0  0  0
   66.4959   30.5376   50.5609 H   0  0  0  0  0  0  0  0  0  0  0  0
   66.2328   32.3145   50.5609 H   0  0  0  0  0  0  0  0  0  0  0  0
   65.4589   33.4052   49.3202 H   0  0  0  0  0  0  0  0  0  0  0  0
   64.2460   34.7261   47.5918 H   0  0  0  0  0  0  0  0  0  0  0  0
   62.2670   34.4330   45.6950 H   0  0  0  0  0  0  0  0  0  0  0  0
   59.6197   31.9429   47.3710 H   0  0  0  0  0  0  0  0  0  0  0  0
   57.9902   30.3282   46.3980 H   0  0  0  0  0  0  0  0  0  0  0  0
   56.9331   27.8495   43.1388 H   0  0  0  0  0  0  0  0  0  0  0  0
   57.9032   29.3636   43.0628 H   0  0  0  0  0  0  0  0  0  0  0  0
   57.2677   26.4096   45.5533 H   0  0  0  0  0  0  0  0  0  0  0  0
   59.3466   25.8475   47.0238 H   0  0  0  0  0  0  0  0  0  0  0  0
   61.3805   27.4642   46.5911 H   0  0  0  0  0  0  0  0  0  0  0  0
   56.5676   33.3939   43.6902 H   0  0  0  0  0  0  0  0  0  0  0  0
   58.2054   35.0056   44.6614 H   0  0  0  0  0  0  0  0  0  0  0  0
   60.9250   31.9542   47.8109 H   0  0  0  0  0  0  0  0  0  0  0  0
   62.1393   30.6361   49.5351 H   0  0  0  0  0  0  0  0  0  0  0  0
  1  2  1  0
  2  3  1  0
  3  4  2  0
  4  5  1  0
  5  6  2  0
  6  7  1  0
  7  8  1  0
  8  9  2  0
  8 10  2  0
  8 11  1  0
 11 12  2  0
 12 13  1  0
 13 14  2  0
 14 15  1  0
 15 16  1  0
 16 17  2  0
 16 18  1  0
 18 19  1  0
 19 20  2  0
 20 21  1  0
 21 22  2  0
 22 23  1  0
 14 24  1  0
 24 25  2  0
  6 26  1  0
 26 27  2  0
 27  3  1  0
 25 11  1  0
 23 19  1  0
  1 28  1  0
  1 29  1  0
  1 30  1  0
  4 31  1  0
  5 32  1  0
  7 33  1  0
 12 34  1  0
 13 35  1  0
 18 36  1  0
 18 37  1  0
 20 38  1  0
 21 39  1  0
 22 40  1  0
 24 41  1  0
 25 42  1  0
 26 43  1  0
 27 44  1  0
M  CHG  1  15  -1
M  END
>  <UniqueID>  (15) 
12

>  <SMILES>  (15) 
COc1ccc(NS(=O)(=O)c2ccc([N-]C(=O)Cc3cccs3)cc2)cc1

>  <Energy>  (15) 
74.8293658964118

>  <Genealogy>  (15) 
COc1ccc(NS(=O)(=O)c2ccc([N-]C(=O)Cc3cccs3)cc2)cc1 (protonated)
COc1ccc(NS(=O)(=O)c2ccc([N-]C(=O)Cc3cccs3)cc2)cc1 (3D coordinates assigned)
COc1ccc(NS(=O)(=O)c2ccc([N-]C(=O)Cc3cccs3)cc2)cc1 (optimized conformer: 74.8293658964118 kcal/mol)

>  <smiles>  (15) 
COc1ccc(NS(=O)(=O)c2ccc(NC(=O)Cc3cccs3)cc2)cc1

>  <score_type>  (15) 
oracle

>  <origin>  (15) 
adg

>  <m_score__min__energy>  (15) 
-10

>  <m_primary>  (15) 
energy

$$$$
15:0
     RDKit          3D

 72 74  0  0  0  0  0  0  0  0999 V2000
   62.9650   31.2400   51.8290 N   0  0  0  0  0  0  0  0  0  0  0  0
   61.5980   30.9520   51.5030 C   0  0  0  0  0  0  0  0  0  0  0  0
   61.2190   29.6000   51.2480 N   0  0  0  0  0  0  0  0  0  0  0  0
   60.6830   31.8780   51.4430 N   0  0  0  0  0  0  0  0  0  0  0  0
   59.2260   31.7200   51.4620 C   0  0  0  0  0  0  0  0  0  0  0  0
   58.6640   31.6000   50.0370 C   0  0  0  0  0  0  0  0  0  0  0  0
   58.5480   30.1480   49.5230 C   0  0  0  0  0  0  0  0  0  0  0  0
   59.6050   29.7490   48.4710 C   0  0  1  0  0  0  0  0  0  0  0  0
   60.7760   30.6330   48.5430 N   0  0  0  0  0  0  0  0  0  0  0  0
   61.6830   30.7950   47.4470 C   0  0  0  0  0  0  0  0  0  0  0  0
   61.4580   30.2220   46.3460 O   0  0  0  0  0  0  0  0  0  0  0  0
   62.8260   31.5840   47.6170 O   0  0  0  0  0  0  0  0  0  0  0  0
   62.8930   32.9540   47.2290 C   0  0  0  0  0  0  0  0  0  0  0  0
   61.5250   33.5770   47.2590 C   0  0  0  0  0  0  0  0  0  0  0  0
   60.8590   33.8600   46.0560 C   0  0  0  0  0  0  0  0  0  0  0  0
   59.5900   34.4460   46.0770 C   0  0  0  0  0  0  0  0  0  0  0  0
   58.9800   34.7590   47.2950 C   0  0  0  0  0  0  0  0  0  0  0  0
   59.6400   34.4880   48.4950 C   0  0  0  0  0  0  0  0  0  0  0  0
   60.9100   33.9010   48.4810 C   0  0  0  0  0  0  0  0  0  0  0  0
   60.0090   28.2920   48.5870 C   0  0  0  0  0  0  0  0  0  0  0  0
   60.8480   27.9500   49.4630 O   0  0  0  0  0  0  0  0  0  0  0  0
   59.4310   27.2660   47.7680 N   0  0  0  0  0  0  0  0  0  0  0  0
   58.3120   27.4210   46.8400 C   0  0  1  0  0  0  0  0  0  0  0  0
   58.8350   27.8610   45.4550 C   0  0  0  0  0  0  0  0  0  0  0  0
   58.1960   29.1420   44.9850 C   0  0  0  0  0  0  0  0  0  0  0  0
   57.1230   29.1120   44.0780 C   0  0  0  0  0  0  0  0  0  0  0  0
   56.5350   30.3040   43.6410 C   0  0  0  0  0  0  0  0  0  0  0  0
   57.0120   31.5310   44.1050 C   0  0  0  0  0  0  0  0  0  0  0  0
   58.0700   31.5670   45.0220 C   0  0  0  0  0  0  0  0  0  0  0  0
   58.6550   30.3790   45.4670 C   0  0  0  0  0  0  0  0  0  0  0  0
   57.5470   26.1210   46.7650 C   0  0  0  0  0  0  0  0  0  0  0  0
   58.1150   25.0590   47.1390 O   0  0  0  0  0  0  0  0  0  0  0  0
   56.1460   26.0530   46.3110 C   0  0  0  0  0  0  0  0  0  0  0  0
   55.5650   27.0830   45.8720 O   0  0  0  0  0  0  0  0  0  0  0  0
   55.4450   24.8070   46.3790 N   0  0  0  0  0  0  0  0  0  0  0  0
   54.6660   24.2640   45.2760 C   0  0  0  0  0  0  0  0  0  0  0  0
   55.5150   23.3300   44.4730 C   0  0  0  0  0  0  0  0  0  0  0  0
   55.4350   23.1240   43.1020 C   0  0  0  0  0  0  0  0  0  0  0  0
   56.2640   22.1570   42.6250 N   0  0  0  0  0  0  0  0  0  0  0  0
   56.9990   21.5820   43.6030 C   0  0  0  0  0  0  0  0  0  0  0  0
   56.6370   22.2490   45.1050 S   0  0  0  0  0  0  0  0  0  0  0  0
   63.3180   32.2000   52.0200 H   0  0  0  0  0  0  0  0  0  0  0  0
   63.6640   30.4660   51.8590 H   0  0  0  0  0  0  0  0  0  0  0  0
   60.2300   29.3600   51.0140 H   0  0  0  0  0  0  0  0  0  0  0  0
   61.9280   28.8320   51.2840 H   0  0  0  0  0  0  0  0  0  0  0  0
   58.9705   30.8112   52.0267 H   0  0  0  0  0  0  0  0  0  0  0  0
   58.7845   32.6079   51.9381 H   0  0  0  0  0  0  0  0  0  0  0  0
   57.6615   32.0524   50.0222 H   0  0  0  0  0  0  0  0  0  0  0  0
   59.3735   32.1150   49.3727 H   0  0  0  0  0  0  0  0  0  0  0  0
   58.6490   29.4708   50.3839 H   0  0  0  0  0  0  0  0  0  0  0  0
   57.5702   30.0723   49.0247 H   0  0  0  0  0  0  0  0  0  0  0  0
   59.1405   29.8723   47.4816 H   0  0  0  0  0  0  0  0  0  0  0  0
   60.9670   31.1850   49.4120 H   0  0  0  0  0  0  0  0  0  0  0  0
   63.5525   33.4951   47.9234 H   0  0  0  0  0  0  0  0  0  0  0  0
   63.2893   33.0148   46.2047 H   0  0  0  0  0  0  0  0  0  0  0  0
   61.3368   33.6201   45.0947 H   0  0  0  0  0  0  0  0  0  0  0  0
   59.0699   34.6615   45.1320 H   0  0  0  0  0  0  0  0  0  0  0  0
   57.9807   35.2185   47.3081 H   0  0  0  0  0  0  0  0  0  0  0  0
   59.1606   34.7364   49.4534 H   0  0  0  0  0  0  0  0  0  0  0  0
   61.4285   33.6925   49.4284 H   0  0  0  0  0  0  0  0  0  0  0  0
   57.6265   28.2034   47.1976 H   0  0  0  0  0  0  0  0  0  0  0  0
   59.9229   28.0105   45.5185 H   0  0  0  0  0  0  0  0  0  0  0  0
   58.5804   27.0720   44.7321 H   0  0  0  0  0  0  0  0  0  0  0  0
   56.7438   28.1472   43.7100 H   0  0  0  0  0  0  0  0  0  0  0  0
   55.6956   30.2742   42.9307 H   0  0  0  0  0  0  0  0  0  0  0  0
   56.5577   32.4682   43.7510 H   0  0  0  0  0  0  0  0  0  0  0  0
   58.4415   32.5337   45.3929 H   0  0  0  0  0  0  0  0  0  0  0  0
   59.4773   30.4123   46.1968 H   0  0  0  0  0  0  0  0  0  0  0  0
   53.7981   23.7184   45.6747 H   0  0  0  0  0  0  0  0  0  0  0  0
   54.3205   25.0871   44.6332 H   0  0  0  0  0  0  0  0  0  0  0  0
   54.7556   23.6970   42.4538 H   0  0  0  0  0  0  0  0  0  0  0  0
   57.7369   20.7830   43.4386 H   0  0  0  0  0  0  0  0  0  0  0  0
  1  2  1  0
  2  3  1  0
  2  4  2  3
  4  5  1  0
  5  6  1  0
  6  7  1  0
  7  8  1  0
  8  9  1  0
  9 10  1  0
 10 11  2  0
 10 12  1  0
 12 13  1  0
 13 14  1  0
 14 15  2  0
 15 16  1  0
 16 17  2  0
 17 18  1  0
 18 19  2  0
  8 20  1  0
 20 21  2  0
 20 22  1  0
 22 23  1  0
 23 24  1  0
 24 25  1  0
 25 26  2  0
 26 27  1  0
 27 28  2  0
 28 29  1  0
 29 30  2  0
 23 31  1  0
 31 32  2  0
 31 33  1  0
 33 34  2  0
 33 35  1  0
 35 36  1  0
 36 37  1  0
 37 38  2  0
 38 39  1  0
 39 40  2  0
 40 41  1  0
 19 14  1  0
 30 25  1  0
 41 37  1  0
  1 42  1  0
  1 43  1  0
  3 44  1  0
  3 45  1  0
  5 46  1  0
  5 47  1  0
  6 48  1  0
  6 49  1  0
  7 50  1  0
  7 51  1  0
  8 52  1  6
  9 53  1  0
 13 54  1  0
 13 55  1  0
 15 56  1  0
 16 57  1  0
 17 58  1  0
 18 59  1  0
 19 60  1  0
 23 61  1  1
 24 62  1  0
 24 63  1  0
 26 64  1  0
 27 65  1  0
 28 66  1  0
 29 67  1  0
 30 68  1  0
 36 69  1  0
 36 70  1  0
 38 71  1  0
 40 72  1  0
M  CHG  2  22  -1  35  -1
M  END
>  <UniqueID>  (16) 
13

>  <SMILES>  (16) 
NC(N)=NCCC[C@@H](NC(=O)OCc1ccccc1)C(=O)[N-][C@@H](Cc1ccccc1)C(=O)C(=O)[N-]Cc1cncs1

>  <Energy>  (16) 
89.84674549778148

>  <Genealogy>  (16) 
NC(N)=NCCCC(NC(=O)OCc1ccccc1)C(=O)[N-]C(Cc1ccccc1)C(=O)C(=O)[N-]Cc1cncs1 (protonated)
NC(N)=NCCC[C@@H](NC(=O)OCc1ccccc1)C(=O)[N-][C@@H](Cc1ccccc1)C(=O)C(=O)[N-]Cc1cncs1 (chirality)
NC(N)=NCCC[C@@H](NC(=O)OCc1ccccc1)C(=O)[N-][C@@H](Cc1ccccc1)C(=O)C(=O)[N-]Cc1cncs1 (3D coordinates assigned)
NC(N)=NCCC[C@@H](NC(=O)OCc1ccccc1)C(=O)[N-][C@@H](Cc1ccccc1)C(=O)C(=O)[N-]Cc1cncs1 (optimized conformer: 89.84674549778148 kcal/mol)

>  <smiles>  (16) 
NC(N)=NCCCC(NC(=O)OCc1ccccc1)C(=O)NC(Cc1ccccc1)C(=O)C(=O)NCc1cncs1

>  <score_type>  (16) 
oracle

>  <origin>  (16) 
adg

>  <m_score__min__energy>  (16) 
-12.210000000000001

>  <m_primary>  (16) 
energy

$$$$
16:0
     RDKit          3D

 51 53  0  0  0  0  0  0  0  0999 V2000
   65.4660   31.9960   50.3910 C   0  0  0  0  0  0  0  0  0  0  0  0
   64.2150   32.6090   49.7710 C   0  0  0  0  0  0  0  0  0  0  0  0
   64.5700   33.5460   48.7710 O   0  0  0  0  0  0  0  0  0  0  0  0
   63.6320   33.5340   47.7100 C   0  0  2  0  0  0  0  0  0  0  0  0
   62.2870   34.1500   48.1370 C   0  0  0  0  0  0  0  0  0  0  0  0
   61.1700   33.2180   47.5750 C   0  0  0  0  0  0  0  0  0  0  0  0
   60.6730   33.7570   46.2000 C   0  0  0  0  0  0  0  0  0  0  0  0
   59.5080   34.7380   46.3840 C   0  0  0  0  0  0  0  0  0  0  0  0
   58.3340   34.1010   47.0330 N   0  0  0  0  0  0  0  0  0  0  0  0
   57.1830   33.8750   46.1300 C   0  0  0  0  0  0  0  0  0  0  0  0
   57.3970   32.7530   45.1320 C   0  0  0  0  0  0  0  0  0  0  0  0
   57.4140   31.4120   45.5540 C   0  0  0  0  0  0  0  0  0  0  0  0
   57.5770   30.3810   44.6270 C   0  0  0  0  0  0  0  0  0  0  0  0
   57.7430   30.6750   43.2710 C   0  0  0  0  0  0  0  0  0  0  0  0
   57.7770   32.0080   42.8370 C   0  0  0  0  0  0  0  0  0  0  0  0
   57.9220   32.3250   41.3790 C   0  0  0  0  0  0  0  0  0  0  0  0
   57.6010   33.0420   43.7710 C   0  0  0  0  0  0  0  0  0  0  0  0
   58.6440   32.9360   47.8960 C   0  0  0  0  0  0  0  0  0  0  0  0
   59.9990   33.0980   48.5970 C   0  0  0  0  0  0  0  0  0  0  0  0
   61.8500   31.9310   47.3860 N   0  0  0  0  0  0  0  0  0  0  0  0
   61.2230   30.6750   46.9620 C   0  0  0  0  0  0  0  0  0  0  0  0
   63.2520   32.1410   47.3960 C   0  0  0  0  0  0  0  0  0  0  0  0
   64.0870   31.2380   47.1240 O   0  0  0  0  0  0  0  0  0  0  0  0
   65.3882   32.0341   51.4876 H   0  0  0  0  0  0  0  0  0  0  0  0
   65.5610   30.9493   50.0663 H   0  0  0  0  0  0  0  0  0  0  0  0
   66.3514   32.5623   50.0663 H   0  0  0  0  0  0  0  0  0  0  0  0
   63.6052   31.8117   49.3210 H   0  0  0  0  0  0  0  0  0  0  0  0
   63.6424   33.1241   50.5564 H   0  0  0  0  0  0  0  0  0  0  0  0
   64.1089   34.0779   46.8812 H   0  0  0  0  0  0  0  0  0  0  0  0
   62.2236   34.1991   49.2341 H   0  0  0  0  0  0  0  0  0  0  0  0
   62.1799   35.1743   47.7505 H   0  0  0  0  0  0  0  0  0  0  0  0
   61.5023   34.2738   45.6949 H   0  0  0  0  0  0  0  0  0  0  0  0
   60.3239   32.9070   45.5952 H   0  0  0  0  0  0  0  0  0  0  0  0
   59.8468   35.5766   47.0100 H   0  0  0  0  0  0  0  0  0  0  0  0
   59.1964   35.0823   45.3868 H   0  0  0  0  0  0  0  0  0  0  0  0
   56.3039   33.6297   46.7439 H   0  0  0  0  0  0  0  0  0  0  0  0
   57.0468   34.7986   45.5483 H   0  0  0  0  0  0  0  0  0  0  0  0
   57.2981   31.1736   46.6216 H   0  0  0  0  0  0  0  0  0  0  0  0
   57.5748   29.3342   44.9649 H   0  0  0  0  0  0  0  0  0  0  0  0
   57.8473   29.8582   42.5417 H   0  0  0  0  0  0  0  0  0  0  0  0
   58.3770   33.3198   41.2635 H   0  0  0  0  0  0  0  0  0  0  0  0
   58.5644   31.5703   40.9018 H   0  0  0  0  0  0  0  0  0  0  0  0
   56.9309   32.3175   40.9018 H   0  0  0  0  0  0  0  0  0  0  0  0
   57.6230   34.0890   43.4343 H   0  0  0  0  0  0  0  0  0  0  0  0
   57.8572   32.8369   48.6583 H   0  0  0  0  0  0  0  0  0  0  0  0
   58.6901   32.0393   47.2605 H   0  0  0  0  0  0  0  0  0  0  0  0
   59.9728   34.0066   49.2165 H   0  0  0  0  0  0  0  0  0  0  0  0
   60.1738   32.2037   49.2131 H   0  0  0  0  0  0  0  0  0  0  0  0
   60.9323   30.0927   47.8488 H   0  0  0  0  0  0  0  0  0  0  0  0
   60.3296   30.8962   46.3596 H   0  0  0  0  0  0  0  0  0  0  0  0
   61.9368   30.0939   46.3596 H   0  0  0  0  0  0  0  0  0  0  0  0
  1  2  1  0
  2  3  1  0
  3  4  1  0
  4  5  1  0
  5  6  1  0
  6  7  1  0
  7  8  1  0
  8  9  1  0
  9 10  1  0
 10 11  1  0
 11 12  2  0
 12 13  1  0
 13 14  2  0
 14 15  1  0
 15 16  1  0
 15 17  2  0
  9 18  1  0
 18 19  1  0
  6 20  1  0
 20 21  1  0
 20 22  1  0
 22 23  2  0
 22  4  1  0
 19  6  1  0
 17 11  1  0
  1 24  1  0
  1 25  1  0
  1 26  1  0
  2 27  1  0
  2 28  1  0
  4 29  1  6
  5 30  1  0
  5 31  1  0
  7 32  1  0
  7 33  1  0
  8 34  1  0
  8 35  1  0
 10 36  1  0
 10 37  1  0
 12 38  1  0
 13 39  1  0
 14 40  1  0
 16 41  1  0
 16 42  1  0
 16 43  1  0
 17 44  1  0
 18 45  1  0
 18 46  1  0
 19 47  1  0
 19 48  1  0
 21 49  1  0
 21 50  1  0
 21 51  1  0
M  END
>  <UniqueID>  (17) 
14

>  <SMILES>  (17) 
CCO[C@@H]1CC2(CCN(Cc3cccc(C)c3)CC2)N(C)C1=O

>  <Energy>  (17) 
69.5569152444567

>  <Genealogy>  (17) 
CCO[C@@H]1CC2(CCN(Cc3cccc(C)c3)CC2)N(C)C1=O (chirality)
CCO[C@@H]1CC2(CCN(Cc3cccc(C)c3)CC2)N(C)C1=O (3D coordinates assigned)
CCO[C@@H]1CC2(CCN(Cc3cccc(C)c3)CC2)N(C)C1=O (nonaromatic ring conformer: 69.5569152444567 kcal/mol)

>  <smiles>  (17) 
CCOC1CC2(CCN(Cc3cccc(C)c3)CC2)N(C)C1=O

>  <score_type>  (17) 
oracle

>  <origin>  (17) 
adg

>  <m_score__min__energy>  (17) 
-7.5499999999999998

>  <m_primary>  (17) 
energy

$$$$
17:0
     RDKit          3D

 53 55  0  0  0  0  0  0  0  0999 V2000
   66.4450   31.8600   50.5110 C   0  0  0  0  0  0  0  0  0  0  0  0
   65.6020   33.0430   50.0460 C   0  0  0  0  0  0  0  0  0  0  0  0
   64.2420   32.6540   49.8760 O   0  0  0  0  0  0  0  0  0  0  0  0
   63.3350   33.3460   49.0630 C   0  0  0  0  0  0  0  0  0  0  0  0
   63.0630   34.5560   49.3020 O   0  0  0  0  0  0  0  0  0  0  0  0
   62.6800   32.6650   47.8820 C   0  0  1  0  0  0  0  0  0  0  0  0
   61.4440   31.8380   48.2660 C   0  0  0  0  0  0  0  0  0  0  0  0
   60.2540   32.7020   48.7120 C   0  0  0  0  0  0  0  0  0  0  0  0
   60.3090   34.1520   48.1950 C   0  0  0  0  0  0  0  0  0  0  0  0
   60.9890   34.2880   46.8920 N   0  0  0  0  0  0  0  0  0  0  0  0
   60.1260   34.2190   45.6930 C   0  0  0  0  0  0  0  0  0  0  0  0
   59.1820   33.0430   45.6980 C   0  0  0  0  0  0  0  0  0  0  0  0
   59.5720   31.7750   45.9250 N   0  0  0  0  0  0  0  0  0  0  0  0
   58.4410   31.0410   45.8420 C   0  0  0  0  0  0  0  0  0  0  0  0
   58.3640   29.5700   46.0000 C   0  0  0  0  0  0  0  0  0  0  0  0
   57.5200   28.7850   45.1950 C   0  0  0  0  0  0  0  0  0  0  0  0
   57.4630   27.3980   45.3670 C   0  0  0  0  0  0  0  0  0  0  0  0
   58.2490   26.7710   46.3500 C   0  0  0  0  0  0  0  0  0  0  0  0
   58.2270   25.3840   46.5600 O   0  0  0  0  0  0  0  0  0  0  0  0
   58.1030   24.4160   45.5240 C   0  0  0  0  0  0  0  0  0  0  0  0
   59.0880   27.5510   47.1520 C   0  0  0  0  0  0  0  0  0  0  0  0
   59.1450   28.9380   46.9810 C   0  0  0  0  0  0  0  0  0  0  0  0
   57.3910   31.7970   45.5970 O   0  0  0  0  0  0  0  0  0  0  0  0
   57.8080   33.0380   45.5130 C   0  0  0  0  0  0  0  0  0  0  0  0
   56.9030   34.1960   45.2420 C   0  0  0  0  0  0  0  0  0  0  0  0
   62.3290   33.6670   46.7580 C   0  0  0  0  0  0  0  0  0  0  0  0
   66.4642   31.8331   51.6105 H   0  0  0  0  0  0  0  0  0  0  0  0
   66.0080   30.9256   50.1289 H   0  0  0  0  0  0  0  0  0  0  0  0
   67.4708   31.9681   50.1289 H   0  0  0  0  0  0  0  0  0  0  0  0
   65.6575   33.8441   50.7978 H   0  0  0  0  0  0  0  0  0  0  0  0
   65.9922   33.3988   49.0810 H   0  0  0  0  0  0  0  0  0  0  0  0
   63.4333   31.9605   47.4996 H   0  0  0  0  0  0  0  0  0  0  0  0
   61.1366   31.2426   47.3937 H   0  0  0  0  0  0  0  0  0  0  0  0
   61.7264   31.2039   49.1193 H   0  0  0  0  0  0  0  0  0  0  0  0
   59.3292   32.2364   48.3406 H   0  0  0  0  0  0  0  0  0  0  0  0
   60.2890   32.7523   49.8103 H   0  0  0  0  0  0  0  0  0  0  0  0
   59.2789   34.5235   48.0904 H   0  0  0  0  0  0  0  0  0  0  0  0
   60.8906   34.7337   48.9253 H   0  0  0  0  0  0  0  0  0  0  0  0
   59.5312   35.1427   45.6386 H   0  0  0  0  0  0  0  0  0  0  0  0
   60.7891   34.0979   44.8237 H   0  0  0  0  0  0  0  0  0  0  0  0
   60.5440   31.4520   46.1200 H   0  0  0  0  0  0  0  0  0  0  0  0
   56.8997   29.2653   44.4239 H   0  0  0  0  0  0  0  0  0  0  0  0
   56.7998   26.7945   44.7299 H   0  0  0  0  0  0  0  0  0  0  0  0
   57.9751   23.4178   45.9682 H   0  0  0  0  0  0  0  0  0  0  0  0
   57.2281   24.6551   44.9015 H   0  0  0  0  0  0  0  0  0  0  0  0
   59.0099   24.4269   44.9015 H   0  0  0  0  0  0  0  0  0  0  0  0
   59.7078   27.0701   47.9231 H   0  0  0  0  0  0  0  0  0  0  0  0
   59.8077   29.5392   47.6208 H   0  0  0  0  0  0  0  0  0  0  0  0
   56.5652   34.6283   46.1954 H   0  0  0  0  0  0  0  0  0  0  0  0
   57.4465   34.9591   44.6656 H   0  0  0  0  0  0  0  0  0  0  0  0
   56.0312   33.8530   44.6656 H   0  0  0  0  0  0  0  0  0  0  0  0
   62.3673   33.1338   45.7966 H   0  0  0  0  0  0  0  0  0  0  0  0
   63.0631   34.4837   46.8228 H   0  0  0  0  0  0  0  0  0  0  0  0
  1  2  1  0
  2  3  1  0
  3  4  1  0
  4  5  2  0
  4  6  1  0
  6  7  1  0
  7  8  1  0
  8  9  1  0
  9 10  1  0
 10 11  1  0
 11 12  1  0
 12 13  1  0
 13 14  2  0
 14 15  1  0
 15 16  2  0
 16 17  1  0
 17 18  2  0
 18 19  1  0
 19 20  1  0
 18 21  1  0
 21 22  2  0
 14 23  1  0
 23 24  1  0
 24 25  1  0
 10 26  1  0
 26  6  1  0
 24 12  2  0
 22 15  1  0
  1 27  1  0
  1 28  1  0
  1 29  1  0
  2 30  1  0
  2 31  1  0
  6 32  1  6
  7 33  1  0
  7 34  1  0
  8 35  1  0
  8 36  1  0
  9 37  1  0
  9 38  1  0
 11 39  1  0
 11 40  1  0
 13 41  1  0
 16 42  1  0
 17 43  1  0
 20 44  1  0
 20 45  1  0
 20 46  1  0
 21 47  1  0
 22 48  1  0
 25 49  1  0
 25 50  1  0
 25 51  1  0
 26 52  1  0
 26 53  1  0
M  CHG  1  13   1
M  END
>  <UniqueID>  (18) 
15

>  <SMILES>  (18) 
CCOC(=O)[C@H]1CCCN(Cc2[nH+]c(-c3ccc(OC)cc3)oc2C)C1

>  <Energy>  (18) 
93.50557178159879

>  <Genealogy>  (18) 
CCOC(=O)C1CCCN(Cc2[nH+]c(-c3ccc(OC)cc3)oc2C)C1 (protonated)
CCOC(=O)[C@H]1CCCN(Cc2[nH+]c(-c3ccc(OC)cc3)oc2C)C1 (chirality)
CCOC(=O)[C@H]1CCCN(Cc2[nH+]c(-c3ccc(OC)cc3)oc2C)C1 (3D coordinates assigned)
CCOC(=O)[C@H]1CCCN(Cc2[nH+]c(-c3ccc(OC)cc3)oc2C)C1 (nonaromatic ring conformer: 93.50557178159879 kcal/mol)

>  <smiles>  (18) 
CCOC(=O)C1CCCN(Cc2nc(-c3ccc(OC)cc3)oc2C)C1

>  <score_type>  (18) 
oracle

>  <origin>  (18) 
adg

>  <m_score__min__energy>  (18) 
-5.8300000000000001

>  <m_primary>  (18) 
energy

$$$$
18:0
     RDKit          3D

 49 53  0  0  0  0  0  0  0  0999 V2000
   55.3390   26.3580   45.9760 O   0  0  0  0  0  0  0  0  0  0  0  0
   56.5800   26.5700   46.0580 C   0  0  0  0  0  0  0  0  0  0  0  0
   57.5320   25.4250   45.9230 C   0  0  0  0  0  0  0  0  0  0  0  0
   56.8980   24.3200   45.1220 C   0  0  0  0  0  0  0  0  0  0  0  0
   56.4480   23.1510   45.7570 C   0  0  0  0  0  0  0  0  0  0  0  0
   55.9000   22.1200   44.9890 C   0  0  0  0  0  0  0  0  0  0  0  0
   55.8120   22.2460   43.6370 N   0  0  0  0  0  0  0  0  0  0  0  0
   56.2560   23.3610   42.9960 C   0  0  0  0  0  0  0  0  0  0  0  0
   56.8060   24.4190   43.7250 C   0  0  0  0  0  0  0  0  0  0  0  0
   57.0840   27.8720   46.3860 N   0  0  0  0  0  0  0  0  0  0  0  0
   57.0780   29.0350   45.5440 C   0  0  0  0  0  0  0  0  0  0  0  0
   56.3310   28.9980   44.3600 C   0  0  0  0  0  0  0  0  0  0  0  0
   56.2940   30.1080   43.5120 C   0  0  0  0  0  0  0  0  0  0  0  0
   56.9970   31.2680   43.8440 C   0  0  0  0  0  0  0  0  0  0  0  0
   57.7320   31.3370   45.0420 C   0  0  0  0  0  0  0  0  0  0  0  0
   58.4740   32.5720   45.3990 C   0  0  0  0  0  0  0  0  0  0  0  0
   58.1520   33.7990   44.7920 C   0  0  0  0  0  0  0  0  0  0  0  0
   58.8410   34.9620   45.1400 C   0  0  0  0  0  0  0  0  0  0  0  0
   59.8550   34.9180   46.1010 C   0  0  0  0  0  0  0  0  0  0  0  0
   60.1910   33.7020   46.7250 C   0  0  0  0  0  0  0  0  0  0  0  0
   61.2490   33.6570   47.7600 C   0  0  0  0  0  0  0  0  0  0  0  0
   62.4940   33.1560   47.5240 N   0  0  0  0  0  0  0  0  0  0  0  0
   63.1060   33.3230   48.7040 C   0  0  0  0  0  0  0  0  0  0  0  0
   64.4170   32.9900   49.0400 C   0  0  0  0  0  0  0  0  0  0  0  0
   64.8470   33.2680   50.3510 C   0  0  0  0  0  0  0  0  0  0  0  0
   63.9630   33.8680   51.2780 C   0  0  0  0  0  0  0  0  0  0  0  0
   62.6460   34.1900   50.9020 C   0  0  0  0  0  0  0  0  0  0  0  0
   62.2580   33.9000   49.5970 C   0  0  0  0  0  0  0  0  0  0  0  0
   61.0670   34.1240   49.0240 N   0  0  0  0  0  0  0  0  0  0  0  0
   59.4990   32.5320   46.3620 C   0  0  0  0  0  0  0  0  0  0  0  0
   57.7570   30.2180   45.8950 C   0  0  0  0  0  0  0  0  0  0  0  0
   58.4440   25.7679   45.4125 H   0  0  0  0  0  0  0  0  0  0  0  0
   57.7849   25.0458   46.9241 H   0  0  0  0  0  0  0  0  0  0  0  0
   56.5262   23.0478   46.8494 H   0  0  0  0  0  0  0  0  0  0  0  0
   55.5387   21.2038   45.4790 H   0  0  0  0  0  0  0  0  0  0  0  0
   56.1819   23.4299   41.9007 H   0  0  0  0  0  0  0  0  0  0  0  0
   57.1638   25.3217   43.2082 H   0  0  0  0  0  0  0  0  0  0  0  0
   55.7699   28.0895   44.0959 H   0  0  0  0  0  0  0  0  0  0  0  0
   55.7098   30.0680   42.5808 H   0  0  0  0  0  0  0  0  0  0  0  0
   56.9761   32.1331   43.1649 H   0  0  0  0  0  0  0  0  0  0  0  0
   57.3521   33.8425   44.0382 H   0  0  0  0  0  0  0  0  0  0  0  0
   58.5851   35.9163   44.6564 H   0  0  0  0  0  0  0  0  0  0  0  0
   60.3932   35.8385   46.3710 H   0  0  0  0  0  0  0  0  0  0  0  0
   65.0922   32.5260   48.3060 H   0  0  0  0  0  0  0  0  0  0  0  0
   65.8739   33.0178   50.6557 H   0  0  0  0  0  0  0  0  0  0  0  0
   64.3076   34.0844   52.3000 H   0  0  0  0  0  0  0  0  0  0  0  0
   61.9478   34.6544   51.6139 H   0  0  0  0  0  0  0  0  0  0  0  0
   59.7623   31.5752   46.8365 H   0  0  0  0  0  0  0  0  0  0  0  0
   58.3114   30.2677   46.8438 H   0  0  0  0  0  0  0  0  0  0  0  0
  1  2  2  0
  2  3  1  0
  3  4  1  0
  4  5  2  0
  5  6  1  0
  6  7  2  0
  7  8  1  0
  8  9  2  0
  2 10  1  0
 10 11  1  0
 11 12  2  0
 12 13  1  0
 13 14  2  0
 14 15  1  0
 15 16  1  0
 16 17  2  0
 17 18  1  0
 18 19  2  0
 19 20  1  0
 20 21  1  0
 21 22  2  0
 22 23  1  0
 23 24  2  0
 24 25  1  0
 25 26  2  0
 26 27  1  0
 27 28  2  0
 28 29  1  0
 20 30  2  0
 15 31  2  0
  9  4  1  0
 31 11  1  0
 30 16  1  0
 29 21  1  0
 28 23  1  0
  3 32  1  0
  3 33  1  0
  5 34  1  0
  6 35  1  0
  8 36  1  0
  9 37  1  0
 12 38  1  0
 13 39  1  0
 14 40  1  0
 17 41  1  0
 18 42  1  0
 19 43  1  0
 24 44  1  0
 25 45  1  0
 26 46  1  0
 27 47  1  0
 30 48  1  0
 31 49  1  0
M  CHG  2  10  -1  29  -1
M  END
>  <UniqueID>  (19) 
16

>  <SMILES>  (19) 
O=C(Cc1ccncc1)[N-]c1cccc(-c2cccc(-c3nc4ccccc4[n-]3)c2)c1

>  <Energy>  (19) 
99.27224605210236

>  <Genealogy>  (19) 
O=C(Cc1ccncc1)[N-]c1cccc(-c2cccc(-c3nc4ccccc4[n-]3)c2)c1 (protonated)
O=C(Cc1ccncc1)[N-]c1cccc(-c2cccc(-c3nc4ccccc4[n-]3)c2)c1 (3D coordinates assigned)
O=C(Cc1ccncc1)[N-]c1cccc(-c2cccc(-c3nc4ccccc4[n-]3)c2)c1 (optimized conformer: 99.27224605210236 kcal/mol)

>  <smiles>  (19) 
O=C(Cc1ccncc1)Nc1cccc(-c2cccc(-c3nc4ccccc4[nH]3)c2)c1

>  <score_type>  (19) 
oracle

>  <origin>  (19) 
adg

>  <m_score__min__energy>  (19) 
-12.619999999999999

>  <m_primary>  (19) 
energy

$$$$
19:0
     RDKit          3D

 37 39  0  0  0  0  0  0  0  0999 V2000
   61.3284   30.5502   50.9692 H   0  0  0  0  0  0  0  0  0  0  0  0
   61.3770   30.6110   49.8720 C   0  0  0  0  0  0  0  0  0  0  0  0
   62.0490   31.6730   49.2620 C   0  0  0  0  0  0  0  0  0  0  0  0
   62.5376   32.4413   49.8792 H   0  0  0  0  0  0  0  0  0  0  0  0
   62.1010   31.7600   47.8680 C   0  0  0  0  0  0  0  0  0  0  0  0
   62.9280   33.1030   47.1010 Cl  0  0  0  0  0  0  0  0  0  0  0  0
   61.4900   30.7740   47.0820 C   0  0  0  0  0  0  0  0  0  0  0  0
   61.5193   30.8530   45.9852 H   0  0  0  0  0  0  0  0  0  0  0  0
   60.8420   29.6880   47.6850 C   0  0  0  0  0  0  0  0  0  0  0  0
   60.2130   28.7060   46.8420 N   0  0  0  0  0  0  0  0  0  0  0  0
   59.0220   28.7730   46.3240 C   0  0  0  0  0  0  0  0  0  0  0  0
   58.5750   29.9110   45.7280 N   0  0  0  0  0  0  0  0  0  0  0  0
   57.3210   30.0030   45.2120 C   0  0  0  0  0  0  0  0  0  0  0  0
   56.8850   31.3020   44.5960 C   0  0  0  0  0  0  0  0  0  0  0  0
   55.8573   31.5303   44.9148 H   0  0  0  0  0  0  0  0  0  0  0  0
   56.9231   31.2144   43.5002 H   0  0  0  0  0  0  0  0  0  0  0  0
   57.8020   32.4100   45.0370 C   0  0  0  0  0  0  0  0  0  0  0  0
   58.3420   33.3010   44.0970 C   0  0  0  0  0  0  0  0  0  0  0  0
   58.1159   33.1734   43.0281 H   0  0  0  0  0  0  0  0  0  0  0  0
   59.1660   34.3500   44.5140 C   0  0  0  0  0  0  0  0  0  0  0  0
   59.5974   35.0376   43.7717 H   0  0  0  0  0  0  0  0  0  0  0  0
   59.4430   34.5270   45.8730 C   0  0  0  0  0  0  0  0  0  0  0  0
   60.1026   35.3461   46.1955 H   0  0  0  0  0  0  0  0  0  0  0  0
   58.8830   33.6640   46.8270 C   0  0  0  0  0  0  0  0  0  0  0  0
   59.1990   33.8380   48.2830 C   0  0  0  0  0  0  0  0  0  0  0  0
   58.3944   33.3950   48.8883 H   0  0  0  0  0  0  0  0  0  0  0  0
   60.1504   33.3365   48.5142 H   0  0  0  0  0  0  0  0  0  0  0  0
   59.2839   34.9101   48.5142 H   0  0  0  0  0  0  0  0  0  0  0  0
   58.0740   32.5990   46.4030 C   0  0  0  0  0  0  0  0  0  0  0  0
   57.6495   31.9068   47.1451 H   0  0  0  0  0  0  0  0  0  0  0  0
   56.4520   28.9060   45.3260 C   0  0  0  0  0  0  0  0  0  0  0  0
   55.1490   28.9660   44.8400 O   0  0  0  0  0  0  0  0  0  0  0  0
   56.9230   27.7460   45.9450 C   0  0  0  0  0  0  0  0  0  0  0  0
   56.1770   26.7380   46.0610 O   0  0  0  0  0  0  0  0  0  0  0  0
   58.1910   27.7040   46.4320 N   0  0  0  0  0  0  0  0  0  0  0  0
   60.7660   29.6250   49.0910 C   0  0  0  0  0  0  0  0  0  0  0  0
   60.2249   28.7985   49.5749 H   0  0  0  0  0  0  0  0  0  0  0  0
  1  2  1  0
  2  3  2  0
  3  4  1  0
  3  5  1  0
  5  6  1  0
  5  7  2  0
  7  8  1  0
  7  9  1  0
  9 10  1  0
 10 11  2  0
 11 12  1  0
 12 13  1  0
 13 14  1  0
 14 15  1  0
 14 16  1  0
 14 17  1  0
 17 18  2  0
 18 19  1  0
 18 20  1  0
 20 21  1  0
 20 22  2  0
 22 23  1  0
 22 24  1  0
 24 25  1  0
 25 26  1  0
 25 27  1  0
 25 28  1  0
 24 29  2  0
 29 30  1  0
 13 31  2  0
 31 32  1  0
 31 33  1  0
 33 34  2  0
 33 35  1  0
  9 36  2  0
 36 37  1  0
 36  2  1  0
 35 11  1  0
 29 17  1  0
M  CHG  3  12  -1  32  -1  35  -1
M  END
>  <UniqueID>  (20) 
17

>  <SMILES>  (20) 
Cc1cccc(Cc2[n-]/c(=N\c3cccc(Cl)c3)[n-]c(=O)c2[O-])c1

>  <Energy>  (20) 
44.765339869796776

>  <Genealogy>  (20) 
Cc1cccc(Cc2[n-]c(=Nc3cccc(Cl)c3)[n-]c(=O)c2[O-])c1 (protonated)
Cc1cccc(Cc2[n-]/c(=N\c3cccc(Cl)c3)[n-]c(=O)c2[O-])c1 (cis-trans isomerization)
Cc1cccc(Cc2[n-]/c(=N\c3cccc(Cl)c3)[n-]c(=O)c2[O-])c1 (3D coordinates assigned)
Cc1cccc(Cc2[n-]/c(=N\c3cccc(Cl)c3)[n-]c(=O)c2[O-])c1 (optimized conformer: 44.765339869796776 kcal/mol)

>  <smiles>  (20) 
Cc1cccc(Cc2[nH]c(=Nc3cccc(Cl)c3)[nH]c(=O)c2O)c1

>  <score_type>  (20) 
oracle

>  <origin>  (20) 
adg

>  <m_score__min__energy>  (20) 
-13.369999999999999

>  <m_primary>  (20) 
energy

$$$$
20:0
     RDKit          3D

 37 39  0  0  1  0  0  0  0  0999 V2000
   58.0660   33.9140   45.1870 C   0  0  0  0  0  0  0  0  0  0  0  0
   57.3810   32.6180   44.9200 C   0  0  0  0  0  0  0  0  0  0  0  0
   57.3910   32.1720   43.4810 C   0  0  0  0  0  0  0  0  0  0  0  0
   57.1480   30.6950   43.3310 C   0  0  0  0  0  0  0  0  0  0  0  0
   56.3510   30.2460   44.4440 N   0  0  0  0  0  0  0  0  0  0  0  0
   56.7570   29.2460   45.1340 C   0  0  0  0  0  0  0  0  0  0  0  0
   56.0690   28.1100   45.3140 N   0  0  0  0  0  0  0  0  0  0  0  0
   59.6830   27.0680   47.7100 C   0  0  0  0  0  0  0  0  0  0  0  0
   55.8470   26.0030   46.2010 N   0  0  0  0  0  0  0  0  0  0  0  0
   57.7590   27.1840   46.6440 C   0  0  0  0  0  0  0  0  0  0  0  0
   58.5350   26.4130   47.4180 N   0  0  0  0  0  0  0  0  0  0  0  0
   56.5180   27.0720   46.0430 C   0  0  0  0  0  0  0  0  0  0  0  0
   60.5780   26.5510   48.4260 O   0  0  0  0  0  0  0  0  0  0  0  0
   59.6450   28.2620   47.1210 N   0  0  0  0  0  0  0  0  0  0  0  0
   60.6730   29.2760   47.1780 C   0  0  0  0  0  0  0  0  0  0  0  0
   60.3600   30.7080   47.1560 C   0  0  0  0  0  0  0  0  0  0  0  0
   60.6680   30.0920   48.4900 C   0  0  0  0  0  0  0  0  0  0  0  0
   58.4760   28.3630   46.4590 C   0  0  0  0  0  0  0  0  0  0  0  0
   57.9830   29.3800   45.7150 N   0  0  0  0  0  0  0  0  0  0  0  0
   58.1477   34.0686   46.2730 H   0  0  0  0  0  0  0  0  0  0  0  0
   59.0720   33.8954   44.7426 H   0  0  0  0  0  0  0  0  0  0  0  0
   57.4839   34.7348   44.7426 H   0  0  0  0  0  0  0  0  0  0  0  0
   57.8766   31.8410   45.5206 H   0  0  0  0  0  0  0  0  0  0  0  0
   56.3244   32.7708   45.1850 H   0  0  0  0  0  0  0  0  0  0  0  0
   56.6035   32.7154   42.9383 H   0  0  0  0  0  0  0  0  0  0  0  0
   58.3890   32.3885   43.0722 H   0  0  0  0  0  0  0  0  0  0  0  0
   56.6130   30.5010   42.3897 H   0  0  0  0  0  0  0  0  0  0  0  0
   58.1067   30.1559   43.3130 H   0  0  0  0  0  0  0  0  0  0  0  0
   55.1510   28.0200   44.8730 H   0  0  0  0  0  0  0  0  0  0  0  0
   55.5310   25.6790   47.1330 H   0  0  0  0  0  0  0  0  0  0  0  0
   58.2710   25.4420   47.7410 H   0  0  0  0  0  0  0  0  0  0  0  0
   61.3712   28.6717   46.5802 H   0  0  0  0  0  0  0  0  0  0  0  0
   61.0750   31.4125   46.7060 H   0  0  0  0  0  0  0  0  0  0  0  0
   59.5169   31.2971   46.7659 H   0  0  0  0  0  0  0  0  0  0  0  0
   61.6118   30.3232   49.0055 H   0  0  0  0  0  0  0  0  0  0  0  0
   60.1639   30.0210   49.4651 H   0  0  0  0  0  0  0  0  0  0  0  0
   58.5390   30.2590   45.5890 H   0  0  0  0  0  0  0  0  0  0  0  0
  1  2  1  0
  2  3  1  0
  3  4  1  0
  4  5  1  0
  5  6  2  0
  6  7  1  0
  7  8  1  0
  8  9  2  3
  8 10  1  0
 10 11  1  0
 11 12  1  0
 12 13  2  0
 12 14  1  0
 14 15  1  0
 15 16  1  0
 16 17  1  0
 14 18  1  0
 18 19  1  0
 19  6  1  0
 18 10  2  0
 17 15  1  0
  1 20  1  0
  1 21  1  0
  1 22  1  0
  2 23  1  0
  2 24  1  0
  3 25  1  0
  3 26  1  0
  4 27  1  0
  4 28  1  0
  7 29  1  0
  9 30  1  0
 11 31  1  0
 15 32  1  0
 16 33  1  0
 16 34  1  0
 17 35  1  0
 17 36  1  0
 19 37  1  0
M  END
>  <smiles>  (21) 
CCCCN=c1[nH]c(=N)c2[nH]c(=O)n(C3CC3)c2[nH]1

>  <score_type>  (21) 
oracle

>  <origin>  (21) 
adg

>  <m_score__min__energy>  (21) 
-6.1399999999999997

>  <m_primary>  (21) 
energy

$$$$
21:0
     RDKit          3D

 27 29  0  0  0  0  0  0  0  0999 V2000
   55.5140   29.0160   44.8700 O   0  0  0  0  0  0  0  0  0  0  0  0
   56.7050   29.2420   45.2160 C   0  0  0  0  0  0  0  0  0  0  0  0
   57.1320   30.5000   45.2710 O   0  0  0  0  0  0  0  0  0  0  0  0
   58.3700   30.8510   45.6230 C   0  0  0  0  0  0  0  0  0  0  0  0
   58.7120   32.3060   45.6400 C   0  0  0  0  0  0  0  0  0  0  0  0
   57.9230   33.2040   44.8880 C   0  0  0  0  0  0  0  0  0  0  0  0
   58.2060   34.5720   44.8750 C   0  0  0  0  0  0  0  0  0  0  0  0
   59.2800   35.0720   45.6110 C   0  0  0  0  0  0  0  0  0  0  0  0
   60.0730   34.2040   46.3610 C   0  0  0  0  0  0  0  0  0  0  0  0
   59.7970   32.8330   46.3790 C   0  0  0  0  0  0  0  0  0  0  0  0
   59.2950   29.8410   45.9610 C   0  0  0  0  0  0  0  0  0  0  0  0
   58.8930   28.5020   45.9190 C   0  0  0  0  0  0  0  0  0  0  0  0
   59.7880   27.4720   46.2500 C   0  0  0  0  0  0  0  0  0  0  0  0
   59.3720   26.1390   46.2030 C   0  0  0  0  0  0  0  0  0  0  0  0
   58.0640   25.8240   45.8270 C   0  0  0  0  0  0  0  0  0  0  0  0
   57.1640   26.8410   45.4960 C   0  0  0  0  0  0  0  0  0  0  0  0
   57.5720   28.1870   45.5390 C   0  0  0  0  0  0  0  0  0  0  0  0
   57.0733   32.8207   44.3040 H   0  0  0  0  0  0  0  0  0  0  0  0
   57.5804   35.2563   44.2830 H   0  0  0  0  0  0  0  0  0  0  0  0
   59.5012   36.1495   45.5999 H   0  0  0  0  0  0  0  0  0  0  0  0
   60.9197   34.5995   46.9412 H   0  0  0  0  0  0  0  0  0  0  0  0
   60.4299   32.1579   46.9737 H   0  0  0  0  0  0  0  0  0  0  0  0
   60.3220   30.1038   46.2546 H   0  0  0  0  0  0  0  0  0  0  0  0
   60.8189   27.7151   46.5470 H   0  0  0  0  0  0  0  0  0  0  0  0
   60.0765   25.3352   46.4628 H   0  0  0  0  0  0  0  0  0  0  0  0
   57.7415   24.7730   45.7913 H   0  0  0  0  0  0  0  0  0  0  0  0
   56.1347   26.5886   45.2013 H   0  0  0  0  0  0  0  0  0  0  0  0
  1  2  2  0
  2  3  1  0
  3  4  1  0
  4  5  1  0
  5  6  2  0
  6  7  1  0
  7  8  2  0
  8  9  1  0
  9 10  2  0
  4 11  2  0
 11 12  1  0
 12 13  2  0
 13 14  1  0
 14 15  2  0
 15 16  1  0
 16 17  2  0
 17  2  1  0
 10  5  1  0
 17 12  1  0
  6 18  1  0
  7 19  1  0
  8 20  1  0
  9 21  1  0
 10 22  1  0
 11 23  1  0
 13 24  1  0
 14 25  1  0
 15 26  1  0
 16 27  1  0
M  END
>  <UniqueID>  (22) 
18

>  <SMILES>  (22) 
O=c1oc(-c2ccccc2)cc2ccccc12

>  <Energy>  (22) 
40.03682167035325

>  <Genealogy>  (22) 
O=c1oc(-c2ccccc2)cc2ccccc12 (3D coordinates assigned)
O=c1oc(-c2ccccc2)cc2ccccc12 (optimized conformer: 40.03682167035325 kcal/mol)

>  <smiles>  (22) 
O=c1oc(-c2ccccc2)cc2ccccc12

>  <score_type>  (22) 
oracle

>  <origin>  (22) 
adg

>  <m_score__min__energy>  (22) 
-7.2300000000000004

>  <m_primary>  (22) 
energy

$$$$
22:0
     RDKit          3D

 56 59  0  0  0  0  0  0  0  0999 V2000
   59.6430   35.7020   45.7440 C   0  0  0  0  0  0  0  0  0  0  0  0
   58.8880   34.4200   45.5380 C   0  0  0  0  0  0  0  0  0  0  0  0
   58.8570   33.8200   44.2710 C   0  0  0  0  0  0  0  0  0  0  0  0
   58.1240   32.6460   44.0650 C   0  0  0  0  0  0  0  0  0  0  0  0
   57.4170   32.0550   45.1190 C   0  0  0  0  0  0  0  0  0  0  0  0
   56.6590   30.8640   44.8610 N   0  0  0  0  0  0  0  0  0  0  0  0
   57.1100   29.7150   44.1290 C   0  0  0  0  0  0  0  0  0  0  0  0
   56.5390   29.3890   43.0510 O   0  0  0  0  0  0  0  0  0  0  0  0
   58.2080   28.9250   44.6430 N   0  0  0  0  0  0  0  0  0  0  0  0
   59.5120   29.6280   44.4870 C   0  0  0  0  0  0  0  0  0  0  0  0
   60.3250   29.6910   45.7860 C   0  0  0  0  0  0  0  0  0  0  0  0
   59.5110   30.2760   46.8730 N   0  0  0  0  0  0  0  0  0  0  0  0
   60.3130   30.5430   48.1070 C   0  0  0  0  0  0  0  0  0  0  0  0
   59.4770   30.8130   49.3600 C   0  0  0  0  0  0  0  0  0  0  0  0
   58.9040   32.0750   49.6320 C   0  0  0  0  0  0  0  0  0  0  0  0
   58.1420   32.2760   50.7880 C   0  0  0  0  0  0  0  0  0  0  0  0
   57.9450   31.2300   51.6890 C   0  0  0  0  0  0  0  0  0  0  0  0
   58.5110   29.9790   51.4390 C   0  0  0  0  0  0  0  0  0  0  0  0
   59.2710   29.7700   50.2850 C   0  0  0  0  0  0  0  0  0  0  0  0
   61.4220   31.5670   47.8620 C   0  0  0  0  0  0  0  0  0  0  0  0
   62.6820   31.4860   48.4930 C   0  0  0  0  0  0  0  0  0  0  0  0
   63.6700   32.4410   48.2400 C   0  0  0  0  0  0  0  0  0  0  0  0
   63.4240   33.4880   47.3510 C   0  0  0  0  0  0  0  0  0  0  0  0
   62.1920   33.5750   46.7040 C   0  0  0  0  0  0  0  0  0  0  0  0
   61.2010   32.6210   46.9510 C   0  0  0  0  0  0  0  0  0  0  0  0
   58.2000   29.5960   47.0620 C   0  0  0  0  0  0  0  0  0  0  0  0
   57.9220   28.4880   46.0290 C   0  0  0  0  0  0  0  0  0  0  0  0
   57.4150   32.6790   46.3820 C   0  0  0  0  0  0  0  0  0  0  0  0
   58.1470   33.8520   46.5880 C   0  0  0  0  0  0  0  0  0  0  0  0
   59.7551   35.8924   46.8216 H   0  0  0  0  0  0  0  0  0  0  0  0
   60.6373   35.6205   45.2806 H   0  0  0  0  0  0  0  0  0  0  0  0
   59.0895   36.5320   45.2806 H   0  0  0  0  0  0  0  0  0  0  0  0
   59.4109   34.2739   43.4360 H   0  0  0  0  0  0  0  0  0  0  0  0
   58.1031   32.1838   43.0670 H   0  0  0  0  0  0  0  0  0  0  0  0
   58.2520   28.0510   44.0650 H   0  0  0  0  0  0  0  0  0  0  0  0
   60.1062   29.0977   43.7283 H   0  0  0  0  0  0  0  0  0  0  0  0
   59.2909   30.6638   44.1898 H   0  0  0  0  0  0  0  0  0  0  0  0
   60.6336   28.6743   46.0706 H   0  0  0  0  0  0  0  0  0  0  0  0
   61.2112   30.3221   45.6232 H   0  0  0  0  0  0  0  0  0  0  0  0
   60.8200   29.5958   48.3431 H   0  0  0  0  0  0  0  0  0  0  0  0
   59.0582   32.9069   48.9290 H   0  0  0  0  0  0  0  0  0  0  0  0
   57.6969   33.2621   50.9868 H   0  0  0  0  0  0  0  0  0  0  0  0
   57.3439   31.3908   52.5961 H   0  0  0  0  0  0  0  0  0  0  0  0
   58.3585   29.1554   52.1521 H   0  0  0  0  0  0  0  0  0  0  0  0
   59.7132   28.7806   50.0966 H   0  0  0  0  0  0  0  0  0  0  0  0
   62.8884   30.6619   49.1917 H   0  0  0  0  0  0  0  0  0  0  0  0
   64.6452   32.3672   48.7434 H   0  0  0  0  0  0  0  0  0  0  0  0
   64.2007   34.2434   47.1610 H   0  0  0  0  0  0  0  0  0  0  0  0
   61.9996   34.3961   45.9978 H   0  0  0  0  0  0  0  0  0  0  0  0
   60.2359   32.6930   46.4281 H   0  0  0  0  0  0  0  0  0  0  0  0
   58.1835   29.1467   48.0659 H   0  0  0  0  0  0  0  0  0  0  0  0
   57.4199   30.3603   46.9310 H   0  0  0  0  0  0  0  0  0  0  0  0
   58.5549   27.6194   46.2634 H   0  0  0  0  0  0  0  0  0  0  0  0
   56.8531   28.2348   46.0875 H   0  0  0  0  0  0  0  0  0  0  0  0
   56.8357   32.2419   47.2086 H   0  0  0  0  0  0  0  0  0  0  0  0
   58.1429   34.3329   47.5773 H   0  0  0  0  0  0  0  0  0  0  0  0
  1  2  1  0
  2  3  2  0
  3  4  1  0
  4  5  2  0
  5  6  1  0
  6  7  1  0
  7  8  2  0
  7  9  1  0
  9 10  1  0
 10 11  1  0
 11 12  1  0
 12 13  1  0
 13 14  1  0
 14 15  2  0
 15 16  1  0
 16 17  2  0
 17 18  1  0
 18 19  2  0
 13 20  1  0
 20 21  2  0
 21 22  1  0
 22 23  2  0
 23 24  1  0
 24 25  2  0
 12 26  1  0
 26 27  1  0
  5 28  1  0
 28 29  2  0
 29  2  1  0
 27  9  1  0
 19 14  1  0
 25 20  1  0
  1 30  1  0
  1 31  1  0
  1 32  1  0
  3 33  1  0
  4 34  1  0
  9 35  1  0
 10 36  1  0
 10 37  1  0
 11 38  1  0
 11 39  1  0
 13 40  1  0
 15 41  1  0
 16 42  1  0
 17 43  1  0
 18 44  1  0
 19 45  1  0
 21 46  1  0
 22 47  1  0
 23 48  1  0
 24 49  1  0
 25 50  1  0
 26 51  1  0
 26 52  1  0
 27 53  1  0
 27 54  1  0
 28 55  1  0
 29 56  1  0
M  CHG  2   6  -1   9   1
M  END
>  <UniqueID>  (23) 
19

>  <SMILES>  (23) 
Cc1ccc([N-]C(=O)[NH+]2CCN(C(c3ccccc3)c3ccccc3)CC2)cc1

>  <Energy>  (23) 
90.38669396147719

>  <Genealogy>  (23) 
Cc1ccc([N-]C(=O)[NH+]2CCN(C(c3ccccc3)c3ccccc3)CC2)cc1 (protonated)
Cc1ccc([N-]C(=O)[NH+]2CCN(C(c3ccccc3)c3ccccc3)CC2)cc1 (3D coordinates assigned)
Cc1ccc([N-]C(=O)[NH+]2CCN(C(c3ccccc3)c3ccccc3)CC2)cc1 (nonaromatic ring conformer: 90.38669396147719 kcal/mol)

>  <smiles>  (23) 
Cc1ccc(NC(=O)N2CCN(C(c3ccccc3)c3ccccc3)CC2)cc1

>  <score_type>  (23) 
oracle

>  <origin>  (23) 
adg

>  <m_score__min__energy>  (23) 
-8.8100000000000005

>  <m_primary>  (23) 
energy

$$$$
23:0
     RDKit          3D

 27 28  0  0  0  0  0  0  0  0999 V2000
   57.3500   26.4660   46.0290 C   0  0  0  0  0  0  0  0  0  0  0  0
   57.4650   27.8250   45.4130 C   0  0  0  0  0  0  0  0  0  0  0  0
   58.7130   28.3450   45.0730 C   0  0  0  0  0  0  0  0  0  0  0  0
   58.7760   29.6200   44.5160 C   0  0  0  0  0  0  0  0  0  0  0  0
   57.6350   30.3450   44.3060 N   0  0  0  0  0  0  0  0  0  0  0  0
   57.7400   31.7020   43.7440 C   0  0  0  0  0  0  0  0  0  0  0  0
   58.1280   32.6820   44.8180 C   0  0  0  0  0  0  0  0  0  0  0  0
   57.7820   32.4430   46.1600 C   0  0  0  0  0  0  0  0  0  0  0  0
   58.1730   33.3410   47.1590 C   0  0  0  0  0  0  0  0  0  0  0  0
   58.9160   34.4770   46.8280 C   0  0  0  0  0  0  0  0  0  0  0  0
   59.2950   35.3450   47.7980 F   0  0  0  0  0  0  0  0  0  0  0  0
   59.2710   34.7180   45.4970 C   0  0  0  0  0  0  0  0  0  0  0  0
   58.8820   33.8220   44.4960 C   0  0  0  0  0  0  0  0  0  0  0  0
   56.4210   29.8150   44.6630 C   0  0  0  0  0  0  0  0  0  0  0  0
   55.3570   30.4700   44.4950 O   0  0  0  0  0  0  0  0  0  0  0  0
   56.3510   28.5720   45.2070 N   0  0  0  0  0  0  0  0  0  0  0  0
   57.3578   26.5584   47.1251 H   0  0  0  0  0  0  0  0  0  0  0  0
   56.4089   25.9961   45.7073 H   0  0  0  0  0  0  0  0  0  0  0  0
   58.1988   25.8446   45.7073 H   0  0  0  0  0  0  0  0  0  0  0  0
   59.6294   27.7602   45.2412 H   0  0  0  0  0  0  0  0  0  0  0  0
   59.7518   30.0478   44.2425 H   0  0  0  0  0  0  0  0  0  0  0  0
   58.5040   31.7092   42.9527 H   0  0  0  0  0  0  0  0  0  0  0  0
   56.7646   31.9940   43.3278 H   0  0  0  0  0  0  0  0  0  0  0  0
   57.2019   31.5468   46.4251 H   0  0  0  0  0  0  0  0  0  0  0  0
   57.8951   33.1524   48.2065 H   0  0  0  0  0  0  0  0  0  0  0  0
   59.8563   35.6124   45.2373 H   0  0  0  0  0  0  0  0  0  0  0  0
   59.1682   34.0113   43.4509 H   0  0  0  0  0  0  0  0  0  0  0  0
  1  2  1  0
  2  3  1  0
  3  4  2  0
  4  5  1  0
  5  6  1  0
  6  7  1  0
  7  8  2  0
  8  9  1  0
  9 10  2  0
 10 11  1  0
 10 12  1  0
 12 13  2  0
  5 14  1  0
 14 15  2  0
 14 16  1  0
 16  2  2  0
 13  7  1  0
  1 17  1  0
  1 18  1  0
  1 19  1  0
  3 20  1  0
  4 21  1  0
  6 22  1  0
  6 23  1  0
  8 24  1  0
  9 25  1  0
 12 26  1  0
 13 27  1  0
M  END
>  <UniqueID>  (24) 
20

>  <SMILES>  (24) 
Cc1ccn(Cc2ccc(F)cc2)c(=O)n1

>  <Energy>  (24) 
27.884042086391766

>  <Genealogy>  (24) 
Cc1ccn(Cc2ccc(F)cc2)c(=O)n1 (3D coordinates assigned)
Cc1ccn(Cc2ccc(F)cc2)c(=O)n1 (optimized conformer: 27.884042086391766 kcal/mol)

>  <smiles>  (24) 
Cc1ccn(Cc2ccc(F)cc2)c(=O)n1

>  <score_type>  (24) 
oracle

>  <origin>  (24) 
adg

>  <m_score__min__energy>  (24) 
-6.2699999999999996

>  <m_primary>  (24) 
energy

$$$$
24:0
     RDKit          3D

 64 67  0  0  0  0  0  0  0  0999 V2000
   59.6170   34.8090   47.8200 C   0  0  0  0  0  0  0  0  0  0  0  0
   59.4550   34.4460   46.4610 O   0  0  0  0  0  0  0  0  0  0  0  0
   58.7510   33.3200   46.0120 C   0  0  0  0  0  0  0  0  0  0  0  0
   57.4800   33.4440   45.4060 C   0  0  0  0  0  0  0  0  0  0  0  0
   56.8240   32.3210   44.9150 C   0  0  0  0  0  0  0  0  0  0  0  0
   57.4130   31.0510   45.0000 C   0  0  0  0  0  0  0  0  0  0  0  0
   56.7070   29.8760   44.4400 C   0  0  0  0  0  0  0  0  0  0  0  0
   57.3310   29.0260   43.4780 N   0  0  0  0  0  0  0  0  0  0  0  0
   55.5230   29.6200   44.7950 O   0  0  0  0  0  0  0  0  0  0  0  0
   58.6670   30.9210   45.6200 C   0  0  0  0  0  0  0  0  0  0  0  0
   59.3350   32.0420   46.1420 C   0  0  0  0  0  0  0  0  0  0  0  0
   60.6730   31.8850   46.7370 C   0  0  0  0  0  0  0  0  0  0  0  0
   61.6260   32.8190   46.4910 N   0  0  0  0  0  0  0  0  0  0  0  0
   62.5460   32.5840   47.4390 C   0  0  0  0  0  0  0  0  0  0  0  0
   62.1170   31.5760   48.2850 C   0  0  0  0  0  0  0  0  0  0  0  0
   60.9890   31.0120   47.7570 N   0  0  0  0  0  0  0  0  0  0  0  0
   60.3410   29.7010   48.0570 C   0  0  0  0  0  0  0  0  0  0  0  0
   58.8670   29.8730   48.5170 C   0  0  0  0  0  0  0  0  0  0  0  0
   60.3070   28.7320   46.8480 C   0  0  0  0  0  0  0  0  0  0  0  0
   62.8780   31.2880   49.5730 C   0  0  2  0  0  0  0  0  0  0  0  0
   62.0440   30.7890   50.7470 C   0  0  0  0  0  0  0  0  0  0  0  0
   62.5140   29.8060   51.6340 C   0  0  0  0  0  0  0  0  0  0  0  0
   61.7630   29.4650   52.7600 C   0  0  0  0  0  0  0  0  0  0  0  0
   60.5130   30.0740   52.9950 C   0  0  0  0  0  0  0  0  0  0  0  0
   59.6990   29.7240   54.2140 C   0  0  0  0  0  0  0  0  0  0  0  0
   59.0480   30.8470   54.6920 F   0  0  0  0  0  0  0  0  0  0  0  0
   58.7660   28.7630   53.8740 F   0  0  0  0  0  0  0  0  0  0  0  0
   60.5120   29.2370   55.2240 F   0  0  0  0  0  0  0  0  0  0  0  0
   59.9930   30.9590   52.0350 C   0  0  0  0  0  0  0  0  0  0  0  0
   60.7470   31.3020   50.9170 C   0  0  0  0  0  0  0  0  0  0  0  0
   63.7260   32.4640   49.9870 N   0  0  0  0  0  0  0  0  0  0  0  0
   62.9080   33.5860   50.5360 C   0  0  0  0  0  0  0  0  0  0  0  0
   63.0650   33.7680   52.0570 C   0  0  0  0  0  0  0  0  0  0  0  0
   63.7380   34.9400   52.3480 F   0  0  0  0  0  0  0  0  0  0  0  0
   61.8040   33.8340   52.6280 F   0  0  0  0  0  0  0  0  0  0  0  0
   63.7400   32.6900   52.5930 F   0  0  0  0  0  0  0  0  0  0  0  0
   64.5750   32.8800   48.8400 C   0  0  0  0  0  0  0  0  0  0  0  0
   63.7480   33.4300   47.6580 C   0  0  0  0  0  0  0  0  0  0  0  0
   59.2533   33.9940   48.4631 H   0  0  0  0  0  0  0  0  0  0  0  0
   60.6820   34.9915   48.0263 H   0  0  0  0  0  0  0  0  0  0  0  0
   59.0416   35.7235   48.0263 H   0  0  0  0  0  0  0  0  0  0  0  0
   57.0077   34.4339   45.3225 H   0  0  0  0  0  0  0  0  0  0  0  0
   55.8311   32.4298   44.4543 H   0  0  0  0  0  0  0  0  0  0  0  0
   56.8650   28.1400   43.1830 H   0  0  0  0  0  0  0  0  0  0  0  0
   58.2100   29.3060   42.9860 H   0  0  0  0  0  0  0  0  0  0  0  0
   59.1327   29.9275   45.6980 H   0  0  0  0  0  0  0  0  0  0  0  0
   60.9669   29.2769   48.8560 H   0  0  0  0  0  0  0  0  0  0  0  0
   58.8241   29.8780   49.6162 H   0  0  0  0  0  0  0  0  0  0  0  0
   58.4707   30.8235   48.1303 H   0  0  0  0  0  0  0  0  0  0  0  0
   58.2625   29.0393   48.1303 H   0  0  0  0  0  0  0  0  0  0  0  0
   60.2706   27.6942   47.2108 H   0  0  0  0  0  0  0  0  0  0  0  0
   59.4155   28.9385   46.2375 H   0  0  0  0  0  0  0  0  0  0  0  0
   61.2107   28.8755   46.2375 H   0  0  0  0  0  0  0  0  0  0  0  0
   63.5212   30.4359   49.3081 H   0  0  0  0  0  0  0  0  0  0  0  0
   63.4741   29.3050   51.4410 H   0  0  0  0  0  0  0  0  0  0  0  0
   62.1485   28.7168   53.4683 H   0  0  0  0  0  0  0  0  0  0  0  0
   58.9863   31.3820   52.1679 H   0  0  0  0  0  0  0  0  0  0  0  0
   60.3246   31.9798   50.1606 H   0  0  0  0  0  0  0  0  0  0  0  0
   63.2160   34.5179   50.0394 H   0  0  0  0  0  0  0  0  0  0  0  0
   61.8524   33.3431   50.3446 H   0  0  0  0  0  0  0  0  0  0  0  0
   65.2676   33.6639   49.1804 H   0  0  0  0  0  0  0  0  0  0  0  0
   65.1136   31.9894   48.4839 H   0  0  0  0  0  0  0  0  0  0  0  0
   63.4324   34.4596   47.8825 H   0  0  0  0  0  0  0  0  0  0  0  0
   64.3672   33.4185   46.7489 H   0  0  0  0  0  0  0  0  0  0  0  0
  1  2  1  0
  2  3  1  0
  3  4  2  0
  4  5  1  0
  5  6  2  0
  6  7  1  0
  7  8  1  0
  7  9  2  0
  6 10  1  0
 10 11  2  0
 11 12  1  0
 12 13  2  0
 13 14  1  0
 14 15  2  0
 15 16  1  0
 16 17  1  0
 17 18  1  0
 17 19  1  0
 15 20  1  0
 20 21  1  0
 21 22  2  0
 22 23  1  0
 23 24  2  0
 24 25  1  0
 25 26  1  0
 25 27  1  0
 25 28  1  0
 24 29  1  0
 29 30  2  0
 20 31  1  0
 31 32  1  0
 32 33  1  0
 33 34  1  0
 33 35  1  0
 33 36  1  0
 31 37  1  0
 37 38  1  0
 11  3  1  0
 16 12  1  0
 30 21  1  0
 38 14  1  0
  1 39  1  0
  1 40  1  0
  1 41  1  0
  4 42  1  0
  5 43  1  0
  8 44  1  0
  8 45  1  0
 10 46  1  0
 17 47  1  0
 18 48  1  0
 18 49  1  0
 18 50  1  0
 19 51  1  0
 19 52  1  0
 19 53  1  0
 20 54  1  6
 22 55  1  0
 23 56  1  0
 29 57  1  0
 30 58  1  0
 32 59  1  0
 32 60  1  0
 37 61  1  0
 37 62  1  0
 38 63  1  0
 38 64  1  0
M  END
>  <UniqueID>  (25) 
21

>  <SMILES>  (25) 
COc1ccc(C(N)=O)cc1-c1nc2c(n1C(C)C)[C@H](c1ccc(C(F)(F)F)cc1)N(CC(F)(F)F)CC2

>  <Energy>  (25) 
135.6586362024693

>  <Genealogy>  (25) 
COc1ccc(C(N)=O)cc1-c1nc2c(n1C(C)C)[C@H](c1ccc(C(F)(F)F)cc1)N(CC(F)(F)F)CC2 (chirality)
COc1ccc(C(N)=O)cc1-c1nc2c(n1C(C)C)[C@H](c1ccc(C(F)(F)F)cc1)N(CC(F)(F)F)CC2 (3D coordinates assigned)
COc1ccc(C(N)=O)cc1-c1nc2c(n1C(C)C)[C@H](c1ccc(C(F)(F)F)cc1)N(CC(F)(F)F)CC2 (nonaromatic ring conformer: 135.6586362024693 kcal/mol)

>  <smiles>  (25) 
COc1ccc(C(N)=O)cc1-c1nc2c(n1C(C)C)C(c1ccc(C(F)(F)F)cc1)N(CC(F)(F)F)CC2

>  <score_type>  (25) 
oracle

>  <origin>  (25) 
adg

>  <m_score__min__energy>  (25) 
-7.7199999999999998

>  <m_primary>  (25) 
energy

$$$$
25:0
     RDKit          3D

 46 49  0  0  0  0  0  0  0  0999 V2000
   64.3470   32.3340   49.6970 C   0  0  0  0  0  0  0  0  0  0  0  0
   63.4430   32.9770   48.6890 C   0  0  0  0  0  0  0  0  0  0  0  0
   63.8130   33.0950   47.3630 C   0  0  0  0  0  0  0  0  0  0  0  0
   62.9860   33.6890   46.4160 C   0  0  0  0  0  0  0  0  0  0  0  0
   61.7580   34.1690   46.8350 C   0  0  0  0  0  0  0  0  0  0  0  0
   61.3760   34.0560   48.1670 C   0  0  0  0  0  0  0  0  0  0  0  0
   60.0480   34.5910   48.5460 C   0  0  0  0  0  0  0  0  0  0  0  0
   59.2990   35.0400   47.4310 O   0  0  0  0  0  0  0  0  0  0  0  0
   58.8240   34.0210   46.5910 C   0  0  0  0  0  0  0  0  0  0  0  0
   58.8620   34.1650   45.2160 C   0  0  0  0  0  0  0  0  0  0  0  0
   58.4030   33.1840   44.3520 C   0  0  0  0  0  0  0  0  0  0  0  0
   57.8860   32.0140   44.8800 C   0  0  0  0  0  0  0  0  0  0  0  0
   57.4000   30.9710   43.9730 C   0  0  0  0  0  0  0  0  0  0  0  0
   56.6560   31.1290   42.8480 N   0  0  0  0  0  0  0  0  0  0  0  0
   56.4090   29.9650   42.2950 N   0  0  0  0  0  0  0  0  0  0  0  0
   56.9650   28.9770   43.0080 C   0  0  0  0  0  0  0  0  0  0  0  0
   57.5930   29.5980   44.0700 C   0  0  0  0  0  0  0  0  0  0  0  0
   58.3550   28.9860   45.1560 C   0  0  0  0  0  0  0  0  0  0  0  0
   59.7200   29.2170   45.2060 C   0  0  0  0  0  0  0  0  0  0  0  0
   60.5190   28.6840   46.1890 C   0  0  0  0  0  0  0  0  0  0  0  0
   59.9530   27.8920   47.1650 C   0  0  0  0  0  0  0  0  0  0  0  0
   60.7360   27.3530   48.1550 F   0  0  0  0  0  0  0  0  0  0  0  0
   58.5930   27.6690   47.1070 C   0  0  0  0  0  0  0  0  0  0  0  0
   57.7780   28.1960   46.1280 C   0  0  0  0  0  0  0  0  0  0  0  0
   57.8370   31.8430   46.2670 C   0  0  0  0  0  0  0  0  0  0  0  0
   58.3060   32.8490   47.1150 C   0  0  0  0  0  0  0  0  0  0  0  0
   62.2140   33.4640   49.0820 C   0  0  0  0  0  0  0  0  0  0  0  0
   63.9998   32.5810   50.7111 H   0  0  0  0  0  0  0  0  0  0  0  0
   64.3317   31.2427   49.5598 H   0  0  0  0  0  0  0  0  0  0  0  0
   65.3729   32.7065   49.5598 H   0  0  0  0  0  0  0  0  0  0  0  0
   64.7924   32.7069   47.0466 H   0  0  0  0  0  0  0  0  0  0  0  0
   63.2989   33.7747   45.3649 H   0  0  0  0  0  0  0  0  0  0  0  0
   61.0799   34.6428   46.1100 H   0  0  0  0  0  0  0  0  0  0  0  0
   59.4809   33.7968   49.0536 H   0  0  0  0  0  0  0  0  0  0  0  0
   60.2150   35.4570   49.2034 H   0  0  0  0  0  0  0  0  0  0  0  0
   59.2722   35.0936   44.7923 H   0  0  0  0  0  0  0  0  0  0  0  0
   58.4488   33.3329   43.2631 H   0  0  0  0  0  0  0  0  0  0  0  0
   55.8610   29.8000   41.4240 H   0  0  0  0  0  0  0  0  0  0  0  0
   56.9291   27.8988   42.7932 H   0  0  0  0  0  0  0  0  0  0  0  0
   60.1803   29.8489   44.4321 H   0  0  0  0  0  0  0  0  0  0  0  0
   61.6000   28.8875   46.1969 H   0  0  0  0  0  0  0  0  0  0  0  0
   58.1348   27.0376   47.8825 H   0  0  0  0  0  0  0  0  0  0  0  0
   56.6971   27.9920   46.1223 H   0  0  0  0  0  0  0  0  0  0  0  0
   57.4282   30.9141   46.6912 H   0  0  0  0  0  0  0  0  0  0  0  0
   58.2635   32.7092   48.2053 H   0  0  0  0  0  0  0  0  0  0  0  0
   61.9025   33.3783   50.1335 H   0  0  0  0  0  0  0  0  0  0  0  0
  1  2  1  0
  2  3  2  0
  3  4  1  0
  4  5  2  0
  5  6  1  0
  6  7  1  0
  7  8  1  0
  8  9  1  0
  9 10  2  0
 10 11  1  0
 11 12  2  0
 12 13  1  0
 13 14  2  0
 14 15  1  0
 15 16  1  0
 16 17  2  0
 17 18  1  0
 18 19  2  0
 19 20  1  0
 20 21  2  0
 21 22  1  0
 21 23  1  0
 23 24  2  0
 12 25  1  0
 25 26  2  0
  6 27  2  0
 27  2  1  0
 26  9  1  0
 17 13  1  0
 24 18  1  0
  1 28  1  0
  1 29  1  0
  1 30  1  0
  3 31  1  0
  4 32  1  0
  5 33  1  0
  7 34  1  0
  7 35  1  0
 10 36  1  0
 11 37  1  0
 15 38  1  0
 16 39  1  0
 19 40  1  0
 20 41  1  0
 23 42  1  0
 24 43  1  0
 25 44  1  0
 26 45  1  0
 27 46  1  0
M  END
>  <smiles>  (26) 
Cc1cccc(COc2ccc(-c3n[nH]cc3-c3ccc(F)cc3)cc2)c1

>  <score_type>  (26) 
oracle

>  <origin>  (26) 
adg

>  <m_score__min__energy>  (26) 
-8.9900000000000002

>  <m_primary>  (26) 
energy

$$$$
26:0
     RDKit          3D

 39 40  0  0  0  0  0  0  0  0999 V2000
   57.0020   33.6250   45.2930 C   0  0  0  0  0  0  0  0  0  0  0  0
   57.0760   32.2440   45.6270 O   0  0  0  0  0  0  0  0  0  0  0  0
   58.2600   31.5810   45.9820 C   0  0  0  0  0  0  0  0  0  0  0  0
   59.4250   32.2610   46.4090 C   0  0  0  0  0  0  0  0  0  0  0  0
   60.5980   31.5450   46.7450 C   0  0  0  0  0  0  0  0  0  0  0  0
   62.0470   32.4130   47.2530 S   0  0  0  0  0  0  0  0  0  0  0  0
   63.2450   31.5170   47.0890 O   0  0  0  0  0  0  0  0  0  0  0  0
   62.2410   33.6130   46.3680 O   0  0  0  0  0  0  0  0  0  0  0  0
   61.9280   32.9290   48.9180 N   0  0  0  0  0  0  0  0  0  0  0  0
   60.8520   33.9180   49.0700 C   0  0  0  0  0  0  0  0  0  0  0  0
   63.2110   33.4860   49.3710 C   0  0  0  0  0  0  0  0  0  0  0  0
   60.6160   30.1390   46.6590 C   0  0  0  0  0  0  0  0  0  0  0  0
   59.4570   29.4910   46.2440 C   0  0  0  0  0  0  0  0  0  0  0  0
   58.3150   30.1880   45.9160 C   0  0  0  0  0  0  0  0  0  0  0  0
   57.3090   29.2110   45.5030 C   0  0  0  0  0  0  0  0  0  0  0  0
   56.1480   29.4780   45.0950 O   0  0  0  0  0  0  0  0  0  0  0  0
   57.8410   27.8870   45.6020 N   0  0  0  0  0  0  0  0  0  0  0  0
   57.2720   26.6720   45.0250 C   0  0  0  0  0  0  0  0  0  0  0  0
   56.2820   26.0170   45.9910 C   0  0  0  0  0  0  0  0  0  0  0  0
   55.0640   26.7120   45.9960 O   0  0  0  0  0  0  0  0  0  0  0  0
   59.1870   28.0720   46.0420 C   0  0  0  0  0  0  0  0  0  0  0  0
   60.0140   27.1360   46.2060 O   0  0  0  0  0  0  0  0  0  0  0  0
   56.9699   34.2240   46.2150 H   0  0  0  0  0  0  0  0  0  0  0  0
   57.8863   33.9074   44.7029 H   0  0  0  0  0  0  0  0  0  0  0  0
   56.0926   33.8113   44.7029 H   0  0  0  0  0  0  0  0  0  0  0  0
   59.4186   33.3587   46.4805 H   0  0  0  0  0  0  0  0  0  0  0  0
   61.7000   32.0920   49.5020 H   0  0  0  0  0  0  0  0  0  0  0  0
   60.6625   34.0922   50.1395 H   0  0  0  0  0  0  0  0  0  0  0  0
   61.1518   34.8624   48.5922 H   0  0  0  0  0  0  0  0  0  0  0  0
   59.9362   33.5398   48.5922 H   0  0  0  0  0  0  0  0  0  0  0  0
   63.2379   33.4977   50.4706 H   0  0  0  0  0  0  0  0  0  0  0  0
   64.0352   32.8647   48.9907 H   0  0  0  0  0  0  0  0  0  0  0  0
   63.3199   34.5124   48.9907 H   0  0  0  0  0  0  0  0  0  0  0  0
   61.5218   29.5690   46.9131 H   0  0  0  0  0  0  0  0  0  0  0  0
   56.7483   26.9280   44.0921 H   0  0  0  0  0  0  0  0  0  0  0  0
   58.0890   25.9627   44.8265 H   0  0  0  0  0  0  0  0  0  0  0  0
   56.1040   24.9780   45.6768 H   0  0  0  0  0  0  0  0  0  0  0  0
   56.7078   26.0403   47.0050 H   0  0  0  0  0  0  0  0  0  0  0  0
   55.1640   27.4730   45.3660 H   0  0  0  0  0  0  0  0  0  0  0  0
  1  2  1  0
  2  3  1  0
  3  4  2  0
  4  5  1  0
  5  6  1  0
  6  7  2  0
  6  8  2  0
  6  9  1  0
  9 10  1  0
  9 11  1  0
  5 12  2  0
 12 13  1  0
 13 14  2  0
 14 15  1  0
 15 16  2  0
 15 17  1  0
 17 18  1  0
 18 19  1  0
 19 20  1  0
 17 21  1  0
 21 22  2  0
 14  3  1  0
 21 13  1  0
  1 23  1  0
  1 24  1  0
  1 25  1  0
  4 26  1  0
  9 27  1  0
 10 28  1  0
 10 29  1  0
 10 30  1  0
 11 31  1  0
 11 32  1  0
 11 33  1  0
 12 34  1  0
 18 35  1  0
 18 36  1  0
 19 37  1  0
 19 38  1  0
 20 39  1  0
M  CHG  1   9   1
M  END
>  <UniqueID>  (27) 
22

>  <SMILES>  (27) 
COc1cc(S(=O)(=O)[NH+](C)C)cc2c1C(=O)N(CCO)C2=O

>  <Energy>  (27) 
63.259188776896494

>  <Genealogy>  (27) 
COc1cc(S(=O)(=O)[NH+](C)C)cc2c1C(=O)N(CCO)C2=O (protonated)
COc1cc(S(=O)(=O)[NH+](C)C)cc2c1C(=O)N(CCO)C2=O (3D coordinates assigned)
COc1cc(S(=O)(=O)[NH+](C)C)cc2c1C(=O)N(CCO)C2=O (nonaromatic ring conformer: 63.259188776896494 kcal/mol)

>  <smiles>  (27) 
COc1cc(S(=O)(=O)N(C)C)cc2c1C(=O)N(CCO)C2=O

>  <score_type>  (27) 
oracle

>  <origin>  (27) 
adg

>  <m_score__min__energy>  (27) 
-6.5499999999999998

>  <m_primary>  (27) 
energy

$$$$
27:0
     RDKit          3D

 52 55  0  0  0  0  0  0  0  0999 V2000
   60.2270   33.4740   51.8240 C   0  0  0  0  0  0  0  0  0  0  0  0
   60.9300   33.4830   50.4990 C   0  0  0  0  0  0  0  0  0  0  0  0
   62.2010   34.0620   50.3810 C   0  0  0  0  0  0  0  0  0  0  0  0
   62.8740   34.0400   49.1590 C   0  0  0  0  0  0  0  0  0  0  0  0
   62.2950   33.4250   48.0370 C   0  0  0  0  0  0  0  0  0  0  0  0
   63.0170   33.4410   46.7170 C   0  0  0  0  0  0  0  0  0  0  0  0
   61.0260   32.8240   48.1580 C   0  0  0  0  0  0  0  0  0  0  0  0
   60.4140   32.1790   47.0330 N   0  0  0  0  0  0  0  0  0  0  0  0
   60.7350   30.7790   46.7450 C   0  0  0  0  0  0  0  0  0  0  0  0
   59.7360   30.1950   45.7350 C   0  0  0  0  0  0  0  0  0  0  0  0
   58.3990   30.7830   45.9510 N   0  0  0  0  0  0  0  0  0  0  0  0
   57.3970   30.0760   45.1790 C   0  0  0  0  0  0  0  0  0  0  0  0
   56.4170   30.7120   44.6960 O   0  0  0  0  0  0  0  0  0  0  0  0
   57.4800   28.6080   44.9490 C   0  0  0  0  0  0  0  0  0  0  0  0
   58.0050   28.0770   43.7590 C   0  0  0  0  0  0  0  0  0  0  0  0
   58.0580   26.6940   43.5610 C   0  0  0  0  0  0  0  0  0  0  0  0
   57.5950   25.8070   44.5490 C   0  0  0  0  0  0  0  0  0  0  0  0
   57.6360   24.3350   44.3430 C   0  0  0  0  0  0  0  0  0  0  0  0
   56.8670   23.5890   43.4470 C   0  0  0  0  0  0  0  0  0  0  0  0
   57.1300   22.2140   43.4890 C   0  0  0  0  0  0  0  0  0  0  0  0
   58.1030   21.8570   44.4110 C   0  0  0  0  0  0  0  0  0  0  0  0
   58.6340   23.2560   45.1720 S   0  0  0  0  0  0  0  0  0  0  0  0
   57.0840   26.3410   45.7450 C   0  0  0  0  0  0  0  0  0  0  0  0
   57.0330   27.7220   45.9440 C   0  0  0  0  0  0  0  0  0  0  0  0
   58.3830   32.2250   45.6010 C   0  0  0  0  0  0  0  0  0  0  0  0
   59.6520   32.9730   46.0650 C   0  0  0  0  0  0  0  0  0  0  0  0
   60.3530   32.8540   49.3880 C   0  0  0  0  0  0  0  0  0  0  0  0
   60.9712   33.4835   52.6340 H   0  0  0  0  0  0  0  0  0  0  0  0
   59.5856   34.3640   51.9048 H   0  0  0  0  0  0  0  0  0  0  0  0
   59.6086   32.5679   51.9048 H   0  0  0  0  0  0  0  0  0  0  0  0
   62.6701   34.5359   51.2559 H   0  0  0  0  0  0  0  0  0  0  0  0
   63.8658   34.5080   49.0737 H   0  0  0  0  0  0  0  0  0  0  0  0
   64.1025   33.4651   46.8931 H   0  0  0  0  0  0  0  0  0  0  0  0
   62.7580   32.5369   46.1464 H   0  0  0  0  0  0  0  0  0  0  0  0
   62.7182   34.3327   46.1464 H   0  0  0  0  0  0  0  0  0  0  0  0
   61.7503   30.7192   46.3259 H   0  0  0  0  0  0  0  0  0  0  0  0
   60.6757   30.2009   47.6790 H   0  0  0  0  0  0  0  0  0  0  0  0
   60.0743   30.4241   44.7137 H   0  0  0  0  0  0  0  0  0  0  0  0
   59.6782   29.1052   45.8726 H   0  0  0  0  0  0  0  0  0  0  0  0
   58.1780   30.6790   46.9690 H   0  0  0  0  0  0  0  0  0  0  0  0
   58.3774   28.7548   42.9767 H   0  0  0  0  0  0  0  0  0  0  0  0
   58.4668   26.2949   42.6210 H   0  0  0  0  0  0  0  0  0  0  0  0
   56.1245   24.0391   42.7717 H   0  0  0  0  0  0  0  0  0  0  0  0
   56.6124   21.4840   42.8494 H   0  0  0  0  0  0  0  0  0  0  0  0
   58.4633   20.8367   44.6087 H   0  0  0  0  0  0  0  0  0  0  0  0
   56.7207   25.6638   46.5320 H   0  0  0  0  0  0  0  0  0  0  0  0
   56.6385   28.1209   46.8902 H   0  0  0  0  0  0  0  0  0  0  0  0
   58.3003   32.3195   44.5082 H   0  0  0  0  0  0  0  0  0  0  0  0
   57.5255   32.6796   46.1187 H   0  0  0  0  0  0  0  0  0  0  0  0
   60.2871   33.1779   45.1905 H   0  0  0  0  0  0  0  0  0  0  0  0
   59.3443   33.9108   46.5507 H   0  0  0  0  0  0  0  0  0  0  0  0
   59.3647   32.3801   49.4812 H   0  0  0  0  0  0  0  0  0  0  0  0
  1  2  1  0
  2  3  2  0
  3  4  1  0
  4  5  2  0
  5  6  1  0
  5  7  1  0
  7  8  1  0
  8  9  1  0
  9 10  1  0
 10 11  1  0
 11 12  1  0
 12 13  2  0
 12 14  1  0
 14 15  2  0
 15 16  1  0
 16 17  2  0
 17 18  1  0
 18 19  2  0
 19 20  1  0
 20 21  2  0
 21 22  1  0
 17 23  1  0
 23 24  2  0
 11 25  1  0
 25 26  1  0
  7 27  2  0
 27  2  1  0
 26  8  1  0
 24 14  1  0
 22 18  1  0
  1 28  1  0
  1 29  1  0
  1 30  1  0
  3 31  1  0
  4 32  1  0
  6 33  1  0
  6 34  1  0
  6 35  1  0
  9 36  1  0
  9 37  1  0
 10 38  1  0
 10 39  1  0
 11 40  1  0
 15 41  1  0
 16 42  1  0
 19 43  1  0
 20 44  1  0
 21 45  1  0
 23 46  1  0
 24 47  1  0
 25 48  1  0
 25 49  1  0
 26 50  1  0
 26 51  1  0
 27 52  1  0
M  CHG  1  11   1
M  END
>  <UniqueID>  (28) 
23

>  <SMILES>  (28) 
Cc1ccc(C)c(N2CC[NH+](C(=O)c3ccc(-c4cccs4)cc3)CC2)c1

>  <Energy>  (28) 
97.52508072360047

>  <Genealogy>  (28) 
Cc1ccc(C)c(N2CC[NH+](C(=O)c3ccc(-c4cccs4)cc3)CC2)c1 (protonated)
Cc1ccc(C)c(N2CC[NH+](C(=O)c3ccc(-c4cccs4)cc3)CC2)c1 (3D coordinates assigned)
Cc1ccc(C)c(N2CC[NH+](C(=O)c3ccc(-c4cccs4)cc3)CC2)c1 (nonaromatic ring conformer: 97.52508072360047 kcal/mol)

>  <smiles>  (28) 
Cc1ccc(C)c(N2CCN(C(=O)c3ccc(-c4cccs4)cc3)CC2)c1

>  <score_type>  (28) 
oracle

>  <origin>  (28) 
adg

>  <m_score__min__energy>  (28) 
-6.9900000000000002

>  <m_primary>  (28) 
energy

$$$$
28:0
     RDKit          3D

 41 44  0  0  0  0  0  0  0  0999 V2000
   60.3379   33.7119   49.3127 H   0  0  0  0  0  0  0  0  0  0  0  0
   59.7330   33.7870   48.3970 C   0  0  0  0  0  0  0  0  0  0  0  0
   58.5660   33.0980   48.2960 N   0  0  0  0  0  0  0  0  0  0  0  0
   57.7910   33.1640   47.1800 C   0  0  0  0  0  0  0  0  0  0  0  0
   56.8507   32.5953   47.1307 H   0  0  0  0  0  0  0  0  0  0  0  0
   58.1880   33.9560   46.0910 C   0  0  0  0  0  0  0  0  0  0  0  0
   57.3220   34.0490   44.8630 C   0  0  0  0  0  0  0  0  0  0  0  0
   57.5900   34.9547   44.2993 H   0  0  0  0  0  0  0  0  0  0  0  0
   56.2680   34.0930   45.1746 H   0  0  0  0  0  0  0  0  0  0  0  0
   57.5130   32.8770   44.0090 N   0  0  0  0  0  0  0  0  0  0  0  0
   57.1840   31.6600   44.3310 C   0  0  0  0  0  0  0  0  0  0  0  0
   55.9030   31.2200   44.1800 N   0  0  0  0  0  0  0  0  0  0  0  0
   55.5330   29.9560   44.5110 C   0  0  0  0  0  0  0  0  0  0  0  0
   54.4891   29.6366   44.3763 H   0  0  0  0  0  0  0  0  0  0  0  0
   56.4750   29.0610   45.0220 C   0  0  0  0  0  0  0  0  0  0  0  0
   56.0990   27.8010   45.3500 N   0  0  0  0  0  0  0  0  0  0  0  0
   56.9820   26.8950   45.8340 C   0  0  0  0  0  0  0  0  0  0  0  0
   56.6382   25.8800   46.0823 H   0  0  0  0  0  0  0  0  0  0  0  0
   58.3270   27.2350   46.0220 C   0  0  0  0  0  0  0  0  0  0  0  0
   59.2180   26.1620   46.4020 C   0  0  0  0  0  0  0  0  0  0  0  0
   59.9250   25.2960   46.7000 N   0  0  0  0  0  0  0  0  0  0  0  0
   58.7600   28.5630   45.7290 C   0  0  0  0  0  0  0  0  0  0  0  0
   59.9870   28.9880   45.9130 N   0  0  0  0  0  0  0  0  0  0  0  0
   60.5330   29.7530   46.9940 C   0  0  0  0  0  0  0  0  0  0  0  0
   60.2110   29.4130   48.3130 C   0  0  0  0  0  0  0  0  0  0  0  0
   59.5048   28.5935   48.5123 H   0  0  0  0  0  0  0  0  0  0  0  0
   60.7860   30.1140   49.3780 C   0  0  0  0  0  0  0  0  0  0  0  0
   60.5157   29.8579   50.4131 H   0  0  0  0  0  0  0  0  0  0  0  0
   61.7040   31.1400   49.1300 C   0  0  0  0  0  0  0  0  0  0  0  0
   62.2550   31.8130   50.1710 F   0  0  0  0  0  0  0  0  0  0  0  0
   62.0560   31.4600   47.8120 C   0  0  0  0  0  0  0  0  0  0  0  0
   63.2200   32.7330   47.4890 Cl  0  0  0  0  0  0  0  0  0  0  0  0
   61.4820   30.7580   46.7470 C   0  0  0  0  0  0  0  0  0  0  0  0
   61.7748   30.9939   45.7133 H   0  0  0  0  0  0  0  0  0  0  0  0
   57.8140   29.4730   45.1920 C   0  0  0  0  0  0  0  0  0  0  0  0
   58.1600   30.7940   44.8390 C   0  0  0  0  0  0  0  0  0  0  0  0
   59.1956   31.1436   44.9627 H   0  0  0  0  0  0  0  0  0  0  0  0
   59.3880   34.6750   46.1840 C   0  0  0  0  0  0  0  0  0  0  0  0
   59.7171   35.3063   45.3455 H   0  0  0  0  0  0  0  0  0  0  0  0
   60.1650   34.5900   47.3400 C   0  0  0  0  0  0  0  0  0  0  0  0
   61.1085   35.1502   47.4176 H   0  0  0  0  0  0  0  0  0  0  0  0
  1  2  1  0
  2  3  2  0
  3  4  1  0
  4  5  1  0
  4  6  2  0
  6  7  1  0
  7  8  1  0
  7  9  1  0
  7 10  1  0
 10 11  2  0
 11 12  1  0
 12 13  1  0
 13 14  1  0
 13 15  2  0
 15 16  1  0
 16 17  1  0
 17 18  1  0
 17 19  2  0
 19 20  1  0
 20 21  3  0
 19 22  1  0
 22 23  2  0
 23 24  1  0
 24 25  2  0
 25 26  1  0
 25 27  1  0
 27 28  1  0
 27 29  2  0
 29 30  1  0
 29 31  1  0
 31 32  1  0
 31 33  2  0
 33 34  1  0
 22 35  1  0
 35 36  2  0
 36 37  1  0
  6 38  1  0
 38 39  1  0
 38 40  2  0
 40 41  1  0
 40  2  1  0
 36 11  1  0
 35 15  1  0
 33 24  1  0
M  CHG  2  12  -1  16  -1
M  END
>  <UniqueID>  (29) 
24

>  <SMILES>  (29) 
N#Cc1c[n-]c2c[n-]/c(=N\Cc3cccnc3)cc2/c1=N/c1ccc(F)c(Cl)c1

>  <Energy>  (29) 
67.51971850554587

>  <Genealogy>  (29) 
N#Cc1c[n-]c2c[n-]c(=NCc3cccnc3)cc2c1=Nc1ccc(F)c(Cl)c1 (protonated)
N#Cc1c[n-]c2c[n-]/c(=N\Cc3cccnc3)cc2/c1=N/c1ccc(F)c(Cl)c1 (cis-trans isomerization)
N#Cc1c[n-]c2c[n-]/c(=N\Cc3cccnc3)cc2/c1=N/c1ccc(F)c(Cl)c1 (3D coordinates assigned)
N#Cc1c[n-]c2c[n-]/c(=N\Cc3cccnc3)cc2/c1=N/c1ccc(F)c(Cl)c1 (optimized conformer: 67.51971850554587 kcal/mol)

>  <smiles>  (29) 
N#Cc1c[nH]c2c[nH]c(=NCc3cccnc3)cc2c1=Nc1ccc(F)c(Cl)c1

>  <score_type>  (29) 
oracle

>  <origin>  (29) 
adg

>  <m_score__min__energy>  (29) 
-10.890000000000001

>  <m_primary>  (29) 
energy

$$$$
29:0
     RDKit          3D

 43 44  0  0  0  0  0  0  0  0999 V2000
   57.4330   32.4220   40.8210 C   0  0  0  0  0  0  0  0  0  0  0  0
   57.7340   31.9710   42.2480 C   0  0  0  0  0  0  0  0  0  0  0  0
   56.8490   30.7880   42.6540 C   0  0  0  0  0  0  0  0  0  0  0  0
   56.9000   30.5800   44.1090 N   0  0  0  0  0  0  0  0  0  0  0  0
   56.2630   29.3880   44.6880 C   0  0  0  0  0  0  0  0  0  0  0  0
   57.2880   28.4320   45.1470 N   0  0  0  0  0  0  0  0  0  0  0  0
   56.6480   27.2360   45.7430 C   0  0  0  0  0  0  0  0  0  0  0  0
   57.6230   26.0500   45.7930 C   0  0  0  0  0  0  0  0  0  0  0  0
   58.0980   25.6530   44.4440 N   0  0  0  0  0  0  0  0  0  0  0  0
   57.3980   24.4530   43.9630 C   0  0  0  0  0  0  0  0  0  0  0  0
   58.0090   26.7380   43.4410 C   0  0  0  0  0  0  0  0  0  0  0  0
   58.2680   28.1110   44.0780 C   0  0  0  0  0  0  0  0  0  0  0  0
   57.5890   31.5180   44.9590 C   0  0  0  0  0  0  0  0  0  0  0  0
   58.8180   31.1710   45.5460 C   0  0  0  0  0  0  0  0  0  0  0  0
   59.4880   32.0800   46.3710 C   0  0  0  0  0  0  0  0  0  0  0  0
   58.9390   33.3430   46.6150 C   0  0  0  0  0  0  0  0  0  0  0  0
   59.8570   34.5820   47.7410 Br  0  0  0  0  0  0  0  0  0  0  0  0
   57.7190   33.6960   46.0310 C   0  0  0  0  0  0  0  0  0  0  0  0
   57.0460   32.7900   45.2080 C   0  0  0  0  0  0  0  0  0  0  0  0
   56.8225   33.3367   40.8466 H   0  0  0  0  0  0  0  0  0  0  0  0
   58.3768   32.6257   40.2941 H   0  0  0  0  0  0  0  0  0  0  0  0
   56.8827   31.6286   40.2941 H   0  0  0  0  0  0  0  0  0  0  0  0
   58.7895   31.6684   42.3135 H   0  0  0  0  0  0  0  0  0  0  0  0
   57.5278   32.8099   42.9290 H   0  0  0  0  0  0  0  0  0  0  0  0
   55.8108   30.9934   42.3542 H   0  0  0  0  0  0  0  0  0  0  0  0
   57.2170   29.8808   42.1525 H   0  0  0  0  0  0  0  0  0  0  0  0
   55.6389   29.6889   45.5424 H   0  0  0  0  0  0  0  0  0  0  0  0
   55.6419   28.9051   43.9192 H   0  0  0  0  0  0  0  0  0  0  0  0
   56.3222   27.4758   46.7659 H   0  0  0  0  0  0  0  0  0  0  0  0
   55.7882   26.9535   45.1178 H   0  0  0  0  0  0  0  0  0  0  0  0
   58.4923   26.3325   46.4050 H   0  0  0  0  0  0  0  0  0  0  0  0
   57.0874   25.1926   46.2266 H   0  0  0  0  0  0  0  0  0  0  0  0
   57.0524   23.8606   44.8231 H   0  0  0  0  0  0  0  0  0  0  0  0
   56.5331   24.7528   43.3530 H   0  0  0  0  0  0  0  0  0  0  0  0
   58.0847   23.8477   43.3530 H   0  0  0  0  0  0  0  0  0  0  0  0
   58.7576   26.5611   42.6547 H   0  0  0  0  0  0  0  0  0  0  0  0
   56.9931   26.7376   43.0192 H   0  0  0  0  0  0  0  0  0  0  0  0
   59.2786   28.1141   44.5124 H   0  0  0  0  0  0  0  0  0  0  0  0
   58.1663   28.8715   43.2898 H   0  0  0  0  0  0  0  0  0  0  0  0
   59.2550   30.1796   45.3556 H   0  0  0  0  0  0  0  0  0  0  0  0
   60.4485   31.8011   46.8288 H   0  0  0  0  0  0  0  0  0  0  0  0
   57.2877   34.6901   46.2201 H   0  0  0  0  0  0  0  0  0  0  0  0
   56.0858   33.0737   44.7524 H   0  0  0  0  0  0  0  0  0  0  0  0
  1  2  1  0
  2  3  1  0
  3  4  1  0
  4  5  1  0
  5  6  1  0
  6  7  1  0
  7  8  1  0
  8  9  1  0
  9 10  1  0
  9 11  1  0
 11 12  1  0
  4 13  1  0
 13 14  2  0
 14 15  1  0
 15 16  2  0
 16 17  1  0
 16 18  1  0
 18 19  2  0
 12  6  1  0
 19 13  1  0
  1 20  1  0
  1 21  1  0
  1 22  1  0
  2 23  1  0
  2 24  1  0
  3 25  1  0
  3 26  1  0
  5 27  1  0
  5 28  1  0
  7 29  1  0
  7 30  1  0
  8 31  1  0
  8 32  1  0
 10 33  1  0
 10 34  1  0
 10 35  1  0
 11 36  1  0
 11 37  1  0
 12 38  1  0
 12 39  1  0
 14 40  1  0
 15 41  1  0
 18 42  1  0
 19 43  1  0
M  END
>  <UniqueID>  (30) 
25

>  <SMILES>  (30) 
CCCN(CN1CCN(C)CC1)c1ccc(Br)cc1

>  <Energy>  (30) 
50.8679901918292

>  <Genealogy>  (30) 
CCCN(CN1CCN(C)CC1)c1ccc(Br)cc1 (3D coordinates assigned)
CCCN(CN1CCN(C)CC1)c1ccc(Br)cc1 (nonaromatic ring conformer: 50.8679901918292 kcal/mol)

>  <smiles>  (30) 
CCCN(CN1CCN(C)CC1)c1ccc(Br)cc1

>  <score_type>  (30) 
oracle

>  <origin>  (30) 
adg

>  <m_score__min__energy>  (30) 
-6.4500000000000002

>  <m_primary>  (30) 
energy

$$$$
30:0
     RDKit          3D

 50 52  0  0  0  0  0  0  0  0999 V2000
   59.3030   32.7190   50.8060 C   0  0  0  0  0  0  0  0  0  0  0  0
   60.3380   33.8380   50.9130 C   0  0  0  0  0  0  0  0  0  0  0  0
   61.3310   33.7740   49.7870 C   0  0  0  0  0  0  0  0  0  0  0  0
   62.6690   33.7330   49.9630 N   0  0  0  0  0  0  0  0  0  0  0  0
   63.2140   33.7420   48.7800 O   0  0  0  0  0  0  0  0  0  0  0  0
   62.3050   33.7990   47.8360 C   0  0  0  0  0  0  0  0  0  0  0  0
   62.6290   33.8740   46.3770 C   0  0  0  0  0  0  0  0  0  0  0  0
   61.0560   33.8160   48.4320 C   0  0  0  0  0  0  0  0  0  0  0  0
   59.7390   33.9360   47.7790 C   0  0  0  0  0  0  0  0  0  0  0  0
   58.9790   34.8880   48.1060 O   0  0  0  0  0  0  0  0  0  0  0  0
   59.3100   32.9860   46.7850 N   0  0  0  0  0  0  0  0  0  0  0  0
   58.3110   33.3750   45.7850 C   0  0  0  0  0  0  0  0  0  0  0  0
   58.5060   32.5460   44.5080 C   0  0  0  0  0  0  0  0  0  0  0  0
   58.5450   31.0800   44.7490 N   0  0  0  0  0  0  0  0  0  0  0  0
   57.1440   30.2940   44.0570 S   0  0  0  0  0  0  0  0  0  0  0  0
   55.8990   30.7190   44.7870 O   0  0  0  0  0  0  0  0  0  0  0  0
   57.0190   30.6780   42.6070 O   0  0  0  0  0  0  0  0  0  0  0  0
   57.3180   28.5480   44.2110 C   0  0  0  0  0  0  0  0  0  0  0  0
   57.0020   27.9250   45.4250 C   0  0  0  0  0  0  0  0  0  0  0  0
   57.1390   26.5400   45.5640 C   0  0  0  0  0  0  0  0  0  0  0  0
   57.5940   25.7610   44.4820 C   0  0  0  0  0  0  0  0  0  0  0  0
   57.7440   24.3680   44.5690 O   0  0  0  0  0  0  0  0  0  0  0  0
   56.9930   23.4310   43.8050 C   0  0  0  0  0  0  0  0  0  0  0  0
   57.9080   26.3900   43.2710 C   0  0  0  0  0  0  0  0  0  0  0  0
   57.7700   27.7740   43.1330 C   0  0  0  0  0  0  0  0  0  0  0  0
   58.6830   30.6850   46.1670 C   0  0  0  0  0  0  0  0  0  0  0  0
   59.6920   31.5720   46.9010 C   0  0  0  0  0  0  0  0  0  0  0  0
   59.0053   32.3972   51.8149 H   0  0  0  0  0  0  0  0  0  0  0  0
   58.4199   33.0870   50.2631 H   0  0  0  0  0  0  0  0  0  0  0  0
   59.7386   31.8673   50.2631 H   0  0  0  0  0  0  0  0  0  0  0  0
   59.8210   34.8084   50.8799 H   0  0  0  0  0  0  0  0  0  0  0  0
   60.8814   33.7182   51.8619 H   0  0  0  0  0  0  0  0  0  0  0  0
   63.6935   34.1204   46.2500 H   0  0  0  0  0  0  0  0  0  0  0  0
   62.4184   32.9034   45.9043 H   0  0  0  0  0  0  0  0  0  0  0  0
   62.0133   34.6534   45.9043 H   0  0  0  0  0  0  0  0  0  0  0  0
   57.3028   33.1958   46.1867 H   0  0  0  0  0  0  0  0  0  0  0  0
   58.4302   34.4425   45.5477 H   0  0  0  0  0  0  0  0  0  0  0  0
   57.6740   32.7634   43.8221 H   0  0  0  0  0  0  0  0  0  0  0  0
   59.4817   32.8291   44.0862 H   0  0  0  0  0  0  0  0  0  0  0  0
   56.6445   28.5277   46.2729 H   0  0  0  0  0  0  0  0  0  0  0  0
   56.8908   26.0576   46.5209 H   0  0  0  0  0  0  0  0  0  0  0  0
   56.4514   22.7552   44.4832 H   0  0  0  0  0  0  0  0  0  0  0  0
   56.2728   23.9685   43.1707 H   0  0  0  0  0  0  0  0  0  0  0  0
   57.6744   22.8451   43.1707 H   0  0  0  0  0  0  0  0  0  0  0  0
   58.2662   25.7900   42.4214 H   0  0  0  0  0  0  0  0  0  0  0  0
   58.0167   28.2572   42.1761 H   0  0  0  0  0  0  0  0  0  0  0  0
   57.7037   30.7744   46.6598 H   0  0  0  0  0  0  0  0  0  0  0  0
   59.0460   29.6472   46.2024 H   0  0  0  0  0  0  0  0  0  0  0  0
   59.7174   31.2894   47.9638 H   0  0  0  0  0  0  0  0  0  0  0  0
   60.6851   31.4323   46.4491 H   0  0  0  0  0  0  0  0  0  0  0  0
  1  2  1  0
  2  3  1  0
  3  4  2  0
  4  5  1  0
  5  6  1  0
  6  7  1  0
  6  8  2  0
  8  9  1  0
  9 10  2  0
  9 11  1  0
 11 12  1  0
 12 13  1  0
 13 14  1  0
 14 15  1  0
 15 16  2  0
 15 17  2  0
 15 18  1  0
 18 19  2  0
 19 20  1  0
 20 21  2  0
 21 22  1  0
 22 23  1  0
 21 24  1  0
 24 25  2  0
 14 26  1  0
 26 27  1  0
  8  3  1  0
 27 11  1  0
 25 18  1  0
  1 28  1  0
  1 29  1  0
  1 30  1  0
  2 31  1  0
  2 32  1  0
  7 33  1  0
  7 34  1  0
  7 35  1  0
 12 36  1  0
 12 37  1  0
 13 38  1  0
 13 39  1  0
 19 40  1  0
 20 41  1  0
 23 42  1  0
 23 43  1  0
 23 44  1  0
 24 45  1  0
 25 46  1  0
 26 47  1  0
 26 48  1  0
 27 49  1  0
 27 50  1  0
M  END
>  <UniqueID>  (31) 
26

>  <SMILES>  (31) 
CCc1noc(C)c1C(=O)N1CCN(S(=O)(=O)c2ccc(OC)cc2)CC1

>  <Energy>  (31) 
87.30608666687675

>  <Genealogy>  (31) 
CCc1noc(C)c1C(=O)N1CCN(S(=O)(=O)c2ccc(OC)cc2)CC1 (3D coordinates assigned)
CCc1noc(C)c1C(=O)N1CCN(S(=O)(=O)c2ccc(OC)cc2)CC1 (nonaromatic ring conformer: 87.30608666687675 kcal/mol)

>  <smiles>  (31) 
CCc1noc(C)c1C(=O)N1CCN(S(=O)(=O)c2ccc(OC)cc2)CC1

>  <score_type>  (31) 
oracle

>  <origin>  (31) 
adg

>  <m_score__min__energy>  (31) 
-8.0399999999999991

>  <m_primary>  (31) 
energy

$$$$
31:0
     RDKit          3D

 49 51  0  0  0  0  0  0  0  0999 V2000
   56.2700   21.7790   43.8680 C   0  0  0  0  0  0  0  0  0  0  0  0
   55.6410   23.0610   43.5080 N   0  0  0  0  0  0  0  0  0  0  0  0
   56.6360   24.0620   43.0760 C   0  0  0  0  0  0  0  0  0  0  0  0
   57.5210   24.5610   44.2410 C   0  0  0  0  0  0  0  0  0  0  0  0
   56.8680   24.3700   45.5530 N   0  0  0  0  0  0  0  0  0  0  0  0
   57.5400   25.1050   46.6450 C   0  0  0  0  0  0  0  0  0  0  0  0
   57.4430   26.6030   46.5080 C   0  0  0  0  0  0  0  0  0  0  0  0
   57.7310   27.3370   47.4930 O   0  0  0  0  0  0  0  0  0  0  0  0
   57.0000   27.1870   45.2730 N   0  0  0  0  0  0  0  0  0  0  0  0
   57.2030   28.5670   44.9270 C   0  0  0  0  0  0  0  0  0  0  0  0
   56.1110   29.3390   44.5040 C   0  0  0  0  0  0  0  0  0  0  0  0
   56.2890   30.6780   44.1440 C   0  0  0  0  0  0  0  0  0  0  0  0
   57.5670   31.2580   44.1780 C   0  0  0  0  0  0  0  0  0  0  0  0
   57.7550   32.7090   43.8300 C   0  0  0  0  0  0  0  0  0  0  0  0
   58.2580   33.4690   45.0270 C   0  0  0  0  0  0  0  0  0  0  0  0
   59.1790   34.5180   44.8660 C   0  0  0  0  0  0  0  0  0  0  0  0
   59.6770   35.1950   45.9830 C   0  0  0  0  0  0  0  0  0  0  0  0
   59.2690   34.8230   47.2680 C   0  0  0  0  0  0  0  0  0  0  0  0
   58.3630   33.7730   47.4370 C   0  0  0  0  0  0  0  0  0  0  0  0
   57.8610   33.0940   46.3220 C   0  0  0  0  0  0  0  0  0  0  0  0
   58.6620   30.4830   44.5920 C   0  0  0  0  0  0  0  0  0  0  0  0
   58.4840   29.1450   44.9540 C   0  0  0  0  0  0  0  0  0  0  0  0
   55.4210   24.6260   45.4830 C   0  0  0  0  0  0  0  0  0  0  0  0
   54.7500   23.5720   44.5800 C   0  0  0  0  0  0  0  0  0  0  0  0
   56.3149   21.6874   44.9633 H   0  0  0  0  0  0  0  0  0  0  0  0
   55.6761   20.9504   43.4548 H   0  0  0  0  0  0  0  0  0  0  0  0
   57.2888   21.7416   43.4548 H   0  0  0  0  0  0  0  0  0  0  0  0
   57.2833   23.6081   42.3111 H   0  0  0  0  0  0  0  0  0  0  0  0
   56.0866   24.9287   42.6799 H   0  0  0  0  0  0  0  0  0  0  0  0
   58.4688   24.0028   44.2314 H   0  0  0  0  0  0  0  0  0  0  0  0
   57.6925   25.6384   44.1003 H   0  0  0  0  0  0  0  0  0  0  0  0
   57.0773   24.8116   47.5989 H   0  0  0  0  0  0  0  0  0  0  0  0
   58.6077   24.8439   46.6025 H   0  0  0  0  0  0  0  0  0  0  0  0
   56.4510   26.5880   44.6150 H   0  0  0  0  0  0  0  0  0  0  0  0
   55.1088   28.8882   44.4553 H   0  0  0  0  0  0  0  0  0  0  0  0
   55.4230   31.2804   43.8324 H   0  0  0  0  0  0  0  0  0  0  0  0
   58.4853   32.7949   43.0119 H   0  0  0  0  0  0  0  0  0  0  0  0
   56.7888   33.1312   43.5166 H   0  0  0  0  0  0  0  0  0  0  0  0
   59.5092   34.8074   43.8575 H   0  0  0  0  0  0  0  0  0  0  0  0
   60.3908   36.0215   45.8511 H   0  0  0  0  0  0  0  0  0  0  0  0
   59.6615   35.3572   48.1458 H   0  0  0  0  0  0  0  0  0  0  0  0
   58.0441   33.4800   48.4482 H   0  0  0  0  0  0  0  0  0  0  0  0
   57.1529   32.2635   46.4592 H   0  0  0  0  0  0  0  0  0  0  0  0
   59.6656   30.9315   44.6317 H   0  0  0  0  0  0  0  0  0  0  0  0
   59.3505   28.5412   45.2615 H   0  0  0  0  0  0  0  0  0  0  0  0
   54.9903   24.5692   46.4936 H   0  0  0  0  0  0  0  0  0  0  0  0
   55.2482   25.6281   45.0636 H   0  0  0  0  0  0  0  0  0  0  0  0
   54.4370   22.7241   45.2070 H   0  0  0  0  0  0  0  0  0  0  0  0
   53.8971   24.0619   44.0874 H   0  0  0  0  0  0  0  0  0  0  0  0
  1  2  1  0
  2  3  1  0
  3  4  1  0
  4  5  1  0
  5  6  1  0
  6  7  1  0
  7  8  2  0
  7  9  1  0
  9 10  1  0
 10 11  2  0
 11 12  1  0
 12 13  2  0
 13 14  1  0
 14 15  1  0
 15 16  2  0
 16 17  1  0
 17 18  2  0
 18 19  1  0
 19 20  2  0
 13 21  1  0
 21 22  2  0
  5 23  1  0
 23 24  1  0
 24  2  1  0
 22 10  1  0
 20 15  1  0
  1 25  1  0
  1 26  1  0
  1 27  1  0
  3 28  1  0
  3 29  1  0
  4 30  1  0
  4 31  1  0
  6 32  1  0
  6 33  1  0
  9 34  1  0
 11 35  1  0
 12 36  1  0
 14 37  1  0
 14 38  1  0
 16 39  1  0
 17 40  1  0
 18 41  1  0
 19 42  1  0
 20 43  1  0
 21 44  1  0
 22 45  1  0
 23 46  1  0
 23 47  1  0
 24 48  1  0
 24 49  1  0
M  END
>  <UniqueID>  (32) 
27

>  <SMILES>  (32) 
CN1CCN(CC(=O)Nc2ccc(Cc3ccccc3)cc2)CC1

>  <Energy>  (32) 
63.66209533237563

>  <Genealogy>  (32) 
CN1CCN(CC(=O)Nc2ccc(Cc3ccccc3)cc2)CC1 (3D coordinates assigned)
CN1CCN(CC(=O)Nc2ccc(Cc3ccccc3)cc2)CC1 (nonaromatic ring conformer: 63.66209533237563 kcal/mol)

>  <smiles>  (32) 
CN1CCN(CC(=O)Nc2ccc(Cc3ccccc3)cc2)CC1

>  <score_type>  (32) 
oracle

>  <origin>  (32) 
adg

>  <m_score__min__energy>  (32) 
-8.7699999999999996

>  <m_primary>  (32) 
energy

$$$$
32:0
     RDKit          3D

 40 42  0  0  0  0  0  0  0  0999 V2000
   58.1370   27.3190   42.9540 F   0  0  0  0  0  0  0  0  0  0  0  0
   58.1250   28.3270   43.8610 C   0  0  0  0  0  0  0  0  0  0  0  0
   57.0720   29.2450   43.8720 C   0  0  0  0  0  0  0  0  0  0  0  0
   57.0600   30.2840   44.8070 C   0  0  0  0  0  0  0  0  0  0  0  0
   58.1040   30.4200   45.7290 C   0  0  0  0  0  0  0  0  0  0  0  0
   58.0590   31.4790   46.6460 O   0  0  0  0  0  0  0  0  0  0  0  0
   58.5830   32.7550   46.4040 C   0  0  0  0  0  0  0  0  0  0  0  0
   58.3360   33.3520   45.1610 C   0  0  0  0  0  0  0  0  0  0  0  0
   58.8410   34.6220   44.8730 C   0  0  0  0  0  0  0  0  0  0  0  0
   59.6080   35.3000   45.8220 C   0  0  0  0  0  0  0  0  0  0  0  0
   59.8800   34.7080   47.0580 C   0  0  0  0  0  0  0  0  0  0  0  0
   59.3840   33.4270   47.3600 C   0  0  0  0  0  0  0  0  0  0  0  0
   59.7340   32.7930   48.6900 C   0  0  0  0  0  0  0  0  0  0  0  0
   61.1000   32.2280   48.6720 N   0  0  0  0  0  0  0  0  0  0  0  0
   62.1160   33.2250   49.0940 C   0  0  0  0  0  0  0  0  0  0  0  0
   62.8600   33.8390   47.8980 C   0  0  0  0  0  0  0  0  0  0  0  0
   63.5540   32.8200   47.0910 N   0  0  0  0  0  0  0  0  0  0  0  0
   62.9170   31.4900   47.1330 C   0  0  0  0  0  0  0  0  0  0  0  0
   61.4050   31.5920   47.3650 C   0  0  0  0  0  0  0  0  0  0  0  0
   59.1550   29.4830   45.7230 C   0  0  0  0  0  0  0  0  0  0  0  0
   59.1650   28.4440   44.7880 C   0  0  0  0  0  0  0  0  0  0  0  0
   56.2522   29.1502   43.1447 H   0  0  0  0  0  0  0  0  0  0  0  0
   56.2245   30.9994   44.8182 H   0  0  0  0  0  0  0  0  0  0  0  0
   57.7403   32.8170   44.4067 H   0  0  0  0  0  0  0  0  0  0  0  0
   58.6343   35.0880   43.8983 H   0  0  0  0  0  0  0  0  0  0  0  0
   59.9993   36.3029   45.5961 H   0  0  0  0  0  0  0  0  0  0  0  0
   60.4864   35.2477   47.8003 H   0  0  0  0  0  0  0  0  0  0  0  0
   59.6726   33.5574   49.4787 H   0  0  0  0  0  0  0  0  0  0  0  0
   59.0228   31.9765   48.8836 H   0  0  0  0  0  0  0  0  0  0  0  0
   61.6126   34.0303   49.6491 H   0  0  0  0  0  0  0  0  0  0  0  0
   62.8561   32.7072   49.7218 H   0  0  0  0  0  0  0  0  0  0  0  0
   62.1330   34.3619   47.2592 H   0  0  0  0  0  0  0  0  0  0  0  0
   63.6184   34.5317   48.2918 H   0  0  0  0  0  0  0  0  0  0  0  0
   64.5330   32.7200   47.4480 H   0  0  0  0  0  0  0  0  0  0  0  0
   63.0970   30.9782   46.1761 H   0  0  0  0  0  0  0  0  0  0  0  0
   63.3549   30.9266   47.9701 H   0  0  0  0  0  0  0  0  0  0  0  0
   60.9592   32.1953   46.5605 H   0  0  0  0  0  0  0  0  0  0  0  0
   60.9854   30.5752   47.3680 H   0  0  0  0  0  0  0  0  0  0  0  0
   59.9705   29.5689   46.4562 H   0  0  0  0  0  0  0  0  0  0  0  0
   59.9915   27.7181   44.7816 H   0  0  0  0  0  0  0  0  0  0  0  0
  1  2  1  0
  2  3  2  0
  3  4  1  0
  4  5  2  0
  5  6  1  0
  6  7  1  0
  7  8  2  0
  8  9  1  0
  9 10  2  0
 10 11  1  0
 11 12  2  0
 12 13  1  0
 13 14  1  0
 14 15  1  0
 15 16  1  0
 16 17  1  0
 17 18  1  0
 18 19  1  0
  5 20  1  0
 20 21  2  0
 21  2  1  0
 12  7  1  0
 19 14  1  0
  3 22  1  0
  4 23  1  0
  8 24  1  0
  9 25  1  0
 10 26  1  0
 11 27  1  0
 13 28  1  0
 13 29  1  0
 15 30  1  0
 15 31  1  0
 16 32  1  0
 16 33  1  0
 17 34  1  0
 18 35  1  0
 18 36  1  0
 19 37  1  0
 19 38  1  0
 20 39  1  0
 21 40  1  0
M  END
>  <UniqueID>  (33) 
28

>  <SMILES>  (33) 
Fc1ccc(Oc2ccccc2CN2CCNCC2)cc1

>  <Energy>  (33) 
59.77889249414663

>  <Genealogy>  (33) 
Fc1ccc(Oc2ccccc2CN2CCNCC2)cc1 (3D coordinates assigned)
Fc1ccc(Oc2ccccc2CN2CCNCC2)cc1 (nonaromatic ring conformer: 59.77889249414663 kcal/mol)

>  <smiles>  (33) 
Fc1ccc(Oc2ccccc2CN2CCNCC2)cc1

>  <score_type>  (33) 
oracle

>  <origin>  (33) 
adg

>  <m_score__min__energy>  (33) 
-6.8799999999999999

>  <m_primary>  (33) 
energy

$$$$
33:0
     RDKit          3D

 30 32  0  0  0  0  0  0  0  0999 V2000
   55.0967   24.8022   46.5988 H   0  0  0  0  0  0  0  0  0  0  0  0
   55.8950   25.4890   46.2810 C   0  0  0  0  0  0  0  0  0  0  0  0
   55.7290   26.7580   45.9930 O   0  0  0  0  0  0  0  0  0  0  0  0
   56.8900   27.2740   45.6500 C   0  0  0  0  0  0  0  0  0  0  0  0
   57.0720   28.6920   45.2610 C   0  0  0  0  0  0  0  0  0  0  0  0
   56.1580   29.3520   44.4260 C   0  0  0  0  0  0  0  0  0  0  0  0
   55.2769   28.8158   44.0437 H   0  0  0  0  0  0  0  0  0  0  0  0
   56.3650   30.6870   44.0800 C   0  0  0  0  0  0  0  0  0  0  0  0
   55.6425   31.2064   43.4333 H   0  0  0  0  0  0  0  0  0  0  0  0
   57.4920   31.3650   44.5560 C   0  0  0  0  0  0  0  0  0  0  0  0
   57.6600   32.6120   44.2140 N   0  0  0  0  0  0  0  0  0  0  0  0
   57.7600   33.7410   45.0920 C   0  0  0  0  0  0  0  0  0  0  0  0
   56.9110   34.6650   45.0010 O   0  0  0  0  0  0  0  0  0  0  0  0
   58.8970   33.8880   46.0190 C   0  0  0  0  0  0  0  0  0  0  0  0
   60.0150   33.2040   45.9250 O   0  0  0  0  0  0  0  0  0  0  0  0
   60.8080   33.5800   46.9000 C   0  0  0  0  0  0  0  0  0  0  0  0
   62.1220   33.0440   47.1200 C   0  0  0  0  0  0  0  0  0  0  0  0
   63.1810   32.6130   47.2980 N   0  0  0  0  0  0  0  0  0  0  0  0
   60.1990   34.5520   47.6690 C   0  0  0  0  0  0  0  0  0  0  0  0
   60.6142   35.0597   48.5521 H   0  0  0  0  0  0  0  0  0  0  0  0
   58.9600   34.7520   47.0960 C   0  0  0  0  0  0  0  0  0  0  0  0
   58.1818   35.4549   47.4282 H   0  0  0  0  0  0  0  0  0  0  0  0
   58.3610   30.7150   45.3910 N   0  0  0  0  0  0  0  0  0  0  0  0
   59.1760   31.2100   45.8160 H   0  0  0  0  0  0  0  0  0  0  0  0
   58.1770   29.4120   45.7390 C   0  0  0  0  0  0  0  0  0  0  0  0
   58.9026   28.9183   46.4022 H   0  0  0  0  0  0  0  0  0  0  0  0
   57.8670   26.2940   45.7180 C   0  0  0  0  0  0  0  0  0  0  0  0
   58.9377   26.4086   45.4933 H   0  0  0  0  0  0  0  0  0  0  0  0
   57.2220   25.1460   46.1250 C   0  0  0  0  0  0  0  0  0  0  0  0
   57.6737   24.1570   46.2916 H   0  0  0  0  0  0  0  0  0  0  0  0
  1  2  1  0
  2  3  1  0
  3  4  1  0
  4  5  1  0
  5  6  1  0
  6  7  1  0
  6  8  2  0
  8  9  1  0
  8 10  1  0
 10 11  2  0
 11 12  1  0
 12 13  2  0
 12 14  1  0
 14 15  1  0
 15 16  1  0
 16 17  1  0
 17 18  3  0
 16 19  2  0
 19 20  1  0
 19 21  1  0
 21 22  1  0
 10 23  1  0
 23 24  1  0
 23 25  1  0
 25 26  1  0
  4 27  2  0
 27 28  1  0
 27 29  1  0
 29 30  1  0
 29  2  2  0
 25  5  2  0
 21 14  2  0
M  END
>  <UniqueID>  (34) 
29

>  <SMILES>  (34) 
N#Cc1ccc(C(=O)/N=c2/ccc(-c3ccco3)c[nH]2)o1

>  <Energy>  (34) 
92.77871829586495

>  <Genealogy>  (34) 
N#Cc1ccc(C(=O)/N=c2/ccc(-c3ccco3)c[nH]2)o1 (cis-trans isomerization)
N#Cc1ccc(C(=O)/N=c2/ccc(-c3ccco3)c[nH]2)o1 (3D coordinates assigned)
N#Cc1ccc(C(=O)/N=c2/ccc(-c3ccco3)c[nH]2)o1 (optimized conformer: 92.77871829586495 kcal/mol)

>  <smiles>  (34) 
N#Cc1ccc(C(=O)N=c2ccc(-c3ccco3)c[nH]2)o1

>  <score_type>  (34) 
oracle

>  <origin>  (34) 
adg

>  <m_score__min__energy>  (34) 
-6.7599999999999998

>  <m_primary>  (34) 
energy

$$$$
34:0
     RDKit          3D

 41 43  0  0  0  0  0  0  0  0999 V2000
   59.6450   33.9460   49.0120 C   0  0  0  0  0  0  0  0  0  0  0  0
   59.2340   34.1040   47.5780 C   0  0  0  0  0  0  0  0  0  0  0  0
   59.6570   35.2200   46.8400 C   0  0  0  0  0  0  0  0  0  0  0  0
   59.3190   35.3390   45.4910 C   0  0  0  0  0  0  0  0  0  0  0  0
   58.5610   34.3460   44.8660 C   0  0  0  0  0  0  0  0  0  0  0  0
   58.1240   33.2270   45.5900 C   0  0  0  0  0  0  0  0  0  0  0  0
   57.3550   32.2140   44.9230 N   0  0  0  0  0  0  0  0  0  0  0  0
   57.6190   31.7710   43.5810 C   0  0  0  0  0  0  0  0  0  0  0  0
   58.5180   32.3210   42.8870 O   0  0  0  0  0  0  0  0  0  0  0  0
   56.8750   30.5990   43.0150 C   0  0  0  0  0  0  0  0  0  0  0  0
   55.5080   30.0820   44.1140 S   0  0  0  0  0  0  0  0  0  0  0  0
   56.5430   29.1220   45.2160 C   0  0  0  0  0  0  0  0  0  0  0  0
   56.2910   27.8030   45.4140 N   0  0  0  0  0  0  0  0  0  0  0  0
   57.0800   27.0510   46.2280 C   0  0  0  0  0  0  0  0  0  0  0  0
   56.7800   25.6220   46.4200 C   0  0  0  0  0  0  0  0  0  0  0  0
   57.7090   24.6120   46.5780 C   0  0  0  0  0  0  0  0  0  0  0  0
   56.9800   23.4530   46.7240 C   0  0  0  0  0  0  0  0  0  0  0  0
   55.6530   23.8230   46.6480 C   0  0  0  0  0  0  0  0  0  0  0  0
   55.5660   25.1210   46.4670 O   0  0  0  0  0  0  0  0  0  0  0  0
   58.1730   27.6460   46.8700 C   0  0  0  0  0  0  0  0  0  0  0  0
   58.4170   29.0090   46.6590 C   0  0  0  0  0  0  0  0  0  0  0  0
   59.5890   29.6830   47.3090 C   0  0  0  0  0  0  0  0  0  0  0  0
   59.1500   30.4530   48.3710 F   0  0  0  0  0  0  0  0  0  0  0  0
   60.2280   30.4960   46.3910 F   0  0  0  0  0  0  0  0  0  0  0  0
   60.4900   28.7440   47.7800 F   0  0  0  0  0  0  0  0  0  0  0  0
   57.5960   29.7140   45.8370 N   0  0  0  0  0  0  0  0  0  0  0  0
   58.4860   33.0990   46.9430 C   0  0  0  0  0  0  0  0  0  0  0  0
   58.8201   34.2631   49.6669 H   0  0  0  0  0  0  0  0  0  0  0  0
   59.8859   32.8912   49.2103 H   0  0  0  0  0  0  0  0  0  0  0  0
   60.5304   34.5678   49.2103 H   0  0  0  0  0  0  0  0  0  0  0  0
   60.2568   36.0035   47.3261 H   0  0  0  0  0  0  0  0  0  0  0  0
   59.6506   36.2176   44.9182 H   0  0  0  0  0  0  0  0  0  0  0  0
   58.3055   34.4421   43.8004 H   0  0  0  0  0  0  0  0  0  0  0  0
   56.6910   31.6480   45.4990 H   0  0  0  0  0  0  0  0  0  0  0  0
   56.4604   30.8778   42.0350 H   0  0  0  0  0  0  0  0  0  0  0  0
   57.5772   29.7580   42.9170 H   0  0  0  0  0  0  0  0  0  0  0  0
   58.8044   24.7127   46.5856 H   0  0  0  0  0  0  0  0  0  0  0  0
   57.3757   22.4373   46.8714 H   0  0  0  0  0  0  0  0  0  0  0  0
   54.7980   23.1355   46.7270 H   0  0  0  0  0  0  0  0  0  0  0  0
   58.8273   27.0545   47.5273 H   0  0  0  0  0  0  0  0  0  0  0  0
   58.1812   32.2056   47.5078 H   0  0  0  0  0  0  0  0  0  0  0  0
  1  2  1  0
  2  3  2  0
  3  4  1  0
  4  5  2  0
  5  6  1  0
  6  7  1  0
  7  8  1  0
  8  9  2  0
  8 10  1  0
 10 11  1  0
 11 12  1  0
 12 13  2  0
 13 14  1  0
 14 15  1  0
 15 16  2  0
 16 17  1  0
 17 18  2  0
 18 19  1  0
 14 20  2  0
 20 21  1  0
 21 22  1  0
 22 23  1  0
 22 24  1  0
 22 25  1  0
 21 26  2  0
  6 27  2  0
 27  2  1  0
 26 12  1  0
 19 15  1  0
  1 28  1  0
  1 29  1  0
  1 30  1  0
  3 31  1  0
  4 32  1  0
  5 33  1  0
  7 34  1  0
 10 35  1  0
 10 36  1  0
 16 37  1  0
 17 38  1  0
 18 39  1  0
 20 40  1  0
 27 41  1  0
M  END
>  <UniqueID>  (35) 
30

>  <SMILES>  (35) 
Cc1cccc(NC(=O)CSc2nc(-c3ccco3)cc(C(F)(F)F)n2)c1

>  <Energy>  (35) 
65.9917018411942

>  <Genealogy>  (35) 
Cc1cccc(NC(=O)CSc2nc(-c3ccco3)cc(C(F)(F)F)n2)c1 (3D coordinates assigned)
Cc1cccc(NC(=O)CSc2nc(-c3ccco3)cc(C(F)(F)F)n2)c1 (optimized conformer: 65.9917018411942 kcal/mol)

>  <smiles>  (35) 
Cc1cccc(NC(=O)CSc2nc(-c3ccco3)cc(C(F)(F)F)n2)c1

>  <score_type>  (35) 
oracle

>  <origin>  (35) 
adg

>  <m_score__min__energy>  (35) 
-7.79

>  <m_primary>  (35) 
energy

$$$$
35:0
     RDKit          3D

 66 68  0  0  1  0  0  0  0  0999 V2000
   57.2570   30.4750   43.5120 C   0  0  0  0  0  0  0  0  0  0  0  0
   57.2230   31.5400   44.5840 C   0  0  0  0  0  0  0  0  0  0  0  0
   58.2060   32.6640   44.2910 C   0  0  0  0  0  0  0  0  0  0  0  0
   59.0320   32.9730   45.2700 O   0  0  0  0  0  0  0  0  0  0  0  0
   59.1930   34.0840   45.9520 C   0  0  0  0  0  0  0  0  0  0  0  0
   59.0100   34.1550   47.4360 C   0  0  1  0  0  0  0  0  0  0  0  0
   57.8820   33.0250   47.6440 C   0  0  0  0  0  0  0  0  0  0  0  0
   56.8400   33.4870   46.8750 F   0  0  0  0  0  0  0  0  0  0  0  0
   60.1320   33.7460   48.2590 C   0  0  0  0  0  0  0  0  0  0  0  0
   60.9080   34.6410   48.7120 O   0  0  0  0  0  0  0  0  0  0  0  0
   60.4890   32.4120   48.6200 N   0  0  0  0  0  0  0  0  0  0  0  0
   59.6610   31.6390   49.4760 C   0  0  0  0  0  0  0  0  0  0  0  0
   59.1500   32.2160   50.6420 C   0  0  0  0  0  0  0  0  0  0  0  0
   59.6190   33.8410   51.0570 Cl  0  0  0  0  0  0  0  0  0  0  0  0
   58.3740   31.4300   51.3930 N   0  0  0  0  0  0  0  0  0  0  0  0
   58.1100   30.1410   51.0280 C   0  0  0  0  0  0  0  0  0  0  0  0
   57.3560   29.3940   51.7650 N   0  0  0  0  0  0  0  0  0  0  0  0
   58.6100   29.5930   49.9060 N   0  0  0  0  0  0  0  0  0  0  0  0
   59.3950   30.3350   49.1160 C   0  0  0  0  0  0  0  0  0  0  0  0
   59.9870   29.8820   47.9070 N   0  0  0  0  0  0  0  0  0  0  0  0
   59.3810   28.7910   47.2300 C   0  0  0  0  0  0  0  0  0  0  0  0
   58.1490   28.8580   46.6160 C   0  0  0  0  0  0  0  0  0  0  0  0
   57.6010   27.7640   45.9560 C   0  0  0  0  0  0  0  0  0  0  0  0
   58.2830   26.5590   45.8940 C   0  0  0  0  0  0  0  0  0  0  0  0
   57.6970   25.3910   45.1910 C   0  0  0  0  0  0  0  0  0  0  0  0
   58.5210   24.1720   45.5790 C   0  0  0  0  0  0  0  0  0  0  0  0
   57.7550   25.6590   43.6950 C   0  0  0  0  0  0  0  0  0  0  0  0
   56.2520   25.2090   45.6080 C   0  0  0  0  0  0  0  0  0  0  0  0
   59.5280   26.4820   46.5130 C   0  0  0  0  0  0  0  0  0  0  0  0
   60.0570   27.5760   47.1640 C   0  0  0  0  0  0  0  0  0  0  0  0
   61.1890   30.4560   47.3350 C   0  0  0  0  0  0  0  0  0  0  0  0
   61.6500   31.7230   48.0340 C   0  0  1  0  0  0  0  0  0  0  0  0
   62.3960   32.5450   47.0350 C   0  0  0  0  0  0  0  0  0  0  0  0
   57.2887   29.4815   43.9831 H   0  0  0  0  0  0  0  0  0  0  0  0
   56.3558   30.5556   42.8864 H   0  0  0  0  0  0  0  0  0  0  0  0
   58.1512   30.6129   42.8864 H   0  0  0  0  0  0  0  0  0  0  0  0
   56.2075   31.9594   44.6380 H   0  0  0  0  0  0  0  0  0  0  0  0
   57.5083   31.0748   45.5391 H   0  0  0  0  0  0  0  0  0  0  0  0
   58.8099   32.3660   43.4212 H   0  0  0  0  0  0  0  0  0  0  0  0
   57.5924   33.5614   44.1233 H   0  0  0  0  0  0  0  0  0  0  0  0
   60.2235   34.4152   45.7560 H   0  0  0  0  0  0  0  0  0  0  0  0
   58.3486   34.6909   45.5933 H   0  0  0  0  0  0  0  0  0  0  0  0
   58.8129   35.1955   47.7334 H   0  0  0  0  0  0  0  0  0  0  0  0
   58.2328   32.0452   47.2878 H   0  0  0  0  0  0  0  0  0  0  0  0
   57.6094   32.8718   48.6986 H   0  0  0  0  0  0  0  0  0  0  0  0
   56.3250   29.3180   51.6220 H   0  0  0  0  0  0  0  0  0  0  0  0
   58.4240   28.6160   49.5980 H   0  0  0  0  0  0  0  0  0  0  0  0
   57.5846   29.8016   46.6490 H   0  0  0  0  0  0  0  0  0  0  0  0
   56.6148   27.8558   45.4775 H   0  0  0  0  0  0  0  0  0  0  0  0
   58.5715   24.0974   46.6753 H   0  0  0  0  0  0  0  0  0  0  0  0
   58.0495   23.2657   45.1711 H   0  0  0  0  0  0  0  0  0  0  0  0
   59.5377   24.2717   45.1711 H   0  0  0  0  0  0  0  0  0  0  0  0
   57.9848   26.7206   43.5213 H   0  0  0  0  0  0  0  0  0  0  0  0
   58.5389   25.0351   43.2409 H   0  0  0  0  0  0  0  0  0  0  0  0
   56.7833   25.4151   43.2409 H   0  0  0  0  0  0  0  0  0  0  0  0
   56.1855   25.2006   46.7060 H   0  0  0  0  0  0  0  0  0  0  0  0
   55.6484   26.0382   45.2104 H   0  0  0  0  0  0  0  0  0  0  0  0
   55.8729   24.2560   45.2104 H   0  0  0  0  0  0  0  0  0  0  0  0
   60.0946   25.5396   46.4822 H   0  0  0  0  0  0  0  0  0  0  0  0
   61.0420   27.4862   47.6453 H   0  0  0  0  0  0  0  0  0  0  0  0
   61.9951   29.7103   47.3994 H   0  0  0  0  0  0  0  0  0  0  0  0
   60.9532   30.7286   46.2957 H   0  0  0  0  0  0  0  0  0  0  0  0
   62.3300   31.5116   48.8724 H   0  0  0  0  0  0  0  0  0  0  0  0
   63.0454   33.2606   47.5606 H   0  0  0  0  0  0  0  0  0  0  0  0
   63.0111   31.8864   46.4043 H   0  0  0  0  0  0  0  0  0  0  0  0
   61.6810   33.0935   46.4043 H   0  0  0  0  0  0  0  0  0  0  0  0
  1  2  1  0
  2  3  1  0
  3  4  1  0
  4  5  1  0
  5  6  1  0
  6  7  1  0
  7  8  1  0
  6  9  1  0
  9 10  2  0
  9 11  1  0
 11 12  1  0
 12 13  1  0
 13 14  1  0
 13 15  2  0
 15 16  1  0
 16 17  2  3
 16 18  1  0
 18 19  1  0
 19 20  1  0
 20 21  1  0
 21 22  2  0
 22 23  1  0
 23 24  2  0
 24 25  1  0
 25 26  1  0
 25 27  1  0
 25 28  1  0
 24 29  1  0
 29 30  2  0
 20 31  1  0
 31 32  1  0
 32 33  1  0
 32 11  1  0
 19 12  2  0
 30 21  1  0
  1 34  1  0
  1 35  1  0
  1 36  1  0
  2 37  1  0
  2 38  1  0
  3 39  1  0
  3 40  1  0
  5 41  1  0
  5 42  1  0
  6 43  1  6
  7 44  1  0
  7 45  1  0
 17 46  1  0
 18 47  1  0
 22 48  1  0
 23 49  1  0
 26 50  1  0
 26 51  1  0
 26 52  1  0
 27 53  1  0
 27 54  1  0
 27 55  1  0
 28 56  1  0
 28 57  1  0
 28 58  1  0
 29 59  1  0
 30 60  1  0
 31 61  1  0
 31 62  1  0
 32 63  1  1
 33 64  1  0
 33 65  1  0
 33 66  1  0
M  END
>  <smiles>  (36) 
CCCOCC(CF)C(=O)N1c2c(Cl)nc(=N)[nH]c2N(c2ccc(C(C)(C)C)cc2)CC1C

>  <score_type>  (36) 
oracle

>  <origin>  (36) 
adg

>  <m_score__min__energy>  (36) 
-8.3599999999999994

>  <m_primary>  (36) 
energy

$$$$
36:0
     RDKit          3D

 31 33  0  0  0  0  0  0  0  0999 V2000
   62.5470   33.8260   46.3570 C   0  0  0  0  0  0  0  0  0  0  0  0
   61.5760   33.7900   47.5100 C   0  0  0  0  0  0  0  0  0  0  0  0
   62.0760   33.5850   48.8080 C   0  0  0  0  0  0  0  0  0  0  0  0
   61.2160   33.5690   49.9070 C   0  0  0  0  0  0  0  0  0  0  0  0
   59.8480   33.7650   49.7280 C   0  0  0  0  0  0  0  0  0  0  0  0
   59.3340   33.9690   48.4480 C   0  0  0  0  0  0  0  0  0  0  0  0
   60.1800   33.9790   47.3240 C   0  0  0  0  0  0  0  0  0  0  0  0
   59.5530   34.1780   45.9610 C   0  0  0  0  0  0  0  0  0  0  0  0
   57.7450   33.9100   46.0200 S   0  0  0  0  0  0  0  0  0  0  0  0
   57.8230   32.2270   45.4140 C   0  0  0  0  0  0  0  0  0  0  0  0
   58.9290   31.4500   45.5550 N   0  0  0  0  0  0  0  0  0  0  0  0
   58.5560   30.3130   44.9530 C   0  0  0  0  0  0  0  0  0  0  0  0
   59.3010   29.1540   44.7780 C   0  0  0  0  0  0  0  0  0  0  0  0
   58.6790   28.0910   44.0960 C   0  0  0  0  0  0  0  0  0  0  0  0
   57.3930   28.2200   43.6330 N   0  0  0  0  0  0  0  0  0  0  0  0
   56.6760   29.3710   43.8140 C   0  0  0  0  0  0  0  0  0  0  0  0
   57.2860   30.4220   44.4870 C   0  0  0  0  0  0  0  0  0  0  0  0
   56.7850   31.6340   44.7650 N   0  0  0  0  0  0  0  0  0  0  0  0
   63.5756   33.8641   46.7449 H   0  0  0  0  0  0  0  0  0  0  0  0
   62.4202   32.9225   45.7425 H   0  0  0  0  0  0  0  0  0  0  0  0
   62.3536   34.7176   45.7425 H   0  0  0  0  0  0  0  0  0  0  0  0
   63.1554   33.4358   48.9587 H   0  0  0  0  0  0  0  0  0  0  0  0
   61.6189   33.4013   50.9167 H   0  0  0  0  0  0  0  0  0  0  0  0
   59.1734   33.7588   50.5968 H   0  0  0  0  0  0  0  0  0  0  0  0
   58.2531   34.1241   48.3154 H   0  0  0  0  0  0  0  0  0  0  0  0
   59.7527   35.2047   45.6205 H   0  0  0  0  0  0  0  0  0  0  0  0
   59.9912   33.4469   45.2657 H   0  0  0  0  0  0  0  0  0  0  0  0
   60.3309   29.0704   45.1554 H   0  0  0  0  0  0  0  0  0  0  0  0
   59.2268   27.1511   43.9331 H   0  0  0  0  0  0  0  0  0  0  0  0
   56.9510   27.4190   43.1290 H   0  0  0  0  0  0  0  0  0  0  0  0
   55.6464   29.4616   43.4375 H   0  0  0  0  0  0  0  0  0  0  0  0
  1  2  1  0
  2  3  2  0
  3  4  1  0
  4  5  2  0
  5  6  1  0
  6  7  2  0
  7  8  1  0
  8  9  1  0
  9 10  1  0
 10 11  2  0
 11 12  1  0
 12 13  2  0
 13 14  1  0
 14 15  2  0
 15 16  1  0
 16 17  2  0
 17 18  1  0
  7  2  1  0
 18 10  1  0
 17 12  1  0
  1 19  1  0
  1 20  1  0
  1 21  1  0
  3 22  1  0
  4 23  1  0
  5 24  1  0
  6 25  1  0
  8 26  1  0
  8 27  1  0
 13 28  1  0
 14 29  1  0
 15 30  1  0
 16 31  1  0
M  CHG  2  15   1  18  -1
M  END
>  <UniqueID>  (37) 
31

>  <SMILES>  (37) 
Cc1ccccc1CSc1nc2cc[nH+]cc2[n-]1

>  <Energy>  (37) 
65.31130321098371

>  <Genealogy>  (37) 
Cc1ccccc1CSc1nc2cc[nH+]cc2[n-]1 (protonated)
Cc1ccccc1CSc1nc2cc[nH+]cc2[n-]1 (3D coordinates assigned)
Cc1ccccc1CSc1nc2cc[nH+]cc2[n-]1 (optimized conformer: 65.31130321098371 kcal/mol)

>  <smiles>  (37) 
Cc1ccccc1CSc1nc2ccncc2[nH]1

>  <score_type>  (37) 
oracle

>  <origin>  (37) 
adg

>  <m_score__min__energy>  (37) 
-6.8499999999999996

>  <m_primary>  (37) 
energy

$$$$
37:0
     RDKit          3D

 57 60  0  0  0  0  0  0  0  0999 V2000
   60.6880   32.0250   51.2570 C   0  0  0  0  0  0  0  0  0  0  0  0
   61.8380   31.2110   51.3550 O   0  0  0  0  0  0  0  0  0  0  0  0
   62.0590   30.5230   50.1370 C   0  0  0  0  0  0  0  0  0  0  0  0
   61.1180   29.3540   49.9820 C   0  0  0  0  0  0  0  0  0  0  0  0
   61.4250   28.2420   50.4950 O   0  0  0  0  0  0  0  0  0  0  0  0
   59.8950   29.4810   49.2260 N   0  0  0  0  0  0  0  0  0  0  0  0
   58.6430   29.8740   49.8800 C   0  0  0  0  0  0  0  0  0  0  0  0
   59.8430   29.0360   47.8590 C   0  0  0  0  0  0  0  0  0  0  0  0
   60.3180   27.7570   47.5360 C   0  0  0  0  0  0  0  0  0  0  0  0
   60.1920   27.2650   46.2370 C   0  0  0  0  0  0  0  0  0  0  0  0
   59.5750   28.0350   45.2520 C   0  0  0  0  0  0  0  0  0  0  0  0
   59.0890   29.3160   45.5540 C   0  0  0  0  0  0  0  0  0  0  0  0
   58.4380   30.1470   44.4840 C   0  0  0  0  0  0  0  0  0  0  0  0
   59.2430   29.8350   46.8550 C   0  0  0  0  0  0  0  0  0  0  0  0
   58.7810   31.1330   47.1240 O   0  0  0  0  0  0  0  0  0  0  0  0
   59.4490   32.3110   46.7570 C   0  0  0  0  0  0  0  0  0  0  0  0
   58.7760   33.4120   46.1980 C   0  0  0  0  0  0  0  0  0  0  0  0
   57.0290   33.4460   45.9980 Cl  0  0  0  0  0  0  0  0  0  0  0  0
   59.5110   34.5380   45.8400 C   0  0  0  0  0  0  0  0  0  0  0  0
   60.8530   34.5560   46.0310 N   0  0  0  0  0  0  0  0  0  0  0  0
   61.5060   33.5310   46.5880 N   0  0  0  0  0  0  0  0  0  0  0  0
   62.9680   33.6140   46.6760 C   0  0  0  0  0  0  0  0  0  0  0  0
   63.3780   33.6870   48.1170 C   0  0  0  0  0  0  0  0  0  0  0  0
   62.5420   34.2840   49.0700 C   0  0  0  0  0  0  0  0  0  0  0  0
   62.8940   34.2410   50.4210 C   0  0  0  0  0  0  0  0  0  0  0  0
   64.0760   33.5990   50.8120 C   0  0  0  0  0  0  0  0  0  0  0  0
   64.4500   33.5210   52.1610 C   0  0  0  0  0  0  0  0  0  0  0  0
   65.6310   32.8620   52.5200 C   0  0  0  0  0  0  0  0  0  0  0  0
   66.4410   32.2840   51.5380 C   0  0  0  0  0  0  0  0  0  0  0  0
   66.0760   32.3600   50.1900 C   0  0  0  0  0  0  0  0  0  0  0  0
   64.8960   33.0150   49.8210 C   0  0  0  0  0  0  0  0  0  0  0  0
   64.5240   33.0670   48.5150 N   0  0  0  0  0  0  0  0  0  0  0  0
   60.8280   32.4040   46.9730 C   0  0  0  0  0  0  0  0  0  0  0  0
   61.4390   31.4350   47.5030 O   0  0  0  0  0  0  0  0  0  0  0  0
   60.3307   32.2779   52.2661 H   0  0  0  0  0  0  0  0  0  0  0  0
   60.9377   32.9486   50.7143 H   0  0  0  0  0  0  0  0  0  0  0  0
   59.8999   31.4825   50.7143 H   0  0  0  0  0  0  0  0  0  0  0  0
   61.9039   31.2197   49.3000 H   0  0  0  0  0  0  0  0  0  0  0  0
   63.0893   30.1377   50.1410 H   0  0  0  0  0  0  0  0  0  0  0  0
   58.7713   29.8337   50.9718 H   0  0  0  0  0  0  0  0  0  0  0  0
   58.3782   30.8985   49.5795 H   0  0  0  0  0  0  0  0  0  0  0  0
   57.8402   29.1846   49.5795 H   0  0  0  0  0  0  0  0  0  0  0  0
   60.7928   27.1380   48.3115 H   0  0  0  0  0  0  0  0  0  0  0  0
   60.5807   26.2663   45.9889 H   0  0  0  0  0  0  0  0  0  0  0  0
   59.4687   27.6360   44.2325 H   0  0  0  0  0  0  0  0  0  0  0  0
   57.8239   30.9309   44.9513 H   0  0  0  0  0  0  0  0  0  0  0  0
   59.2139   30.6130   43.8588 H   0  0  0  0  0  0  0  0  0  0  0  0
   57.7998   29.5053   43.8588 H   0  0  0  0  0  0  0  0  0  0  0  0
   59.0044   35.4112   45.4032 H   0  0  0  0  0  0  0  0  0  0  0  0
   63.4146   32.7221   46.2123 H   0  0  0  0  0  0  0  0  0  0  0  0
   63.3169   34.5144   46.1491 H   0  0  0  0  0  0  0  0  0  0  0  0
   61.6137   34.7837   48.7559 H   0  0  0  0  0  0  0  0  0  0  0  0
   62.2451   34.7098   51.1755 H   0  0  0  0  0  0  0  0  0  0  0  0
   63.8161   33.9770   52.9358 H   0  0  0  0  0  0  0  0  0  0  0  0
   65.9231   32.7985   53.5786 H   0  0  0  0  0  0  0  0  0  0  0  0
   67.3685   31.7677   51.8265 H   0  0  0  0  0  0  0  0  0  0  0  0
   66.7165   31.9049   49.4201 H   0  0  0  0  0  0  0  0  0  0  0  0
  1  2  1  0
  2  3  1  0
  3  4  1  0
  4  5  2  0
  4  6  1  0
  6  7  1  0
  6  8  1  0
  8  9  2  0
  9 10  1  0
 10 11  2  0
 11 12  1  0
 12 13  1  0
 12 14  2  0
 14 15  1  0
 15 16  1  0
 16 17  2  0
 17 18  1  0
 17 19  1  0
 19 20  2  0
 20 21  1  0
 21 22  1  0
 22 23  1  0
 23 24  2  0
 24 25  1  0
 25 26  2  0
 26 27  1  0
 27 28  2  0
 28 29  1  0
 29 30  2  0
 30 31  1  0
 31 32  2  0
 21 33  1  0
 33 34  2  0
 14  8  1  0
 33 16  1  0
 32 23  1  0
 31 26  1  0
  1 35  1  0
  1 36  1  0
  1 37  1  0
  3 38  1  0
  3 39  1  0
  7 40  1  0
  7 41  1  0
  7 42  1  0
  9 43  1  0
 10 44  1  0
 11 45  1  0
 13 46  1  0
 13 47  1  0
 13 48  1  0
 19 49  1  0
 22 50  1  0
 22 51  1  0
 24 52  1  0
 25 53  1  0
 27 54  1  0
 28 55  1  0
 29 56  1  0
 30 57  1  0
M  END
>  <UniqueID>  (38) 
32

>  <SMILES>  (38) 
COCC(=O)N(C)c1cccc(C)c1Oc1c(Cl)cnn(Cc2ccc3ccccc3n2)c1=O

>  <Energy>  (38) 
75.65929341991045

>  <Genealogy>  (38) 
COCC(=O)N(C)c1cccc(C)c1Oc1c(Cl)cnn(Cc2ccc3ccccc3n2)c1=O (3D coordinates assigned)
COCC(=O)N(C)c1cccc(C)c1Oc1c(Cl)cnn(Cc2ccc3ccccc3n2)c1=O (optimized conformer: 75.65929341991045 kcal/mol)

>  <smiles>  (38) 
COCC(=O)N(C)c1cccc(C)c1Oc1c(Cl)cnn(Cc2ccc3ccccc3n2)c1=O

>  <score_type>  (38) 
oracle

>  <origin>  (38) 
adg

>  <m_score__min__energy>  (38) 
-9.2599999999999998

>  <m_primary>  (38) 
energy

$$$$
38:0
     RDKit          3D

 34 35  0  0  0  0  0  0  0  0999 V2000
   56.3400   24.4960   44.5410 C   0  0  0  0  0  0  0  0  0  0  0  0
   55.8710   25.7090   45.7590 S   0  0  0  0  0  0  0  0  0  0  0  0
   54.3920   25.9450   45.6470 O   0  0  0  0  0  0  0  0  0  0  0  0
   56.1790   25.2110   47.1420 O   0  0  0  0  0  0  0  0  0  0  0  0
   56.7020   27.2070   45.4680 N   0  0  0  0  0  0  0  0  0  0  0  0
   57.9740   27.5500   46.0530 C   0  0  0  0  0  0  0  0  0  0  0  0
   58.4190   26.9290   47.2350 C   0  0  0  0  0  0  0  0  0  0  0  0
   59.6450   27.2770   47.8030 C   0  0  0  0  0  0  0  0  0  0  0  0
   60.4420   28.2510   47.2050 C   0  0  0  0  0  0  0  0  0  0  0  0
   60.0150   28.8840   46.0390 C   0  0  0  0  0  0  0  0  0  0  0  0
   58.7780   28.5470   45.4540 C   0  0  0  0  0  0  0  0  0  0  0  0
   58.3250   29.1860   44.2510 N   0  0  0  0  0  0  0  0  0  0  0  0
   57.1260   30.4370   44.1640 S   0  0  0  0  0  0  0  0  0  0  0  0
   56.8080   30.7130   42.7220 O   0  0  0  0  0  0  0  0  0  0  0  0
   55.8790   29.9720   44.8610 O   0  0  0  0  0  0  0  0  0  0  0  0
   57.7130   31.8930   44.9620 C   0  0  0  0  0  0  0  0  0  0  0  0
   58.1140   31.8530   46.3060 C   0  0  0  0  0  0  0  0  0  0  0  0
   58.5720   33.0140   46.9360 C   0  0  0  0  0  0  0  0  0  0  0  0
   58.6350   34.2180   46.2280 C   0  0  0  0  0  0  0  0  0  0  0  0
   58.2420   34.2610   44.8860 C   0  0  0  0  0  0  0  0  0  0  0  0
   57.7840   33.1010   44.2540 C   0  0  0  0  0  0  0  0  0  0  0  0
   56.6922   23.5852   45.0473 H   0  0  0  0  0  0  0  0  0  0  0  0
   55.4710   24.2531   43.9119 H   0  0  0  0  0  0  0  0  0  0  0  0
   57.1464   24.9009   43.9119 H   0  0  0  0  0  0  0  0  0  0  0  0
   56.2750   27.8360   44.7520 H   0  0  0  0  0  0  0  0  0  0  0  0
   57.7942   26.1618   47.7157 H   0  0  0  0  0  0  0  0  0  0  0  0
   59.9831   26.7813   48.7249 H   0  0  0  0  0  0  0  0  0  0  0  0
   61.4094   28.5207   47.6537 H   0  0  0  0  0  0  0  0  0  0  0  0
   60.6484   29.6525   45.5718 H   0  0  0  0  0  0  0  0  0  0  0  0
   58.0679   30.9067   46.8649 H   0  0  0  0  0  0  0  0  0  0  0  0
   58.8833   32.9802   47.9905 H   0  0  0  0  0  0  0  0  0  0  0  0
   58.9934   35.1310   46.7259 H   0  0  0  0  0  0  0  0  0  0  0  0
   58.2933   35.2076   44.3280 H   0  0  0  0  0  0  0  0  0  0  0  0
   57.4784   33.1363   43.1979 H   0  0  0  0  0  0  0  0  0  0  0  0
  1  2  1  0
  2  3  2  0
  2  4  2  0
  2  5  1  0
  5  6  1  0
  6  7  2  0
  7  8  1  0
  8  9  2  0
  9 10  1  0
 10 11  2  0
 11 12  1  0
 12 13  1  0
 13 14  2  0
 13 15  2  0
 13 16  1  0
 16 17  2  0
 17 18  1  0
 18 19  2  0
 19 20  1  0
 20 21  2  0
 11  6  1  0
 21 16  1  0
  1 22  1  0
  1 23  1  0
  1 24  1  0
  5 25  1  0
  7 26  1  0
  8 27  1  0
  9 28  1  0
 10 29  1  0
 17 30  1  0
 18 31  1  0
 19 32  1  0
 20 33  1  0
 21 34  1  0
M  CHG  1  12  -1
M  END
>  <UniqueID>  (39) 
33

>  <SMILES>  (39) 
CS(=O)(=O)Nc1ccccc1[N-]S(=O)(=O)c1ccccc1

>  <Energy>  (39) 
37.47573201071149

>  <Genealogy>  (39) 
CS(=O)(=O)Nc1ccccc1[N-]S(=O)(=O)c1ccccc1 (protonated)
CS(=O)(=O)Nc1ccccc1[N-]S(=O)(=O)c1ccccc1 (3D coordinates assigned)
CS(=O)(=O)Nc1ccccc1[N-]S(=O)(=O)c1ccccc1 (optimized conformer: 37.47573201071149 kcal/mol)

>  <smiles>  (39) 
CS(=O)(=O)Nc1ccccc1NS(=O)(=O)c1ccccc1

>  <score_type>  (39) 
oracle

>  <origin>  (39) 
adg

>  <m_score__min__energy>  (39) 
-9.7300000000000004

>  <m_primary>  (39) 
energy

$$$$
39:0
     RDKit          3D

 51 54  0  0  0  0  0  0  0  0999 V2000
   54.3260   26.7430   46.7560 H   0  0  0  0  0  0  0  0  0  0  0  0
   55.2070   26.3530   46.3500 N   0  0  0  0  0  0  0  0  0  0  0  0
   56.1740   27.1060   45.9330 C   0  0  0  0  0  0  0  0  0  0  0  0
   55.8860   28.2370   45.2450 N   0  0  0  0  0  0  0  0  0  0  0  0
   56.8460   29.0830   44.7840 C   0  0  0  0  0  0  0  0  0  0  0  0
   56.3950   30.2950   44.0190 C   0  0  0  0  0  0  0  0  0  0  0  0
   56.1008   31.0856   44.7249 H   0  0  0  0  0  0  0  0  0  0  0  0
   57.2188   30.6566   43.3860 H   0  0  0  0  0  0  0  0  0  0  0  0
   55.5353   30.0301   43.3860 H   0  0  0  0  0  0  0  0  0  0  0  0
   58.2170   28.7940   45.0240 C   0  0  0  0  0  0  0  0  0  0  0  0
   59.3170   29.7340   44.5510 C   0  0  0  0  0  0  0  0  0  0  0  0
   60.1631   29.1387   44.1772 H   0  0  0  0  0  0  0  0  0  0  0  0
   58.9132   30.3728   43.7517 H   0  0  0  0  0  0  0  0  0  0  0  0
   59.7790   30.5890   45.6430 N   0  0  0  0  0  0  0  0  0  0  0  0
   60.6800   30.3420   46.1100 H   0  0  0  0  0  0  0  0  0  0  0  0
   59.0420   31.7370   46.0900 C   0  0  0  0  0  0  0  0  0  0  0  0
   58.0950   32.1890   45.3910 O   0  0  0  0  0  0  0  0  0  0  0  0
   59.3730   32.3930   47.3660 C   0  0  0  0  0  0  0  0  0  0  0  0
   58.4920   32.7320   48.3780 C   0  0  0  0  0  0  0  0  0  0  0  0
   57.4008   32.5973   48.3442 H   0  0  0  0  0  0  0  0  0  0  0  0
   59.1820   33.2530   49.4110 N   0  0  0  0  0  0  0  0  0  0  0  0
   60.4620   33.2610   49.0730 N   0  0  0  0  0  0  0  0  0  0  0  0
   61.5370   33.6650   49.9720 C   0  0  0  0  0  0  0  0  0  0  0  0
   62.1902   34.3865   49.4595 H   0  0  0  0  0  0  0  0  0  0  0  0
   61.1047   34.1304   50.8701 H   0  0  0  0  0  0  0  0  0  0  0  0
   62.3410   32.4620   50.3740 C   0  0  0  0  0  0  0  0  0  0  0  0
   61.7140   31.3020   50.8810 C   0  0  0  0  0  0  0  0  0  0  0  0
   60.6165   31.2573   50.9392 H   0  0  0  0  0  0  0  0  0  0  0  0
   62.4830   30.1990   51.3140 C   0  0  0  0  0  0  0  0  0  0  0  0
   61.9800   29.2990   51.6975 H   0  0  0  0  0  0  0  0  0  0  0  0
   63.8870   30.2440   51.2580 C   0  0  0  0  0  0  0  0  0  0  0  0
   64.4968   29.3924   51.5939 H   0  0  0  0  0  0  0  0  0  0  0  0
   64.4800   31.4030   50.7630 C   0  0  0  0  0  0  0  0  0  0  0  0
   65.8010   31.7560   50.6010 C   0  0  0  0  0  0  0  0  0  0  0  0
   67.0100   30.9620   50.9770 C   0  0  0  0  0  0  0  0  0  0  0  0
   67.0885   30.9104   52.0730 H   0  0  0  0  0  0  0  0  0  0  0  0
   66.9226   29.9449   50.5674 H   0  0  0  0  0  0  0  0  0  0  0  0
   67.9087   31.4463   50.5674 H   0  0  0  0  0  0  0  0  0  0  0  0
   65.7750   33.0530   50.1020 C   0  0  0  0  0  0  0  0  0  0  0  0
   66.6637   33.6562   49.8647 H   0  0  0  0  0  0  0  0  0  0  0  0
   64.5250   33.4540   49.9550 O   0  0  0  0  0  0  0  0  0  0  0  0
   63.7390   32.4770   50.3450 C   0  0  0  0  0  0  0  0  0  0  0  0
   60.6210   32.7360   47.8440 C   0  0  0  0  0  0  0  0  0  0  0  0
   61.5762   32.6039   47.3147 H   0  0  0  0  0  0  0  0  0  0  0  0
   58.5380   27.5920   45.7110 C   0  0  0  0  0  0  0  0  0  0  0  0
   59.9620   27.1920   46.0130 C   0  0  0  0  0  0  0  0  0  0  0  0
   60.1081   27.1510   47.1025 H   0  0  0  0  0  0  0  0  0  0  0  0
   60.1649   26.2021   45.5783 H   0  0  0  0  0  0  0  0  0  0  0  0
   60.6506   27.9315   45.5783 H   0  0  0  0  0  0  0  0  0  0  0  0
   57.5060   26.7660   46.1780 C   0  0  0  0  0  0  0  0  0  0  0  0
   57.7456   25.8498   46.7376 H   0  0  0  0  0  0  0  0  0  0  0  0
  1  2  1  0
  2  3  2  0
  3  4  1  0
  4  5  1  0
  5  6  1  0
  6  7  1  0
  6  8  1  0
  6  9  1  0
  5 10  2  0
 10 11  1  0
 11 12  1  0
 11 13  1  0
 11 14  1  0
 14 15  1  0
 14 16  1  0
 16 17  2  0
 16 18  1  0
 18 19  1  0
 19 20  1  0
 19 21  2  0
 21 22  1  0
 22 23  1  0
 23 24  1  0
 23 25  1  0
 23 26  1  0
 26 27  2  0
 27 28  1  0
 27 29  1  0
 29 30  1  0
 29 31  2  0
 31 32  1  0
 31 33  1  0
 33 34  1  0
 34 35  1  0
 35 36  1  0
 35 37  1  0
 35 38  1  0
 34 39  2  0
 39 40  1  0
 39 41  1  0
 41 42  1  0
 22 43  1  0
 43 44  1  0
 10 45  1  0
 45 46  1  0
 46 47  1  0
 46 48  1  0
 46 49  1  0
 45 50  2  0
 50 51  1  0
 50  3  1  0
 43 18  2  0
 42 26  1  0
 42 33  2  0
M  CHG  1   4  -1
M  END
>  <UniqueID>  (40) 
34

>  <SMILES>  (40) 
[H]/N=c1\cc(C)c(CNC(=O)c2cnn(Cc3cccc4c(C)coc34)c2)c(C)[n-]1

>  <Energy>  (40) 
116.32441038051452

>  <Genealogy>  (40) 
Cc1cc(=N)[n-]c(C)c1CNC(=O)c1cnn(Cc2cccc3c(C)coc23)c1 (protonated)
[H]/N=c1\cc(C)c(CNC(=O)c2cnn(Cc3cccc4c(C)coc34)c2)c(C)[n-]1 (cis-trans isomerization)
[H]/N=c1\cc(C)c(CNC(=O)c2cnn(Cc3cccc4c(C)coc34)c2)c(C)[n-]1 (3D coordinates assigned)
[H]/N=c1\cc(C)c(CNC(=O)c2cnn(Cc3cccc4c(C)coc34)c2)c(C)[n-]1 (optimized conformer: 116.32441038051452 kcal/mol)

>  <smiles>  (40) 
Cc1cc(=N)[nH]c(C)c1CNC(=O)c1cnn(Cc2cccc3c(C)coc23)c1

>  <score_type>  (40) 
oracle

>  <origin>  (40) 
adg

>  <m_score__min__energy>  (40) 
-10.44

>  <m_primary>  (40) 
energy

$$$$
40:0
     RDKit          3D

 28 29  0  0  0  0  0  0  0  0999 V2000
   53.4450   23.0320   46.3820 C   0  0  0  0  0  0  0  0  0  0  0  0
   53.6750   24.3130   45.7240 N   0  0  0  0  0  0  0  0  0  0  0  0
   54.9770   24.8650   45.4800 C   0  0  0  0  0  0  0  0  0  0  0  0
   55.3830   25.9960   45.9970 O   0  0  0  0  0  0  0  0  0  0  0  0
   56.6130   26.1990   45.5700 C   0  0  0  0  0  0  0  0  0  0  0  0
   57.4350   27.3790   45.9310 C   0  0  0  0  0  0  0  0  0  0  0  0
   58.6590   27.1890   46.5980 C   0  0  0  0  0  0  0  0  0  0  0  0
   59.4540   28.2810   46.9510 C   0  0  0  0  0  0  0  0  0  0  0  0
   59.0410   29.5740   46.6430 C   0  0  0  0  0  0  0  0  0  0  0  0
   57.8310   29.7850   45.9820 C   0  0  0  0  0  0  0  0  0  0  0  0
   57.0140   28.6940   45.6170 C   0  0  0  0  0  0  0  0  0  0  0  0
   55.7930   28.8870   44.9500 O   0  0  0  0  0  0  0  0  0  0  0  0
   55.6080   29.7400   43.8240 C   0  0  0  0  0  0  0  0  0  0  0  0
   57.0470   25.2050   44.7580 N   0  0  0  0  0  0  0  0  0  0  0  0
   56.0020   24.3590   44.7040 C   0  0  0  0  0  0  0  0  0  0  0  0
   56.0190   23.1400   43.9420 C   0  0  0  0  0  0  0  0  0  0  0  0
   56.0300   22.1590   43.3270 N   0  0  0  0  0  0  0  0  0  0  0  0
   53.4699   23.1705   47.4730 H   0  0  0  0  0  0  0  0  0  0  0  0
   52.4618   22.6384   46.0847 H   0  0  0  0  0  0  0  0  0  0  0  0
   54.2298   22.3209   46.0847 H   0  0  0  0  0  0  0  0  0  0  0  0
   52.8440   24.8630   45.4110 H   0  0  0  0  0  0  0  0  0  0  0  0
   58.9929   26.1701   46.8438 H   0  0  0  0  0  0  0  0  0  0  0  0
   60.4084   28.1193   47.4734 H   0  0  0  0  0  0  0  0  0  0  0  0
   59.6706   30.4319   46.9217 H   0  0  0  0  0  0  0  0  0  0  0  0
   57.5111   30.8101   45.7434 H   0  0  0  0  0  0  0  0  0  0  0  0
   55.3867   30.7606   44.1696 H   0  0  0  0  0  0  0  0  0  0  0  0
   56.5250   29.7494   43.2165 H   0  0  0  0  0  0  0  0  0  0  0  0
   54.7695   29.3687   43.2165 H   0  0  0  0  0  0  0  0  0  0  0  0
  1  2  1  0
  2  3  1  0
  3  4  1  0
  4  5  1  0
  5  6  1  0
  6  7  2  0
  7  8  1  0
  8  9  2  0
  9 10  1  0
 10 11  2  0
 11 12  1  0
 12 13  1  0
  5 14  2  0
 14 15  1  0
 15 16  1  0
 16 17  3  0
 15  3  2  0
 11  6  1  0
  1 18  1  0
  1 19  1  0
  1 20  1  0
  2 21  1  0
  7 22  1  0
  8 23  1  0
  9 24  1  0
 10 25  1  0
 13 26  1  0
 13 27  1  0
 13 28  1  0
M  END
>  <UniqueID>  (41) 
35

>  <SMILES>  (41) 
CNc1oc(-c2ccccc2OC)nc1C#N

>  <Energy>  (41) 
58.07496558525199

>  <Genealogy>  (41) 
CNc1oc(-c2ccccc2OC)nc1C#N (3D coordinates assigned)
CNc1oc(-c2ccccc2OC)nc1C#N (optimized conformer: 58.07496558525199 kcal/mol)

>  <smiles>  (41) 
CNc1oc(-c2ccccc2OC)nc1C#N

>  <score_type>  (41) 
oracle

>  <origin>  (41) 
adg

>  <m_score__min__energy>  (41) 
-5.75

>  <m_primary>  (41) 
energy

$$$$
41:0
     RDKit          3D

 48 50  0  0  0  0  0  0  0  0999 V2000
   56.9470   22.9810   43.5630 C   0  0  0  0  0  0  0  0  0  0  0  0
   57.6660   22.3650   44.5110 C   0  0  0  0  0  0  0  0  0  0  0  0
   57.1230   21.1220   45.1620 C   0  0  0  0  0  0  0  0  0  0  0  0
   59.0380   22.8750   44.8880 C   0  0  0  0  0  0  0  0  0  0  0  0
   58.9620   23.7580   46.0070 O   0  0  0  0  0  0  0  0  0  0  0  0
   58.6280   25.1210   45.9450 C   0  0  0  0  0  0  0  0  0  0  0  0
   59.5910   26.1430   46.0170 C   0  0  0  0  0  0  0  0  0  0  0  0
   59.2050   27.4820   45.9240 C   0  0  0  0  0  0  0  0  0  0  0  0
   57.8570   27.8250   45.7530 C   0  0  0  0  0  0  0  0  0  0  0  0
   57.5110   29.2470   45.5580 C   0  0  0  0  0  0  0  0  0  0  0  0
   56.4620   29.6530   44.8170 N   0  0  0  0  0  0  0  0  0  0  0  0
   56.4240   30.9770   44.8320 N   0  0  0  0  0  0  0  0  0  0  0  0
   57.4430   31.4300   45.5850 C   0  0  0  0  0  0  0  0  0  0  0  0
   58.1560   30.3590   46.0840 C   0  0  0  0  0  0  0  0  0  0  0  0
   59.3140   30.4210   47.0090 C   0  0  0  0  0  0  0  0  0  0  0  0
   59.2430   29.7980   48.2620 C   0  0  0  0  0  0  0  0  0  0  0  0
   60.3190   29.8670   49.1500 C   0  0  0  0  0  0  0  0  0  0  0  0
   61.4890   30.5640   48.7980 C   0  0  0  0  0  0  0  0  0  0  0  0
   62.5870   30.6660   49.6680 O   0  0  0  0  0  0  0  0  0  0  0  0
   63.0730   31.8890   50.2120 C   0  0  0  0  0  0  0  0  0  0  0  0
   61.5750   31.1840   47.5420 C   0  0  0  0  0  0  0  0  0  0  0  0
   62.7480   31.8850   47.2200 O   0  0  0  0  0  0  0  0  0  0  0  0
   62.8130   33.2900   46.9990 C   0  0  0  0  0  0  0  0  0  0  0  0
   60.4930   31.0920   46.6460 C   0  0  0  0  0  0  0  0  0  0  0  0
   56.8800   26.8040   45.7320 C   0  0  0  0  0  0  0  0  0  0  0  0
   55.5150   27.0830   45.6500 O   0  0  0  0  0  0  0  0  0  0  0  0
   57.2780   25.4650   45.8110 C   0  0  0  0  0  0  0  0  0  0  0  0
   57.3360   23.8903   43.0815 H   0  0  0  0  0  0  0  0  0  0  0  0
   55.9677   22.5774   43.2662 H   0  0  0  0  0  0  0  0  0  0  0  0
   57.1703   21.2303   46.2556 H   0  0  0  0  0  0  0  0  0  0  0  0
   56.0778   20.9730   44.8532 H   0  0  0  0  0  0  0  0  0  0  0  0
   57.7239   20.2539   44.8532 H   0  0  0  0  0  0  0  0  0  0  0  0
   59.6816   22.0210   45.1458 H   0  0  0  0  0  0  0  0  0  0  0  0
   59.4561   23.4259   44.0326 H   0  0  0  0  0  0  0  0  0  0  0  0
   60.6528   25.8869   46.1471 H   0  0  0  0  0  0  0  0  0  0  0  0
   59.9656   28.2742   45.9855 H   0  0  0  0  0  0  0  0  0  0  0  0
   57.6721   32.4892   45.7735 H   0  0  0  0  0  0  0  0  0  0  0  0
   58.3330   29.2504   48.5486 H   0  0  0  0  0  0  0  0  0  0  0  0
   60.2510   29.3732   50.1306 H   0  0  0  0  0  0  0  0  0  0  0  0
   63.0518   31.8357   51.3105 H   0  0  0  0  0  0  0  0  0  0  0  0
   64.1060   32.0563   49.8729 H   0  0  0  0  0  0  0  0  0  0  0  0
   62.4366   32.7197   49.8729 H   0  0  0  0  0  0  0  0  0  0  0  0
   62.8372   33.8126   47.9666 H   0  0  0  0  0  0  0  0  0  0  0  0
   63.7232   33.5299   46.4298 H   0  0  0  0  0  0  0  0  0  0  0  0
   61.9288   33.6129   46.4298 H   0  0  0  0  0  0  0  0  0  0  0  0
   60.5721   31.5512   45.6496 H   0  0  0  0  0  0  0  0  0  0  0  0
   55.1470   27.8810   45.1490 H   0  0  0  0  0  0  0  0  0  0  0  0
   56.5184   24.6706   45.7671 H   0  0  0  0  0  0  0  0  0  0  0  0
  1  2  2  0
  2  3  1  0
  2  4  1  0
  4  5  1  0
  5  6  1  0
  6  7  2  0
  7  8  1  0
  8  9  2  0
  9 10  1  0
 10 11  2  0
 11 12  1  0
 12 13  1  0
 13 14  2  0
 14 15  1  0
 15 16  2  0
 16 17  1  0
 17 18  2  0
 18 19  1  0
 19 20  1  0
 18 21  1  0
 21 22  1  0
 22 23  1  0
 21 24  2  0
  9 25  1  0
 25 26  1  0
 25 27  2  0
 27  6  1  0
 14 10  1  0
 24 15  1  0
  1 28  1  0
  1 29  1  0
  3 30  1  0
  3 31  1  0
  3 32  1  0
  4 33  1  0
  4 34  1  0
  7 35  1  0
  8 36  1  0
 13 37  1  0
 16 38  1  0
 17 39  1  0
 20 40  1  0
 20 41  1  0
 20 42  1  0
 23 43  1  0
 23 44  1  0
 23 45  1  0
 24 46  1  0
 26 47  1  0
 27 48  1  0
M  CHG  1  12  -1
M  END
>  <UniqueID>  (42) 
36

>  <SMILES>  (42) 
C=C(C)COc1ccc(-c2n[n-]cc2-c2ccc(OC)c(OC)c2)c(O)c1

>  <Energy>  (42) 
83.44613964004684

>  <Genealogy>  (42) 
C=C(C)COc1ccc(-c2n[n-]cc2-c2ccc(OC)c(OC)c2)c(O)c1 (protonated)
C=C(C)COc1ccc(-c2n[n-]cc2-c2ccc(OC)c(OC)c2)c(O)c1 (3D coordinates assigned)
C=C(C)COc1ccc(-c2n[n-]cc2-c2ccc(OC)c(OC)c2)c(O)c1 (optimized conformer: 83.44613964004684 kcal/mol)

>  <smiles>  (42) 
C=C(C)COc1ccc(-c2n[nH]cc2-c2ccc(OC)c(OC)c2)c(O)c1

>  <score_type>  (42) 
oracle

>  <origin>  (42) 
adg

>  <m_score__min__energy>  (42) 
-9.5

>  <m_primary>  (42) 
energy

$$$$
42:0
     RDKit          3D

 44 46  0  0  0  0  0  0  0  0999 V2000
   57.0350   27.4770   46.6410 O   0  0  0  0  0  0  0  0  0  0  0  0
   57.6400   28.4980   46.2150 C   0  0  0  0  0  0  0  0  0  0  0  0
   58.9510   28.7430   46.6180 C   0  0  0  0  0  0  0  0  0  0  0  0
   59.6040   29.8850   46.1430 C   0  0  0  0  0  0  0  0  0  0  0  0
   61.0060   30.1920   46.5660 C   0  0  0  0  0  0  0  0  0  0  0  0
   61.0820   30.4300   48.3310 Cl  0  0  0  0  0  0  0  0  0  0  0  0
   58.9780   30.7090   45.3050 O   0  0  0  0  0  0  0  0  0  0  0  0
   57.7280   30.5140   44.8890 C   0  0  0  0  0  0  0  0  0  0  0  0
   57.1100   31.5200   43.9440 C   0  0  0  0  0  0  0  0  0  0  0  0
   57.3220   32.9200   44.3710 N   0  0  0  0  0  0  0  0  0  0  0  0
   56.7900   33.2460   45.7180 C   0  0  0  0  0  0  0  0  0  0  0  0
   57.8670   33.2060   46.8190 C   0  0  0  0  0  0  0  0  0  0  0  0
   59.1090   33.8640   46.3900 N   0  0  0  0  0  0  0  0  0  0  0  0
   60.2920   33.7640   47.2070 C   0  0  0  0  0  0  0  0  0  0  0  0
   61.5560   33.5900   46.6190 C   0  0  0  0  0  0  0  0  0  0  0  0
   62.7020   33.4890   47.4130 C   0  0  0  0  0  0  0  0  0  0  0  0
   62.6070   33.5470   48.8140 C   0  0  0  0  0  0  0  0  0  0  0  0
   63.7880   33.4340   49.6290 N   0  0  0  0  0  0  0  0  0  0  0  0
   64.6890   32.6210   49.3340 O   0  0  0  0  0  0  0  0  0  0  0  0
   63.9450   34.2210   50.7460 O   0  0  0  0  0  0  0  0  0  0  0  0
   61.3410   33.7110   49.4020 C   0  0  0  0  0  0  0  0  0  0  0  0
   60.1950   33.8170   48.6070 C   0  0  0  0  0  0  0  0  0  0  0  0
   59.1570   34.4730   45.0590 C   0  0  0  0  0  0  0  0  0  0  0  0
   58.6680   33.4480   44.0390 C   0  0  0  0  0  0  0  0  0  0  0  0
   57.0070   29.3900   45.3400 C   0  0  0  0  0  0  0  0  0  0  0  0
   55.6920   29.1770   44.9220 O   0  0  0  0  0  0  0  0  0  0  0  0
   59.4647   28.0488   47.2994 H   0  0  0  0  0  0  0  0  0  0  0  0
   61.6615   29.3548   46.2842 H   0  0  0  0  0  0  0  0  0  0  0  0
   61.3366   31.1144   46.0661 H   0  0  0  0  0  0  0  0  0  0  0  0
   57.5570   31.3858   42.9479 H   0  0  0  0  0  0  0  0  0  0  0  0
   56.0249   31.3395   43.9349 H   0  0  0  0  0  0  0  0  0  0  0  0
   56.3571   34.2568   45.6882 H   0  0  0  0  0  0  0  0  0  0  0  0
   56.0378   32.4830   45.9671 H   0  0  0  0  0  0  0  0  0  0  0  0
   57.4822   33.7192   47.7126 H   0  0  0  0  0  0  0  0  0  0  0  0
   58.0953   32.1522   47.0366 H   0  0  0  0  0  0  0  0  0  0  0  0
   61.6447   33.5327   45.5241 H   0  0  0  0  0  0  0  0  0  0  0  0
   63.6859   33.3631   46.9375 H   0  0  0  0  0  0  0  0  0  0  0  0
   61.2506   33.7564   50.4973 H   0  0  0  0  0  0  0  0  0  0  0  0
   59.2108   33.9428   49.0818 H   0  0  0  0  0  0  0  0  0  0  0  0
   58.5077   35.3606   45.0335 H   0  0  0  0  0  0  0  0  0  0  0  0
   60.1866   34.7790   44.8217 H   0  0  0  0  0  0  0  0  0  0  0  0
   58.6259   33.9263   43.0493 H   0  0  0  0  0  0  0  0  0  0  0  0
   59.3721   32.6029   44.0477 H   0  0  0  0  0  0  0  0  0  0  0  0
   55.1440   28.3880   45.2460 H   0  0  0  0  0  0  0  0  0  0  0  0
  1  2  2  0
  2  3  1  0
  3  4  2  0
  4  5  1  0
  5  6  1  0
  4  7  1  0
  7  8  1  0
  8  9  1  0
  9 10  1  0
 10 11  1  0
 11 12  1  0
 12 13  1  0
 13 14  1  0
 14 15  2  0
 15 16  1  0
 16 17  2  0
 17 18  1  0
 18 19  2  0
 18 20  1  0
 17 21  1  0
 21 22  2  0
 13 23  1  0
 23 24  1  0
  8 25  2  0
 25 26  1  0
 25  2  1  0
 24 10  1  0
 22 14  1  0
  3 27  1  0
  5 28  1  0
  5 29  1  0
  9 30  1  0
  9 31  1  0
 11 32  1  0
 11 33  1  0
 12 34  1  0
 12 35  1  0
 15 36  1  0
 16 37  1  0
 21 38  1  0
 22 39  1  0
 23 40  1  0
 23 41  1  0
 24 42  1  0
 24 43  1  0
 26 44  1  0
M  CHG  2  18   1  20  -1
M  END
>  <UniqueID>  (43) 
37

>  <SMILES>  (43) 
O=c1cc(CCl)oc(CN2CCN(c3ccc([N+](=O)[O-])cc3)CC2)c1O

>  <Energy>  (43) 
59.241525934294714

>  <Genealogy>  (43) 
O=c1cc(CCl)oc(CN2CCN(c3ccc([N+](=O)[O-])cc3)CC2)c1O (3D coordinates assigned)
O=c1cc(CCl)oc(CN2CCN(c3ccc([N+](=O)[O-])cc3)CC2)c1O (nonaromatic ring conformer: 59.241525934294714 kcal/mol)

>  <smiles>  (43) 
O=c1cc(CCl)oc(CN2CCN(c3ccc([N+](=O)[O-])cc3)CC2)c1O

>  <score_type>  (43) 
oracle

>  <origin>  (43) 
adg

>  <m_score__min__energy>  (43) 
-8.0999999999999996

>  <m_primary>  (43) 
energy

$$$$
43:0
     RDKit          3D

 53 55  0  0  0  0  0  0  0  0999 V2000
   54.8430   23.3580   45.0700 C   0  0  0  0  0  0  0  0  0  0  0  0
   55.7630   24.0830   44.0820 C   0  0  0  0  0  0  0  0  0  0  0  0
   56.3020   23.1020   43.0380 C   0  0  0  0  0  0  0  0  0  0  0  0
   56.8750   24.7170   44.7960 N   0  0  0  0  0  0  0  0  0  0  0  0
   56.6780   25.8030   45.7130 C   0  0  0  0  0  0  0  0  0  0  0  0
   55.5120   26.1950   45.9940 O   0  0  0  0  0  0  0  0  0  0  0  0
   57.8560   26.5110   46.3040 C   0  0  0  0  0  0  0  0  0  0  0  0
   57.8150   27.9690   45.9380 C   0  0  0  0  0  0  0  0  0  0  0  0
   58.4810   28.9160   46.7310 C   0  0  0  0  0  0  0  0  0  0  0  0
   58.4110   30.2760   46.4160 C   0  0  0  0  0  0  0  0  0  0  0  0
   57.6820   30.7100   45.2990 C   0  0  0  0  0  0  0  0  0  0  0  0
   57.6000   32.1160   45.0110 N   0  0  0  0  0  0  0  0  0  0  0  0
   58.5680   33.0920   45.4270 C   0  0  0  0  0  0  0  0  0  0  0  0
   58.5980   34.3790   44.8720 C   0  0  0  0  0  0  0  0  0  0  0  0
   59.5880   35.2640   45.2950 C   0  0  0  0  0  0  0  0  0  0  0  0
   59.6400   36.4300   44.8230 O   0  0  0  0  0  0  0  0  0  0  0  0
   60.5040   34.8680   46.2160 N   0  0  0  0  0  0  0  0  0  0  0  0
   60.4820   33.6090   46.7360 C   0  0  0  0  0  0  0  0  0  0  0  0
   61.4730   33.2100   47.7060 N   0  0  0  0  0  0  0  0  0  0  0  0
   61.5740   33.9510   48.9750 C   0  0  0  0  0  0  0  0  0  0  0  0
   62.5570   33.2860   49.9460 C   0  0  0  0  0  0  0  0  0  0  0  0
   63.8990   33.0100   49.2600 C   0  0  0  0  0  0  0  0  0  0  0  0
   63.7600   32.2950   47.8970 C   0  0  0  0  0  0  0  0  0  0  0  0
   62.3060   32.0160   47.4910 C   0  0  0  0  0  0  0  0  0  0  0  0
   59.5190   32.7370   46.3300 N   0  0  0  0  0  0  0  0  0  0  0  0
   56.9850   29.7650   44.5260 C   0  0  0  0  0  0  0  0  0  0  0  0
   57.0530   28.4050   44.8420 C   0  0  0  0  0  0  0  0  0  0  0  0
   55.1481   23.5984   46.0992 H   0  0  0  0  0  0  0  0  0  0  0  0
   53.8044   23.6830   44.9100 H   0  0  0  0  0  0  0  0  0  0  0  0
   54.9162   22.2722   44.9100 H   0  0  0  0  0  0  0  0  0  0  0  0
   55.1799   24.8615   43.5682 H   0  0  0  0  0  0  0  0  0  0  0  0
   56.7717   22.2470   43.5463 H   0  0  0  0  0  0  0  0  0  0  0  0
   55.4736   22.7445   42.4087 H   0  0  0  0  0  0  0  0  0  0  0  0
   57.0480   23.6095   42.4087 H   0  0  0  0  0  0  0  0  0  0  0  0
   57.8500   24.3760   44.6360 H   0  0  0  0  0  0  0  0  0  0  0  0
   57.8307   26.4092   47.3990 H   0  0  0  0  0  0  0  0  0  0  0  0
   58.7810   26.0651   45.9097 H   0  0  0  0  0  0  0  0  0  0  0  0
   59.0613   28.5862   47.6053 H   0  0  0  0  0  0  0  0  0  0  0  0
   58.9310   31.0108   47.0482 H   0  0  0  0  0  0  0  0  0  0  0  0
   56.7790   32.4570   44.4620 H   0  0  0  0  0  0  0  0  0  0  0  0
   57.8563   34.6837   44.1190 H   0  0  0  0  0  0  0  0  0  0  0  0
   61.9193   34.9738   48.7636 H   0  0  0  0  0  0  0  0  0  0  0  0
   60.5802   33.9588   49.4464 H   0  0  0  0  0  0  0  0  0  0  0  0
   62.7218   33.9530   50.8050 H   0  0  0  0  0  0  0  0  0  0  0  0
   62.1290   32.3292   50.2798 H   0  0  0  0  0  0  0  0  0  0  0  0
   64.4114   33.9699   49.0988 H   0  0  0  0  0  0  0  0  0  0  0  0
   64.4676   32.3389   49.9205 H   0  0  0  0  0  0  0  0  0  0  0  0
   64.2208   32.9280   47.1244 H   0  0  0  0  0  0  0  0  0  0  0  0
   64.2592   31.3196   47.9937 H   0  0  0  0  0  0  0  0  0  0  0  0
   62.2740   31.7390   46.4269 H   0  0  0  0  0  0  0  0  0  0  0  0
   61.9156   31.1937   48.1086 H   0  0  0  0  0  0  0  0  0  0  0  0
   56.3828   30.0976   43.6677 H   0  0  0  0  0  0  0  0  0  0  0  0
   56.5069   27.6727   44.2291 H   0  0  0  0  0  0  0  0  0  0  0  0
  1  2  1  0
  2  3  1  0
  2  4  1  0
  4  5  1  0
  5  6  2  0
  5  7  1  0
  7  8  1  0
  8  9  2  0
  9 10  1  0
 10 11  2  0
 11 12  1  0
 12 13  1  0
 13 14  2  0
 14 15  1  0
 15 16  2  0
 15 17  1  0
 17 18  2  0
 18 19  1  0
 19 20  1  0
 20 21  1  0
 21 22  1  0
 22 23  1  0
 23 24  1  0
 18 25  1  0
 11 26  1  0
 26 27  2  0
 27  8  1  0
 25 13  1  0
 24 19  1  0
  1 28  1  0
  1 29  1  0
  1 30  1  0
  2 31  1  0
  3 32  1  0
  3 33  1  0
  3 34  1  0
  4 35  1  0
  7 36  1  0
  7 37  1  0
  9 38  1  0
 10 39  1  0
 12 40  1  0
 14 41  1  0
 20 42  1  0
 20 43  1  0
 21 44  1  0
 21 45  1  0
 22 46  1  0
 22 47  1  0
 23 48  1  0
 23 49  1  0
 24 50  1  0
 24 51  1  0
 26 52  1  0
 27 53  1  0
M  CHG  1  25  -1
M  END
>  <UniqueID>  (44) 
38

>  <SMILES>  (44) 
CC(C)NC(=O)Cc1ccc(Nc2cc(=O)nc(N3CCCCC3)[n-]2)cc1

>  <Energy>  (44) 
52.29877712678306

>  <Genealogy>  (44) 
CC(C)NC(=O)Cc1ccc(Nc2cc(=O)nc(N3CCCCC3)[n-]2)cc1 (protonated)
CC(C)NC(=O)Cc1ccc(Nc2cc(=O)nc(N3CCCCC3)[n-]2)cc1 (3D coordinates assigned)
CC(C)NC(=O)Cc1ccc(Nc2cc(=O)nc(N3CCCCC3)[n-]2)cc1 (nonaromatic ring conformer: 52.29877712678306 kcal/mol)

>  <smiles>  (44) 
CC(C)NC(=O)Cc1ccc(Nc2cc(=O)nc(N3CCCCC3)[nH]2)cc1

>  <score_type>  (44) 
oracle

>  <origin>  (44) 
adg

>  <m_score__min__energy>  (44) 
-10.17

>  <m_primary>  (44) 
energy

$$$$
44:0
     RDKit          3D

 27 29  0  0  0  0  0  0  0  0999 V2000
   51.0820   32.0890   49.9960 O   0  0  0  0  0  0  0  0  0  0  0  0
   51.1530   32.0380   51.2520 C   0  0  0  0  0  0  0  0  0  0  0  0
   50.6730   33.1040   52.0020 O   0  0  0  0  0  0  0  0  0  0  0  0
   51.7370   30.8680   51.9290 C   0  0  0  0  0  0  0  0  0  0  0  0
   51.0200   29.8160   52.4910 C   0  0  0  0  0  0  0  0  0  0  0  0
   51.8610   28.9050   53.0300 N   0  0  0  0  0  0  0  0  0  0  0  0
   53.1030   29.3710   52.8150 C   0  0  0  0  0  0  0  0  0  0  0  0
   54.3000   28.7680   53.1880 C   0  0  0  0  0  0  0  0  0  0  0  0
   55.5050   29.4190   52.8650 C   0  0  0  0  0  0  0  0  0  0  0  0
   57.0150   28.6110   53.2760 Cl  0  0  0  0  0  0  0  0  0  0  0  0
   55.4850   30.6690   52.1790 C   0  0  0  0  0  0  0  0  0  0  0  0
   56.7340   31.3860   51.8380 C   0  0  0  0  0  0  0  0  0  0  0  0
   57.6580   30.8220   50.9470 C   0  0  0  0  0  0  0  0  0  0  0  0
   58.8240   31.5150   50.6170 C   0  0  0  0  0  0  0  0  0  0  0  0
   59.0530   32.7730   51.1760 C   0  0  0  0  0  0  0  0  0  0  0  0
   58.1430   33.3150   52.0280 N   0  0  0  0  0  0  0  0  0  0  0  0
   57.0000   32.6600   52.3660 C   0  0  0  0  0  0  0  0  0  0  0  0
   54.2480   31.2420   51.8080 C   0  0  0  0  0  0  0  0  0  0  0  0
   53.0730   30.5660   52.1450 C   0  0  0  0  0  0  0  0  0  0  0  0
   49.9229   29.7368   52.4960 H   0  0  0  0  0  0  0  0  0  0  0  0
   51.5950   28.0190   53.5140 H   0  0  0  0  0  0  0  0  0  0  0  0
   54.3044   27.8064   53.7221 H   0  0  0  0  0  0  0  0  0  0  0  0
   57.4639   29.8324   50.5075 H   0  0  0  0  0  0  0  0  0  0  0  0
   59.5549   31.0739   49.9233 H   0  0  0  0  0  0  0  0  0  0  0  0
   59.9705   33.3264   50.9270 H   0  0  0  0  0  0  0  0  0  0  0  0
   56.2820   33.1293   53.0547 H   0  0  0  0  0  0  0  0  0  0  0  0
   54.2111   32.1986   51.2662 H   0  0  0  0  0  0  0  0  0  0  0  0
  1  2  2  0
  2  3  1  0
  2  4  1  0
  4  5  2  0
  5  6  1  0
  6  7  1  0
  7  8  2  0
  8  9  1  0
  9 10  1  0
  9 11  2  0
 11 12  1  0
 12 13  2  0
 13 14  1  0
 14 15  2  0
 15 16  1  0
 16 17  2  0
 11 18  1  0
 18 19  2  0
 19  4  1  0
 19  7  1  0
 17 12  1  0
  5 20  1  0
  6 21  1  0
  8 22  1  0
 13 23  1  0
 14 24  1  0
 15 25  1  0
 17 26  1  0
 18 27  1  0
M  CHG  1   3  -1
M  END
>  <UniqueID>  (45) 
39

>  <SMILES>  (45) 
O=C([O-])c1c[nH]c2cc(Cl)c(-c3cccnc3)cc12

>  <Energy>  (45) 
71.52731430212833

>  <Genealogy>  (45) 
O=C([O-])c1c[nH]c2cc(Cl)c(-c3cccnc3)cc12 (protonated)
O=C([O-])c1c[nH]c2cc(Cl)c(-c3cccnc3)cc12 (3D coordinates assigned)
O=C([O-])c1c[nH]c2cc(Cl)c(-c3cccnc3)cc12 (optimized conformer: 71.52731430212833 kcal/mol)

>  <smiles>  (45) 
O=C(O)c1c[nH]c2cc(Cl)c(-c3cccnc3)cc12

>  <score_type>  (45) 
oracle

>  <origin>  (45) 
adg

>  <m_score__min__energy>  (45) 
-9.75

>  <m_primary>  (45) 
energy

$$$$
45:0
     RDKit          3D

 41 43  0  0  0  0  0  0  0  0999 V2000
   61.3879   27.7840   46.2110 H   0  0  0  0  0  0  0  0  0  0  0  0
   60.3860   28.1540   45.9480 C   0  0  0  0  0  0  0  0  0  0  0  0
   59.3000   27.2790   45.9470 C   0  0  0  0  0  0  0  0  0  0  0  0
   59.4550   26.2222   46.2101 H   0  0  0  0  0  0  0  0  0  0  0  0
   58.0080   27.7290   45.6140 C   0  0  0  0  0  0  0  0  0  0  0  0
   56.8820   26.7270   45.6330 C   0  0  0  0  0  0  0  0  0  0  0  0
   56.6179   26.4920   46.6746 H   0  0  0  0  0  0  0  0  0  0  0  0
   56.0062   27.1499   45.1191 H   0  0  0  0  0  0  0  0  0  0  0  0
   57.2003   25.8080   45.1191 H   0  0  0  0  0  0  0  0  0  0  0  0
   57.8200   29.1020   45.2740 C   0  0  0  0  0  0  0  0  0  0  0  0
   56.5780   29.6840   44.9180 C   0  0  0  0  0  0  0  0  0  0  0  0
   55.5180   29.0060   44.8800 O   0  0  0  0  0  0  0  0  0  0  0  0
   56.5060   30.9750   44.6130 O   0  0  0  0  0  0  0  0  0  0  0  0
   57.5640   31.7730   44.6230 C   0  0  0  0  0  0  0  0  0  0  0  0
   57.4170   33.0260   44.3040 N   0  0  0  0  0  0  0  0  0  0  0  0
   57.3300   34.1390   45.2530 C   0  0  0  0  0  0  0  0  0  0  0  0
   56.9945   35.0400   44.7185 H   0  0  0  0  0  0  0  0  0  0  0  0
   56.6152   33.8659   46.0432 H   0  0  0  0  0  0  0  0  0  0  0  0
   58.6890   34.4230   45.9070 C   0  0  0  0  0  0  0  0  0  0  0  0
   59.4843   34.0899   45.2239 H   0  0  0  0  0  0  0  0  0  0  0  0
   58.7439   35.5044   46.1006 H   0  0  0  0  0  0  0  0  0  0  0  0
   58.8640   33.7030   47.2520 C   0  0  0  0  0  0  0  0  0  0  0  0
   58.3172   34.2552   48.0305 H   0  0  0  0  0  0  0  0  0  0  0  0
   58.4689   32.6807   47.1588 H   0  0  0  0  0  0  0  0  0  0  0  0
   60.2910   33.6270   47.6240 N   0  0  0  0  0  0  0  0  0  0  0  0
   60.7460   32.2510   47.8750 C   0  0  0  0  0  0  0  0  0  0  0  0
   60.6544   32.0141   48.9453 H   0  0  0  0  0  0  0  0  0  0  0  0
   60.1344   31.5310   47.3115 H   0  0  0  0  0  0  0  0  0  0  0  0
   62.2070   32.1680   47.4460 C   0  0  0  0  0  0  0  0  0  0  0  0
   62.8587   32.0530   48.3246 H   0  0  0  0  0  0  0  0  0  0  0  0
   62.3897   31.3019   46.7929 H   0  0  0  0  0  0  0  0  0  0  0  0
   62.5020   33.4770   46.7360 C   0  0  0  0  0  0  0  0  0  0  0  0
   63.1558   34.1126   47.3513 H   0  0  0  0  0  0  0  0  0  0  0  0
   63.0248   33.3221   45.7806 H   0  0  0  0  0  0  0  0  0  0  0  0
   61.1470   34.1300   46.5470 C   0  0  0  0  0  0  0  0  0  0  0  0
   61.2394   35.2241   46.6141 H   0  0  0  0  0  0  0  0  0  0  0  0
   60.7250   33.8935   45.5591 H   0  0  0  0  0  0  0  0  0  0  0  0
   58.7830   31.2770   44.9610 N   0  0  0  0  0  0  0  0  0  0  0  0
   58.9360   29.9710   45.2820 C   0  0  0  0  0  0  0  0  0  0  0  0
   60.2060   29.4950   45.6170 C   0  0  0  0  0  0  0  0  0  0  0  0
   61.0660   30.1809   45.6194 H   0  0  0  0  0  0  0  0  0  0  0  0
  1  2  1  0
  2  3  2  0
  3  4  1  0
  3  5  1  0
  5  6  1  0
  6  7  1  0
  6  8  1  0
  6  9  1  0
  5 10  2  0
 10 11  1  0
 11 12  2  0
 11 13  1  0
 13 14  1  0
 14 15  2  0
 15 16  1  0
 16 17  1  0
 16 18  1  0
 16 19  1  0
 19 20  1  0
 19 21  1  0
 19 22  1  0
 22 23  1  0
 22 24  1  0
 22 25  1  0
 25 26  1  0
 26 27  1  0
 26 28  1  0
 26 29  1  0
 29 30  1  0
 29 31  1  0
 29 32  1  0
 32 33  1  0
 32 34  1  0
 32 35  1  0
 35 36  1  0
 35 37  1  0
 14 38  1  0
 38 39  1  0
 39 40  2  0
 40 41  1  0
 40  2  1  0
 39 10  1  0
 35 25  1  0
M  CHG  1  38  -1
M  END
>  <UniqueID>  (46) 
40

>  <SMILES>  (46) 
Cc1cccc2[n-]/c(=N\CCCN3CCCC3)oc(=O)c12

>  <Energy>  (46) 
49.82974926109944

>  <Genealogy>  (46) 
Cc1cccc2[n-]c(=NCCCN3CCCC3)oc(=O)c12 (protonated)
Cc1cccc2[n-]/c(=N\CCCN3CCCC3)oc(=O)c12 (cis-trans isomerization)
Cc1cccc2[n-]/c(=N\CCCN3CCCC3)oc(=O)c12 (3D coordinates assigned)
Cc1cccc2[n-]/c(=N\CCCN3CCCC3)oc(=O)c12 (nonaromatic ring conformer: 49.82974926109944 kcal/mol)

>  <smiles>  (46) 
Cc1cccc2[nH]c(=NCCCN3CCCC3)oc(=O)c12

>  <score_type>  (46) 
oracle

>  <origin>  (46) 
adg

>  <m_score__min__energy>  (46) 
-9.4900000000000002

>  <m_primary>  (46) 
energy

$$$$
46:0
     RDKit          3D

 56 57  0  0  0  0  0  0  0  0999 V2000
   56.2940   29.6580   42.8470 C   0  0  0  0  0  0  0  0  0  0  0  0
   55.4890   30.0520   44.0750 C   0  0  0  0  0  0  0  0  0  0  0  0
   56.1270   29.5450   45.2440 O   0  0  0  0  0  0  0  0  0  0  0  0
   57.4800   29.1740   45.3170 C   0  0  0  0  0  0  0  0  0  0  0  0
   57.8950   27.8410   45.1180 C   0  0  0  0  0  0  0  0  0  0  0  0
   59.2450   27.4990   45.2160 C   0  0  0  0  0  0  0  0  0  0  0  0
   60.1930   28.4750   45.5140 C   0  0  0  0  0  0  0  0  0  0  0  0
   59.7970   29.7990   45.7100 C   0  0  0  0  0  0  0  0  0  0  0  0
   58.4430   30.1650   45.5950 C   0  0  0  0  0  0  0  0  0  0  0  0
   58.0230   31.5260   45.8130 N   0  0  0  0  0  0  0  0  0  0  0  0
   57.8040   32.4810   44.7620 C   0  0  0  0  0  0  0  0  0  0  0  0
   57.8400   32.1230   43.5530 O   0  0  0  0  0  0  0  0  0  0  0  0
   57.4220   33.8930   45.0890 C   0  0  0  0  0  0  0  0  0  0  0  0
   58.8870   34.9790   45.2300 S   0  0  0  0  0  0  0  0  0  0  0  0
   60.1100   33.6740   45.6290 C   0  0  0  0  0  0  0  0  0  0  0  0
   60.2220   33.4840   47.1200 C   0  0  0  0  0  0  0  0  0  0  0  0
   59.1880   33.1280   47.7500 O   0  0  0  0  0  0  0  0  0  0  0  0
   61.4250   33.8040   47.8620 N   0  0  0  0  0  0  0  0  0  0  0  0
   62.7690   33.6650   47.2810 C   0  0  0  0  0  0  0  0  0  0  0  0
   63.1710   32.1950   47.1970 C   0  0  0  0  0  0  0  0  0  0  0  0
   61.3040   34.3490   49.2240 C   0  0  0  0  0  0  0  0  0  0  0  0
   62.2510   33.6580   50.1530 C   0  0  0  0  0  0  0  0  0  0  0  0
   63.3530   34.1990   50.4330 O   0  0  0  0  0  0  0  0  0  0  0  0
   61.8720   32.4090   50.7460 N   0  0  0  0  0  0  0  0  0  0  0  0
   60.9100   31.4740   50.2320 C   0  0  0  0  0  0  0  0  0  0  0  0
   61.2970   30.3930   49.4200 C   0  0  0  0  0  0  0  0  0  0  0  0
   60.3360   29.5170   48.9060 C   0  0  0  0  0  0  0  0  0  0  0  0
   58.9840   29.7190   49.1850 C   0  0  0  0  0  0  0  0  0  0  0  0
   58.5870   30.8020   49.9720 C   0  0  0  0  0  0  0  0  0  0  0  0
   59.5440   31.6840   50.4890 C   0  0  0  0  0  0  0  0  0  0  0  0
   59.0110   33.0420   51.4700 Cl  0  0  0  0  0  0  0  0  0  0  0  0
   57.2406   29.1947   43.1622 H   0  0  0  0  0  0  0  0  0  0  0  0
   55.7171   28.9404   42.2451 H   0  0  0  0  0  0  0  0  0  0  0  0
   56.5068   30.5538   42.2451 H   0  0  0  0  0  0  0  0  0  0  0  0
   55.4278   31.1485   44.1370 H   0  0  0  0  0  0  0  0  0  0  0  0
   54.4752   29.6319   43.9991 H   0  0  0  0  0  0  0  0  0  0  0  0
   57.1504   27.0659   44.8841 H   0  0  0  0  0  0  0  0  0  0  0  0
   59.5605   26.4572   45.0576 H   0  0  0  0  0  0  0  0  0  0  0  0
   61.2555   28.2019   45.5950 H   0  0  0  0  0  0  0  0  0  0  0  0
   60.5494   30.5626   45.9564 H   0  0  0  0  0  0  0  0  0  0  0  0
   57.7720   31.8150   46.7850 H   0  0  0  0  0  0  0  0  0  0  0  0
   56.7686   34.2785   44.2924 H   0  0  0  0  0  0  0  0  0  0  0  0
   56.9040   33.8906   46.0594 H   0  0  0  0  0  0  0  0  0  0  0  0
   59.7912   32.7277   45.1677 H   0  0  0  0  0  0  0  0  0  0  0  0
   61.0917   33.9789   45.2375 H   0  0  0  0  0  0  0  0  0  0  0  0
   62.7720   34.0985   46.2700 H   0  0  0  0  0  0  0  0  0  0  0  0
   63.4887   34.1923   47.9244 H   0  0  0  0  0  0  0  0  0  0  0  0
   63.2826   31.7868   48.2123 H   0  0  0  0  0  0  0  0  0  0  0  0
   62.3937   31.6325   46.6591 H   0  0  0  0  0  0  0  0  0  0  0  0
   64.1264   32.1063   46.6591 H   0  0  0  0  0  0  0  0  0  0  0  0
   61.5358   35.4241   49.2052 H   0  0  0  0  0  0  0  0  0  0  0  0
   60.2760   34.1878   49.5807 H   0  0  0  0  0  0  0  0  0  0  0  0
   62.3607   30.2359   49.1881 H   0  0  0  0  0  0  0  0  0  0  0  0
   60.6465   28.6671   48.2805 H   0  0  0  0  0  0  0  0  0  0  0  0
   58.2304   29.0248   48.7848 H   0  0  0  0  0  0  0  0  0  0  0  0
   57.5201   30.9627   50.1863 H   0  0  0  0  0  0  0  0  0  0  0  0
  1  2  1  0
  2  3  1  0
  3  4  1  0
  4  5  2  0
  5  6  1  0
  6  7  2  0
  7  8  1  0
  8  9  2  0
  9 10  1  0
 10 11  1  0
 11 12  2  0
 11 13  1  0
 13 14  1  0
 14 15  1  0
 15 16  1  0
 16 17  2  0
 16 18  1  0
 18 19  1  0
 19 20  1  0
 18 21  1  0
 21 22  1  0
 22 23  2  0
 22 24  1  0
 24 25  1  0
 25 26  2  0
 26 27  1  0
 27 28  2  0
 28 29  1  0
 29 30  2  0
 30 31  1  0
  9  4  1  0
 30 25  1  0
  1 32  1  0
  1 33  1  0
  1 34  1  0
  2 35  1  0
  2 36  1  0
  5 37  1  0
  6 38  1  0
  7 39  1  0
  8 40  1  0
 10 41  1  0
 13 42  1  0
 13 43  1  0
 15 44  1  0
 15 45  1  0
 19 46  1  0
 19 47  1  0
 20 48  1  0
 20 49  1  0
 20 50  1  0
 21 51  1  0
 21 52  1  0
 26 53  1  0
 27 54  1  0
 28 55  1  0
 29 56  1  0
M  CHG  1  24  -1
M  END
>  <UniqueID>  (47) 
41

>  <SMILES>  (47) 
CCOc1ccccc1NC(=O)CSCC(=O)N(CC)CC(=O)[N-]c1ccccc1Cl

>  <Energy>  (47) 
47.45758106953689

>  <Genealogy>  (47) 
CCOc1ccccc1NC(=O)CSCC(=O)N(CC)CC(=O)[N-]c1ccccc1Cl (protonated)
CCOc1ccccc1NC(=O)CSCC(=O)N(CC)CC(=O)[N-]c1ccccc1Cl (3D coordinates assigned)
CCOc1ccccc1NC(=O)CSCC(=O)N(CC)CC(=O)[N-]c1ccccc1Cl (optimized conformer: 47.45758106953689 kcal/mol)

>  <smiles>  (47) 
CCOc1ccccc1NC(=O)CSCC(=O)N(CC)CC(=O)Nc1ccccc1Cl

>  <score_type>  (47) 
oracle

>  <origin>  (47) 
adg

>  <m_score__min__energy>  (47) 
-9.8599999999999994

>  <m_primary>  (47) 
energy

$$$$
47:0
     RDKit          3D

 39 41  0  0  0  0  0  0  0  0999 V2000
   57.4270   31.5870   42.7810 C   0  0  0  0  0  0  0  0  0  0  0  0
   56.8830   30.5820   43.7370 C   0  0  0  0  0  0  0  0  0  0  0  0
   57.4730   29.3830   44.0780 C   0  0  0  0  0  0  0  0  0  0  0  0
   56.5750   28.8500   44.9850 C   0  0  0  0  0  0  0  0  0  0  0  0
   56.6790   27.7130   45.6050 N   0  0  0  0  0  0  0  0  0  0  0  0
   58.1500   27.1110   46.3050 S   0  0  0  0  0  0  0  0  0  0  0  0
   58.8980   26.3170   45.2690 O   0  0  0  0  0  0  0  0  0  0  0  0
   57.8360   26.2410   47.4890 O   0  0  0  0  0  0  0  0  0  0  0  0
   59.1370   28.4680   46.8350 C   0  0  0  0  0  0  0  0  0  0  0  0
   58.9760   28.9900   48.1250 C   0  0  0  0  0  0  0  0  0  0  0  0
   59.7650   30.0610   48.5530 C   0  0  0  0  0  0  0  0  0  0  0  0
   60.7270   30.6190   47.7020 C   0  0  0  0  0  0  0  0  0  0  0  0
   61.5220   31.7100   48.1870 N   0  0  0  0  0  0  0  0  0  0  0  0
   61.3240   33.3720   47.7310 S   0  0  0  0  0  0  0  0  0  0  0  0
   62.4650   33.7770   46.8440 O   0  0  0  0  0  0  0  0  0  0  0  0
   61.3380   34.2250   48.9700 O   0  0  0  0  0  0  0  0  0  0  0  0
   59.8140   33.5810   46.8510 C   0  0  0  0  0  0  0  0  0  0  0  0
   59.8140   34.2230   45.6040 C   0  0  0  0  0  0  0  0  0  0  0  0
   58.6180   34.3790   44.8950 C   0  0  0  0  0  0  0  0  0  0  0  0
   57.4190   33.8980   45.4300 C   0  0  0  0  0  0  0  0  0  0  0  0
   57.4140   33.2640   46.6750 C   0  0  0  0  0  0  0  0  0  0  0  0
   58.6080   33.1060   47.3860 C   0  0  0  0  0  0  0  0  0  0  0  0
   60.8880   30.0930   46.4070 C   0  0  0  0  0  0  0  0  0  0  0  0
   60.0990   29.0210   45.9800 C   0  0  0  0  0  0  0  0  0  0  0  0
   55.5340   29.6820   45.1610 N   0  0  0  0  0  0  0  0  0  0  0  0
   55.7530   30.7120   44.3950 O   0  0  0  0  0  0  0  0  0  0  0  0
   57.8776   32.4195   43.3412 H   0  0  0  0  0  0  0  0  0  0  0  0
   58.1923   31.1142   42.1480 H   0  0  0  0  0  0  0  0  0  0  0  0
   56.6126   31.9693   42.1480 H   0  0  0  0  0  0  0  0  0  0  0  0
   58.4212   28.9569   43.7184 H   0  0  0  0  0  0  0  0  0  0  0  0
   58.2265   28.5556   48.8029 H   0  0  0  0  0  0  0  0  0  0  0  0
   59.6294   30.4687   49.5656 H   0  0  0  0  0  0  0  0  0  0  0  0
   60.7558   34.6045   45.1828 H   0  0  0  0  0  0  0  0  0  0  0  0
   58.6209   34.8804   43.9159 H   0  0  0  0  0  0  0  0  0  0  0  0
   56.4796   34.0188   44.8706 H   0  0  0  0  0  0  0  0  0  0  0  0
   56.4698   32.8886   47.0965 H   0  0  0  0  0  0  0  0  0  0  0  0
   58.6010   32.6081   48.3668 H   0  0  0  0  0  0  0  0  0  0  0  0
   61.6372   30.5268   45.7284 H   0  0  0  0  0  0  0  0  0  0  0  0
   60.2341   28.6101   44.9686 H   0  0  0  0  0  0  0  0  0  0  0  0
  1  2  1  0
  2  3  2  0
  3  4  1  0
  4  5  2  3
  5  6  1  0
  6  7  2  0
  6  8  2  0
  6  9  1  0
  9 10  2  0
 10 11  1  0
 11 12  2  0
 12 13  1  0
 13 14  1  0
 14 15  2  0
 14 16  2  0
 14 17  1  0
 17 18  2  0
 18 19  1  0
 19 20  2  0
 20 21  1  0
 21 22  2  0
 12 23  1  0
 23 24  2  0
  4 25  1  0
 25 26  1  0
 26  2  1  0
 24  9  1  0
 22 17  1  0
  1 27  1  0
  1 28  1  0
  1 29  1  0
  3 30  1  0
 10 31  1  0
 11 32  1  0
 18 33  1  0
 19 34  1  0
 20 35  1  0
 21 36  1  0
 22 37  1  0
 23 38  1  0
 24 39  1  0
M  CHG  2  13  -1  25  -1
M  END
>  <UniqueID>  (48) 
42

>  <SMILES>  (48) 
Cc1cc(=NS(=O)(=O)c2ccc([N-]S(=O)(=O)c3ccccc3)cc2)[n-]o1

>  <Energy>  (48) 
78.49840266796815

>  <Genealogy>  (48) 
Cc1cc(=NS(=O)(=O)c2ccc([N-]S(=O)(=O)c3ccccc3)cc2)[n-]o1 (protonated)
Cc1cc(=NS(=O)(=O)c2ccc([N-]S(=O)(=O)c3ccccc3)cc2)[n-]o1 (3D coordinates assigned)
Cc1cc(=NS(=O)(=O)c2ccc([N-]S(=O)(=O)c3ccccc3)cc2)[n-]o1 (optimized conformer: 78.49840266796815 kcal/mol)

>  <smiles>  (48) 
Cc1cc(=NS(=O)(=O)c2ccc(NS(=O)(=O)c3ccccc3)cc2)[nH]o1

>  <score_type>  (48) 
oracle

>  <origin>  (48) 
adg

>  <m_score__min__energy>  (48) 
-12.06

>  <m_primary>  (48) 
energy

$$$$
48:0
     RDKit          3D

 36 38  0  0  0  0  0  0  0  0999 V2000
   57.8030   33.0810   47.9750 O   0  0  0  0  0  0  0  0  0  0  0  0
   58.4650   32.3320   47.2070 C   0  0  0  0  0  0  0  0  0  0  0  0
   57.7900   31.3950   46.3560 N   0  0  0  0  0  0  0  0  0  0  0  0
   57.6370   31.4880   44.9320 C   0  0  0  0  0  0  0  0  0  0  0  0
   58.2340   32.5650   44.2620 C   0  0  0  0  0  0  0  0  0  0  0  0
   58.0960   32.7020   42.8780 C   0  0  0  0  0  0  0  0  0  0  0  0
   57.3460   31.7700   42.1540 C   0  0  0  0  0  0  0  0  0  0  0  0
   57.2120   31.9030   40.8110 F   0  0  0  0  0  0  0  0  0  0  0  0
   56.7260   30.7080   42.8160 C   0  0  0  0  0  0  0  0  0  0  0  0
   56.8630   30.5680   44.2010 C   0  0  0  0  0  0  0  0  0  0  0  0
   59.9450   32.3920   47.1960 C   0  0  0  0  0  0  0  0  0  0  0  0
   60.5750   33.4360   46.4990 C   0  0  0  0  0  0  0  0  0  0  0  0
   61.9650   33.5390   46.4850 C   0  0  0  0  0  0  0  0  0  0  0  0
   62.7260   32.5930   47.1660 C   0  0  0  0  0  0  0  0  0  0  0  0
   62.1180   31.5760   47.8290 N   0  0  0  0  0  0  0  0  0  0  0  0
   60.7610   31.4400   47.8570 C   0  0  0  0  0  0  0  0  0  0  0  0
   60.0700   29.9990   48.6900 S   0  0  0  0  0  0  0  0  0  0  0  0
   59.5900   29.2220   47.1470 C   0  0  0  0  0  0  0  0  0  0  0  0
   60.3780   29.3840   46.0010 C   0  0  0  0  0  0  0  0  0  0  0  0
   60.0070   28.7700   44.8010 C   0  0  0  0  0  0  0  0  0  0  0  0
   58.8420   27.9960   44.7420 C   0  0  0  0  0  0  0  0  0  0  0  0
   58.3760   27.2240   43.2370 Cl  0  0  0  0  0  0  0  0  0  0  0  0
   58.0490   27.8390   45.8850 C   0  0  0  0  0  0  0  0  0  0  0  0
   58.4210   28.4520   47.0850 C   0  0  0  0  0  0  0  0  0  0  0  0
   58.8149   33.3071   44.8293 H   0  0  0  0  0  0  0  0  0  0  0  0
   58.5775   33.5433   42.3581 H   0  0  0  0  0  0  0  0  0  0  0  0
   56.1288   29.9802   42.2471 H   0  0  0  0  0  0  0  0  0  0  0  0
   56.3642   29.7363   44.7202 H   0  0  0  0  0  0  0  0  0  0  0  0
   59.9671   34.1777   45.9603 H   0  0  0  0  0  0  0  0  0  0  0  0
   62.4557   34.3597   45.9412 H   0  0  0  0  0  0  0  0  0  0  0  0
   63.8233   32.6696   47.1670 H   0  0  0  0  0  0  0  0  0  0  0  0
   62.7150   30.8710   48.3190 H   0  0  0  0  0  0  0  0  0  0  0  0
   61.2911   29.9958   46.0449 H   0  0  0  0  0  0  0  0  0  0  0  0
   60.6304   28.8951   43.9034 H   0  0  0  0  0  0  0  0  0  0  0  0
   57.1323   27.2327   45.8388 H   0  0  0  0  0  0  0  0  0  0  0  0
   57.7954   28.3298   47.9815 H   0  0  0  0  0  0  0  0  0  0  0  0
  1  2  2  0
  2  3  1  0
  3  4  1  0
  4  5  2  0
  5  6  1  0
  6  7  2  0
  7  8  1  0
  7  9  1  0
  9 10  2  0
  2 11  1  0
 11 12  2  0
 12 13  1  0
 13 14  2  0
 14 15  1  0
 15 16  2  0
 16 17  1  0
 17 18  1  0
 18 19  2  0
 19 20  1  0
 20 21  2  0
 21 22  1  0
 21 23  1  0
 23 24  2  0
 10  4  1  0
 16 11  1  0
 24 18  1  0
  5 25  1  0
  6 26  1  0
  9 27  1  0
 10 28  1  0
 12 29  1  0
 13 30  1  0
 14 31  1  0
 15 32  1  0
 19 33  1  0
 20 34  1  0
 23 35  1  0
 24 36  1  0
M  CHG  2   3  -1  15   1
M  END
>  <UniqueID>  (49) 
43

>  <SMILES>  (49) 
O=C([N-]c1ccc(F)cc1)c1ccc[nH+]c1Sc1ccc(Cl)cc1

>  <Energy>  (49) 
42.15830049887432

>  <Genealogy>  (49) 
O=C([N-]c1ccc(F)cc1)c1ccc[nH+]c1Sc1ccc(Cl)cc1 (protonated)
O=C([N-]c1ccc(F)cc1)c1ccc[nH+]c1Sc1ccc(Cl)cc1 (3D coordinates assigned)
O=C([N-]c1ccc(F)cc1)c1ccc[nH+]c1Sc1ccc(Cl)cc1 (optimized conformer: 42.15830049887432 kcal/mol)

>  <smiles>  (49) 
O=C(Nc1ccc(F)cc1)c1cccnc1Sc1ccc(Cl)cc1

>  <score_type>  (49) 
oracle

>  <origin>  (49) 
adg

>  <m_score__min__energy>  (49) 
-8.6400000000000006

>  <m_primary>  (49) 
energy

$$$$
49:0
     RDKit          3D

 35 37  0  0  0  0  0  0  0  0999 V2000
   63.8000   33.0890   47.6570 C   0  0  0  0  0  0  0  0  0  0  0  0
   62.3180   33.2900   47.5390 C   0  0  0  0  0  0  0  0  0  0  0  0
   61.4630   32.8660   48.5690 C   0  0  0  0  0  0  0  0  0  0  0  0
   60.0790   33.0190   48.4420 C   0  0  0  0  0  0  0  0  0  0  0  0
   59.5370   33.5820   47.2810 C   0  0  0  0  0  0  0  0  0  0  0  0
   57.7620   33.7780   47.1220 S   0  0  0  0  0  0  0  0  0  0  0  0
   57.7660   33.4680   45.3270 C   0  0  0  0  0  0  0  0  0  0  0  0
   57.7060   31.9940   45.0790 C   0  0  0  0  0  0  0  0  0  0  0  0
   56.6540   31.5060   44.4920 N   0  0  0  0  0  0  0  0  0  0  0  0
   56.4390   29.8250   44.1770 S   0  0  0  0  0  0  0  0  0  0  0  0
   56.3200   29.6030   42.6960 O   0  0  0  0  0  0  0  0  0  0  0  0
   55.2040   29.3350   44.8800 O   0  0  0  0  0  0  0  0  0  0  0  0
   57.8390   28.9920   44.7910 C   0  0  0  0  0  0  0  0  0  0  0  0
   57.9410   27.6000   44.6680 C   0  0  0  0  0  0  0  0  0  0  0  0
   59.0640   26.9350   45.1630 C   0  0  0  0  0  0  0  0  0  0  0  0
   60.0860   27.6570   45.7830 C   0  0  0  0  0  0  0  0  0  0  0  0
   59.9870   29.0450   45.9060 C   0  0  0  0  0  0  0  0  0  0  0  0
   58.8610   29.7270   45.4100 C   0  0  0  0  0  0  0  0  0  0  0  0
   58.7830   31.1580   45.5510 N   0  0  0  0  0  0  0  0  0  0  0  0
   60.3850   33.9940   46.2470 C   0  0  0  0  0  0  0  0  0  0  0  0
   61.7690   33.8410   46.3710 C   0  0  0  0  0  0  0  0  0  0  0  0
   64.0814   33.0508   48.7197 H   0  0  0  0  0  0  0  0  0  0  0  0
   64.0819   32.1444   47.1689 H   0  0  0  0  0  0  0  0  0  0  0  0
   64.3233   33.9244   47.1689 H   0  0  0  0  0  0  0  0  0  0  0  0
   61.8833   32.4121   49.4786 H   0  0  0  0  0  0  0  0  0  0  0  0
   59.4144   32.6960   49.2568 H   0  0  0  0  0  0  0  0  0  0  0  0
   56.8919   33.9535   44.8684 H   0  0  0  0  0  0  0  0  0  0  0  0
   58.6855   33.8787   44.8845 H   0  0  0  0  0  0  0  0  0  0  0  0
   57.1355   27.0308   44.1810 H   0  0  0  0  0  0  0  0  0  0  0  0
   59.1440   25.8423   45.0647 H   0  0  0  0  0  0  0  0  0  0  0  0
   60.9698   27.1323   46.1749 H   0  0  0  0  0  0  0  0  0  0  0  0
   60.7955   29.6088   46.3943 H   0  0  0  0  0  0  0  0  0  0  0  0
   59.5740   31.6390   46.0380 H   0  0  0  0  0  0  0  0  0  0  0  0
   59.9617   34.4393   45.3346 H   0  0  0  0  0  0  0  0  0  0  0  0
   62.4304   34.1538   45.5496 H   0  0  0  0  0  0  0  0  0  0  0  0
  1  2  1  0
  2  3  2  0
  3  4  1  0
  4  5  2  0
  5  6  1  0
  6  7  1  0
  7  8  1  0
  8  9  2  0
  9 10  1  0
 10 11  2  0
 10 12  2  0
 10 13  1  0
 13 14  2  0
 14 15  1  0
 15 16  2  0
 16 17  1  0
 17 18  2  0
 18 19  1  0
  5 20  1  0
 20 21  2  0
 21  2  1  0
 19  8  1  0
 18 13  1  0
  1 22  1  0
  1 23  1  0
  1 24  1  0
  3 25  1  0
  4 26  1  0
  7 27  1  0
  7 28  1  0
 14 29  1  0
 15 30  1  0
 16 31  1  0
 17 32  1  0
 19 33  1  0
 20 34  1  0
 21 35  1  0
M  END
>  <UniqueID>  (50) 
44

>  <SMILES>  (50) 
Cc1ccc(SCC2=NS(=O)(=O)c3ccccc3N2)cc1

>  <Energy>  (50) 
36.19696756724146

>  <Genealogy>  (50) 
Cc1ccc(SCC2=NS(=O)(=O)c3ccccc3N2)cc1 (3D coordinates assigned)
Cc1ccc(SCC2=NS(=O)(=O)c3ccccc3N2)cc1 (nonaromatic ring conformer: 36.19696756724146 kcal/mol)

>  <smiles>  (50) 
Cc1ccc(SCC2=NS(=O)(=O)c3ccccc3N2)cc1

>  <score_type>  (50) 
oracle

>  <origin>  (50) 
adg

>  <m_score__min__energy>  (50) 
-8.9700000000000006

>  <m_primary>  (50) 
energy

$$$$
50:0
     RDKit          3D

 40 41  0  0  0  0  0  0  0  0999 V2000
   59.0547   32.7995   47.8509 H   0  0  0  0  0  0  0  0  0  0  0  0
   58.6400   32.7980   46.8320 C   0  0  0  0  0  0  0  0  0  0  0  0
   57.7950   31.8270   46.3910 N   0  0  0  0  0  0  0  0  0  0  0  0
   57.4150   32.0370   45.1130 C   0  0  0  0  0  0  0  0  0  0  0  0
   56.6160   31.2200   44.4900 N   0  0  0  0  0  0  0  0  0  0  0  0
   56.5530   29.7900   44.6190 C   0  0  0  0  0  0  0  0  0  0  0  0
   55.5920   29.2290   45.2120 O   0  0  0  0  0  0  0  0  0  0  0  0
   57.6810   28.9480   44.0910 C   0  0  2  0  0  0  0  0  0  0  0  0
   57.7612   29.1216   43.0077 H   0  0  0  0  0  0  0  0  0  0  0  0
   57.3870   27.5400   44.3750 N   0  0  0  0  0  0  0  0  0  0  0  0
   56.6480   27.3280   45.0830 H   0  0  0  0  0  0  0  0  0  0  0  0
   57.8870   26.4720   43.5520 C   0  0  0  0  0  0  0  0  0  0  0  0
   58.5150   26.7430   42.4920 O   0  0  0  0  0  0  0  0  0  0  0  0
   57.6580   25.0540   43.9200 C   0  0  0  0  0  0  0  0  0  0  0  0
   58.1450   24.5290   45.1330 C   0  0  0  0  0  0  0  0  0  0  0  0
   58.7007   25.1779   45.8259 H   0  0  0  0  0  0  0  0  0  0  0  0
   57.9260   23.1880   45.4610 C   0  0  0  0  0  0  0  0  0  0  0  0
   58.3066   22.7874   46.4121 H   0  0  0  0  0  0  0  0  0  0  0  0
   57.2260   22.3550   44.5860 C   0  0  0  0  0  0  0  0  0  0  0  0
   57.0512   21.3016   44.8500 H   0  0  0  0  0  0  0  0  0  0  0  0
   56.7480   22.8610   43.3750 C   0  0  0  0  0  0  0  0  0  0  0  0
   56.2005   22.2038   42.6835 H   0  0  0  0  0  0  0  0  0  0  0  0
   56.9640   24.2010   43.0400 C   0  0  0  0  0  0  0  0  0  0  0  0
   56.5893   24.5918   42.0825 H   0  0  0  0  0  0  0  0  0  0  0  0
   59.0430   29.3320   44.7150 C   0  0  0  0  0  0  0  0  0  0  0  0
   59.0578   30.4216   44.8650 H   0  0  0  0  0  0  0  0  0  0  0  0
   59.8180   28.9851   44.0156 H   0  0  0  0  0  0  0  0  0  0  0  0
   59.3380   28.6510   46.0760 C   0  0  0  0  0  0  0  0  0  0  0  0
   58.3744   28.3164   46.4877 H   0  0  0  0  0  0  0  0  0  0  0  0
   60.0030   29.6550   47.0270 C   0  0  0  0  0  0  0  0  0  0  0  0
   59.8070   29.3590   48.0681 H   0  0  0  0  0  0  0  0  0  0  0  0
   61.0882   29.6669   46.8473 H   0  0  0  0  0  0  0  0  0  0  0  0
   59.5906   30.6588   46.8473 H   0  0  0  0  0  0  0  0  0  0  0  0
   60.2350   27.4110   45.9300 C   0  0  0  0  0  0  0  0  0  0  0  0
   60.5067   27.0355   46.9276 H   0  0  0  0  0  0  0  0  0  0  0  0
   59.6924   26.6287   45.3790 H   0  0  0  0  0  0  0  0  0  0  0  0
   61.1478   27.6816   45.3790 H   0  0  0  0  0  0  0  0  0  0  0  0
   58.1200   33.4330   44.4800 S   0  0  0  0  0  0  0  0  0  0  0  0
   58.9420   33.7870   45.9050 C   0  0  0  0  0  0  0  0  0  0  0  0
   59.6027   34.6503   46.0728 H   0  0  0  0  0  0  0  0  0  0  0  0
  1  2  1  0
  2  3  1  0
  3  4  1  0
  4  5  2  0
  5  6  1  0
  6  7  2  0
  6  8  1  0
  8  9  1  6
  8 10  1  0
 10 11  1  0
 10 12  1  0
 12 13  2  0
 12 14  1  0
 14 15  2  0
 15 16  1  0
 15 17  1  0
 17 18  1  0
 17 19  2  0
 19 20  1  0
 19 21  1  0
 21 22  1  0
 21 23  2  0
 23 24  1  0
  8 25  1  0
 25 26  1  0
 25 27  1  0
 25 28  1  0
 28 29  1  0
 28 30  1  0
 30 31  1  0
 30 32  1  0
 30 33  1  0
 28 34  1  0
 34 35  1  0
 34 36  1  0
 34 37  1  0
  4 38  1  0
 38 39  1  0
 39 40  1  0
 39  2  2  0
 23 14  1  0
M  CHG  1   3  -1
M  END
>  <UniqueID>  (51) 
45

>  <SMILES>  (51) 
CC(C)C[C@@H](NC(=O)c1ccccc1)C(=O)/N=c1/[n-]ccs1

>  <Energy>  (51) 
68.9418681334017

>  <Genealogy>  (51) 
CC(C)CC(NC(=O)c1ccccc1)C(=O)N=c1[n-]ccs1 (protonated)
CC(C)C[C@@H](NC(=O)c1ccccc1)C(=O)N=c1[n-]ccs1 (chirality)
CC(C)C[C@@H](NC(=O)c1ccccc1)C(=O)/N=c1/[n-]ccs1 (cis-trans isomerization)
CC(C)C[C@@H](NC(=O)c1ccccc1)C(=O)/N=c1/[n-]ccs1 (3D coordinates assigned)
CC(C)C[C@@H](NC(=O)c1ccccc1)C(=O)/N=c1/[n-]ccs1 (optimized conformer: 68.9418681334017 kcal/mol)

>  <smiles>  (51) 
CC(C)CC(NC(=O)c1ccccc1)C(=O)N=c1[nH]ccs1

>  <score_type>  (51) 
oracle

>  <origin>  (51) 
adg

>  <m_score__min__energy>  (51) 
-9.6099999999999994

>  <m_primary>  (51) 
energy

$$$$
51:0
     RDKit          3D

 29 31  0  0  0  0  0  0  0  0999 V2000
   56.4776   23.2733   47.0096 H   0  0  0  0  0  0  0  0  0  0  0  0
   56.6840   24.3010   46.6760 C   0  0  0  0  0  0  0  0  0  0  0  0
   55.6940   25.1860   46.3700 N   0  0  0  0  0  0  0  0  0  0  0  0
   56.3950   26.2720   46.0240 C   0  0  0  0  0  0  0  0  0  0  0  0
   55.9070   27.4690   45.6230 N   0  0  0  0  0  0  0  0  0  0  0  0
   56.7900   28.4670   45.3100 C   0  0  0  0  0  0  0  0  0  0  0  0
   56.3170   29.6180   44.9240 N   0  0  0  0  0  0  0  0  0  0  0  0
   56.8830   30.4760   43.8860 C   0  0  0  0  0  0  0  0  0  0  0  0
   56.0782   30.8394   43.2301 H   0  0  0  0  0  0  0  0  0  0  0  0
   57.6085   29.9036   43.2893 H   0  0  0  0  0  0  0  0  0  0  0  0
   57.5710   31.6440   44.5300 C   0  0  0  0  0  0  0  0  0  0  0  0
   58.0360   31.5510   45.8500 C   0  0  0  0  0  0  0  0  0  0  0  0
   57.8698   30.6281   46.4250 H   0  0  0  0  0  0  0  0  0  0  0  0
   58.7100   32.6260   46.4390 C   0  0  0  0  0  0  0  0  0  0  0  0
   59.0758   32.5409   47.4729 H   0  0  0  0  0  0  0  0  0  0  0  0
   58.9230   33.8140   45.7190 C   0  0  0  0  0  0  0  0  0  0  0  0
   59.6940   34.9530   46.3370 C   0  0  0  0  0  0  0  0  0  0  0  0
   61.0110   34.5880   46.5600 F   0  0  0  0  0  0  0  0  0  0  0  0
   59.6650   36.0380   45.4810 F   0  0  0  0  0  0  0  0  0  0  0  0
   59.1350   35.3200   47.5500 F   0  0  0  0  0  0  0  0  0  0  0  0
   58.4950   33.8870   44.3820 C   0  0  0  0  0  0  0  0  0  0  0  0
   58.6916   34.7958   43.7943 H   0  0  0  0  0  0  0  0  0  0  0  0
   57.8210   32.8120   43.7940 C   0  0  0  0  0  0  0  0  0  0  0  0
   57.4851   32.8825   42.7489 H   0  0  0  0  0  0  0  0  0  0  0  0
   58.1940   28.2120   45.4160 C   0  0  0  0  0  0  0  0  0  0  0  0
   58.9170   29.0030   45.1677 H   0  0  0  0  0  0  0  0  0  0  0  0
   58.6370   26.9850   45.8260 N   0  0  0  0  0  0  0  0  0  0  0  0
   57.7180   26.0380   46.1220 C   0  0  0  0  0  0  0  0  0  0  0  0
   57.9490   24.7870   46.5370 N   0  0  0  0  0  0  0  0  0  0  0  0
  1  2  1  0
  2  3  2  0
  3  4  1  0
  4  5  1  0
  5  6  1  0
  6  7  2  0
  7  8  1  0
  8  9  1  0
  8 10  1  0
  8 11  1  0
 11 12  2  0
 12 13  1  0
 12 14  1  0
 14 15  1  0
 14 16  2  0
 16 17  1  0
 17 18  1  0
 17 19  1  0
 17 20  1  0
 16 21  1  0
 21 22  1  0
 21 23  2  0
 23 24  1  0
  6 25  1  0
 25 26  1  0
 25 27  2  0
 27 28  1  0
 28 29  1  0
 29  2  1  0
 28  4  2  0
 23 11  1  0
M  CHG  2   5  -1  29  -1
M  END
>  <UniqueID>  (52) 
46

>  <SMILES>  (52) 
FC(F)(F)c1ccc(C/N=c2\cnc3[n-]cnc3[n-]2)cc1

>  <Energy>  (52) 
72.5451975529796

>  <Genealogy>  (52) 
FC(F)(F)c1ccc(CN=c2cnc3[n-]cnc3[n-]2)cc1 (protonated)
FC(F)(F)c1ccc(C/N=c2\cnc3[n-]cnc3[n-]2)cc1 (cis-trans isomerization)
FC(F)(F)c1ccc(C/N=c2\cnc3[n-]cnc3[n-]2)cc1 (3D coordinates assigned)
FC(F)(F)c1ccc(C/N=c2\cnc3[n-]cnc3[n-]2)cc1 (optimized conformer: 72.5451975529796 kcal/mol)

>  <smiles>  (52) 
FC(F)(F)c1ccc(CN=c2cnc3[nH]cnc3[nH]2)cc1

>  <score_type>  (52) 
oracle

>  <origin>  (52) 
adg

>  <m_score__min__energy>  (52) 
-9.75

>  <m_primary>  (52) 
energy

$$$$
52:0
     RDKit          3D

 34 36  0  0  0  0  0  0  0  0999 V2000
   59.2750   35.3500   44.8790 C   0  0  0  0  0  0  0  0  0  0  0  0
   58.4280   34.2980   44.4260 O   0  0  0  0  0  0  0  0  0  0  0  0
   58.3530   33.0250   45.0140 C   0  0  0  0  0  0  0  0  0  0  0  0
   58.5810   32.8280   46.3880 C   0  0  0  0  0  0  0  0  0  0  0  0
   58.4990   31.5530   46.9450 C   0  0  0  0  0  0  0  0  0  0  0  0
   58.1880   30.4480   46.1430 C   0  0  0  0  0  0  0  0  0  0  0  0
   58.1060   29.1670   46.7130 C   0  0  0  0  0  0  0  0  0  0  0  0
   57.7840   28.0520   45.9240 C   0  0  0  0  0  0  0  0  0  0  0  0
   57.7150   26.7030   46.5370 C   0  0  0  0  0  0  0  0  0  0  0  0
   58.2690   26.5060   47.6530 O   0  0  0  0  0  0  0  0  0  0  0  0
   57.0340   25.5660   45.8730 C   0  0  0  0  0  0  0  0  0  0  0  0
   57.7800   24.4260   45.5280 C   0  0  0  0  0  0  0  0  0  0  0  0
   57.1640   23.3380   44.8990 C   0  0  0  0  0  0  0  0  0  0  0  0
   58.1240   21.9330   44.4630 Cl  0  0  0  0  0  0  0  0  0  0  0  0
   55.7920   23.3760   44.6210 C   0  0  0  0  0  0  0  0  0  0  0  0
   55.1700   22.3020   43.9940 O   0  0  0  0  0  0  0  0  0  0  0  0
   55.0390   24.4980   44.9790 C   0  0  0  0  0  0  0  0  0  0  0  0
   55.6490   25.5860   45.6120 C   0  0  0  0  0  0  0  0  0  0  0  0
   54.8660   26.6710   45.9940 O   0  0  0  0  0  0  0  0  0  0  0  0
   57.5670   28.2300   44.5480 C   0  0  0  0  0  0  0  0  0  0  0  0
   57.6460   29.4990   43.9720 C   0  0  0  0  0  0  0  0  0  0  0  0
   57.9540   30.6250   44.7580 C   0  0  0  0  0  0  0  0  0  0  0  0
   58.0390   31.9230   44.1990 C   0  0  0  0  0  0  0  0  0  0  0  0
   57.7580   32.2080   42.4780 Cl  0  0  0  0  0  0  0  0  0  0  0  0
   59.2862   35.3639   45.9789 H   0  0  0  0  0  0  0  0  0  0  0  0
   60.2960   35.1860   44.5040 H   0  0  0  0  0  0  0  0  0  0  0  0
   58.8968   36.3125   44.5040 H   0  0  0  0  0  0  0  0  0  0  0  0
   58.8262   33.6879   47.0286 H   0  0  0  0  0  0  0  0  0  0  0  0
   58.6797   31.4139   48.0211 H   0  0  0  0  0  0  0  0  0  0  0  0
   58.2961   29.0364   47.7886 H   0  0  0  0  0  0  0  0  0  0  0  0
   58.8559   24.3886   45.7540 H   0  0  0  0  0  0  0  0  0  0  0  0
   53.9610   24.5254   44.7618 H   0  0  0  0  0  0  0  0  0  0  0  0
   57.3322   27.3599   43.9173 H   0  0  0  0  0  0  0  0  0  0  0  0
   57.4658   29.6201   42.8936 H   0  0  0  0  0  0  0  0  0  0  0  0
  1  2  1  0
  2  3  1  0
  3  4  2  0
  4  5  1  0
  5  6  2  0
  6  7  1  0
  7  8  2  0
  8  9  1  0
  9 10  2  0
  9 11  1  0
 11 12  2  0
 12 13  1  0
 13 14  1  0
 13 15  2  0
 15 16  1  0
 15 17  1  0
 17 18  2  0
 18 19  1  0
  8 20  1  0
 20 21  2  0
 21 22  1  0
 22 23  2  0
 23 24  1  0
 23  3  1  0
 22  6  1  0
 18 11  1  0
  1 25  1  0
  1 26  1  0
  1 27  1  0
  4 28  1  0
  5 29  1  0
  7 30  1  0
 12 31  1  0
 17 32  1  0
 20 33  1  0
 21 34  1  0
M  CHG  2  16  -1  19  -1
M  END
>  <UniqueID>  (53) 
47

>  <SMILES>  (53) 
COc1ccc2cc(C(=O)c3cc(Cl)c([O-])cc3[O-])ccc2c1Cl

>  <Energy>  (53) 
50.10607271320558

>  <Genealogy>  (53) 
COc1ccc2cc(C(=O)c3cc(Cl)c([O-])cc3[O-])ccc2c1Cl (protonated)
COc1ccc2cc(C(=O)c3cc(Cl)c([O-])cc3[O-])ccc2c1Cl (3D coordinates assigned)
COc1ccc2cc(C(=O)c3cc(Cl)c([O-])cc3[O-])ccc2c1Cl (optimized conformer: 50.10607271320558 kcal/mol)

>  <smiles>  (53) 
COc1ccc2cc(C(=O)c3cc(Cl)c(O)cc3O)ccc2c1Cl

>  <score_type>  (53) 
oracle

>  <origin>  (53) 
adg

>  <m_score__min__energy>  (53) 
-13.67

>  <m_primary>  (53) 
energy

$$$$
53:0
     RDKit          3D

 60 63  0  0  0  0  0  0  0  0999 V2000
   59.3270   35.3270   45.3270 C   0  0  0  0  0  0  0  0  0  0  0  0
   58.6510   34.0430   45.6030 N   0  0  0  0  0  0  0  0  0  0  0  0
   58.1600   34.0110   46.9980 C   0  0  0  0  0  0  0  0  0  0  0  0
   58.7770   32.8650   47.7580 C   0  0  0  0  0  0  0  0  0  0  0  0
   58.1490   32.3660   48.9080 C   0  0  0  0  0  0  0  0  0  0  0  0
   58.7100   31.2950   49.6100 C   0  0  0  0  0  0  0  0  0  0  0  0
   59.8990   30.7120   49.1670 C   0  0  0  0  0  0  0  0  0  0  0  0
   60.5330   31.1930   48.0110 C   0  0  0  0  0  0  0  0  0  0  0  0
   61.8280   30.5830   47.5370 C   0  0  0  0  0  0  0  0  0  0  0  0
   62.9770   31.4520   47.8710 N   0  0  0  0  0  0  0  0  0  0  0  0
   62.9540   32.7080   47.0750 C   0  0  0  0  0  0  0  0  0  0  0  0
   63.7780   33.8210   47.7320 C   0  0  0  0  0  0  0  0  0  0  0  0
   63.2060   34.1880   49.1120 C   0  0  0  0  0  0  0  0  0  0  0  0
   62.4890   33.0070   49.7880 C   0  0  0  0  0  0  0  0  0  0  0  0
   63.0870   31.6670   49.3400 C   0  0  0  0  0  0  0  0  0  0  0  0
   59.9710   32.2730   47.3130 C   0  0  0  0  0  0  0  0  0  0  0  0
   57.5270   33.8430   44.6650 C   0  0  0  0  0  0  0  0  0  0  0  0
   57.4380   32.4090   44.2470 C   0  0  0  0  0  0  0  0  0  0  0  0
   57.0350   31.4080   45.0600 N   0  0  0  0  0  0  0  0  0  0  0  0
   57.1020   30.3460   44.2300 C   0  0  0  0  0  0  0  0  0  0  0  0
   56.8010   28.9410   44.6470 C   0  0  0  0  0  0  0  0  0  0  0  0
   58.0330   28.2950   45.2300 C   0  0  0  0  0  0  0  0  0  0  0  0
   59.2800   28.9270   45.0730 C   0  0  0  0  0  0  0  0  0  0  0  0
   60.4350   28.3640   45.6220 C   0  0  0  0  0  0  0  0  0  0  0  0
   60.3580   27.1700   46.3410 C   0  0  0  0  0  0  0  0  0  0  0  0
   59.1240   26.5390   46.5200 C   0  0  0  0  0  0  0  0  0  0  0  0
   57.9590   27.0940   45.9730 C   0  0  0  0  0  0  0  0  0  0  0  0
   56.4330   26.2570   46.2460 Cl  0  0  0  0  0  0  0  0  0  0  0  0
   57.5310   30.6940   43.0050 N   0  0  0  0  0  0  0  0  0  0  0  0
   57.7240   31.9740   43.0430 O   0  0  0  0  0  0  0  0  0  0  0  0
   59.5851   35.8172   46.2773 H   0  0  0  0  0  0  0  0  0  0  0  0
   60.2444   35.1416   44.7491 H   0  0  0  0  0  0  0  0  0  0  0  0
   58.6549   35.9784   44.7491 H   0  0  0  0  0  0  0  0  0  0  0  0
   58.4239   34.9564   47.4947 H   0  0  0  0  0  0  0  0  0  0  0  0
   57.0683   33.8767   46.9839 H   0  0  0  0  0  0  0  0  0  0  0  0
   57.2104   32.8193   49.2596 H   0  0  0  0  0  0  0  0  0  0  0  0
   58.2137   30.9107   50.5133 H   0  0  0  0  0  0  0  0  0  0  0  0
   60.3400   29.8733   49.7257 H   0  0  0  0  0  0  0  0  0  0  0  0
   61.9637   29.6051   48.0220 H   0  0  0  0  0  0  0  0  0  0  0  0
   61.7817   30.4681   46.4440 H   0  0  0  0  0  0  0  0  0  0  0  0
   63.3672   32.5029   46.0764 H   0  0  0  0  0  0  0  0  0  0  0  0
   61.9106   33.0506   47.0120 H   0  0  0  0  0  0  0  0  0  0  0  0
   64.8159   33.4770   47.8525 H   0  0  0  0  0  0  0  0  0  0  0  0
   63.7400   34.7122   47.0883 H   0  0  0  0  0  0  0  0  0  0  0  0
   64.0322   34.5162   49.7599 H   0  0  0  0  0  0  0  0  0  0  0  0
   62.4648   34.9871   48.9637 H   0  0  0  0  0  0  0  0  0  0  0  0
   62.5938   33.1002   50.8790 H   0  0  0  0  0  0  0  0  0  0  0  0
   61.4283   33.0303   49.4977 H   0  0  0  0  0  0  0  0  0  0  0  0
   64.1504   31.6448   49.6204 H   0  0  0  0  0  0  0  0  0  0  0  0
   62.5189   30.8667   49.8367 H   0  0  0  0  0  0  0  0  0  0  0  0
   60.4688   32.6588   46.4111 H   0  0  0  0  0  0  0  0  0  0  0  0
   56.5882   34.1345   45.1585 H   0  0  0  0  0  0  0  0  0  0  0  0
   57.6961   34.4626   43.7720 H   0  0  0  0  0  0  0  0  0  0  0  0
   56.0027   28.9498   45.4038 H   0  0  0  0  0  0  0  0  0  0  0  0
   56.4775   28.3669   43.7663 H   0  0  0  0  0  0  0  0  0  0  0  0
   59.3463   29.8718   44.5136 H   0  0  0  0  0  0  0  0  0  0  0  0
   61.4063   28.8624   45.4874 H   0  0  0  0  0  0  0  0  0  0  0  0
   61.2695   26.7254   46.7671 H   0  0  0  0  0  0  0  0  0  0  0  0
   59.0667   25.6019   47.0932 H   0  0  0  0  0  0  0  0  0  0  0  0
   57.6880   30.0760   42.1780 H   0  0  0  0  0  0  0  0  0  0  0  0
  1  2  1  0
  2  3  1  0
  3  4  1  0
  4  5  2  0
  5  6  1  0
  6  7  2  0
  7  8  1  0
  8  9  1  0
  9 10  1  0
 10 11  1  0
 11 12  1  0
 12 13  1  0
 13 14  1  0
 14 15  1  0
  8 16  2  0
  2 17  1  0
 17 18  1  0
 18 19  2  0
 19 20  1  0
 20 21  1  0
 21 22  1  0
 22 23  2  0
 23 24  1  0
 24 25  2  0
 25 26  1  0
 26 27  2  0
 27 28  1  0
 20 29  2  0
 29 30  1  0
 16  4  1  0
 30 18  1  0
 15 10  1  0
 27 22  1  0
  1 31  1  0
  1 32  1  0
  1 33  1  0
  3 34  1  0
  3 35  1  0
  5 36  1  0
  6 37  1  0
  7 38  1  0
  9 39  1  0
  9 40  1  0
 11 41  1  0
 11 42  1  0
 12 43  1  0
 12 44  1  0
 13 45  1  0
 13 46  1  0
 14 47  1  0
 14 48  1  0
 15 49  1  0
 15 50  1  0
 16 51  1  0
 17 52  1  0
 17 53  1  0
 21 54  1  0
 21 55  1  0
 23 56  1  0
 24 57  1  0
 25 58  1  0
 26 59  1  0
 29 60  1  0
M  CHG  1  29   1
M  END
>  <UniqueID>  (54) 
48

>  <SMILES>  (54) 
CN(Cc1cccc(CN2CCCCC2)c1)Cc1nc(Cc2ccccc2Cl)[nH+]o1

>  <Energy>  (54) 
103.1016628070787

>  <Genealogy>  (54) 
CN(Cc1cccc(CN2CCCCC2)c1)Cc1nc(Cc2ccccc2Cl)[nH+]o1 (protonated)
CN(Cc1cccc(CN2CCCCC2)c1)Cc1nc(Cc2ccccc2Cl)[nH+]o1 (3D coordinates assigned)
CN(Cc1cccc(CN2CCCCC2)c1)Cc1nc(Cc2ccccc2Cl)[nH+]o1 (nonaromatic ring conformer: 103.1016628070787 kcal/mol)

>  <smiles>  (54) 
CN(Cc1cccc(CN2CCCCC2)c1)Cc1nc(Cc2ccccc2Cl)no1

>  <score_type>  (54) 
oracle

>  <origin>  (54) 
adg

>  <m_score__min__energy>  (54) 
-8.3000000000000007

>  <m_primary>  (54) 
energy

$$$$
54:0
     RDKit          3D

 42 43  0  0  0  0  0  0  0  0999 V2000
   58.8510   31.2910   49.7280 C   0  0  0  0  0  0  0  0  0  0  0  0
   59.8800   30.8280   48.7020 C   0  0  0  0  0  0  0  0  0  0  0  0
   59.3450   30.9050   47.3800 O   0  0  0  0  0  0  0  0  0  0  0  0
   59.3570   29.8720   46.4270 C   0  0  0  0  0  0  0  0  0  0  0  0
   60.2830   28.8120   46.4930 C   0  0  0  0  0  0  0  0  0  0  0  0
   60.2440   27.7770   45.5600 C   0  0  0  0  0  0  0  0  0  0  0  0
   59.2770   27.7760   44.5550 C   0  0  0  0  0  0  0  0  0  0  0  0
   58.3520   28.8160   44.4740 C   0  0  0  0  0  0  0  0  0  0  0  0
   58.3930   29.8800   45.3940 C   0  0  0  0  0  0  0  0  0  0  0  0
   57.4350   30.9990   45.2350 C   0  0  0  0  0  0  0  0  0  0  0  0
   56.4270   30.8480   44.4960 O   0  0  0  0  0  0  0  0  0  0  0  0
   57.6760   32.2670   45.8630 N   0  0  0  0  0  0  0  0  0  0  0  0
   56.8020   33.4200   45.6430 C   0  0  0  0  0  0  0  0  0  0  0  0
   57.5710   34.5920   45.0210 C   0  0  0  0  0  0  0  0  0  0  0  0
   59.2610   34.0940   44.5090 S   0  0  0  0  0  0  0  0  0  0  0  0
   59.9700   34.0960   46.1570 C   0  0  0  0  0  0  0  0  0  0  0  0
   61.3400   33.8610   46.3350 C   0  0  0  0  0  0  0  0  0  0  0  0
   61.8720   33.8410   47.6310 C   0  0  0  0  0  0  0  0  0  0  0  0
   63.3360   33.5960   47.8470 C   0  0  0  0  0  0  0  0  0  0  0  0
   61.0310   34.0930   48.7200 C   0  0  0  0  0  0  0  0  0  0  0  0
   59.6740   34.3500   48.4960 C   0  0  0  0  0  0  0  0  0  0  0  0
   59.1760   34.3460   47.2320 N   0  0  0  0  0  0  0  0  0  0  0  0
   59.2399   31.1160   50.7420 H   0  0  0  0  0  0  0  0  0  0  0  0
   58.6540   32.3645   49.5910 H   0  0  0  0  0  0  0  0  0  0  0  0
   57.9169   30.7264   49.5910 H   0  0  0  0  0  0  0  0  0  0  0  0
   60.7707   31.4699   48.7690 H   0  0  0  0  0  0  0  0  0  0  0  0
   60.1462   29.7822   48.9153 H   0  0  0  0  0  0  0  0  0  0  0  0
   61.0434   28.8011   47.2878 H   0  0  0  0  0  0  0  0  0  0  0  0
   60.9775   26.9593   45.6166 H   0  0  0  0  0  0  0  0  0  0  0  0
   59.2441   26.9536   43.8253 H   0  0  0  0  0  0  0  0  0  0  0  0
   57.5850   28.8047   43.6856 H   0  0  0  0  0  0  0  0  0  0  0  0
   58.5320   32.3890   46.4480 H   0  0  0  0  0  0  0  0  0  0  0  0
   55.9862   33.1271   44.9657 H   0  0  0  0  0  0  0  0  0  0  0  0
   56.4033   33.7438   46.6157 H   0  0  0  0  0  0  0  0  0  0  0  0
   57.0217   34.9512   44.1382 H   0  0  0  0  0  0  0  0  0  0  0  0
   57.6602   35.3856   45.7775 H   0  0  0  0  0  0  0  0  0  0  0  0
   61.9919   33.6937   45.4649 H   0  0  0  0  0  0  0  0  0  0  0  0
   63.5466   33.5608   48.9261 H   0  0  0  0  0  0  0  0  0  0  0  0
   63.6193   32.6380   47.3867 H   0  0  0  0  0  0  0  0  0  0  0  0
   63.9158   34.4096   47.3867 H   0  0  0  0  0  0  0  0  0  0  0  0
   61.4331   34.0891   49.7439 H   0  0  0  0  0  0  0  0  0  0  0  0
   59.0077   34.5561   49.3467 H   0  0  0  0  0  0  0  0  0  0  0  0
  1  2  1  0
  2  3  1  0
  3  4  1  0
  4  5  2  0
  5  6  1  0
  6  7  2  0
  7  8  1  0
  8  9  2  0
  9 10  1  0
 10 11  2  0
 10 12  1  0
 12 13  1  0
 13 14  1  0
 14 15  1  0
 15 16  1  0
 16 17  2  0
 17 18  1  0
 18 19  1  0
 18 20  2  0
 20 21  1  0
 21 22  2  0
  9  4  1  0
 22 16  1  0
  1 23  1  0
  1 24  1  0
  1 25  1  0
  2 26  1  0
  2 27  1  0
  5 28  1  0
  6 29  1  0
  7 30  1  0
  8 31  1  0
 12 32  1  0
 13 33  1  0
 13 34  1  0
 14 35  1  0
 14 36  1  0
 17 37  1  0
 19 38  1  0
 19 39  1  0
 19 40  1  0
 20 41  1  0
 21 42  1  0
M  END
>  <UniqueID>  (55) 
49

>  <SMILES>  (55) 
CCOc1ccccc1C(=O)NCCSc1cc(C)ccn1

>  <Energy>  (55) 
33.81878880681555

>  <Genealogy>  (55) 
CCOc1ccccc1C(=O)NCCSc1cc(C)ccn1 (3D coordinates assigned)
CCOc1ccccc1C(=O)NCCSc1cc(C)ccn1 (optimized conformer: 33.81878880681555 kcal/mol)

>  <smiles>  (55) 
CCOc1ccccc1C(=O)NCCSc1cc(C)ccn1

>  <score_type>  (55) 
oracle

>  <origin>  (55) 
adg

>  <m_score__min__energy>  (55) 
-7.3600000000000003

>  <m_primary>  (55) 
energy

$$$$
55:0
     RDKit          3D

 41 43  0  0  0  0  0  0  0  0999 V2000
   58.3507   26.0895   43.8594 H   0  0  0  0  0  0  0  0  0  0  0  0
   57.8880   26.5000   44.7690 C   0  0  0  0  0  0  0  0  0  0  0  0
   57.2790   25.6390   45.5990 C   0  0  0  0  0  0  0  0  0  0  0  0
   58.1460   24.2070   46.2470 S   0  0  0  0  0  0  0  0  0  0  0  0
   56.6030   23.7030   47.0180 C   0  0  0  0  0  0  0  0  0  0  0  0
   56.3690   22.1730   47.5350 S   0  0  0  0  0  0  0  0  0  0  0  0
   55.5170   24.6100   46.8940 N   0  0  0  0  0  0  0  0  0  0  0  0
   55.9090   25.7280   46.1200 C   0  0  0  0  0  0  0  0  0  0  0  0
   55.1460   26.7150   45.9570 O   0  0  0  0  0  0  0  0  0  0  0  0
   57.9830   27.9560   44.9860 C   0  0  0  0  0  0  0  0  0  0  0  0
   59.1210   28.4860   45.6100 C   0  0  0  0  0  0  0  0  0  0  0  0
   59.9149   27.8124   45.9649 H   0  0  0  0  0  0  0  0  0  0  0  0
   59.2510   29.8670   45.7830 C   0  0  0  0  0  0  0  0  0  0  0  0
   60.1409   30.2733   46.2859 H   0  0  0  0  0  0  0  0  0  0  0  0
   58.2530   30.7390   45.3190 C   0  0  0  0  0  0  0  0  0  0  0  0
   58.3940   32.1640   45.4920 N   0  0  0  0  0  0  0  0  0  0  0  0
   57.7420   33.0790   44.5860 C   0  0  0  0  0  0  0  0  0  0  0  0
   57.7590   32.8540   43.3460 O   0  0  0  0  0  0  0  0  0  0  0  0
   57.0150   34.2890   45.0900 C   0  0  0  0  0  0  0  0  0  0  0  0
   57.0168   34.2861   46.1900 H   0  0  0  0  0  0  0  0  0  0  0  0
   57.5172   35.1970   44.7249 H   0  0  0  0  0  0  0  0  0  0  0  0
   55.9775   34.2719   44.7249 H   0  0  0  0  0  0  0  0  0  0  0  0
   59.2050   32.6720   46.5740 C   0  0  0  0  0  0  0  0  0  0  0  0
   58.6130   33.0370   47.7950 C   0  0  0  0  0  0  0  0  0  0  0  0
   57.5270   32.9258   47.9298 H   0  0  0  0  0  0  0  0  0  0  0  0
   59.3930   33.5400   48.8390 C   0  0  0  0  0  0  0  0  0  0  0  0
   58.9176   33.8213   49.7902 H   0  0  0  0  0  0  0  0  0  0  0  0
   60.7840   33.6890   48.6810 C   0  0  0  0  0  0  0  0  0  0  0  0
   61.6010   34.1910   49.7060 O   0  0  0  0  0  0  0  0  0  0  0  0
   62.2340   33.3880   50.6980 C   0  0  0  0  0  0  0  0  0  0  0  0
   61.9499   33.7485   51.6977 H   0  0  0  0  0  0  0  0  0  0  0  0
   61.9151   32.3417   50.5811 H   0  0  0  0  0  0  0  0  0  0  0  0
   63.3258   33.4538   50.5811 H   0  0  0  0  0  0  0  0  0  0  0  0
   61.3750   33.3280   47.4610 C   0  0  0  0  0  0  0  0  0  0  0  0
   63.2610   33.5230   47.1980 Br  0  0  0  0  0  0  0  0  0  0  0  0
   60.5920   32.8260   46.4170 C   0  0  0  0  0  0  0  0  0  0  0  0
   61.0667   32.5492   45.4641 H   0  0  0  0  0  0  0  0  0  0  0  0
   57.1340   30.2090   44.6580 C   0  0  0  0  0  0  0  0  0  0  0  0
   56.3554   30.8844   44.2738 H   0  0  0  0  0  0  0  0  0  0  0  0
   57.0030   28.8290   44.4850 C   0  0  0  0  0  0  0  0  0  0  0  0
   56.1287   28.4242   43.9542 H   0  0  0  0  0  0  0  0  0  0  0  0
  1  2  1  0
  2  3  2  0
  3  4  1  0
  4  5  1  0
  5  6  2  0
  5  7  1  0
  7  8  1  0
  8  9  2  0
  2 10  1  0
 10 11  2  0
 11 12  1  0
 11 13  1  0
 13 14  1  0
 13 15  2  0
 15 16  1  0
 16 17  1  0
 17 18  2  0
 17 19  1  0
 19 20  1  0
 19 21  1  0
 19 22  1  0
 16 23  1  0
 23 24  2  0
 24 25  1  0
 24 26  1  0
 26 27  1  0
 26 28  2  0
 28 29  1  0
 29 30  1  0
 30 31  1  0
 30 32  1  0
 30 33  1  0
 28 34  1  0
 34 35  1  0
 34 36  2  0
 36 37  1  0
 15 38  1  0
 38 39  1  0
 38 40  2  0
 40 41  1  0
  8  3  1  0
 40 10  1  0
 36 23  1  0
M  CHG  1   7  -1
M  END
>  <UniqueID>  (56) 
50

>  <SMILES>  (56) 
COc1ccc(N(C(C)=O)c2ccc(/C=C3/SC(=S)[N-]C3=O)cc2)cc1Br

>  <Energy>  (56) 
78.64225573398471

>  <Genealogy>  (56) 
COc1ccc(N(C(C)=O)c2ccc(C=C3SC(=S)[N-]C3=O)cc2)cc1Br (protonated)
COc1ccc(N(C(C)=O)c2ccc(/C=C3/SC(=S)[N-]C3=O)cc2)cc1Br (cis-trans isomerization)
COc1ccc(N(C(C)=O)c2ccc(/C=C3/SC(=S)[N-]C3=O)cc2)cc1Br (3D coordinates assigned)
COc1ccc(N(C(C)=O)c2ccc(/C=C3/SC(=S)[N-]C3=O)cc2)cc1Br (nonaromatic ring conformer: 78.64225573398471 kcal/mol)

>  <smiles>  (56) 
COc1ccc(N(C(C)=O)c2ccc(C=C3SC(=S)NC3=O)cc2)cc1Br

>  <score_type>  (56) 
oracle

>  <origin>  (56) 
adg

>  <m_score__min__energy>  (56) 
-10.98

>  <m_primary>  (56) 
energy

$$$$
56:0
     RDKit          3D

 52 55  0  0  0  0  0  0  0  0999 V2000
   60.8900   29.3510   45.3460 O   0  0  0  0  0  0  0  0  0  0  0  0
   59.8290   29.6920   45.9360 C   0  0  0  0  0  0  0  0  0  0  0  0
   59.8450   29.9610   47.3430 N   0  0  0  0  0  0  0  0  0  0  0  0
   60.2370   29.0620   48.3900 C   0  0  0  0  0  0  0  0  0  0  0  0
   60.1330   27.6680   48.2200 C   0  0  0  0  0  0  0  0  0  0  0  0
   60.5510   26.7980   49.2290 C   0  0  0  0  0  0  0  0  0  0  0  0
   61.0730   27.3050   50.4180 C   0  0  0  0  0  0  0  0  0  0  0  0
   61.1580   28.6850   50.6120 C   0  0  0  0  0  0  0  0  0  0  0  0
   60.7240   29.5770   49.6160 C   0  0  0  0  0  0  0  0  0  0  0  0
   60.8250   31.0350   49.8800 C   0  0  0  0  0  0  0  0  0  0  0  0
   59.8320   31.6210   50.3960 O   0  0  0  0  0  0  0  0  0  0  0  0
   61.9790   31.8080   49.4530 N   0  0  0  0  0  0  0  0  0  0  0  0
   61.8620   33.2310   49.8610 C   0  0  0  0  0  0  0  0  0  0  0  0
   60.7870   33.9930   49.0640 C   0  0  0  0  0  0  0  0  0  0  0  0
   60.7530   33.5470   47.6690 N   0  0  0  0  0  0  0  0  0  0  0  0
   59.5800   33.7710   46.8620 C   0  0  0  0  0  0  0  0  0  0  0  0
   58.3340   33.2500   47.2570 C   0  0  0  0  0  0  0  0  0  0  0  0
   57.1990   33.4540   46.4660 C   0  0  0  0  0  0  0  0  0  0  0  0
   57.2980   34.1710   45.2720 C   0  0  0  0  0  0  0  0  0  0  0  0
   58.5310   34.6850   44.8650 C   0  0  0  0  0  0  0  0  0  0  0  0
   59.6680   34.4840   45.6530 C   0  0  0  0  0  0  0  0  0  0  0  0
   61.9240   32.8510   47.1350 C   0  0  0  0  0  0  0  0  0  0  0  0
   62.2430   31.6180   47.9960 C   0  0  0  0  0  0  0  0  0  0  0  0
   58.5950   29.9220   45.1480 C   0  0  0  0  0  0  0  0  0  0  0  0
   58.5300   31.0510   44.3070 C   0  0  0  0  0  0  0  0  0  0  0  0
   57.3750   31.3230   43.5700 C   0  0  0  0  0  0  0  0  0  0  0  0
   56.2730   30.4730   43.6550 C   0  0  0  0  0  0  0  0  0  0  0  0
   56.3270   29.3410   44.4710 C   0  0  0  0  0  0  0  0  0  0  0  0
   57.4790   29.0540   45.2150 C   0  0  0  0  0  0  0  0  0  0  0  0
   57.4920   27.5580   46.1430 Cl  0  0  0  0  0  0  0  0  0  0  0  0
   59.7194   27.2614   47.2853 H   0  0  0  0  0  0  0  0  0  0  0  0
   60.4682   25.7106   49.0854 H   0  0  0  0  0  0  0  0  0  0  0  0
   61.4182   26.6172   51.2040 H   0  0  0  0  0  0  0  0  0  0  0  0
   61.5687   29.0782   51.5537 H   0  0  0  0  0  0  0  0  0  0  0  0
   62.8170   31.4270   49.9510 H   0  0  0  0  0  0  0  0  0  0  0  0
   61.6017   33.2703   50.9290 H   0  0  0  0  0  0  0  0  0  0  0  0
   62.8293   33.7144   49.6591 H   0  0  0  0  0  0  0  0  0  0  0  0
   59.8038   33.8131   49.5232 H   0  0  0  0  0  0  0  0  0  0  0  0
   61.0309   35.0654   49.0832 H   0  0  0  0  0  0  0  0  0  0  0  0
   58.2523   32.6789   48.1935 H   0  0  0  0  0  0  0  0  0  0  0  0
   56.2272   33.0492   46.7848 H   0  0  0  0  0  0  0  0  0  0  0  0
   56.4040   34.3311   44.6514 H   0  0  0  0  0  0  0  0  0  0  0  0
   58.6076   35.2486   43.9235 H   0  0  0  0  0  0  0  0  0  0  0  0
   60.6380   34.8862   45.3253 H   0  0  0  0  0  0  0  0  0  0  0  0
   61.7178   32.5308   46.1030 H   0  0  0  0  0  0  0  0  0  0  0  0
   62.7865   33.5335   47.1495 H   0  0  0  0  0  0  0  0  0  0  0  0
   61.6272   30.7790   47.6397 H   0  0  0  0  0  0  0  0  0  0  0  0
   63.3213   31.4277   47.8909 H   0  0  0  0  0  0  0  0  0  0  0  0
   59.3966   31.7241   44.2303 H   0  0  0  0  0  0  0  0  0  0  0  0
   57.3347   32.2101   42.9208 H   0  0  0  0  0  0  0  0  0  0  0  0
   55.3618   30.6939   43.0798 H   0  0  0  0  0  0  0  0  0  0  0  0
   55.4580   28.6692   44.5301 H   0  0  0  0  0  0  0  0  0  0  0  0
  1  2  2  0
  2  3  1  0
  3  4  1  0
  4  5  2  0
  5  6  1  0
  6  7  2  0
  7  8  1  0
  8  9  2  0
  9 10  1  0
 10 11  2  0
 10 12  1  0
 12 13  1  0
 13 14  1  0
 14 15  1  0
 15 16  1  0
 16 17  2  0
 17 18  1  0
 18 19  2  0
 19 20  1  0
 20 21  2  0
 15 22  1  0
 22 23  1  0
  2 24  1  0
 24 25  2  0
 25 26  1  0
 26 27  2  0
 27 28  1  0
 28 29  2  0
 29 30  1  0
  9  4  1  0
 23 12  1  0
 29 24  1  0
 21 16  1  0
  5 31  1  0
  6 32  1  0
  7 33  1  0
  8 34  1  0
 12 35  1  0
 13 36  1  0
 13 37  1  0
 14 38  1  0
 14 39  1  0
 17 40  1  0
 18 41  1  0
 19 42  1  0
 20 43  1  0
 21 44  1  0
 22 45  1  0
 22 46  1  0
 23 47  1  0
 23 48  1  0
 25 49  1  0
 26 50  1  0
 27 51  1  0
 28 52  1  0
M  CHG  2   3  -1  12   1
M  END
>  <UniqueID>  (57) 
51

>  <SMILES>  (57) 
O=C([N-]c1ccccc1C(=O)[NH+]1CCN(c2ccccc2)CC1)c1ccccc1Cl

>  <Energy>  (57) 
82.97448467660692

>  <Genealogy>  (57) 
O=C([N-]c1ccccc1C(=O)[NH+]1CCN(c2ccccc2)CC1)c1ccccc1Cl (protonated)
O=C([N-]c1ccccc1C(=O)[NH+]1CCN(c2ccccc2)CC1)c1ccccc1Cl (3D coordinates assigned)
O=C([N-]c1ccccc1C(=O)[NH+]1CCN(c2ccccc2)CC1)c1ccccc1Cl (nonaromatic ring conformer: 82.97448467660692 kcal/mol)

>  <smiles>  (57) 
O=C(Nc1ccccc1C(=O)N1CCN(c2ccccc2)CC1)c1ccccc1Cl

>  <score_type>  (57) 
oracle

>  <origin>  (57) 
adg

>  <m_score__min__energy>  (57) 
-10.15

>  <m_primary>  (57) 
energy

$$$$
57:0
     RDKit          3D

 51 54  0  0  0  0  0  0  0  0999 V2000
   58.4890   27.3910   43.7590 C   0  0  0  0  0  0  0  0  0  0  0  0
   57.9400   28.7130   44.1720 C   0  0  0  0  0  0  0  0  0  0  0  0
   56.6400   28.9890   43.8300 C   0  0  0  0  0  0  0  0  0  0  0  0
   56.1140   30.2280   44.2120 C   0  0  0  0  0  0  0  0  0  0  0  0
   56.9370   31.0370   44.8820 N   0  0  0  0  0  0  0  0  0  0  0  0
   58.1920   30.8270   45.2390 C   0  0  0  0  0  0  0  0  0  0  0  0
   59.0420   31.7550   45.9690 C   0  0  0  0  0  0  0  0  0  0  0  0
   59.8710   31.3890   46.9680 N   0  0  0  0  0  0  0  0  0  0  0  0
   60.5250   32.4290   47.4490 N   0  0  0  0  0  0  0  0  0  0  0  0
   61.4890   32.3170   48.5270 C   0  0  0  0  0  0  0  0  0  0  0  0
   61.6400   33.5640   49.3220 C   0  0  0  0  0  0  0  0  0  0  0  0
   62.7740   33.2980   50.3230 C   0  0  0  0  0  0  0  0  0  0  0  0
   63.9720   32.8770   49.6730 N   0  0  0  0  0  0  0  0  0  0  0  0
   65.1830   33.4620   50.1590 C   0  0  0  0  0  0  0  0  0  0  0  0
   66.0380   32.4120   50.8390 C   0  0  0  0  0  0  0  0  0  0  0  0
   65.4960   32.1360   52.0640 F   0  0  0  0  0  0  0  0  0  0  0  0
   66.1340   31.2450   50.1320 F   0  0  0  0  0  0  0  0  0  0  0  0
   67.4310   33.0170   51.0540 C   0  0  0  0  0  0  0  0  0  0  0  0
   67.9350   33.4980   49.8640 F   0  0  0  0  0  0  0  0  0  0  0  0
   67.4030   34.0530   51.9520 F   0  0  0  0  0  0  0  0  0  0  0  0
   68.2660   32.0190   51.5330 F   0  0  0  0  0  0  0  0  0  0  0  0
   63.8370   32.9160   48.2530 C   0  0  0  0  0  0  0  0  0  0  0  0
   62.7980   31.8660   47.8870 C   0  0  0  0  0  0  0  0  0  0  0  0
   60.1340   33.5190   46.7670 C   0  0  0  0  0  0  0  0  0  0  0  0
   60.4780   34.8120   46.8470 N   0  0  0  0  0  0  0  0  0  0  0  0
   59.9130   35.7040   46.0170 C   0  0  0  0  0  0  0  0  0  0  0  0
   59.0050   35.3330   45.1000 N   0  0  0  0  0  0  0  0  0  0  0  0
   58.6570   34.0360   45.0170 C   0  0  0  0  0  0  0  0  0  0  0  0
   57.8010   33.7000   44.1490 N   0  0  0  0  0  0  0  0  0  0  0  0
   59.2000   33.0980   45.8340 C   0  0  0  0  0  0  0  0  0  0  0  0
   58.7510   29.5920   44.8710 C   0  0  0  0  0  0  0  0  0  0  0  0
   58.7344   26.8001   44.6538 H   0  0  0  0  0  0  0  0  0  0  0  0
   57.7395   26.8539   43.1591 H   0  0  0  0  0  0  0  0  0  0  0  0
   59.3984   27.5429   43.1591 H   0  0  0  0  0  0  0  0  0  0  0  0
   56.0317   28.2604   43.2740 H   0  0  0  0  0  0  0  0  0  0  0  0
   55.0803   30.5188   43.9735 H   0  0  0  0  0  0  0  0  0  0  0  0
   61.1402   31.5838   49.2692 H   0  0  0  0  0  0  0  0  0  0  0  0
   61.9012   34.4063   48.6645 H   0  0  0  0  0  0  0  0  0  0  0  0
   60.7042   33.8276   49.8365 H   0  0  0  0  0  0  0  0  0  0  0  0
   62.9791   34.2232   50.8815 H   0  0  0  0  0  0  0  0  0  0  0  0
   62.4507   32.4905   50.9964 H   0  0  0  0  0  0  0  0  0  0  0  0
   65.7413   33.8941   49.3155 H   0  0  0  0  0  0  0  0  0  0  0  0
   64.9338   34.2475   50.8876 H   0  0  0  0  0  0  0  0  0  0  0  0
   63.4998   33.9123   47.9309 H   0  0  0  0  0  0  0  0  0  0  0  0
   64.7978   32.7137   47.7571 H   0  0  0  0  0  0  0  0  0  0  0  0
   62.6866   31.8052   46.7943 H   0  0  0  0  0  0  0  0  0  0  0  0
   63.0947   30.8688   48.2442 H   0  0  0  0  0  0  0  0  0  0  0  0
   60.2008   36.7632   46.0901 H   0  0  0  0  0  0  0  0  0  0  0  0
   58.5770   36.0550   44.4610 H   0  0  0  0  0  0  0  0  0  0  0  0
   57.0100   33.0650   44.3250 H   0  0  0  0  0  0  0  0  0  0  0  0
   59.7891   29.3337   45.1271 H   0  0  0  0  0  0  0  0  0  0  0  0
  1  2  1  0
  2  3  2  0
  3  4  1  0
  4  5  2  0
  5  6  1  0
  6  7  1  0
  7  8  2  0
  8  9  1  0
  9 10  1  0
 10 11  1  0
 11 12  1  0
 12 13  1  0
 13 14  1  0
 14 15  1  0
 15 16  1  0
 15 17  1  0
 15 18  1  0
 18 19  1  0
 18 20  1  0
 18 21  1  0
 13 22  1  0
 22 23  1  0
  9 24  1  0
 24 25  1  0
 25 26  2  0
 26 27  1  0
 27 28  1  0
 28 29  2  3
 28 30  1  0
  6 31  2  0
 31  2  1  0
 30  7  1  0
 23 10  1  0
 30 24  2  0
  1 32  1  0
  1 33  1  0
  1 34  1  0
  3 35  1  0
  4 36  1  0
 10 37  1  0
 11 38  1  0
 11 39  1  0
 12 40  1  0
 12 41  1  0
 14 42  1  0
 14 43  1  0
 22 44  1  0
 22 45  1  0
 23 46  1  0
 23 47  1  0
 26 48  1  0
 27 49  1  0
 29 50  1  0
 31 51  1  0
M  END
>  <smiles>  (58) 
Cc1ccnc(-c2nn(C3CCN(CC(F)(F)C(F)(F)F)CC3)c3nc[nH]c(=N)c23)c1

>  <score_type>  (58) 
oracle

>  <origin>  (58) 
adg

>  <m_score__min__energy>  (58) 
-7.1100000000000003

>  <m_primary>  (58) 
energy

$$$$
58:0
     RDKit          3D

 41 44  0  0  0  0  0  0  0  0999 V2000
   63.4980   33.0490   47.1510 C   0  0  0  0  0  0  0  0  0  0  0  0
   62.9260   33.9360   48.2360 C   0  0  0  0  0  0  0  0  0  0  0  0
   61.5710   33.5440   48.6080 N   0  0  0  0  0  0  0  0  0  0  0  0
   61.4350   32.9140   49.7880 C   0  0  0  0  0  0  0  0  0  0  0  0
   62.4000   32.6610   50.5550 O   0  0  0  0  0  0  0  0  0  0  0  0
   60.1510   32.5420   50.1410 C   0  0  0  0  0  0  0  0  0  0  0  0
   59.6500   31.8930   51.2210 N   0  0  0  0  0  0  0  0  0  0  0  0
   58.3380   31.7740   51.0530 C   0  0  0  0  0  0  0  0  0  0  0  0
   57.3880   31.1440   51.9640 C   0  0  0  0  0  0  0  0  0  0  0  0
   57.3230   31.3390   53.3370 C   0  0  0  0  0  0  0  0  0  0  0  0
   56.2930   30.5630   53.8120 C   0  0  0  0  0  0  0  0  0  0  0  0
   55.7710   29.9250   52.7030 C   0  0  0  0  0  0  0  0  0  0  0  0
   56.4500   30.2950   51.6230 O   0  0  0  0  0  0  0  0  0  0  0  0
   58.0120   32.3410   49.8820 N   0  0  0  0  0  0  0  0  0  0  0  0
   59.0950   32.8290   49.2830 C   0  0  0  0  0  0  0  0  0  0  0  0
   59.2540   33.4590   48.1120 N   0  0  0  0  0  0  0  0  0  0  0  0
   58.2220   33.8250   47.2040 C   0  0  0  0  0  0  0  0  0  0  0  0
   58.1150   33.0550   45.9720 C   0  0  0  0  0  0  0  0  0  0  0  0
   58.2910   31.6640   46.0700 C   0  0  0  0  0  0  0  0  0  0  0  0
   58.2120   30.8400   44.9760 C   0  0  0  0  0  0  0  0  0  0  0  0
   57.9520   31.3400   43.7140 C   0  0  0  0  0  0  0  0  0  0  0  0
   57.7790   32.6990   43.6070 C   0  0  0  0  0  0  0  0  0  0  0  0
   57.8600   33.5250   44.7150 C   0  0  0  0  0  0  0  0  0  0  0  0
   57.6730   34.8420   44.5080 F   0  0  0  0  0  0  0  0  0  0  0  0
   60.5280   33.8120   47.7930 C   0  0  0  0  0  0  0  0  0  0  0  0
   60.8100   34.4090   46.7170 O   0  0  0  0  0  0  0  0  0  0  0  0
   64.0394   32.2094   47.6113 H   0  0  0  0  0  0  0  0  0  0  0  0
   62.6803   32.6598   46.5266 H   0  0  0  0  0  0  0  0  0  0  0  0
   64.1899   33.6333   46.5266 H   0  0  0  0  0  0  0  0  0  0  0  0
   63.5709   33.8700   49.1247 H   0  0  0  0  0  0  0  0  0  0  0  0
   62.8863   34.9641   47.8470 H   0  0  0  0  0  0  0  0  0  0  0  0
   57.9751   31.9934   53.9341 H   0  0  0  0  0  0  0  0  0  0  0  0
   55.9554   30.4695   54.8547 H   0  0  0  0  0  0  0  0  0  0  0  0
   54.9257   29.2211   52.7130 H   0  0  0  0  0  0  0  0  0  0  0  0
   57.0570   32.3730   49.5100 H   0  0  0  0  0  0  0  0  0  0  0  0
   57.2641   33.7317   47.7367 H   0  0  0  0  0  0  0  0  0  0  0  0
   58.4781   34.8444   46.8798 H   0  0  0  0  0  0  0  0  0  0  0  0
   58.4988   31.2218   47.0556 H   0  0  0  0  0  0  0  0  0  0  0  0
   58.3588   29.7576   45.1061 H   0  0  0  0  0  0  0  0  0  0  0  0
   57.8866   30.6806   42.8360 H   0  0  0  0  0  0  0  0  0  0  0  0
   57.5719   33.1396   42.6206 H   0  0  0  0  0  0  0  0  0  0  0  0
  1  2  1  0
  2  3  1  0
  3  4  1  0
  4  5  2  0
  4  6  1  0
  6  7  1  0
  7  8  2  0
  8  9  1  0
  9 10  2  0
 10 11  1  0
 11 12  2  0
 12 13  1  0
  8 14  1  0
 14 15  1  0
 15 16  1  0
 16 17  1  0
 17 18  1  0
 18 19  2  0
 19 20  1  0
 20 21  2  0
 21 22  1  0
 22 23  2  0
 23 24  1  0
 16 25  1  0
 25 26  2  0
 25  3  1  0
 15  6  2  0
 23 18  1  0
 13  9  1  0
  1 27  1  0
  1 28  1  0
  1 29  1  0
  2 30  1  0
  2 31  1  0
 10 32  1  0
 11 33  1  0
 12 34  1  0
 14 35  1  0
 17 36  1  0
 17 37  1  0
 19 38  1  0
 20 39  1  0
 21 40  1  0
 22 41  1  0
M  END
>  <smiles>  (59) 
CCn1c(=O)c2nc(-c3ccco3)[nH]c2n(Cc2ccccc2F)c1=O

>  <score_type>  (59) 
oracle

>  <origin>  (59) 
adg

>  <m_score__min__energy>  (59) 
-7.0199999999999996

>  <m_primary>  (59) 
energy

$$$$
59:0
     RDKit          3D

 45 47  0  0  1  0  0  0  0  0999 V2000
   56.8960   21.2050   42.9680 C   0  0  0  0  0  0  0  0  0  0  0  0
   56.0840   22.1670   43.6800 N   0  0  0  0  0  0  0  0  0  0  0  0
   56.3630   22.2200   45.0790 C   0  0  0  0  0  0  0  0  0  0  0  0
   56.1420   23.5860   45.6830 C   0  0  0  0  0  0  0  0  0  0  0  0
   56.9840   24.5210   44.9570 N   0  0  0  0  0  0  0  0  0  0  0  0
   57.7200   25.5590   45.6100 C   0  0  0  0  0  0  0  0  0  0  0  0
   58.8480   25.3380   46.2830 N   0  0  0  0  0  0  0  0  0  0  0  0
   59.5400   26.3360   46.9000 C   0  0  0  0  0  0  0  0  0  0  0  0
   59.0350   27.5820   46.8060 N   0  0  0  0  0  0  0  0  0  0  0  0
   57.8980   27.8260   46.1320 C   0  0  0  0  0  0  0  0  0  0  0  0
   57.3680   28.9890   46.0060 N   0  0  0  0  0  0  0  0  0  0  0  0
   57.5390   29.6760   44.7160 C   0  0  1  0  0  0  0  0  0  0  0  0
   56.3050   29.6280   43.9290 C   0  0  0  0  0  0  0  0  0  0  0  0
   56.1850   29.1000   42.6220 N   0  0  0  0  0  0  0  0  0  0  0  0
   55.2310   30.0960   44.4420 O   0  0  0  0  0  0  0  0  0  0  0  0
   58.0040   31.0420   45.0600 C   0  0  0  0  0  0  0  0  0  0  0  0
   58.8600   31.1630   46.1330 C   0  0  0  0  0  0  0  0  0  0  0  0
   59.3180   32.4300   46.4870 C   0  0  0  0  0  0  0  0  0  0  0  0
   58.9560   33.5620   45.8160 C   0  0  0  0  0  0  0  0  0  0  0  0
   59.6430   35.2380   46.3890 Br  0  0  0  0  0  0  0  0  0  0  0  0
   58.0980   33.4320   44.7430 C   0  0  0  0  0  0  0  0  0  0  0  0
   57.6350   32.1780   44.3790 C   0  0  0  0  0  0  0  0  0  0  0  0
   57.2290   26.8040   45.5240 N   0  0  0  0  0  0  0  0  0  0  0  0
   57.0870   24.4010   43.5140 C   0  0  0  0  0  0  0  0  0  0  0  0
   56.0580   23.4230   43.0010 C   0  0  0  0  0  0  0  0  0  0  0  0
   57.4312   20.5710   43.6902 H   0  0  0  0  0  0  0  0  0  0  0  0
   56.2509   20.5769   42.3361 H   0  0  0  0  0  0  0  0  0  0  0  0
   57.6235   21.7355   42.3361 H   0  0  0  0  0  0  0  0  0  0  0  0
   55.7076   21.5014   45.5928 H   0  0  0  0  0  0  0  0  0  0  0  0
   57.4280   21.9766   45.2072 H   0  0  0  0  0  0  0  0  0  0  0  0
   55.0854   23.8752   45.5832 H   0  0  0  0  0  0  0  0  0  0  0  0
   56.3954   23.5840   46.7534 H   0  0  0  0  0  0  0  0  0  0  0  0
   60.4704   26.1338   47.4509 H   0  0  0  0  0  0  0  0  0  0  0  0
   59.5390   28.3690   47.2660 H   0  0  0  0  0  0  0  0  0  0  0  0
   58.2791   29.1930   44.0611 H   0  0  0  0  0  0  0  0  0  0  0  0
   56.6490   28.1950   42.3510 H   0  0  0  0  0  0  0  0  0  0  0  0
   55.6160   29.6280   41.9020 H   0  0  0  0  0  0  0  0  0  0  0  0
   59.1760   30.2749   46.6999 H   0  0  0  0  0  0  0  0  0  0  0  0
   60.0009   32.5221   47.3444 H   0  0  0  0  0  0  0  0  0  0  0  0
   57.7825   34.3217   44.1782 H   0  0  0  0  0  0  0  0  0  0  0  0
   56.9528   32.0887   43.5208 H   0  0  0  0  0  0  0  0  0  0  0  0
   56.9151   25.3852   43.0537 H   0  0  0  0  0  0  0  0  0  0  0  0
   58.0917   24.0368   43.2534 H   0  0  0  0  0  0  0  0  0  0  0  0
   55.0600   23.8678   43.1279 H   0  0  0  0  0  0  0  0  0  0  0  0
   56.2934   23.2269   41.9445 H   0  0  0  0  0  0  0  0  0  0  0  0
  1  2  1  0
  2  3  1  0
  3  4  1  0
  4  5  1  0
  5  6  1  0
  6  7  1  0
  7  8  2  0
  8  9  1  0
  9 10  1  0
 10 11  2  0
 11 12  1  0
 12 13  1  0
 13 14  1  0
 13 15  2  0
 12 16  1  0
 16 17  2  0
 17 18  1  0
 18 19  2  0
 19 20  1  0
 19 21  1  0
 21 22  2  0
 10 23  1  0
  5 24  1  0
 24 25  1  0
 25  2  1  0
 23  6  2  0
 22 16  1  0
  1 26  1  0
  1 27  1  0
  1 28  1  0
  3 29  1  0
  3 30  1  0
  4 31  1  0
  4 32  1  0
  8 33  1  0
  9 34  1  0
 12 35  1  6
 14 36  1  0
 14 37  1  0
 17 38  1  0
 18 39  1  0
 21 40  1  0
 22 41  1  0
 24 42  1  0
 24 43  1  0
 25 44  1  0
 25 45  1  0
M  END
>  <smiles>  (60) 
CN1CCN(c2nc[nH]c(=NC(C(N)=O)c3ccc(Br)cc3)n2)CC1

>  <score_type>  (60) 
oracle

>  <origin>  (60) 
adg

>  <m_score__min__energy>  (60) 
-8.7200000000000006

>  <m_primary>  (60) 
energy

$$$$
60:0
     RDKit          3D

 39 41  0  0  0  0  0  0  0  0999 V2000
   57.2130   32.3440   40.8300 C   0  0  0  0  0  0  0  0  0  0  0  0
   57.3930   32.0550   42.2910 C   0  0  0  0  0  0  0  0  0  0  0  0
   58.3490   32.7590   43.0360 C   0  0  0  0  0  0  0  0  0  0  0  0
   58.5260   32.4820   44.3930 C   0  0  0  0  0  0  0  0  0  0  0  0
   57.7590   31.4940   45.0220 C   0  0  0  0  0  0  0  0  0  0  0  0
   57.9640   31.2330   46.4200 N   0  0  0  0  0  0  0  0  0  0  0  0
   59.0460   31.8090   47.1660 C   0  0  0  0  0  0  0  0  0  0  0  0
   60.0760   32.2190   46.5630 O   0  0  0  0  0  0  0  0  0  0  0  0
   58.9930   31.8800   48.6410 C   0  0  0  0  0  0  0  0  0  0  0  0
   58.7310   30.7070   49.3700 C   0  0  0  0  0  0  0  0  0  0  0  0
   58.6690   30.7360   50.7650 C   0  0  0  0  0  0  0  0  0  0  0  0
   58.8790   31.9340   51.4500 C   0  0  0  0  0  0  0  0  0  0  0  0
   58.8220   31.9600   52.8050 F   0  0  0  0  0  0  0  0  0  0  0  0
   59.1620   33.1030   50.7410 C   0  0  0  0  0  0  0  0  0  0  0  0
   59.2250   33.0860   49.3410 C   0  0  0  0  0  0  0  0  0  0  0  0
   59.6840   34.5760   48.5200 Cl  0  0  0  0  0  0  0  0  0  0  0  0
   56.8510   30.7250   44.2640 C   0  0  0  0  0  0  0  0  0  0  0  0
   56.1430   29.6510   44.9040 N   0  0  0  0  0  0  0  0  0  0  0  0
   56.6850   28.4460   45.4560 C   0  0  0  0  0  0  0  0  0  0  0  0
   55.9660   27.4250   45.6190 O   0  0  0  0  0  0  0  0  0  0  0  0
   58.1150   28.3810   45.7760 C   0  0  0  0  0  0  0  0  0  0  0  0
   59.1240   28.0090   44.9070 C   0  0  0  0  0  0  0  0  0  0  0  0
   60.2890   28.0880   45.6390 C   0  0  0  0  0  0  0  0  0  0  0  0
   59.9210   28.5030   46.9030 C   0  0  0  0  0  0  0  0  0  0  0  0
   58.6190   28.6690   46.9540 O   0  0  0  0  0  0  0  0  0  0  0  0
   56.6560   31.0300   42.9040 C   0  0  0  0  0  0  0  0  0  0  0  0
   56.6350   33.2720   40.7083 H   0  0  0  0  0  0  0  0  0  0  0  0
   58.1984   32.4608   40.3552 H   0  0  0  0  0  0  0  0  0  0  0  0
   56.6736   31.5111   40.3552 H   0  0  0  0  0  0  0  0  0  0  0  0
   58.9619   33.5324   42.5499 H   0  0  0  0  0  0  0  0  0  0  0  0
   59.2735   33.0441   44.9721 H   0  0  0  0  0  0  0  0  0  0  0  0
   57.3800   30.5000   46.8830 H   0  0  0  0  0  0  0  0  0  0  0  0
   58.5734   29.7578   48.8370 H   0  0  0  0  0  0  0  0  0  0  0  0
   58.4544   29.8136   51.3246 H   0  0  0  0  0  0  0  0  0  0  0  0
   59.3366   34.0432   51.2846 H   0  0  0  0  0  0  0  0  0  0  0  0
   59.0190   27.7124   43.8530 H   0  0  0  0  0  0  0  0  0  0  0  0
   61.3070   27.8652   45.2869 H   0  0  0  0  0  0  0  0  0  0  0  0
   60.6136   28.6696   47.7412 H   0  0  0  0  0  0  0  0  0  0  0  0
   55.9203   30.4606   42.3170 H   0  0  0  0  0  0  0  0  0  0  0  0
  1  2  1  0
  2  3  2  0
  3  4  1  0
  4  5  2  0
  5  6  1  0
  6  7  1  0
  7  8  2  0
  7  9  1  0
  9 10  2  0
 10 11  1  0
 11 12  2  0
 12 13  1  0
 12 14  1  0
 14 15  2  0
 15 16  1  0
  5 17  1  0
 17 18  1  0
 18 19  1  0
 19 20  2  0
 19 21  1  0
 21 22  2  0
 22 23  1  0
 23 24  2  0
 24 25  1  0
 17 26  2  0
 26  2  1  0
 15  9  1  0
 25 21  1  0
  1 27  1  0
  1 28  1  0
  1 29  1  0
  3 30  1  0
  4 31  1  0
  6 32  1  0
 10 33  1  0
 11 34  1  0
 14 35  1  0
 22 36  1  0
 23 37  1  0
 24 38  1  0
 26 39  1  0
M  CHG  1  18  -1
M  END
>  <UniqueID>  (61) 
52

>  <SMILES>  (61) 
Cc1ccc(NC(=O)c2ccc(F)cc2Cl)c([N-]C(=O)c2ccco2)c1

>  <Energy>  (61) 
78.37113985914402

>  <Genealogy>  (61) 
Cc1ccc(NC(=O)c2ccc(F)cc2Cl)c([N-]C(=O)c2ccco2)c1 (protonated)
Cc1ccc(NC(=O)c2ccc(F)cc2Cl)c([N-]C(=O)c2ccco2)c1 (3D coordinates assigned)
Cc1ccc(NC(=O)c2ccc(F)cc2Cl)c([N-]C(=O)c2ccco2)c1 (optimized conformer: 78.37113985914402 kcal/mol)

>  <smiles>  (61) 
Cc1ccc(NC(=O)c2ccc(F)cc2Cl)c(NC(=O)c2ccco2)c1

>  <score_type>  (61) 
oracle

>  <origin>  (61) 
adg

>  <m_score__min__energy>  (61) 
-9.8000000000000007

>  <m_primary>  (61) 
energy

$$$$
61:0
     RDKit          3D

 44 47  0  0  0  0  0  0  0  0999 V2000
   59.0510   26.5040   46.6120 O   0  0  0  0  0  0  0  0  0  0  0  0
   57.9490   26.6800   46.0230 C   0  0  0  0  0  0  0  0  0  0  0  0
   56.8430   25.7470   46.2900 C   0  0  0  0  0  0  0  0  0  0  0  0
   56.9230   24.5500   46.9720 C   0  0  0  0  0  0  0  0  0  0  0  0
   55.6210   24.0830   46.9870 C   0  0  0  0  0  0  0  0  0  0  0  0
   55.1310   22.8200   47.5920 C   0  0  0  0  0  0  0  0  0  0  0  0
   53.8490   22.3160   47.2980 C   0  0  0  0  0  0  0  0  0  0  0  0
   53.4040   21.1270   47.8830 C   0  0  0  0  0  0  0  0  0  0  0  0
   54.2290   20.4270   48.7680 C   0  0  0  0  0  0  0  0  0  0  0  0
   53.6660   18.9370   49.5030 Cl  0  0  0  0  0  0  0  0  0  0  0  0
   55.5040   20.9170   49.0660 C   0  0  0  0  0  0  0  0  0  0  0  0
   55.9530   22.1050   48.4830 C   0  0  0  0  0  0  0  0  0  0  0  0
   54.8240   24.9690   46.3550 N   0  0  0  0  0  0  0  0  0  0  0  0
   55.5660   25.9830   45.9380 N   0  0  0  0  0  0  0  0  0  0  0  0
   57.7950   27.7890   45.1200 N   0  0  0  0  0  0  0  0  0  0  0  0
   56.6530   28.7050   45.2850 C   0  0  0  0  0  0  0  0  0  0  0  0
   56.8700   30.0120   44.5150 C   0  0  0  0  0  0  0  0  0  0  0  0
   58.2440   30.4870   44.7250 N   0  0  0  0  0  0  0  0  0  0  0  0
   58.4950   31.8140   45.2230 C   0  0  0  0  0  0  0  0  0  0  0  0
   58.2930   32.9350   44.3990 C   0  0  0  0  0  0  0  0  0  0  0  0
   58.5520   34.2220   44.8820 C   0  0  0  0  0  0  0  0  0  0  0  0
   59.0190   34.4000   46.1870 C   0  0  0  0  0  0  0  0  0  0  0  0
   59.2710   35.6490   46.6510 F   0  0  0  0  0  0  0  0  0  0  0  0
   59.2300   33.2930   47.0110 C   0  0  0  0  0  0  0  0  0  0  0  0
   58.9700   32.0040   46.5330 C   0  0  0  0  0  0  0  0  0  0  0  0
   59.3740   29.5700   44.5030 C   0  0  0  0  0  0  0  0  0  0  0  0
   58.8910   28.1450   44.2070 C   0  0  0  0  0  0  0  0  0  0  0  0
   57.8166   24.0762   47.4043 H   0  0  0  0  0  0  0  0  0  0  0  0
   53.1936   22.8618   46.6033 H   0  0  0  0  0  0  0  0  0  0  0  0
   52.4015   20.7410   47.6462 H   0  0  0  0  0  0  0  0  0  0  0  0
   56.1551   20.3663   49.7608 H   0  0  0  0  0  0  0  0  0  0  0  0
   56.9573   22.4845   48.7225 H   0  0  0  0  0  0  0  0  0  0  0  0
   55.7432   28.2145   44.9086 H   0  0  0  0  0  0  0  0  0  0  0  0
   56.5528   28.9450   46.3538 H   0  0  0  0  0  0  0  0  0  0  0  0
   56.7037   29.8363   43.4419 H   0  0  0  0  0  0  0  0  0  0  0  0
   56.1621   30.7713   44.8786 H   0  0  0  0  0  0  0  0  0  0  0  0
   57.9296   32.7994   43.3697 H   0  0  0  0  0  0  0  0  0  0  0  0
   58.3878   35.0953   44.2336 H   0  0  0  0  0  0  0  0  0  0  0  0
   59.6010   33.4343   48.0369 H   0  0  0  0  0  0  0  0  0  0  0  0
   59.1380   31.1344   47.1854 H   0  0  0  0  0  0  0  0  0  0  0  0
   59.9655   29.9317   43.6490 H   0  0  0  0  0  0  0  0  0  0  0  0
   59.9834   29.5449   45.4185 H   0  0  0  0  0  0  0  0  0  0  0  0
   58.5332   28.0894   43.1683 H   0  0  0  0  0  0  0  0  0  0  0  0
   59.7251   27.4424   44.3507 H   0  0  0  0  0  0  0  0  0  0  0  0
  1  2  2  0
  2  3  1  0
  3  4  2  0
  4  5  1  0
  5  6  1  0
  6  7  2  0
  7  8  1  0
  8  9  2  0
  9 10  1  0
  9 11  1  0
 11 12  2  0
  5 13  2  0
 13 14  1  0
  2 15  1  0
 15 16  1  0
 16 17  1  0
 17 18  1  0
 18 19  1  0
 19 20  2  0
 20 21  1  0
 21 22  2  0
 22 23  1  0
 22 24  1  0
 24 25  2  0
 18 26  1  0
 26 27  1  0
 14  3  1  0
 27 15  1  0
 12  6  1  0
 25 19  1  0
  4 28  1  0
  7 29  1  0
  8 30  1  0
 11 31  1  0
 12 32  1  0
 16 33  1  0
 16 34  1  0
 17 35  1  0
 17 36  1  0
 20 37  1  0
 21 38  1  0
 24 39  1  0
 25 40  1  0
 26 41  1  0
 26 42  1  0
 27 43  1  0
 27 44  1  0
M  CHG  1  14  -1
M  END
>  <UniqueID>  (62) 
53

>  <SMILES>  (62) 
O=C(c1cc(-c2ccc(Cl)cc2)n[n-]1)N1CCN(c2ccc(F)cc2)CC1

>  <Energy>  (62) 
87.1828208112802

>  <Genealogy>  (62) 
O=C(c1cc(-c2ccc(Cl)cc2)n[n-]1)N1CCN(c2ccc(F)cc2)CC1 (protonated)
O=C(c1cc(-c2ccc(Cl)cc2)n[n-]1)N1CCN(c2ccc(F)cc2)CC1 (3D coordinates assigned)
O=C(c1cc(-c2ccc(Cl)cc2)n[n-]1)N1CCN(c2ccc(F)cc2)CC1 (nonaromatic ring conformer: 87.1828208112802 kcal/mol)

>  <smiles>  (62) 
O=C(c1cc(-c2ccc(Cl)cc2)n[nH]1)N1CCN(c2ccc(F)cc2)CC1

>  <score_type>  (62) 
oracle

>  <origin>  (62) 
adg

>  <m_score__min__energy>  (62) 
-9.3300000000000001

>  <m_primary>  (62) 
energy

$$$$
62:0
     RDKit          3D

 42 44  0  0  0  0  0  0  0  0999 V2000
   57.0250   34.5710   45.6850 O   0  0  0  0  0  0  0  0  0  0  0  0
   58.4580   34.1150   45.6670 S   0  0  0  0  0  0  0  0  0  0  0  0
   59.1080   34.5940   44.4020 O   0  0  0  0  0  0  0  0  0  0  0  0
   59.2860   34.7960   47.0320 N   0  0  0  0  0  0  0  0  0  0  0  0
   60.5490   34.3120   47.5250 C   0  0  0  0  0  0  0  0  0  0  0  0
   61.5820   33.9200   46.6510 C   0  0  0  0  0  0  0  0  0  0  0  0
   62.8020   33.4600   47.1570 C   0  0  0  0  0  0  0  0  0  0  0  0
   63.0040   33.3790   48.5350 C   0  0  0  0  0  0  0  0  0  0  0  0
   61.9860   33.7550   49.4140 C   0  0  0  0  0  0  0  0  0  0  0  0
   62.1860   33.6730   50.7520 F   0  0  0  0  0  0  0  0  0  0  0  0
   60.7620   34.2170   48.9140 C   0  0  0  0  0  0  0  0  0  0  0  0
   59.7880   34.5830   49.7850 F   0  0  0  0  0  0  0  0  0  0  0  0
   58.5550   32.3570   45.7210 C   0  0  0  0  0  0  0  0  0  0  0  0
   58.2770   31.6080   44.5710 C   0  0  0  0  0  0  0  0  0  0  0  0
   58.3750   30.2140   44.5990 C   0  0  0  0  0  0  0  0  0  0  0  0
   58.7490   29.5540   45.7780 C   0  0  0  0  0  0  0  0  0  0  0  0
   58.8530   28.1220   45.8020 N   0  0  0  0  0  0  0  0  0  0  0  0
   60.1450   27.4760   46.0500 C   0  0  0  0  0  0  0  0  0  0  0  0
   59.9650   26.1480   46.7990 C   0  0  0  0  0  0  0  0  0  0  0  0
   59.1550   25.1260   45.9870 C   0  0  0  0  0  0  0  0  0  0  0  0
   57.6890   25.5420   45.8390 C   0  0  0  0  0  0  0  0  0  0  0  0
   57.5850   27.1620   45.1090 S   0  0  0  0  0  0  0  0  0  0  0  0
   56.2380   27.7540   45.4110 O   0  0  0  0  0  0  0  0  0  0  0  0
   57.7760   27.0700   43.6200 O   0  0  0  0  0  0  0  0  0  0  0  0
   59.0110   30.3070   46.9340 C   0  0  0  0  0  0  0  0  0  0  0  0
   58.9150   31.7000   46.9050 C   0  0  0  0  0  0  0  0  0  0  0  0
   58.8710   35.6600   47.4470 H   0  0  0  0  0  0  0  0  0  0  0  0
   61.4280   33.9761   45.5633 H   0  0  0  0  0  0  0  0  0  0  0  0
   63.6045   33.1612   46.4665 H   0  0  0  0  0  0  0  0  0  0  0  0
   63.9656   33.0188   48.9294 H   0  0  0  0  0  0  0  0  0  0  0  0
   57.9806   32.1183   43.6427 H   0  0  0  0  0  0  0  0  0  0  0  0
   58.1576   29.6318   43.6914 H   0  0  0  0  0  0  0  0  0  0  0  0
   60.6397   27.2810   45.0871 H   0  0  0  0  0  0  0  0  0  0  0  0
   60.7572   28.1467   46.6708 H   0  0  0  0  0  0  0  0  0  0  0  0
   60.9576   25.7243   47.0114 H   0  0  0  0  0  0  0  0  0  0  0  0
   59.4107   26.3568   47.7259 H   0  0  0  0  0  0  0  0  0  0  0  0
   59.6009   25.0347   44.9856 H   0  0  0  0  0  0  0  0  0  0  0  0
   59.1829   24.1667   46.5245 H   0  0  0  0  0  0  0  0  0  0  0  0
   57.1685   24.8182   45.1946 H   0  0  0  0  0  0  0  0  0  0  0  0
   57.2183   25.5636   46.8330 H   0  0  0  0  0  0  0  0  0  0  0  0
   59.2932   29.7972   47.8670 H   0  0  0  0  0  0  0  0  0  0  0  0
   59.1226   32.2831   47.8144 H   0  0  0  0  0  0  0  0  0  0  0  0
  1  2  2  0
  2  3  2  0
  2  4  1  0
  4  5  1  0
  5  6  2  0
  6  7  1  0
  7  8  2  0
  8  9  1  0
  9 10  1  0
  9 11  2  0
 11 12  1  0
  2 13  1  0
 13 14  2  0
 14 15  1  0
 15 16  2  0
 16 17  1  0
 17 18  1  0
 18 19  1  0
 19 20  1  0
 20 21  1  0
 21 22  1  0
 22 23  2  0
 22 24  2  0
 16 25  1  0
 25 26  2  0
 11  5  1  0
 26 13  1  0
 22 17  1  0
  4 27  1  0
  6 28  1  0
  7 29  1  0
  8 30  1  0
 14 31  1  0
 15 32  1  0
 18 33  1  0
 18 34  1  0
 19 35  1  0
 19 36  1  0
 20 37  1  0
 20 38  1  0
 21 39  1  0
 21 40  1  0
 25 41  1  0
 26 42  1  0
M  END
>  <UniqueID>  (63) 
54

>  <SMILES>  (63) 
O=S(=O)(Nc1cccc(F)c1F)c1ccc(N2CCCCS2(=O)=O)cc1

>  <Energy>  (63) 
46.99765868011633

>  <Genealogy>  (63) 
O=S(=O)(Nc1cccc(F)c1F)c1ccc(N2CCCCS2(=O)=O)cc1 (3D coordinates assigned)
O=S(=O)(Nc1cccc(F)c1F)c1ccc(N2CCCCS2(=O)=O)cc1 (nonaromatic ring conformer: 46.99765868011633 kcal/mol)

>  <smiles>  (63) 
O=S(=O)(Nc1cccc(F)c1F)c1ccc(N2CCCCS2(=O)=O)cc1

>  <score_type>  (63) 
oracle

>  <origin>  (63) 
adg

>  <m_score__min__energy>  (63) 
-9.3200000000000003

>  <m_primary>  (63) 
energy

$$$$
63:0
     RDKit          3D

 51 54  0  0  0  0  0  0  0  0999 V2000
   60.4120   28.5500   47.6240 C   0  0  0  0  0  0  0  0  0  0  0  0
   59.6510   27.9240   46.4490 C   0  0  0  0  0  0  0  0  0  0  0  0
   58.1340   28.1900   46.5890 C   0  0  0  0  0  0  0  0  0  0  0  0
   57.4330   28.1180   45.2250 C   0  0  0  0  0  0  0  0  0  0  0  0
   57.9660   29.1020   44.2500 N   0  0  0  0  0  0  0  0  0  0  0  0
   56.9030   30.4800   44.0770 S   0  0  0  0  0  0  0  0  0  0  0  0
   55.5130   30.0940   44.5030 O   0  0  0  0  0  0  0  0  0  0  0  0
   56.8480   30.8910   42.6320 O   0  0  0  0  0  0  0  0  0  0  0  0
   57.4500   31.8460   45.0510 C   0  0  0  0  0  0  0  0  0  0  0  0
   57.4100   33.1470   44.5300 C   0  0  0  0  0  0  0  0  0  0  0  0
   57.8790   34.2220   45.2860 C   0  0  0  0  0  0  0  0  0  0  0  0
   58.3840   34.0090   46.5700 C   0  0  0  0  0  0  0  0  0  0  0  0
   58.4110   32.7140   47.1170 C   0  0  0  0  0  0  0  0  0  0  0  0
   58.9600   32.4880   48.4720 C   0  0  0  0  0  0  0  0  0  0  0  0
   58.2340   32.7040   49.4790 O   0  0  0  0  0  0  0  0  0  0  0  0
   60.3000   32.0040   48.6550 N   0  0  0  0  0  0  0  0  0  0  0  0
   60.7130   31.1620   49.7830 C   0  0  0  0  0  0  0  0  0  0  0  0
   62.2580   31.2350   49.8350 C   0  0  0  0  0  0  0  0  0  0  0  0
   62.5980   32.1510   48.7150 C   0  0  0  0  0  0  0  0  0  0  0  0
   63.8640   32.5660   48.2970 C   0  0  0  0  0  0  0  0  0  0  0  0
   63.9570   33.4250   47.1900 C   0  0  0  0  0  0  0  0  0  0  0  0
   62.7930   33.8470   46.5220 C   0  0  0  0  0  0  0  0  0  0  0  0
   61.5300   33.4140   46.9590 C   0  0  0  0  0  0  0  0  0  0  0  0
   61.4650   32.5710   48.0740 C   0  0  0  0  0  0  0  0  0  0  0  0
   57.9490   31.6360   46.3440 C   0  0  0  0  0  0  0  0  0  0  0  0
   59.3490   29.5520   44.5180 C   0  0  0  0  0  0  0  0  0  0  0  0
   60.2070   28.4180   45.0900 C   0  0  0  0  0  0  0  0  0  0  0  0
   59.9803   28.1949   48.5714 H   0  0  0  0  0  0  0  0  0  0  0  0
   61.4714   28.2585   47.5717 H   0  0  0  0  0  0  0  0  0  0  0  0
   60.3302   29.6457   47.5717 H   0  0  0  0  0  0  0  0  0  0  0  0
   59.8034   26.8349   46.4738 H   0  0  0  0  0  0  0  0  0  0  0  0
   57.6968   27.4343   47.2581 H   0  0  0  0  0  0  0  0  0  0  0  0
   57.9926   29.1996   47.0021 H   0  0  0  0  0  0  0  0  0  0  0  0
   57.5687   27.1070   44.8134 H   0  0  0  0  0  0  0  0  0  0  0  0
   56.3709   28.3547   45.3863 H   0  0  0  0  0  0  0  0  0  0  0  0
   57.0073   33.3210   43.5213 H   0  0  0  0  0  0  0  0  0  0  0  0
   57.8508   35.2396   44.8693 H   0  0  0  0  0  0  0  0  0  0  0  0
   58.7628   34.8588   47.1568 H   0  0  0  0  0  0  0  0  0  0  0  0
   60.2817   31.5426   50.7206 H   0  0  0  0  0  0  0  0  0  0  0  0
   60.3652   30.1260   49.6576 H   0  0  0  0  0  0  0  0  0  0  0  0
   62.6004   31.6451   50.7965 H   0  0  0  0  0  0  0  0  0  0  0  0
   62.7376   30.2492   49.7440 H   0  0  0  0  0  0  0  0  0  0  0  0
   64.7687   32.2275   48.8233 H   0  0  0  0  0  0  0  0  0  0  0  0
   64.9429   33.7689   46.8441 H   0  0  0  0  0  0  0  0  0  0  0  0
   62.8721   34.5185   45.6543 H   0  0  0  0  0  0  0  0  0  0  0  0
   60.6145   33.7299   46.4374 H   0  0  0  0  0  0  0  0  0  0  0  0
   57.9791   30.6171   46.7573 H   0  0  0  0  0  0  0  0  0  0  0  0
   59.7997   29.9020   43.5776 H   0  0  0  0  0  0  0  0  0  0  0  0
   59.3106   30.3638   45.2593 H   0  0  0  0  0  0  0  0  0  0  0  0
   60.2129   27.5790   44.3787 H   0  0  0  0  0  0  0  0  0  0  0  0
   61.2264   28.7995   45.2492 H   0  0  0  0  0  0  0  0  0  0  0  0
  1  2  1  0
  2  3  1  0
  3  4  1  0
  4  5  1  0
  5  6  1  0
  6  7  2  0
  6  8  2  0
  6  9  1  0
  9 10  2  0
 10 11  1  0
 11 12  2  0
 12 13  1  0
 13 14  1  0
 14 15  2  0
 14 16  1  0
 16 17  1  0
 17 18  1  0
 18 19  1  0
 19 20  2  0
 20 21  1  0
 21 22  2  0
 22 23  1  0
 23 24  2  0
 13 25  2  0
  5 26  1  0
 26 27  1  0
 27  2  1  0
 25  9  1  0
 24 16  1  0
 24 19  1  0
  1 28  1  0
  1 29  1  0
  1 30  1  0
  2 31  1  0
  3 32  1  0
  3 33  1  0
  4 34  1  0
  4 35  1  0
 10 36  1  0
 11 37  1  0
 12 38  1  0
 17 39  1  0
 17 40  1  0
 18 41  1  0
 18 42  1  0
 20 43  1  0
 21 44  1  0
 22 45  1  0
 23 46  1  0
 25 47  1  0
 26 48  1  0
 26 49  1  0
 27 50  1  0
 27 51  1  0
M  END
>  <UniqueID>  (64) 
55

>  <SMILES>  (64) 
CC1CCN(S(=O)(=O)c2cccc(C(=O)N3CCc4ccccc43)c2)CC1

>  <Energy>  (64) 
76.68164384519642

>  <Genealogy>  (64) 
CC1CCN(S(=O)(=O)c2cccc(C(=O)N3CCc4ccccc43)c2)CC1 (3D coordinates assigned)
CC1CCN(S(=O)(=O)c2cccc(C(=O)N3CCc4ccccc43)c2)CC1 (nonaromatic ring conformer: 76.68164384519642 kcal/mol)

>  <smiles>  (64) 
CC1CCN(S(=O)(=O)c2cccc(C(=O)N3CCc4ccccc43)c2)CC1

>  <score_type>  (64) 
oracle

>  <origin>  (64) 
adg

>  <m_score__min__energy>  (64) 
-9.75

>  <m_primary>  (64) 
energy

$$$$
64:0
     RDKit          3D

 55 57  0  0  0  0  0  0  0  0999 V2000
   55.6510   23.5800   47.8110 C   0  0  0  0  0  0  0  0  0  0  0  0
   56.4430   24.7740   47.3960 C   0  0  0  0  0  0  0  0  0  0  0  0
   57.6030   24.9460   47.8620 O   0  0  0  0  0  0  0  0  0  0  0  0
   55.9220   25.6420   46.3830 N   0  0  0  0  0  0  0  0  0  0  0  0
   56.6850   26.4840   45.5060 C   0  0  0  0  0  0  0  0  0  0  0  0
   56.6440   27.8850   45.6130 C   0  0  0  0  0  0  0  0  0  0  0  0
   57.3720   28.6870   44.7240 C   0  0  0  0  0  0  0  0  0  0  0  0
   57.2370   30.4470   44.8000 S   0  0  0  0  0  0  0  0  0  0  0  0
   55.7850   30.8340   44.7260 O   0  0  0  0  0  0  0  0  0  0  0  0
   57.9420   31.0530   43.6170 O   0  0  0  0  0  0  0  0  0  0  0  0
   57.9480   31.0790   46.2700 N   0  0  0  0  0  0  0  0  0  0  0  0
   59.3420   30.6010   46.4220 C   0  0  0  0  0  0  0  0  0  0  0  0
   60.1530   31.5020   47.3650 C   0  0  0  0  0  0  0  0  0  0  0  0
   60.2690   32.9220   46.7800 C   0  0  0  0  0  0  0  0  0  0  0  0
   59.0400   33.3310   45.9490 C   0  0  0  0  0  0  0  0  0  0  0  0
   57.7810   32.5530   46.3730 C   0  0  0  0  0  0  0  0  0  0  0  0
   58.1580   28.0840   43.7350 C   0  0  0  0  0  0  0  0  0  0  0  0
   58.1710   26.6950   43.5980 C   0  0  0  0  0  0  0  0  0  0  0  0
   57.4260   25.8920   44.4700 C   0  0  0  0  0  0  0  0  0  0  0  0
   57.4220   24.4690   44.2950 N   0  0  0  0  0  0  0  0  0  0  0  0
   58.4190   23.6410   44.9740 C   0  0  0  0  0  0  0  0  0  0  0  0
   57.7460   22.4020   45.5690 C   0  0  0  0  0  0  0  0  0  0  0  0
   56.8490   21.7460   44.6010 N   0  0  0  0  0  0  0  0  0  0  0  0
   56.2940   20.4470   44.8960 C   0  0  0  0  0  0  0  0  0  0  0  0
   56.3570   19.8660   46.2770 C   0  0  0  0  0  0  0  0  0  0  0  0
   55.7750   19.7590   43.9770 O   0  0  0  0  0  0  0  0  0  0  0  0
   56.6260   22.3510   43.2800 C   0  0  0  0  0  0  0  0  0  0  0  0
   56.4250   23.8650   43.4040 C   0  0  0  0  0  0  0  0  0  0  0  0
   55.6158   23.5270   48.9092 H   0  0  0  0  0  0  0  0  0  0  0  0
   54.6281   23.6627   47.4149 H   0  0  0  0  0  0  0  0  0  0  0  0
   56.1250   22.6698   47.4149 H   0  0  0  0  0  0  0  0  0  0  0  0
   56.0362   28.3551   46.4001 H   0  0  0  0  0  0  0  0  0  0  0  0
   59.3259   29.5800   46.8311 H   0  0  0  0  0  0  0  0  0  0  0  0
   59.8211   30.6221   45.4321 H   0  0  0  0  0  0  0  0  0  0  0  0
   59.6490   31.5520   48.3415 H   0  0  0  0  0  0  0  0  0  0  0  0
   61.1621   31.0802   47.4826 H   0  0  0  0  0  0  0  0  0  0  0  0
   60.3844   33.6348   47.6098 H   0  0  0  0  0  0  0  0  0  0  0  0
   61.1394   32.9312   46.1075 H   0  0  0  0  0  0  0  0  0  0  0  0
   58.8578   34.4069   46.0879 H   0  0  0  0  0  0  0  0  0  0  0  0
   59.2471   33.0991   44.8938 H   0  0  0  0  0  0  0  0  0  0  0  0
   57.5466   32.8073   47.4172 H   0  0  0  0  0  0  0  0  0  0  0  0
   56.9695   32.8413   45.6887 H   0  0  0  0  0  0  0  0  0  0  0  0
   58.7674   28.7068   43.0636 H   0  0  0  0  0  0  0  0  0  0  0  0
   58.7694   26.2291   42.8012 H   0  0  0  0  0  0  0  0  0  0  0  0
   59.1869   23.3278   44.2513 H   0  0  0  0  0  0  0  0  0  0  0  0
   58.8857   24.2238   45.7818 H   0  0  0  0  0  0  0  0  0  0  0  0
   58.5239   21.6868   45.8744 H   0  0  0  0  0  0  0  0  0  0  0  0
   57.1420   22.7226   46.4307 H   0  0  0  0  0  0  0  0  0  0  0  0
   56.2694   20.6735   47.0188 H   0  0  0  0  0  0  0  0  0  0  0  0
   55.5310   19.1524   46.4126 H   0  0  0  0  0  0  0  0  0  0  0  0
   57.3168   19.3460   46.4126 H   0  0  0  0  0  0  0  0  0  0  0  0
   57.4992   22.1539   42.6407 H   0  0  0  0  0  0  0  0  0  0  0  0
   55.7210   21.9094   42.8373 H   0  0  0  0  0  0  0  0  0  0  0  0
   56.5146   24.3203   42.4066 H   0  0  0  0  0  0  0  0  0  0  0  0
   55.4270   24.0468   43.8294 H   0  0  0  0  0  0  0  0  0  0  0  0
  1  2  1  0
  2  3  2  0
  2  4  1  0
  4  5  1  0
  5  6  2  0
  6  7  1  0
  7  8  1  0
  8  9  2  0
  8 10  2  0
  8 11  1  0
 11 12  1  0
 12 13  1  0
 13 14  1  0
 14 15  1  0
 15 16  1  0
  7 17  2  0
 17 18  1  0
 18 19  2  0
 19 20  1  0
 20 21  1  0
 21 22  1  0
 22 23  1  0
 23 24  1  0
 24 25  1  0
 24 26  2  0
 23 27  1  0
 27 28  1  0
 19  5  1  0
 28 20  1  0
 16 11  1  0
  1 29  1  0
  1 30  1  0
  1 31  1  0
  6 32  1  0
 12 33  1  0
 12 34  1  0
 13 35  1  0
 13 36  1  0
 14 37  1  0
 14 38  1  0
 15 39  1  0
 15 40  1  0
 16 41  1  0
 16 42  1  0
 17 43  1  0
 18 44  1  0
 21 45  1  0
 21 46  1  0
 22 47  1  0
 22 48  1  0
 25 49  1  0
 25 50  1  0
 25 51  1  0
 27 52  1  0
 27 53  1  0
 28 54  1  0
 28 55  1  0
M  CHG  1   4  -1
M  END
>  <UniqueID>  (65) 
56

>  <SMILES>  (65) 
CC(=O)[N-]c1cc(S(=O)(=O)N2CCCCC2)ccc1N1CCN(C(C)=O)CC1

>  <Energy>  (65) 
64.89685336390083

>  <Genealogy>  (65) 
CC(=O)[N-]c1cc(S(=O)(=O)N2CCCCC2)ccc1N1CCN(C(C)=O)CC1 (protonated)
CC(=O)[N-]c1cc(S(=O)(=O)N2CCCCC2)ccc1N1CCN(C(C)=O)CC1 (3D coordinates assigned)
CC(=O)[N-]c1cc(S(=O)(=O)N2CCCCC2)ccc1N1CCN(C(C)=O)CC1 (nonaromatic ring conformer: 64.89685336390083 kcal/mol)

>  <smiles>  (65) 
CC(=O)Nc1cc(S(=O)(=O)N2CCCCC2)ccc1N1CCN(C(C)=O)CC1

>  <score_type>  (65) 
oracle

>  <origin>  (65) 
adg

>  <m_score__min__energy>  (65) 
-11.07

>  <m_primary>  (65) 
energy

$$$$
65:0
     RDKit          3D

 46 46  0  0  0  0  0  0  0  0999 V2000
   55.0440   24.8380   45.6210 C   0  0  0  0  0  0  0  0  0  0  0  0
   55.1360   26.1990   46.0270 O   0  0  0  0  0  0  0  0  0  0  0  0
   56.3320   26.9210   45.9680 C   0  0  0  0  0  0  0  0  0  0  0  0
   56.3400   28.1230   45.5880 O   0  0  0  0  0  0  0  0  0  0  0  0
   57.6100   26.2660   46.3950 C   0  0  0  0  0  0  0  0  0  0  0  0
   58.7270   26.4290   45.3370 C   0  0  1  0  0  0  0  0  0  0  0  0
   58.1320   26.7060   43.9450 C   0  0  0  0  0  0  0  0  0  0  0  0
   59.7040   27.5690   45.7130 C   0  0  0  0  0  0  0  0  0  0  0  0
   59.0980   28.6160   46.6750 C   0  0  0  0  0  0  0  0  0  0  0  0
   58.9830   30.0030   46.0220 C   0  0  0  0  0  0  0  0  0  0  0  0
   58.9090   29.9090   44.4930 C   0  0  0  0  0  0  0  0  0  0  0  0
   58.0210   30.8890   43.9560 O   0  0  0  0  0  0  0  0  0  0  0  0
   56.7730   31.1840   44.5120 C   0  0  0  0  0  0  0  0  0  0  0  0
   55.8250   30.3540   44.4390 O   0  0  0  0  0  0  0  0  0  0  0  0
   56.5900   32.4170   45.1470 O   0  0  0  0  0  0  0  0  0  0  0  0
   57.4010   33.5590   44.8850 C   0  0  0  0  0  0  0  0  0  0  0  0
   58.4690   33.6920   45.9370 C   0  0  0  0  0  0  0  0  0  0  0  0
   59.7220   34.2310   45.6000 C   0  0  0  0  0  0  0  0  0  0  0  0
   60.7080   34.3860   46.5790 C   0  0  0  0  0  0  0  0  0  0  0  0
   60.4500   34.0080   47.8980 C   0  0  0  0  0  0  0  0  0  0  0  0
   59.2050   33.4750   48.2420 C   0  0  0  0  0  0  0  0  0  0  0  0
   58.2160   33.3180   47.2670 C   0  0  0  0  0  0  0  0  0  0  0  0
   55.0003   24.1922   46.5104 H   0  0  0  0  0  0  0  0  0  0  0  0
   54.1342   24.6955   45.0194 H   0  0  0  0  0  0  0  0  0  0  0  0
   55.9264   24.5744   45.0194 H   0  0  0  0  0  0  0  0  0  0  0  0
   57.9450   26.7223   47.3382 H   0  0  0  0  0  0  0  0  0  0  0  0
   57.4151   25.1907   46.5202 H   0  0  0  0  0  0  0  0  0  0  0  0
   59.2847   25.4812   45.3110 H   0  0  0  0  0  0  0  0  0  0  0  0
   57.1398   27.1679   44.0556 H   0  0  0  0  0  0  0  0  0  0  0  0
   58.7945   27.3883   43.3922 H   0  0  0  0  0  0  0  0  0  0  0  0
   58.0364   25.7598   43.3922 H   0  0  0  0  0  0  0  0  0  0  0  0
   60.5869   27.1244   46.1954 H   0  0  0  0  0  0  0  0  0  0  0  0
   59.9553   28.0968   44.7812 H   0  0  0  0  0  0  0  0  0  0  0  0
   58.0944   28.2816   46.9766 H   0  0  0  0  0  0  0  0  0  0  0  0
   59.7668   28.7050   47.5438 H   0  0  0  0  0  0  0  0  0  0  0  0
   58.0725   30.4966   46.3927 H   0  0  0  0  0  0  0  0  0  0  0  0
   59.8814   30.5803   46.2857 H   0  0  0  0  0  0  0  0  0  0  0  0
   59.9139   30.0685   44.0750 H   0  0  0  0  0  0  0  0  0  0  0  0
   58.5297   28.9121   44.2242 H   0  0  0  0  0  0  0  0  0  0  0  0
   57.8748   33.4492   43.8984 H   0  0  0  0  0  0  0  0  0  0  0  0
   56.7686   34.4589   44.9006 H   0  0  0  0  0  0  0  0  0  0  0  0
   59.9279   34.5321   44.5622 H   0  0  0  0  0  0  0  0  0  0  0  0
   61.6882   34.8063   46.3097 H   0  0  0  0  0  0  0  0  0  0  0  0
   61.2272   34.1298   48.6668 H   0  0  0  0  0  0  0  0  0  0  0  0
   59.0030   33.1785   49.2818 H   0  0  0  0  0  0  0  0  0  0  0  0
   57.2363   32.9002   47.5421 H   0  0  0  0  0  0  0  0  0  0  0  0
  1  2  1  0
  2  3  1  0
  3  4  2  0
  3  5  1  0
  5  6  1  0
  6  7  1  0
  6  8  1  0
  8  9  1  0
  9 10  1  0
 10 11  1  0
 11 12  1  0
 12 13  1  0
 13 14  2  0
 13 15  1  0
 15 16  1  0
 16 17  1  0
 17 18  2  0
 18 19  1  0
 19 20  2  0
 20 21  1  0
 21 22  2  0
 22 17  1  0
  1 23  1  0
  1 24  1  0
  1 25  1  0
  5 26  1  0
  5 27  1  0
  6 28  1  6
  7 29  1  0
  7 30  1  0
  7 31  1  0
  8 32  1  0
  8 33  1  0
  9 34  1  0
  9 35  1  0
 10 36  1  0
 10 37  1  0
 11 38  1  0
 11 39  1  0
 16 40  1  0
 16 41  1  0
 18 42  1  0
 19 43  1  0
 20 44  1  0
 21 45  1  0
 22 46  1  0
M  END
>  <UniqueID>  (66) 
57

>  <SMILES>  (66) 
COC(=O)C[C@@H](C)CCCCOC(=O)OCc1ccccc1

>  <Energy>  (66) 
29.988306009253414

>  <Genealogy>  (66) 
COC(=O)C[C@@H](C)CCCCOC(=O)OCc1ccccc1 (chirality)
COC(=O)C[C@@H](C)CCCCOC(=O)OCc1ccccc1 (3D coordinates assigned)
COC(=O)C[C@@H](C)CCCCOC(=O)OCc1ccccc1 (optimized conformer: 29.988306009253414 kcal/mol)

>  <smiles>  (66) 
COC(=O)CC(C)CCCCOC(=O)OCc1ccccc1

>  <score_type>  (66) 
oracle

>  <origin>  (66) 
adg

>  <m_score__min__energy>  (66) 
-6.5999999999999996

>  <m_primary>  (66) 
energy

$$$$
66:0
     RDKit          3D

 36 38  0  0  0  0  0  0  0  0999 V2000
   55.1460   29.3330   44.8690 O   0  0  0  0  0  0  0  0  0  0  0  0
   56.3480   29.6980   44.7710 C   0  0  0  0  0  0  0  0  0  0  0  0
   57.4050   28.6560   44.5150 C   0  0  0  0  0  0  0  0  0  0  0  0
   58.8100   29.2690   44.5070 C   0  0  0  0  0  0  0  0  0  0  0  0
   59.2950   29.5030   45.8640 N   0  0  0  0  0  0  0  0  0  0  0  0
   58.6350   29.2680   47.0100 C   0  0  0  0  0  0  0  0  0  0  0  0
   59.3690   29.6380   48.0760 N   0  0  0  0  0  0  0  0  0  0  0  0
   60.5000   30.1080   47.5030 C   0  0  0  0  0  0  0  0  0  0  0  0
   60.4670   30.0330   46.1580 N   0  0  0  0  0  0  0  0  0  0  0  0
   56.6650   31.0830   44.9580 N   0  0  0  0  0  0  0  0  0  0  0  0
   57.3110   31.9410   43.9710 C   0  0  0  0  0  0  0  0  0  0  0  0
   57.4240   33.3660   44.5090 C   0  0  0  0  0  0  0  0  0  0  0  0
   58.3340   33.4180   45.7000 C   0  0  0  0  0  0  0  0  0  0  0  0
   57.9610   33.6730   47.0010 C   0  0  0  0  0  0  0  0  0  0  0  0
   59.0510   33.6870   47.7270 O   0  0  0  0  0  0  0  0  0  0  0  0
   60.0600   33.4630   46.9140 C   0  0  0  0  0  0  0  0  0  0  0  0
   61.4570   33.4080   47.3560 C   0  0  0  0  0  0  0  0  0  0  0  0
   62.5670   33.7670   46.5990 C   0  0  0  0  0  0  0  0  0  0  0  0
   63.7760   33.5910   47.2800 C   0  0  0  0  0  0  0  0  0  0  0  0
   63.6140   33.1010   48.5690 C   0  0  0  0  0  0  0  0  0  0  0  0
   65.0150   32.7170   49.8060 Br  0  0  0  0  0  0  0  0  0  0  0  0
   61.9760   32.8800   48.8680 S   0  0  0  0  0  0  0  0  0  0  0  0
   59.6730   33.2900   45.6320 N   0  0  0  0  0  0  0  0  0  0  0  0
   57.3529   27.8927   45.3053 H   0  0  0  0  0  0  0  0  0  0  0  0
   57.2177   28.2109   43.5267 H   0  0  0  0  0  0  0  0  0  0  0  0
   59.4982   28.5808   43.9943 H   0  0  0  0  0  0  0  0  0  0  0  0
   58.7639   30.2354   43.9836 H   0  0  0  0  0  0  0  0  0  0  0  0
   57.6274   28.8308   47.0696 H   0  0  0  0  0  0  0  0  0  0  0  0
   61.3526   30.5074   48.0718 H   0  0  0  0  0  0  0  0  0  0  0  0
   58.3172   31.5529   43.7544 H   0  0  0  0  0  0  0  0  0  0  0  0
   56.7076   31.9499   43.0513 H   0  0  0  0  0  0  0  0  0  0  0  0
   57.8263   34.0181   43.7197 H   0  0  0  0  0  0  0  0  0  0  0  0
   56.4239   33.7061   44.8158 H   0  0  0  0  0  0  0  0  0  0  0  0
   56.9353   33.8352   47.3639 H   0  0  0  0  0  0  0  0  0  0  0  0
   62.5009   34.1501   45.5700 H   0  0  0  0  0  0  0  0  0  0  0  0
   64.7575   33.8182   46.8383 H   0  0  0  0  0  0  0  0  0  0  0  0
  1  2  2  0
  2  3  1  0
  3  4  1  0
  4  5  1  0
  5  6  1  0
  6  7  2  0
  7  8  1  0
  8  9  2  0
  2 10  1  0
 10 11  1  0
 11 12  1  0
 12 13  1  0
 13 14  2  0
 14 15  1  0
 15 16  1  0
 16 17  1  0
 17 18  2  0
 18 19  1  0
 19 20  2  0
 20 21  1  0
 20 22  1  0
 16 23  2  0
  9  5  1  0
 23 13  1  0
 22 17  1  0
  3 24  1  0
  3 25  1  0
  4 26  1  0
  4 27  1  0
  6 28  1  0
  8 29  1  0
 11 30  1  0
 11 31  1  0
 12 32  1  0
 12 33  1  0
 14 34  1  0
 18 35  1  0
 19 36  1  0
M  CHG  1  10  -1
M  END
>  <UniqueID>  (67) 
58

>  <SMILES>  (67) 
O=C(CCn1cncn1)[N-]CCc1coc(-c2ccc(Br)s2)n1

>  <Energy>  (67) 
114.12727025875739

>  <Genealogy>  (67) 
O=C(CCn1cncn1)[N-]CCc1coc(-c2ccc(Br)s2)n1 (protonated)
O=C(CCn1cncn1)[N-]CCc1coc(-c2ccc(Br)s2)n1 (3D coordinates assigned)
O=C(CCn1cncn1)[N-]CCc1coc(-c2ccc(Br)s2)n1 (optimized conformer: 114.12727025875739 kcal/mol)

>  <smiles>  (67) 
O=C(CCn1cncn1)NCCc1coc(-c2ccc(Br)s2)n1

>  <score_type>  (67) 
oracle

>  <origin>  (67) 
adg

>  <m_score__min__energy>  (67) 
-9.8900000000000006

>  <m_primary>  (67) 
energy

$$$$
67:0
     RDKit          3D

 23 25  0  0  0  0  0  0  0  0999 V2000
   60.6940   26.8220   46.7520 Cl  0  0  0  0  0  0  0  0  0  0  0  0
   59.1540   27.4120   46.1560 C   0  0  0  0  0  0  0  0  0  0  0  0
   58.1070   26.5340   45.8680 C   0  0  0  0  0  0  0  0  0  0  0  0
   56.9190   26.9640   45.4110 N   0  0  0  0  0  0  0  0  0  0  0  0
   56.7340   28.2830   45.2260 C   0  0  0  0  0  0  0  0  0  0  0  0
   55.6700   29.0050   44.7850 N   0  0  0  0  0  0  0  0  0  0  0  0
   56.0050   30.3000   44.7840 N   0  0  0  0  0  0  0  0  0  0  0  0
   57.2650   30.4460   45.2140 C   0  0  0  0  0  0  0  0  0  0  0  0
   58.0520   31.6660   45.3780 C   0  0  0  0  0  0  0  0  0  0  0  0
   57.7790   32.6920   44.4680 C   0  0  0  0  0  0  0  0  0  0  0  0
   58.4630   33.8910   44.5290 C   0  0  0  0  0  0  0  0  0  0  0  0
   59.4120   34.0490   45.4980 C   0  0  0  0  0  0  0  0  0  0  0  0
   59.6830   33.0500   46.3880 C   0  0  0  0  0  0  0  0  0  0  0  0
   59.0060   31.8300   46.3480 C   0  0  0  0  0  0  0  0  0  0  0  0
   57.7280   29.1730   45.4940 C   0  0  0  0  0  0  0  0  0  0  0  0
   58.9180   28.7330   45.9520 N   0  0  0  0  0  0  0  0  0  0  0  0
   58.2599   25.4554   46.0202 H   0  0  0  0  0  0  0  0  0  0  0  0
   54.7590   28.5900   44.5040 H   0  0  0  0  0  0  0  0  0  0  0  0
   57.0110   32.5429   43.6948 H   0  0  0  0  0  0  0  0  0  0  0  0
   58.2482   34.6989   43.8141 H   0  0  0  0  0  0  0  0  0  0  0  0
   59.9670   34.9965   45.5625 H   0  0  0  0  0  0  0  0  0  0  0  0
   60.4541   33.2105   47.1559 H   0  0  0  0  0  0  0  0  0  0  0  0
   59.2300   31.0296   47.0686 H   0  0  0  0  0  0  0  0  0  0  0  0
  1  2  1  0
  2  3  2  0
  3  4  1  0
  4  5  2  0
  5  6  1  0
  6  7  1  0
  7  8  2  0
  8  9  1  0
  9 10  2  0
 10 11  1  0
 11 12  2  0
 12 13  1  0
 13 14  2  0
  8 15  1  0
 15 16  2  0
 16  2  1  0
 15  5  1  0
 14  9  1  0
  3 17  1  0
  6 18  1  0
 10 19  1  0
 11 20  1  0
 12 21  1  0
 13 22  1  0
 14 23  1  0
M  END
>  <smiles>  (68) 
Clc1cnc2[nH]nc(-c3ccccc3)c2n1

>  <score_type>  (68) 
oracle

>  <origin>  (68) 
adg

>  <m_score__min__energy>  (68) 
-6.8300000000000001

>  <m_primary>  (68) 
energy

$$$$
68:0
     RDKit          3D

 43 44  0  0  0  0  0  0  0  0999 V2000
   60.7050   28.2240   45.5350 C   0  0  0  0  0  0  0  0  0  0  0  0
   59.5120   29.1300   45.4740 C   0  0  0  0  0  0  0  0  0  0  0  0
   58.5780   28.9920   44.4410 C   0  0  0  0  0  0  0  0  0  0  0  0
   57.4970   29.8780   44.3890 C   0  0  0  0  0  0  0  0  0  0  0  0
   56.4780   29.7680   43.2930 C   0  0  0  0  0  0  0  0  0  0  0  0
   55.2210   29.5940   43.8440 F   0  0  0  0  0  0  0  0  0  0  0  0
   56.4840   30.9240   42.5320 F   0  0  0  0  0  0  0  0  0  0  0  0
   56.7600   28.6910   42.4720 F   0  0  0  0  0  0  0  0  0  0  0  0
   57.3860   30.8530   45.3290 N   0  0  0  0  0  0  0  0  0  0  0  0
   58.2980   30.9820   46.3280 C   0  0  0  0  0  0  0  0  0  0  0  0
   58.1610   32.1040   47.3130 C   0  0  0  0  0  0  0  0  0  0  0  0
   57.5570   33.3360   46.6370 C   0  0  0  0  0  0  0  0  0  0  0  0
   58.4960   33.8920   45.6510 N   0  0  0  0  0  0  0  0  0  0  0  0
   58.2130   33.7220   44.2220 C   0  0  0  0  0  0  0  0  0  0  0  0
   59.7090   34.5390   46.1000 C   0  0  0  0  0  0  0  0  0  0  0  0
   59.6580   35.7180   46.5460 O   0  0  0  0  0  0  0  0  0  0  0  0
   61.0600   33.8790   46.0080 C   0  0  0  0  0  0  0  0  0  0  0  0
   61.6550   33.7160   47.3810 C   0  0  0  0  0  0  0  0  0  0  0  0
   60.8400   33.8440   48.5210 C   0  0  0  0  0  0  0  0  0  0  0  0
   61.3920   33.7160   49.7990 C   0  0  0  0  0  0  0  0  0  0  0  0
   60.6000   33.8360   50.8940 F   0  0  0  0  0  0  0  0  0  0  0  0
   62.7590   33.4650   49.9510 C   0  0  0  0  0  0  0  0  0  0  0  0
   63.5770   33.3410   48.8230 C   0  0  0  0  0  0  0  0  0  0  0  0
   64.9020   33.1000   48.9720 F   0  0  0  0  0  0  0  0  0  0  0  0
   63.0290   33.4670   47.5430 C   0  0  0  0  0  0  0  0  0  0  0  0
   59.3650   30.1350   46.3850 N   0  0  0  0  0  0  0  0  0  0  0  0
   60.9632   28.0279   46.5862 H   0  0  0  0  0  0  0  0  0  0  0  0
   60.4704   27.2744   45.0318 H   0  0  0  0  0  0  0  0  0  0  0  0
   61.5568   28.7049   45.0318 H   0  0  0  0  0  0  0  0  0  0  0  0
   58.6919   28.2018   43.6843 H   0  0  0  0  0  0  0  0  0  0  0  0
   57.5059   31.7850   48.1370 H   0  0  0  0  0  0  0  0  0  0  0  0
   59.1575   32.3622   47.7007 H   0  0  0  0  0  0  0  0  0  0  0  0
   56.6247   33.0497   46.1283 H   0  0  0  0  0  0  0  0  0  0  0  0
   57.3511   34.0982   47.4029 H   0  0  0  0  0  0  0  0  0  0  0  0
   57.2760   33.1592   44.0982 H   0  0  0  0  0  0  0  0  0  0  0  0
   58.1129   34.7096   43.7480 H   0  0  0  0  0  0  0  0  0  0  0  0
   59.0378   33.1698   43.7480 H   0  0  0  0  0  0  0  0  0  0  0  0
   60.9496   32.8895   45.5403 H   0  0  0  0  0  0  0  0  0  0  0  0
   61.7264   34.5097   45.4013 H   0  0  0  0  0  0  0  0  0  0  0  0
   59.7647   34.0455   48.4061 H   0  0  0  0  0  0  0  0  0  0  0  0
   63.1913   33.3650   50.9576 H   0  0  0  0  0  0  0  0  0  0  0  0
   63.6760   33.3708   46.6586 H   0  0  0  0  0  0  0  0  0  0  0  0
   60.0810   30.2600   47.1370 H   0  0  0  0  0  0  0  0  0  0  0  0
  1  2  1  0
  2  3  2  0
  3  4  1  0
  4  5  1  0
  5  6  1  0
  5  7  1  0
  5  8  1  0
  4  9  2  0
  9 10  1  0
 10 11  1  0
 11 12  1  0
 12 13  1  0
 13 14  1  0
 13 15  1  0
 15 16  2  0
 15 17  1  0
 17 18  1  0
 18 19  2  0
 19 20  1  0
 20 21  1  0
 20 22  2  0
 22 23  1  0
 23 24  1  0
 23 25  2  0
 10 26  2  0
 26  2  1  0
 25 18  1  0
  1 27  1  0
  1 28  1  0
  1 29  1  0
  3 30  1  0
 11 31  1  0
 11 32  1  0
 12 33  1  0
 12 34  1  0
 14 35  1  0
 14 36  1  0
 14 37  1  0
 17 38  1  0
 17 39  1  0
 19 40  1  0
 22 41  1  0
 25 42  1  0
 26 43  1  0
M  CHG  1  26   1
M  END
>  <UniqueID>  (69) 
59

>  <SMILES>  (69) 
Cc1cc(C(F)(F)F)nc(CCN(C)C(=O)Cc2cc(F)cc(F)c2)[nH+]1

>  <Energy>  (69) 
36.09994770477049

>  <Genealogy>  (69) 
Cc1cc(C(F)(F)F)nc(CCN(C)C(=O)Cc2cc(F)cc(F)c2)[nH+]1 (protonated)
Cc1cc(C(F)(F)F)nc(CCN(C)C(=O)Cc2cc(F)cc(F)c2)[nH+]1 (3D coordinates assigned)
Cc1cc(C(F)(F)F)nc(CCN(C)C(=O)Cc2cc(F)cc(F)c2)[nH+]1 (optimized conformer: 36.09994770477049 kcal/mol)

>  <smiles>  (69) 
Cc1cc(C(F)(F)F)nc(CCN(C)C(=O)Cc2cc(F)cc(F)c2)n1

>  <score_type>  (69) 
oracle

>  <origin>  (69) 
adg

>  <m_score__min__energy>  (69) 
-5.2999999999999998

>  <m_primary>  (69) 
energy

$$$$
69:0
     RDKit          3D

 37 39  0  0  0  0  0  0  0  0999 V2000
   59.0831   35.6403   45.6190 H   0  0  0  0  0  0  0  0  0  0  0  0
   58.8900   34.5600   45.6950 C   0  0  0  0  0  0  0  0  0  0  0  0
   57.6280   34.0510   45.3740 C   0  0  0  0  0  0  0  0  0  0  0  0
   56.8277   34.7316   45.0480 H   0  0  0  0  0  0  0  0  0  0  0  0
   57.3820   32.6770   45.4670 C   0  0  0  0  0  0  0  0  0  0  0  0
   56.3859   32.2811   45.2197 H   0  0  0  0  0  0  0  0  0  0  0  0
   58.4020   31.8000   45.8750 C   0  0  0  0  0  0  0  0  0  0  0  0
   58.1440   30.3430   45.9890 C   0  0  0  0  0  0  0  0  0  0  0  0
   58.6140   29.6570   47.1210 C   0  0  0  0  0  0  0  0  0  0  0  0
   59.1746   30.2020   47.8948 H   0  0  0  0  0  0  0  0  0  0  0  0
   58.3760   28.2890   47.2730 C   0  0  0  0  0  0  0  0  0  0  0  0
   58.7471   27.7643   48.1657 H   0  0  0  0  0  0  0  0  0  0  0  0
   57.6680   27.5840   46.2950 C   0  0  0  0  0  0  0  0  0  0  0  0
   57.3570   25.8610   46.4880 S   0  0  0  0  0  0  0  0  0  0  0  0
   55.8900   25.5700   46.3400 O   0  0  0  0  0  0  0  0  0  0  0  0
   57.8100   25.4320   47.8550 O   0  0  0  0  0  0  0  0  0  0  0  0
   58.2310   24.9640   45.2900 N   0  0  0  0  0  0  0  0  0  0  0  0
   58.1410   23.6760   45.1860 C   0  0  0  0  0  0  0  0  0  0  0  0
   59.0420   22.8230   45.6180 O   0  0  0  0  0  0  0  0  0  0  0  0
   58.6520   21.6060   45.3730 N   0  0  0  0  0  0  0  0  0  0  0  0
   59.1850   20.7460   45.6270 H   0  0  0  0  0  0  0  0  0  0  0  0
   57.4550   21.6670   44.7530 C   0  0  0  0  0  0  0  0  0  0  0  0
   56.6510   20.4750   44.3440 C   0  0  0  0  0  0  0  0  0  0  0  0
   56.2951   19.9474   45.2412 H   0  0  0  0  0  0  0  0  0  0  0  0
   55.7885   20.8025   43.7449 H   0  0  0  0  0  0  0  0  0  0  0  0
   57.2777   19.7980   43.7449 H   0  0  0  0  0  0  0  0  0  0  0  0
   57.0870   22.9920   44.6180 C   0  0  0  0  0  0  0  0  0  0  0  0
   55.4890   23.7090   43.8550 Br  0  0  0  0  0  0  0  0  0  0  0  0
   57.2110   28.2530   45.1540 C   0  0  0  0  0  0  0  0  0  0  0  0
   56.6657   27.6965   44.3775 H   0  0  0  0  0  0  0  0  0  0  0  0
   57.4420   29.6260   44.9920 C   0  0  0  0  0  0  0  0  0  0  0  0
   56.9920   30.2610   43.7760 C   0  0  0  0  0  0  0  0  0  0  0  0
   56.6310   30.7690   42.8010 N   0  0  0  0  0  0  0  0  0  0  0  0
   59.6640   32.3220   46.2070 C   0  0  0  0  0  0  0  0  0  0  0  0
   60.4651   31.6471   46.5427 H   0  0  0  0  0  0  0  0  0  0  0  0
   59.9050   33.6970   46.1120 C   0  0  0  0  0  0  0  0  0  0  0  0
   60.8968   34.0990   46.3665 H   0  0  0  0  0  0  0  0  0  0  0  0
  1  2  1  0
  2  3  2  0
  3  4  1  0
  3  5  1  0
  5  6  1  0
  5  7  2  0
  7  8  1  0
  8  9  2  0
  9 10  1  0
  9 11  1  0
 11 12  1  0
 11 13  2  0
 13 14  1  0
 14 15  2  0
 14 16  2  0
 14 17  1  0
 17 18  2  0
 18 19  1  0
 19 20  1  0
 20 21  1  0
 20 22  1  0
 22 23  1  0
 23 24  1  0
 23 25  1  0
 23 26  1  0
 22 27  2  0
 27 28  1  0
 13 29  1  0
 29 30  1  0
 29 31  2  0
 31 32  1  0
 32 33  3  0
  7 34  1  0
 34 35  1  0
 34 36  2  0
 36 37  1  0
 36  2  1  0
 31  8  1  0
 27 18  1  0
M  END
>  <UniqueID>  (70) 
60

>  <SMILES>  (70) 
Cc1[nH]o/c(=N\S(=O)(=O)c2ccc(-c3ccccc3)c(C#N)c2)c1Br

>  <Energy>  (70) 
80.03357476770252

>  <Genealogy>  (70) 
Cc1[nH]o/c(=N\S(=O)(=O)c2ccc(-c3ccccc3)c(C#N)c2)c1Br (cis-trans isomerization)
Cc1[nH]o/c(=N\S(=O)(=O)c2ccc(-c3ccccc3)c(C#N)c2)c1Br (3D coordinates assigned)
Cc1[nH]o/c(=N\S(=O)(=O)c2ccc(-c3ccccc3)c(C#N)c2)c1Br (optimized conformer: 80.03357476770252 kcal/mol)

>  <smiles>  (70) 
Cc1[nH]oc(=NS(=O)(=O)c2ccc(-c3ccccc3)c(C#N)c2)c1Br

>  <score_type>  (70) 
oracle

>  <origin>  (70) 
adg

>  <m_score__min__energy>  (70) 
-9.5800000000000001

>  <m_primary>  (70) 
energy

$$$$
70:0
     RDKit          3D

 61 63  0  0  0  0  0  0  0  0999 V2000
   56.5160   19.0240   43.7290 H   0  0  0  0  0  0  0  0  0  0  0  0
   55.8960   19.8640   43.6640 N   0  0  0  0  0  0  0  0  0  0  0  0
   56.2860   21.0430   44.0320 C   0  0  0  0  0  0  0  0  0  0  0  0
   55.9050   22.1320   43.3130 N   0  0  0  0  0  0  0  0  0  0  0  0
   56.2970   23.3850   43.6630 C   0  0  0  0  0  0  0  0  0  0  0  0
   55.9735   24.2521   43.0685 H   0  0  0  0  0  0  0  0  0  0  0  0
   57.1190   23.5670   44.7900 C   0  0  0  0  0  0  0  0  0  0  0  0
   57.5640   24.9130   45.2240 C   0  0  0  0  0  0  0  0  0  0  0  0
   56.6320   25.9650   45.2740 C   0  0  0  0  0  0  0  0  0  0  0  0
   55.5854   25.7795   44.9909 H   0  0  0  0  0  0  0  0  0  0  0  0
   57.0230   27.2440   45.6800 C   0  0  0  0  0  0  0  0  0  0  0  0
   56.2875   28.0617   45.6999 H   0  0  0  0  0  0  0  0  0  0  0  0
   58.3500   27.4880   46.0620 C   0  0  0  0  0  0  0  0  0  0  0  0
   58.7720   28.8440   46.4750 C   0  0  0  0  0  0  0  0  0  0  0  0
   59.0970   29.0560   47.8250 C   0  0  0  0  0  0  0  0  0  0  0  0
   59.0045   28.2283   48.5436 H   0  0  0  0  0  0  0  0  0  0  0  0
   59.5350   30.3030   48.2630 C   0  0  0  0  0  0  0  0  0  0  0  0
   59.7838   30.4561   49.3235 H   0  0  0  0  0  0  0  0  0  0  0  0
   59.6590   31.3590   47.3590 C   0  0  0  0  0  0  0  0  0  0  0  0
   60.1040   32.6420   47.8130 N   0  0  0  0  0  0  0  0  0  0  0  0
   60.5860   33.6320   46.8470 C   0  0  0  0  0  0  0  0  0  0  0  0
   61.5602   34.0199   47.1793 H   0  0  0  0  0  0  0  0  0  0  0  0
   60.6894   33.1527   45.8623 H   0  0  0  0  0  0  0  0  0  0  0  0
   59.5850   34.7970   46.7370 C   0  0  0  0  0  0  0  0  0  0  0  0
   59.1309   34.9549   47.7264 H   0  0  0  0  0  0  0  0  0  0  0  0
   60.1553   35.6684   46.3828 H   0  0  0  0  0  0  0  0  0  0  0  0
   58.4970   34.5780   45.7580 N   0  0  0  0  0  0  0  0  0  0  0  0
   57.3990   33.7570   46.2940 C   0  0  0  0  0  0  0  0  0  0  0  0
   57.4279   33.7786   47.3934 H   0  0  0  0  0  0  0  0  0  0  0  0
   56.4364   34.1587   45.9446 H   0  0  0  0  0  0  0  0  0  0  0  0
   57.5121   32.7201   45.9446 H   0  0  0  0  0  0  0  0  0  0  0  0
   58.9780   34.0540   44.4700 C   0  0  0  0  0  0  0  0  0  0  0  0
   59.7118   33.2546   44.6504 H   0  0  0  0  0  0  0  0  0  0  0  0
   58.1293   33.6505   43.8983 H   0  0  0  0  0  0  0  0  0  0  0  0
   59.4526   34.8652   43.8983 H   0  0  0  0  0  0  0  0  0  0  0  0
   59.8040   33.1170   49.4570 S   0  0  0  0  0  0  0  0  0  0  0  0
   59.6860   34.6160   49.5350 O   0  0  0  0  0  0  0  0  0  0  0  0
   58.5230   32.4880   49.9310 O   0  0  0  0  0  0  0  0  0  0  0  0
   61.1340   32.5960   50.5220 C   0  0  0  0  0  0  0  0  0  0  0  0
   60.8305   32.7149   51.5726 H   0  0  0  0  0  0  0  0  0  0  0  0
   61.3687   31.5395   50.3255 H   0  0  0  0  0  0  0  0  0  0  0  0
   62.0239   33.2120   50.3255 H   0  0  0  0  0  0  0  0  0  0  0  0
   59.3300   31.1660   46.0140 C   0  0  0  0  0  0  0  0  0  0  0  0
   59.4332   32.0015   45.3060 H   0  0  0  0  0  0  0  0  0  0  0  0
   58.8680   29.9170   45.5510 C   0  0  0  0  0  0  0  0  0  0  0  0
   58.4490   29.7420   44.1790 N   0  0  0  0  0  0  0  0  0  0  0  0
   58.9960   29.1180   43.5450 H   0  0  0  0  0  0  0  0  0  0  0  0
   56.9970   30.4060   43.4910 S   0  0  0  0  0  0  0  0  0  0  0  0
   56.1340   30.9370   44.6010 O   0  0  0  0  0  0  0  0  0  0  0  0
   56.2320   29.3370   42.7590 O   0  0  0  0  0  0  0  0  0  0  0  0
   57.4010   31.7520   42.3940 C   0  0  0  0  0  0  0  0  0  0  0  0
   57.6675   32.6400   42.9859 H   0  0  0  0  0  0  0  0  0  0  0  0
   58.2526   31.4650   41.7596 H   0  0  0  0  0  0  0  0  0  0  0  0
   56.5321   31.9814   41.7596 H   0  0  0  0  0  0  0  0  0  0  0  0
   59.2840   26.4420   46.0200 C   0  0  0  0  0  0  0  0  0  0  0  0
   60.3290   26.6312   46.3068 H   0  0  0  0  0  0  0  0  0  0  0  0
   58.8960   25.1600   45.6160 C   0  0  0  0  0  0  0  0  0  0  0  0
   59.8130   24.1600   45.6550 F   0  0  0  0  0  0  0  0  0  0  0  0
   57.4840   22.4730   45.5170 N   0  0  0  0  0  0  0  0  0  0  0  0
   57.0930   21.2210   45.1670 C   0  0  0  0  0  0  0  0  0  0  0  0
   57.4056   20.3538   45.7672 H   0  0  0  0  0  0  0  0  0  0  0  0
  1  2  1  0
  2  3  2  0
  3  4  1  0
  4  5  1  0
  5  6  1  0
  5  7  2  0
  7  8  1  0
  8  9  2  0
  9 10  1  0
  9 11  1  0
 11 12  1  0
 11 13  2  0
 13 14  1  0
 14 15  2  0
 15 16  1  0
 15 17  1  0
 17 18  1  0
 17 19  2  0
 19 20  1  0
 20 21  1  0
 21 22  1  0
 21 23  1  0
 21 24  1  0
 24 25  1  0
 24 26  1  0
 24 27  1  0
 27 28  1  0
 28 29  1  0
 28 30  1  0
 28 31  1  0
 27 32  1  0
 32 33  1  0
 32 34  1  0
 32 35  1  0
 20 36  1  0
 36 37  2  0
 36 38  2  0
 36 39  1  0
 39 40  1  0
 39 41  1  0
 39 42  1  0
 19 43  1  0
 43 44  1  0
 43 45  2  0
 45 46  1  0
 46 47  1  0
 46 48  1  0
 48 49  2  0
 48 50  2  0
 48 51  1  0
 51 52  1  0
 51 53  1  0
 51 54  1  0
 13 55  1  0
 55 56  1  0
 55 57  2  0
 57 58  1  0
  7 59  1  0
 59 60  2  0
 60 61  1  0
 60  3  1  0
 57  8  1  0
 45 14  1  0
M  CHG  1   4  -1
M  END
>  <UniqueID>  (71) 
61

>  <SMILES>  (71) 
[H]/N=c1\cnc(-c2ccc(-c3ccc(N(CCN(C)C)S(C)(=O)=O)cc3NS(C)(=O)=O)cc2F)c[n-]1

>  <Energy>  (71) 
79.54114818438894

>  <Genealogy>  (71) 
CN(C)CCN(c1ccc(-c2ccc(-c3c[n-]c(=N)cn3)c(F)c2)c(NS(C)(=O)=O)c1)S(C)(=O)=O (protonated)
[H]/N=c1\cnc(-c2ccc(-c3ccc(N(CCN(C)C)S(C)(=O)=O)cc3NS(C)(=O)=O)cc2F)c[n-]1 (cis-trans isomerization)
[H]/N=c1\cnc(-c2ccc(-c3ccc(N(CCN(C)C)S(C)(=O)=O)cc3NS(C)(=O)=O)cc2F)c[n-]1 (3D coordinates assigned)
[H]/N=c1\cnc(-c2ccc(-c3ccc(N(CCN(C)C)S(C)(=O)=O)cc3NS(C)(=O)=O)cc2F)c[n-]1 (optimized conformer: 79.54114818438894 kcal/mol)

>  <smiles>  (71) 
CN(C)CCN(c1ccc(-c2ccc(-c3c[nH]c(=N)cn3)c(F)c2)c(NS(C)(=O)=O)c1)S(C)(=O)=O

>  <score_type>  (71) 
oracle

>  <origin>  (71) 
adg

>  <m_score__min__energy>  (71) 
-12.52

>  <m_primary>  (71) 
energy

$$$$
71:0
     RDKit          3D

 34 36  0  0  0  0  0  0  0  0999 V2000
   58.6973   26.2576   43.9410 H   0  0  0  0  0  0  0  0  0  0  0  0
   58.0050   26.6370   44.7070 C   0  0  0  0  0  0  0  0  0  0  0  0
   57.4730   25.7460   45.5590 C   0  0  0  0  0  0  0  0  0  0  0  0
   58.3430   24.2320   45.9760 S   0  0  0  0  0  0  0  0  0  0  0  0
   57.0130   23.8680   47.1250 C   0  0  0  0  0  0  0  0  0  0  0  0
   57.0480   22.8720   47.8930 O   0  0  0  0  0  0  0  0  0  0  0  0
   55.9150   24.7690   47.1310 N   0  0  0  0  0  0  0  0  0  0  0  0
   56.1650   25.8260   46.2230 C   0  0  0  0  0  0  0  0  0  0  0  0
   55.2980   26.7060   45.9850 O   0  0  0  0  0  0  0  0  0  0  0  0
   57.7310   28.0860   44.7210 C   0  0  0  0  0  0  0  0  0  0  0  0
   58.0620   28.8380   45.8550 C   0  0  0  0  0  0  0  0  0  0  0  0
   58.5587   28.3526   46.7080 H   0  0  0  0  0  0  0  0  0  0  0  0
   57.7640   30.2030   45.9080 C   0  0  0  0  0  0  0  0  0  0  0  0
   58.0455   30.7880   46.7960 H   0  0  0  0  0  0  0  0  0  0  0  0
   57.1110   30.8320   44.8420 C   0  0  0  0  0  0  0  0  0  0  0  0
   56.8350   32.2050   44.9500 O   0  0  0  0  0  0  0  0  0  0  0  0
   57.7500   33.2570   44.6440 C   0  0  0  0  0  0  0  0  0  0  0  0
   58.3683   32.9582   43.7847 H   0  0  0  0  0  0  0  0  0  0  0  0
   57.1759   34.1647   44.4064 H   0  0  0  0  0  0  0  0  0  0  0  0
   58.6450   33.5470   45.8180 C   0  0  0  0  0  0  0  0  0  0  0  0
   59.9640   33.9810   45.6230 C   0  0  0  0  0  0  0  0  0  0  0  0
   60.3547   34.1238   44.6047 H   0  0  0  0  0  0  0  0  0  0  0  0
   60.7790   34.2310   46.7300 C   0  0  0  0  0  0  0  0  0  0  0  0
   61.8126   34.5776   46.5830 H   0  0  0  0  0  0  0  0  0  0  0  0
   60.2980   34.0470   47.9890 N   0  0  0  0  0  0  0  0  0  0  0  0
   60.9190   34.2390   48.8060 H   0  0  0  0  0  0  0  0  0  0  0  0
   59.0260   33.6140   48.2060 C   0  0  0  0  0  0  0  0  0  0  0  0
   58.6639   33.4691   49.2345 H   0  0  0  0  0  0  0  0  0  0  0  0
   58.1790   33.3530   47.1260 C   0  0  0  0  0  0  0  0  0  0  0  0
   57.1528   32.9975   47.3008 H   0  0  0  0  0  0  0  0  0  0  0  0
   56.7550   30.0700   43.7120 C   0  0  0  0  0  0  0  0  0  0  0  0
   56.2406   30.5514   42.8672 H   0  0  0  0  0  0  0  0  0  0  0  0
   57.0520   28.7060   43.6590 C   0  0  0  0  0  0  0  0  0  0  0  0
   56.7526   28.1145   42.7812 H   0  0  0  0  0  0  0  0  0  0  0  0
  1  2  1  0
  2  3  2  0
  3  4  1  0
  4  5  1  0
  5  6  2  0
  5  7  1  0
  7  8  1  0
  8  9  2  0
  2 10  1  0
 10 11  2  0
 11 12  1  0
 11 13  1  0
 13 14  1  0
 13 15  2  0
 15 16  1  0
 16 17  1  0
 17 18  1  0
 17 19  1  0
 17 20  1  0
 20 21  2  0
 21 22  1  0
 21 23  1  0
 23 24  1  0
 23 25  2  0
 25 26  1  0
 25 27  1  0
 27 28  1  0
 27 29  2  0
 29 30  1  0
 15 31  1  0
 31 32  1  0
 31 33  2  0
 33 34  1  0
  8  3  1  0
 33 10  1  0
 29 20  1  0
M  CHG  2   7  -1  25   1
M  END
>  <UniqueID>  (72) 
62

>  <SMILES>  (72) 
O=C1[N-]C(=O)/C(=C\c2ccc(OCc3cc[nH+]cc3)cc2)S1

>  <Energy>  (72) 
62.76386272114152

>  <Genealogy>  (72) 
O=C1[N-]C(=O)C(=Cc2ccc(OCc3cc[nH+]cc3)cc2)S1 (protonated)
O=C1[N-]C(=O)/C(=C\c2ccc(OCc3cc[nH+]cc3)cc2)S1 (cis-trans isomerization)
O=C1[N-]C(=O)/C(=C\c2ccc(OCc3cc[nH+]cc3)cc2)S1 (3D coordinates assigned)
O=C1[N-]C(=O)/C(=C\c2ccc(OCc3cc[nH+]cc3)cc2)S1 (nonaromatic ring conformer: 62.76386272114152 kcal/mol)

>  <smiles>  (72) 
O=C1NC(=O)C(=Cc2ccc(OCc3ccncc3)cc2)S1

>  <score_type>  (72) 
oracle

>  <origin>  (72) 
adg

>  <m_score__min__energy>  (72) 
-8.9600000000000009

>  <m_primary>  (72) 
energy

$$$$
72:0
     RDKit          3D

 29 30  0  0  0  0  0  0  0  0999 V2000
   60.8080   34.2040   48.9690 C   0  0  0  0  0  0  0  0  0  0  0  0
   61.0360   33.7550   47.5920 N   0  0  0  0  0  0  0  0  0  0  0  0
   62.3940   33.5370   47.0870 C   0  0  0  0  0  0  0  0  0  0  0  0
   59.9120   33.5240   46.7270 C   0  0  0  0  0  0  0  0  0  0  0  0
   59.6490   32.3300   46.1500 N   0  0  0  0  0  0  0  0  0  0  0  0
   58.5240   32.5940   45.4530 C   0  0  0  0  0  0  0  0  0  0  0  0
   57.8400   31.5760   44.6250 C   0  0  0  0  0  0  0  0  0  0  0  0
   57.6400   31.8170   43.2550 C   0  0  0  0  0  0  0  0  0  0  0  0
   57.0120   30.8600   42.4530 C   0  0  0  0  0  0  0  0  0  0  0  0
   56.5920   29.6480   43.0080 C   0  0  0  0  0  0  0  0  0  0  0  0
   56.8070   29.3890   44.3630 C   0  0  0  0  0  0  0  0  0  0  0  0
   57.4340   30.3450   45.1690 C   0  0  0  0  0  0  0  0  0  0  0  0
   58.1520   33.8860   45.5920 N   0  0  0  0  0  0  0  0  0  0  0  0
   57.0360   34.5870   44.9670 C   0  0  0  0  0  0  0  0  0  0  0  0
   59.0150   34.4760   46.3990 N   0  0  0  0  0  0  0  0  0  0  0  0
   61.1920   33.4478   49.6696 H   0  0  0  0  0  0  0  0  0  0  0  0
   61.3313   35.1572   49.1353 H   0  0  0  0  0  0  0  0  0  0  0  0
   59.7297   34.3439   49.1353 H   0  0  0  0  0  0  0  0  0  0  0  0
   63.0868   33.4258   47.9342 H   0  0  0  0  0  0  0  0  0  0  0  0
   62.4150   32.6240   46.4739 H   0  0  0  0  0  0  0  0  0  0  0  0
   62.6997   34.3976   46.4739 H   0  0  0  0  0  0  0  0  0  0  0  0
   57.9797   32.7644   42.8112 H   0  0  0  0  0  0  0  0  0  0  0  0
   56.8482   31.0609   41.3840 H   0  0  0  0  0  0  0  0  0  0  0  0
   56.0921   28.8982   42.3773 H   0  0  0  0  0  0  0  0  0  0  0  0
   56.4829   28.4318   44.7974 H   0  0  0  0  0  0  0  0  0  0  0  0
   57.6102   30.1325   46.2338 H   0  0  0  0  0  0  0  0  0  0  0  0
   56.3791   34.9996   45.7469 H   0  0  0  0  0  0  0  0  0  0  0  0
   57.4213   35.4056   44.3414 H   0  0  0  0  0  0  0  0  0  0  0  0
   56.4659   33.8845   44.3414 H   0  0  0  0  0  0  0  0  0  0  0  0
  1  2  1  0
  2  3  1  0
  2  4  1  0
  4  5  1  0
  5  6  2  0
  6  7  1  0
  7  8  2  0
  8  9  1  0
  9 10  2  0
 10 11  1  0
 11 12  2  0
  6 13  1  0
 13 14  1  0
 13 15  1  0
 15  4  2  0
 12  7  1  0
  1 16  1  0
  1 17  1  0
  1 18  1  0
  3 19  1  0
  3 20  1  0
  3 21  1  0
  8 22  1  0
  9 23  1  0
 10 24  1  0
 11 25  1  0
 12 26  1  0
 14 27  1  0
 14 28  1  0
 14 29  1  0
M  END
>  <UniqueID>  (73) 
63

>  <SMILES>  (73) 
CN(C)c1nc(-c2ccccc2)n(C)n1

>  <Energy>  (73) 
62.74291358818123

>  <Genealogy>  (73) 
CN(C)c1nc(-c2ccccc2)n(C)n1 (3D coordinates assigned)
CN(C)c1nc(-c2ccccc2)n(C)n1 (optimized conformer: 62.74291358818123 kcal/mol)

>  <smiles>  (73) 
CN(C)c1nc(-c2ccccc2)n(C)n1

>  <score_type>  (73) 
oracle

>  <origin>  (73) 
adg

>  <m_score__min__energy>  (73) 
-5.25

>  <m_primary>  (73) 
energy

$$$$
73:0
     RDKit          3D

 40 42  0  0  0  0  0  0  0  0999 V2000
   57.0410   24.4150   43.7240 C   0  0  0  0  0  0  0  0  0  0  0  0
   57.9390   24.0170   45.2560 S   0  0  0  0  0  0  0  0  0  0  0  0
   58.3210   25.7310   45.6180 C   0  0  0  0  0  0  0  0  0  0  0  0
   59.5940   26.0810   46.0830 C   0  0  0  0  0  0  0  0  0  0  0  0
   59.8850   27.4140   46.3870 C   0  0  0  0  0  0  0  0  0  0  0  0
   58.9100   28.4010   46.2160 C   0  0  0  0  0  0  0  0  0  0  0  0
   57.6420   28.0660   45.7240 C   0  0  0  0  0  0  0  0  0  0  0  0
   56.6570   29.1010   45.5940 N   0  0  0  0  0  0  0  0  0  0  0  0
   56.3450   29.8190   44.3920 C   0  0  0  0  0  0  0  0  0  0  0  0
   55.1860   29.7520   43.8940 O   0  0  0  0  0  0  0  0  0  0  0  0
   57.3750   30.5900   43.7340 N   0  0  1  0  0  0  0  0  0  0  0  0
   56.8710   31.0200   42.4090 C   0  0  0  0  0  0  0  0  0  0  0  0
   57.8650   31.9620   41.7280 C   0  0  0  0  0  0  0  0  0  0  0  0
   58.1110   33.0800   42.5730 O   0  0  0  0  0  0  0  0  0  0  0  0
   58.1870   32.9320   43.9590 C   0  0  0  0  0  0  0  0  0  0  0  0
   58.6380   34.0000   44.7400 C   0  0  0  0  0  0  0  0  0  0  0  0
   58.7700   33.8550   46.1210 C   0  0  0  0  0  0  0  0  0  0  0  0
   58.4520   32.6360   46.7370 C   0  0  0  0  0  0  0  0  0  0  0  0
   58.6610   32.4570   48.2110 C   0  0  0  0  0  0  0  0  0  0  0  0
   58.0060   31.5610   45.9530 C   0  0  0  0  0  0  0  0  0  0  0  0
   57.8100   31.7120   44.5620 C   0  0  0  0  0  0  0  0  0  0  0  0
   57.3460   26.7210   45.4400 C   0  0  0  0  0  0  0  0  0  0  0  0
   56.0619   24.8489   43.9751 H   0  0  0  0  0  0  0  0  0  0  0  0
   57.6231   25.1394   43.1354 H   0  0  0  0  0  0  0  0  0  0  0  0
   56.8952   23.4972   43.1354 H   0  0  0  0  0  0  0  0  0  0  0  0
   60.3654   25.3071   46.2092 H   0  0  0  0  0  0  0  0  0  0  0  0
   60.8827   27.6867   46.7614 H   0  0  0  0  0  0  0  0  0  0  0  0
   59.1398   29.4465   46.4692 H   0  0  0  0  0  0  0  0  0  0  0  0
   58.2090   29.9740   43.5830 H   0  0  0  0  0  0  0  0  0  0  0  0
   56.7222   30.1335   41.7750 H   0  0  0  0  0  0  0  0  0  0  0  0
   55.9199   31.5543   42.5505 H   0  0  0  0  0  0  0  0  0  0  0  0
   58.8085   31.4279   41.5419 H   0  0  0  0  0  0  0  0  0  0  0  0
   57.4466   32.3090   40.7717 H   0  0  0  0  0  0  0  0  0  0  0  0
   58.8899   34.9589   44.2635 H   0  0  0  0  0  0  0  0  0  0  0  0
   59.1249   34.7001   46.7292 H   0  0  0  0  0  0  0  0  0  0  0  0
   57.9378   33.0764   48.7618 H   0  0  0  0  0  0  0  0  0  0  0  0
   58.5150   31.3995   48.4763 H   0  0  0  0  0  0  0  0  0  0  0  0
   59.6835   32.7638   48.4763 H   0  0  0  0  0  0  0  0  0  0  0  0
   57.8065   30.5888   46.4273 H   0  0  0  0  0  0  0  0  0  0  0  0
   56.3450   26.4452   45.0767 H   0  0  0  0  0  0  0  0  0  0  0  0
  1  2  1  0
  2  3  1  0
  3  4  2  0
  4  5  1  0
  5  6  2  0
  6  7  1  0
  7  8  1  0
  8  9  1  0
  9 10  2  0
  9 11  1  0
 11 12  1  0
 12 13  1  0
 13 14  1  0
 14 15  1  0
 15 16  2  0
 16 17  1  0
 17 18  2  0
 18 19  1  0
 18 20  1  0
 20 21  2  0
  7 22  2  0
 22  3  1  0
 21 11  1  0
 21 15  1  0
  1 23  1  0
  1 24  1  0
  1 25  1  0
  4 26  1  0
  5 27  1  0
  6 28  1  0
 11 29  1  6
 12 30  1  0
 12 31  1  0
 13 32  1  0
 13 33  1  0
 16 34  1  0
 17 35  1  0
 19 36  1  0
 19 37  1  0
 19 38  1  0
 20 39  1  0
 22 40  1  0
M  CHG  2   8  -1  11   1
M  END
>  <UniqueID>  (74) 
64

>  <SMILES>  (74) 
CSc1cccc([N-]C(=O)[N@H+]2CCOc3ccc(C)cc32)c1

>  <Energy>  (74) 
47.140952845836544

>  <Genealogy>  (74) 
CSc1cccc([N-]C(=O)[NH+]2CCOc3ccc(C)cc32)c1 (protonated)
CSc1cccc([N-]C(=O)[N@H+]2CCOc3ccc(C)cc32)c1 (chirality)
CSc1cccc([N-]C(=O)[N@H+]2CCOc3ccc(C)cc32)c1 (3D coordinates assigned)
CSc1cccc([N-]C(=O)[N@H+]2CCOc3ccc(C)cc32)c1 (nonaromatic ring conformer: 47.140952845836544 kcal/mol)

>  <smiles>  (74) 
CSc1cccc(NC(=O)N2CCOc3ccc(C)cc32)c1

>  <score_type>  (74) 
oracle

>  <origin>  (74) 
adg

>  <m_score__min__energy>  (74) 
-7.5199999999999996

>  <m_primary>  (74) 
energy

$$$$
74:0
     RDKit          3D

 38 42  0  0  0  0  0  0  0  0999 V2000
   68.5880   34.8600   52.8130 Cl  0  0  0  0  0  0  0  0  0  0  0  0
   67.2810   34.2270   51.8310 C   0  0  0  0  0  0  0  0  0  0  0  0
   65.9710   34.6620   52.0430 C   0  0  0  0  0  0  0  0  0  0  0  0
   64.9270   34.1580   51.2610 C   0  0  0  0  0  0  0  0  0  0  0  0
   65.1820   33.2060   50.2530 C   0  0  0  0  0  0  0  0  0  0  0  0
   64.0810   32.6640   49.4150 C   0  0  0  0  0  0  0  0  0  0  0  0
   63.2380   31.5820   49.7590 C   0  0  0  0  0  0  0  0  0  0  0  0
   62.3290   31.3520   48.7390 C   0  0  0  0  0  0  0  0  0  0  0  0
   61.3500   30.4570   48.5720 N   0  0  0  0  0  0  0  0  0  0  0  0
   60.8840   30.8080   47.3320 C   0  0  0  0  0  0  0  0  0  0  0  0
   59.7740   30.1020   46.6810 C   0  0  0  0  0  0  0  0  0  0  0  0
   58.5490   30.6240   46.3170 C   0  0  0  0  0  0  0  0  0  0  0  0
   57.8150   29.6560   45.7380 N   0  0  0  0  0  0  0  0  0  0  0  0
   58.5340   28.5410   45.7290 N   0  0  0  0  0  0  0  0  0  0  0  0
   58.0640   27.2950   45.1730 C   0  0  0  0  0  0  0  0  0  0  0  0
   58.2080   27.0410   43.7950 C   0  0  0  0  0  0  0  0  0  0  0  0
   57.7550   25.8410   43.2410 C   0  0  0  0  0  0  0  0  0  0  0  0
   57.1500   24.8770   44.0540 C   0  0  0  0  0  0  0  0  0  0  0  0
   56.5820   23.3710   43.3560 Cl  0  0  0  0  0  0  0  0  0  0  0  0
   56.9950   25.1180   45.4210 C   0  0  0  0  0  0  0  0  0  0  0  0
   57.4470   26.3180   45.9800 C   0  0  0  0  0  0  0  0  0  0  0  0
   59.7370   28.7810   46.2950 C   0  0  0  0  0  0  0  0  0  0  0  0
   61.5290   31.8610   46.7440 N   0  0  0  0  0  0  0  0  0  0  0  0
   62.4240   32.1510   47.6910 C   0  0  0  0  0  0  0  0  0  0  0  0
   63.6520   33.2690   47.8580 S   0  0  0  0  0  0  0  0  0  0  0  0
   66.5080   32.7790   50.0490 C   0  0  0  0  0  0  0  0  0  0  0  0
   67.5480   33.2860   50.8330 C   0  0  0  0  0  0  0  0  0  0  0  0
   65.7597   35.4034   52.8276 H   0  0  0  0  0  0  0  0  0  0  0  0
   63.8983   34.5072   51.4338 H   0  0  0  0  0  0  0  0  0  0  0  0
   63.2954   31.0088   50.6961 H   0  0  0  0  0  0  0  0  0  0  0  0
   58.2251   31.6633   46.4747 H   0  0  0  0  0  0  0  0  0  0  0  0
   58.6817   27.7947   43.1488 H   0  0  0  0  0  0  0  0  0  0  0  0
   57.8744   25.6541   42.1636 H   0  0  0  0  0  0  0  0  0  0  0  0
   56.5159   24.3617   46.0601 H   0  0  0  0  0  0  0  0  0  0  0  0
   57.3200   26.5005   47.0573 H   0  0  0  0  0  0  0  0  0  0  0  0
   60.5467   28.0479   46.4249 H   0  0  0  0  0  0  0  0  0  0  0  0
   66.7276   32.0393   49.2651 H   0  0  0  0  0  0  0  0  0  0  0  0
   68.5795   32.9434   50.6640 H   0  0  0  0  0  0  0  0  0  0  0  0
  1  2  1  0
  2  3  2  0
  3  4  1  0
  4  5  2  0
  5  6  1  0
  6  7  2  0
  7  8  1  0
  8  9  1  0
  9 10  1  0
 10 11  1  0
 11 12  1  0
 12 13  2  0
 13 14  1  0
 14 15  1  0
 15 16  2  0
 16 17  1  0
 17 18  2  0
 18 19  1  0
 18 20  1  0
 20 21  2  0
 14 22  1  0
 10 23  2  0
 23 24  1  0
 24 25  1  0
  5 26  1  0
 26 27  2  0
 27  2  1  0
 25  6  1  0
 24  8  2  0
 22 11  2  0
 21 15  1  0
  3 28  1  0
  4 29  1  0
  7 30  1  0
 12 31  1  0
 16 32  1  0
 17 33  1  0
 20 34  1  0
 21 35  1  0
 22 36  1  0
 26 37  1  0
 27 38  1  0
M  CHG  1   9  -1
M  END
>  <UniqueID>  (75) 
65

>  <SMILES>  (75) 
Clc1ccc(-c2cc3[n-]c(-c4cnn(-c5ccc(Cl)cc5)c4)nc3s2)cc1

>  <Energy>  (75) 
156.27091943955966

>  <Genealogy>  (75) 
Clc1ccc(-c2cc3[n-]c(-c4cnn(-c5ccc(Cl)cc5)c4)nc3s2)cc1 (protonated)
Clc1ccc(-c2cc3[n-]c(-c4cnn(-c5ccc(Cl)cc5)c4)nc3s2)cc1 (3D coordinates assigned)
Clc1ccc(-c2cc3[n-]c(-c4cnn(-c5ccc(Cl)cc5)c4)nc3s2)cc1 (optimized conformer: 156.27091943955966 kcal/mol)

>  <smiles>  (75) 
Clc1ccc(-c2cc3[nH]c(-c4cnn(-c5ccc(Cl)cc5)c4)nc3s2)cc1

>  <score_type>  (75) 
oracle

>  <origin>  (75) 
adg

>  <m_score__min__energy>  (75) 
-7.9900000000000002

>  <m_primary>  (75) 
energy

$$$$
75:0
     RDKit          3D

 66 70  0  0  0  0  0  0  0  0999 V2000
   65.7360   32.4400   49.7810 C   0  0  0  0  0  0  0  0  0  0  0  0
   64.3090   32.2520   49.4730 N   0  0  0  0  0  0  0  0  0  0  0  0
   63.5220   31.5130   50.3420 C   0  0  0  0  0  0  0  0  0  0  0  0
   64.3020   30.6840   51.9070 Br  0  0  0  0  0  0  0  0  0  0  0  0
   62.1420   31.3130   50.0750 C   0  0  0  0  0  0  0  0  0  0  0  0
   61.2580   30.5550   50.9880 C   0  0  0  0  0  0  0  0  0  0  0  0
   61.2330   29.1560   50.9470 C   0  0  0  0  0  0  0  0  0  0  0  0
   60.3850   28.4380   51.7940 C   0  0  0  0  0  0  0  0  0  0  0  0
   59.5450   29.1110   52.7020 C   0  0  0  0  0  0  0  0  0  0  0  0
   58.6590   28.3990   53.5860 N   0  0  0  0  0  0  0  0  0  0  0  0
   56.9370   28.6260   53.6370 S   0  0  0  0  0  0  0  0  0  0  0  0
   56.4950   29.6680   55.0100 C   0  0  0  0  0  0  0  0  0  0  0  0
   56.2460   27.2950   53.7410 O   0  0  0  0  0  0  0  0  0  0  0  0
   56.4990   29.2990   52.3670 O   0  0  0  0  0  0  0  0  0  0  0  0
   59.5650   30.5170   52.7290 C   0  0  0  0  0  0  0  0  0  0  0  0
   58.7650   31.2020   53.5860 F   0  0  0  0  0  0  0  0  0  0  0  0
   60.4130   31.2330   51.8780 C   0  0  0  0  0  0  0  0  0  0  0  0
   61.6340   31.8710   48.9020 C   0  0  0  0  0  0  0  0  0  0  0  0
   60.3590   31.8660   48.3710 C   0  0  0  0  0  0  0  0  0  0  0  0
   60.4480   32.5980   47.1850 C   0  0  0  0  0  0  0  0  0  0  0  0
   59.3230   32.8700   46.2520 C   0  0  0  0  0  0  0  0  0  0  0  0
   59.1130   34.1610   45.7430 C   0  0  0  0  0  0  0  0  0  0  0  0
   58.0540   34.3970   44.8670 C   0  0  0  0  0  0  0  0  0  0  0  0
   57.2290   33.3800   44.5050 N   0  0  0  0  0  0  0  0  0  0  0  0
   57.3880   32.1140   44.9730 C   0  0  0  0  0  0  0  0  0  0  0  0
   56.5520   31.1970   44.5720 N   0  0  0  0  0  0  0  0  0  0  0  0
   56.6490   29.7510   44.7820 C   0  0  0  0  0  0  0  0  0  0  0  0
   57.9180   29.1660   44.1330 C   0  0  0  0  0  0  0  0  0  0  0  0
   58.6950   28.3420   45.0860 N   0  0  0  0  0  0  0  0  0  0  0  0
   60.1570   28.5170   44.8940 C   0  0  0  0  0  0  0  0  0  0  0  0
   60.7710   29.4410   45.9610 C   0  0  0  0  0  0  0  0  0  0  0  0
   60.5890   28.9730   47.2900 O   0  0  0  0  0  0  0  0  0  0  0  0
   59.4030   28.2110   47.4690 C   0  0  0  0  0  0  0  0  0  0  0  0
   58.2790   28.5810   46.4880 C   0  0  0  0  0  0  0  0  0  0  0  0
   58.4480   31.8410   45.8640 C   0  0  0  0  0  0  0  0  0  0  0  0
   61.7170   33.0380   47.0000 N   0  0  0  0  0  0  0  0  0  0  0  0
   62.4210   32.5870   48.0530 C   0  0  0  0  0  0  0  0  0  0  0  0
   63.7690   32.7930   48.3250 C   0  0  0  0  0  0  0  0  0  0  0  0
   64.4720   33.4650   47.5200 O   0  0  0  0  0  0  0  0  0  0  0  0
   65.8763   32.4585   50.8719 H   0  0  0  0  0  0  0  0  0  0  0  0
   66.3164   31.6106   49.3507 H   0  0  0  0  0  0  0  0  0  0  0  0
   66.0817   33.3915   49.3507 H   0  0  0  0  0  0  0  0  0  0  0  0
   61.8854   28.6183   50.2432 H   0  0  0  0  0  0  0  0  0  0  0  0
   60.3734   27.3389   51.7513 H   0  0  0  0  0  0  0  0  0  0  0  0
   59.0410   27.6290   54.1780 H   0  0  0  0  0  0  0  0  0  0  0  0
   56.7164   29.1460   55.9526 H   0  0  0  0  0  0  0  0  0  0  0  0
   57.0745   30.6018   54.9631 H   0  0  0  0  0  0  0  0  0  0  0  0
   55.4208   29.9003   54.9631 H   0  0  0  0  0  0  0  0  0  0  0  0
   60.4170   32.3326   51.9070 H   0  0  0  0  0  0  0  0  0  0  0  0
   59.4632   31.3869   48.7929 H   0  0  0  0  0  0  0  0  0  0  0  0
   59.7819   34.9843   46.0343 H   0  0  0  0  0  0  0  0  0  0  0  0
   57.8863   35.4084   44.4683 H   0  0  0  0  0  0  0  0  0  0  0  0
   56.6754   29.5485   45.8629 H   0  0  0  0  0  0  0  0  0  0  0  0
   55.7739   29.2765   44.3139 H   0  0  0  0  0  0  0  0  0  0  0  0
   57.6238   28.5391   43.2783 H   0  0  0  0  0  0  0  0  0  0  0  0
   58.5532   30.0039   43.8098 H   0  0  0  0  0  0  0  0  0  0  0  0
   60.6437   27.5323   44.9540 H   0  0  0  0  0  0  0  0  0  0  0  0
   60.3178   28.9803   43.9094 H   0  0  0  0  0  0  0  0  0  0  0  0
   61.8504   29.5272   45.7672 H   0  0  0  0  0  0  0  0  0  0  0  0
   60.2544   30.4092   45.8859 H   0  0  0  0  0  0  0  0  0  0  0  0
   59.6488   27.1477   47.3310 H   0  0  0  0  0  0  0  0  0  0  0  0
   59.0311   28.4268   48.4815 H   0  0  0  0  0  0  0  0  0  0  0  0
   57.3927   27.9682   46.7093 H   0  0  0  0  0  0  0  0  0  0  0  0
   58.0491   29.6501   46.6070 H   0  0  0  0  0  0  0  0  0  0  0  0
   58.5893   30.8225   46.2548 H   0  0  0  0  0  0  0  0  0  0  0  0
   62.0820   33.6310   46.2220 H   0  0  0  0  0  0  0  0  0  0  0  0
  1  2  1  0
  2  3  1  0
  3  4  1  0
  3  5  2  0
  5  6  1  0
  6  7  2  0
  7  8  1  0
  8  9  2  0
  9 10  1  0
 10 11  1  0
 11 12  1  0
 11 13  2  0
 11 14  2  0
  9 15  1  0
 15 16  1  0
 15 17  2  0
  5 18  1  0
 18 19  1  0
 19 20  2  0
 20 21  1  0
 21 22  1  0
 22 23  2  0
 23 24  1  0
 24 25  1  0
 25 26  2  3
 26 27  1  0
 27 28  1  0
 28 29  1  0
 29 30  1  0
 30 31  1  0
 31 32  1  0
 32 33  1  0
 33 34  1  0
 25 35  1  0
 20 36  1  0
 36 37  1  0
 37 38  1  0
 38 39  2  0
 38  2  1  0
 17  6  1  0
 37 18  2  0
 35 21  2  0
 34 29  1  0
  1 40  1  0
  1 41  1  0
  1 42  1  0
  7 43  1  0
  8 44  1  0
 10 45  1  0
 12 46  1  0
 12 47  1  0
 12 48  1  0
 17 49  1  0
 19 50  1  0
 22 51  1  0
 23 52  1  0
 27 53  1  0
 27 54  1  0
 28 55  1  0
 28 56  1  0
 30 57  1  0
 30 58  1  0
 31 59  1  0
 31 60  1  0
 33 61  1  0
 33 62  1  0
 34 63  1  0
 34 64  1  0
 35 65  1  0
 36 66  1  0
M  CHG  1  24  -1
M  END
>  <UniqueID>  (76) 
66

>  <SMILES>  (76) 
Cn1c(Br)c(-c2ccc(NS(C)(=O)=O)c(F)c2)c2cc(-c3cc[n-]c(=NCCN4CCOCC4)c3)[nH]c2c1=O

>  <Energy>  (76) 
135.60241878408956

>  <Genealogy>  (76) 
Cn1c(Br)c(-c2ccc(NS(C)(=O)=O)c(F)c2)c2cc(-c3cc[n-]c(=NCCN4CCOCC4)c3)[nH]c2c1=O (protonated)
Cn1c(Br)c(-c2ccc(NS(C)(=O)=O)c(F)c2)c2cc(-c3cc[n-]c(=NCCN4CCOCC4)c3)[nH]c2c1=O (3D coordinates assigned)
Cn1c(Br)c(-c2ccc(NS(C)(=O)=O)c(F)c2)c2cc(-c3cc[n-]c(=NCCN4CCOCC4)c3)[nH]c2c1=O (nonaromatic ring conformer: 135.60241878408956 kcal/mol)

>  <smiles>  (76) 
Cn1c(Br)c(-c2ccc(NS(C)(=O)=O)c(F)c2)c2cc(-c3cc[nH]c(=NCCN4CCOCC4)c3)[nH]c2c1=O

>  <score_type>  (76) 
oracle

>  <origin>  (76) 
adg

>  <m_score__min__energy>  (76) 
-11.539999999999999

>  <m_primary>  (76) 
energy

$$$$
76:0
     RDKit          3D

 33 35  0  0  0  0  0  0  0  0999 V2000
   55.5480   29.6980   44.0230 C   0  0  0  0  0  0  0  0  0  0  0  0
   55.6720   28.9680   45.2400 O   0  0  0  0  0  0  0  0  0  0  0  0
   56.7440   28.1160   45.5520 C   0  0  0  0  0  0  0  0  0  0  0  0
   56.5800   26.7180   45.6390 C   0  0  0  0  0  0  0  0  0  0  0  0
   57.6750   25.8930   45.9050 C   0  0  0  0  0  0  0  0  0  0  0  0
   58.9430   26.4470   46.0830 C   0  0  0  0  0  0  0  0  0  0  0  0
   59.1180   27.8300   46.0060 C   0  0  0  0  0  0  0  0  0  0  0  0
   58.0230   28.6730   45.7590 C   0  0  0  0  0  0  0  0  0  0  0  0
   58.2290   30.0940   45.6920 N   0  0  0  0  0  0  0  0  0  0  0  0
   58.2890   30.9970   44.2950 S   0  0  0  0  0  0  0  0  0  0  0  0
   58.5700   32.4970   44.9720 C   0  0  0  0  0  0  0  0  0  0  0  0
   58.6800   32.2970   46.3450 C   0  0  0  0  0  0  0  0  0  0  0  0
   58.4710   30.9520   46.7220 C   0  0  0  0  0  0  0  0  0  0  0  0
   58.5370   30.5670   47.9200 O   0  0  0  0  0  0  0  0  0  0  0  0
   58.9210   33.4390   47.2940 C   0  0  0  0  0  0  0  0  0  0  0  0
   59.5230   34.6550   46.5630 C   0  0  0  0  0  0  0  0  0  0  0  0
   58.7670   34.9640   45.2570 C   0  0  0  0  0  0  0  0  0  0  0  0
   58.8480   33.7880   44.2680 C   0  0  0  0  0  0  0  0  0  0  0  0
   55.3677   30.7594   44.2488 H   0  0  0  0  0  0  0  0  0  0  0  0
   56.4757   29.5996   43.4402 H   0  0  0  0  0  0  0  0  0  0  0  0
   54.7048   29.2987   43.4402 H   0  0  0  0  0  0  0  0  0  0  0  0
   55.5835   26.2746   45.4965 H   0  0  0  0  0  0  0  0  0  0  0  0
   57.5374   24.8038   45.9743 H   0  0  0  0  0  0  0  0  0  0  0  0
   59.8051   25.7940   46.2841 H   0  0  0  0  0  0  0  0  0  0  0  0
   60.1207   28.2620   46.1398 H   0  0  0  0  0  0  0  0  0  0  0  0
   57.9648   33.7329   47.7516 H   0  0  0  0  0  0  0  0  0  0  0  0
   59.6340   33.1075   48.0632 H   0  0  0  0  0  0  0  0  0  0  0  0
   59.4667   35.5324   47.2240 H   0  0  0  0  0  0  0  0  0  0  0  0
   60.5672   34.4206   46.3084 H   0  0  0  0  0  0  0  0  0  0  0  0
   57.7108   35.1606   45.4931 H   0  0  0  0  0  0  0  0  0  0  0  0
   59.2330   35.8430   44.7877 H   0  0  0  0  0  0  0  0  0  0  0  0
   58.1052   33.9333   43.4698 H   0  0  0  0  0  0  0  0  0  0  0  0
   59.8601   33.7507   43.8387 H   0  0  0  0  0  0  0  0  0  0  0  0
  1  2  1  0
  2  3  1  0
  3  4  2  0
  4  5  1  0
  5  6  2  0
  6  7  1  0
  7  8  2  0
  8  9  1  0
  9 10  1  0
 10 11  1  0
 11 12  2  0
 12 13  1  0
 13 14  2  0
 12 15  1  0
 15 16  1  0
 16 17  1  0
 17 18  1  0
  8  3  1  0
 13  9  1  0
 18 11  1  0
  1 19  1  0
  1 20  1  0
  1 21  1  0
  4 22  1  0
  5 23  1  0
  6 24  1  0
  7 25  1  0
 15 26  1  0
 15 27  1  0
 16 28  1  0
 16 29  1  0
 17 30  1  0
 17 31  1  0
 18 32  1  0
 18 33  1  0
M  END
>  <UniqueID>  (77) 
67

>  <SMILES>  (77) 
COc1ccccc1-n1sc2c(c1=O)CCCC2

>  <Energy>  (77) 
72.88041149459285

>  <Genealogy>  (77) 
COc1ccccc1-n1sc2c(c1=O)CCCC2 (3D coordinates assigned)
COc1ccccc1-n1sc2c(c1=O)CCCC2 (nonaromatic ring conformer: 72.88041149459285 kcal/mol)

>  <smiles>  (77) 
COc1ccccc1-n1sc2c(c1=O)CCCC2

>  <score_type>  (77) 
oracle

>  <origin>  (77) 
adg

>  <m_score__min__energy>  (77) 
-6.7599999999999998

>  <m_primary>  (77) 
energy

$$$$
77:0
     RDKit          3D

 32 34  0  0  1  0  0  0  0  0999 V2000
   59.9960   36.1500   46.0370 O   0  0  0  0  0  0  0  0  0  0  0  0
   59.4010   35.3470   46.8150 C   0  0  0  0  0  0  0  0  0  0  0  0
   59.0030   34.0770   46.3870 C   0  0  0  0  0  0  0  0  0  0  0  0
   57.3290   33.6910   45.6350 S   0  0  0  0  0  0  0  0  0  0  0  0
   57.7940   31.8890   45.4400 C   0  0  0  0  0  0  0  0  0  0  0  0
   56.9900   31.0220   44.9340 N   0  0  0  0  0  0  0  0  0  0  0  0
   57.4220   29.6410   44.8500 C   0  0  0  0  0  0  0  0  0  0  0  0
   57.3870   29.0620   43.5970 C   0  0  0  0  0  0  0  0  0  0  0  0
   57.7740   27.7560   43.4010 C   0  0  0  0  0  0  0  0  0  0  0  0
   58.2020   27.0440   44.5120 C   0  0  0  0  0  0  0  0  0  0  0  0
   58.2370   27.6300   45.7750 C   0  0  0  0  0  0  0  0  0  0  0  0
   57.8430   28.9520   45.9690 C   0  0  0  0  0  0  0  0  0  0  0  0
   59.0330   31.8340   45.9240 N   0  0  0  0  0  0  0  0  0  0  0  0
   59.6250   32.8530   46.3770 N   0  0  0  0  0  0  0  0  0  0  0  0
   60.9860   32.8150   46.9130 C   0  0  0  0  0  0  0  0  0  0  0  0
   61.3310   31.9420   47.8970 C   0  0  0  0  0  0  0  0  0  0  0  0
   62.6360   31.9540   48.3650 C   0  0  0  0  0  0  0  0  0  0  0  0
   63.6000   32.8080   47.8790 C   0  0  0  0  0  0  0  0  0  0  0  0
   63.2050   33.6870   46.8690 C   0  0  0  0  0  0  0  0  0  0  0  0
   61.9160   33.7050   46.3790 C   0  0  0  0  0  0  0  0  0  0  0  0
   59.1928   35.6556   47.8501 H   0  0  0  0  0  0  0  0  0  0  0  0
   57.0428   29.6567   42.7380 H   0  0  0  0  0  0  0  0  0  0  0  0
   57.7451   27.2948   42.4028 H   0  0  0  0  0  0  0  0  0  0  0  0
   58.5195   25.9975   44.3933 H   0  0  0  0  0  0  0  0  0  0  0  0
   58.5822   27.0379   46.6354 H   0  0  0  0  0  0  0  0  0  0  0  0
   57.8663   29.4224   46.9631 H   0  0  0  0  0  0  0  0  0  0  0  0
   59.5200   30.8550   45.9110 H   0  0  0  0  0  0  0  0  0  0  0  0
   60.5911   31.2419   48.3124 H   0  0  0  0  0  0  0  0  0  0  0  0
   62.9140   31.2483   49.1617 H   0  0  0  0  0  0  0  0  0  0  0  0
   64.6293   32.7983   48.2668 H   0  0  0  0  0  0  0  0  0  0  0  0
   63.9442   34.3864   46.4514 H   0  0  0  0  0  0  0  0  0  0  0  0
   61.6279   34.4074   45.5830 H   0  0  0  0  0  0  0  0  0  0  0  0
  1  2  2  0
  2  3  1  0
  3  4  1  0
  4  5  1  0
  5  6  2  0
  6  7  1  0
  7  8  2  0
  8  9  1  0
  9 10  2  0
 10 11  1  0
 11 12  2  0
  5 13  1  0
 13 14  1  0
 14 15  1  0
 15 16  2  0
 16 17  1  0
 17 18  2  0
 18 19  1  0
 19 20  2  0
 14  3  2  0
 20 15  1  0
 12  7  1  0
  2 21  1  0
  8 22  1  0
  9 23  1  0
 10 24  1  0
 11 25  1  0
 12 26  1  0
 13 27  1  0
 16 28  1  0
 17 29  1  0
 18 30  1  0
 19 31  1  0
 20 32  1  0
M  CHG  1  14   1
M  END
>  <smiles>  (78) 
O=Cc1sc(=Nc2ccccc2)[nH][n+]1-c1ccccc1

>  <score_type>  (78) 
oracle

>  <origin>  (78) 
adg

>  <m_score__min__energy>  (78) 
-6.0199999999999996

>  <m_primary>  (78) 
energy

$$$$
78:0
     RDKit          3D

 45 48  0  0  0  0  0  0  0  0999 V2000
   56.1160   25.3080   47.1900 O   0  0  0  0  0  0  0  0  0  0  0  0
   55.8120   26.1500   46.3050 C   0  0  0  0  0  0  0  0  0  0  0  0
   54.4710   26.3410   45.9940 O   0  0  0  0  0  0  0  0  0  0  0  0
   56.8620   26.8960   45.5660 C   0  0  0  0  0  0  0  0  0  0  0  0
   56.9330   28.2920   45.7340 C   0  0  0  0  0  0  0  0  0  0  0  0
   57.8560   29.0670   45.0140 C   0  0  0  0  0  0  0  0  0  0  0  0
   57.9130   30.5400   45.1930 C   0  0  0  0  0  0  0  0  0  0  0  0
   57.5700   31.4510   44.1910 C   0  0  0  0  0  0  0  0  0  0  0  0
   57.7850   33.0070   44.7970 S   0  0  0  0  0  0  0  0  0  0  0  0
   58.2970   32.4670   46.3000 C   0  0  0  0  0  0  0  0  0  0  0  0
   58.7620   33.5340   47.6600 S   0  0  0  0  0  0  0  0  0  0  0  0
   60.1390   34.2940   46.7410 C   0  0  0  0  0  0  0  0  0  0  0  0
   61.4420   33.8870   47.3650 C   0  0  0  0  0  0  0  0  0  0  0  0
   62.5460   33.5690   46.5560 C   0  0  0  0  0  0  0  0  0  0  0  0
   63.7700   33.2220   47.1380 C   0  0  0  0  0  0  0  0  0  0  0  0
   63.9010   33.1980   48.5300 C   0  0  0  0  0  0  0  0  0  0  0  0
   65.0880   32.8630   49.0930 F   0  0  0  0  0  0  0  0  0  0  0  0
   62.8100   33.5270   49.3410 C   0  0  0  0  0  0  0  0  0  0  0  0
   61.5860   33.8750   48.7620 C   0  0  0  0  0  0  0  0  0  0  0  0
   58.3140   31.1200   46.3610 N   0  0  0  0  0  0  0  0  0  0  0  0
   58.7210   28.4310   44.1120 C   0  0  0  0  0  0  0  0  0  0  0  0
   58.6760   27.0480   43.9450 C   0  0  0  0  0  0  0  0  0  0  0  0
   57.7670   26.2640   44.6710 C   0  0  0  0  0  0  0  0  0  0  0  0
   57.8350   24.7940   44.5130 C   0  0  0  0  0  0  0  0  0  0  0  0
   56.9750   24.1340   43.6180 C   0  0  0  0  0  0  0  0  0  0  0  0
   57.0270   22.7430   43.4870 C   0  0  0  0  0  0  0  0  0  0  0  0
   57.9290   22.0010   44.2540 C   0  0  0  0  0  0  0  0  0  0  0  0
   58.7780   22.6480   45.1570 C   0  0  0  0  0  0  0  0  0  0  0  0
   58.7300   24.0390   45.2900 C   0  0  0  0  0  0  0  0  0  0  0  0
   56.2520   28.7851   46.4433 H   0  0  0  0  0  0  0  0  0  0  0  0
   57.2197   31.1956   43.1800 H   0  0  0  0  0  0  0  0  0  0  0  0
   60.1122   33.9560   45.6946 H   0  0  0  0  0  0  0  0  0  0  0  0
   60.0424   35.3892   46.7752 H   0  0  0  0  0  0  0  0  0  0  0  0
   62.4475   33.5930   45.4607 H   0  0  0  0  0  0  0  0  0  0  0  0
   64.6296   32.9680   46.5004 H   0  0  0  0  0  0  0  0  0  0  0  0
   62.9152   33.5119   50.4359 H   0  0  0  0  0  0  0  0  0  0  0  0
   60.7324   34.1404   49.4031 H   0  0  0  0  0  0  0  0  0  0  0  0
   58.5860   30.5960   47.2220 H   0  0  0  0  0  0  0  0  0  0  0  0
   59.4403   29.0279   43.5320 H   0  0  0  0  0  0  0  0  0  0  0  0
   59.3625   26.5647   43.2343 H   0  0  0  0  0  0  0  0  0  0  0  0
   56.2583   24.7143   43.0183 H   0  0  0  0  0  0  0  0  0  0  0  0
   56.3572   22.2323   42.7795 H   0  0  0  0  0  0  0  0  0  0  0  0
   57.9712   20.9070   44.1473 H   0  0  0  0  0  0  0  0  0  0  0  0
   59.4844   22.0621   45.7634 H   0  0  0  0  0  0  0  0  0  0  0  0
   59.3953   24.5443   46.0056 H   0  0  0  0  0  0  0  0  0  0  0  0
  1  2  2  0
  2  3  1  0
  2  4  1  0
  4  5  2  0
  5  6  1  0
  6  7  1  0
  7  8  2  0
  8  9  1  0
  9 10  1  0
 10 11  1  0
 11 12  1  0
 12 13  1  0
 13 14  2  0
 14 15  1  0
 15 16  2  0
 16 17  1  0
 16 18  1  0
 18 19  2  0
 10 20  2  0
  6 21  2  0
 21 22  1  0
 22 23  2  0
 23 24  1  0
 24 25  2  0
 25 26  1  0
 26 27  2  0
 27 28  1  0
 28 29  2  0
 23  4  1  0
 29 24  1  0
 20  7  1  0
 19 13  1  0
  5 30  1  0
  8 31  1  0
 12 32  1  0
 12 33  1  0
 14 34  1  0
 15 35  1  0
 18 36  1  0
 19 37  1  0
 20 38  1  0
 21 39  1  0
 22 40  1  0
 25 41  1  0
 26 42  1  0
 27 43  1  0
 28 44  1  0
 29 45  1  0
M  CHG  2   3  -1  20   1
M  END
>  <UniqueID>  (79) 
68

>  <SMILES>  (79) 
O=C([O-])c1cc(-c2csc(SCc3ccc(F)cc3)[nH+]2)ccc1-c1ccccc1

>  <Energy>  (79) 
89.08548690574138

>  <Genealogy>  (79) 
O=C([O-])c1cc(-c2csc(SCc3ccc(F)cc3)[nH+]2)ccc1-c1ccccc1 (protonated)
O=C([O-])c1cc(-c2csc(SCc3ccc(F)cc3)[nH+]2)ccc1-c1ccccc1 (3D coordinates assigned)
O=C([O-])c1cc(-c2csc(SCc3ccc(F)cc3)[nH+]2)ccc1-c1ccccc1 (optimized conformer: 89.08548690574138 kcal/mol)

>  <smiles>  (79) 
O=C(O)c1cc(-c2csc(SCc3ccc(F)cc3)n2)ccc1-c1ccccc1

>  <score_type>  (79) 
oracle

>  <origin>  (79) 
adg

>  <m_score__min__energy>  (79) 
-11.19

>  <m_primary>  (79) 
energy

$$$$
79:0
     RDKit          3D

 11 11  0  0  0  0  0  0  0  0999 V2000
   56.4190   27.1430   45.7400 O   0  0  0  0  0  0  0  0  0  0  0  0
   56.6940   28.2650   45.2480 C   0  0  0  0  0  0  0  0  0  0  0  0
   58.0330   28.4940   44.9190 C   0  0  0  0  0  0  0  0  0  0  0  0
   58.4070   29.7090   44.3720 C   0  0  0  0  0  0  0  0  0  0  0  0
   57.3890   30.6400   44.1850 C   0  0  0  0  0  0  0  0  0  0  0  0
   57.7810   32.1820   43.5050 Cl  0  0  0  0  0  0  0  0  0  0  0  0
   56.1120   30.3640   44.5210 N   0  0  0  0  0  0  0  0  0  0  0  0
   55.7450   29.2060   45.0440 N   0  0  0  0  0  0  0  0  0  0  0  0
   58.7863   27.7118   45.0941 H   0  0  0  0  0  0  0  0  0  0  0  0
   59.4504   29.9269   44.1002 H   0  0  0  0  0  0  0  0  0  0  0  0
   54.7640   28.9690   45.3110 H   0  0  0  0  0  0  0  0  0  0  0  0
  1  2  2  0
  2  3  1  0
  3  4  2  0
  4  5  1  0
  5  6  1  0
  5  7  2  0
  7  8  1  0
  8  2  1  0
  3  9  1  0
  4 10  1  0
  8 11  1  0
M  END
>  <smiles>  (80) 
O=c1ccc(Cl)n[nH]1

>  <score_type>  (80) 
oracle

>  <origin>  (80) 
adg

>  <m_score__min__energy>  (80) 
-4.8300000000000001

>  <m_primary>  (80) 
energy

$$$$
80:0
     RDKit          3D

 43 46  0  0  0  0  0  0  0  0999 V2000
   57.0470   31.0840   42.6830 O   0  0  0  0  0  0  0  0  0  0  0  0
   56.8050   30.7620   43.8740 C   0  0  0  0  0  0  0  0  0  0  0  0
   56.6330   29.3220   44.2290 C   0  0  0  0  0  0  0  0  0  0  0  0
   58.1430   28.3900   43.8080 S   0  0  0  0  0  0  0  0  0  0  0  0
   58.9890   28.7730   45.3490 C   0  0  0  0  0  0  0  0  0  0  0  0
   59.6080   29.9810   45.4600 N   0  0  0  0  0  0  0  0  0  0  0  0
   60.2220   30.3310   46.6140 C   0  0  0  0  0  0  0  0  0  0  0  0
   60.2130   29.4910   47.6940 C   0  0  0  0  0  0  0  0  0  0  0  0
   59.6050   28.2420   47.5850 C   0  0  0  0  0  0  0  0  0  0  0  0
   59.6210   27.4490   48.5650 O   0  0  0  0  0  0  0  0  0  0  0  0
   58.9990   27.8900   46.4060 N   0  0  0  0  0  0  0  0  0  0  0  0
   58.3680   26.6010   46.2840 C   0  0  0  0  0  0  0  0  0  0  0  0
   56.9770   26.4810   46.4190 C   0  0  0  0  0  0  0  0  0  0  0  0
   56.3650   25.2330   46.2830 C   0  0  0  0  0  0  0  0  0  0  0  0
   57.1370   24.1000   46.0120 C   0  0  0  0  0  0  0  0  0  0  0  0
   58.5260   24.2120   45.8870 C   0  0  0  0  0  0  0  0  0  0  0  0
   59.1420   25.4590   46.0290 C   0  0  0  0  0  0  0  0  0  0  0  0
   61.0370   30.1240   49.1350 S   0  0  0  0  0  0  0  0  0  0  0  0
   61.7350   31.4760   48.1130 C   0  0  0  0  0  0  0  0  0  0  0  0
   60.9300   31.6160   46.8090 C   0  0  0  0  0  0  0  0  0  0  0  0
   56.6040   31.7630   44.8780 N   0  0  0  0  0  0  0  0  0  0  0  0
   57.5650   32.7190   45.3500 C   0  0  0  0  0  0  0  0  0  0  0  0
   57.6720   33.0660   46.7090 C   0  0  0  0  0  0  0  0  0  0  0  0
   58.5940   34.0350   47.1190 C   0  0  0  0  0  0  0  0  0  0  0  0
   59.4030   34.6740   46.1780 C   0  0  0  0  0  0  0  0  0  0  0  0
   59.2840   34.3510   44.8250 C   0  0  0  0  0  0  0  0  0  0  0  0
   58.3660   33.3800   44.4120 C   0  0  0  0  0  0  0  0  0  0  0  0
   56.4396   29.2336   45.3083 H   0  0  0  0  0  0  0  0  0  0  0  0
   55.7850   28.9097   43.6626 H   0  0  0  0  0  0  0  0  0  0  0  0
   56.3672   27.3713   46.6323 H   0  0  0  0  0  0  0  0  0  0  0  0
   55.2740   25.1417   46.3893 H   0  0  0  0  0  0  0  0  0  0  0  0
   56.6522   23.1193   45.8969 H   0  0  0  0  0  0  0  0  0  0  0  0
   59.1332   23.3191   45.6771 H   0  0  0  0  0  0  0  0  0  0  0  0
   60.2351   25.5449   45.9407 H   0  0  0  0  0  0  0  0  0  0  0  0
   61.6862   32.4204   48.6749 H   0  0  0  0  0  0  0  0  0  0  0  0
   62.7818   31.2421   47.8690 H   0  0  0  0  0  0  0  0  0  0  0  0
   60.2061   32.4397   46.8955 H   0  0  0  0  0  0  0  0  0  0  0  0
   61.5880   31.8417   45.9569 H   0  0  0  0  0  0  0  0  0  0  0  0
   57.0281   32.5734   47.4524 H   0  0  0  0  0  0  0  0  0  0  0  0
   58.6815   34.2937   48.1846 H   0  0  0  0  0  0  0  0  0  0  0  0
   60.1329   35.4306   46.5018 H   0  0  0  0  0  0  0  0  0  0  0  0
   59.9140   34.8616   44.0817 H   0  0  0  0  0  0  0  0  0  0  0  0
   58.2731   33.1345   43.3438 H   0  0  0  0  0  0  0  0  0  0  0  0
  1  2  2  0
  2  3  1  0
  3  4  1  0
  4  5  1  0
  5  6  2  0
  6  7  1  0
  7  8  2  0
  8  9  1  0
  9 10  2  0
  9 11  1  0
 11 12  1  0
 12 13  2  0
 13 14  1  0
 14 15  2  0
 15 16  1  0
 16 17  2  0
  8 18  1  0
 18 19  1  0
 19 20  1  0
  2 21  1  0
 21 22  1  0
 22 23  2  0
 23 24  1  0
 24 25  2  0
 25 26  1  0
 26 27  2  0
 11  5  1  0
 17 12  1  0
 27 22  1  0
 20  7  1  0
  3 28  1  0
  3 29  1  0
 13 30  1  0
 14 31  1  0
 15 32  1  0
 16 33  1  0
 17 34  1  0
 19 35  1  0
 19 36  1  0
 20 37  1  0
 20 38  1  0
 23 39  1  0
 24 40  1  0
 25 41  1  0
 26 42  1  0
 27 43  1  0
M  CHG  1  21  -1
M  END
>  <UniqueID>  (81) 
69

>  <SMILES>  (81) 
O=C(CSc1nc2c(c(=O)n1-c1ccccc1)SCC2)[N-]c1ccccc1

>  <Energy>  (81) 
64.3155213434808

>  <Genealogy>  (81) 
O=C(CSc1nc2c(c(=O)n1-c1ccccc1)SCC2)[N-]c1ccccc1 (protonated)
O=C(CSc1nc2c(c(=O)n1-c1ccccc1)SCC2)[N-]c1ccccc1 (3D coordinates assigned)
O=C(CSc1nc2c(c(=O)n1-c1ccccc1)SCC2)[N-]c1ccccc1 (nonaromatic ring conformer: 64.3155213434808 kcal/mol)

>  <smiles>  (81) 
O=C(CSc1nc2c(c(=O)n1-c1ccccc1)SCC2)Nc1ccccc1

>  <score_type>  (81) 
oracle

>  <origin>  (81) 
adg

>  <m_score__min__energy>  (81) 
-9.8200000000000003

>  <m_primary>  (81) 
energy

$$$$
81:0
     RDKit          3D

 63 66  0  0  0  0  0  0  0  0999 V2000
   61.4406   29.4987   49.1351 H   0  0  0  0  0  0  0  0  0  0  0  0
   60.6340   29.3720   48.3980 C   0  0  0  0  0  0  0  0  0  0  0  0
   60.3820   28.1450   47.8790 N   0  0  0  0  0  0  0  0  0  0  0  0
   59.3970   27.9420   46.9650 C   0  0  0  0  0  0  0  0  0  0  0  0
   59.1770   26.6560   46.4610 C   0  0  0  0  0  0  0  0  0  0  0  0
   59.8062   25.8219   46.8050 H   0  0  0  0  0  0  0  0  0  0  0  0
   58.1610   26.4180   45.5200 C   0  0  0  0  0  0  0  0  0  0  0  0
   57.9260   25.0510   44.9910 C   0  0  0  0  0  0  0  0  0  0  0  0
   58.6350   23.9530   45.5110 C   0  0  0  0  0  0  0  0  0  0  0  0
   59.3647   24.1083   46.3194 H   0  0  0  0  0  0  0  0  0  0  0  0
   58.4200   22.6660   45.0090 C   0  0  0  0  0  0  0  0  0  0  0  0
   58.9901   21.8175   45.4153 H   0  0  0  0  0  0  0  0  0  0  0  0
   57.4810   22.4520   43.9900 C   0  0  0  0  0  0  0  0  0  0  0  0
   57.2820   21.0770   43.4250 C   0  0  0  0  0  0  0  0  0  0  0  0
   57.1774   20.3542   44.2476 H   0  0  0  0  0  0  0  0  0  0  0  0
   56.3724   21.0628   42.8065 H   0  0  0  0  0  0  0  0  0  0  0  0
   58.1502   20.8055   42.8065 H   0  0  0  0  0  0  0  0  0  0  0  0
   56.7830   23.5450   43.4570 C   0  0  0  0  0  0  0  0  0  0  0  0
   56.0622   23.3884   42.6409 H   0  0  0  0  0  0  0  0  0  0  0  0
   56.9980   24.8330   43.9570 C   0  0  0  0  0  0  0  0  0  0  0  0
   56.4373   25.6818   43.5386 H   0  0  0  0  0  0  0  0  0  0  0  0
   57.3670   27.4950   45.0890 C   0  0  0  0  0  0  0  0  0  0  0  0
   56.5685   27.3216   44.3526 H   0  0  0  0  0  0  0  0  0  0  0  0
   57.5810   28.7840   45.5860 C   0  0  0  0  0  0  0  0  0  0  0  0
   56.9506   29.6153   45.2373 H   0  0  0  0  0  0  0  0  0  0  0  0
   58.5980   29.0260   46.5300 C   0  0  0  0  0  0  0  0  0  0  0  0
   58.8400   30.3160   47.0600 C   0  0  0  0  0  0  0  0  0  0  0  0
   58.1050   31.3210   46.6640 N   0  0  0  0  0  0  0  0  0  0  0  0
   57.7780   31.7080   45.2890 C   0  0  0  0  0  0  0  0  0  0  0  0
   57.0956   30.9599   44.8592 H   0  0  0  0  0  0  0  0  0  0  0  0
   58.7131   31.7600   44.7121 H   0  0  0  0  0  0  0  0  0  0  0  0
   57.1030   33.0860   45.2410 C   0  0  0  0  0  0  0  0  0  0  0  0
   56.3448   33.1378   46.0363 H   0  0  0  0  0  0  0  0  0  0  0  0
   56.6468   33.2060   44.2473 H   0  0  0  0  0  0  0  0  0  0  0  0
   58.1090   34.2270   45.4410 C   0  0  0  0  0  0  0  0  0  0  0  0
   57.8409   34.7952   46.3439 H   0  0  0  0  0  0  0  0  0  0  0  0
   58.0839   34.8892   44.5630 H   0  0  0  0  0  0  0  0  0  0  0  0
   59.4680   33.6780   45.5950 N   0  0  0  0  0  0  0  0  0  0  0  0
   59.4110   32.8420   46.2230 H   0  0  0  0  0  0  0  0  0  0  0  0
   60.3960   34.6290   46.2270 C   0  0  0  0  0  0  0  0  0  0  0  0
   59.8312   35.2891   46.9017 H   0  0  0  0  0  0  0  0  0  0  0  0
   60.8885   35.2167   45.4383 H   0  0  0  0  0  0  0  0  0  0  0  0
   61.4560   33.9010   47.0200 C   0  0  0  0  0  0  0  0  0  0  0  0
   62.6850   33.6140   46.4070 C   0  0  0  0  0  0  0  0  0  0  0  0
   62.8448   33.8861   45.3532 H   0  0  0  0  0  0  0  0  0  0  0  0
   63.7060   32.9870   47.1210 C   0  0  0  0  0  0  0  0  0  0  0  0
   64.6630   32.7639   46.6266 H   0  0  0  0  0  0  0  0  0  0  0  0
   63.5170   32.6390   48.4700 C   0  0  0  0  0  0  0  0  0  0  0  0
   64.5150   32.0100   49.2300 O   0  0  0  0  0  0  0  0  0  0  0  0
   64.3970   31.7000   50.6150 C   0  0  0  0  0  0  0  0  0  0  0  0
   64.7254   32.5628   51.2131 H   0  0  0  0  0  0  0  0  0  0  0  0
   63.3478   31.4684   50.8508 H   0  0  0  0  0  0  0  0  0  0  0  0
   65.0266   30.8294   50.8508 H   0  0  0  0  0  0  0  0  0  0  0  0
   62.2960   32.9280   49.0860 C   0  0  0  0  0  0  0  0  0  0  0  0
   62.1439   32.6573   50.1413 H   0  0  0  0  0  0  0  0  0  0  0  0
   61.2570   33.5610   48.3750 C   0  0  0  0  0  0  0  0  0  0  0  0
   60.0280   33.8700   48.9840 O   0  0  0  0  0  0  0  0  0  0  0  0
   59.5580   33.2920   50.1960 C   0  0  0  0  0  0  0  0  0  0  0  0
   59.9943   33.8285   51.0514 H   0  0  0  0  0  0  0  0  0  0  0  0
   58.4613   33.3669   50.2368 H   0  0  0  0  0  0  0  0  0  0  0  0
   59.8550   32.2336   50.2368 H   0  0  0  0  0  0  0  0  0  0  0  0
   59.8770   30.4740   48.0030 C   0  0  0  0  0  0  0  0  0  0  0  0
   60.0884   31.4668   48.4268 H   0  0  0  0  0  0  0  0  0  0  0  0
  1  2  1  0
  2  3  1  0
  3  4  1  0
  4  5  2  0
  5  6  1  0
  5  7  1  0
  7  8  1  0
  8  9  2  0
  9 10  1  0
  9 11  1  0
 11 12  1  0
 11 13  2  0
 13 14  1  0
 14 15  1  0
 14 16  1  0
 14 17  1  0
 13 18  1  0
 18 19  1  0
 18 20  2  0
 20 21  1  0
  7 22  2  0
 22 23  1  0
 22 24  1  0
 24 25  1  0
 24 26  2  0
 26 27  1  0
 27 28  2  0
 28 29  1  0
 29 30  1  0
 29 31  1  0
 29 32  1  0
 32 33  1  0
 32 34  1  0
 32 35  1  0
 35 36  1  0
 35 37  1  0
 35 38  1  0
 38 39  1  0
 38 40  1  0
 40 41  1  0
 40 42  1  0
 40 43  1  0
 43 44  2  0
 44 45  1  0
 44 46  1  0
 46 47  1  0
 46 48  2  0
 48 49  1  0
 49 50  1  0
 50 51  1  0
 50 52  1  0
 50 53  1  0
 48 54  1  0
 54 55  1  0
 54 56  2  0
 56 57  1  0
 57 58  1  0
 58 59  1  0
 58 60  1  0
 58 61  1  0
 27 62  1  0
 62 63  1  0
 62  2  2  0
 26  4  1  0
 56 43  1  0
 20  8  1  0
M  CHG  1   3  -1
M  END
>  <UniqueID>  (82) 
70

>  <SMILES>  (82) 
COc1ccc(CNCCC/N=c2\cc[n-]c3cc(-c4ccc(C)cc4)ccc23)c(OC)c1

>  <Energy>  (82) 
74.2295790873712

>  <Genealogy>  (82) 
COc1ccc(CNCCCN=c2cc[n-]c3cc(-c4ccc(C)cc4)ccc23)c(OC)c1 (protonated)
COc1ccc(CNCCC/N=c2\cc[n-]c3cc(-c4ccc(C)cc4)ccc23)c(OC)c1 (cis-trans isomerization)
COc1ccc(CNCCC/N=c2\cc[n-]c3cc(-c4ccc(C)cc4)ccc23)c(OC)c1 (3D coordinates assigned)
COc1ccc(CNCCC/N=c2\cc[n-]c3cc(-c4ccc(C)cc4)ccc23)c(OC)c1 (optimized conformer: 74.2295790873712 kcal/mol)

>  <smiles>  (82) 
COc1ccc(CNCCCN=c2cc[nH]c3cc(-c4ccc(C)cc4)ccc23)c(OC)c1

>  <score_type>  (82) 
oracle

>  <origin>  (82) 
adg

>  <m_score__min__energy>  (82) 
-10.119999999999999

>  <m_primary>  (82) 
energy

$$$$
82:0
     RDKit          3D

 23 24  0  0  0  0  0  0  0  0999 V2000
   62.3760   33.8370   46.4320 C   0  0  0  0  0  0  0  0  0  0  0  0
   61.2330   34.1590   47.2750 N   0  0  0  0  0  0  0  0  0  0  0  0
   61.2490   34.1820   48.5960 N   0  0  0  0  0  0  0  0  0  0  0  0
   60.0630   34.5900   49.0260 N   0  0  0  0  0  0  0  0  0  0  0  0
   59.2680   34.8500   47.9950 N   0  0  0  0  0  0  0  0  0  0  0  0
   60.0140   34.5850   46.9070 C   0  0  0  0  0  0  0  0  0  0  0  0
   59.4450   34.7900   45.2200 S   0  0  0  0  0  0  0  0  0  0  0  0
   58.7320   33.1520   45.1710 C   0  0  0  0  0  0  0  0  0  0  0  0
   58.8640   32.1830   46.1570 C   0  0  0  0  0  0  0  0  0  0  0  0
   58.1940   30.9950   45.8480 C   0  0  0  0  0  0  0  0  0  0  0  0
   57.5490   31.0400   44.6190 C   0  0  0  0  0  0  0  0  0  0  0  0
   56.5920   29.7490   43.9200 S   0  0  0  0  0  0  0  0  0  0  0  0
   57.5980   28.3730   43.6360 N   0  0  0  0  0  0  0  0  0  0  0  0
   55.9940   30.2130   42.6220 O   0  0  0  0  0  0  0  0  0  0  0  0
   55.4820   29.3800   44.8640 O   0  0  0  0  0  0  0  0  0  0  0  0
   57.7950   32.5460   43.9120 S   0  0  0  0  0  0  0  0  0  0  0  0
   63.2416   33.5931   47.0654 H   0  0  0  0  0  0  0  0  0  0  0  0
   62.1313   32.9728   45.7969 H   0  0  0  0  0  0  0  0  0  0  0  0
   62.6184   34.7018   45.7969 H   0  0  0  0  0  0  0  0  0  0  0  0
   59.4359   32.3342   47.0844 H   0  0  0  0  0  0  0  0  0  0  0  0
   58.1794   30.1163   46.5096 H   0  0  0  0  0  0  0  0  0  0  0  0
   57.0050   27.6550   43.1630 H   0  0  0  0  0  0  0  0  0  0  0  0
   58.3280   28.6640   42.9470 H   0  0  0  0  0  0  0  0  0  0  0  0
  1  2  1  0
  2  3  1  0
  3  4  2  0
  4  5  1  0
  5  6  2  0
  6  7  1  0
  7  8  1  0
  8  9  2  0
  9 10  1  0
 10 11  2  0
 11 12  1  0
 12 13  1  0
 12 14  2  0
 12 15  2  0
 11 16  1  0
  6  2  1  0
 16  8  1  0
  1 17  1  0
  1 18  1  0
  1 19  1  0
  9 20  1  0
 10 21  1  0
 13 22  1  0
 13 23  1  0
M  END
>  <UniqueID>  (83) 
71

>  <SMILES>  (83) 
Cn1nnnc1Sc1ccc(S(N)(=O)=O)s1

>  <Energy>  (83) 
83.31757268091222

>  <Genealogy>  (83) 
Cn1nnnc1Sc1ccc(S(N)(=O)=O)s1 (3D coordinates assigned)
Cn1nnnc1Sc1ccc(S(N)(=O)=O)s1 (optimized conformer: 83.31757268091222 kcal/mol)

>  <smiles>  (83) 
Cn1nnnc1Sc1ccc(S(N)(=O)=O)s1

>  <score_type>  (83) 
oracle

>  <origin>  (83) 
adg

>  <m_score__min__energy>  (83) 
-7.5199999999999996

>  <m_primary>  (83) 
energy

$$$$
83:0
     RDKit          3D

 32 33  0  0  0  0  0  0  0  0999 V2000
   58.9020   34.5570   45.9500 C   0  0  0  0  0  0  0  0  0  0  0  0
   57.9410   34.0310   44.8900 C   0  0  0  0  0  0  0  0  0  0  0  0
   58.6600   33.4550   43.8010 O   0  0  0  0  0  0  0  0  0  0  0  0
   58.1670   32.4020   43.0200 C   0  0  0  0  0  0  0  0  0  0  0  0
   58.2270   32.4650   41.7610 O   0  0  0  0  0  0  0  0  0  0  0  0
   57.5700   31.2170   43.6760 C   0  0  0  0  0  0  0  0  0  0  0  0
   56.5350   30.4980   43.0540 C   0  0  0  0  0  0  0  0  0  0  0  0
   55.9750   29.3780   43.6770 C   0  0  0  0  0  0  0  0  0  0  0  0
   56.4540   28.9490   44.9280 C   0  0  0  0  0  0  0  0  0  0  0  0
   55.8900   27.8190   45.6090 N   0  0  0  0  0  0  0  0  0  0  0  0
   56.6100   26.6810   46.0950 C   0  0  0  0  0  0  0  0  0  0  0  0
   57.8530   26.7750   46.2640 O   0  0  0  0  0  0  0  0  0  0  0  0
   55.9400   25.4300   46.2920 N   0  0  0  0  0  0  0  0  0  0  0  0
   56.1220   24.2340   45.5240 C   0  0  0  0  0  0  0  0  0  0  0  0
   56.3940   24.1410   44.1630 C   0  0  0  0  0  0  0  0  0  0  0  0
   56.5680   22.8190   43.7360 C   0  0  0  0  0  0  0  0  0  0  0  0
   56.4460   21.8810   44.7530 C   0  0  0  0  0  0  0  0  0  0  0  0
   56.1240   22.6940   46.1910 S   0  0  0  0  0  0  0  0  0  0  0  0
   57.4660   29.6800   45.5580 C   0  0  0  0  0  0  0  0  0  0  0  0
   58.0270   30.8000   44.9380 C   0  0  0  0  0  0  0  0  0  0  0  0
   58.5006   34.3373   46.9503 H   0  0  0  0  0  0  0  0  0  0  0  0
   59.8807   34.0688   45.8323 H   0  0  0  0  0  0  0  0  0  0  0  0
   59.0182   35.6445   45.8323 H   0  0  0  0  0  0  0  0  0  0  0  0
   57.2912   33.2655   45.3392 H   0  0  0  0  0  0  0  0  0  0  0  0
   57.3371   34.8691   44.5121 H   0  0  0  0  0  0  0  0  0  0  0  0
   56.1626   30.8185   42.0698 H   0  0  0  0  0  0  0  0  0  0  0  0
   55.1566   28.8304   43.1867 H   0  0  0  0  0  0  0  0  0  0  0  0
   56.4647   25.0118   43.4946 H   0  0  0  0  0  0  0  0  0  0  0  0
   56.7816   22.5482   42.6915 H   0  0  0  0  0  0  0  0  0  0  0  0
   56.5433   20.7914   44.6381 H   0  0  0  0  0  0  0  0  0  0  0  0
   57.8240   29.3706   46.5510 H   0  0  0  0  0  0  0  0  0  0  0  0
   58.8307   31.3582   45.4405 H   0  0  0  0  0  0  0  0  0  0  0  0
  1  2  1  0
  2  3  1  0
  3  4  1  0
  4  5  2  0
  4  6  1  0
  6  7  2  0
  7  8  1  0
  8  9  2  0
  9 10  1  0
 10 11  1  0
 11 12  2  0
 11 13  1  0
 13 14  1  0
 14 15  2  0
 15 16  1  0
 16 17  2  0
 17 18  1  0
  9 19  1  0
 19 20  2  0
 20  6  1  0
 18 14  1  0
  1 21  1  0
  1 22  1  0
  1 23  1  0
  2 24  1  0
  2 25  1  0
  7 26  1  0
  8 27  1  0
 15 28  1  0
 16 29  1  0
 17 30  1  0
 19 31  1  0
 20 32  1  0
M  CHG  2  10  -1  13  -1
M  END
>  <UniqueID>  (84) 
72

>  <SMILES>  (84) 
CCOC(=O)c1ccc([N-]C(=O)[N-]c2cccs2)cc1

>  <Energy>  (84) 
60.55641057777665

>  <Genealogy>  (84) 
CCOC(=O)c1ccc([N-]C(=O)[N-]c2cccs2)cc1 (protonated)
CCOC(=O)c1ccc([N-]C(=O)[N-]c2cccs2)cc1 (3D coordinates assigned)
CCOC(=O)c1ccc([N-]C(=O)[N-]c2cccs2)cc1 (optimized conformer: 60.55641057777665 kcal/mol)

>  <smiles>  (84) 
CCOC(=O)c1ccc(NC(=O)Nc2cccs2)cc1

>  <score_type>  (84) 
oracle

>  <origin>  (84) 
adg

>  <m_score__min__energy>  (84) 
-9.5800000000000001

>  <m_primary>  (84) 
energy

$$$$
84:0
     RDKit          3D

 49 52  0  0  0  0  0  0  0  0999 V2000
   59.9870   35.3030   46.0650 C   0  0  0  0  0  0  0  0  0  0  0  0
   58.9860   34.2160   45.8070 C   0  0  0  0  0  0  0  0  0  0  0  0
   57.6390   34.5400   45.5790 C   0  0  0  0  0  0  0  0  0  0  0  0
   56.7120   33.5380   45.2760 C   0  0  0  0  0  0  0  0  0  0  0  0
   57.1270   32.2070   45.1750 C   0  0  0  0  0  0  0  0  0  0  0  0
   56.2390   31.2410   44.8250 N   0  0  0  0  0  0  0  0  0  0  0  0
   56.6120   29.9440   44.6570 C   0  0  0  0  0  0  0  0  0  0  0  0
   55.7450   29.0990   44.3110 O   0  0  0  0  0  0  0  0  0  0  0  0
   57.9550   29.5610   44.8550 C   0  0  0  0  0  0  0  0  0  0  0  0
   58.4180   28.1380   44.6040 C   0  0  0  0  0  0  0  0  0  0  0  0
   58.5650   27.3150   45.8320 N   0  0  0  0  0  0  0  0  0  0  0  0
   57.3460   27.1700   46.6530 C   0  0  0  0  0  0  0  0  0  0  0  0
   56.3940   26.1510   46.0290 C   0  0  0  0  0  0  0  0  0  0  0  0
   55.0950   26.6730   45.9960 O   0  0  0  0  0  0  0  0  0  0  0  0
   59.8370   27.4270   46.5840 C   0  0  0  0  0  0  0  0  0  0  0  0
   59.9320   28.6720   47.4330 C   0  0  0  0  0  0  0  0  0  0  0  0
   59.0440   28.8980   48.4380 N   0  0  0  0  0  0  0  0  0  0  0  0
   59.0800   30.0360   49.1760 C   0  0  0  0  0  0  0  0  0  0  0  0
   58.2250   30.2090   50.0870 O   0  0  0  0  0  0  0  0  0  0  0  0
   60.0570   31.0080   48.9090 C   0  0  0  0  0  0  0  0  0  0  0  0
   60.1240   32.2270   49.6080 C   0  0  0  0  0  0  0  0  0  0  0  0
   61.1120   33.1630   49.2880 C   0  0  0  0  0  0  0  0  0  0  0  0
   62.0410   32.8880   48.2800 C   0  0  0  0  0  0  0  0  0  0  0  0
   61.9850   31.6780   47.5820 C   0  0  0  0  0  0  0  0  0  0  0  0
   60.9930   30.7390   47.8880 C   0  0  0  0  0  0  0  0  0  0  0  0
   60.9090   29.5830   47.1800 N   0  0  0  0  0  0  0  0  0  0  0  0
   58.8790   30.5380   45.2600 C   0  0  0  0  0  0  0  0  0  0  0  0
   58.4800   31.8730   45.3960 C   0  0  0  0  0  0  0  0  0  0  0  0
   59.4040   32.8800   45.7100 C   0  0  0  0  0  0  0  0  0  0  0  0
   60.1108   35.4375   47.1497 H   0  0  0  0  0  0  0  0  0  0  0  0
   60.9528   35.0259   45.6172 H   0  0  0  0  0  0  0  0  0  0  0  0
   59.6314   36.2427   45.6172 H   0  0  0  0  0  0  0  0  0  0  0  0
   57.3110   35.5883   45.6391 H   0  0  0  0  0  0  0  0  0  0  0  0
   55.6549   33.7974   45.1169 H   0  0  0  0  0  0  0  0  0  0  0  0
   57.6840   27.6481   43.9473 H   0  0  0  0  0  0  0  0  0  0  0  0
   59.4182   28.2084   44.1516 H   0  0  0  0  0  0  0  0  0  0  0  0
   57.6275   26.8314   47.6610 H   0  0  0  0  0  0  0  0  0  0  0  0
   56.8371   28.1437   46.7063 H   0  0  0  0  0  0  0  0  0  0  0  0
   56.7226   25.9244   45.0040 H   0  0  0  0  0  0  0  0  0  0  0  0
   56.4004   25.2313   46.6324 H   0  0  0  0  0  0  0  0  0  0  0  0
   55.1500   27.5140   45.4700 H   0  0  0  0  0  0  0  0  0  0  0  0
   59.9301   26.5502   47.2416 H   0  0  0  0  0  0  0  0  0  0  0  0
   60.6462   27.4818   45.8409 H   0  0  0  0  0  0  0  0  0  0  0  0
   59.3990   32.4437   50.4064 H   0  0  0  0  0  0  0  0  0  0  0  0
   61.1586   34.1186   49.8309 H   0  0  0  0  0  0  0  0  0  0  0  0
   62.8188   33.6264   48.0353 H   0  0  0  0  0  0  0  0  0  0  0  0
   62.7204   31.4639   46.7925 H   0  0  0  0  0  0  0  0  0  0  0  0
   59.9203   30.2532   45.4712 H   0  0  0  0  0  0  0  0  0  0  0  0
   60.4596   32.6219   45.8808 H   0  0  0  0  0  0  0  0  0  0  0  0
  1  2  1  0
  2  3  2  0
  3  4  1  0
  4  5  2  0
  5  6  1  0
  6  7  1  0
  7  8  2  0
  7  9  1  0
  9 10  1  0
 10 11  1  0
 11 12  1  0
 12 13  1  0
 13 14  1  0
 11 15  1  0
 15 16  1  0
 16 17  2  0
 17 18  1  0
 18 19  2  0
 18 20  1  0
 20 21  2  0
 21 22  1  0
 22 23  2  0
 23 24  1  0
 24 25  2  0
 25 26  1  0
  9 27  2  0
 27 28  1  0
 28 29  2  0
 29  2  1  0
 28  5  1  0
 26 16  1  0
 25 20  1  0
  1 30  1  0
  1 31  1  0
  1 32  1  0
  3 33  1  0
  4 34  1  0
 10 35  1  0
 10 36  1  0
 12 37  1  0
 12 38  1  0
 13 39  1  0
 13 40  1  0
 14 41  1  0
 15 42  1  0
 15 43  1  0
 21 44  1  0
 22 45  1  0
 23 46  1  0
 24 47  1  0
 27 48  1  0
 29 49  1  0
M  CHG  2   6  -1  26  -1
M  END
>  <UniqueID>  (85) 
73

>  <SMILES>  (85) 
Cc1ccc2[n-]c(=O)c(CN(CCO)Cc3nc(=O)c4ccccc4[n-]3)cc2c1

>  <Energy>  (85) 
63.13085819681476

>  <Genealogy>  (85) 
Cc1ccc2[n-]c(=O)c(CN(CCO)Cc3nc(=O)c4ccccc4[n-]3)cc2c1 (protonated)
Cc1ccc2[n-]c(=O)c(CN(CCO)Cc3nc(=O)c4ccccc4[n-]3)cc2c1 (3D coordinates assigned)
Cc1ccc2[n-]c(=O)c(CN(CCO)Cc3nc(=O)c4ccccc4[n-]3)cc2c1 (optimized conformer: 63.13085819681476 kcal/mol)

>  <smiles>  (85) 
Cc1ccc2[nH]c(=O)c(CN(CCO)Cc3nc(=O)c4ccccc4[nH]3)cc2c1

>  <score_type>  (85) 
oracle

>  <origin>  (85) 
adg

>  <m_score__min__energy>  (85) 
-12.18

>  <m_primary>  (85) 
energy

$$$$
85:0
     RDKit          3D

 50 52  0  0  0  0  0  0  0  0999 V2000
   60.7830   30.8980   50.3570 C   0  0  0  0  0  0  0  0  0  0  0  0
   60.3120   30.8500   48.6430 S   0  0  0  0  0  0  0  0  0  0  0  0
   59.2100   29.8440   48.4640 O   0  0  0  0  0  0  0  0  0  0  0  0
   61.5050   30.4570   47.8170 O   0  0  0  0  0  0  0  0  0  0  0  0
   59.7580   32.4210   48.1680 N   0  0  0  0  0  0  0  0  0  0  0  0
   59.0920   32.7250   46.9340 C   0  0  0  0  0  0  0  0  0  0  0  0
   57.9360   32.0330   46.5270 C   0  0  0  0  0  0  0  0  0  0  0  0
   57.3510   32.2990   45.2870 C   0  0  0  0  0  0  0  0  0  0  0  0
   56.2470   31.5060   44.8450 N   0  0  0  0  0  0  0  0  0  0  0  0
   56.3390   30.1170   44.4960 C   0  0  0  0  0  0  0  0  0  0  0  0
   55.3970   29.3490   44.8300 O   0  0  0  0  0  0  0  0  0  0  0  0
   57.5450   29.5510   43.7750 C   0  0  2  0  0  0  0  0  0  0  0  0
   57.1320   28.5950   42.8310 O   0  0  0  0  0  0  0  0  0  0  0  0
   58.5080   28.9130   44.7540 C   0  0  0  0  0  0  0  0  0  0  0  0
   59.8790   29.2250   44.7130 C   0  0  0  0  0  0  0  0  0  0  0  0
   60.7720   28.6000   45.5880 C   0  0  0  0  0  0  0  0  0  0  0  0
   60.3070   27.6640   46.5140 C   0  0  0  0  0  0  0  0  0  0  0  0
   58.9460   27.3580   46.5740 C   0  0  0  0  0  0  0  0  0  0  0  0
   58.0460   27.9850   45.7060 C   0  0  0  0  0  0  0  0  0  0  0  0
   57.8740   33.3110   44.4750 C   0  0  0  0  0  0  0  0  0  0  0  0
   59.0040   34.0190   44.8780 C   0  0  0  0  0  0  0  0  0  0  0  0
   59.6390   33.7140   46.0970 C   0  0  0  0  0  0  0  0  0  0  0  0
   60.8170   34.3610   46.5080 O   0  0  0  0  0  0  0  0  0  0  0  0
   62.1360   33.8280   46.3780 C   0  0  0  0  0  0  0  0  0  0  0  0
   62.7270   33.5410   47.7330 C   0  0  0  0  0  0  0  0  0  0  0  0
   62.2490   34.1990   48.8790 C   0  0  0  0  0  0  0  0  0  0  0  0
   62.8220   33.9440   50.1290 C   0  0  0  0  0  0  0  0  0  0  0  0
   63.8680   33.0230   50.2460 C   0  0  0  0  0  0  0  0  0  0  0  0
   64.3380   32.3540   49.1130 C   0  0  0  0  0  0  0  0  0  0  0  0
   63.7710   32.6090   47.8620 C   0  0  0  0  0  0  0  0  0  0  0  0
   59.8856   30.8065   50.9866 H   0  0  0  0  0  0  0  0  0  0  0  0
   61.4684   30.0651   50.5724 H   0  0  0  0  0  0  0  0  0  0  0  0
   61.2863   31.8521   50.5724 H   0  0  0  0  0  0  0  0  0  0  0  0
   57.4901   31.2772   47.1903 H   0  0  0  0  0  0  0  0  0  0  0  0
   58.0603   30.3771   43.2632 H   0  0  0  0  0  0  0  0  0  0  0  0
   56.2630   28.2340   43.1500 H   0  0  0  0  0  0  0  0  0  0  0  0
   60.2503   29.9648   43.9885 H   0  0  0  0  0  0  0  0  0  0  0  0
   61.8434   28.8460   45.5471 H   0  0  0  0  0  0  0  0  0  0  0  0
   61.0129   27.1677   47.1962 H   0  0  0  0  0  0  0  0  0  0  0  0
   58.5807   26.6222   47.3055 H   0  0  0  0  0  0  0  0  0  0  0  0
   56.9728   27.7518   45.7677 H   0  0  0  0  0  0  0  0  0  0  0  0
   57.3915   33.5484   43.5154 H   0  0  0  0  0  0  0  0  0  0  0  0
   59.4027   34.8214   44.2398 H   0  0  0  0  0  0  0  0  0  0  0  0
   62.0933   32.8949   45.7971 H   0  0  0  0  0  0  0  0  0  0  0  0
   62.7684   34.5671   45.8643 H   0  0  0  0  0  0  0  0  0  0  0  0
   61.4207   34.9176   48.7925 H   0  0  0  0  0  0  0  0  0  0  0  0
   62.4495   34.4685   51.0213 H   0  0  0  0  0  0  0  0  0  0  0  0
   64.3202   32.8255   51.2291 H   0  0  0  0  0  0  0  0  0  0  0  0
   65.1563   31.6249   49.2063 H   0  0  0  0  0  0  0  0  0  0  0  0
   64.1434   32.0778   46.9737 H   0  0  0  0  0  0  0  0  0  0  0  0
  1  2  1  0
  2  3  2  0
  2  4  2  0
  2  5  1  0
  5  6  1  0
  6  7  2  0
  7  8  1  0
  8  9  1  0
  9 10  1  0
 10 11  2  0
 10 12  1  0
 12 13  1  0
 12 14  1  0
 14 15  2  0
 15 16  1  0
 16 17  2  0
 17 18  1  0
 18 19  2  0
  8 20  2  0
 20 21  1  0
 21 22  2  0
 22 23  1  0
 23 24  1  0
 24 25  1  0
 25 26  2  0
 26 27  1  0
 27 28  2  0
 28 29  1  0
 29 30  2  0
 22  6  1  0
 30 25  1  0
 19 14  1  0
  1 31  1  0
  1 32  1  0
  1 33  1  0
  7 34  1  0
 12 35  1  6
 13 36  1  0
 15 37  1  0
 16 38  1  0
 17 39  1  0
 18 40  1  0
 19 41  1  0
 20 42  1  0
 21 43  1  0
 24 44  1  0
 24 45  1  0
 26 46  1  0
 27 47  1  0
 28 48  1  0
 29 49  1  0
 30 50  1  0
M  CHG  2   5  -1   9  -1
M  END
>  <UniqueID>  (86) 
74

>  <SMILES>  (86) 
CS(=O)(=O)[N-]c1cc([N-]C(=O)[C@H](O)c2ccccc2)ccc1OCc1ccccc1

>  <Energy>  (86) 
52.78568695882148

>  <Genealogy>  (86) 
CS(=O)(=O)[N-]c1cc([N-]C(=O)C(O)c2ccccc2)ccc1OCc1ccccc1 (protonated)
CS(=O)(=O)[N-]c1cc([N-]C(=O)[C@H](O)c2ccccc2)ccc1OCc1ccccc1 (chirality)
CS(=O)(=O)[N-]c1cc([N-]C(=O)[C@H](O)c2ccccc2)ccc1OCc1ccccc1 (3D coordinates assigned)
CS(=O)(=O)[N-]c1cc([N-]C(=O)[C@H](O)c2ccccc2)ccc1OCc1ccccc1 (optimized conformer: 52.78568695882148 kcal/mol)

>  <smiles>  (86) 
CS(=O)(=O)Nc1cc(NC(=O)C(O)c2ccccc2)ccc1OCc1ccccc1

>  <score_type>  (86) 
oracle

>  <origin>  (86) 
adg

>  <m_score__min__energy>  (86) 
-12.199999999999999

>  <m_primary>  (86) 
energy

$$$$
86:0
     RDKit          3D

 47 49  0  0  0  0  0  0  0  0999 V2000
   59.3640   34.9610   47.5260 C   0  0  0  0  0  0  0  0  0  0  0  0
   58.8370   34.0970   46.4180 C   0  0  0  0  0  0  0  0  0  0  0  0
   57.9100   33.0780   46.6870 C   0  0  0  0  0  0  0  0  0  0  0  0
   57.4140   32.2840   45.6500 C   0  0  0  0  0  0  0  0  0  0  0  0
   57.8320   32.4990   44.3260 C   0  0  0  0  0  0  0  0  0  0  0  0
   57.3840   31.6300   43.2670 N   0  0  0  0  0  0  0  0  0  0  0  0
   57.5540   32.0290   41.8710 C   0  0  0  0  0  0  0  0  0  0  0  0
   56.6600   30.0870   43.6370 S   0  0  0  0  0  0  0  0  0  0  0  0
   56.2690   29.4100   42.3510 O   0  0  0  0  0  0  0  0  0  0  0  0
   55.4350   30.2880   44.4840 O   0  0  0  0  0  0  0  0  0  0  0  0
   57.7910   29.0780   44.5390 C   0  0  0  0  0  0  0  0  0  0  0  0
   59.1600   29.3700   44.5460 C   0  0  0  0  0  0  0  0  0  0  0  0
   60.0390   28.5900   45.3030 C   0  0  0  0  0  0  0  0  0  0  0  0
   59.5540   27.5260   46.0690 C   0  0  0  0  0  0  0  0  0  0  0  0
   58.1800   27.2230   46.0760 C   0  0  0  0  0  0  0  0  0  0  0  0
   57.6500   26.1360   46.9290 C   0  0  0  0  0  0  0  0  0  0  0  0
   58.3620   25.6580   47.8540 O   0  0  0  0  0  0  0  0  0  0  0  0
   56.2930   25.6930   46.7570 N   0  0  0  0  0  0  0  0  0  0  0  0
   55.7520   24.9210   45.6720 C   0  0  0  0  0  0  0  0  0  0  0  0
   56.6180   24.4970   44.6520 C   0  0  0  0  0  0  0  0  0  0  0  0
   56.1400   23.7180   43.5950 C   0  0  0  0  0  0  0  0  0  0  0  0
   54.7920   23.3500   43.5510 C   0  0  0  0  0  0  0  0  0  0  0  0
   53.9200   23.7520   44.5700 C   0  0  0  0  0  0  0  0  0  0  0  0
   52.5340   23.3590   44.5310 C   0  0  0  0  0  0  0  0  0  0  0  0
   51.4200   23.0420   44.5010 N   0  0  0  0  0  0  0  0  0  0  0  0
   54.4000   24.5270   45.6350 C   0  0  0  0  0  0  0  0  0  0  0  0
   57.3100   27.9910   45.2830 C   0  0  0  0  0  0  0  0  0  0  0  0
   58.7390   33.5390   44.0580 C   0  0  0  0  0  0  0  0  0  0  0  0
   59.2350   34.3340   45.0950 C   0  0  0  0  0  0  0  0  0  0  0  0
   59.0940   34.5184   48.4962 H   0  0  0  0  0  0  0  0  0  0  0  0
   60.4589   35.0313   47.4470 H   0  0  0  0  0  0  0  0  0  0  0  0
   58.9254   35.9667   47.4470 H   0  0  0  0  0  0  0  0  0  0  0  0
   57.5724   32.9037   47.7193 H   0  0  0  0  0  0  0  0  0  0  0  0
   56.6912   31.4850   45.8717 H   0  0  0  0  0  0  0  0  0  0  0  0
   57.9849   33.0402   41.8285 H   0  0  0  0  0  0  0  0  0  0  0  0
   58.2288   31.3215   41.3670 H   0  0  0  0  0  0  0  0  0  0  0  0
   56.5763   32.0256   41.3670 H   0  0  0  0  0  0  0  0  0  0  0  0
   59.5446   30.2143   43.9551 H   0  0  0  0  0  0  0  0  0  0  0  0
   61.1159   28.8142   45.2959 H   0  0  0  0  0  0  0  0  0  0  0  0
   60.2503   26.9223   46.6696 H   0  0  0  0  0  0  0  0  0  0  0  0
   57.6805   24.7799   44.6849 H   0  0  0  0  0  0  0  0  0  0  0  0
   56.8246   23.3942   42.7972 H   0  0  0  0  0  0  0  0  0  0  0  0
   54.4157   22.7434   42.7141 H   0  0  0  0  0  0  0  0  0  0  0  0
   53.7188   24.8284   46.4444 H   0  0  0  0  0  0  0  0  0  0  0  0
   56.2405   27.7367   45.2456 H   0  0  0  0  0  0  0  0  0  0  0  0
   59.0611   33.7287   43.0235 H   0  0  0  0  0  0  0  0  0  0  0  0
   59.9401   35.1484   44.8722 H   0  0  0  0  0  0  0  0  0  0  0  0
  1  2  1  0
  2  3  2  0
  3  4  1  0
  4  5  2  0
  5  6  1  0
  6  7  1  0
  6  8  1  0
  8  9  2  0
  8 10  2  0
  8 11  1  0
 11 12  2  0
 12 13  1  0
 13 14  2  0
 14 15  1  0
 15 16  1  0
 16 17  2  0
 16 18  1  0
 18 19  1  0
 19 20  2  0
 20 21  1  0
 21 22  2  0
 22 23  1  0
 23 24  1  0
 24 25  3  0
 23 26  2  0
 15 27  2  0
  5 28  1  0
 28 29  2  0
 29  2  1  0
 27 11  1  0
 26 19  1  0
  1 30  1  0
  1 31  1  0
  1 32  1  0
  3 33  1  0
  4 34  1  0
  7 35  1  0
  7 36  1  0
  7 37  1  0
 12 38  1  0
 13 39  1  0
 14 40  1  0
 20 41  1  0
 21 42  1  0
 22 43  1  0
 26 44  1  0
 27 45  1  0
 28 46  1  0
 29 47  1  0
M  CHG  1  18  -1
M  END
>  <UniqueID>  (87) 
75

>  <SMILES>  (87) 
Cc1ccc(N(C)S(=O)(=O)c2cccc(C(=O)[N-]c3cccc(C#N)c3)c2)cc1

>  <Energy>  (87) 
55.126142102969794

>  <Genealogy>  (87) 
Cc1ccc(N(C)S(=O)(=O)c2cccc(C(=O)[N-]c3cccc(C#N)c3)c2)cc1 (protonated)
Cc1ccc(N(C)S(=O)(=O)c2cccc(C(=O)[N-]c3cccc(C#N)c3)c2)cc1 (3D coordinates assigned)
Cc1ccc(N(C)S(=O)(=O)c2cccc(C(=O)[N-]c3cccc(C#N)c3)c2)cc1 (optimized conformer: 55.126142102969794 kcal/mol)

>  <smiles>  (87) 
Cc1ccc(N(C)S(=O)(=O)c2cccc(C(=O)Nc3cccc(C#N)c3)c2)cc1

>  <score_type>  (87) 
oracle

>  <origin>  (87) 
adg

>  <m_score__min__energy>  (87) 
-11.51

>  <m_primary>  (87) 
energy

$$$$
87:0
     RDKit          3D

 29 31  0  0  0  0  0  0  0  0999 V2000
   57.2050   32.4190   40.2560 N   0  0  0  0  0  0  0  0  0  0  0  0
   57.4050   32.2770   41.4080 C   0  0  0  0  0  0  0  0  0  0  0  0
   57.6450   32.1280   42.8120 C   0  0  0  0  0  0  0  0  0  0  0  0
   58.1950   33.0970   43.5640 N   0  0  0  0  0  0  0  0  0  0  0  0
   58.3050   32.7020   44.8210 N   0  0  0  0  0  0  0  0  0  0  0  0
   58.9510   33.6300   46.0960 S   0  0  0  0  0  0  0  0  0  0  0  0
   58.0060   33.6590   47.2660 O   0  0  0  0  0  0  0  0  0  0  0  0
   59.1590   35.0600   45.6290 O   0  0  0  0  0  0  0  0  0  0  0  0
   60.4750   33.0220   46.6760 C   0  0  0  0  0  0  0  0  0  0  0  0
   60.5440   31.7050   47.1200 C   0  0  0  0  0  0  0  0  0  0  0  0
   61.7580   31.2410   47.5760 C   0  0  0  0  0  0  0  0  0  0  0  0
   62.8780   32.0540   47.5940 C   0  0  0  0  0  0  0  0  0  0  0  0
   64.0870   31.5910   48.0480 F   0  0  0  0  0  0  0  0  0  0  0  0
   62.8080   33.3710   47.1500 C   0  0  0  0  0  0  0  0  0  0  0  0
   61.5790   33.8510   46.6850 C   0  0  0  0  0  0  0  0  0  0  0  0
   57.8150   31.4330   44.9080 C   0  0  0  0  0  0  0  0  0  0  0  0
   57.6770   30.5510   45.9230 N   0  0  0  0  0  0  0  0  0  0  0  0
   57.1300   29.3310   45.6540 C   0  0  0  0  0  0  0  0  0  0  0  0
   56.7290   28.9950   44.4100 N   0  0  0  0  0  0  0  0  0  0  0  0
   56.8490   29.8490   43.3710 C   0  0  0  0  0  0  0  0  0  0  0  0
   56.4520   29.4710   42.2210 N   0  0  0  0  0  0  0  0  0  0  0  0
   57.4020   31.0820   43.6400 C   0  0  0  0  0  0  0  0  0  0  0  0
   59.6568   31.0549   47.1072 H   0  0  0  0  0  0  0  0  0  0  0  0
   61.8391   30.2037   47.9330 H   0  0  0  0  0  0  0  0  0  0  0  0
   63.6970   34.0186   47.1643 H   0  0  0  0  0  0  0  0  0  0  0  0
   61.4923   34.8875   46.3270 H   0  0  0  0  0  0  0  0  0  0  0  0
   57.0129   28.6034   46.4706 H   0  0  0  0  0  0  0  0  0  0  0  0
   56.3180   28.0410   44.2810 H   0  0  0  0  0  0  0  0  0  0  0  0
   55.5690   29.0400   41.9510 H   0  0  0  0  0  0  0  0  0  0  0  0
  1  2  3  0
  2  3  1  0
  3  4  2  0
  4  5  1  0
  5  6  1  0
  6  7  2  0
  6  8  2  0
  6  9  1  0
  9 10  2  0
 10 11  1  0
 11 12  2  0
 12 13  1  0
 12 14  1  0
 14 15  2  0
  5 16  1  0
 16 17  1  0
 17 18  2  0
 18 19  1  0
 19 20  1  0
 20 21  2  3
 20 22  1  0
 22  3  1  0
 15  9  1  0
 22 16  2  0
 10 23  1  0
 11 24  1  0
 14 25  1  0
 15 26  1  0
 18 27  1  0
 19 28  1  0
 21 29  1  0
M  END
>  <smiles>  (88) 
N#Cc1nn(S(=O)(=O)c2ccc(F)cc2)c2nc[nH]c(=N)c12

>  <score_type>  (88) 
oracle

>  <origin>  (88) 
adg

>  <m_score__min__energy>  (88) 
-8.0199999999999996

>  <m_primary>  (88) 
energy

$$$$
88:0
     RDKit          3D

 32 35  0  0  0  0  0  0  0  0999 V2000
   53.9940   26.3450   46.3760 H   0  0  0  0  0  0  0  0  0  0  0  0
   54.8750   25.9610   45.9670 N   0  0  0  0  0  0  0  0  0  0  0  0
   55.9460   26.6820   45.9000 C   0  0  0  0  0  0  0  0  0  0  0  0
   57.1780   26.1830   46.1150 N   0  0  0  0  0  0  0  0  0  0  0  0
   57.9720   27.2590   45.9480 C   0  0  0  0  0  0  0  0  0  0  0  0
   59.0681   27.2633   46.0401 H   0  0  0  0  0  0  0  0  0  0  0  0
   57.1880   28.3580   45.6420 C   0  0  0  0  0  0  0  0  0  0  0  0
   57.6050   29.7450   45.3520 C   0  0  0  0  0  0  0  0  0  0  0  0
   58.2460   30.4460   46.3280 N   0  0  0  0  0  0  0  0  0  0  0  0
   58.6720   31.7360   46.1480 C   0  0  0  0  0  0  0  0  0  0  0  0
   59.3400   32.4360   47.2190 N   0  0  0  0  0  0  0  0  0  0  0  0
   60.1570   31.6870   48.1830 C   0  0  0  0  0  0  0  0  0  0  0  0
   59.5015   31.2537   48.9528 H   0  0  0  0  0  0  0  0  0  0  0  0
   60.6946   30.8900   47.6485 H   0  0  0  0  0  0  0  0  0  0  0  0
   61.1790   32.6080   48.8530 C   0  0  0  0  0  0  0  0  0  0  0  0
   61.6665   32.0662   49.6769 H   0  0  0  0  0  0  0  0  0  0  0  0
   61.9221   32.9140   48.1019 H   0  0  0  0  0  0  0  0  0  0  0  0
   60.5530   33.7660   49.3670 O   0  0  0  0  0  0  0  0  0  0  0  0
   60.0470   34.5400   48.2980 C   0  0  0  0  0  0  0  0  0  0  0  0
   59.6595   35.4907   48.6930 H   0  0  0  0  0  0  0  0  0  0  0  0
   60.8606   34.7262   47.5815 H   0  0  0  0  0  0  0  0  0  0  0  0
   58.9170   33.7980   47.5760 C   0  0  0  0  0  0  0  0  0  0  0  0
   58.0399   33.7428   48.2375 H   0  0  0  0  0  0  0  0  0  0  0  0
   58.6644   34.3445   46.6554 H   0  0  0  0  0  0  0  0  0  0  0  0
   58.4630   32.3530   44.9470 N   0  0  0  0  0  0  0  0  0  0  0  0
   57.8380   31.6880   43.9460 C   0  0  0  0  0  0  0  0  0  0  0  0
   57.6230   32.2210   42.7170 N   0  0  0  0  0  0  0  0  0  0  0  0
   57.0130   31.3320   41.8980 C   0  0  0  0  0  0  0  0  0  0  0  0
   56.7352   31.5426   40.8547 H   0  0  0  0  0  0  0  0  0  0  0  0
   56.7310   29.8580   42.6770 S   0  0  0  0  0  0  0  0  0  0  0  0
   57.4020   30.3880   44.1250 C   0  0  0  0  0  0  0  0  0  0  0  0
   55.9380   27.9620   45.6160 O   0  0  0  0  0  0  0  0  0  0  0  0
  1  2  1  0
  2  3  2  0
  3  4  1  0
  4  5  1  0
  5  6  1  0
  5  7  2  0
  7  8  1  0
  8  9  2  0
  9 10  1  0
 10 11  1  0
 11 12  1  0
 12 13  1  0
 12 14  1  0
 12 15  1  0
 15 16  1  0
 15 17  1  0
 15 18  1  0
 18 19  1  0
 19 20  1  0
 19 21  1  0
 19 22  1  0
 22 23  1  0
 22 24  1  0
 10 25  2  0
 25 26  1  0
 26 27  1  0
 27 28  2  0
 28 29  1  0
 28 30  1  0
 30 31  1  0
  7 32  1  0
 32  3  1  0
 31  8  1  0
 22 11  1  0
 31 26  2  0
M  CHG  1   4  -1
M  END
>  <UniqueID>  (89) 
76

>  <SMILES>  (89) 
[H]/N=c1/[n-]cc(-c2nc(N3CCOCC3)nc3ncsc23)o1

>  <Energy>  (89) 
106.42206548437986

>  <Genealogy>  (89) 
N=c1[n-]cc(-c2nc(N3CCOCC3)nc3ncsc23)o1 (protonated)
[H]/N=c1/[n-]cc(-c2nc(N3CCOCC3)nc3ncsc23)o1 (cis-trans isomerization)
[H]/N=c1/[n-]cc(-c2nc(N3CCOCC3)nc3ncsc23)o1 (3D coordinates assigned)
[H]/N=c1/[n-]cc(-c2nc(N3CCOCC3)nc3ncsc23)o1 (nonaromatic ring conformer: 106.42206548437986 kcal/mol)

>  <smiles>  (89) 
N=c1[nH]cc(-c2nc(N3CCOCC3)nc3ncsc23)o1

>  <score_type>  (89) 
oracle

>  <origin>  (89) 
adg

>  <m_score__min__energy>  (89) 
-8.9299999999999997

>  <m_primary>  (89) 
energy

$$$$
89:0
     RDKit          3D

 39 41  0  0  0  0  0  0  0  0999 V2000
   57.0520   34.1720   45.3100 C   0  0  0  0  0  0  0  0  0  0  0  0
   57.6330   32.7980   45.4750 C   0  0  0  0  0  0  0  0  0  0  0  0
   56.9550   31.7580   44.9130 N   0  0  0  0  0  0  0  0  0  0  0  0
   57.4070   30.4940   45.0610 C   0  0  0  0  0  0  0  0  0  0  0  0
   56.6930   29.1140   44.4290 S   0  0  0  0  0  0  0  0  0  0  0  0
   57.8710   28.0980   45.0960 C   0  0  0  0  0  0  0  0  0  0  0  0
   58.7890   28.8800   45.7950 C   0  0  0  0  0  0  0  0  0  0  0  0
   58.5190   30.2150   45.7680 N   0  0  0  0  0  0  0  0  0  0  0  0
   59.2400   31.2030   46.3660 C   0  0  0  0  0  0  0  0  0  0  0  0
   60.2690   30.9120   47.0340 O   0  0  0  0  0  0  0  0  0  0  0  0
   58.8160   32.5470   46.2330 C   0  0  0  0  0  0  0  0  0  0  0  0
   59.7570   33.8720   46.9690 S   0  0  0  0  0  0  0  0  0  0  0  0
   60.2540   34.7780   45.8780 O   0  0  0  0  0  0  0  0  0  0  0  0
   58.8780   34.6990   47.8620 O   0  0  0  0  0  0  0  0  0  0  0  0
   61.1230   33.2060   47.8510 N   0  0  0  0  0  0  0  0  0  0  0  0
   61.3070   33.7130   49.2320 C   0  0  0  0  0  0  0  0  0  0  0  0
   62.2870   32.9490   50.1530 C   0  0  0  0  0  0  0  0  0  0  0  0
   63.5080   32.2520   49.5210 C   0  0  0  0  0  0  0  0  0  0  0  0
   64.3830   33.1240   48.6200 C   0  0  0  0  0  0  0  0  0  0  0  0
   63.5470   33.9240   47.6160 C   0  0  0  0  0  0  0  0  0  0  0  0
   62.3670   33.1250   47.0550 C   0  0  0  0  0  0  0  0  0  0  0  0
   56.8657   34.6127   46.3005 H   0  0  0  0  0  0  0  0  0  0  0  0
   57.7595   34.8050   44.7543 H   0  0  0  0  0  0  0  0  0  0  0  0
   56.1050   34.1054   44.7543 H   0  0  0  0  0  0  0  0  0  0  0  0
   57.9062   27.0032   44.9947 H   0  0  0  0  0  0  0  0  0  0  0  0
   59.6561   28.4560   46.3226 H   0  0  0  0  0  0  0  0  0  0  0  0
   60.8580   32.2030   47.9900 H   0  0  0  0  0  0  0  0  0  0  0  0
   61.6675   34.7495   49.1563 H   0  0  0  0  0  0  0  0  0  0  0  0
   60.3231   33.5880   49.7078 H   0  0  0  0  0  0  0  0  0  0  0  0
   62.6715   33.6723   50.8871 H   0  0  0  0  0  0  0  0  0  0  0  0
   61.6849   32.1202   50.5536 H   0  0  0  0  0  0  0  0  0  0  0  0
   64.1391   31.8718   50.3378 H   0  0  0  0  0  0  0  0  0  0  0  0
   63.0978   31.4675   48.8681 H   0  0  0  0  0  0  0  0  0  0  0  0
   64.9525   33.8252   49.2477 H   0  0  0  0  0  0  0  0  0  0  0  0
   65.0561   32.4631   48.0542 H   0  0  0  0  0  0  0  0  0  0  0  0
   63.1564   34.8206   48.1196 H   0  0  0  0  0  0  0  0  0  0  0  0
   64.2026   34.1828   46.7715 H   0  0  0  0  0  0  0  0  0  0  0  0
   62.1504   33.5005   46.0440 H   0  0  0  0  0  0  0  0  0  0  0  0
   62.6747   32.0691   47.0718 H   0  0  0  0  0  0  0  0  0  0  0  0
  1  2  1  0
  2  3  1  0
  3  4  2  0
  4  5  1  0
  5  6  1  0
  6  7  2  0
  7  8  1  0
  8  9  1  0
  9 10  2  0
  9 11  1  0
 11 12  1  0
 12 13  2  0
 12 14  2  0
 12 15  1  0
 15 16  1  0
 16 17  1  0
 17 18  1  0
 18 19  1  0
 19 20  1  0
 20 21  1  0
 11  2  2  0
 21 15  1  0
  8  4  1  0
  1 22  1  0
  1 23  1  0
  1 24  1  0
  6 25  1  0
  7 26  1  0
 15 27  1  0
 16 28  1  0
 16 29  1  0
 17 30  1  0
 17 31  1  0
 18 32  1  0
 18 33  1  0
 19 34  1  0
 19 35  1  0
 20 36  1  0
 20 37  1  0
 21 38  1  0
 21 39  1  0
M  CHG  1  15   1
M  END
>  <UniqueID>  (90) 
77

>  <SMILES>  (90) 
Cc1nc2sccn2c(=O)c1S(=O)(=O)[NH+]1CCCCCC1

>  <Energy>  (90) 
90.58702914808622

>  <Genealogy>  (90) 
Cc1nc2sccn2c(=O)c1S(=O)(=O)[NH+]1CCCCCC1 (protonated)
Cc1nc2sccn2c(=O)c1S(=O)(=O)[NH+]1CCCCCC1 (3D coordinates assigned)
Cc1nc2sccn2c(=O)c1S(=O)(=O)[NH+]1CCCCCC1 (nonaromatic ring conformer: 90.58702914808622 kcal/mol)

>  <smiles>  (90) 
Cc1nc2sccn2c(=O)c1S(=O)(=O)N1CCCCCC1

>  <score_type>  (90) 
oracle

>  <origin>  (90) 
adg

>  <m_score__min__energy>  (90) 
-4.5

>  <m_primary>  (90) 
energy

$$$$
90:0
     RDKit          3D

 28 30  0  0  0  0  0  0  0  0999 V2000
   57.3170   33.4670   43.7270 H   0  0  0  0  0  0  0  0  0  0  0  0
   57.6740   33.4870   44.7040 N   0  0  0  0  0  0  0  0  0  0  0  0
   58.3270   32.5380   45.3110 C   0  0  0  0  0  0  0  0  0  0  0  0
   57.7960   31.2300   45.2720 C   0  0  0  0  0  0  0  0  0  0  0  0
   58.5140   30.1730   45.8640 C   0  0  0  0  0  0  0  0  0  0  0  0
   59.6790   30.4230   46.5200 N   0  0  0  0  0  0  0  0  0  0  0  0
   60.1790   29.6250   46.9750 H   0  0  0  0  0  0  0  0  0  0  0  0
   60.2110   31.6750   46.6030 C   0  0  0  0  0  0  0  0  0  0  0  0
   61.4200   31.8680   47.2910 C   0  0  0  0  0  0  0  0  0  0  0  0
   61.9260   31.0096   47.7569 H   0  0  0  0  0  0  0  0  0  0  0  0
   61.9840   33.1400   47.3880 C   0  0  0  0  0  0  0  0  0  0  0  0
   63.4960   33.3670   48.2500 Cl  0  0  0  0  0  0  0  0  0  0  0  0
   61.3460   34.2290   46.7990 C   0  0  0  0  0  0  0  0  0  0  0  0
   61.7930   35.2312   46.8757 H   0  0  0  0  0  0  0  0  0  0  0  0
   60.1430   34.0570   46.1120 C   0  0  0  0  0  0  0  0  0  0  0  0
   59.6496   34.9268   45.6538 H   0  0  0  0  0  0  0  0  0  0  0  0
   59.5500   32.7750   45.9980 C   0  0  0  0  0  0  0  0  0  0  0  0
   57.9720   28.7660   45.8600 C   0  0  0  0  0  0  0  0  0  0  0  0
   58.7955   28.0689   45.6458 H   0  0  0  0  0  0  0  0  0  0  0  0
   57.5307   28.5692   46.8482 H   0  0  0  0  0  0  0  0  0  0  0  0
   56.8780   28.5760   44.8080 C   0  0  0  0  0  0  0  0  0  0  0  0
   57.3360   28.5670   43.8079 H   0  0  0  0  0  0  0  0  0  0  0  0
   56.3636   27.6229   45.0001 H   0  0  0  0  0  0  0  0  0  0  0  0
   55.8980   29.6640   44.8790 N   0  0  0  0  0  0  0  0  0  0  0  0
   55.5360   29.7380   45.8600 H   0  0  0  0  0  0  0  0  0  0  0  0
   56.5150   30.9410   44.5010 C   0  0  0  0  0  0  0  0  0  0  0  0
   56.7503   30.9130   43.4268 H   0  0  0  0  0  0  0  0  0  0  0  0
   55.7972   31.7390   44.7415 H   0  0  0  0  0  0  0  0  0  0  0  0
  1  2  1  0
  2  3  2  0
  3  4  1  0
  4  5  2  0
  5  6  1  0
  6  7  1  0
  6  8  1  0
  8  9  2  0
  9 10  1  0
  9 11  1  0
 11 12  1  0
 11 13  2  0
 13 14  1  0
 13 15  1  0
 15 16  1  0
 15 17  2  0
  5 18  1  0
 18 19  1  0
 18 20  1  0
 18 21  1  0
 21 22  1  0
 21 23  1  0
 21 24  1  0
 24 25  1  0
 24 26  1  0
 26 27  1  0
 26 28  1  0
 17  3  1  0
 26  4  1  0
 17  8  1  0
M  END
>  <UniqueID>  (91) 
78

>  <SMILES>  (91) 
[H]/N=c1/c2c([nH]c3cc(Cl)ccc13)CCNC2

>  <Energy>  (91) 
41.546168858385016

>  <Genealogy>  (91) 
[H]/N=c1/c2c([nH]c3cc(Cl)ccc13)CCNC2 (cis-trans isomerization)
[H]/N=c1/c2c([nH]c3cc(Cl)ccc13)CCNC2 (3D coordinates assigned)
[H]/N=c1/c2c([nH]c3cc(Cl)ccc13)CCNC2 (nonaromatic ring conformer: 41.546168858385016 kcal/mol)

>  <smiles>  (91) 
N=c1c2c([nH]c3cc(Cl)ccc13)CCNC2

>  <score_type>  (91) 
oracle

>  <origin>  (91) 
adg

>  <m_score__min__energy>  (91) 
-6.4000000000000004

>  <m_primary>  (91) 
energy

$$$$
91:0
     RDKit          3D

 73 77  0  0  0  0  0  0  0  0999 V2000
   57.3980   32.0070   43.7670 C   0  0  0  0  0  0  0  0  0  0  0  0
   56.9990   31.1490   44.8320 O   0  0  0  0  0  0  0  0  0  0  0  0
   57.8550   30.2690   45.5100 C   0  0  0  0  0  0  0  0  0  0  0  0
   57.6910   28.8710   45.4460 C   0  0  0  0  0  0  0  0  0  0  0  0
   58.5750   28.0210   46.1290 C   0  0  0  0  0  0  0  0  0  0  0  0
   58.4550   26.6170   46.0940 C   0  0  0  0  0  0  0  0  0  0  0  0
   57.3690   25.9830   45.4080 N   0  0  0  0  0  0  0  0  0  0  0  0
   56.2780   25.3970   46.2000 C   0  0  0  0  0  0  0  0  0  0  0  0
   55.4640   24.3940   45.3730 C   0  0  0  0  0  0  0  0  0  0  0  0
   56.3610   23.5760   44.5420 N   0  0  0  0  0  0  0  0  0  0  0  0
   56.1440   22.1600   44.4150 C   0  0  0  0  0  0  0  0  0  0  0  0
   56.1800   21.6220   43.2760 O   0  0  0  0  0  0  0  0  0  0  0  0
   55.8680   21.3440   45.5600 N   0  0  0  0  0  0  0  0  0  0  0  0
   54.9520   21.6750   46.6140 C   0  0  0  0  0  0  0  0  0  0  0  0
   53.5650   21.7510   46.3870 C   0  0  0  0  0  0  0  0  0  0  0  0
   52.6990   22.0890   47.4290 C   0  0  0  0  0  0  0  0  0  0  0  0
   53.2090   22.3780   48.6980 C   0  0  0  0  0  0  0  0  0  0  0  0
   54.5890   22.3360   48.9230 C   0  0  0  0  0  0  0  0  0  0  0  0
   55.4580   21.9890   47.8820 C   0  0  0  0  0  0  0  0  0  0  0  0
   57.3890   24.2180   43.7060 C   0  0  0  0  0  0  0  0  0  0  0  0
   57.4660   25.7260   43.9690 C   0  0  0  0  0  0  0  0  0  0  0  0
   59.3680   25.8460   46.7480 N   0  0  0  0  0  0  0  0  0  0  0  0
   60.3860   26.4070   47.4520 C   0  0  0  0  0  0  0  0  0  0  0  0
   60.5070   27.7570   47.5190 N   0  0  0  0  0  0  0  0  0  0  0  0
   59.6310   28.5740   46.8770 C   0  0  0  0  0  0  0  0  0  0  0  0
   59.7830   29.9600   46.9590 C   0  0  0  0  0  0  0  0  0  0  0  0
   58.9020   30.8160   46.2700 C   0  0  0  0  0  0  0  0  0  0  0  0
   59.0250   32.2170   46.3110 O   0  0  0  0  0  0  0  0  0  0  0  0
   58.6240   33.0550   47.3950 C   0  0  0  0  0  0  0  0  0  0  0  0
   59.4220   34.3640   47.3900 C   0  0  0  0  0  0  0  0  0  0  0  0
   60.7130   34.2210   46.5620 C   0  0  0  0  0  0  0  0  0  0  0  0
   61.9430   34.2020   47.3830 N   0  0  0  0  0  0  0  0  0  0  0  0
   63.1400   33.6360   46.7140 C   0  0  0  0  0  0  0  0  0  0  0  0
   63.4270   32.1750   47.1180 C   0  0  0  0  0  0  0  0  0  0  0  0
   63.3810   31.9310   48.6410 C   0  0  0  0  0  0  0  0  0  0  0  0
   62.9510   33.1700   49.4310 C   0  0  0  0  0  0  0  0  0  0  0  0
   61.7090   33.7960   48.7890 C   0  0  0  0  0  0  0  0  0  0  0  0
   57.8276   32.9308   44.1817 H   0  0  0  0  0  0  0  0  0  0  0  0
   58.1516   31.4976   43.1485 H   0  0  0  0  0  0  0  0  0  0  0  0
   56.5228   32.2551   43.1485 H   0  0  0  0  0  0  0  0  0  0  0  0
   56.8658   28.4434   44.8576 H   0  0  0  0  0  0  0  0  0  0  0  0
   56.7059   24.8791   47.0710 H   0  0  0  0  0  0  0  0  0  0  0  0
   55.6072   26.2081   46.5196 H   0  0  0  0  0  0  0  0  0  0  0  0
   54.8980   23.7383   46.0510 H   0  0  0  0  0  0  0  0  0  0  0  0
   54.7717   24.9450   44.7195 H   0  0  0  0  0  0  0  0  0  0  0  0
   53.1616   21.5433   45.3849 H   0  0  0  0  0  0  0  0  0  0  0  0
   51.6142   22.1279   47.2510 H   0  0  0  0  0  0  0  0  0  0  0  0
   52.5253   22.6384   49.5195 H   0  0  0  0  0  0  0  0  0  0  0  0
   54.9914   22.5757   49.9183 H   0  0  0  0  0  0  0  0  0  0  0  0
   56.5431   21.9627   48.0604 H   0  0  0  0  0  0  0  0  0  0  0  0
   58.3662   23.7657   43.9308 H   0  0  0  0  0  0  0  0  0  0  0  0
   57.1201   24.0652   42.6504 H   0  0  0  0  0  0  0  0  0  0  0  0
   58.4238   26.1142   43.5922 H   0  0  0  0  0  0  0  0  0  0  0  0
   56.6345   26.2282   43.4529 H   0  0  0  0  0  0  0  0  0  0  0  0
   59.2840   24.8050   46.7230 H   0  0  0  0  0  0  0  0  0  0  0  0
   61.1142   25.7649   47.9691 H   0  0  0  0  0  0  0  0  0  0  0  0
   60.5959   30.3857   47.5655 H   0  0  0  0  0  0  0  0  0  0  0  0
   57.5527   33.2845   47.2972 H   0  0  0  0  0  0  0  0  0  0  0  0
   58.8156   32.5269   48.3407 H   0  0  0  0  0  0  0  0  0  0  0  0
   58.8020   35.1615   46.9546 H   0  0  0  0  0  0  0  0  0  0  0  0
   59.6961   34.6110   48.4263 H   0  0  0  0  0  0  0  0  0  0  0  0
   60.6595   33.2807   45.9937 H   0  0  0  0  0  0  0  0  0  0  0  0
   60.7757   35.1023   45.9068 H   0  0  0  0  0  0  0  0  0  0  0  0
   62.9832   33.6737   45.6259 H   0  0  0  0  0  0  0  0  0  0  0  0
   64.0055   34.2383   47.0273 H   0  0  0  0  0  0  0  0  0  0  0  0
   62.6759   31.5288   46.6401 H   0  0  0  0  0  0  0  0  0  0  0  0
   64.4506   31.9455   46.7869 H   0  0  0  0  0  0  0  0  0  0  0  0
   62.6668   31.1196   48.8449 H   0  0  0  0  0  0  0  0  0  0  0  0
   64.3998   31.6710   48.9642 H   0  0  0  0  0  0  0  0  0  0  0  0
   62.7187   32.8794   50.4662 H   0  0  0  0  0  0  0  0  0  0  0  0
   63.7698   33.9045   49.4244 H   0  0  0  0  0  0  0  0  0  0  0  0
   60.8907   33.0613   48.8129 H   0  0  0  0  0  0  0  0  0  0  0  0
   61.4557   34.7006   49.3613 H   0  0  0  0  0  0  0  0  0  0  0  0
  1  2  1  0
  2  3  1  0
  3  4  2  0
  4  5  1  0
  5  6  2  0
  6  7  1  0
  7  8  1  0
  8  9  1  0
  9 10  1  0
 10 11  1  0
 11 12  2  0
 11 13  1  0
 13 14  1  0
 14 15  2  0
 15 16  1  0
 16 17  2  0
 17 18  1  0
 18 19  2  0
 10 20  1  0
 20 21  1  0
  6 22  1  0
 22 23  2  0
 23 24  1  0
 24 25  2  0
 25 26  1  0
 26 27  2  0
 27 28  1  0
 28 29  1  0
 29 30  1  0
 30 31  1  0
 31 32  1  0
 32 33  1  0
 33 34  1  0
 34 35  1  0
 35 36  1  0
 36 37  1  0
 27  3  1  0
 37 32  1  0
 25  5  1  0
 21  7  1  0
 19 14  1  0
  1 38  1  0
  1 39  1  0
  1 40  1  0
  4 41  1  0
  8 42  1  0
  8 43  1  0
  9 44  1  0
  9 45  1  0
 15 46  1  0
 16 47  1  0
 17 48  1  0
 18 49  1  0
 19 50  1  0
 20 51  1  0
 20 52  1  0
 21 53  1  0
 21 54  1  0
 22 55  1  0
 23 56  1  0
 26 57  1  0
 29 58  1  0
 29 59  1  0
 30 60  1  0
 30 61  1  0
 31 62  1  0
 31 63  1  0
 33 64  1  0
 33 65  1  0
 34 66  1  0
 34 67  1  0
 35 68  1  0
 35 69  1  0
 36 70  1  0
 36 71  1  0
 37 72  1  0
 37 73  1  0
M  CHG  2  13  -1  22   1
M  END
>  <UniqueID>  (92) 
79

>  <SMILES>  (92) 
COc1cc2c(N3CCN(C(=O)[N-]c4ccccc4)CC3)[nH+]cnc2cc1OCCCN1CCCCC1

>  <Energy>  (92) 
98.19988637870149

>  <Genealogy>  (92) 
COc1cc2c(N3CCN(C(=O)[N-]c4ccccc4)CC3)[nH+]cnc2cc1OCCCN1CCCCC1 (protonated)
COc1cc2c(N3CCN(C(=O)[N-]c4ccccc4)CC3)[nH+]cnc2cc1OCCCN1CCCCC1 (3D coordinates assigned)
COc1cc2c(N3CCN(C(=O)[N-]c4ccccc4)CC3)[nH+]cnc2cc1OCCCN1CCCCC1 (nonaromatic ring conformer: 98.19988637870149 kcal/mol)

>  <smiles>  (92) 
COc1cc2c(N3CCN(C(=O)Nc4ccccc4)CC3)ncnc2cc1OCCCN1CCCCC1

>  <score_type>  (92) 
oracle

>  <origin>  (92) 
adg

>  <m_score__min__energy>  (92) 
-9.5800000000000001

>  <m_primary>  (92) 
energy

$$$$
92:0
     RDKit          3D

 28 28  0  0  0  0  0  0  0  0999 V2000
   57.0210   33.8410   45.9240 C   0  0  0  0  0  0  0  0  0  0  0  0
   57.7650   32.9980   44.9770 N   0  0  0  0  0  0  0  0  0  0  0  0
   58.9140   33.7790   44.5470 C   0  0  0  0  0  0  0  0  0  0  0  0
   59.2130   34.8120   45.6170 C   0  0  0  0  0  0  0  0  0  0  0  0
   60.5270   34.2120   46.6680 Cl  0  0  0  0  0  0  0  0  0  0  0  0
   58.2160   31.8660   45.7620 C   0  0  0  0  0  0  0  0  0  0  0  0
   58.1240   30.5710   45.0660 C   0  0  0  0  0  0  0  0  0  0  0  0
   59.2470   29.7350   44.9910 C   0  0  0  0  0  0  0  0  0  0  0  0
   59.1600   28.5350   44.3500 N   0  0  0  0  0  0  0  0  0  0  0  0
   57.9960   28.1410   43.7830 C   0  0  0  0  0  0  0  0  0  0  0  0
   57.9730   26.9890   43.1860 N   0  0  0  0  0  0  0  0  0  0  0  0
   56.9020   28.9330   43.8430 N   0  0  0  0  0  0  0  0  0  0  0  0
   56.9380   30.1420   44.4730 C   0  0  0  0  0  0  0  0  0  0  0  0
   55.8860   30.8870   44.5250 N   0  0  0  0  0  0  0  0  0  0  0  0
   57.2775   33.5504   46.9534 H   0  0  0  0  0  0  0  0  0  0  0  0
   57.2878   34.8960   45.7636 H   0  0  0  0  0  0  0  0  0  0  0  0
   55.9410   33.7074   45.7636 H   0  0  0  0  0  0  0  0  0  0  0  0
   59.7838   33.1190   44.4134 H   0  0  0  0  0  0  0  0  0  0  0  0
   58.6987   34.2756   43.5894 H   0  0  0  0  0  0  0  0  0  0  0  0
   59.5241   35.7538   45.1415 H   0  0  0  0  0  0  0  0  0  0  0  0
   58.3105   34.9885   46.2206 H   0  0  0  0  0  0  0  0  0  0  0  0
   59.2673   32.0350   46.0379 H   0  0  0  0  0  0  0  0  0  0  0  0
   57.5500   31.8026   46.6352 H   0  0  0  0  0  0  0  0  0  0  0  0
   60.1973   30.0470   45.4489 H   0  0  0  0  0  0  0  0  0  0  0  0
   60.0320   27.9400   44.3200 H   0  0  0  0  0  0  0  0  0  0  0  0
   57.0410   26.6040   42.9150 H   0  0  0  0  0  0  0  0  0  0  0  0
   56.0110   28.5840   43.3860 H   0  0  0  0  0  0  0  0  0  0  0  0
   56.0010   31.9390   44.4040 H   0  0  0  0  0  0  0  0  0  0  0  0
  1  2  1  0
  2  3  1  0
  3  4  1  0
  4  5  1  0
  2  6  1  0
  6  7  1  0
  7  8  2  0
  8  9  1  0
  9 10  1  0
 10 11  2  3
 10 12  1  0
 12 13  1  0
 13 14  2  3
 13  7  1  0
  1 15  1  0
  1 16  1  0
  1 17  1  0
  3 18  1  0
  3 19  1  0
  4 20  1  0
  4 21  1  0
  6 22  1  0
  6 23  1  0
  8 24  1  0
  9 25  1  0
 11 26  1  0
 12 27  1  0
 14 28  1  0
M  END
>  <smiles>  (93) 
CN(CCCl)Cc1c[nH]c(=N)[nH]c1=N

>  <score_type>  (93) 
oracle

>  <origin>  (93) 
adg

>  <m_score__min__energy>  (93) 
-5.0899999999999999

>  <m_primary>  (93) 
energy

$$$$
93:0
     RDKit          3D

 50 52  0  0  0  0  0  0  0  0999 V2000
   63.3660   33.7550   46.9790 C   0  0  0  0  0  0  0  0  0  0  0  0
   64.0080   33.1760   48.2380 C   0  0  0  0  0  0  0  0  0  0  0  0
   63.0540   32.2550   49.0130 C   0  0  0  0  0  0  0  0  0  0  0  0
   61.9230   31.7580   48.1490 C   0  0  0  0  0  0  0  0  0  0  0  0
   60.6090   32.1820   48.3940 C   0  0  0  0  0  0  0  0  0  0  0  0
   59.5550   31.6980   47.6170 C   0  0  0  0  0  0  0  0  0  0  0  0
   59.7890   30.7850   46.5710 C   0  0  0  0  0  0  0  0  0  0  0  0
   58.6060   30.2610   45.7580 C   0  0  1  0  0  0  0  0  0  0  0  0
   58.8550   30.2860   44.2280 C   0  0  0  0  0  0  0  0  0  0  0  0
   57.6550   30.7030   43.4630 N   0  0  0  0  0  0  0  0  0  0  0  0
   57.0820   31.9180   44.0660 C   0  0  0  0  0  0  0  0  0  0  0  0
   56.6310   29.6350   43.3940 C   0  0  0  0  0  0  0  0  0  0  0  0
   55.9960   29.3190   44.7730 C   0  0  0  0  0  0  0  0  0  0  0  0
   56.8380   28.4310   45.6820 C   0  0  0  0  0  0  0  0  0  0  0  0
   58.0750   28.9000   46.2050 C   0  0  0  0  0  0  0  0  0  0  0  0
   58.8220   28.0520   47.0460 C   0  0  0  0  0  0  0  0  0  0  0  0
   58.3480   26.7880   47.3920 C   0  0  0  0  0  0  0  0  0  0  0  0
   57.1210   26.3270   46.8960 C   0  0  0  0  0  0  0  0  0  0  0  0
   56.6120   25.0590   47.2230 O   0  0  0  0  0  0  0  0  0  0  0  0
   56.3260   24.0360   46.2760 C   0  0  0  0  0  0  0  0  0  0  0  0
   56.3720   27.1480   46.0450 C   0  0  0  0  0  0  0  0  0  0  0  0
   55.1550   26.6730   45.5630 O   0  0  0  0  0  0  0  0  0  0  0  0
   61.1100   30.3450   46.3480 C   0  0  0  0  0  0  0  0  0  0  0  0
   62.1640   30.8300   47.1270 C   0  0  0  0  0  0  0  0  0  0  0  0
   62.5770   34.4666   47.2638 H   0  0  0  0  0  0  0  0  0  0  0  0
   64.1308   34.2747   46.3832 H   0  0  0  0  0  0  0  0  0  0  0  0
   62.9278   32.9408   46.3832 H   0  0  0  0  0  0  0  0  0  0  0  0
   64.8976   32.5982   47.9468 H   0  0  0  0  0  0  0  0  0  0  0  0
   64.2705   34.0168   48.8969 H   0  0  0  0  0  0  0  0  0  0  0  0
   63.6213   31.3902   49.3875 H   0  0  0  0  0  0  0  0  0  0  0  0
   62.6198   32.8347   49.8409 H   0  0  0  0  0  0  0  0  0  0  0  0
   60.4077   32.8998   49.2028 H   0  0  0  0  0  0  0  0  0  0  0  0
   58.5284   32.0343   47.8246 H   0  0  0  0  0  0  0  0  0  0  0  0
   57.8072   30.9844   45.9787 H   0  0  0  0  0  0  0  0  0  0  0  0
   59.6716   30.9916   44.0152 H   0  0  0  0  0  0  0  0  0  0  0  0
   59.1116   29.2632   43.9149 H   0  0  0  0  0  0  0  0  0  0  0  0
   57.1205   31.8364   45.1623 H   0  0  0  0  0  0  0  0  0  0  0  0
   57.6611   32.7957   43.7431 H   0  0  0  0  0  0  0  0  0  0  0  0
   56.0364   32.0295   43.7431 H   0  0  0  0  0  0  0  0  0  0  0  0
   55.8349   29.9558   42.7060 H   0  0  0  0  0  0  0  0  0  0  0  0
   57.1308   28.7202   43.0429 H   0  0  0  0  0  0  0  0  0  0  0  0
   55.8204   30.2717   45.2941 H   0  0  0  0  0  0  0  0  0  0  0  0
   55.0728   28.7582   44.5650 H   0  0  0  0  0  0  0  0  0  0  0  0
   59.7930   28.3923   47.4350 H   0  0  0  0  0  0  0  0  0  0  0  0
   58.9419   26.1468   48.0600 H   0  0  0  0  0  0  0  0  0  0  0  0
   56.0665   23.1078   46.8061 H   0  0  0  0  0  0  0  0  0  0  0  0
   55.4802   24.3466   45.6449 H   0  0  0  0  0  0  0  0  0  0  0  0
   57.2102   23.8629   45.6449 H   0  0  0  0  0  0  0  0  0  0  0  0
   61.3129   29.6126   45.5528 H   0  0  0  0  0  0  0  0  0  0  0  0
   63.1897   30.4810   46.9367 H   0  0  0  0  0  0  0  0  0  0  0  0
  1  2  1  0
  2  3  1  0
  3  4  1  0
  4  5  2  0
  5  6  1  0
  6  7  2  0
  7  8  1  0
  8  9  1  0
  9 10  1  0
 10 11  1  0
 10 12  1  0
 12 13  1  0
 13 14  1  0
 14 15  2  0
 15 16  1  0
 16 17  2  0
 17 18  1  0
 18 19  1  0
 19 20  1  0
 18 21  2  0
 21 22  1  0
  7 23  1  0
 23 24  2  0
 24  4  1  0
 15  8  1  0
 21 14  1  0
  1 25  1  0
  1 26  1  0
  1 27  1  0
  2 28  1  0
  2 29  1  0
  3 30  1  0
  3 31  1  0
  5 32  1  0
  6 33  1  0
  8 34  1  6
  9 35  1  0
  9 36  1  0
 11 37  1  0
 11 38  1  0
 11 39  1  0
 12 40  1  0
 12 41  1  0
 13 42  1  0
 13 43  1  0
 16 44  1  0
 17 45  1  0
 20 46  1  0
 20 47  1  0
 20 48  1  0
 23 49  1  0
 24 50  1  0
M  CHG  1  22  -1
M  END
>  <UniqueID>  (94) 
80

>  <SMILES>  (94) 
CCCc1ccc([C@H]2CN(C)CCc3c2ccc(OC)c3[O-])cc1

>  <Energy>  (94) 
64.51125902807519

>  <Genealogy>  (94) 
CCCc1ccc(C2CN(C)CCc3c2ccc(OC)c3[O-])cc1 (protonated)
CCCc1ccc([C@H]2CN(C)CCc3c2ccc(OC)c3[O-])cc1 (chirality)
CCCc1ccc([C@H]2CN(C)CCc3c2ccc(OC)c3[O-])cc1 (3D coordinates assigned)
CCCc1ccc([C@H]2CN(C)CCc3c2ccc(OC)c3[O-])cc1 (nonaromatic ring conformer: 64.51125902807519 kcal/mol)

>  <smiles>  (94) 
CCCc1ccc(C2CN(C)CCc3c2ccc(OC)c3O)cc1

>  <score_type>  (94) 
oracle

>  <origin>  (94) 
adg

>  <m_score__min__energy>  (94) 
-8.4199999999999999

>  <m_primary>  (94) 
energy

$$$$
94:0
     RDKit          3D

 49 52  0  0  0  0  0  0  0  0999 V2000
   55.1340   29.2920   44.8500 O   0  0  0  0  0  0  0  0  0  0  0  0
   56.3390   29.6570   44.8480 C   0  0  0  0  0  0  0  0  0  0  0  0
   56.6420   31.0180   44.5100 N   0  0  0  0  0  0  0  0  0  0  0  0
   57.5650   31.8750   45.1980 C   0  0  0  0  0  0  0  0  0  0  0  0
   58.2820   31.4350   46.3250 C   0  0  0  0  0  0  0  0  0  0  0  0
   59.1620   32.3000   46.9820 C   0  0  0  0  0  0  0  0  0  0  0  0
   59.3110   33.6260   46.5410 C   0  0  0  0  0  0  0  0  0  0  0  0
   60.2140   34.5390   47.1840 N   0  0  0  0  0  0  0  0  0  0  0  0
   60.5370   34.5610   48.5820 C   0  0  0  0  0  0  0  0  0  0  0  0
   59.6540   34.9370   49.3980 O   0  0  0  0  0  0  0  0  0  0  0  0
   61.8520   34.1040   49.0940 C   0  0  0  0  0  0  0  0  0  0  0  0
   62.8180   33.5890   48.2230 C   0  0  0  0  0  0  0  0  0  0  0  0
   64.0190   33.1750   48.7030 N   0  0  0  0  0  0  0  0  0  0  0  0
   64.3180   33.2580   50.0280 C   0  0  0  0  0  0  0  0  0  0  0  0
   65.6010   32.8080   50.5170 N   0  0  0  0  0  0  0  0  0  0  0  0
   65.7460   31.4420   51.0370 C   0  0  0  0  0  0  0  0  0  0  0  0
   67.2090   30.9920   50.9660 C   0  0  0  0  0  0  0  0  0  0  0  0
   68.0580   31.9540   51.5580 O   0  0  0  0  0  0  0  0  0  0  0  0
   68.0290   33.1420   50.7930 C   0  0  0  0  0  0  0  0  0  0  0  0
   66.6420   33.7910   50.8470 C   0  0  0  0  0  0  0  0  0  0  0  0
   63.3970   33.7730   50.8870 N   0  0  0  0  0  0  0  0  0  0  0  0
   62.1840   34.1980   50.4510 C   0  0  0  0  0  0  0  0  0  0  0  0
   58.5960   34.0620   45.4190 C   0  0  0  0  0  0  0  0  0  0  0  0
   57.7180   33.1960   44.7610 C   0  0  0  0  0  0  0  0  0  0  0  0
   57.4010   28.6630   45.1390 C   0  0  0  0  0  0  0  0  0  0  0  0
   58.6830   28.7900   44.5720 C   0  0  0  0  0  0  0  0  0  0  0  0
   59.6740   27.8440   44.8490 C   0  0  0  0  0  0  0  0  0  0  0  0
   59.3940   26.7600   45.6840 C   0  0  0  0  0  0  0  0  0  0  0  0
   58.1220   26.6170   46.2400 C   0  0  0  0  0  0  0  0  0  0  0  0
   57.1260   27.5600   45.9670 C   0  0  0  0  0  0  0  0  0  0  0  0
   58.1499   30.4061   46.6910 H   0  0  0  0  0  0  0  0  0  0  0  0
   59.7396   31.9416   47.8468 H   0  0  0  0  0  0  0  0  0  0  0  0
   62.6041   33.5192   47.1462 H   0  0  0  0  0  0  0  0  0  0  0  0
   65.4099   31.4159   52.0841 H   0  0  0  0  0  0  0  0  0  0  0  0
   65.1351   30.7622   50.4250 H   0  0  0  0  0  0  0  0  0  0  0  0
   67.3189   30.0365   51.4997 H   0  0  0  0  0  0  0  0  0  0  0  0
   67.4914   30.8744   49.9094 H   0  0  0  0  0  0  0  0  0  0  0  0
   68.7726   33.8468   51.1933 H   0  0  0  0  0  0  0  0  0  0  0  0
   68.2611   32.8932   49.7469 H   0  0  0  0  0  0  0  0  0  0  0  0
   66.4638   34.1807   51.8601 H   0  0  0  0  0  0  0  0  0  0  0  0
   66.6035   34.6099   50.1136 H   0  0  0  0  0  0  0  0  0  0  0  0
   61.4601   34.6172   51.1653 H   0  0  0  0  0  0  0  0  0  0  0  0
   58.7259   35.0913   45.0534 H   0  0  0  0  0  0  0  0  0  0  0  0
   57.1436   33.5549   43.8942 H   0  0  0  0  0  0  0  0  0  0  0  0
   58.9061   29.6379   43.9077 H   0  0  0  0  0  0  0  0  0  0  0  0
   60.6760   27.9534   44.4086 H   0  0  0  0  0  0  0  0  0  0  0  0
   60.1764   26.0186   45.9035 H   0  0  0  0  0  0  0  0  0  0  0  0
   57.9023   25.7606   46.8945 H   0  0  0  0  0  0  0  0  0  0  0  0
   56.1229   27.4384   46.4019 H   0  0  0  0  0  0  0  0  0  0  0  0
  1  2  2  0
  2  3  1  0
  3  4  1  0
  4  5  2  0
  5  6  1  0
  6  7  2  0
  7  8  1  0
  8  9  1  0
  9 10  2  0
  9 11  1  0
 11 12  2  0
 12 13  1  0
 13 14  2  0
 14 15  1  0
 15 16  1  0
 16 17  1  0
 17 18  1  0
 18 19  1  0
 19 20  1  0
 14 21  1  0
 21 22  2  0
  7 23  1  0
 23 24  2  0
  2 25  1  0
 25 26  2  0
 26 27  1  0
 27 28  2  0
 28 29  1  0
 29 30  2  0
 24  4  1  0
 30 25  1  0
 22 11  1  0
 20 15  1  0
  5 31  1  0
  6 32  1  0
 12 33  1  0
 16 34  1  0
 16 35  1  0
 17 36  1  0
 17 37  1  0
 19 38  1  0
 19 39  1  0
 20 40  1  0
 20 41  1  0
 22 42  1  0
 23 43  1  0
 24 44  1  0
 26 45  1  0
 27 46  1  0
 28 47  1  0
 29 48  1  0
 30 49  1  0
M  CHG  2   3  -1   8  -1
M  END
>  <UniqueID>  (95) 
81

>  <SMILES>  (95) 
O=C([N-]c1ccc([N-]C(=O)c2cnc(N3CCOCC3)nc2)cc1)c1ccccc1

>  <Energy>  (95) 
69.41385134673658

>  <Genealogy>  (95) 
O=C([N-]c1ccc([N-]C(=O)c2cnc(N3CCOCC3)nc2)cc1)c1ccccc1 (protonated)
O=C([N-]c1ccc([N-]C(=O)c2cnc(N3CCOCC3)nc2)cc1)c1ccccc1 (3D coordinates assigned)
O=C([N-]c1ccc([N-]C(=O)c2cnc(N3CCOCC3)nc2)cc1)c1ccccc1 (nonaromatic ring conformer: 69.41385134673658 kcal/mol)

>  <smiles>  (95) 
O=C(Nc1ccc(NC(=O)c2cnc(N3CCOCC3)nc2)cc1)c1ccccc1

>  <score_type>  (95) 
oracle

>  <origin>  (95) 
adg

>  <m_score__min__energy>  (95) 
-11.17

>  <m_primary>  (95) 
energy

$$$$
95:0
     RDKit          3D

 54 56  0  0  0  0  0  0  0  0999 V2000
   57.3210   32.3130   41.0230 C   0  0  0  0  0  0  0  0  0  0  0  0
   57.5080   31.7020   42.4110 C   0  0  0  0  0  0  0  0  0  0  0  0
   56.7210   30.3950   42.6090 C   0  0  0  0  0  0  0  0  0  0  0  0
   56.5490   29.8730   44.3210 S   0  0  0  0  0  0  0  0  0  0  0  0
   55.1280   29.4130   44.5050 O   0  0  0  0  0  0  0  0  0  0  0  0
   56.7780   31.0420   45.2400 O   0  0  0  0  0  0  0  0  0  0  0  0
   57.6060   28.5520   44.7780 N   0  0  0  0  0  0  0  0  0  0  0  0
   57.5470   28.2290   46.2200 C   0  0  0  0  0  0  0  0  0  0  0  0
   58.9050   27.8140   46.7810 C   0  0  0  0  0  0  0  0  0  0  0  0
   59.8810   28.8560   46.4570 N   0  0  0  0  0  0  0  0  0  0  0  0
   60.4680   29.6580   47.5010 C   0  0  0  0  0  0  0  0  0  0  0  0
   60.6990   29.1400   48.7810 C   0  0  0  0  0  0  0  0  0  0  0  0
   61.2880   29.9220   49.7260 N   0  0  0  0  0  0  0  0  0  0  0  0
   61.6660   31.2010   49.4530 C   0  0  0  0  0  0  0  0  0  0  0  0
   61.4410   31.7340   48.1710 C   0  0  0  0  0  0  0  0  0  0  0  0
   61.8170   33.0900   47.8220 N   0  0  0  0  0  0  0  0  0  0  0  0
   63.1660   33.4010   47.3310 C   0  0  0  0  0  0  0  0  0  0  0  0
   60.8690   34.1990   48.0160 C   0  0  0  0  0  0  0  0  0  0  0  0
   59.7110   34.0690   47.0650 C   0  0  0  0  0  0  0  0  0  0  0  0
   58.4650   33.6150   47.5210 C   0  0  0  0  0  0  0  0  0  0  0  0
   57.4110   33.4790   46.6150 C   0  0  0  0  0  0  0  0  0  0  0  0
   57.5960   33.7740   45.2990 N   0  0  0  0  0  0  0  0  0  0  0  0
   58.7940   34.2100   44.8280 C   0  0  0  0  0  0  0  0  0  0  0  0
   59.8730   34.3680   45.7010 C   0  0  0  0  0  0  0  0  0  0  0  0
   60.8480   30.9370   47.2410 N   0  0  0  0  0  0  0  0  0  0  0  0
   60.0190   29.2690   45.0540 C   0  0  0  0  0  0  0  0  0  0  0  0
   58.9470   28.6250   44.1520 C   0  0  0  0  0  0  0  0  0  0  0  0
   57.0004   33.3604   41.1236 H   0  0  0  0  0  0  0  0  0  0  0  0
   58.2728   32.2721   40.4731 H   0  0  0  0  0  0  0  0  0  0  0  0
   56.5552   31.7464   40.4731 H   0  0  0  0  0  0  0  0  0  0  0  0
   58.5775   31.4919   42.5593 H   0  0  0  0  0  0  0  0  0  0  0  0
   57.1243   32.4286   43.1423 H   0  0  0  0  0  0  0  0  0  0  0  0
   55.7133   30.5352   42.1907 H   0  0  0  0  0  0  0  0  0  0  0  0
   57.2952   29.6067   42.1002 H   0  0  0  0  0  0  0  0  0  0  0  0
   57.1956   29.1166   46.7665 H   0  0  0  0  0  0  0  0  0  0  0  0
   56.8594   27.3795   46.3449 H   0  0  0  0  0  0  0  0  0  0  0  0
   58.8354   27.6976   47.8726 H   0  0  0  0  0  0  0  0  0  0  0  0
   59.2173   26.8557   46.3403 H   0  0  0  0  0  0  0  0  0  0  0  0
   60.4062   28.1073   49.0212 H   0  0  0  0  0  0  0  0  0  0  0  0
   61.4530   29.5330   50.6810 H   0  0  0  0  0  0  0  0  0  0  0  0
   62.1447   31.8142   50.2307 H   0  0  0  0  0  0  0  0  0  0  0  0
   63.8405   33.5565   48.1859 H   0  0  0  0  0  0  0  0  0  0  0  0
   63.5356   32.5645   46.7197 H   0  0  0  0  0  0  0  0  0  0  0  0
   63.1321   34.3149   46.7197 H   0  0  0  0  0  0  0  0  0  0  0  0
   60.4935   34.1787   49.0497 H   0  0  0  0  0  0  0  0  0  0  0  0
   61.3865   35.1500   47.8214 H   0  0  0  0  0  0  0  0  0  0  0  0
   58.3191   33.3682   48.5830 H   0  0  0  0  0  0  0  0  0  0  0  0
   56.4278   33.1323   46.9660 H   0  0  0  0  0  0  0  0  0  0  0  0
   58.9140   34.4386   43.7587 H   0  0  0  0  0  0  0  0  0  0  0  0
   60.8430   34.7240   45.3236 H   0  0  0  0  0  0  0  0  0  0  0  0
   59.9216   30.3631   44.9950 H   0  0  0  0  0  0  0  0  0  0  0  0
   61.0054   28.9365   44.6983 H   0  0  0  0  0  0  0  0  0  0  0  0
   58.8675   29.2186   43.2294 H   0  0  0  0  0  0  0  0  0  0  0  0
   59.2683   27.5907   43.9598 H   0  0  0  0  0  0  0  0  0  0  0  0
  1  2  1  0
  2  3  1  0
  3  4  1  0
  4  5  2  0
  4  6  2  0
  4  7  1  0
  7  8  1  0
  8  9  1  0
  9 10  1  0
 10 11  1  0
 11 12  2  0
 12 13  1  0
 13 14  2  0
 14 15  1  0
 15 16  1  0
 16 17  1  0
 16 18  1  0
 18 19  1  0
 19 20  2  0
 20 21  1  0
 21 22  2  0
 22 23  1  0
 23 24  2  0
 15 25  2  0
 10 26  1  0
 26 27  1  0
 27  7  1  0
 25 11  1  0
 24 19  1  0
  1 28  1  0
  1 29  1  0
  1 30  1  0
  2 31  1  0
  2 32  1  0
  3 33  1  0
  3 34  1  0
  8 35  1  0
  8 36  1  0
  9 37  1  0
  9 38  1  0
 12 39  1  0
 13 40  1  0
 14 41  1  0
 17 42  1  0
 17 43  1  0
 17 44  1  0
 18 45  1  0
 18 46  1  0
 20 47  1  0
 21 48  1  0
 23 49  1  0
 24 50  1  0
 26 51  1  0
 26 52  1  0
 27 53  1  0
 27 54  1  0
M  CHG  1  13   1
M  END
>  <UniqueID>  (96) 
82

>  <SMILES>  (96) 
CCCS(=O)(=O)N1CCN(c2c[nH+]cc(N(C)Cc3ccncc3)n2)CC1

>  <Energy>  (96) 
58.60023255798802

>  <Genealogy>  (96) 
CCCS(=O)(=O)N1CCN(c2c[nH+]cc(N(C)Cc3ccncc3)n2)CC1 (protonated)
CCCS(=O)(=O)N1CCN(c2c[nH+]cc(N(C)Cc3ccncc3)n2)CC1 (3D coordinates assigned)
CCCS(=O)(=O)N1CCN(c2c[nH+]cc(N(C)Cc3ccncc3)n2)CC1 (nonaromatic ring conformer: 58.60023255798802 kcal/mol)

>  <smiles>  (96) 
CCCS(=O)(=O)N1CCN(c2cncc(N(C)Cc3ccncc3)n2)CC1

>  <score_type>  (96) 
oracle

>  <origin>  (96) 
adg

>  <m_score__min__energy>  (96) 
-7.6399999999999997

>  <m_primary>  (96) 
energy

$$$$
96:0
     RDKit          3D

 29 30  0  0  0  0  0  0  0  0999 V2000
   60.7190   26.8610   48.2670 C   0  0  0  0  0  0  0  0  0  0  0  0
   60.5810   26.8380   46.8490 O   0  0  0  0  0  0  0  0  0  0  0  0
   59.6460   27.5980   46.1330 C   0  0  0  0  0  0  0  0  0  0  0  0
   60.1200   28.5660   45.2400 C   0  0  0  0  0  0  0  0  0  0  0  0
   59.2290   29.3490   44.5000 C   0  0  0  0  0  0  0  0  0  0  0  0
   57.8470   29.1700   44.6460 C   0  0  0  0  0  0  0  0  0  0  0  0
   56.7160   30.1450   43.7130 S   0  0  0  0  0  0  0  0  0  0  0  0
   56.4090   29.4380   42.4240 O   0  0  0  0  0  0  0  0  0  0  0  0
   55.4370   30.3480   44.4780 O   0  0  0  0  0  0  0  0  0  0  0  0
   57.4150   31.6940   43.3630 N   0  0  0  0  0  0  0  0  0  0  0  0
   57.7670   32.5500   44.2730 C   0  0  0  0  0  0  0  0  0  0  0  0
   58.8080   33.4040   44.0610 N   0  0  0  0  0  0  0  0  0  0  0  0
   59.1800   34.3060   45.0050 C   0  0  0  0  0  0  0  0  0  0  0  0
   58.4920   34.3690   46.2140 C   0  0  0  0  0  0  0  0  0  0  0  0
   57.4300   33.4910   46.4200 C   0  0  0  0  0  0  0  0  0  0  0  0
   57.0850   32.5990   45.4520 N   0  0  0  0  0  0  0  0  0  0  0  0
   57.3650   28.2080   45.5420 C   0  0  0  0  0  0  0  0  0  0  0  0
   58.2560   27.4230   46.2810 C   0  0  0  0  0  0  0  0  0  0  0  0
   59.7365   26.6972   48.7337 H   0  0  0  0  0  0  0  0  0  0  0  0
   61.4112   26.0658   48.5810 H   0  0  0  0  0  0  0  0  0  0  0  0
   61.1159   27.8377   48.5810 H   0  0  0  0  0  0  0  0  0  0  0  0
   61.2036   28.7120   45.1193 H   0  0  0  0  0  0  0  0  0  0  0  0
   59.6136   30.1070   43.8018 H   0  0  0  0  0  0  0  0  0  0  0  0
   60.0235   34.9860   44.8151 H   0  0  0  0  0  0  0  0  0  0  0  0
   58.7803   35.0951   46.9884 H   0  0  0  0  0  0  0  0  0  0  0  0
   56.8698   33.5189   47.3662 H   0  0  0  0  0  0  0  0  0  0  0  0
   56.2850   31.9490   45.6230 H   0  0  0  0  0  0  0  0  0  0  0  0
   56.2808   28.0690   45.6652 H   0  0  0  0  0  0  0  0  0  0  0  0
   57.8701   26.6665   46.9801 H   0  0  0  0  0  0  0  0  0  0  0  0
  1  2  1  0
  2  3  1  0
  3  4  2  0
  4  5  1  0
  5  6  2  0
  6  7  1  0
  7  8  2  0
  7  9  2  0
  7 10  1  0
 10 11  2  3
 11 12  1  0
 12 13  2  0
 13 14  1  0
 14 15  2  0
 15 16  1  0
  6 17  1  0
 17 18  2  0
 18  3  1  0
 16 11  1  0
  1 19  1  0
  1 20  1  0
  1 21  1  0
  4 22  1  0
  5 23  1  0
 13 24  1  0
 14 25  1  0
 15 26  1  0
 16 27  1  0
 17 28  1  0
 18 29  1  0
M  END
>  <UniqueID>  (97) 
83

>  <SMILES>  (97) 
COc1ccc(S(=O)(=O)N=c2nccc[nH]2)cc1

>  <Energy>  (97) 
32.4243508475645

>  <Genealogy>  (97) 
COc1ccc(S(=O)(=O)N=c2nccc[nH]2)cc1 (3D coordinates assigned)
COc1ccc(S(=O)(=O)N=c2nccc[nH]2)cc1 (optimized conformer: 32.4243508475645 kcal/mol)

>  <smiles>  (97) 
COc1ccc(S(=O)(=O)N=c2nccc[nH]2)cc1

>  <score_type>  (97) 
oracle

>  <origin>  (97) 
adg

>  <m_score__min__energy>  (97) 
-6.2000000000000002

>  <m_primary>  (97) 
energy

$$$$
97:0
     RDKit          3D

 47 50  0  0  0  0  0  0  0  0999 V2000
   56.3020   30.3037   41.3110 H   0  0  0  0  0  0  0  0  0  0  0  0
   56.6580   30.4600   42.3400 C   0  0  0  0  0  0  0  0  0  0  0  0
   56.4370   29.4800   43.3090 C   0  0  0  0  0  0  0  0  0  0  0  0
   55.8944   28.5604   43.0447 H   0  0  0  0  0  0  0  0  0  0  0  0
   56.9050   29.6640   44.6200 C   0  0  0  0  0  0  0  0  0  0  0  0
   56.6580   28.6960   45.6520 N   0  0  0  0  0  0  0  0  0  0  0  0
   56.5440   27.4090   45.4910 C   0  0  0  0  0  0  0  0  0  0  0  0
   55.5110   26.7120   46.0040 N   0  0  0  0  0  0  0  0  0  0  0  0
   55.5960   25.4010   45.7740 N   0  0  0  0  0  0  0  0  0  0  0  0
   56.7050   25.0390   45.0860 C   0  0  0  0  0  0  0  0  0  0  0  0
   57.0190   23.6390   44.7200 C   0  0  0  0  0  0  0  0  0  0  0  0
   57.7650   22.8300   45.5910 C   0  0  0  0  0  0  0  0  0  0  0  0
   58.1187   23.2329   46.5515 H   0  0  0  0  0  0  0  0  0  0  0  0
   58.0570   21.5110   45.2340 C   0  0  0  0  0  0  0  0  0  0  0  0
   58.6414   20.8751   45.9153 H   0  0  0  0  0  0  0  0  0  0  0  0
   57.6210   21.0110   44.0470 N   0  0  0  0  0  0  0  0  0  0  0  0
   57.8480   20.0230   43.7940 H   0  0  0  0  0  0  0  0  0  0  0  0
   56.8970   21.7700   43.1820 C   0  0  0  0  0  0  0  0  0  0  0  0
   56.5571   21.3402   42.2282 H   0  0  0  0  0  0  0  0  0  0  0  0
   56.5830   23.0940   43.5000 C   0  0  0  0  0  0  0  0  0  0  0  0
   55.9974   23.7068   42.7989 H   0  0  0  0  0  0  0  0  0  0  0  0
   57.6540   26.3910   44.7280 S   0  0  0  0  0  0  0  0  0  0  0  0
   57.5480   30.8630   44.9570 C   0  0  0  0  0  0  0  0  0  0  0  0
   57.8777   31.0297   45.9931 H   0  0  0  0  0  0  0  0  0  0  0  0
   57.7760   31.8510   43.9920 C   0  0  0  0  0  0  0  0  0  0  0  0
   58.4450   33.0200   44.3820 O   0  0  0  0  0  0  0  0  0  0  0  0
   57.8260   34.1260   45.0340 C   0  0  0  0  0  0  0  0  0  0  0  0
   58.4342   35.0288   44.8758 H   0  0  0  0  0  0  0  0  0  0  0  0
   56.8201   34.2749   44.6146 H   0  0  0  0  0  0  0  0  0  0  0  0
   57.7070   33.8490   46.5480 C   0  0  0  0  0  0  0  0  0  0  0  0
   57.1141   34.6588   46.9982 H   0  0  0  0  0  0  0  0  0  0  0  0
   57.2360   32.8597   46.6452 H   0  0  0  0  0  0  0  0  0  0  0  0
   58.9980   33.7680   47.2690 N   0  0  0  0  0  0  0  0  0  0  0  0
   59.5740   32.4180   47.3510 C   0  0  0  0  0  0  0  0  0  0  0  0
   59.3427   31.9678   48.3276 H   0  0  0  0  0  0  0  0  0  0  0  0
   59.1560   31.7659   46.5699 H   0  0  0  0  0  0  0  0  0  0  0  0
   61.0770   32.5630   47.1870 C   0  0  0  0  0  0  0  0  0  0  0  0
   61.5695   32.6416   48.1675 H   0  0  0  0  0  0  0  0  0  0  0  0
   61.5287   31.6959   46.6829 H   0  0  0  0  0  0  0  0  0  0  0  0
   61.2490   33.8400   46.3990 C   0  0  0  0  0  0  0  0  0  0  0  0
   62.1763   34.3546   46.6912 H   0  0  0  0  0  0  0  0  0  0  0  0
   61.3235   33.6554   45.3172 H   0  0  0  0  0  0  0  0  0  0  0  0
   60.0330   34.6800   46.7580 C   0  0  0  0  0  0  0  0  0  0  0  0
   60.3000   35.4154   47.5313 H   0  0  0  0  0  0  0  0  0  0  0  0
   59.6661   35.2256   45.8761 H   0  0  0  0  0  0  0  0  0  0  0  0
   57.3300   31.6390   42.6730 C   0  0  0  0  0  0  0  0  0  0  0  0
   57.5111   32.4035   41.9031 H   0  0  0  0  0  0  0  0  0  0  0  0
  1  2  1  0
  2  3  2  0
  3  4  1  0
  3  5  1  0
  5  6  1  0
  6  7  2  0
  7  8  1  0
  8  9  1  0
  9 10  2  0
 10 11  1  0
 11 12  2  0
 12 13  1  0
 12 14  1  0
 14 15  1  0
 14 16  2  0
 16 17  1  0
 16 18  1  0
 18 19  1  0
 18 20  2  0
 20 21  1  0
 10 22  1  0
  5 23  2  0
 23 24  1  0
 23 25  1  0
 25 26  1  0
 26 27  1  0
 27 28  1  0
 27 29  1  0
 27 30  1  0
 30 31  1  0
 30 32  1  0
 30 33  1  0
 33 34  1  0
 34 35  1  0
 34 36  1  0
 34 37  1  0
 37 38  1  0
 37 39  1  0
 37 40  1  0
 40 41  1  0
 40 42  1  0
 40 43  1  0
 43 44  1  0
 43 45  1  0
 25 46  2  0
 46 47  1  0
 46  2  1  0
 22  7  1  0
 43 33  1  0
 20 11  1  0
M  CHG  2   8  -1  16   1
M  END
>  <UniqueID>  (98) 
84

>  <SMILES>  (98) 
c1cc(/N=c2/[n-]nc(-c3cc[nH+]cc3)s2)cc(OCCN2CCCC2)c1

>  <Energy>  (98) 
98.21834812633355

>  <Genealogy>  (98) 
c1cc(N=c2[n-]nc(-c3cc[nH+]cc3)s2)cc(OCCN2CCCC2)c1 (protonated)
c1cc(/N=c2/[n-]nc(-c3cc[nH+]cc3)s2)cc(OCCN2CCCC2)c1 (cis-trans isomerization)
c1cc(/N=c2/[n-]nc(-c3cc[nH+]cc3)s2)cc(OCCN2CCCC2)c1 (3D coordinates assigned)
c1cc(/N=c2/[n-]nc(-c3cc[nH+]cc3)s2)cc(OCCN2CCCC2)c1 (nonaromatic ring conformer: 98.21834812633355 kcal/mol)

>  <smiles>  (98) 
c1cc(N=c2[nH]nc(-c3ccncc3)s2)cc(OCCN2CCCC2)c1

>  <score_type>  (98) 
oracle

>  <origin>  (98) 
adg

>  <m_score__min__energy>  (98) 
-10.029999999999999

>  <m_primary>  (98) 
energy

$$$$
