0:0
     RDKit          3D

 52 55  0  0  0  0  0  0  0  0999 V2000
   60.9800   33.1410   46.9130 O   0  0  0  0  0  0  0  0  0  0  0  0
   59.7870   32.8000   46.6840 C   0  0  0  0  0  0  0  0  0  0  0  0
   58.7360   33.8200   46.4780 C   0  0  0  0  0  0  0  0  0  0  0  0
   57.6200   33.6580   45.7490 C   0  0  0  0  0  0  0  0  0  0  0  0
   57.3660   32.5520   44.8070 C   0  0  0  0  0  0  0  0  0  0  0  0
   57.7360   32.6380   43.4570 C   0  0  0  0  0  0  0  0  0  0  0  0
   57.4110   31.5790   42.6070 C   0  0  0  0  0  0  0  0  0  0  0  0
   57.7360   31.6200   41.3920 O   0  0  0  0  0  0  0  0  0  0  0  0
   56.7310   30.5080   43.0900 N   0  0  0  0  0  0  0  0  0  0  0  0
   56.3570   30.4490   44.3950 C   0  0  0  0  0  0  0  0  0  0  0  0
   55.7210   29.4510   44.8220 O   0  0  0  0  0  0  0  0  0  0  0  0
   56.6640   31.4700   45.2380 N   0  0  0  0  0  0  0  0  0  0  0  0
   59.4520   31.4100   46.5600 N   0  0  0  0  0  0  0  0  0  0  0  0
   60.4490   30.3490   46.6800 C   0  0  0  0  0  0  0  0  0  0  0  0
   59.8630   29.0310   46.2490 C   0  0  0  0  0  0  0  0  0  0  0  0
   59.5050   28.0750   47.2100 C   0  0  0  0  0  0  0  0  0  0  0  0
   58.9330   26.8610   46.8200 C   0  0  0  0  0  0  0  0  0  0  0  0
   58.7060   26.5860   45.4600 C   0  0  0  0  0  0  0  0  0  0  0  0
   58.0770   25.3180   45.0440 C   0  0  0  0  0  0  0  0  0  0  0  0
   56.8070   25.2240   44.5960 N   0  0  0  0  0  0  0  0  0  0  0  0
   56.6710   23.9160   44.3110 C   0  0  0  0  0  0  0  0  0  0  0  0
   55.4470   23.2860   43.7750 C   0  0  0  0  0  0  0  0  0  0  0  0
   55.5060   22.7080   42.6570 O   0  0  0  0  0  0  0  0  0  0  0  0
   54.1880   23.3110   44.4630 N   0  0  0  0  0  0  0  0  0  0  0  0
   53.9560   23.6610   45.8640 C   0  0  0  0  0  0  0  0  0  0  0  0
   55.0480   23.1190   46.7540 C   0  0  0  0  0  0  0  0  0  0  0  0
   55.2610   21.7360   46.8610 C   0  0  0  0  0  0  0  0  0  0  0  0
   56.2870   21.2580   47.6810 C   0  0  0  0  0  0  0  0  0  0  0  0
   57.0830   22.1300   48.3570 N   0  0  0  0  0  0  0  0  0  0  0  0
   56.9120   23.4740   48.2570 C   0  0  0  0  0  0  0  0  0  0  0  0
   55.9000   23.9940   47.4460 C   0  0  0  0  0  0  0  0  0  0  0  0
   57.8470   23.2630   44.6100 C   0  0  0  0  0  0  0  0  0  0  0  0
   58.6940   24.1560   45.0550 O   0  0  0  0  0  0  0  0  0  0  0  0
   59.0720   27.5430   44.4980 C   0  0  0  0  0  0  0  0  0  0  0  0
   59.6430   28.7570   44.8900 C   0  0  0  0  0  0  0  0  0  0  0  0
   58.8811   34.7960   46.9642 H   0  0  0  0  0  0  0  0  0  0  0  0
   56.8289   34.4136   45.8641 H   0  0  0  0  0  0  0  0  0  0  0  0
   58.2707   33.5206   43.0760 H   0  0  0  0  0  0  0  0  0  0  0  0
   58.4560   31.1400   46.3900 H   0  0  0  0  0  0  0  0  0  0  0  0
   61.3124   30.5884   46.0419 H   0  0  0  0  0  0  0  0  0  0  0  0
   60.7666   30.2733   47.7304 H   0  0  0  0  0  0  0  0  0  0  0  0
   59.6753   28.2816   48.2769 H   0  0  0  0  0  0  0  0  0  0  0  0
   58.6587   26.1162   47.5816 H   0  0  0  0  0  0  0  0  0  0  0  0
   53.9270   24.7565   45.9594 H   0  0  0  0  0  0  0  0  0  0  0  0
   53.0000   23.2169   46.1785 H   0  0  0  0  0  0  0  0  0  0  0  0
   54.6248   21.0330   46.3033 H   0  0  0  0  0  0  0  0  0  0  0  0
   56.4512   20.1748   47.7800 H   0  0  0  0  0  0  0  0  0  0  0  0
   57.5716   24.1543   48.8157 H   0  0  0  0  0  0  0  0  0  0  0  0
   55.7717   25.0823   47.3504 H   0  0  0  0  0  0  0  0  0  0  0  0
   58.0391   22.1860   44.4954 H   0  0  0  0  0  0  0  0  0  0  0  0
   58.9081   27.3354   43.4303 H   0  0  0  0  0  0  0  0  0  0  0  0
   59.9214   29.5015   44.1296 H   0  0  0  0  0  0  0  0  0  0  0  0
  1  2  2  0
  2  3  1  0
  3  4  2  3
  4  5  1  0
  5  6  2  0
  6  7  1  0
  7  8  2  0
  7  9  1  0
  9 10  1  0
 10 11  2  0
 10 12  1  0
  2 13  1  0
 13 14  1  0
 14 15  1  0
 15 16  2  0
 16 17  1  0
 17 18  2  0
 18 19  1  0
 19 20  2  0
 20 21  1  0
 21 22  1  0
 22 23  2  0
 22 24  1  0
 24 25  1  0
 25 26  1  0
 26 27  2  0
 27 28  1  0
 28 29  2  0
 29 30  1  0
 30 31  2  0
 21 32  2  0
 32 33  1  0
 18 34  1  0
 34 35  2  0
 12  5  1  0
 35 15  1  0
 33 19  1  0
 31 26  1  0
  3 36  1  0
  4 37  1  0
  6 38  1  0
 13 39  1  0
 14 40  1  0
 14 41  1  0
 16 42  1  0
 17 43  1  0
 25 44  1  0
 25 45  1  0
 27 46  1  0
 28 47  1  0
 30 48  1  0
 31 49  1  0
 32 50  1  0
 34 51  1  0
 35 52  1  0
M  CHG  3   9  -1  12  -1  24  -1
M  END
>  <UniqueID>  (1) 
1

>  <SMILES>  (1) 
O=C(C=Cc1cc(=O)[n-]c(=O)[n-]1)NCc1ccc(-c2nc(C(=O)[N-]Cc3ccncc3)co2)cc1

>  <Energy>  (1) 
91.61882786116644

>  <Genealogy>  (1) 
O=C(C=Cc1cc(=O)[n-]c(=O)[n-]1)NCc1ccc(-c2nc(C(=O)[N-]Cc3ccncc3)co2)cc1 (protonated)
O=C(C=Cc1cc(=O)[n-]c(=O)[n-]1)NCc1ccc(-c2nc(C(=O)[N-]Cc3ccncc3)co2)cc1 (3D coordinates assigned)
O=C(C=Cc1cc(=O)[n-]c(=O)[n-]1)NCc1ccc(-c2nc(C(=O)[N-]Cc3ccncc3)co2)cc1 (optimized conformer: 91.61882786116644 kcal/mol)

>  <smiles>  (1) 
O=C(C=Cc1cc(=O)[nH]c(=O)[nH]1)NCc1ccc(-c2nc(C(=O)NCc3ccncc3)co2)cc1

>  <score_type>  (1) 
oracle

>  <origin>  (1) 
adg

>  <m_score__min__energy>  (1) 
-14.42

>  <m_primary>  (1) 
energy

$$$$
1:0
     RDKit          3D

 45 46  0  0  0  0  0  0  0  0999 V2000
   56.2340   29.6470   42.7830 C   0  0  0  0  0  0  0  0  0  0  0  0
   55.9920   29.9970   44.2120 C   0  0  0  0  0  0  0  0  0  0  0  0
   55.1440   29.3420   44.8760 O   0  0  0  0  0  0  0  0  0  0  0  0
   56.6520   31.1320   44.7830 N   0  0  0  0  0  0  0  0  0  0  0  0
   57.8130   31.1030   45.6300 C   0  0  0  0  0  0  0  0  0  0  0  0
   58.7210   30.0310   45.5770 C   0  0  0  0  0  0  0  0  0  0  0  0
   59.8370   30.0090   46.4110 C   0  0  0  0  0  0  0  0  0  0  0  0
   60.0630   31.0510   47.3080 C   0  0  0  0  0  0  0  0  0  0  0  0
   59.1840   32.1390   47.3650 C   0  0  0  0  0  0  0  0  0  0  0  0
   59.4150   33.1650   48.3390 N   0  0  0  0  0  0  0  0  0  0  0  0
   59.5820   34.5570   47.9080 C   0  0  0  0  0  0  0  0  0  0  0  0
   60.2520   34.6020   46.5730 C   0  0  0  0  0  0  0  0  0  0  0  0
   59.6210   35.0380   45.5730 O   0  0  0  0  0  0  0  0  0  0  0  0
   61.6440   34.2700   46.4820 N   0  0  0  0  0  0  0  0  0  0  0  0
   62.4190   33.5250   47.4310 C   0  0  0  0  0  0  0  0  0  0  0  0
   63.0140   32.2920   47.1070 C   0  0  0  0  0  0  0  0  0  0  0  0
   63.7520   31.5950   48.0690 C   0  0  0  0  0  0  0  0  0  0  0  0
   63.8920   32.1140   49.3580 C   0  0  0  0  0  0  0  0  0  0  0  0
   63.2850   33.3270   49.6930 C   0  0  0  0  0  0  0  0  0  0  0  0
   62.5450   34.0280   48.7350 C   0  0  0  0  0  0  0  0  0  0  0  0
   61.9620   35.2050   49.0720 F   0  0  0  0  0  0  0  0  0  0  0  0
   59.2040   32.7980   50.0210 S   0  0  0  0  0  0  0  0  0  0  0  0
   60.4430   31.6300   50.5310 C   0  0  0  0  0  0  0  0  0  0  0  0
   57.8350   32.2180   50.2420 O   0  0  0  0  0  0  0  0  0  0  0  0
   59.3370   34.0540   50.8370 O   0  0  0  0  0  0  0  0  0  0  0  0
   58.0650   32.1880   46.4990 C   0  0  0  0  0  0  0  0  0  0  0  0
   57.0850   33.3360   46.5510 C   0  0  0  0  0  0  0  0  0  0  0  0
   56.8588   28.7434   42.7276 H   0  0  0  0  0  0  0  0  0  0  0  0
   55.2721   29.4589   42.2836 H   0  0  0  0  0  0  0  0  0  0  0  0
   56.7496   30.4805   42.2836 H   0  0  0  0  0  0  0  0  0  0  0  0
   58.5493   29.2040   44.8723 H   0  0  0  0  0  0  0  0  0  0  0  0
   60.5420   29.1661   46.3611 H   0  0  0  0  0  0  0  0  0  0  0  0
   60.9370   31.0185   47.9751 H   0  0  0  0  0  0  0  0  0  0  0  0
   58.5949   35.0371   47.8365 H   0  0  0  0  0  0  0  0  0  0  0  0
   60.2039   35.0901   48.6422 H   0  0  0  0  0  0  0  0  0  0  0  0
   62.8986   31.8755   46.0955 H   0  0  0  0  0  0  0  0  0  0  0  0
   64.2234   30.6355   47.8097 H   0  0  0  0  0  0  0  0  0  0  0  0
   64.4804   31.5676   50.1098 H   0  0  0  0  0  0  0  0  0  0  0  0
   63.3891   33.7311   50.7108 H   0  0  0  0  0  0  0  0  0  0  0  0
   60.4821   31.5932   51.6297 H   0  0  0  0  0  0  0  0  0  0  0  0
   60.1908   30.6335   50.1395 H   0  0  0  0  0  0  0  0  0  0  0  0
   61.4229   31.9405   50.1395 H   0  0  0  0  0  0  0  0  0  0  0  0
   56.8703   33.5875   47.6001 H   0  0  0  0  0  0  0  0  0  0  0  0
   57.5186   34.2114   46.0454 H   0  0  0  0  0  0  0  0  0  0  0  0
   56.1524   33.0452   46.0454 H   0  0  0  0  0  0  0  0  0  0  0  0
  1  2  1  0
  2  3  2  0
  2  4  1  0
  4  5  1  0
  5  6  2  0
  6  7  1  0
  7  8  2  0
  8  9  1  0
  9 10  1  0
 10 11  1  0
 11 12  1  0
 12 13  2  0
 12 14  1  0
 14 15  1  0
 15 16  2  0
 16 17  1  0
 17 18  2  0
 18 19  1  0
 19 20  2  0
 20 21  1  0
 10 22  1  0
 22 23  1  0
 22 24  2  0
 22 25  2  0
  9 26  2  0
 26 27  1  0
 26  5  1  0
 20 15  1  0
  1 28  1  0
  1 29  1  0
  1 30  1  0
  6 31  1  0
  7 32  1  0
  8 33  1  0
 11 34  1  0
 11 35  1  0
 16 36  1  0
 17 37  1  0
 18 38  1  0
 19 39  1  0
 23 40  1  0
 23 41  1  0
 23 42  1  0
 27 43  1  0
 27 44  1  0
 27 45  1  0
M  CHG  2   4  -1  14  -1
M  END
>  <UniqueID>  (2) 
2

>  <SMILES>  (2) 
CC(=O)[N-]c1cccc(N(CC(=O)[N-]c2ccccc2F)S(C)(=O)=O)c1C

>  <Energy>  (2) 
49.649316640287964

>  <Genealogy>  (2) 
CC(=O)[N-]c1cccc(N(CC(=O)[N-]c2ccccc2F)S(C)(=O)=O)c1C (protonated)
CC(=O)[N-]c1cccc(N(CC(=O)[N-]c2ccccc2F)S(C)(=O)=O)c1C (3D coordinates assigned)
CC(=O)[N-]c1cccc(N(CC(=O)[N-]c2ccccc2F)S(C)(=O)=O)c1C (optimized conformer: 49.649316640287964 kcal/mol)

>  <smiles>  (2) 
CC(=O)Nc1cccc(N(CC(=O)Nc2ccccc2F)S(C)(=O)=O)c1C

>  <score_type>  (2) 
oracle

>  <origin>  (2) 
adg

>  <m_score__min__energy>  (2) 
-10.81

>  <m_primary>  (2) 
energy

$$$$
2:0
     RDKit          3D

 35 36  0  0  0  0  0  0  0  0999 V2000
   58.1280   32.3700   41.2110 C   0  0  0  0  0  0  0  0  0  0  0  0
   57.7540   32.1110   42.6350 C   0  0  0  0  0  0  0  0  0  0  0  0
   58.1730   32.9800   43.6480 C   0  0  0  0  0  0  0  0  0  0  0  0
   57.8040   32.6980   44.9670 C   0  0  0  0  0  0  0  0  0  0  0  0
   58.2240   33.6030   46.0810 C   0  0  0  0  0  0  0  0  0  0  0  0
   57.0500   31.5980   45.2340 N   0  0  0  0  0  0  0  0  0  0  0  0
   56.6510   30.7650   44.2390 C   0  0  0  0  0  0  0  0  0  0  0  0
   55.6590   29.3270   44.6230 S   0  0  0  0  0  0  0  0  0  0  0  0
   57.1050   28.2920   45.0190 C   0  0  0  0  0  0  0  0  0  0  0  0
   56.7040   27.2040   45.9680 C   0  0  0  0  0  0  0  0  0  0  0  0
   55.5020   26.8300   45.9830 O   0  0  0  0  0  0  0  0  0  0  0  0
   57.6330   26.5560   46.8520 N   0  0  0  0  0  0  0  0  0  0  0  0
   59.0310   26.8290   47.0270 C   0  0  0  0  0  0  0  0  0  0  0  0
   59.8690   25.8870   47.0610 O   0  0  0  0  0  0  0  0  0  0  0  0
   59.4960   28.2280   47.1900 C   0  0  0  0  0  0  0  0  0  0  0  0
   59.1410   28.9720   48.3310 C   0  0  0  0  0  0  0  0  0  0  0  0
   59.5810   30.2910   48.4830 C   0  0  0  0  0  0  0  0  0  0  0  0
   60.3780   30.8820   47.4990 C   0  0  0  0  0  0  0  0  0  0  0  0
   60.9280   32.5370   47.6900 Cl  0  0  0  0  0  0  0  0  0  0  0  0
   60.7370   30.1530   46.3620 C   0  0  0  0  0  0  0  0  0  0  0  0
   60.2990   28.8350   46.2060 C   0  0  0  0  0  0  0  0  0  0  0  0
   57.0040   31.0210   42.9520 N   0  0  0  0  0  0  0  0  0  0  0  0
   59.0319   32.9960   41.1773 H   0  0  0  0  0  0  0  0  0  0  0  0
   58.3250   31.4139   40.7039 H   0  0  0  0  0  0  0  0  0  0  0  0
   57.3023   32.8907   40.7039 H   0  0  0  0  0  0  0  0  0  0  0  0
   58.7800   33.8665   43.4120 H   0  0  0  0  0  0  0  0  0  0  0  0
   58.0018   33.1241   47.0460 H   0  0  0  0  0  0  0  0  0  0  0  0
   59.3043   33.7972   46.0082 H   0  0  0  0  0  0  0  0  0  0  0  0
   57.6749   34.5534   46.0082 H   0  0  0  0  0  0  0  0  0  0  0  0
   57.4980   27.8440   44.0944 H   0  0  0  0  0  0  0  0  0  0  0  0
   57.8812   28.9152   45.4871 H   0  0  0  0  0  0  0  0  0  0  0  0
   58.5130   28.5128   49.1087 H   0  0  0  0  0  0  0  0  0  0  0  0
   59.2992   30.8641   49.3786 H   0  0  0  0  0  0  0  0  0  0  0  0
   61.3657   30.6176   45.5881 H   0  0  0  0  0  0  0  0  0  0  0  0
   60.5839   28.2678   45.3076 H   0  0  0  0  0  0  0  0  0  0  0  0
  1  2  1  0
  2  3  2  0
  3  4  1  0
  4  5  1  0
  4  6  2  0
  6  7  1  0
  7  8  1  0
  8  9  1  0
  9 10  1  0
 10 11  2  0
 10 12  1  0
 12 13  1  0
 13 14  2  0
 13 15  1  0
 15 16  2  0
 16 17  1  0
 17 18  2  0
 18 19  1  0
 18 20  1  0
 20 21  2  0
  7 22  2  0
 22  2  1  0
 21 15  1  0
  1 23  1  0
  1 24  1  0
  1 25  1  0
  3 26  1  0
  5 27  1  0
  5 28  1  0
  5 29  1  0
  9 30  1  0
  9 31  1  0
 16 32  1  0
 17 33  1  0
 20 34  1  0
 21 35  1  0
M  CHG  1  12  -1
M  END
>  <UniqueID>  (3) 
3

>  <SMILES>  (3) 
Cc1cc(C)nc(SCC(=O)[N-]C(=O)c2ccc(Cl)cc2)n1

>  <Energy>  (3) 
31.337735146885628

>  <Genealogy>  (3) 
Cc1cc(C)nc(SCC(=O)[N-]C(=O)c2ccc(Cl)cc2)n1 (protonated)
Cc1cc(C)nc(SCC(=O)[N-]C(=O)c2ccc(Cl)cc2)n1 (3D coordinates assigned)
Cc1cc(C)nc(SCC(=O)[N-]C(=O)c2ccc(Cl)cc2)n1 (optimized conformer: 31.337735146885628 kcal/mol)

>  <smiles>  (3) 
Cc1cc(C)nc(SCC(=O)NC(=O)c2ccc(Cl)cc2)n1

>  <score_type>  (3) 
oracle

>  <origin>  (3) 
adg

>  <m_score__min__energy>  (3) 
-9.2799999999999994

>  <m_primary>  (3) 
energy

$$$$
3:0
     RDKit          3D

 45 47  0  0  0  0  0  0  0  0999 V2000
   56.0260   24.1440   44.4700 C   0  0  0  0  0  0  0  0  0  0  0  0
   55.0990   24.8480   45.8180 S   0  0  0  0  0  0  0  0  0  0  0  0
   55.5230   24.1780   47.0950 O   0  0  0  0  0  0  0  0  0  0  0  0
   53.6280   24.6200   45.6180 O   0  0  0  0  0  0  0  0  0  0  0  0
   55.4270   26.5470   45.9450 N   0  0  0  0  0  0  0  0  0  0  0  0
   56.7030   27.1350   46.2330 C   0  0  0  0  0  0  0  0  0  0  0  0
   57.0310   28.3510   45.6190 C   0  0  0  0  0  0  0  0  0  0  0  0
   58.2630   28.9620   45.8660 C   0  0  0  0  0  0  0  0  0  0  0  0
   59.1870   28.3660   46.7370 C   0  0  0  0  0  0  0  0  0  0  0  0
   60.5270   29.0100   46.9720 C   0  0  0  0  0  0  0  0  0  0  0  0
   60.3720   30.2190   47.8480 C   0  0  0  0  0  0  0  0  0  0  0  0
   59.4780   30.3110   48.8510 N   0  0  0  0  0  0  0  0  0  0  0  0
   59.5420   31.5350   49.3560 N   0  0  0  0  0  0  0  0  0  0  0  0
   60.4840   32.1860   48.6430 C   0  0  0  0  0  0  0  0  0  0  0  0
   60.9540   33.8930   48.9400 S   0  0  0  0  0  0  0  0  0  0  0  0
   59.3350   34.5820   48.4490 C   0  0  0  0  0  0  0  0  0  0  0  0
   58.9460   34.1140   47.0750 C   0  0  0  0  0  0  0  0  0  0  0  0
   59.6140   34.6010   45.9390 C   0  0  0  0  0  0  0  0  0  0  0  0
   59.2260   34.1860   44.6610 C   0  0  0  0  0  0  0  0  0  0  0  0
   58.1710   33.2810   44.5080 C   0  0  0  0  0  0  0  0  0  0  0  0
   57.7960   32.8810   43.2670 F   0  0  0  0  0  0  0  0  0  0  0  0
   57.5010   32.7920   45.6330 C   0  0  0  0  0  0  0  0  0  0  0  0
   57.8830   33.2090   46.9120 C   0  0  0  0  0  0  0  0  0  0  0  0
   61.0120   31.3940   47.6910 N   0  0  0  0  0  0  0  0  0  0  0  0
   62.0020   31.7280   46.7540 N   0  0  0  0  0  0  0  0  0  0  0  0
   58.8650   27.1440   47.3480 C   0  0  0  0  0  0  0  0  0  0  0  0
   57.6320   26.5330   47.1000 C   0  0  0  0  0  0  0  0  0  0  0  0
   56.8420   23.5243   44.8703 H   0  0  0  0  0  0  0  0  0  0  0  0
   55.3611   23.5212   43.8536 H   0  0  0  0  0  0  0  0  0  0  0  0
   56.4475   24.9517   43.8536 H   0  0  0  0  0  0  0  0  0  0  0  0
   56.3124   28.8287   44.9367 H   0  0  0  0  0  0  0  0  0  0  0  0
   58.5095   29.9150   45.3751 H   0  0  0  0  0  0  0  0  0  0  0  0
   61.1963   28.2883   47.4631 H   0  0  0  0  0  0  0  0  0  0  0  0
   60.9528   29.3179   46.0056 H   0  0  0  0  0  0  0  0  0  0  0  0
   58.8260   29.5670   49.1820 H   0  0  0  0  0  0  0  0  0  0  0  0
   58.5712   34.2554   49.1701 H   0  0  0  0  0  0  0  0  0  0  0  0
   59.4095   35.6794   48.4379 H   0  0  0  0  0  0  0  0  0  0  0  0
   60.4456   35.3116   46.0552 H   0  0  0  0  0  0  0  0  0  0  0  0
   59.7514   34.5720   43.7750 H   0  0  0  0  0  0  0  0  0  0  0  0
   56.6725   32.0785   45.5122 H   0  0  0  0  0  0  0  0  0  0  0  0
   57.3491   32.8270   47.7946 H   0  0  0  0  0  0  0  0  0  0  0  0
   62.0950   32.7000   46.3910 H   0  0  0  0  0  0  0  0  0  0  0  0
   62.6580   31.0010   46.3930 H   0  0  0  0  0  0  0  0  0  0  0  0
   59.5866   26.6644   48.0257 H   0  0  0  0  0  0  0  0  0  0  0  0
   57.3876   25.5767   47.5855 H   0  0  0  0  0  0  0  0  0  0  0  0
  1  2  1  0
  2  3  2  0
  2  4  2  0
  2  5  1  0
  5  6  1  0
  6  7  2  0
  7  8  1  0
  8  9  2  0
  9 10  1  0
 10 11  1  0
 11 12  2  0
 12 13  1  0
 13 14  2  0
 14 15  1  0
 15 16  1  0
 16 17  1  0
 17 18  2  0
 18 19  1  0
 19 20  2  0
 20 21  1  0
 20 22  1  0
 22 23  2  0
 14 24  1  0
 24 25  1  0
  9 26  1  0
 26 27  2  0
 27  6  1  0
 24 11  1  0
 23 17  1  0
  1 28  1  0
  1 29  1  0
  1 30  1  0
  7 31  1  0
  8 32  1  0
 10 33  1  0
 10 34  1  0
 12 35  1  0
 16 36  1  0
 16 37  1  0
 18 38  1  0
 19 39  1  0
 22 40  1  0
 23 41  1  0
 25 42  1  0
 25 43  1  0
 26 44  1  0
 27 45  1  0
M  CHG  2   5  -1  12   1
M  END
>  <UniqueID>  (4) 
4

>  <SMILES>  (4) 
CS(=O)(=O)[N-]c1ccc(Cc2[nH+]nc(SCc3ccc(F)cc3)n2N)cc1

>  <Energy>  (4) 
76.08398406722738

>  <Genealogy>  (4) 
CS(=O)(=O)[N-]c1ccc(Cc2[nH+]nc(SCc3ccc(F)cc3)n2N)cc1 (protonated)
CS(=O)(=O)[N-]c1ccc(Cc2[nH+]nc(SCc3ccc(F)cc3)n2N)cc1 (3D coordinates assigned)
CS(=O)(=O)[N-]c1ccc(Cc2[nH+]nc(SCc3ccc(F)cc3)n2N)cc1 (optimized conformer: 76.08398406722738 kcal/mol)

>  <smiles>  (4) 
CS(=O)(=O)Nc1ccc(Cc2nnc(SCc3ccc(F)cc3)n2N)cc1

>  <score_type>  (4) 
oracle

>  <origin>  (4) 
adg

>  <m_score__min__energy>  (4) 
-8.5399999999999991

>  <m_primary>  (4) 
energy

$$$$
4:0
     RDKit          3D

 59 62  0  0  0  0  0  0  0  0999 V2000
   57.7690   26.4120   43.2270 C   0  0  0  0  0  0  0  0  0  0  0  0
   57.3300   25.4640   44.2520 N   0  0  0  0  0  0  0  0  0  0  0  0
   57.2720   24.0500   43.9600 C   0  0  0  0  0  0  0  0  0  0  0  0
   58.1240   23.1440   44.6230 C   0  0  0  0  0  0  0  0  0  0  0  0
   58.0590   21.7750   44.3460 C   0  0  0  0  0  0  0  0  0  0  0  0
   57.1440   21.2910   43.4080 C   0  0  0  0  0  0  0  0  0  0  0  0
   56.2900   22.1770   42.7470 C   0  0  0  0  0  0  0  0  0  0  0  0
   56.3500   23.5460   43.0200 C   0  0  0  0  0  0  0  0  0  0  0  0
   56.9010   26.0690   45.8300 S   0  0  0  0  0  0  0  0  0  0  0  0
   56.2700   24.9610   46.6290 O   0  0  0  0  0  0  0  0  0  0  0  0
   55.8960   27.1790   45.7010 O   0  0  0  0  0  0  0  0  0  0  0  0
   58.3370   26.6770   46.6510 C   0  0  0  0  0  0  0  0  0  0  0  0
   59.6080   26.1830   46.3270 C   0  0  0  0  0  0  0  0  0  0  0  0
   60.7410   26.6880   46.9670 C   0  0  0  0  0  0  0  0  0  0  0  0
   60.6140   27.6870   47.9370 C   0  0  0  0  0  0  0  0  0  0  0  0
   59.3460   28.1920   48.2750 C   0  0  0  0  0  0  0  0  0  0  0  0
   59.2030   29.2450   49.3090 C   0  0  0  0  0  0  0  0  0  0  0  0
   59.4600   28.9730   50.5150 O   0  0  0  0  0  0  0  0  0  0  0  0
   58.7410   30.5590   48.9590 N   0  0  0  0  0  0  0  0  0  0  0  0
   58.8870   31.6940   49.8270 C   0  0  0  0  0  0  0  0  0  0  0  0
   58.0550   31.8010   50.9510 C   0  0  0  0  0  0  0  0  0  0  0  0
   58.1620   32.8960   51.8120 C   0  0  0  0  0  0  0  0  0  0  0  0
   59.0980   33.8980   51.5520 C   0  0  0  0  0  0  0  0  0  0  0  0
   59.9140   33.8190   50.4220 C   0  0  0  0  0  0  0  0  0  0  0  0
   59.7990   32.7320   49.5350 C   0  0  0  0  0  0  0  0  0  0  0  0
   60.5980   32.6680   48.3430 N   0  0  0  0  0  0  0  0  0  0  0  0
   60.1820   33.0460   47.0230 C   0  0  0  0  0  0  0  0  0  0  0  0
   60.7360   34.0370   46.4760 O   0  0  0  0  0  0  0  0  0  0  0  0
   59.1610   32.2750   46.2720 C   0  0  0  0  0  0  0  0  0  0  0  0
   57.9930   32.8990   45.7990 C   0  0  0  0  0  0  0  0  0  0  0  0
   57.0340   32.1650   45.0950 C   0  0  0  0  0  0  0  0  0  0  0  0
   57.2170   30.7910   44.8600 C   0  0  0  0  0  0  0  0  0  0  0  0
   56.2010   30.0080   44.1220 C   0  0  0  0  0  0  0  0  0  0  0  0
   56.2800   29.8700   42.8730 O   0  0  0  0  0  0  0  0  0  0  0  0
   55.1400   29.4170   44.7990 O   0  0  0  0  0  0  0  0  0  0  0  0
   58.3800   30.1660   45.3460 C   0  0  0  0  0  0  0  0  0  0  0  0
   59.3390   30.9010   46.0490 C   0  0  0  0  0  0  0  0  0  0  0  0
   58.2090   27.6720   47.6300 C   0  0  0  0  0  0  0  0  0  0  0  0
   58.1842   27.3086   43.7105 H   0  0  0  0  0  0  0  0  0  0  0  0
   58.5414   25.9426   42.6001 H   0  0  0  0  0  0  0  0  0  0  0  0
   56.9114   26.6974   42.6001 H   0  0  0  0  0  0  0  0  0  0  0  0
   58.8460   23.5169   45.3644 H   0  0  0  0  0  0  0  0  0  0  0  0
   58.7302   21.0773   44.8681 H   0  0  0  0  0  0  0  0  0  0  0  0
   57.0961   20.2138   43.1902 H   0  0  0  0  0  0  0  0  0  0  0  0
   55.5683   21.7959   42.0095 H   0  0  0  0  0  0  0  0  0  0  0  0
   55.6720   24.2365   42.4970 H   0  0  0  0  0  0  0  0  0  0  0  0
   59.7129   25.3953   45.5664 H   0  0  0  0  0  0  0  0  0  0  0  0
   61.7366   26.2989   46.7075 H   0  0  0  0  0  0  0  0  0  0  0  0
   61.5108   28.0799   48.4383 H   0  0  0  0  0  0  0  0  0  0  0  0
   58.1140   30.6570   48.1300 H   0  0  0  0  0  0  0  0  0  0  0  0
   57.3120   31.0162   51.1563 H   0  0  0  0  0  0  0  0  0  0  0  0
   57.5090   32.9683   52.6942 H   0  0  0  0  0  0  0  0  0  0  0  0
   59.1930   34.7519   52.2389 H   0  0  0  0  0  0  0  0  0  0  0  0
   60.6512   34.6109   50.2236 H   0  0  0  0  0  0  0  0  0  0  0  0
   57.8330   33.9714   45.9841 H   0  0  0  0  0  0  0  0  0  0  0  0
   56.1289   32.6665   44.7219 H   0  0  0  0  0  0  0  0  0  0  0  0
   58.5358   29.0912   45.1715 H   0  0  0  0  0  0  0  0  0  0  0  0
   60.2401   30.3985   46.4303 H   0  0  0  0  0  0  0  0  0  0  0  0
   57.2107   28.0496   47.8963 H   0  0  0  0  0  0  0  0  0  0  0  0
  1  2  1  0
  2  3  1  0
  3  4  2  0
  4  5  1  0
  5  6  2  0
  6  7  1  0
  7  8  2  0
  2  9  1  0
  9 10  2  0
  9 11  2  0
  9 12  1  0
 12 13  2  0
 13 14  1  0
 14 15  2  0
 15 16  1  0
 16 17  1  0
 17 18  2  0
 17 19  1  0
 19 20  1  0
 20 21  2  0
 21 22  1  0
 22 23  2  0
 23 24  1  0
 24 25  2  0
 25 26  1  0
 26 27  1  0
 27 28  2  0
 27 29  1  0
 29 30  2  0
 30 31  1  0
 31 32  2  0
 32 33  1  0
 33 34  2  0
 33 35  1  0
 32 36  1  0
 36 37  2  0
 16 38  2  0
  8  3  1  0
 38 12  1  0
 25 20  1  0
 37 29  1  0
  1 39  1  0
  1 40  1  0
  1 41  1  0
  4 42  1  0
  5 43  1  0
  6 44  1  0
  7 45  1  0
  8 46  1  0
 13 47  1  0
 14 48  1  0
 15 49  1  0
 19 50  1  0
 21 51  1  0
 22 52  1  0
 23 53  1  0
 24 54  1  0
 30 55  1  0
 31 56  1  0
 36 57  1  0
 37 58  1  0
 38 59  1  0
M  CHG  2  26  -1  35  -1
M  END
>  <UniqueID>  (5) 
5

>  <SMILES>  (5) 
CN(c1ccccc1)S(=O)(=O)c1cccc(C(=O)Nc2ccccc2[N-]C(=O)c2ccc(C(=O)[O-])cc2)c1

>  <Energy>  (5) 
82.96794549940172

>  <Genealogy>  (5) 
CN(c1ccccc1)S(=O)(=O)c1cccc(C(=O)Nc2ccccc2[N-]C(=O)c2ccc(C(=O)[O-])cc2)c1 (protonated)
CN(c1ccccc1)S(=O)(=O)c1cccc(C(=O)Nc2ccccc2[N-]C(=O)c2ccc(C(=O)[O-])cc2)c1 (3D coordinates assigned)
CN(c1ccccc1)S(=O)(=O)c1cccc(C(=O)Nc2ccccc2[N-]C(=O)c2ccc(C(=O)[O-])cc2)c1 (optimized conformer: 82.96794549940172 kcal/mol)

>  <smiles>  (5) 
CN(c1ccccc1)S(=O)(=O)c1cccc(C(=O)Nc2ccccc2NC(=O)c2ccc(C(=O)O)cc2)c1

>  <score_type>  (5) 
oracle

>  <origin>  (5) 
adg

>  <m_score__min__energy>  (5) 
-15.66

>  <m_primary>  (5) 
energy

$$$$
5:0
     RDKit          3D

 51 54  0  0  0  0  0  0  0  0999 V2000
   63.3338   34.0152   45.3426 H   0  0  0  0  0  0  0  0  0  0  0  0
   62.8900   33.7790   46.3210 C   0  0  0  0  0  0  0  0  0  0  0  0
   63.6880   33.2570   47.3410 C   0  0  0  0  0  0  0  0  0  0  0  0
   64.7596   33.0816   47.1652 H   0  0  0  0  0  0  0  0  0  0  0  0
   63.1260   32.9570   48.5860 C   0  0  0  0  0  0  0  0  0  0  0  0
   63.9030   32.4570   49.5770 F   0  0  0  0  0  0  0  0  0  0  0  0
   61.7620   33.1780   48.8110 C   0  0  0  0  0  0  0  0  0  0  0  0
   61.3240   32.9477   49.7934 H   0  0  0  0  0  0  0  0  0  0  0  0
   60.9510   33.6930   47.7860 C   0  0  0  0  0  0  0  0  0  0  0  0
   59.4900   33.9660   48.0350 C   0  0  0  0  0  0  0  0  0  0  0  0
   59.3308   35.0536   48.0775 H   0  0  0  0  0  0  0  0  0  0  0  0
   59.2056   33.4938   48.9869 H   0  0  0  0  0  0  0  0  0  0  0  0
   58.6320   33.3870   46.9420 C   0  0  0  0  0  0  0  0  0  0  0  0
   57.5710   33.9830   46.6060 O   0  0  0  0  0  0  0  0  0  0  0  0
   58.9810   32.1430   46.3040 N   0  0  0  0  0  0  0  0  0  0  0  0
   58.5390   31.8530   44.9370 C   0  0  0  0  0  0  0  0  0  0  0  0
   59.4085   31.5804   44.3208 H   0  0  0  0  0  0  0  0  0  0  0  0
   58.0529   32.7439   44.5126 H   0  0  0  0  0  0  0  0  0  0  0  0
   57.5450   30.6920   44.9570 C   0  0  0  0  0  0  0  0  0  0  0  0
   57.3593   30.3542   43.9267 H   0  0  0  0  0  0  0  0  0  0  0  0
   56.6042   31.0313   45.4149 H   0  0  0  0  0  0  0  0  0  0  0  0
   58.0880   29.5760   45.7440 N   0  0  0  0  0  0  0  0  0  0  0  0
   57.8050   28.2160   45.3610 C   0  0  0  0  0  0  0  0  0  0  0  0
   58.4050   27.6650   44.1980 C   0  0  0  0  0  0  0  0  0  0  0  0
   59.0858   28.2821   43.5933 H   0  0  0  0  0  0  0  0  0  0  0  0
   58.1390   26.3390   43.8100 C   0  0  0  0  0  0  0  0  0  0  0  0
   58.6040   25.9034   42.9133 H   0  0  0  0  0  0  0  0  0  0  0  0
   57.2670   25.5990   44.6010 C   0  0  0  0  0  0  0  0  0  0  0  0
   56.6800   26.1180   45.7160 C   0  0  0  0  0  0  0  0  0  0  0  0
   55.8800   25.2050   46.2970 N   0  0  0  0  0  0  0  0  0  0  0  0
   56.0220   24.1270   45.4760 C   0  0  0  0  0  0  0  0  0  0  0  0
   55.4100   22.9930   45.6580 N   0  0  0  0  0  0  0  0  0  0  0  0
   55.6120   21.7910   44.9020 C   0  0  0  0  0  0  0  0  0  0  0  0
   55.4690   20.6550   45.4360 O   0  0  0  0  0  0  0  0  0  0  0  0
   55.9690   21.8950   43.5560 O   0  0  0  0  0  0  0  0  0  0  0  0
   57.1570   21.3150   43.0310 C   0  0  0  0  0  0  0  0  0  0  0  0
   57.8072   20.9976   43.8595 H   0  0  0  0  0  0  0  0  0  0  0  0
   56.8972   20.4424   42.4137 H   0  0  0  0  0  0  0  0  0  0  0  0
   57.6853   22.0566   42.4137 H   0  0  0  0  0  0  0  0  0  0  0  0
   56.8610   24.3350   44.4340 N   0  0  0  0  0  0  0  0  0  0  0  0
   57.1270   23.6670   43.6750 H   0  0  0  0  0  0  0  0  0  0  0  0
   56.9210   27.4240   46.1330 C   0  0  0  0  0  0  0  0  0  0  0  0
   56.4391   27.8286   47.0353 H   0  0  0  0  0  0  0  0  0  0  0  0
   58.5980   29.8610   47.0940 C   0  0  0  0  0  0  0  0  0  0  0  0
   59.1121   28.9698   47.4831 H   0  0  0  0  0  0  0  0  0  0  0  0
   57.7530   30.1243   47.7471 H   0  0  0  0  0  0  0  0  0  0  0  0
   59.5800   31.0330   47.0550 C   0  0  0  0  0  0  0  0  0  0  0  0
   60.5110   30.7161   46.5623 H   0  0  0  0  0  0  0  0  0  0  0  0
   59.8038   31.3606   48.0810 H   0  0  0  0  0  0  0  0  0  0  0  0
   61.5260   34.0020   46.5420 C   0  0  0  0  0  0  0  0  0  0  0  0
   60.9020   34.4207   45.7387 H   0  0  0  0  0  0  0  0  0  0  0  0
  1  2  1  0
  2  3  2  0
  3  4  1  0
  3  5  1  0
  5  6  1  0
  5  7  2  0
  7  8  1  0
  7  9  1  0
  9 10  1  0
 10 11  1  0
 10 12  1  0
 10 13  1  0
 13 14  2  0
 13 15  1  0
 15 16  1  0
 16 17  1  0
 16 18  1  0
 16 19  1  0
 19 20  1  0
 19 21  1  0
 19 22  1  0
 22 23  1  0
 23 24  2  0
 24 25  1  0
 24 26  1  0
 26 27  1  0
 26 28  2  0
 28 29  1  0
 29 30  1  0
 30 31  1  0
 31 32  2  0
 32 33  1  0
 33 34  2  0
 33 35  1  0
 35 36  1  0
 36 37  1  0
 36 38  1  0
 36 39  1  0
 31 40  1  0
 40 41  1  0
 29 42  2  0
 42 43  1  0
 22 44  1  0
 44 45  1  0
 44 46  1  0
 44 47  1  0
 47 48  1  0
 47 49  1  0
  9 50  2  0
 50 51  1  0
 50  2  1  0
 47 15  1  0
 42 23  1  0
 40 28  1  0
M  CHG  1  30  -1
M  END
>  <UniqueID>  (6) 
6

>  <SMILES>  (6) 
COC(=O)/N=c1\[n-]c2cc(N3CCN(C(=O)Cc4cccc(F)c4)CC3)ccc2[nH]1

>  <Energy>  (6) 
95.6295870435591

>  <Genealogy>  (6) 
COC(=O)N=c1[n-]c2cc(N3CCN(C(=O)Cc4cccc(F)c4)CC3)ccc2[nH]1 (protonated)
COC(=O)/N=c1\[n-]c2cc(N3CCN(C(=O)Cc4cccc(F)c4)CC3)ccc2[nH]1 (cis-trans isomerization)
COC(=O)/N=c1\[n-]c2cc(N3CCN(C(=O)Cc4cccc(F)c4)CC3)ccc2[nH]1 (3D coordinates assigned)
COC(=O)/N=c1\[n-]c2cc(N3CCN(C(=O)Cc4cccc(F)c4)CC3)ccc2[nH]1 (nonaromatic ring conformer: 95.6295870435591 kcal/mol)

>  <smiles>  (6) 
COC(=O)N=c1[nH]c2ccc(N3CCN(C(=O)Cc4cccc(F)c4)CC3)cc2[nH]1

>  <score_type>  (6) 
oracle

>  <origin>  (6) 
adg

>  <m_score__min__energy>  (6) 
-9.8900000000000006

>  <m_primary>  (6) 
energy

$$$$
6:0
     RDKit          3D

 49 51  0  0  0  0  0  0  0  0999 V2000
   56.3260   29.6950   42.6810 C   0  0  0  0  0  0  0  0  0  0  0  0
   55.2640   29.7170   43.7750 C   0  0  0  0  0  0  0  0  0  0  0  0
   55.8150   29.2990   45.0240 O   0  0  0  0  0  0  0  0  0  0  0  0
   57.1110   28.7900   45.2290 C   0  0  0  0  0  0  0  0  0  0  0  0
   57.3580   27.4020   45.2980 C   0  0  0  0  0  0  0  0  0  0  0  0
   58.6510   26.9200   45.5050 C   0  0  0  0  0  0  0  0  0  0  0  0
   59.7130   27.8090   45.6480 C   0  0  0  0  0  0  0  0  0  0  0  0
   59.4890   29.1850   45.5860 C   0  0  0  0  0  0  0  0  0  0  0  0
   58.1930   29.6910   45.3790 C   0  0  0  0  0  0  0  0  0  0  0  0
   58.0050   31.1610   45.3120 C   0  0  0  0  0  0  0  0  0  0  0  0
   59.0140   32.0590   45.3360 N   0  0  0  0  0  0  0  0  0  0  0  0
   58.3800   33.2440   45.2650 C   0  0  0  0  0  0  0  0  0  0  0  0
   59.0810   34.5760   45.2830 C   0  0  0  0  0  0  0  0  0  0  0  0
   59.9140   34.7840   46.4880 N   0  0  0  0  0  0  0  0  0  0  0  0
   61.2380   34.1480   46.3730 C   0  0  0  0  0  0  0  0  0  0  0  0
   59.2240   34.4270   47.7500 C   0  0  0  0  0  0  0  0  0  0  0  0
   60.2130   33.7930   48.7330 C   0  0  0  0  0  0  0  0  0  0  0  0
   60.1080   32.2910   48.7410 C   0  0  0  0  0  0  0  0  0  0  0  0
   58.9310   31.6620   49.1840 C   0  0  0  0  0  0  0  0  0  0  0  0
   58.8520   30.2660   49.2260 C   0  0  0  0  0  0  0  0  0  0  0  0
   59.9460   29.4910   48.8320 C   0  0  0  0  0  0  0  0  0  0  0  0
   61.1220   30.1090   48.3980 C   0  0  0  0  0  0  0  0  0  0  0  0
   61.2060   31.5030   48.3550 C   0  0  0  0  0  0  0  0  0  0  0  0
   57.0220   33.0330   45.1970 C   0  0  0  0  0  0  0  0  0  0  0  0
   56.8250   31.7400   45.2290 O   0  0  0  0  0  0  0  0  0  0  0  0
   57.3253   29.6743   43.1404 H   0  0  0  0  0  0  0  0  0  0  0  0
   56.1908   28.7995   42.0567 H   0  0  0  0  0  0  0  0  0  0  0  0
   56.2280   30.5954   42.0567 H   0  0  0  0  0  0  0  0  0  0  0  0
   54.8728   30.7400   43.8775 H   0  0  0  0  0  0  0  0  0  0  0  0
   54.4559   29.0246   43.4964 H   0  0  0  0  0  0  0  0  0  0  0  0
   56.5236   26.6938   45.1876 H   0  0  0  0  0  0  0  0  0  0  0  0
   58.8316   25.8361   45.5553 H   0  0  0  0  0  0  0  0  0  0  0  0
   60.7312   27.4257   45.8103 H   0  0  0  0  0  0  0  0  0  0  0  0
   60.3337   29.8803   45.7001 H   0  0  0  0  0  0  0  0  0  0  0  0
   59.7281   34.6418   44.3959 H   0  0  0  0  0  0  0  0  0  0  0  0
   58.3026   35.3532   45.2875 H   0  0  0  0  0  0  0  0  0  0  0  0
   61.6405   33.9547   47.3783 H   0  0  0  0  0  0  0  0  0  0  0  0
   61.1421   33.1977   45.8274 H   0  0  0  0  0  0  0  0  0  0  0  0
   61.9199   34.8168   45.8274 H   0  0  0  0  0  0  0  0  0  0  0  0
   58.7965   35.3353   48.1998 H   0  0  0  0  0  0  0  0  0  0  0  0
   58.4242   33.7046   47.5297 H   0  0  0  0  0  0  0  0  0  0  0  0
   61.2353   34.0769   48.4425 H   0  0  0  0  0  0  0  0  0  0  0  0
   59.9732   34.1580   49.7426 H   0  0  0  0  0  0  0  0  0  0  0  0
   58.0697   32.2696   49.4985 H   0  0  0  0  0  0  0  0  0  0  0  0
   57.9280   29.7779   49.5695 H   0  0  0  0  0  0  0  0  0  0  0  0
   59.8815   28.3933   48.8635 H   0  0  0  0  0  0  0  0  0  0  0  0
   61.9826   29.4971   48.0899 H   0  0  0  0  0  0  0  0  0  0  0  0
   62.1351   31.9857   48.0177 H   0  0  0  0  0  0  0  0  0  0  0  0
   56.2450   33.8086   45.1284 H   0  0  0  0  0  0  0  0  0  0  0  0
  1  2  1  0
  2  3  1  0
  3  4  1  0
  4  5  2  0
  5  6  1  0
  6  7  2  0
  7  8  1  0
  8  9  2  0
  9 10  1  0
 10 11  2  0
 11 12  1  0
 12 13  1  0
 13 14  1  0
 14 15  1  0
 14 16  1  0
 16 17  1  0
 17 18  1  0
 18 19  2  0
 19 20  1  0
 20 21  2  0
 21 22  1  0
 22 23  2  0
 12 24  2  0
 24 25  1  0
  9  4  1  0
 25 10  1  0
 23 18  1  0
  1 26  1  0
  1 27  1  0
  1 28  1  0
  2 29  1  0
  2 30  1  0
  5 31  1  0
  6 32  1  0
  7 33  1  0
  8 34  1  0
 13 35  1  0
 13 36  1  0
 15 37  1  0
 15 38  1  0
 15 39  1  0
 16 40  1  0
 16 41  1  0
 17 42  1  0
 17 43  1  0
 19 44  1  0
 20 45  1  0
 21 46  1  0
 22 47  1  0
 23 48  1  0
 24 49  1  0
M  END
>  <UniqueID>  (7) 
7

>  <SMILES>  (7) 
CCOc1ccccc1-c1nc(CN(C)CCc2ccccc2)co1

>  <Energy>  (7) 
81.02769439830745

>  <Genealogy>  (7) 
CCOc1ccccc1-c1nc(CN(C)CCc2ccccc2)co1 (3D coordinates assigned)
CCOc1ccccc1-c1nc(CN(C)CCc2ccccc2)co1 (optimized conformer: 81.02769439830745 kcal/mol)

>  <smiles>  (7) 
CCOc1ccccc1-c1nc(CN(C)CCc2ccccc2)co1

>  <score_type>  (7) 
oracle

>  <origin>  (7) 
adg

>  <m_score__min__energy>  (7) 
-8.0700000000000003

>  <m_primary>  (7) 
energy

$$$$
7:0
     RDKit          3D

 44 46  0  0  0  0  0  0  0  0999 V2000
   52.9633   23.6939   45.0211 H   0  0  0  0  0  0  0  0  0  0  0  0
   54.0060   24.0430   44.9930 C   0  0  0  0  0  0  0  0  0  0  0  0
   54.3700   25.1560   45.6850 N   0  0  0  0  0  0  0  0  0  0  0  0
   55.6490   25.6290   45.6730 C   0  0  0  0  0  0  0  0  0  0  0  0
   55.9850   26.6910   46.3480 N   0  0  0  0  0  0  0  0  0  0  0  0
   57.3180   27.0900   46.7130 C   0  0  0  0  0  0  0  0  0  0  0  0
   57.9920   26.3190   47.4460 O   0  0  0  0  0  0  0  0  0  0  0  0
   57.9510   28.3210   46.1750 C   0  0  0  0  0  0  0  0  0  0  0  0
   59.3550   28.4940   46.1480 C   0  0  0  0  0  0  0  0  0  0  0  0
   60.2990   27.4630   46.7080 C   0  0  0  0  0  0  0  0  0  0  0  0
   60.2684   27.4964   47.8071 H   0  0  0  0  0  0  0  0  0  0  0  0
   59.9967   26.4632   46.3630 H   0  0  0  0  0  0  0  0  0  0  0  0
   61.3215   27.6763   46.3630 H   0  0  0  0  0  0  0  0  0  0  0  0
   59.8780   29.6620   45.5760 C   0  0  0  0  0  0  0  0  0  0  0  0
   60.9675   29.8057   45.5288 H   0  0  0  0  0  0  0  0  0  0  0  0
   59.0510   30.6170   45.0800 N   0  0  0  0  0  0  0  0  0  0  0  0
   57.6990   30.4940   45.1010 C   0  0  0  0  0  0  0  0  0  0  0  0
   56.9790   31.4640   44.6100 N   0  0  0  0  0  0  0  0  0  0  0  0
   56.6600   32.7430   45.2480 C   0  0  0  0  0  0  0  0  0  0  0  0
   55.8550   32.5880   45.9815 H   0  0  0  0  0  0  0  0  0  0  0  0
   56.3418   33.4525   44.4699 H   0  0  0  0  0  0  0  0  0  0  0  0
   57.8650   33.3120   45.9520 C   0  0  0  0  0  0  0  0  0  0  0  0
   58.7990   34.0810   45.2400 C   0  0  0  0  0  0  0  0  0  0  0  0
   58.6481   34.2715   44.1672 H   0  0  0  0  0  0  0  0  0  0  0  0
   59.9190   34.6050   45.8890 C   0  0  0  0  0  0  0  0  0  0  0  0
   60.6449   35.2106   45.3265 H   0  0  0  0  0  0  0  0  0  0  0  0
   60.1210   34.3630   47.2500 C   0  0  0  0  0  0  0  0  0  0  0  0
   61.0022   34.7836   47.7566 H   0  0  0  0  0  0  0  0  0  0  0  0
   59.2010   33.5830   47.9750 C   0  0  0  0  0  0  0  0  0  0  0  0
   59.3580   33.3080   49.3410 O   0  0  0  0  0  0  0  0  0  0  0  0
   58.9370   32.1020   49.9710 C   0  0  0  0  0  0  0  0  0  0  0  0
   58.9798   32.2246   51.0633 H   0  0  0  0  0  0  0  0  0  0  0  0
   57.9051   31.8710   49.6681 H   0  0  0  0  0  0  0  0  0  0  0  0
   59.6010   31.2790   49.6681 H   0  0  0  0  0  0  0  0  0  0  0  0
   58.0810   33.0580   47.3160 C   0  0  0  0  0  0  0  0  0  0  0  0
   57.3626   32.4396   47.8740 H   0  0  0  0  0  0  0  0  0  0  0  0
   57.1290   29.3300   45.6490 C   0  0  0  0  0  0  0  0  0  0  0  0
   56.0356   29.2104   45.6652 H   0  0  0  0  0  0  0  0  0  0  0  0
   56.6290   24.9430   44.9440 C   0  0  0  0  0  0  0  0  0  0  0  0
   57.6682   25.3034   44.9365 H   0  0  0  0  0  0  0  0  0  0  0  0
   56.2760   23.7980   44.2270 C   0  0  0  0  0  0  0  0  0  0  0  0
   57.0368   23.2548   43.6473 H   0  0  0  0  0  0  0  0  0  0  0  0
   54.9570   23.3440   44.2470 C   0  0  0  0  0  0  0  0  0  0  0  0
   54.6694   22.4454   43.6814 H   0  0  0  0  0  0  0  0  0  0  0  0
  1  2  1  0
  2  3  1  0
  3  4  1  0
  4  5  2  3
  5  6  1  0
  6  7  2  0
  6  8  1  0
  8  9  1  0
  9 10  1  0
 10 11  1  0
 10 12  1  0
 10 13  1  0
  9 14  2  0
 14 15  1  0
 14 16  1  0
 16 17  1  0
 17 18  2  0
 18 19  1  0
 19 20  1  0
 19 21  1  0
 19 22  1  0
 22 23  2  0
 23 24  1  0
 23 25  1  0
 25 26  1  0
 25 27  2  0
 27 28  1  0
 27 29  1  0
 29 30  1  0
 30 31  1  0
 31 32  1  0
 31 33  1  0
 31 34  1  0
 29 35  2  0
 35 36  1  0
 17 37  1  0
 37 38  1  0
  4 39  1  0
 39 40  1  0
 39 41  2  0
 41 42  1  0
 41 43  1  0
 43 44  1  0
 43  2  2  0
 37  8  2  0
 35 22  1  0
M  CHG  2   3  -1  16  -1
M  END
>  <UniqueID>  (8) 
8

>  <SMILES>  (8) 
COc1cccc(C/N=c2\cc(C(=O)N=c3cccc[n-]3)c(C)c[n-]2)c1

>  <Energy>  (8) 
57.71919451037858

>  <Genealogy>  (8) 
COc1cccc(CN=c2cc(C(=O)N=c3cccc[n-]3)c(C)c[n-]2)c1 (protonated)
COc1cccc(C/N=c2\cc(C(=O)N=c3cccc[n-]3)c(C)c[n-]2)c1 (cis-trans isomerization)
COc1cccc(C/N=c2\cc(C(=O)N=c3cccc[n-]3)c(C)c[n-]2)c1 (3D coordinates assigned)
COc1cccc(C/N=c2\cc(C(=O)N=c3cccc[n-]3)c(C)c[n-]2)c1 (optimized conformer: 57.71919451037858 kcal/mol)

>  <smiles>  (8) 
COc1cccc(CN=c2cc(C(=O)N=c3cccc[nH]3)c(C)c[nH]2)c1

>  <score_type>  (8) 
oracle

>  <origin>  (8) 
adg

>  <m_score__min__energy>  (8) 
-10.619999999999999

>  <m_primary>  (8) 
energy

$$$$
8:0
     RDKit          3D

 38 39  0  0  0  0  0  0  0  0999 V2000
   56.6440   29.3700   45.7010 O   0  0  0  0  0  0  0  0  0  0  0  0
   56.9180   29.9770   44.6300 C   0  0  0  0  0  0  0  0  0  0  0  0
   57.6500   29.3120   43.5940 N   0  0  0  0  0  0  0  0  0  0  0  0
   58.2050   27.9700   43.7540 C   0  0  0  0  0  0  0  0  0  0  0  0
   59.1740   27.8940   44.9480 C   0  0  0  0  0  0  0  0  0  0  0  0
   59.6050   29.2200   45.4360 N   0  0  0  0  0  0  0  0  0  0  0  0
   60.2110   29.1860   46.7750 C   0  0  0  0  0  0  0  0  0  0  0  0
   60.2320   30.5580   47.3970 C   0  0  0  0  0  0  0  0  0  0  0  0
   59.2060   30.9620   48.2680 C   0  0  0  0  0  0  0  0  0  0  0  0
   59.2370   32.2330   48.8510 C   0  0  0  0  0  0  0  0  0  0  0  0
   60.2900   33.1070   48.5670 C   0  0  0  0  0  0  0  0  0  0  0  0
   61.3140   32.7130   47.7020 C   0  0  0  0  0  0  0  0  0  0  0  0
   61.2870   31.4420   47.1180 C   0  0  0  0  0  0  0  0  0  0  0  0
   56.5710   31.3240   44.4590 O   0  0  0  0  0  0  0  0  0  0  0  0
   57.3640   32.4190   44.8300 C   0  0  0  0  0  0  0  0  0  0  0  0
   58.4650   32.8460   44.0640 C   0  0  0  0  0  0  0  0  0  0  0  0
   59.2310   33.9400   44.4810 C   0  0  0  0  0  0  0  0  0  0  0  0
   58.9120   34.6070   45.6660 C   0  0  0  0  0  0  0  0  0  0  0  0
   57.8320   34.1750   46.4420 C   0  0  0  0  0  0  0  0  0  0  0  0
   57.0660   33.0820   46.0280 C   0  0  0  0  0  0  0  0  0  0  0  0
   57.7830   29.8050   42.6820 H   0  0  0  0  0  0  0  0  0  0  0  0
   57.3807   27.2604   43.9180 H   0  0  0  0  0  0  0  0  0  0  0  0
   58.7649   27.7190   42.8410 H   0  0  0  0  0  0  0  0  0  0  0  0
   58.6723   27.3650   45.7717 H   0  0  0  0  0  0  0  0  0  0  0  0
   60.0748   27.3650   44.6034 H   0  0  0  0  0  0  0  0  0  0  0  0
   58.7940   29.8810   45.4490 H   0  0  0  0  0  0  0  0  0  0  0  0
   59.6267   28.5099   47.4165 H   0  0  0  0  0  0  0  0  0  0  0  0
   61.2475   28.8301   46.6800 H   0  0  0  0  0  0  0  0  0  0  0  0
   58.3756   30.2763   48.4921 H   0  0  0  0  0  0  0  0  0  0  0  0
   58.4324   32.5448   49.5332 H   0  0  0  0  0  0  0  0  0  0  0  0
   60.3126   34.1067   49.0253 H   0  0  0  0  0  0  0  0  0  0  0  0
   62.1418   33.4025   47.4800 H   0  0  0  0  0  0  0  0  0  0  0  0
   62.0949   31.1340   46.4380 H   0  0  0  0  0  0  0  0  0  0  0  0
   58.7240   32.3178   43.1345 H   0  0  0  0  0  0  0  0  0  0  0  0
   60.0855   34.2752   43.8749 H   0  0  0  0  0  0  0  0  0  0  0  0
   59.5102   35.4719   45.9887 H   0  0  0  0  0  0  0  0  0  0  0  0
   57.5852   34.6958   47.3789 H   0  0  0  0  0  0  0  0  0  0  0  0
   56.2234   32.7398   46.6468 H   0  0  0  0  0  0  0  0  0  0  0  0
  1  2  2  0
  2  3  1  0
  3  4  1  0
  4  5  1  0
  5  6  1  0
  6  7  1  0
  7  8  1  0
  8  9  2  0
  9 10  1  0
 10 11  2  0
 11 12  1  0
 12 13  2  0
  2 14  1  0
 14 15  1  0
 15 16  2  0
 16 17  1  0
 17 18  2  0
 18 19  1  0
 19 20  2  0
 13  8  1  0
 20 15  1  0
  3 21  1  0
  4 22  1  0
  4 23  1  0
  5 24  1  0
  5 25  1  0
  6 26  1  0
  7 27  1  0
  7 28  1  0
  9 29  1  0
 10 30  1  0
 11 31  1  0
 12 32  1  0
 13 33  1  0
 16 34  1  0
 17 35  1  0
 18 36  1  0
 19 37  1  0
 20 38  1  0
M  END
>  <UniqueID>  (9) 
9

>  <SMILES>  (9) 
O=C(NCCNCc1ccccc1)Oc1ccccc1

>  <Energy>  (9) 
39.38730537462771

>  <Genealogy>  (9) 
O=C(NCCNCc1ccccc1)Oc1ccccc1 (3D coordinates assigned)
O=C(NCCNCc1ccccc1)Oc1ccccc1 (optimized conformer: 39.38730537462771 kcal/mol)

>  <smiles>  (9) 
O=C(NCCNCc1ccccc1)Oc1ccccc1

>  <score_type>  (9) 
oracle

>  <origin>  (9) 
adg

>  <m_score__min__energy>  (9) 
-7.2400000000000002

>  <m_primary>  (9) 
energy

$$$$
9:0
     RDKit          3D

 31 32  0  0  0  0  0  0  0  0999 V2000
   55.3560   24.5250   46.6370 O   0  0  0  0  0  0  0  0  0  0  0  0
   55.7710   25.4850   45.9360 C   0  0  0  0  0  0  0  0  0  0  0  0
   55.1440   26.7220   46.0230 O   0  0  0  0  0  0  0  0  0  0  0  0
   56.9650   25.3130   45.0530 C   0  0  0  0  0  0  0  0  0  0  0  0
   57.9950   26.3630   45.3650 C   0  0  0  0  0  0  0  0  0  0  0  0
   58.7780   26.2650   46.5260 C   0  0  0  0  0  0  0  0  0  0  0  0
   59.7140   27.2570   46.8310 C   0  0  0  0  0  0  0  0  0  0  0  0
   59.8670   28.3730   45.9940 C   0  0  0  0  0  0  0  0  0  0  0  0
   60.8530   29.3700   46.3190 N   0  0  0  0  0  0  0  0  0  0  0  0
   60.8050   30.1830   47.5040 C   0  0  0  0  0  0  0  0  0  0  0  0
   60.1440   29.7910   48.5040 O   0  0  0  0  0  0  0  0  0  0  0  0
   61.5640   31.4540   47.5840 C   0  0  0  0  0  0  0  0  0  0  0  0
   61.1850   32.5730   46.8190 C   0  0  0  0  0  0  0  0  0  0  0  0
   61.9060   33.7690   46.9070 C   0  0  0  0  0  0  0  0  0  0  0  0
   63.0060   33.8640   47.7600 C   0  0  0  0  0  0  0  0  0  0  0  0
   63.3880   32.7640   48.5340 C   0  0  0  0  0  0  0  0  0  0  0  0
   64.8910   32.8970   49.7050 Br  0  0  0  0  0  0  0  0  0  0  0  0
   62.6700   31.5660   48.4490 C   0  0  0  0  0  0  0  0  0  0  0  0
   59.0870   28.4660   44.8280 C   0  0  0  0  0  0  0  0  0  0  0  0
   58.1510   27.4740   44.5230 C   0  0  0  0  0  0  0  0  0  0  0  0
   57.3998   24.3163   45.2193 H   0  0  0  0  0  0  0  0  0  0  0  0
   56.6536   25.4155   44.0030 H   0  0  0  0  0  0  0  0  0  0  0  0
   58.6543   25.4035   47.1987 H   0  0  0  0  0  0  0  0  0  0  0  0
   60.3353   27.1623   47.7338 H   0  0  0  0  0  0  0  0  0  0  0  0
   61.7070   29.4250   45.7200 H   0  0  0  0  0  0  0  0  0  0  0  0
   60.3163   32.5069   46.1475 H   0  0  0  0  0  0  0  0  0  0  0  0
   61.6047   34.6368   46.3019 H   0  0  0  0  0  0  0  0  0  0  0  0
   63.5729   34.8045   47.8236 H   0  0  0  0  0  0  0  0  0  0  0  0
   62.9718   30.7045   49.0628 H   0  0  0  0  0  0  0  0  0  0  0  0
   59.2142   29.3244   44.1520 H   0  0  0  0  0  0  0  0  0  0  0  0
   57.5331   27.5650   43.6175 H   0  0  0  0  0  0  0  0  0  0  0  0
  1  2  2  0
  2  3  1  0
  2  4  1  0
  4  5  1  0
  5  6  2  0
  6  7  1  0
  7  8  2  0
  8  9  1  0
  9 10  1  0
 10 11  2  0
 10 12  1  0
 12 13  2  0
 13 14  1  0
 14 15  2  0
 15 16  1  0
 16 17  1  0
 16 18  2  0
  8 19  1  0
 19 20  2  0
 20  5  1  0
 18 12  1  0
  4 21  1  0
  4 22  1  0
  6 23  1  0
  7 24  1  0
  9 25  1  0
 13 26  1  0
 14 27  1  0
 15 28  1  0
 18 29  1  0
 19 30  1  0
 20 31  1  0
M  CHG  1   3  -1
M  END
>  <UniqueID>  (10) 
10

>  <SMILES>  (10) 
O=C([O-])Cc1ccc(NC(=O)c2cccc(Br)c2)cc1

>  <Energy>  (10) 
35.357167598387136

>  <Genealogy>  (10) 
O=C([O-])Cc1ccc(NC(=O)c2cccc(Br)c2)cc1 (protonated)
O=C([O-])Cc1ccc(NC(=O)c2cccc(Br)c2)cc1 (3D coordinates assigned)
O=C([O-])Cc1ccc(NC(=O)c2cccc(Br)c2)cc1 (optimized conformer: 35.357167598387136 kcal/mol)

>  <smiles>  (10) 
O=C(O)Cc1ccc(NC(=O)c2cccc(Br)c2)cc1

>  <score_type>  (10) 
oracle

>  <origin>  (10) 
adg

>  <m_score__min__energy>  (10) 
-9.7699999999999996

>  <m_primary>  (10) 
energy

$$$$
10:0
     RDKit          3D

 35 36  0  0  0  0  0  0  0  0999 V2000
   56.6020   30.6450   44.0940 C   0  0  0  0  0  0  0  0  0  0  0  0
   57.5650   29.4930   43.8110 C   0  0  0  0  0  0  0  0  0  0  0  0
   58.9270   29.6530   44.5070 C   0  0  0  0  0  0  0  0  0  0  0  0
   59.7890   28.3760   44.4870 C   0  0  0  0  0  0  0  0  0  0  0  0
   59.6080   27.5240   45.7200 C   0  0  0  0  0  0  0  0  0  0  0  0
   60.4690   27.5880   46.6400 O   0  0  0  0  0  0  0  0  0  0  0  0
   58.4710   26.5790   45.8520 C   0  0  0  0  0  0  0  0  0  0  0  0
   57.1480   27.0550   45.8520 C   0  0  0  0  0  0  0  0  0  0  0  0
   56.0700   26.1720   45.9700 C   0  0  0  0  0  0  0  0  0  0  0  0
   54.7770   26.6870   45.9980 O   0  0  0  0  0  0  0  0  0  0  0  0
   56.2970   24.7870   46.0760 C   0  0  0  0  0  0  0  0  0  0  0  0
   55.1700   23.8270   46.1880 C   0  0  0  0  0  0  0  0  0  0  0  0
   55.0520   22.9950   47.3120 C   0  0  0  0  0  0  0  0  0  0  0  0
   53.9930   22.0900   47.4040 C   0  0  0  0  0  0  0  0  0  0  0  0
   53.0620   22.0180   46.3670 C   0  0  0  0  0  0  0  0  0  0  0  0
   53.1920   22.8220   45.2790 N   0  0  0  0  0  0  0  0  0  0  0  0
   54.2120   23.7140   45.1660 C   0  0  0  0  0  0  0  0  0  0  0  0
   57.6180   24.3110   46.0750 C   0  0  0  0  0  0  0  0  0  0  0  0
   58.6960   25.1930   45.9630 C   0  0  0  0  0  0  0  0  0  0  0  0
   59.9900   24.6800   45.9780 O   0  0  0  0  0  0  0  0  0  0  0  0
   56.4941   30.7741   45.1811 H   0  0  0  0  0  0  0  0  0  0  0  0
   56.9984   31.5712   43.6523 H   0  0  0  0  0  0  0  0  0  0  0  0
   55.6202   30.4191   43.6523 H   0  0  0  0  0  0  0  0  0  0  0  0
   57.1026   28.5578   44.1597 H   0  0  0  0  0  0  0  0  0  0  0  0
   57.7523   29.4841   42.7271 H   0  0  0  0  0  0  0  0  0  0  0  0
   59.4835   30.4551   44.0001 H   0  0  0  0  0  0  0  0  0  0  0  0
   58.7223   29.8850   45.5626 H   0  0  0  0  0  0  0  0  0  0  0  0
   59.5122   27.7798   43.6050 H   0  0  0  0  0  0  0  0  0  0  0  0
   60.8427   28.6902   44.4554 H   0  0  0  0  0  0  0  0  0  0  0  0
   56.9587   28.1345   45.7581 H   0  0  0  0  0  0  0  0  0  0  0  0
   55.7946   23.0560   48.1212 H   0  0  0  0  0  0  0  0  0  0  0  0
   53.8934   21.4398   48.2856 H   0  0  0  0  0  0  0  0  0  0  0  0
   52.2224   21.3101   46.4302 H   0  0  0  0  0  0  0  0  0  0  0  0
   54.2876   24.3495   44.2713 H   0  0  0  0  0  0  0  0  0  0  0  0
   57.8065   23.2309   46.1634 H   0  0  0  0  0  0  0  0  0  0  0  0
  1  2  1  0
  2  3  1  0
  3  4  1  0
  4  5  1  0
  5  6  2  0
  5  7  1  0
  7  8  2  0
  8  9  1  0
  9 10  1  0
  9 11  2  0
 11 12  1  0
 12 13  2  0
 13 14  1  0
 14 15  2  0
 15 16  1  0
 16 17  2  0
 11 18  1  0
 18 19  2  0
 19 20  1  0
 19  7  1  0
 17 12  1  0
  1 21  1  0
  1 22  1  0
  1 23  1  0
  2 24  1  0
  2 25  1  0
  3 26  1  0
  3 27  1  0
  4 28  1  0
  4 29  1  0
  8 30  1  0
 13 31  1  0
 14 32  1  0
 15 33  1  0
 17 34  1  0
 18 35  1  0
M  CHG  2  10  -1  20  -1
M  END
>  <UniqueID>  (11) 
11

>  <SMILES>  (11) 
CCCCC(=O)c1cc([O-])c(-c2cccnc2)cc1[O-]

>  <Energy>  (11) 
42.119429880266345

>  <Genealogy>  (11) 
CCCCC(=O)c1cc([O-])c(-c2cccnc2)cc1[O-] (protonated)
CCCCC(=O)c1cc([O-])c(-c2cccnc2)cc1[O-] (3D coordinates assigned)
CCCCC(=O)c1cc([O-])c(-c2cccnc2)cc1[O-] (optimized conformer: 42.119429880266345 kcal/mol)

>  <smiles>  (11) 
CCCCC(=O)c1cc(O)c(-c2cccnc2)cc1O

>  <score_type>  (11) 
oracle

>  <origin>  (11) 
adg

>  <m_score__min__energy>  (11) 
-12.07

>  <m_primary>  (11) 
energy

$$$$
11:0
     RDKit          3D

 51 55  0  0  0  0  0  0  0  0999 V2000
   58.9400   24.6310   45.8020 C   0  0  0  0  0  0  0  0  0  0  0  0
   59.0290   25.9630   46.5550 C   0  0  0  0  0  0  0  0  0  0  0  0
   57.7990   26.1600   47.4480 C   0  0  0  0  0  0  0  0  0  0  0  0
   60.3640   26.1220   47.3310 C   0  0  0  0  0  0  0  0  0  0  0  0
   60.3880   27.3030   48.2230 N   0  0  0  0  0  0  0  0  0  0  0  0
   60.0800   28.5460   47.7280 C   0  0  0  0  0  0  0  0  0  0  0  0
   60.0860   29.6710   48.5670 C   0  0  0  0  0  0  0  0  0  0  0  0
   60.4110   29.4820   49.9190 C   0  0  0  0  0  0  0  0  0  0  0  0
   60.4220   30.4510   50.7220 O   0  0  0  0  0  0  0  0  0  0  0  0
   60.7290   28.2450   50.3680 N   0  0  0  0  0  0  0  0  0  0  0  0
   60.7330   27.1680   49.5460 C   0  0  0  0  0  0  0  0  0  0  0  0
   61.0630   26.0470   50.0190 O   0  0  0  0  0  0  0  0  0  0  0  0
   59.8350   31.0610   48.0080 C   0  0  1  0  0  0  0  0  0  0  0  0
   61.1470   31.8240   47.9590 C   0  0  0  0  0  0  0  0  0  0  0  0
   61.2750   33.0780   48.5870 C   0  0  0  0  0  0  0  0  0  0  0  0
   62.4800   33.7830   48.5220 C   0  0  0  0  0  0  0  0  0  0  0  0
   63.5670   33.2490   47.8260 C   0  0  0  0  0  0  0  0  0  0  0  0
   63.4480   32.0120   47.1870 C   0  0  0  0  0  0  0  0  0  0  0  0
   62.2450   31.3040   47.2480 C   0  0  0  0  0  0  0  0  0  0  0  0
   59.1780   31.0600   46.6290 C   0  0  0  0  0  0  0  0  0  0  0  0
   59.2240   29.8810   45.8560 C   0  0  0  0  0  0  0  0  0  0  0  0
   58.7360   29.8650   44.5500 C   0  0  0  0  0  0  0  0  0  0  0  0
   58.1790   31.0080   43.9880 C   0  0  0  0  0  0  0  0  0  0  0  0
   58.1040   32.1930   44.7290 C   0  0  0  0  0  0  0  0  0  0  0  0
   57.5390   33.3400   44.1490 C   0  0  0  0  0  0  0  0  0  0  0  0
   57.4650   34.5300   44.8720 C   0  0  0  0  0  0  0  0  0  0  0  0
   57.9500   34.5870   46.1760 C   0  0  0  0  0  0  0  0  0  0  0  0
   58.5140   33.4550   46.7690 C   0  0  0  0  0  0  0  0  0  0  0  0
   58.6040   32.2350   46.0590 C   0  0  0  0  0  0  0  0  0  0  0  0
   59.7420   28.6970   46.3810 O   0  0  0  0  0  0  0  0  0  0  0  0
   58.8847   23.8040   46.5252 H   0  0  0  0  0  0  0  0  0  0  0  0
   58.0395   24.6264   45.1702 H   0  0  0  0  0  0  0  0  0  0  0  0
   59.8318   24.5067   45.1702 H   0  0  0  0  0  0  0  0  0  0  0  0
   59.0297   26.7699   45.8074 H   0  0  0  0  0  0  0  0  0  0  0  0
   58.1014   26.1116   48.5045 H   0  0  0  0  0  0  0  0  0  0  0  0
   57.3485   27.1418   47.2402 H   0  0  0  0  0  0  0  0  0  0  0  0
   57.0644   25.3681   47.2402 H   0  0  0  0  0  0  0  0  0  0  0  0
   60.5220   25.2207   47.9414 H   0  0  0  0  0  0  0  0  0  0  0  0
   61.1592   26.2628   46.5841 H   0  0  0  0  0  0  0  0  0  0  0  0
   59.1207   31.5537   48.6841 H   0  0  0  0  0  0  0  0  0  0  0  0
   60.4207   33.5055   49.1324 H   0  0  0  0  0  0  0  0  0  0  0  0
   62.5725   34.7597   49.0196 H   0  0  0  0  0  0  0  0  0  0  0  0
   64.5167   33.8022   47.7809 H   0  0  0  0  0  0  0  0  0  0  0  0
   64.3031   31.5948   46.6349 H   0  0  0  0  0  0  0  0  0  0  0  0
   62.1553   30.3340   46.7371 H   0  0  0  0  0  0  0  0  0  0  0  0
   58.7923   28.9391   43.9587 H   0  0  0  0  0  0  0  0  0  0  0  0
   57.7958   30.9810   42.9572 H   0  0  0  0  0  0  0  0  0  0  0  0
   57.1530   33.2997   43.1197 H   0  0  0  0  0  0  0  0  0  0  0  0
   57.0226   35.4256   44.4113 H   0  0  0  0  0  0  0  0  0  0  0  0
   57.8887   35.5282   46.7420 H   0  0  0  0  0  0  0  0  0  0  0  0
   58.8926   33.5130   47.8002 H   0  0  0  0  0  0  0  0  0  0  0  0
  1  2  1  0
  2  3  1  0
  2  4  1  0
  4  5  1  0
  5  6  1  0
  6  7  2  0
  7  8  1  0
  8  9  2  0
  8 10  1  0
 10 11  1  0
 11 12  2  0
  7 13  1  0
 13 14  1  0
 14 15  2  0
 15 16  1  0
 16 17  2  0
 17 18  1  0
 18 19  2  0
 13 20  1  0
 20 21  2  0
 21 22  1  0
 22 23  2  0
 23 24  1  0
 24 25  2  0
 25 26  1  0
 26 27  2  0
 27 28  1  0
 28 29  2  0
 21 30  1  0
 11  5  1  0
 19 14  1  0
 29 20  1  0
 30  6  1  0
 29 24  1  0
  1 31  1  0
  1 32  1  0
  1 33  1  0
  2 34  1  0
  3 35  1  0
  3 36  1  0
  3 37  1  0
  4 38  1  0
  4 39  1  0
 13 40  1  1
 15 41  1  0
 16 42  1  0
 17 43  1  0
 18 44  1  0
 19 45  1  0
 22 46  1  0
 23 47  1  0
 25 48  1  0
 26 49  1  0
 27 50  1  0
 28 51  1  0
M  CHG  1  10  -1
M  END
>  <UniqueID>  (12) 
12

>  <SMILES>  (12) 
CC(C)Cn1c2c(c(=O)[n-]c1=O)[C@@H](c1ccccc1)c1c(ccc3ccccc13)O2

>  <Energy>  (12) 
66.06425968293303

>  <Genealogy>  (12) 
CC(C)Cn1c2c(c(=O)[n-]c1=O)C(c1ccccc1)c1c(ccc3ccccc13)O2 (protonated)
CC(C)Cn1c2c(c(=O)[n-]c1=O)[C@@H](c1ccccc1)c1c(ccc3ccccc13)O2 (chirality)
CC(C)Cn1c2c(c(=O)[n-]c1=O)[C@@H](c1ccccc1)c1c(ccc3ccccc13)O2 (3D coordinates assigned)
CC(C)Cn1c2c(c(=O)[n-]c1=O)[C@@H](c1ccccc1)c1c(ccc3ccccc13)O2 (nonaromatic ring conformer: 66.06425968293303 kcal/mol)

>  <smiles>  (12) 
CC(C)Cn1c2c(c(=O)[nH]c1=O)C(c1ccccc1)c1c(ccc3ccccc13)O2

>  <score_type>  (12) 
oracle

>  <origin>  (12) 
adg

>  <m_score__min__energy>  (12) 
-9.2100000000000009

>  <m_primary>  (12) 
energy

$$$$
12:0
     RDKit          3D

 24 26  0  0  0  0  0  0  0  0999 V2000
   57.2810   19.9110   46.1100 S   0  0  0  0  0  0  0  0  0  0  0  0
   57.1310   21.4310   46.6860 C   0  0  0  0  0  0  0  0  0  0  0  0
   57.3890   21.7810   47.9590 N   0  0  0  0  0  0  0  0  0  0  0  0
   57.1540   23.0820   48.0340 N   0  0  0  0  0  0  0  0  0  0  0  0
   56.7620   23.4680   46.8040 C   0  0  0  0  0  0  0  0  0  0  0  0
   56.3990   24.8420   46.4430 C   0  0  0  0  0  0  0  0  0  0  0  0
   57.2760   25.8630   46.1500 C   0  0  0  0  0  0  0  0  0  0  0  0
   56.4500   26.9340   45.8810 C   0  0  0  0  0  0  0  0  0  0  0  0
   56.8950   28.2940   45.4330 C   0  0  1  0  0  0  0  0  0  0  0  0
   57.7040   28.2160   44.1500 C   0  0  0  0  0  0  0  0  0  0  0  0
   57.3840   29.5170   43.4850 C   0  0  0  0  0  0  0  0  0  0  0  0
   56.0060   29.8500   44.0280 C   0  0  0  0  0  0  0  0  0  0  0  0
   55.7760   29.1240   45.2160 O   0  0  0  0  0  0  0  0  0  0  0  0
   55.1610   26.5560   45.9890 N   0  0  0  0  0  0  0  0  0  0  0  0
   55.1300   25.2790   46.3400 N   0  0  0  0  0  0  0  0  0  0  0  0
   56.7450   22.4570   45.9680 O   0  0  0  0  0  0  0  0  0  0  0  0
   58.3754   25.8315   46.1343 H   0  0  0  0  0  0  0  0  0  0  0  0
   57.5286   28.7140   46.2281 H   0  0  0  0  0  0  0  0  0  0  0  0
   58.7799   28.1327   44.3631 H   0  0  0  0  0  0  0  0  0  0  0  0
   57.4635   27.3377   43.5330 H   0  0  0  0  0  0  0  0  0  0  0  0
   58.1149   30.2917   43.7602 H   0  0  0  0  0  0  0  0  0  0  0  0
   57.4146   29.4609   42.3869 H   0  0  0  0  0  0  0  0  0  0  0  0
   55.9471   30.9277   44.2406 H   0  0  0  0  0  0  0  0  0  0  0  0
   55.2446   29.5792   43.2817 H   0  0  0  0  0  0  0  0  0  0  0  0
  1  2  2  0
  2  3  1  0
  3  4  1  0
  4  5  2  0
  5  6  1  0
  6  7  1  0
  7  8  2  0
  8  9  1  0
  9 10  1  0
 10 11  1  0
 11 12  1  0
 12 13  1  0
  8 14  1  0
 14 15  1  0
  5 16  1  0
 16  2  1  0
 15  6  2  0
 13  9  1  0
  7 17  1  0
  9 18  1  1
 10 19  1  0
 10 20  1  0
 11 21  1  0
 11 22  1  0
 12 23  1  0
 12 24  1  0
M  CHG  2   3  -1  14  -1
M  END
>  <UniqueID>  (13) 
13

>  <SMILES>  (13) 
S=c1[n-]nc(-c2cc([C@H]3CCCO3)[n-]n2)o1

>  <Energy>  (13) 
87.73711072807059

>  <Genealogy>  (13) 
S=c1[n-]nc(-c2cc(C3CCCO3)[n-]n2)o1 (protonated)
S=c1[n-]nc(-c2cc([C@H]3CCCO3)[n-]n2)o1 (chirality)
S=c1[n-]nc(-c2cc([C@H]3CCCO3)[n-]n2)o1 (3D coordinates assigned)
S=c1[n-]nc(-c2cc([C@H]3CCCO3)[n-]n2)o1 (nonaromatic ring conformer: 87.73711072807059 kcal/mol)

>  <smiles>  (13) 
S=c1[nH]nc(-c2cc(C3CCCO3)[nH]n2)o1

>  <score_type>  (13) 
oracle

>  <origin>  (13) 
adg

>  <m_score__min__energy>  (13) 
-11.109999999999999

>  <m_primary>  (13) 
energy

$$$$
13:0
     RDKit          3D

 36 39  0  0  0  0  0  0  0  0999 V2000
   57.0700   34.7160   44.8430 O   0  0  0  0  0  0  0  0  0  0  0  0
   57.8340   33.7290   45.0100 C   0  0  0  0  0  0  0  0  0  0  0  0
   57.7060   32.6060   44.1250 N   0  0  0  0  0  0  0  0  0  0  0  0
   57.4390   31.2510   44.5110 C   0  0  0  0  0  0  0  0  0  0  0  0
   58.4020   30.5540   45.2490 C   0  0  0  0  0  0  0  0  0  0  0  0
   58.1780   29.2300   45.6370 C   0  0  0  0  0  0  0  0  0  0  0  0
   56.9870   28.5770   45.2770 C   0  0  0  0  0  0  0  0  0  0  0  0
   56.7410   27.1800   45.6860 C   0  0  0  0  0  0  0  0  0  0  0  0
   55.5290   26.6790   45.9980 N   0  0  0  0  0  0  0  0  0  0  0  0
   55.7240   25.4080   46.3080 N   0  0  0  0  0  0  0  0  0  0  0  0
   57.0430   25.1770   46.1750 C   0  0  0  0  0  0  0  0  0  0  0  0
   57.6720   26.2620   45.7930 O   0  0  0  0  0  0  0  0  0  0  0  0
   56.0320   29.2680   44.5140 C   0  0  0  0  0  0  0  0  0  0  0  0
   56.2580   30.5920   44.1270 C   0  0  0  0  0  0  0  0  0  0  0  0
   58.8680   33.7800   46.0700 C   0  0  0  0  0  0  0  0  0  0  0  0
   58.4850   33.8410   47.4210 C   0  0  0  0  0  0  0  0  0  0  0  0
   59.4480   33.8850   48.4330 C   0  0  0  0  0  0  0  0  0  0  0  0
   60.8110   33.8760   48.1090 C   0  0  0  0  0  0  0  0  0  0  0  0
   61.7870   33.9150   49.1180 C   0  0  0  0  0  0  0  0  0  0  0  0
   63.1440   33.9110   48.7820 C   0  0  0  0  0  0  0  0  0  0  0  0
   63.5370   33.8680   47.4410 C   0  0  0  0  0  0  0  0  0  0  0  0
   62.5750   33.8300   46.4280 C   0  0  0  0  0  0  0  0  0  0  0  0
   61.2090   33.8330   46.7520 C   0  0  0  0  0  0  0  0  0  0  0  0
   60.2350   33.7940   45.7430 C   0  0  0  0  0  0  0  0  0  0  0  0
   59.3429   31.0520   45.5260 H   0  0  0  0  0  0  0  0  0  0  0  0
   58.9378   28.6966   46.2271 H   0  0  0  0  0  0  0  0  0  0  0  0
   57.5284   24.2077   46.3618 H   0  0  0  0  0  0  0  0  0  0  0  0
   55.0998   28.7640   44.2189 H   0  0  0  0  0  0  0  0  0  0  0  0
   55.5087   31.1205   43.5194 H   0  0  0  0  0  0  0  0  0  0  0  0
   57.4171   33.8542   47.6844 H   0  0  0  0  0  0  0  0  0  0  0  0
   59.1349   33.9268   49.4867 H   0  0  0  0  0  0  0  0  0  0  0  0
   61.4832   33.9488   50.1747 H   0  0  0  0  0  0  0  0  0  0  0  0
   63.9052   33.9418   49.5755 H   0  0  0  0  0  0  0  0  0  0  0  0
   64.6062   33.8641   47.1826 H   0  0  0  0  0  0  0  0  0  0  0  0
   62.8889   33.7977   45.3742 H   0  0  0  0  0  0  0  0  0  0  0  0
   60.5436   33.7742   44.6874 H   0  0  0  0  0  0  0  0  0  0  0  0
  1  2  2  0
  2  3  1  0
  3  4  1  0
  4  5  2  0
  5  6  1  0
  6  7  2  0
  7  8  1  0
  8  9  2  0
  9 10  1  0
 10 11  2  0
 11 12  1  0
  7 13  1  0
 13 14  2  0
  2 15  1  0
 15 16  2  0
 16 17  1  0
 17 18  2  0
 18 19  1  0
 19 20  2  0
 20 21  1  0
 21 22  2  0
 22 23  1  0
 23 24  2  0
 14  4  1  0
 24 15  1  0
 12  8  1  0
 23 18  1  0
  5 25  1  0
  6 26  1  0
 11 27  1  0
 13 28  1  0
 14 29  1  0
 16 30  1  0
 17 31  1  0
 19 32  1  0
 20 33  1  0
 21 34  1  0
 22 35  1  0
 24 36  1  0
M  CHG  1   3  -1
M  END
>  <UniqueID>  (14) 
14

>  <SMILES>  (14) 
O=C([N-]c1ccc(-c2nnco2)cc1)c1ccc2ccccc2c1

>  <Energy>  (14) 
85.06741669078943

>  <Genealogy>  (14) 
O=C([N-]c1ccc(-c2nnco2)cc1)c1ccc2ccccc2c1 (protonated)
O=C([N-]c1ccc(-c2nnco2)cc1)c1ccc2ccccc2c1 (3D coordinates assigned)
O=C([N-]c1ccc(-c2nnco2)cc1)c1ccc2ccccc2c1 (optimized conformer: 85.06741669078943 kcal/mol)

>  <smiles>  (14) 
O=C(Nc1ccc(-c2nnco2)cc1)c1ccc2ccccc2c1

>  <score_type>  (14) 
oracle

>  <origin>  (14) 
adg

>  <m_score__min__energy>  (14) 
-10.779999999999999

>  <m_primary>  (14) 
energy

$$$$
14:0
     RDKit          3D

 48 49  0  0  0  0  0  0  0  0999 V2000
   61.4090   34.2160   48.4760 C   0  0  0  0  0  0  0  0  0  0  0  0
   61.2530   34.2200   47.0600 O   0  0  0  0  0  0  0  0  0  0  0  0
   60.0680   33.8840   46.3820 C   0  0  0  0  0  0  0  0  0  0  0  0
   59.2840   34.8670   45.7510 C   0  0  0  0  0  0  0  0  0  0  0  0
   58.0980   34.5200   45.1090 C   0  0  0  0  0  0  0  0  0  0  0  0
   57.6790   33.1940   45.0810 C   0  0  0  0  0  0  0  0  0  0  0  0
   58.4380   32.1890   45.7010 C   0  0  0  0  0  0  0  0  0  0  0  0
   58.0090   30.8190   45.6160 N   0  0  0  0  0  0  0  0  0  0  0  0
   57.0350   30.2250   44.3080 S   0  0  0  0  0  0  0  0  0  0  0  0
   55.6070   30.1050   44.7570 O   0  0  0  0  0  0  0  0  0  0  0  0
   57.1080   31.1950   43.1640 O   0  0  0  0  0  0  0  0  0  0  0  0
   57.6280   28.6320   43.7500 C   0  0  0  0  0  0  0  0  0  0  0  0
   57.9590   27.7220   44.9370 C   0  0  0  0  0  0  0  0  0  0  0  0
   59.0570   28.3000   45.7410 N   0  0  0  0  0  0  0  0  0  0  0  0
   59.4670   27.3620   46.7980 C   0  0  0  0  0  0  0  0  0  0  0  0
   60.2210   28.6150   44.8900 C   0  0  0  0  0  0  0  0  0  0  0  0
   59.6490   32.5330   46.3550 C   0  0  0  0  0  0  0  0  0  0  0  0
   60.4570   31.5020   47.0480 C   0  0  0  0  0  0  0  0  0  0  0  0
   61.7060   31.4690   46.8830 O   0  0  0  0  0  0  0  0  0  0  0  0
   59.8080   30.5090   47.8540 N   0  0  0  0  0  0  0  0  0  0  0  0
   59.1360   30.7280   49.1030 C   0  0  0  0  0  0  0  0  0  0  0  0
   58.7690   32.0360   49.4470 C   0  0  0  0  0  0  0  0  0  0  0  0
   58.1310   32.2950   50.6640 C   0  0  0  0  0  0  0  0  0  0  0  0
   57.8700   31.2490   51.5550 C   0  0  0  0  0  0  0  0  0  0  0  0
   57.0720   31.5750   53.0830 Cl  0  0  0  0  0  0  0  0  0  0  0  0
   58.2560   29.9440   51.2300 C   0  0  0  0  0  0  0  0  0  0  0  0
   58.8930   29.6830   50.0130 C   0  0  0  0  0  0  0  0  0  0  0  0
   60.4186   34.2414   48.9541 H   0  0  0  0  0  0  0  0  0  0  0  0
   61.9414   33.3039   48.7837 H   0  0  0  0  0  0  0  0  0  0  0  0
   61.9874   35.0996   48.7837 H   0  0  0  0  0  0  0  0  0  0  0  0
   59.6102   35.9174   45.7648 H   0  0  0  0  0  0  0  0  0  0  0  0
   57.4904   35.2972   44.6224 H   0  0  0  0  0  0  0  0  0  0  0  0
   56.7427   32.9300   44.5675 H   0  0  0  0  0  0  0  0  0  0  0  0
   58.1930   30.1660   46.4100 H   0  0  0  0  0  0  0  0  0  0  0  0
   56.8505   28.1538   43.1361 H   0  0  0  0  0  0  0  0  0  0  0  0
   58.5441   28.7862   43.1609 H   0  0  0  0  0  0  0  0  0  0  0  0
   57.0658   27.6125   45.5696 H   0  0  0  0  0  0  0  0  0  0  0  0
   58.2756   26.7400   44.5556 H   0  0  0  0  0  0  0  0  0  0  0  0
   59.2708   27.8109   47.7829 H   0  0  0  0  0  0  0  0  0  0  0  0
   58.8954   26.4272   46.7006 H   0  0  0  0  0  0  0  0  0  0  0  0
   60.5413   27.1467   46.7006 H   0  0  0  0  0  0  0  0  0  0  0  0
   61.0874   28.8495   45.5259 H   0  0  0  0  0  0  0  0  0  0  0  0
   60.4562   27.7482   44.2549 H   0  0  0  0  0  0  0  0  0  0  0  0
   59.9870   29.4821   44.2549 H   0  0  0  0  0  0  0  0  0  0  0  0
   58.9841   32.8639   48.7555 H   0  0  0  0  0  0  0  0  0  0  0  0
   57.8341   33.3225   50.9209 H   0  0  0  0  0  0  0  0  0  0  0  0
   58.0579   29.1217   51.9333 H   0  0  0  0  0  0  0  0  0  0  0  0
   59.2051   28.6575   49.7663 H   0  0  0  0  0  0  0  0  0  0  0  0
  1  2  1  0
  2  3  1  0
  3  4  2  0
  4  5  1  0
  5  6  2  0
  6  7  1  0
  7  8  1  0
  8  9  1  0
  9 10  2  0
  9 11  2  0
  9 12  1  0
 12 13  1  0
 13 14  1  0
 14 15  1  0
 14 16  1  0
  7 17  2  0
 17 18  1  0
 18 19  2  0
 18 20  1  0
 20 21  1  0
 21 22  2  0
 22 23  1  0
 23 24  2  0
 24 25  1  0
 24 26  1  0
 26 27  2  0
 17  3  1  0
 27 21  1  0
  1 28  1  0
  1 29  1  0
  1 30  1  0
  4 31  1  0
  5 32  1  0
  6 33  1  0
  8 34  1  0
 12 35  1  0
 12 36  1  0
 13 37  1  0
 13 38  1  0
 15 39  1  0
 15 40  1  0
 15 41  1  0
 16 42  1  0
 16 43  1  0
 16 44  1  0
 22 45  1  0
 23 46  1  0
 26 47  1  0
 27 48  1  0
M  CHG  1  20  -1
M  END
>  <UniqueID>  (15) 
15

>  <SMILES>  (15) 
COc1cccc(NS(=O)(=O)CCN(C)C)c1C(=O)[N-]c1ccc(Cl)cc1

>  <Energy>  (15) 
53.73400693872341

>  <Genealogy>  (15) 
COc1cccc(NS(=O)(=O)CCN(C)C)c1C(=O)[N-]c1ccc(Cl)cc1 (protonated)
COc1cccc(NS(=O)(=O)CCN(C)C)c1C(=O)[N-]c1ccc(Cl)cc1 (3D coordinates assigned)
COc1cccc(NS(=O)(=O)CCN(C)C)c1C(=O)[N-]c1ccc(Cl)cc1 (optimized conformer: 53.73400693872341 kcal/mol)

>  <smiles>  (15) 
COc1cccc(NS(=O)(=O)CCN(C)C)c1C(=O)Nc1ccc(Cl)cc1

>  <score_type>  (15) 
oracle

>  <origin>  (15) 
adg

>  <m_score__min__energy>  (15) 
-9.2100000000000009

>  <m_primary>  (15) 
energy

$$$$
15:0
     RDKit          3D

 31 33  0  0  0  0  0  0  0  0999 V2000
   60.7790   34.9960   48.1970 O   0  0  0  0  0  0  0  0  0  0  0  0
   60.0190   34.9070   47.1960 C   0  0  0  0  0  0  0  0  0  0  0  0
   59.8090   36.0330   46.4080 O   0  0  0  0  0  0  0  0  0  0  0  0
   59.3070   33.6420   46.9140 C   0  0  0  0  0  0  0  0  0  0  0  0
   58.6630   33.4920   45.6750 C   0  0  0  0  0  0  0  0  0  0  0  0
   58.0440   32.2890   45.3320 C   0  0  0  0  0  0  0  0  0  0  0  0
   58.0560   31.2000   46.2170 C   0  0  0  0  0  0  0  0  0  0  0  0
   57.4230   29.9600   45.8400 N   0  0  0  0  0  0  0  0  0  0  0  0
   57.7910   28.7050   46.1700 C   0  0  0  0  0  0  0  0  0  0  0  0
   56.8820   27.8540   45.5660 C   0  0  0  0  0  0  0  0  0  0  0  0
   56.8540   26.3680   45.6210 C   0  0  0  0  0  0  0  0  0  0  0  0
   58.0440   25.6270   45.4640 C   0  0  0  0  0  0  0  0  0  0  0  0
   58.0270   24.2310   45.5110 C   0  0  0  0  0  0  0  0  0  0  0  0
   56.8270   23.5500   45.7140 C   0  0  0  0  0  0  0  0  0  0  0  0
   55.6390   24.2650   45.8710 C   0  0  0  0  0  0  0  0  0  0  0  0
   55.6430   25.6640   45.8260 C   0  0  0  0  0  0  0  0  0  0  0  0
   54.4380   26.3370   45.9920 O   0  0  0  0  0  0  0  0  0  0  0  0
   55.9960   28.6150   44.8910 N   0  0  0  0  0  0  0  0  0  0  0  0
   56.3470   29.8790   45.0710 N   0  0  0  0  0  0  0  0  0  0  0  0
   58.6780   31.3540   47.4690 C   0  0  0  0  0  0  0  0  0  0  0  0
   59.2820   32.5640   47.8320 C   0  0  0  0  0  0  0  0  0  0  0  0
   59.8080   32.6660   49.1220 O   0  0  0  0  0  0  0  0  0  0  0  0
   58.6462   34.3330   44.9662 H   0  0  0  0  0  0  0  0  0  0  0  0
   57.5416   32.1935   44.3581 H   0  0  0  0  0  0  0  0  0  0  0  0
   58.6468   28.4145   46.7970 H   0  0  0  0  0  0  0  0  0  0  0  0
   58.9958   26.1543   45.3028 H   0  0  0  0  0  0  0  0  0  0  0  0
   58.9633   23.6669   45.3875 H   0  0  0  0  0  0  0  0  0  0  0  0
   56.8170   22.4506   45.7503 H   0  0  0  0  0  0  0  0  0  0  0  0
   54.6936   23.7259   46.0311 H   0  0  0  0  0  0  0  0  0  0  0  0
   58.6902   30.5102   48.1745 H   0  0  0  0  0  0  0  0  0  0  0  0
   60.3680   33.4460   49.4340 H   0  0  0  0  0  0  0  0  0  0  0  0
  1  2  2  0
  2  3  1  0
  2  4  1  0
  4  5  2  0
  5  6  1  0
  6  7  2  0
  7  8  1  0
  8  9  1  0
  9 10  2  0
 10 11  1  0
 11 12  2  0
 12 13  1  0
 13 14  2  0
 14 15  1  0
 15 16  2  0
 16 17  1  0
 10 18  1  0
 18 19  2  0
  7 20  1  0
 20 21  2  0
 21 22  1  0
 21  4  1  0
 19  8  1  0
 16 11  1  0
  5 23  1  0
  6 24  1  0
  9 25  1  0
 12 26  1  0
 13 27  1  0
 14 28  1  0
 15 29  1  0
 20 30  1  0
 22 31  1  0
M  CHG  2   3  -1  17  -1
M  END
>  <UniqueID>  (16) 
16

>  <SMILES>  (16) 
O=C([O-])c1ccc(-n2cc(-c3ccccc3[O-])nn2)cc1O

>  <Energy>  (16) 
80.16942771392392

>  <Genealogy>  (16) 
O=C([O-])c1ccc(-n2cc(-c3ccccc3[O-])nn2)cc1O (protonated)
O=C([O-])c1ccc(-n2cc(-c3ccccc3[O-])nn2)cc1O (3D coordinates assigned)
O=C([O-])c1ccc(-n2cc(-c3ccccc3[O-])nn2)cc1O (optimized conformer: 80.16942771392392 kcal/mol)

>  <smiles>  (16) 
O=C(O)c1ccc(-n2cc(-c3ccccc3O)nn2)cc1O

>  <score_type>  (16) 
oracle

>  <origin>  (16) 
adg

>  <m_score__min__energy>  (16) 
-11.66

>  <m_primary>  (16) 
energy

$$$$
16:0
     RDKit          3D

 34 36  0  0  0  0  0  0  0  0999 V2000
   55.4720   29.1030   44.8720 N   0  0  0  0  0  0  0  0  0  0  0  0
   56.7330   29.6820   43.8440 S   0  0  0  0  0  0  0  0  0  0  0  0
   57.1340   28.6000   42.8810 O   0  0  0  0  0  0  0  0  0  0  0  0
   56.2350   30.8630   43.0600 O   0  0  0  0  0  0  0  0  0  0  0  0
   58.1190   30.1530   44.8210 C   0  0  0  0  0  0  0  0  0  0  0  0
   59.0830   29.2020   45.1800 C   0  0  0  0  0  0  0  0  0  0  0  0
   60.1770   29.5730   45.9670 C   0  0  0  0  0  0  0  0  0  0  0  0
   60.3280   30.9000   46.3980 C   0  0  0  0  0  0  0  0  0  0  0  0
   61.4500   31.2500   47.2260 N   0  0  0  0  0  0  0  0  0  0  0  0
   62.0040   32.5750   47.3050 C   0  0  0  0  0  0  0  0  0  0  0  0
   61.7510   33.4190   46.4040 O   0  0  0  0  0  0  0  0  0  0  0  0
   62.9060   32.9520   48.4090 C   0  0  0  0  0  0  0  0  0  0  0  0
   62.5680   33.7500   49.5030 C   0  0  0  0  0  0  0  0  0  0  0  0
   63.7220   33.8380   50.2500 C   0  0  0  0  0  0  0  0  0  0  0  0
   63.9800   34.5070   51.4440 C   0  0  0  0  0  0  0  0  0  0  0  0
   65.2790   34.4200   51.9800 C   0  0  0  0  0  0  0  0  0  0  0  0
   65.6610   35.2410   53.4820 Cl  0  0  0  0  0  0  0  0  0  0  0  0
   66.2770   33.6730   51.3110 C   0  0  0  0  0  0  0  0  0  0  0  0
   65.9850   33.0100   50.1050 C   0  0  0  0  0  0  0  0  0  0  0  0
   64.6890   33.1160   49.6020 C   0  0  0  0  0  0  0  0  0  0  0  0
   64.2050   32.5700   48.4740 N   0  0  0  0  0  0  0  0  0  0  0  0
   59.3420   31.8440   46.0600 C   0  0  0  0  0  0  0  0  0  0  0  0
   58.2480   31.4730   45.2730 C   0  0  0  0  0  0  0  0  0  0  0  0
   55.5490   28.0610   44.8930 H   0  0  0  0  0  0  0  0  0  0  0  0
   58.9787   28.1605   44.8417 H   0  0  0  0  0  0  0  0  0  0  0  0
   60.9257   28.8187   46.2508 H   0  0  0  0  0  0  0  0  0  0  0  0
   61.9520   30.4770   47.7180 H   0  0  0  0  0  0  0  0  0  0  0  0
   61.5924   34.2088   49.7212 H   0  0  0  0  0  0  0  0  0  0  0  0
   63.1939   35.0849   51.9521 H   0  0  0  0  0  0  0  0  0  0  0  0
   67.2892   33.6101   51.7371 H   0  0  0  0  0  0  0  0  0  0  0  0
   66.7538   32.4273   49.5764 H   0  0  0  0  0  0  0  0  0  0  0  0
   64.7260   31.9760   47.7920 H   0  0  0  0  0  0  0  0  0  0  0  0
   59.4322   32.8805   46.4171 H   0  0  0  0  0  0  0  0  0  0  0  0
   57.4855   32.2201   45.0075 H   0  0  0  0  0  0  0  0  0  0  0  0
  1  2  1  0
  2  3  2  0
  2  4  2  0
  2  5  1  0
  5  6  2  0
  6  7  1  0
  7  8  2  0
  8  9  1  0
  9 10  1  0
 10 11  2  0
 10 12  1  0
 12 13  2  0
 13 14  1  0
 14 15  2  0
 15 16  1  0
 16 17  1  0
 16 18  2  0
 18 19  1  0
 19 20  2  0
 20 21  1  0
  8 22  1  0
 22 23  2  0
 23  5  1  0
 21 12  1  0
 20 14  1  0
  1 24  1  0
  6 25  1  0
  7 26  1  0
  9 27  1  0
 13 28  1  0
 15 29  1  0
 18 30  1  0
 19 31  1  0
 21 32  1  0
 22 33  1  0
 23 34  1  0
M  CHG  1   1  -1
M  END
>  <UniqueID>  (17) 
17

>  <SMILES>  (17) 
[NH-]S(=O)(=O)c1ccc(NC(=O)c2cc3cc(Cl)ccc3[nH]2)cc1

>  <Energy>  (17) 
72.16191012424304

>  <Genealogy>  (17) 
[NH-]S(=O)(=O)c1ccc(NC(=O)c2cc3cc(Cl)ccc3[nH]2)cc1 (protonated)
[NH-]S(=O)(=O)c1ccc(NC(=O)c2cc3cc(Cl)ccc3[nH]2)cc1 (3D coordinates assigned)
[NH-]S(=O)(=O)c1ccc(NC(=O)c2cc3cc(Cl)ccc3[nH]2)cc1 (optimized conformer: 72.16191012424304 kcal/mol)

>  <smiles>  (17) 
NS(=O)(=O)c1ccc(NC(=O)c2cc3cc(Cl)ccc3[nH]2)cc1

>  <score_type>  (17) 
oracle

>  <origin>  (17) 
adg

>  <m_score__min__energy>  (17) 
-10.07

>  <m_primary>  (17) 
energy

$$$$
17:0
     RDKit          3D

 42 45  0  0  0  0  0  0  0  0999 V2000
   58.0240   21.6570   44.1700 C   0  0  0  0  0  0  0  0  0  0  0  0
   56.2650   21.8920   44.0500 S   0  0  0  0  0  0  0  0  0  0  0  0
   55.5710   20.6340   44.4870 O   0  0  0  0  0  0  0  0  0  0  0  0
   55.9080   22.2080   42.6250 O   0  0  0  0  0  0  0  0  0  0  0  0
   55.8030   23.2090   45.0790 N   0  0  0  0  0  0  0  0  0  0  0  0
   56.4820   24.4700   45.1620 C   0  0  0  0  0  0  0  0  0  0  0  0
   57.7960   24.6450   44.6950 C   0  0  0  0  0  0  0  0  0  0  0  0
   58.4200   25.8920   44.7970 C   0  0  0  0  0  0  0  0  0  0  0  0
   57.7390   26.9850   45.3530 C   0  0  0  0  0  0  0  0  0  0  0  0
   58.4120   28.2520   45.4660 N   0  0  0  0  0  0  0  0  0  0  0  0
   57.7300   29.5110   45.5870 C   0  0  0  0  0  0  0  0  0  0  0  0
   56.5220   29.6100   45.2410 O   0  0  0  0  0  0  0  0  0  0  0  0
   58.4370   30.7110   46.0680 C   0  0  0  0  0  0  0  0  0  0  0  0
   59.7370   30.7620   46.5740 C   0  0  0  0  0  0  0  0  0  0  0  0
   60.1210   32.0560   46.9610 C   0  0  0  0  0  0  0  0  0  0  0  0
   59.1240   32.9980   46.7810 C   0  0  0  0  0  0  0  0  0  0  0  0
   57.7720   32.2620   46.1100 S   0  0  0  0  0  0  0  0  0  0  0  0
   59.3190   34.4610   47.0280 C   0  0  0  0  0  0  0  0  0  0  0  0
   60.4710   34.7000   47.8490 O   0  0  0  0  0  0  0  0  0  0  0  0
   61.5440   33.8000   47.9750 C   0  0  0  0  0  0  0  0  0  0  0  0
   62.7380   34.2300   48.5660 C   0  0  0  0  0  0  0  0  0  0  0  0
   63.8120   33.3460   48.7020 C   0  0  0  0  0  0  0  0  0  0  0  0
   63.6960   32.0280   48.2540 C   0  0  0  0  0  0  0  0  0  0  0  0
   62.5040   31.5830   47.6740 C   0  0  0  0  0  0  0  0  0  0  0  0
   61.4180   32.4660   47.5340 C   0  0  0  0  0  0  0  0  0  0  0  0
   56.4330   26.8030   45.8390 C   0  0  0  0  0  0  0  0  0  0  0  0
   55.8100   25.5550   45.7370 C   0  0  0  0  0  0  0  0  0  0  0  0
   58.3173   21.6178   45.2295 H   0  0  0  0  0  0  0  0  0  0  0  0
   58.3024   20.7137   43.6774 H   0  0  0  0  0  0  0  0  0  0  0  0
   58.5402   22.4942   43.6774 H   0  0  0  0  0  0  0  0  0  0  0  0
   58.3357   23.7974   44.2474 H   0  0  0  0  0  0  0  0  0  0  0  0
   59.4525   26.0169   44.4386 H   0  0  0  0  0  0  0  0  0  0  0  0
   59.4510   28.2620   45.3490 H   0  0  0  0  0  0  0  0  0  0  0  0
   60.3912   29.8819   46.6604 H   0  0  0  0  0  0  0  0  0  0  0  0
   59.4534   34.9728   46.0636 H   0  0  0  0  0  0  0  0  0  0  0  0
   58.4321   34.8468   47.5519 H   0  0  0  0  0  0  0  0  0  0  0  0
   62.8311   35.2659   48.9241 H   0  0  0  0  0  0  0  0  0  0  0  0
   64.7503   33.6887   49.1626 H   0  0  0  0  0  0  0  0  0  0  0  0
   64.5458   31.3374   48.3579 H   0  0  0  0  0  0  0  0  0  0  0  0
   62.4156   30.5428   47.3273 H   0  0  0  0  0  0  0  0  0  0  0  0
   55.8984   27.6457   46.3016 H   0  0  0  0  0  0  0  0  0  0  0  0
   54.7839   25.4250   46.1115 H   0  0  0  0  0  0  0  0  0  0  0  0
  1  2  1  0
  2  3  2  0
  2  4  2  0
  2  5  1  0
  5  6  1  0
  6  7  2  0
  7  8  1  0
  8  9  2  0
  9 10  1  0
 10 11  1  0
 11 12  2  0
 11 13  1  0
 13 14  2  0
 14 15  1  0
 15 16  2  0
 16 17  1  0
 16 18  1  0
 18 19  1  0
 19 20  1  0
 20 21  2  0
 21 22  1  0
 22 23  2  0
 23 24  1  0
 24 25  2  0
  9 26  1  0
 26 27  2  0
 27  6  1  0
 17 13  1  0
 25 20  1  0
 25 15  1  0
  1 28  1  0
  1 29  1  0
  1 30  1  0
  7 31  1  0
  8 32  1  0
 10 33  1  0
 14 34  1  0
 18 35  1  0
 18 36  1  0
 21 37  1  0
 22 38  1  0
 23 39  1  0
 24 40  1  0
 26 41  1  0
 27 42  1  0
M  CHG  1   5  -1
M  END
>  <UniqueID>  (18) 
18

>  <SMILES>  (18) 
CS(=O)(=O)[N-]c1ccc(NC(=O)c2cc3c(s2)COc2ccccc2-3)cc1

>  <Energy>  (18) 
80.84628174587004

>  <Genealogy>  (18) 
CS(=O)(=O)[N-]c1ccc(NC(=O)c2cc3c(s2)COc2ccccc2-3)cc1 (protonated)
CS(=O)(=O)[N-]c1ccc(NC(=O)c2cc3c(s2)COc2ccccc2-3)cc1 (3D coordinates assigned)
CS(=O)(=O)[N-]c1ccc(NC(=O)c2cc3c(s2)COc2ccccc2-3)cc1 (nonaromatic ring conformer: 80.84628174587004 kcal/mol)

>  <smiles>  (18) 
CS(=O)(=O)Nc1ccc(NC(=O)c2cc3c(s2)COc2ccccc2-3)cc1

>  <score_type>  (18) 
oracle

>  <origin>  (18) 
adg

>  <m_score__min__energy>  (18) 
-10.300000000000001

>  <m_primary>  (18) 
energy

$$$$
18:0
     RDKit          3D

 48 51  0  0  0  0  0  0  0  0999 V2000
   52.5490   22.2130   47.9080 C   0  0  0  0  0  0  0  0  0  0  0  0
   53.7220   22.5740   47.1520 N   0  0  0  0  0  0  0  0  0  0  0  0
   53.6950   22.9370   45.7760 C   0  0  0  0  0  0  0  0  0  0  0  0
   52.5920   22.9520   45.1600 O   0  0  0  0  0  0  0  0  0  0  0  0
   54.9600   23.2870   45.1080 C   0  0  0  0  0  0  0  0  0  0  0  0
   55.5180   24.5190   45.3850 C   0  0  0  0  0  0  0  0  0  0  0  0
   56.6930   24.8510   44.7690 C   0  0  0  0  0  0  0  0  0  0  0  0
   57.3720   26.1420   44.9960 C   0  0  0  0  0  0  0  0  0  0  0  0
   56.7560   27.3180   45.2200 N   0  0  0  0  0  0  0  0  0  0  0  0
   57.6660   28.2950   45.3860 C   0  0  0  0  0  0  0  0  0  0  0  0
   57.5580   29.6380   45.6340 C   0  0  0  0  0  0  0  0  0  0  0  0
   58.6560   30.4760   45.7720 C   0  0  0  0  0  0  0  0  0  0  0  0
   58.5310   31.8700   46.0290 N   0  0  0  0  0  0  0  0  0  0  0  0
   57.7750   32.6650   45.1080 C   0  0  0  0  0  0  0  0  0  0  0  0
   57.4010   34.0230   45.6200 C   0  0  0  0  0  0  0  0  0  0  0  0
   58.5140   34.5860   46.3160 N   0  0  0  0  0  0  0  0  0  0  0  0
   59.6460   34.8640   45.4800 C   0  0  0  0  0  0  0  0  0  0  0  0
   58.8290   33.8230   47.4860 C   0  0  0  0  0  0  0  0  0  0  0  0
   59.1850   32.3870   47.2150 C   0  0  0  0  0  0  0  0  0  0  0  0
   59.8960   29.8630   45.6400 C   0  0  0  0  0  0  0  0  0  0  0  0
   60.0220   28.5090   45.3900 C   0  0  0  0  0  0  0  0  0  0  0  0
   58.9040   27.7090   45.2600 C   0  0  0  0  0  0  0  0  0  0  0  0
   58.6960   26.3870   45.0210 N   0  0  0  0  0  0  0  0  0  0  0  0
   57.2770   23.9480   43.8960 C   0  0  0  0  0  0  0  0  0  0  0  0
   56.7010   22.7220   43.6340 C   0  0  0  0  0  0  0  0  0  0  0  0
   55.5430   22.4120   44.2510 N   0  0  0  0  0  0  0  0  0  0  0  0
   52.7705   22.2812   48.9833 H   0  0  0  0  0  0  0  0  0  0  0  0
   51.7265   22.8996   47.6588 H   0  0  0  0  0  0  0  0  0  0  0  0
   52.2549   21.1828   47.6588 H   0  0  0  0  0  0  0  0  0  0  0  0
   54.6400   22.5640   47.6560 H   0  0  0  0  0  0  0  0  0  0  0  0
   55.0303   25.2154   46.0829 H   0  0  0  0  0  0  0  0  0  0  0  0
   56.5523   30.0735   45.7284 H   0  0  0  0  0  0  0  0  0  0  0  0
   58.3739   32.7952   44.1946 H   0  0  0  0  0  0  0  0  0  0  0  0
   56.8320   32.1269   44.9312 H   0  0  0  0  0  0  0  0  0  0  0  0
   57.1288   34.6725   44.7750 H   0  0  0  0  0  0  0  0  0  0  0  0
   56.5433   33.9368   46.3033 H   0  0  0  0  0  0  0  0  0  0  0  0
   60.5223   35.0792   46.1091 H   0  0  0  0  0  0  0  0  0  0  0  0
   59.8561   33.9908   44.8449 H   0  0  0  0  0  0  0  0  0  0  0  0
   59.4277   35.7352   44.8449 H   0  0  0  0  0  0  0  0  0  0  0  0
   59.6835   34.3003   47.9881 H   0  0  0  0  0  0  0  0  0  0  0  0
   57.9201   33.8092   48.1055 H   0  0  0  0  0  0  0  0  0  0  0  0
   60.2740   32.3127   47.0787 H   0  0  0  0  0  0  0  0  0  0  0  0
   58.8445   31.7892   48.0734 H   0  0  0  0  0  0  0  0  0  0  0  0
   60.8056   30.4739   45.7374 H   0  0  0  0  0  0  0  0  0  0  0  0
   61.0235   28.0643   45.2936 H   0  0  0  0  0  0  0  0  0  0  0  0
   59.4460   25.7040   44.8840 H   0  0  0  0  0  0  0  0  0  0  0  0
   58.2220   24.2146   43.4001 H   0  0  0  0  0  0  0  0  0  0  0  0
   57.1753   22.0142   42.9382 H   0  0  0  0  0  0  0  0  0  0  0  0
  1  2  1  0
  2  3  1  0
  3  4  2  0
  3  5  1  0
  5  6  2  0
  6  7  1  0
  7  8  1  0
  8  9  2  0
  9 10  1  0
 10 11  2  0
 11 12  1  0
 12 13  1  0
 13 14  1  0
 14 15  1  0
 15 16  1  0
 16 17  1  0
 16 18  1  0
 18 19  1  0
 12 20  2  0
 20 21  1  0
 21 22  2  0
 22 23  1  0
  7 24  2  0
 24 25  1  0
 25 26  2  0
 26  5  1  0
 23  8  1  0
 22 10  1  0
 19 13  1  0
  1 27  1  0
  1 28  1  0
  1 29  1  0
  2 30  1  0
  6 31  1  0
 11 32  1  0
 14 33  1  0
 14 34  1  0
 15 35  1  0
 15 36  1  0
 17 37  1  0
 17 38  1  0
 17 39  1  0
 18 40  1  0
 18 41  1  0
 19 42  1  0
 19 43  1  0
 20 44  1  0
 21 45  1  0
 23 46  1  0
 24 47  1  0
 25 48  1  0
M  END
>  <smiles>  (19) 
CNC(=O)c1cc(-c2nc3cc(N4CCN(C)CC4)ccc3[nH]2)ccn1

>  <score_type>  (19) 
oracle

>  <origin>  (19) 
adg

>  <m_score__min__energy>  (19) 
-7.8200000000000003

>  <m_primary>  (19) 
energy

$$$$
19:0
     RDKit          3D

 38 40  0  0  0  0  0  0  0  0999 V2000
   56.9530   21.7590   46.5390 C   0  0  0  0  0  0  0  0  0  0  0  0
   57.3070   22.9310   47.2650 O   0  0  0  0  0  0  0  0  0  0  0  0
   57.2480   24.2350   46.7500 C   0  0  0  0  0  0  0  0  0  0  0  0
   58.4090   24.9750   46.4550 C   0  0  0  0  0  0  0  0  0  0  0  0
   58.3100   26.2710   45.9430 C   0  0  0  0  0  0  0  0  0  0  0  0
   59.4330   26.9730   45.6620 N   0  0  0  0  0  0  0  0  0  0  0  0
   59.3850   28.2330   45.1610 C   0  0  0  0  0  0  0  0  0  0  0  0
   60.8190   28.9810   44.8640 S   0  0  0  0  0  0  0  0  0  0  0  0
   58.1700   28.8430   44.9250 N   0  0  0  0  0  0  0  0  0  0  0  0
   58.1000   30.2090   44.3550 C   0  0  0  0  0  0  0  0  0  0  0  0
   58.1020   31.2510   45.4460 C   0  0  0  0  0  0  0  0  0  0  0  0
   58.6850   30.9720   46.6950 C   0  0  0  0  0  0  0  0  0  0  0  0
   58.6880   31.9390   47.7040 C   0  0  0  0  0  0  0  0  0  0  0  0
   58.1190   33.1940   47.4740 C   0  0  0  0  0  0  0  0  0  0  0  0
   57.5470   33.4850   46.2330 C   0  0  0  0  0  0  0  0  0  0  0  0
   57.5410   32.5210   45.2210 C   0  0  0  0  0  0  0  0  0  0  0  0
   57.0070   28.1570   45.1990 C   0  0  0  0  0  0  0  0  0  0  0  0
   55.8840   28.6970   44.9870 O   0  0  0  0  0  0  0  0  0  0  0  0
   57.0550   26.8500   45.7160 C   0  0  0  0  0  0  0  0  0  0  0  0
   55.8920   26.1140   46.0100 C   0  0  0  0  0  0  0  0  0  0  0  0
   55.9860   24.8070   46.5270 C   0  0  0  0  0  0  0  0  0  0  0  0
   54.8470   24.0430   46.8310 O   0  0  0  0  0  0  0  0  0  0  0  0
   53.8410   23.6800   45.8910 C   0  0  0  0  0  0  0  0  0  0  0  0
   56.7089   20.9507   47.2440 H   0  0  0  0  0  0  0  0  0  0  0  0
   56.0785   21.9700   45.9060 H   0  0  0  0  0  0  0  0  0  0  0  0
   57.7981   21.4506   45.9060 H   0  0  0  0  0  0  0  0  0  0  0  0
   59.3998   24.5300   46.6287 H   0  0  0  0  0  0  0  0  0  0  0  0
   58.9697   30.3710   43.7013 H   0  0  0  0  0  0  0  0  0  0  0  0
   57.1651   30.3025   43.7829 H   0  0  0  0  0  0  0  0  0  0  0  0
   59.1409   29.9879   46.8787 H   0  0  0  0  0  0  0  0  0  0  0  0
   59.1392   31.7115   48.6811 H   0  0  0  0  0  0  0  0  0  0  0  0
   58.1213   33.9531   48.2701 H   0  0  0  0  0  0  0  0  0  0  0  0
   57.1008   34.4740   46.0522 H   0  0  0  0  0  0  0  0  0  0  0  0
   57.0952   32.7568   44.2434 H   0  0  0  0  0  0  0  0  0  0  0  0
   54.9029   26.5624   45.8349 H   0  0  0  0  0  0  0  0  0  0  0  0
   52.9379   23.3541   46.4279 H   0  0  0  0  0  0  0  0  0  0  0  0
   53.5991   24.5475   45.2594 H   0  0  0  0  0  0  0  0  0  0  0  0
   54.2088   22.8579   45.2594 H   0  0  0  0  0  0  0  0  0  0  0  0
  1  2  1  0
  2  3  1  0
  3  4  2  0
  4  5  1  0
  5  6  1  0
  6  7  1  0
  7  8  2  0
  7  9  1  0
  9 10  1  0
 10 11  1  0
 11 12  2  0
 12 13  1  0
 13 14  2  0
 14 15  1  0
 15 16  2  0
  9 17  1  0
 17 18  2  0
 17 19  1  0
 19 20  1  0
 20 21  2  0
 21 22  1  0
 22 23  1  0
 21  3  1  0
 19  5  2  0
 16 11  1  0
  1 24  1  0
  1 25  1  0
  1 26  1  0
  4 27  1  0
 10 28  1  0
 10 29  1  0
 12 30  1  0
 13 31  1  0
 14 32  1  0
 15 33  1  0
 16 34  1  0
 20 35  1  0
 23 36  1  0
 23 37  1  0
 23 38  1  0
M  CHG  1   6  -1
M  END
>  <UniqueID>  (20) 
19

>  <SMILES>  (20) 
COc1cc2[n-]c(=S)n(Cc3ccccc3)c(=O)c2cc1OC

>  <Energy>  (20) 
49.73500699267249

>  <Genealogy>  (20) 
COc1cc2[n-]c(=S)n(Cc3ccccc3)c(=O)c2cc1OC (protonated)
COc1cc2[n-]c(=S)n(Cc3ccccc3)c(=O)c2cc1OC (3D coordinates assigned)
COc1cc2[n-]c(=S)n(Cc3ccccc3)c(=O)c2cc1OC (optimized conformer: 49.73500699267249 kcal/mol)

>  <smiles>  (20) 
COc1cc2[nH]c(=S)n(Cc3ccccc3)c(=O)c2cc1OC

>  <score_type>  (20) 
oracle

>  <origin>  (20) 
adg

>  <m_score__min__energy>  (20) 
-7.8200000000000003

>  <m_primary>  (20) 
energy

$$$$
20:0
     RDKit          3D

 45 48  0  0  0  0  0  0  0  0999 V2000
   56.9270   23.8010   46.9240 C   0  0  0  0  0  0  0  0  0  0  0  0
   56.2070   25.0310   47.2270 N   0  0  0  0  0  0  0  0  0  0  0  0
   55.9570   26.0970   46.3010 C   0  0  0  0  0  0  0  0  0  0  0  0
   54.7660   26.3430   45.9720 O   0  0  0  0  0  0  0  0  0  0  0  0
   57.0310   26.9530   45.7640 C   0  0  0  0  0  0  0  0  0  0  0  0
   56.7700   28.2470   45.2920 C   0  0  0  0  0  0  0  0  0  0  0  0
   57.8210   29.0300   44.7890 C   0  0  0  0  0  0  0  0  0  0  0  0
   57.6110   30.3260   44.2980 O   0  0  0  0  0  0  0  0  0  0  0  0
   58.0720   31.5050   44.9040 C   0  0  0  0  0  0  0  0  0  0  0  0
   57.8700   32.7810   44.3080 C   0  0  0  0  0  0  0  0  0  0  0  0
   58.3480   33.9480   44.9310 C   0  0  0  0  0  0  0  0  0  0  0  0
   59.0330   33.7990   46.1320 C   0  0  0  0  0  0  0  0  0  0  0  0
   59.5670   34.7170   46.8900 O   0  0  0  0  0  0  0  0  0  0  0  0
   60.1050   34.0640   47.9080 C   0  0  0  0  0  0  0  0  0  0  0  0
   60.7200   34.6390   48.8970 N   0  0  0  0  0  0  0  0  0  0  0  0
   61.9280   34.1750   49.5160 C   0  0  0  0  0  0  0  0  0  0  0  0
   62.5740   34.9740   50.2440 O   0  0  0  0  0  0  0  0  0  0  0  0
   62.3800   32.8180   49.3450 N   0  0  0  0  0  0  0  0  0  0  0  0
   63.6100   32.3060   49.8870 C   0  0  0  0  0  0  0  0  0  0  0  0
   64.8230   32.9130   49.5270 C   0  0  0  0  0  0  0  0  0  0  0  0
   66.0340   32.4200   50.0200 C   0  0  0  0  0  0  0  0  0  0  0  0
   66.0460   31.3070   50.8640 C   0  0  0  0  0  0  0  0  0  0  0  0
   64.8460   30.6790   51.2080 C   0  0  0  0  0  0  0  0  0  0  0  0
   63.6310   31.1690   50.7170 C   0  0  0  0  0  0  0  0  0  0  0  0
   59.9340   32.7170   47.8490 N   0  0  0  0  0  0  0  0  0  0  0  0
   59.2490   32.5820   46.7000 C   0  0  0  0  0  0  0  0  0  0  0  0
   58.7880   31.4050   46.1140 C   0  0  0  0  0  0  0  0  0  0  0  0
   59.1240   28.5250   44.8240 C   0  0  0  0  0  0  0  0  0  0  0  0
   59.3530   27.2460   45.3330 C   0  0  0  0  0  0  0  0  0  0  0  0
   58.3150   26.4970   45.7880 N   0  0  0  0  0  0  0  0  0  0  0  0
   57.2171   23.3054   47.8622 H   0  0  0  0  0  0  0  0  0  0  0  0
   56.2786   23.1308   46.3405 H   0  0  0  0  0  0  0  0  0  0  0  0
   57.8288   24.0383   46.3405 H   0  0  0  0  0  0  0  0  0  0  0  0
   55.7457   28.6472   45.3157 H   0  0  0  0  0  0  0  0  0  0  0  0
   57.3345   32.8557   43.3501 H   0  0  0  0  0  0  0  0  0  0  0  0
   58.1862   34.9405   44.4852 H   0  0  0  0  0  0  0  0  0  0  0  0
   61.8200   32.1690   48.7510 H   0  0  0  0  0  0  0  0  0  0  0  0
   64.8205   33.7821   48.8527 H   0  0  0  0  0  0  0  0  0  0  0  0
   66.9795   32.9092   49.7430 H   0  0  0  0  0  0  0  0  0  0  0  0
   66.9995   30.9251   51.2576 H   0  0  0  0  0  0  0  0  0  0  0  0
   64.8567   29.7977   51.8661 H   0  0  0  0  0  0  0  0  0  0  0  0
   62.6896   30.6645   50.9802 H   0  0  0  0  0  0  0  0  0  0  0  0
   58.9771   30.4274   46.5815 H   0  0  0  0  0  0  0  0  0  0  0  0
   59.9631   29.1317   44.4528 H   0  0  0  0  0  0  0  0  0  0  0  0
   60.3762   26.8435   45.3659 H   0  0  0  0  0  0  0  0  0  0  0  0
  1  2  1  0
  2  3  1  0
  3  4  2  0
  3  5  1  0
  5  6  2  0
  6  7  1  0
  7  8  1  0
  8  9  1  0
  9 10  2  0
 10 11  1  0
 11 12  2  0
 12 13  1  0
 13 14  1  0
 14 15  2  3
 15 16  1  0
 16 17  2  0
 16 18  1  0
 18 19  1  0
 19 20  2  0
 20 21  1  0
 21 22  2  0
 22 23  1  0
 23 24  2  0
 14 25  1  0
 25 26  1  0
 26 27  2  0
  7 28  2  0
 28 29  1  0
 29 30  2  0
 30  5  1  0
 27  9  1  0
 26 12  1  0
 24 19  1  0
  1 31  1  0
  1 32  1  0
  1 33  1  0
  6 34  1  0
 10 35  1  0
 11 36  1  0
 18 37  1  0
 20 38  1  0
 21 39  1  0
 22 40  1  0
 23 41  1  0
 24 42  1  0
 27 43  1  0
 28 44  1  0
 29 45  1  0
M  CHG  2   2  -1  25  -1
M  END
>  <UniqueID>  (21) 
20

>  <SMILES>  (21) 
C[N-]C(=O)c1cc(Oc2ccc3oc(=NC(=O)Nc4ccccc4)[n-]c3c2)ccn1

>  <Energy>  (21) 
104.84581692946

>  <Genealogy>  (21) 
C[N-]C(=O)c1cc(Oc2ccc3oc(=NC(=O)Nc4ccccc4)[n-]c3c2)ccn1 (protonated)
C[N-]C(=O)c1cc(Oc2ccc3oc(=NC(=O)Nc4ccccc4)[n-]c3c2)ccn1 (3D coordinates assigned)
C[N-]C(=O)c1cc(Oc2ccc3oc(=NC(=O)Nc4ccccc4)[n-]c3c2)ccn1 (optimized conformer: 104.84581692946 kcal/mol)

>  <smiles>  (21) 
CNC(=O)c1cc(Oc2ccc3oc(=NC(=O)Nc4ccccc4)[nH]c3c2)ccn1

>  <score_type>  (21) 
oracle

>  <origin>  (21) 
adg

>  <m_score__min__energy>  (21) 
-11.81

>  <m_primary>  (21) 
energy

$$$$
21:0
     RDKit          3D

 41 43  0  0  0  0  0  0  0  0999 V2000
   59.5650   30.0910   47.3120 C   0  0  0  0  0  0  0  0  0  0  0  0
   58.5050   31.0190   47.1100 O   0  0  0  0  0  0  0  0  0  0  0  0
   58.6550   32.2840   46.5170 C   0  0  0  0  0  0  0  0  0  0  0  0
   59.0810   33.4050   47.2580 C   0  0  0  0  0  0  0  0  0  0  0  0
   59.2020   34.6530   46.6440 C   0  0  0  0  0  0  0  0  0  0  0  0
   58.8910   34.8030   45.2930 C   0  0  0  0  0  0  0  0  0  0  0  0
   58.4770   33.7000   44.5450 C   0  0  0  0  0  0  0  0  0  0  0  0
   58.3710   32.4330   45.1450 C   0  0  0  0  0  0  0  0  0  0  0  0
   57.9570   31.2440   44.3170 C   0  0  0  0  0  0  0  0  0  0  0  0
   56.6360   30.7760   44.7200 N   0  0  0  0  0  0  0  0  0  0  0  0
   56.2990   29.3940   44.8740 C   0  0  0  0  0  0  0  0  0  0  0  0
   55.1520   28.9750   44.5610 O   0  0  0  0  0  0  0  0  0  0  0  0
   57.3240   28.4400   45.4030 C   0  0  0  0  0  0  0  0  0  0  0  0
   57.7770   27.4400   44.3350 C   0  0  0  0  0  0  0  0  0  0  0  0
   58.0950   26.1380   44.9260 N   0  0  0  0  0  0  0  0  0  0  0  0
   58.8810   25.8850   46.0040 C   0  0  0  0  0  0  0  0  0  0  0  0
   59.4510   26.7830   46.6780 O   0  0  0  0  0  0  0  0  0  0  0  0
   58.9960   24.5960   46.2700 O   0  0  0  0  0  0  0  0  0  0  0  0
   58.2780   23.9820   45.3600 C   0  0  0  0  0  0  0  0  0  0  0  0
   58.0830   22.6150   45.1860 C   0  0  0  0  0  0  0  0  0  0  0  0
   57.2710   22.2040   44.1130 C   0  0  0  0  0  0  0  0  0  0  0  0
   56.6720   23.1600   43.2600 C   0  0  0  0  0  0  0  0  0  0  0  0
   56.8860   24.5360   43.4650 C   0  0  0  0  0  0  0  0  0  0  0  0
   57.7080   24.9100   44.5310 C   0  0  0  0  0  0  0  0  0  0  0  0
   59.7273   29.9489   48.3906 H   0  0  0  0  0  0  0  0  0  0  0  0
   59.3018   29.1277   46.8507 H   0  0  0  0  0  0  0  0  0  0  0  0
   60.4851   30.4792   46.8507 H   0  0  0  0  0  0  0  0  0  0  0  0
   59.3195   33.2958   48.3263 H   0  0  0  0  0  0  0  0  0  0  0  0
   59.5437   35.5205   47.2277 H   0  0  0  0  0  0  0  0  0  0  0  0
   58.9720   35.7912   44.8166 H   0  0  0  0  0  0  0  0  0  0  0  0
   58.2322   33.8226   43.4796 H   0  0  0  0  0  0  0  0  0  0  0  0
   57.9304   31.5333   43.2561 H   0  0  0  0  0  0  0  0  0  0  0  0
   58.6840   30.4329   44.4708 H   0  0  0  0  0  0  0  0  0  0  0  0
   58.1978   29.0120   45.7483 H   0  0  0  0  0  0  0  0  0  0  0  0
   56.8693   27.8742   46.2295 H   0  0  0  0  0  0  0  0  0  0  0  0
   56.9698   27.3118   43.5987 H   0  0  0  0  0  0  0  0  0  0  0  0
   58.6842   27.8336   43.8532 H   0  0  0  0  0  0  0  0  0  0  0  0
   58.5469   21.8824   45.8629 H   0  0  0  0  0  0  0  0  0  0  0  0
   57.1009   21.1317   43.9363 H   0  0  0  0  0  0  0  0  0  0  0  0
   56.0334   22.8253   42.4292 H   0  0  0  0  0  0  0  0  0  0  0  0
   56.4232   25.2890   42.8102 H   0  0  0  0  0  0  0  0  0  0  0  0
  1  2  1  0
  2  3  1  0
  3  4  2  0
  4  5  1  0
  5  6  2  0
  6  7  1  0
  7  8  2  0
  8  9  1  0
  9 10  1  0
 10 11  1  0
 11 12  2  0
 11 13  1  0
 13 14  1  0
 14 15  1  0
 15 16  1  0
 16 17  2  0
 16 18  1  0
 18 19  1  0
 19 20  2  0
 20 21  1  0
 21 22  2  0
 22 23  1  0
 23 24  2  0
  8  3  1  0
 24 15  1  0
 24 19  1  0
  1 25  1  0
  1 26  1  0
  1 27  1  0
  4 28  1  0
  5 29  1  0
  6 30  1  0
  7 31  1  0
  9 32  1  0
  9 33  1  0
 13 34  1  0
 13 35  1  0
 14 36  1  0
 14 37  1  0
 20 38  1  0
 21 39  1  0
 22 40  1  0
 23 41  1  0
M  CHG  1  10  -1
M  END
>  <UniqueID>  (22) 
21

>  <SMILES>  (22) 
COc1ccccc1C[N-]C(=O)CCn1c(=O)oc2ccccc21

>  <Energy>  (22) 
72.58862700760822

>  <Genealogy>  (22) 
COc1ccccc1C[N-]C(=O)CCn1c(=O)oc2ccccc21 (protonated)
COc1ccccc1C[N-]C(=O)CCn1c(=O)oc2ccccc21 (3D coordinates assigned)
COc1ccccc1C[N-]C(=O)CCn1c(=O)oc2ccccc21 (optimized conformer: 72.58862700760822 kcal/mol)

>  <smiles>  (22) 
COc1ccccc1CNC(=O)CCn1c(=O)oc2ccccc21

>  <score_type>  (22) 
oracle

>  <origin>  (22) 
adg

>  <m_score__min__energy>  (22) 
-9.4000000000000004

>  <m_primary>  (22) 
energy

$$$$
22:0
     RDKit          3D

 47 48  0  0  0  0  0  0  0  0999 V2000
   63.4020   33.4680   46.7610 C   0  0  0  0  0  0  0  0  0  0  0  0
   62.7750   32.9980   48.0720 C   0  0  0  0  0  0  0  0  0  0  0  0
   62.3960   34.1620   49.0040 C   0  0  0  0  0  0  0  0  0  0  0  0
   60.9030   34.2120   49.3750 C   0  0  0  0  0  0  0  0  0  0  0  0
   60.0150   33.8270   48.2180 C   0  0  0  0  0  0  0  0  0  0  0  0
   60.0310   34.5800   47.0340 C   0  0  0  0  0  0  0  0  0  0  0  0
   59.2330   34.2080   45.9480 C   0  0  0  0  0  0  0  0  0  0  0  0
   58.4060   33.0730   46.0260 C   0  0  0  0  0  0  0  0  0  0  0  0
   57.5660   32.6710   44.8730 C   0  0  0  0  0  0  0  0  0  0  0  0
   57.4260   33.4490   43.8900 O   0  0  0  0  0  0  0  0  0  0  0  0
   56.9120   31.3960   44.8690 N   0  0  0  0  0  0  0  0  0  0  0  0
   56.5940   30.6500   43.6560 C   0  0  0  0  0  0  0  0  0  0  0  0
   55.4070   29.7160   43.8860 C   0  0  0  0  0  0  0  0  0  0  0  0
   55.5320   29.0640   45.1870 N   0  0  0  0  0  0  0  0  0  0  0  0
   56.5330   28.0950   45.5240 C   0  0  0  0  0  0  0  0  0  0  0  0
   56.1770   26.9060   45.7320 O   0  0  0  0  0  0  0  0  0  0  0  0
   57.9680   28.4360   45.5940 C   0  0  0  0  0  0  0  0  0  0  0  0
   58.7970   28.2980   44.4690 C   0  0  0  0  0  0  0  0  0  0  0  0
   60.1510   28.6400   44.5460 C   0  0  0  0  0  0  0  0  0  0  0  0
   60.6840   29.1320   45.7400 C   0  0  0  0  0  0  0  0  0  0  0  0
   59.8630   29.2940   46.8610 C   0  0  0  0  0  0  0  0  0  0  0  0
   60.4050   29.7950   48.0420 O   0  0  0  0  0  0  0  0  0  0  0  0
   58.5040   28.9530   46.7850 C   0  0  0  0  0  0  0  0  0  0  0  0
   58.3950   32.3200   47.2140 C   0  0  0  0  0  0  0  0  0  0  0  0
   59.1930   32.6930   48.3000 C   0  0  0  0  0  0  0  0  0  0  0  0
   64.2648   34.1148   46.9784 H   0  0  0  0  0  0  0  0  0  0  0  0
   63.7351   32.5952   46.1802 H   0  0  0  0  0  0  0  0  0  0  0  0
   62.6577   34.0325   46.1802 H   0  0  0  0  0  0  0  0  0  0  0  0
   61.8662   32.4232   47.8405 H   0  0  0  0  0  0  0  0  0  0  0  0
   63.5237   32.3854   48.5957 H   0  0  0  0  0  0  0  0  0  0  0  0
   62.9790   34.0651   49.9317 H   0  0  0  0  0  0  0  0  0  0  0  0
   62.6173   35.0903   48.4569 H   0  0  0  0  0  0  0  0  0  0  0  0
   60.7214   33.5165   50.2076 H   0  0  0  0  0  0  0  0  0  0  0  0
   60.6598   35.2469   49.6575 H   0  0  0  0  0  0  0  0  0  0  0  0
   60.6754   35.4684   46.9599 H   0  0  0  0  0  0  0  0  0  0  0  0
   59.2521   34.8073   45.0258 H   0  0  0  0  0  0  0  0  0  0  0  0
   56.3444   31.3585   42.8524 H   0  0  0  0  0  0  0  0  0  0  0  0
   57.4687   30.0445   43.3762 H   0  0  0  0  0  0  0  0  0  0  0  0
   54.4741   30.2981   43.8580 H   0  0  0  0  0  0  0  0  0  0  0  0
   55.3911   28.9497   43.0970 H   0  0  0  0  0  0  0  0  0  0  0  0
   58.3801   27.9196   43.5240 H   0  0  0  0  0  0  0  0  0  0  0  0
   60.7978   28.5213   43.6642 H   0  0  0  0  0  0  0  0  0  0  0  0
   61.7511   29.3925   45.7987 H   0  0  0  0  0  0  0  0  0  0  0  0
   60.8240   30.7180   48.0830 H   0  0  0  0  0  0  0  0  0  0  0  0
   57.8552   29.0912   47.6624 H   0  0  0  0  0  0  0  0  0  0  0  0
   57.7531   31.4299   47.2894 H   0  0  0  0  0  0  0  0  0  0  0  0
   59.1762   32.0946   49.2228 H   0  0  0  0  0  0  0  0  0  0  0  0
  1  2  1  0
  2  3  1  0
  3  4  1  0
  4  5  1  0
  5  6  2  0
  6  7  1  0
  7  8  2  0
  8  9  1  0
  9 10  2  0
  9 11  1  0
 11 12  1  0
 12 13  1  0
 13 14  1  0
 14 15  1  0
 15 16  2  0
 15 17  1  0
 17 18  2  0
 18 19  1  0
 19 20  2  0
 20 21  1  0
 21 22  1  0
 21 23  2  0
  8 24  1  0
 24 25  2  0
 25  5  1  0
 23 17  1  0
  1 26  1  0
  1 27  1  0
  1 28  1  0
  2 29  1  0
  2 30  1  0
  3 31  1  0
  3 32  1  0
  4 33  1  0
  4 34  1  0
  6 35  1  0
  7 36  1  0
 12 37  1  0
 12 38  1  0
 13 39  1  0
 13 40  1  0
 18 41  1  0
 19 42  1  0
 20 43  1  0
 22 44  1  0
 23 45  1  0
 24 46  1  0
 25 47  1  0
M  CHG  2  11  -1  14  -1
M  END
>  <UniqueID>  (23) 
22

>  <SMILES>  (23) 
CCCCc1ccc(C(=O)[N-]CC[N-]C(=O)c2cccc(O)c2)cc1

>  <Energy>  (23) 
41.02328493225648

>  <Genealogy>  (23) 
CCCCc1ccc(C(=O)[N-]CC[N-]C(=O)c2cccc(O)c2)cc1 (protonated)
CCCCc1ccc(C(=O)[N-]CC[N-]C(=O)c2cccc(O)c2)cc1 (3D coordinates assigned)
CCCCc1ccc(C(=O)[N-]CC[N-]C(=O)c2cccc(O)c2)cc1 (optimized conformer: 41.02328493225648 kcal/mol)

>  <smiles>  (23) 
CCCCc1ccc(C(=O)NCCNC(=O)c2cccc(O)c2)cc1

>  <score_type>  (23) 
oracle

>  <origin>  (23) 
adg

>  <m_score__min__energy>  (23) 
-12.51

>  <m_primary>  (23) 
energy

$$$$
23:0
     RDKit          3D

 40 42  0  0  0  0  0  0  0  0999 V2000
   63.7590   32.3110   47.2580 N   0  0  0  0  0  0  0  0  0  0  0  0
   63.0620   33.4730   46.7990 C   0  0  0  0  0  0  0  0  0  0  0  0
   63.6620   34.2790   46.0370 O   0  0  0  0  0  0  0  0  0  0  0  0
   61.6550   33.7400   47.1860 C   0  0  0  0  0  0  0  0  0  0  0  0
   61.3260   34.1830   48.4810 C   0  0  0  0  0  0  0  0  0  0  0  0
   59.9970   34.4400   48.8260 C   0  0  0  0  0  0  0  0  0  0  0  0
   58.9810   34.2650   47.8850 C   0  0  0  0  0  0  0  0  0  0  0  0
   59.2910   33.8420   46.5860 C   0  0  0  0  0  0  0  0  0  0  0  0
   58.0050   33.6950   45.3890 S   0  0  0  0  0  0  0  0  0  0  0  0
   56.6620   33.5780   46.0530 O   0  0  0  0  0  0  0  0  0  0  0  0
   58.0190   34.9120   44.5080 O   0  0  0  0  0  0  0  0  0  0  0  0
   58.2940   32.2830   44.4280 N   0  0  0  0  0  0  0  0  0  0  0  0
   57.6020   31.0470   44.6410 C   0  0  0  0  0  0  0  0  0  0  0  0
   56.2780   30.8630   44.2060 C   0  0  0  0  0  0  0  0  0  0  0  0
   55.6000   29.6760   44.4990 C   0  0  0  0  0  0  0  0  0  0  0  0
   56.2270   28.6780   45.2500 C   0  0  0  0  0  0  0  0  0  0  0  0
   55.5290   27.5170   45.5650 O   0  0  0  0  0  0  0  0  0  0  0  0
   57.5450   28.8600   45.6940 C   0  0  0  0  0  0  0  0  0  0  0  0
   58.3160   27.6640   46.7860 S   0  0  0  0  0  0  0  0  0  0  0  0
   59.1620   28.9590   47.6950 C   0  0  0  0  0  0  0  0  0  0  0  0
   60.4720   29.3170   47.3630 C   0  0  0  0  0  0  0  0  0  0  0  0
   61.0850   30.3730   48.0410 C   0  0  0  0  0  0  0  0  0  0  0  0
   60.3880   31.0510   49.0440 C   0  0  0  0  0  0  0  0  0  0  0  0
   59.0840   30.6570   49.3540 C   0  0  0  0  0  0  0  0  0  0  0  0
   58.5020   29.6320   48.6770 N   0  0  0  0  0  0  0  0  0  0  0  0
   58.2390   30.0290   45.3560 C   0  0  0  0  0  0  0  0  0  0  0  0
   60.6240   33.5810   46.2400 C   0  0  0  0  0  0  0  0  0  0  0  0
   63.2700   31.5350   47.7540 H   0  0  0  0  0  0  0  0  0  0  0  0
   64.7670   32.1810   47.0150 H   0  0  0  0  0  0  0  0  0  0  0  0
   62.1214   34.3279   49.2269 H   0  0  0  0  0  0  0  0  0  0  0  0
   59.7504   34.7813   49.8422 H   0  0  0  0  0  0  0  0  0  0  0  0
   57.9349   34.4596   48.1640 H   0  0  0  0  0  0  0  0  0  0  0  0
   55.7739   31.6554   43.6333 H   0  0  0  0  0  0  0  0  0  0  0  0
   54.5716   29.5274   44.1379 H   0  0  0  0  0  0  0  0  0  0  0  0
   61.0143   28.7726   46.5759 H   0  0  0  0  0  0  0  0  0  0  0  0
   62.1131   30.6698   47.7861 H   0  0  0  0  0  0  0  0  0  0  0  0
   60.8603   31.8853   49.5833 H   0  0  0  0  0  0  0  0  0  0  0  0
   58.5272   31.1772   50.1474 H   0  0  0  0  0  0  0  0  0  0  0  0
   59.2911   30.1463   45.6550 H   0  0  0  0  0  0  0  0  0  0  0  0
   60.8671   33.2488   45.2199 H   0  0  0  0  0  0  0  0  0  0  0  0
  1  2  1  0
  2  3  2  0
  2  4  1  0
  4  5  2  0
  5  6  1  0
  6  7  2  0
  7  8  1  0
  8  9  1  0
  9 10  2  0
  9 11  2  0
  9 12  1  0
 12 13  1  0
 13 14  2  0
 14 15  1  0
 15 16  2  0
 16 17  1  0
 16 18  1  0
 18 19  1  0
 19 20  1  0
 20 21  2  0
 21 22  1  0
 22 23  2  0
 23 24  1  0
 24 25  2  0
 18 26  2  0
  8 27  2  0
 27  4  1  0
 26 13  1  0
 25 20  1  0
  1 28  1  0
  1 29  1  0
  5 30  1  0
  6 31  1  0
  7 32  1  0
 14 33  1  0
 15 34  1  0
 21 35  1  0
 22 36  1  0
 23 37  1  0
 24 38  1  0
 26 39  1  0
 27 40  1  0
M  CHG  2  12  -1  17  -1
M  END
>  <UniqueID>  (24) 
23

>  <SMILES>  (24) 
NC(=O)c1cccc(S(=O)(=O)[N-]c2ccc([O-])c(Sc3ccccn3)c2)c1

>  <Energy>  (24) 
44.579549786707254

>  <Genealogy>  (24) 
NC(=O)c1cccc(S(=O)(=O)[N-]c2ccc([O-])c(Sc3ccccn3)c2)c1 (protonated)
NC(=O)c1cccc(S(=O)(=O)[N-]c2ccc([O-])c(Sc3ccccn3)c2)c1 (3D coordinates assigned)
NC(=O)c1cccc(S(=O)(=O)[N-]c2ccc([O-])c(Sc3ccccn3)c2)c1 (optimized conformer: 44.579549786707254 kcal/mol)

>  <smiles>  (24) 
NC(=O)c1cccc(S(=O)(=O)Nc2ccc(O)c(Sc3ccccn3)c2)c1

>  <score_type>  (24) 
oracle

>  <origin>  (24) 
adg

>  <m_score__min__energy>  (24) 
-13.119999999999999

>  <m_primary>  (24) 
energy

$$$$
24:0
     RDKit          3D

 74 78  0  0  0  0  0  0  0  0999 V2000
   52.8340   24.0830   45.2390 C   0  0  0  0  0  0  0  0  0  0  0  0
   53.8800   24.7000   45.9840 O   0  0  0  0  0  0  0  0  0  0  0  0
   55.1920   24.8700   45.5160 C   0  0  0  0  0  0  0  0  0  0  0  0
   55.7200   23.9010   44.6530 C   0  0  0  0  0  0  0  0  0  0  0  0
   57.0160   24.0300   44.1490 C   0  0  0  0  0  0  0  0  0  0  0  0
   57.7980   25.1320   44.5020 C   0  0  0  0  0  0  0  0  0  0  0  0
   57.2890   26.1050   45.3720 C   0  0  0  0  0  0  0  0  0  0  0  0
   58.1130   27.2830   45.7210 C   0  0  0  0  0  0  0  0  0  0  0  0
   59.0110   27.2800   46.8100 C   0  0  0  0  0  0  0  0  0  0  0  0
   59.1490   26.0360   47.6700 C   0  0  0  0  0  0  0  0  0  0  0  0
   59.7790   28.4020   47.0550 N   0  0  0  0  0  0  0  0  0  0  0  0
   60.7490   28.4620   48.1770 C   0  0  0  0  0  0  0  0  0  0  0  0
   60.0840   28.8730   49.4730 C   0  0  0  0  0  0  0  0  0  0  0  0
   60.5420   28.3400   50.6910 C   0  0  0  0  0  0  0  0  0  0  0  0
   59.9240   28.6920   51.8930 C   0  0  0  0  0  0  0  0  0  0  0  0
   58.8400   29.5710   51.8940 C   0  0  0  0  0  0  0  0  0  0  0  0
   58.2400   29.9070   53.0620 F   0  0  0  0  0  0  0  0  0  0  0  0
   58.3710   30.0990   50.6900 C   0  0  0  0  0  0  0  0  0  0  0  0
   58.9830   29.7500   49.4810 C   0  0  0  0  0  0  0  0  0  0  0  0
   58.4970   30.2710   48.3280 F   0  0  0  0  0  0  0  0  0  0  0  0
   59.7040   29.4850   46.2090 C   0  0  0  0  0  0  0  0  0  0  0  0
   60.4310   30.4970   46.4300 O   0  0  0  0  0  0  0  0  0  0  0  0
   58.8700   29.4800   45.1180 N   0  0  0  0  0  0  0  0  0  0  0  0
   58.8720   30.6250   44.1730 C   0  0  0  0  0  0  0  0  0  0  0  0
   57.9560   31.8040   44.6100 C   0  0  2  0  0  0  0  0  0  0  0  0
   58.1420   33.0900   43.7650 C   0  0  0  0  0  0  0  0  0  0  0  0
   58.9530   34.1480   44.5260 C   0  0  0  0  0  0  0  0  0  0  0  0
   58.2720   34.5840   45.7780 N   0  0  2  0  0  0  0  0  0  0  0  0
   59.2740   35.1580   46.7090 C   0  0  0  0  0  0  0  0  0  0  0  0
   60.1970   34.1050   47.2820 C   0  0  0  0  0  0  0  0  0  0  0  0
   59.8850   33.4810   48.5010 C   0  0  0  0  0  0  0  0  0  0  0  0
   60.7290   32.4940   49.0240 C   0  0  0  0  0  0  0  0  0  0  0  0
   61.8870   32.1240   48.3330 C   0  0  0  0  0  0  0  0  0  0  0  0
   62.2060   32.7420   47.1220 C   0  0  0  0  0  0  0  0  0  0  0  0
   61.3680   33.7320   46.5980 C   0  0  0  0  0  0  0  0  0  0  0  0
   57.4670   33.5020   46.4230 C   0  0  0  0  0  0  0  0  0  0  0  0
   58.0220   32.1030   46.1270 C   0  0  0  0  0  0  0  0  0  0  0  0
   58.0380   28.4180   44.9090 C   0  0  0  0  0  0  0  0  0  0  0  0
   57.1870   28.4470   43.9760 O   0  0  0  0  0  0  0  0  0  0  0  0
   55.9860   25.9770   45.8780 C   0  0  0  0  0  0  0  0  0  0  0  0
   52.0977   23.6487   45.9313 H   0  0  0  0  0  0  0  0  0  0  0  0
   52.3420   24.8356   44.6053 H   0  0  0  0  0  0  0  0  0  0  0  0
   53.2547   23.2884   44.6053 H   0  0  0  0  0  0  0  0  0  0  0  0
   55.1087   23.0314   44.3700 H   0  0  0  0  0  0  0  0  0  0  0  0
   57.4214   23.2627   43.4731 H   0  0  0  0  0  0  0  0  0  0  0  0
   58.8151   25.2361   44.0963 H   0  0  0  0  0  0  0  0  0  0  0  0
   59.1176   26.3194   48.7324 H   0  0  0  0  0  0  0  0  0  0  0  0
   58.3220   25.3447   47.4503 H   0  0  0  0  0  0  0  0  0  0  0  0
   60.1074   25.5428   47.4503 H   0  0  0  0  0  0  0  0  0  0  0  0
   61.2028   27.4687   48.3089 H   0  0  0  0  0  0  0  0  0  0  0  0
   61.5117   29.2152   47.9300 H   0  0  0  0  0  0  0  0  0  0  0  0
   61.3920   27.6418   50.6971 H   0  0  0  0  0  0  0  0  0  0  0  0
   60.2928   28.2751   52.8418 H   0  0  0  0  0  0  0  0  0  0  0  0
   57.5169   30.7922   50.6916 H   0  0  0  0  0  0  0  0  0  0  0  0
   59.9022   31.0006   44.0860 H   0  0  0  0  0  0  0  0  0  0  0  0
   58.4770   30.2509   43.2170 H   0  0  0  0  0  0  0  0  0  0  0  0
   56.9375   31.4448   44.4011 H   0  0  0  0  0  0  0  0  0  0  0  0
   58.6712   32.8339   42.8353 H   0  0  0  0  0  0  0  0  0  0  0  0
   57.1480   33.5072   43.5462 H   0  0  0  0  0  0  0  0  0  0  0  0
   59.9342   33.7237   44.7854 H   0  0  0  0  0  0  0  0  0  0  0  0
   59.0579   35.0276   43.8739 H   0  0  0  0  0  0  0  0  0  0  0  0
   57.6060   35.3460   45.5070 H   0  0  0  0  0  0  0  0  0  0  0  0
   59.8779   35.8993   46.1651 H   0  0  0  0  0  0  0  0  0  0  0  0
   58.7293   35.6188   47.5463 H   0  0  0  0  0  0  0  0  0  0  0  0
   58.9743   33.7688   49.0467 H   0  0  0  0  0  0  0  0  0  0  0  0
   60.4809   32.0090   49.9796 H   0  0  0  0  0  0  0  0  0  0  0  0
   62.5471   31.3457   48.7436 H   0  0  0  0  0  0  0  0  0  0  0  0
   63.1173   32.4500   46.5795 H   0  0  0  0  0  0  0  0  0  0  0  0
   61.6260   34.2208   45.6470 H   0  0  0  0  0  0  0  0  0  0  0  0
   57.4709   33.6603   47.5115 H   0  0  0  0  0  0  0  0  0  0  0  0
   56.4481   33.5520   46.0114 H   0  0  0  0  0  0  0  0  0  0  0  0
   59.0687   32.0505   46.4612 H   0  0  0  0  0  0  0  0  0  0  0  0
   57.4152   31.3585   46.6633 H   0  0  0  0  0  0  0  0  0  0  0  0
   55.5837   26.7420   46.5583 H   0  0  0  0  0  0  0  0  0  0  0  0
  1  2  1  0
  2  3  1  0
  3  4  2  0
  4  5  1  0
  5  6  2  0
  6  7  1  0
  7  8  1  0
  8  9  2  0
  9 10  1  0
  9 11  1  0
 11 12  1  0
 12 13  1  0
 13 14  2  0
 14 15  1  0
 15 16  2  0
 16 17  1  0
 16 18  1  0
 18 19  2  0
 19 20  1  0
 11 21  1  0
 21 22  2  0
 21 23  1  0
 23 24  1  0
 24 25  1  0
 25 26  1  0
 26 27  1  0
 27 28  1  0
 28 29  1  0
 29 30  1  0
 30 31  2  0
 31 32  1  0
 32 33  2  0
 33 34  1  0
 34 35  2  0
 28 36  1  0
 36 37  1  0
 23 38  1  0
 38 39  2  0
  7 40  2  0
 40  3  1  0
 38  8  1  0
 19 13  1  0
 37 25  1  0
 35 30  1  0
  1 41  1  0
  1 42  1  0
  1 43  1  0
  4 44  1  0
  5 45  1  0
  6 46  1  0
 10 47  1  0
 10 48  1  0
 10 49  1  0
 12 50  1  0
 12 51  1  0
 14 52  1  0
 15 53  1  0
 18 54  1  0
 24 55  1  0
 24 56  1  0
 25 57  1  1
 26 58  1  0
 26 59  1  0
 27 60  1  0
 27 61  1  0
 28 62  1  6
 29 63  1  0
 29 64  1  0
 31 65  1  0
 32 66  1  0
 33 67  1  0
 34 68  1  0
 35 69  1  0
 36 70  1  0
 36 71  1  0
 37 72  1  0
 37 73  1  0
 40 74  1  0
M  CHG  1  28   1
M  END
>  <UniqueID>  (25) 
24

>  <SMILES>  (25) 
COc1cccc(-c2c(C)n(Cc3ccc(F)cc3F)c(=O)n(CC3CC[NH+](Cc4ccccc4)CC3)c2=O)c1

>  <Energy>  (25) 
110.85365186193862

>  <Genealogy>  (25) 
COc1cccc(-c2c(C)n(Cc3ccc(F)cc3F)c(=O)n(CC3CC[NH+](Cc4ccccc4)CC3)c2=O)c1 (protonated)
COc1cccc(-c2c(C)n(Cc3ccc(F)cc3F)c(=O)n(CC3CC[NH+](Cc4ccccc4)CC3)c2=O)c1 (3D coordinates assigned)
COc1cccc(-c2c(C)n(Cc3ccc(F)cc3F)c(=O)n(CC3CC[NH+](Cc4ccccc4)CC3)c2=O)c1 (nonaromatic ring conformer: 110.85365186193862 kcal/mol)

>  <smiles>  (25) 
COc1cccc(-c2c(C)n(Cc3ccc(F)cc3F)c(=O)n(CC3CCN(Cc4ccccc4)CC3)c2=O)c1

>  <score_type>  (25) 
oracle

>  <origin>  (25) 
adg

>  <m_score__min__energy>  (25) 
-7.3899999999999997

>  <m_primary>  (25) 
energy

$$$$
25:0
     RDKit          3D

 43 45  0  0  0  0  0  0  0  0999 V2000
   61.0480   30.9050   47.2830 C   0  0  0  0  0  0  0  0  0  0  0  0
   60.0480   30.6470   48.3870 C   0  0  0  0  0  0  0  0  0  0  0  0
   59.3930   31.7270   49.0360 C   0  0  0  0  0  0  0  0  0  0  0  0
   59.6290   33.1750   48.6500 C   0  0  0  0  0  0  0  0  0  0  0  0
   58.9960   33.5110   47.3210 C   0  0  0  0  0  0  0  0  0  0  0  0
   57.6900   33.0820   47.0230 C   0  0  0  0  0  0  0  0  0  0  0  0
   57.1010   33.4110   45.7980 C   0  0  0  0  0  0  0  0  0  0  0  0
   57.8030   34.1810   44.8670 C   0  0  0  0  0  0  0  0  0  0  0  0
   59.0930   34.6270   45.1610 C   0  0  0  0  0  0  0  0  0  0  0  0
   59.6860   34.3000   46.3840 C   0  0  0  0  0  0  0  0  0  0  0  0
   58.4830   31.4560   50.0690 C   0  0  0  0  0  0  0  0  0  0  0  0
   58.2440   30.1410   50.4590 C   0  0  0  0  0  0  0  0  0  0  0  0
   57.4250   29.8920   51.3820 O   0  0  0  0  0  0  0  0  0  0  0  0
   58.9000   29.1240   49.8500 N   0  0  0  0  0  0  0  0  0  0  0  0
   59.7950   29.3320   48.8490 C   0  0  0  0  0  0  0  0  0  0  0  0
   60.6140   27.8850   48.1560 S   0  0  0  0  0  0  0  0  0  0  0  0
   59.0710   26.9510   47.8510 C   0  0  0  0  0  0  0  0  0  0  0  0
   58.7980   26.7500   46.3550 C   0  0  0  0  0  0  0  0  0  0  0  0
   58.0010   27.8590   45.8010 N   0  0  0  0  0  0  0  0  0  0  0  0
   58.6310   29.0070   45.4070 C   0  0  0  0  0  0  0  0  0  0  0  0
   57.9030   30.0640   44.8630 C   0  0  0  0  0  0  0  0  0  0  0  0
   56.5260   29.9230   44.7300 C   0  0  0  0  0  0  0  0  0  0  0  0
   55.8370   30.8570   44.2420 O   0  0  0  0  0  0  0  0  0  0  0  0
   55.9240   28.7750   45.1270 N   0  0  0  0  0  0  0  0  0  0  0  0
   56.6410   27.7490   45.6570 C   0  0  0  0  0  0  0  0  0  0  0  0
   56.0370   26.7010   46.0140 O   0  0  0  0  0  0  0  0  0  0  0  0
   62.0239   31.1568   47.7237 H   0  0  0  0  0  0  0  0  0  0  0  0
   61.1482   30.0033   46.6610 H   0  0  0  0  0  0  0  0  0  0  0  0
   60.6995   31.7426   46.6610 H   0  0  0  0  0  0  0  0  0  0  0  0
   59.1967   33.8251   49.4249 H   0  0  0  0  0  0  0  0  0  0  0  0
   60.7140   33.3330   48.5618 H   0  0  0  0  0  0  0  0  0  0  0  0
   57.1292   32.4848   47.7571 H   0  0  0  0  0  0  0  0  0  0  0  0
   56.0834   33.0630   45.5670 H   0  0  0  0  0  0  0  0  0  0  0  0
   57.3394   34.4358   43.9026 H   0  0  0  0  0  0  0  0  0  0  0  0
   59.6435   35.2365   44.4293 H   0  0  0  0  0  0  0  0  0  0  0  0
   60.6987   34.6622   46.6146 H   0  0  0  0  0  0  0  0  0  0  0  0
   57.9584   32.2825   50.5707 H   0  0  0  0  0  0  0  0  0  0  0  0
   59.1538   25.9648   48.3311 H   0  0  0  0  0  0  0  0  0  0  0  0
   58.2370   27.5331   48.2700 H   0  0  0  0  0  0  0  0  0  0  0  0
   59.7576   26.6965   45.8199 H   0  0  0  0  0  0  0  0  0  0  0  0
   58.2287   25.8173   46.2288 H   0  0  0  0  0  0  0  0  0  0  0  0
   59.7214   29.0971   45.5203 H   0  0  0  0  0  0  0  0  0  0  0  0
   58.4066   30.9891   44.5460 H   0  0  0  0  0  0  0  0  0  0  0  0
  1  2  1  0
  2  3  1  0
  3  4  1  0
  4  5  1  0
  5  6  2  0
  6  7  1  0
  7  8  2  0
  8  9  1  0
  9 10  2  0
  3 11  2  0
 11 12  1  0
 12 13  2  0
 12 14  1  0
 14 15  1  0
 15 16  1  0
 16 17  1  0
 17 18  1  0
 18 19  1  0
 19 20  1  0
 20 21  2  0
 21 22  1  0
 22 23  2  0
 22 24  1  0
 24 25  1  0
 25 26  2  0
 15  2  2  0
 25 19  1  0
 10  5  1  0
  1 27  1  0
  1 28  1  0
  1 29  1  0
  4 30  1  0
  4 31  1  0
  6 32  1  0
  7 33  1  0
  8 34  1  0
  9 35  1  0
 10 36  1  0
 11 37  1  0
 17 38  1  0
 17 39  1  0
 18 40  1  0
 18 41  1  0
 20 42  1  0
 21 43  1  0
M  CHG  2  14  -1  24  -1
M  END
>  <UniqueID>  (26) 
25

>  <SMILES>  (26) 
Cc1c(Cc2ccccc2)cc(=O)[n-]c1SCCn1ccc(=O)[n-]c1=O

>  <Energy>  (26) 
46.064974930968894

>  <Genealogy>  (26) 
Cc1c(Cc2ccccc2)cc(=O)[n-]c1SCCn1ccc(=O)[n-]c1=O (protonated)
Cc1c(Cc2ccccc2)cc(=O)[n-]c1SCCn1ccc(=O)[n-]c1=O (3D coordinates assigned)
Cc1c(Cc2ccccc2)cc(=O)[n-]c1SCCn1ccc(=O)[n-]c1=O (optimized conformer: 46.064974930968894 kcal/mol)

>  <smiles>  (26) 
Cc1c(Cc2ccccc2)cc(=O)[nH]c1SCCn1ccc(=O)[nH]c1=O

>  <score_type>  (26) 
oracle

>  <origin>  (26) 
adg

>  <m_score__min__energy>  (26) 
-12.68

>  <m_primary>  (26) 
energy

$$$$
26:0
     RDKit          3D

 44 46  0  0  0  0  0  0  0  0999 V2000
   58.9330   30.1450   47.0800 C   0  0  0  0  0  0  0  0  0  0  0  0
   59.6290   31.4490   46.8200 C   0  0  0  0  0  0  0  0  0  0  0  0
   60.8600   31.7180   47.4560 C   0  0  0  0  0  0  0  0  0  0  0  0
   61.4750   32.9880   47.3440 C   0  0  0  0  0  0  0  0  0  0  0  0
   62.7630   33.2840   48.0140 C   0  0  0  0  0  0  0  0  0  0  0  0
   63.5700   34.0770   47.4550 O   0  0  0  0  0  0  0  0  0  0  0  0
   63.1080   32.6800   49.2750 N   0  0  0  0  0  0  0  0  0  0  0  0
   64.3010   32.9920   50.0140 C   0  0  0  0  0  0  0  0  0  0  0  0
   65.5200   32.3440   49.7460 C   0  0  0  0  0  0  0  0  0  0  0  0
   66.6730   32.6840   50.4600 C   0  0  0  0  0  0  0  0  0  0  0  0
   66.6290   33.6750   51.4560 C   0  0  0  0  0  0  0  0  0  0  0  0
   67.8840   34.0750   52.1900 C   0  0  0  0  0  0  0  0  0  0  0  0
   67.9580   35.4540   52.2470 F   0  0  0  0  0  0  0  0  0  0  0  0
   67.8770   33.5710   53.4790 F   0  0  0  0  0  0  0  0  0  0  0  0
   69.0060   33.5900   51.5410 F   0  0  0  0  0  0  0  0  0  0  0  0
   65.4220   34.3560   51.6850 C   0  0  0  0  0  0  0  0  0  0  0  0
   64.2700   34.0160   50.9700 C   0  0  0  0  0  0  0  0  0  0  0  0
   60.8430   33.9900   46.5840 C   0  0  0  0  0  0  0  0  0  0  0  0
   59.6400   33.6990   45.9450 C   0  0  0  0  0  0  0  0  0  0  0  0
   59.0720   32.4540   46.0040 C   0  0  0  0  0  0  0  0  0  0  0  0
   57.8610   32.4040   45.2510 N   0  0  0  0  0  0  0  0  0  0  0  0
   57.4620   31.0840   44.1820 S   0  0  0  0  0  0  0  0  0  0  0  0
   57.4020   31.6440   42.4920 C   0  0  0  0  0  0  0  0  0  0  0  0
   56.1400   30.4850   44.5740 O   0  0  0  0  0  0  0  0  0  0  0  0
   58.5100   30.0100   44.2830 O   0  0  0  0  0  0  0  0  0  0  0  0
   57.5320   33.7870   44.8790 C   0  0  0  0  0  0  0  0  0  0  0  0
   58.7930   34.6270   45.1590 C   0  0  0  0  0  0  0  0  0  0  0  0
   58.8476   29.9849   48.1649 H   0  0  0  0  0  0  0  0  0  0  0  0
   57.9283   30.1701   46.6328 H   0  0  0  0  0  0  0  0  0  0  0  0
   59.5130   29.3243   46.6328 H   0  0  0  0  0  0  0  0  0  0  0  0
   61.3485   30.9294   48.0472 H   0  0  0  0  0  0  0  0  0  0  0  0
   62.4920   31.9350   49.6700 H   0  0  0  0  0  0  0  0  0  0  0  0
   65.5666   31.5654   48.9704 H   0  0  0  0  0  0  0  0  0  0  0  0
   67.6217   32.1722   50.2407 H   0  0  0  0  0  0  0  0  0  0  0  0
   65.3831   35.1624   52.4321 H   0  0  0  0  0  0  0  0  0  0  0  0
   63.3311   34.5569   51.1594 H   0  0  0  0  0  0  0  0  0  0  0  0
   61.2932   34.9898   46.4958 H   0  0  0  0  0  0  0  0  0  0  0  0
   57.2848   32.7376   42.4720 H   0  0  0  0  0  0  0  0  0  0  0  0
   58.3351   31.3658   41.9802 H   0  0  0  0  0  0  0  0  0  0  0  0
   56.5490   31.1744   41.9802 H   0  0  0  0  0  0  0  0  0  0  0  0
   57.2684   33.8412   43.8124 H   0  0  0  0  0  0  0  0  0  0  0  0
   56.6705   34.1591   45.4529 H   0  0  0  0  0  0  0  0  0  0  0  0
   59.2900   34.9194   44.2222 H   0  0  0  0  0  0  0  0  0  0  0  0
   58.5795   35.5703   45.6830 H   0  0  0  0  0  0  0  0  0  0  0  0
  1  2  1  0
  2  3  2  0
  3  4  1  0
  4  5  1  0
  5  6  2  0
  5  7  1  0
  7  8  1  0
  8  9  2  0
  9 10  1  0
 10 11  2  0
 11 12  1  0
 12 13  1  0
 12 14  1  0
 12 15  1  0
 11 16  1  0
 16 17  2  0
  4 18  2  0
 18 19  1  0
 19 20  2  0
 20 21  1  0
 21 22  1  0
 22 23  1  0
 22 24  2  0
 22 25  2  0
 21 26  1  0
 26 27  1  0
 20  2  1  0
 17  8  1  0
 27 19  1  0
  1 28  1  0
  1 29  1  0
  1 30  1  0
  3 31  1  0
  7 32  1  0
  9 33  1  0
 10 34  1  0
 16 35  1  0
 17 36  1  0
 18 37  1  0
 23 38  1  0
 23 39  1  0
 23 40  1  0
 26 41  1  0
 26 42  1  0
 27 43  1  0
 27 44  1  0
M  END
>  <UniqueID>  (27) 
26

>  <SMILES>  (27) 
Cc1cc(C(=O)Nc2ccc(C(F)(F)F)cc2)cc2c1N(S(C)(=O)=O)CC2

>  <Energy>  (27) 
70.62058308488803

>  <Genealogy>  (27) 
Cc1cc(C(=O)Nc2ccc(C(F)(F)F)cc2)cc2c1N(S(C)(=O)=O)CC2 (3D coordinates assigned)
Cc1cc(C(=O)Nc2ccc(C(F)(F)F)cc2)cc2c1N(S(C)(=O)=O)CC2 (nonaromatic ring conformer: 70.62058308488803 kcal/mol)

>  <smiles>  (27) 
Cc1cc(C(=O)Nc2ccc(C(F)(F)F)cc2)cc2c1N(S(C)(=O)=O)CC2

>  <score_type>  (27) 
oracle

>  <origin>  (27) 
adg

>  <m_score__min__energy>  (27) 
-8.0999999999999996

>  <m_primary>  (27) 
energy

$$$$
27:0
     RDKit          3D

 61 64  0  0  0  0  0  0  0  0999 V2000
   56.2565   30.9363   43.1113 H   0  0  0  0  0  0  0  0  0  0  0  0
   56.8520   30.4280   43.8840 C   0  0  0  0  0  0  0  0  0  0  0  0
   58.1020   30.8640   44.1710 N   0  0  0  0  0  0  0  0  0  0  0  0
   58.8490   30.2920   45.1500 C   0  0  0  0  0  0  0  0  0  0  0  0
   59.8614   30.6716   45.3521 H   0  0  0  0  0  0  0  0  0  0  0  0
   58.3460   29.2220   45.9080 C   0  0  0  0  0  0  0  0  0  0  0  0
   59.1690   28.8870   47.4500 S   0  0  0  0  0  0  0  0  0  0  0  0
   60.6590   28.9250   47.2630 O   0  0  0  0  0  0  0  0  0  0  0  0
   58.7600   27.5440   47.9910 O   0  0  0  0  0  0  0  0  0  0  0  0
   58.7380   30.0970   48.6250 N   0  0  0  0  0  0  0  0  0  0  0  0
   59.5960   31.2850   48.5370 C   0  0  2  0  0  0  0  0  0  0  0  0
   60.0835   31.2738   47.5510 H   0  0  0  0  0  0  0  0  0  0  0  0
   60.7000   31.2490   49.5820 C   0  0  0  0  0  0  0  0  0  0  0  0
   60.5050   30.5420   50.6070 O   0  0  0  0  0  0  0  0  0  0  0  0
   61.9810   31.9050   49.4220 N   0  0  0  0  0  0  0  0  0  0  0  0
   63.1630   31.2250   49.9920 C   0  0  0  0  0  0  0  0  0  0  0  0
   63.0076   31.1098   51.0749 H   0  0  0  0  0  0  0  0  0  0  0  0
   63.2566   30.2593   49.4736 H   0  0  0  0  0  0  0  0  0  0  0  0
   64.4850   31.9810   49.7700 C   0  0  0  0  0  0  0  0  0  0  0  0
   64.6904   32.6017   50.6546 H   0  0  0  0  0  0  0  0  0  0  0  0
   65.2770   31.2344   49.6104 H   0  0  0  0  0  0  0  0  0  0  0  0
   64.4410   32.8120   48.6340 O   0  0  0  0  0  0  0  0  0  0  0  0
   63.4770   33.8140   48.8460 C   0  0  0  0  0  0  0  0  0  0  0  0
   63.6208   34.2534   49.8441 H   0  0  0  0  0  0  0  0  0  0  0  0
   63.5889   34.5932   48.0776 H   0  0  0  0  0  0  0  0  0  0  0  0
   62.0790   33.2150   48.7540 C   0  0  0  0  0  0  0  0  0  0  0  0
   61.3670   33.9067   49.2279 H   0  0  0  0  0  0  0  0  0  0  0  0
   61.8492   33.0649   47.6888 H   0  0  0  0  0  0  0  0  0  0  0  0
   58.7670   32.5850   48.6180 C   0  0  0  0  0  0  0  0  0  0  0  0
   57.7705   32.3364   49.0121 H   0  0  0  0  0  0  0  0  0  0  0  0
   59.3193   33.2758   49.2720 H   0  0  0  0  0  0  0  0  0  0  0  0
   58.5930   33.2820   47.2920 C   0  0  0  0  0  0  0  0  0  0  0  0
   59.6180   34.0920   46.7760 C   0  0  0  0  0  0  0  0  0  0  0  0
   60.5697   34.1830   47.3200 H   0  0  0  0  0  0  0  0  0  0  0  0
   59.4350   34.7830   45.5750 C   0  0  0  0  0  0  0  0  0  0  0  0
   60.2374   35.4254   45.1831 H   0  0  0  0  0  0  0  0  0  0  0  0
   58.2350   34.6590   44.8720 C   0  0  0  0  0  0  0  0  0  0  0  0
   58.0892   35.2111   43.9318 H   0  0  0  0  0  0  0  0  0  0  0  0
   57.2190   33.8340   45.3620 C   0  0  0  0  0  0  0  0  0  0  0  0
   56.2788   33.7274   44.8010 H   0  0  0  0  0  0  0  0  0  0  0  0
   57.3970   33.1440   46.5650 C   0  0  0  0  0  0  0  0  0  0  0  0
   56.5979   32.4902   46.9446 H   0  0  0  0  0  0  0  0  0  0  0  0
   57.0860   28.6670   45.5320 C   0  0  0  0  0  0  0  0  0  0  0  0
   56.5970   27.5450   45.9890 N   0  0  0  0  0  0  0  0  0  0  0  0
   57.0450   26.2010   45.7760 C   0  0  0  0  0  0  0  0  0  0  0  0
   58.4200   25.9360   45.7610 C   0  0  0  0  0  0  0  0  0  0  0  0
   59.1381   26.7638   45.8562 H   0  0  0  0  0  0  0  0  0  0  0  0
   58.8830   24.6280   45.6260 C   0  0  0  0  0  0  0  0  0  0  0  0
   59.9642   24.4298   45.5833 H   0  0  0  0  0  0  0  0  0  0  0  0
   57.9780   23.5710   45.5450 C   0  0  0  0  0  0  0  0  0  0  0  0
   58.3463   22.5412   45.4272 H   0  0  0  0  0  0  0  0  0  0  0  0
   56.6050   23.8160   45.6130 C   0  0  0  0  0  0  0  0  0  0  0  0
   55.8955   22.9771   45.5594 H   0  0  0  0  0  0  0  0  0  0  0  0
   56.1250   25.1330   45.7500 C   0  0  0  0  0  0  0  0  0  0  0  0
   54.7560   25.4180   45.8670 O   0  0  0  0  0  0  0  0  0  0  0  0
   53.7110   24.5310   45.4790 C   0  0  0  0  0  0  0  0  0  0  0  0
   53.2267   24.1199   46.3770 H   0  0  0  0  0  0  0  0  0  0  0  0
   52.9685   25.0788   44.8802 H   0  0  0  0  0  0  0  0  0  0  0  0
   54.1309   23.7094   44.8802 H   0  0  0  0  0  0  0  0  0  0  0  0
   56.3200   29.3360   44.5670 C   0  0  0  0  0  0  0  0  0  0  0  0
   55.2963   28.9980   44.3484 H   0  0  0  0  0  0  0  0  0  0  0  0
  1  2  1  0
  2  3  1  0
  3  4  1  0
  4  5  1  0
  4  6  2  0
  6  7  1  0
  7  8  2  0
  7  9  2  0
  7 10  1  0
 10 11  1  0
 11 12  1  6
 11 13  1  0
 13 14  2  0
 13 15  1  0
 15 16  1  0
 16 17  1  0
 16 18  1  0
 16 19  1  0
 19 20  1  0
 19 21  1  0
 19 22  1  0
 22 23  1  0
 23 24  1  0
 23 25  1  0
 23 26  1  0
 26 27  1  0
 26 28  1  0
 11 29  1  0
 29 30  1  0
 29 31  1  0
 29 32  1  0
 32 33  2  0
 33 34  1  0
 33 35  1  0
 35 36  1  0
 35 37  2  0
 37 38  1  0
 37 39  1  0
 39 40  1  0
 39 41  2  0
 41 42  1  0
  6 43  1  0
 43 44  2  0
 44 45  1  0
 45 46  2  0
 46 47  1  0
 46 48  1  0
 48 49  1  0
 48 50  2  0
 50 51  1  0
 50 52  1  0
 52 53  1  0
 52 54  2  0
 54 55  1  0
 55 56  1  0
 56 57  1  0
 56 58  1  0
 56 59  1  0
 43 60  1  0
 60 61  1  0
 60  2  2  0
 26 15  1  0
 41 32  1  0
 54 45  1  0
M  CHG  2   3  -1  10  -1
M  END
>  <UniqueID>  (28) 
27

>  <SMILES>  (28) 
COc1ccccc1/N=c1/cc[n-]cc1S(=O)(=O)[N-][C@@H](Cc1ccccc1)C(=O)N1CCOCC1

>  <Energy>  (28) 
89.50980460395934

>  <Genealogy>  (28) 
COc1ccccc1N=c1cc[n-]cc1S(=O)(=O)[N-]C(Cc1ccccc1)C(=O)N1CCOCC1 (protonated)
COc1ccccc1N=c1cc[n-]cc1S(=O)(=O)[N-][C@@H](Cc1ccccc1)C(=O)N1CCOCC1 (chirality)
COc1ccccc1/N=c1/cc[n-]cc1S(=O)(=O)[N-][C@@H](Cc1ccccc1)C(=O)N1CCOCC1 (cis-trans isomerization)
COc1ccccc1/N=c1/cc[n-]cc1S(=O)(=O)[N-][C@@H](Cc1ccccc1)C(=O)N1CCOCC1 (3D coordinates assigned)
COc1ccccc1/N=c1/cc[n-]cc1S(=O)(=O)[N-][C@@H](Cc1ccccc1)C(=O)N1CCOCC1 (nonaromatic ring conformer: 89.50980460395934 kcal/mol)

>  <smiles>  (28) 
COc1ccccc1N=c1cc[nH]cc1S(=O)(=O)NC(Cc1ccccc1)C(=O)N1CCOCC1

>  <score_type>  (28) 
oracle

>  <origin>  (28) 
adg

>  <m_score__min__energy>  (28) 
-12.15

>  <m_primary>  (28) 
energy

$$$$
28:0
     RDKit          3D

 34 35  0  0  0  0  0  0  0  0999 V2000
   56.1580   25.1730   47.1240 O   0  0  0  0  0  0  0  0  0  0  0  0
   55.8810   26.0810   46.2970 C   0  0  0  0  0  0  0  0  0  0  0  0
   54.5540   26.3340   45.9710 O   0  0  0  0  0  0  0  0  0  0  0  0
   56.9670   26.9190   45.7110 C   0  0  0  0  0  0  0  0  0  0  0  0
   56.4480   28.2490   45.4180 N   0  0  0  0  0  0  0  0  0  0  0  0
   57.0690   29.1790   44.5230 C   0  0  0  0  0  0  0  0  0  0  0  0
   57.2820   28.8290   43.3320 O   0  0  0  0  0  0  0  0  0  0  0  0
   57.4290   30.5450   44.9460 C   0  0  0  0  0  0  0  0  0  0  0  0
   58.0930   30.7640   46.1620 C   0  0  0  0  0  0  0  0  0  0  0  0
   58.3920   32.0630   46.5770 C   0  0  0  0  0  0  0  0  0  0  0  0
   58.0160   33.1620   45.7850 C   0  0  0  0  0  0  0  0  0  0  0  0
   58.2400   34.5100   46.2210 N   0  0  0  0  0  0  0  0  0  0  0  0
   59.4680   35.0180   46.7630 C   0  0  0  0  0  0  0  0  0  0  0  0
   60.0230   35.9970   46.2010 O   0  0  0  0  0  0  0  0  0  0  0  0
   60.0820   34.4430   47.9250 N   0  0  0  0  0  0  0  0  0  0  0  0
   61.4470   34.0100   48.0290 C   0  0  0  0  0  0  0  0  0  0  0  0
   62.1600   33.7170   46.8570 C   0  0  0  0  0  0  0  0  0  0  0  0
   61.5610   33.8460   45.6460 F   0  0  0  0  0  0  0  0  0  0  0  0
   63.4780   33.2560   46.9290 C   0  0  0  0  0  0  0  0  0  0  0  0
   64.1000   33.1060   48.1700 C   0  0  0  0  0  0  0  0  0  0  0  0
   63.4100   33.4260   49.3420 C   0  0  0  0  0  0  0  0  0  0  0  0
   62.0910   33.8860   49.2770 C   0  0  0  0  0  0  0  0  0  0  0  0
   61.4570   34.2320   50.4250 F   0  0  0  0  0  0  0  0  0  0  0  0
   57.4170   32.9400   44.5400 C   0  0  0  0  0  0  0  0  0  0  0  0
   57.1240   31.6380   44.1210 C   0  0  0  0  0  0  0  0  0  0  0  0
   57.7967   26.9988   46.4288 H   0  0  0  0  0  0  0  0  0  0  0  0
   57.3297   26.4536   44.7827 H   0  0  0  0  0  0  0  0  0  0  0  0
   58.3794   29.9085   46.7914 H   0  0  0  0  0  0  0  0  0  0  0  0
   58.9232   32.2270   47.5262 H   0  0  0  0  0  0  0  0  0  0  0  0
   64.0255   33.0112   46.0069 H   0  0  0  0  0  0  0  0  0  0  0  0
   65.1343   32.7355   48.2250 H   0  0  0  0  0  0  0  0  0  0  0  0
   63.9054   33.3159   50.3180 H   0  0  0  0  0  0  0  0  0  0  0  0
   57.1756   33.7927   43.8883 H   0  0  0  0  0  0  0  0  0  0  0  0
   56.6528   31.4705   43.1412 H   0  0  0  0  0  0  0  0  0  0  0  0
  1  2  2  0
  2  3  1  0
  2  4  1  0
  4  5  1  0
  5  6  1  0
  6  7  2  0
  6  8  1  0
  8  9  2  0
  9 10  1  0
 10 11  2  0
 11 12  1  0
 12 13  1  0
 13 14  2  0
 13 15  1  0
 15 16  1  0
 16 17  2  0
 17 18  1  0
 17 19  1  0
 19 20  2  0
 20 21  1  0
 21 22  2  0
 22 23  1  0
 11 24  1  0
 24 25  2  0
 25  8  1  0
 22 16  1  0
  4 26  1  0
  4 27  1  0
  9 28  1  0
 10 29  1  0
 19 30  1  0
 20 31  1  0
 21 32  1  0
 24 33  1  0
 25 34  1  0
M  CHG  4   3  -1   5  -1  12  -1  15  -1
M  END
>  <UniqueID>  (29) 
28

>  <SMILES>  (29) 
O=C([O-])C[N-]C(=O)c1ccc([N-]C(=O)[N-]c2c(F)cccc2F)cc1

>  <Energy>  (29) 
44.235536142721486

>  <Genealogy>  (29) 
O=C([O-])C[N-]C(=O)c1ccc([N-]C(=O)[N-]c2c(F)cccc2F)cc1 (protonated)
O=C([O-])C[N-]C(=O)c1ccc([N-]C(=O)[N-]c2c(F)cccc2F)cc1 (3D coordinates assigned)
O=C([O-])C[N-]C(=O)c1ccc([N-]C(=O)[N-]c2c(F)cccc2F)cc1 (optimized conformer: 44.235536142721486 kcal/mol)

>  <smiles>  (29) 
O=C(O)CNC(=O)c1ccc(NC(=O)Nc2c(F)cccc2F)cc1

>  <score_type>  (29) 
oracle

>  <origin>  (29) 
adg

>  <m_score__min__energy>  (29) 
-13.630000000000001

>  <m_primary>  (29) 
energy

$$$$
29:0
     RDKit          3D

 57 60  0  0  0  0  0  0  0  0999 V2000
   58.1660   26.9490   43.6360 C   0  0  0  0  0  0  0  0  0  0  0  0
   57.6760   25.9610   44.6940 C   0  0  0  0  0  0  0  0  0  0  0  0
   56.5560   26.7210   45.8630 S   0  0  0  0  0  0  0  0  0  0  0  0
   55.4350   25.7780   46.2150 O   0  0  0  0  0  0  0  0  0  0  0  0
   57.3290   27.0200   47.1190 O   0  0  0  0  0  0  0  0  0  0  0  0
   55.9230   28.2200   45.2480 N   0  0  0  0  0  0  0  0  0  0  0  0
   56.6380   29.4520   45.0630 C   0  0  0  0  0  0  0  0  0  0  0  0
   56.4800   30.1360   43.8510 C   0  0  0  0  0  0  0  0  0  0  0  0
   57.1450   31.3430   43.6200 C   0  0  0  0  0  0  0  0  0  0  0  0
   57.9630   31.8950   44.6100 C   0  0  0  0  0  0  0  0  0  0  0  0
   58.5910   33.0800   44.3870 N   0  0  0  0  0  0  0  0  0  0  0  0
   59.3760   33.6600   45.3280 C   0  0  0  0  0  0  0  0  0  0  0  0
   59.5520   33.0460   46.5700 C   0  0  0  0  0  0  0  0  0  0  0  0
   58.9260   31.8250   46.8400 C   0  0  0  0  0  0  0  0  0  0  0  0
   59.0650   31.2330   48.1370 N   0  0  0  0  0  0  0  0  0  0  0  0
   59.4530   29.8310   48.2760 C   0  0  0  0  0  0  0  0  0  0  0  0
   60.5790   29.7370   49.3060 C   0  0  0  0  0  0  0  0  0  0  0  0
   60.2000   30.3350   50.6100 N   0  0  0  0  0  0  0  0  0  0  0  0
   61.3600   30.7910   51.4130 C   0  0  0  0  0  0  0  0  0  0  0  0
   62.6870   30.8130   50.6250 C   0  0  0  0  0  0  0  0  0  0  0  0
   62.6900   31.9470   49.6340 C   0  0  0  0  0  0  0  0  0  0  0  0
   62.0200   33.1470   49.9260 C   0  0  0  0  0  0  0  0  0  0  0  0
   62.0480   34.2090   49.0180 C   0  0  0  0  0  0  0  0  0  0  0  0
   62.7540   34.0870   47.8200 C   0  0  0  0  0  0  0  0  0  0  0  0
   63.4370   32.9010   47.5280 C   0  0  0  0  0  0  0  0  0  0  0  0
   64.1340   32.7850   46.3730 F   0  0  0  0  0  0  0  0  0  0  0  0
   63.4080   31.8360   48.4330 C   0  0  0  0  0  0  0  0  0  0  0  0
   59.0380   31.2550   50.6180 C   0  0  0  0  0  0  0  0  0  0  0  0
   58.9050   32.0760   49.3230 C   0  0  0  0  0  0  0  0  0  0  0  0
   58.1240   31.2260   45.8480 C   0  0  0  0  0  0  0  0  0  0  0  0
   57.4680   30.0010   46.0590 C   0  0  0  0  0  0  0  0  0  0  0  0
   58.6026   27.8292   44.1306 H   0  0  0  0  0  0  0  0  0  0  0  0
   58.9287   26.4654   43.0080 H   0  0  0  0  0  0  0  0  0  0  0  0
   57.3194   27.2635   43.0080 H   0  0  0  0  0  0  0  0  0  0  0  0
   57.1546   25.1333   44.1909 H   0  0  0  0  0  0  0  0  0  0  0  0
   58.5533   25.6020   45.2521 H   0  0  0  0  0  0  0  0  0  0  0  0
   55.8250   29.7183   43.0722 H   0  0  0  0  0  0  0  0  0  0  0  0
   57.0245   31.8601   42.6566 H   0  0  0  0  0  0  0  0  0  0  0  0
   59.8754   34.6162   45.1128 H   0  0  0  0  0  0  0  0  0  0  0  0
   60.1825   33.5224   47.3352 H   0  0  0  0  0  0  0  0  0  0  0  0
   58.5899   29.2394   48.6153 H   0  0  0  0  0  0  0  0  0  0  0  0
   59.7955   29.4378   47.3075 H   0  0  0  0  0  0  0  0  0  0  0  0
   60.8283   28.6770   49.4619 H   0  0  0  0  0  0  0  0  0  0  0  0
   61.4403   30.2988   48.9155 H   0  0  0  0  0  0  0  0  0  0  0  0
   61.1537   31.8090   51.7750 H   0  0  0  0  0  0  0  0  0  0  0  0
   61.4854   30.0717   52.2357 H   0  0  0  0  0  0  0  0  0  0  0  0
   63.5235   30.9431   51.3273 H   0  0  0  0  0  0  0  0  0  0  0  0
   62.7948   29.8631   50.0808 H   0  0  0  0  0  0  0  0  0  0  0  0
   61.4710   33.2510   50.8735 H   0  0  0  0  0  0  0  0  0  0  0  0
   61.5130   35.1423   49.2477 H   0  0  0  0  0  0  0  0  0  0  0  0
   62.7735   34.9231   47.1055 H   0  0  0  0  0  0  0  0  0  0  0  0
   63.9502   30.9070   48.2030 H   0  0  0  0  0  0  0  0  0  0  0  0
   58.1222   30.6602   50.7503 H   0  0  0  0  0  0  0  0  0  0  0  0
   59.1911   31.9674   51.4421 H   0  0  0  0  0  0  0  0  0  0  0  0
   57.9103   32.5449   49.2972 H   0  0  0  0  0  0  0  0  0  0  0  0
   59.6969   32.8394   49.3144 H   0  0  0  0  0  0  0  0  0  0  0  0
   57.6043   29.4665   47.0107 H   0  0  0  0  0  0  0  0  0  0  0  0
  1  2  1  0
  2  3  1  0
  3  4  2  0
  3  5  2  0
  3  6  1  0
  6  7  1  0
  7  8  2  0
  8  9  1  0
  9 10  2  0
 10 11  1  0
 11 12  2  0
 12 13  1  0
 13 14  2  0
 14 15  1  0
 15 16  1  0
 16 17  1  0
 17 18  1  0
 18 19  1  0
 19 20  1  0
 20 21  1  0
 21 22  2  0
 22 23  1  0
 23 24  2  0
 24 25  1  0
 25 26  1  0
 25 27  2  0
 18 28  1  0
 28 29  1  0
 14 30  1  0
 30 31  2  0
 31  7  1  0
 30 10  1  0
 29 15  1  0
 27 21  1  0
  1 32  1  0
  1 33  1  0
  1 34  1  0
  2 35  1  0
  2 36  1  0
  8 37  1  0
  9 38  1  0
 12 39  1  0
 13 40  1  0
 16 41  1  0
 16 42  1  0
 17 43  1  0
 17 44  1  0
 19 45  1  0
 19 46  1  0
 20 47  1  0
 20 48  1  0
 22 49  1  0
 23 50  1  0
 24 51  1  0
 27 52  1  0
 28 53  1  0
 28 54  1  0
 29 55  1  0
 29 56  1  0
 31 57  1  0
M  CHG  1   6  -1
M  END
>  <UniqueID>  (30) 
29

>  <SMILES>  (30) 
CCS(=O)(=O)[N-]c1ccc2nccc(N3CCN(CCc4cccc(F)c4)CC3)c2c1

>  <Energy>  (30) 
73.9395511058271

>  <Genealogy>  (30) 
CCS(=O)(=O)[N-]c1ccc2nccc(N3CCN(CCc4cccc(F)c4)CC3)c2c1 (protonated)
CCS(=O)(=O)[N-]c1ccc2nccc(N3CCN(CCc4cccc(F)c4)CC3)c2c1 (3D coordinates assigned)
CCS(=O)(=O)[N-]c1ccc2nccc(N3CCN(CCc4cccc(F)c4)CC3)c2c1 (nonaromatic ring conformer: 73.9395511058271 kcal/mol)

>  <smiles>  (30) 
CCS(=O)(=O)Nc1ccc2nccc(N3CCN(CCc4cccc(F)c4)CC3)c2c1

>  <score_type>  (30) 
oracle

>  <origin>  (30) 
adg

>  <m_score__min__energy>  (30) 
-11.130000000000001

>  <m_primary>  (30) 
energy

$$$$
30:0
     RDKit          3D

 53 57  0  0  0  0  0  0  0  0999 V2000
   54.7950   23.8050   44.3720 C   0  0  0  0  0  0  0  0  0  0  0  0
   56.2290   23.3660   44.5040 C   0  0  0  0  0  0  0  0  0  0  0  0
   56.6510   22.2540   43.7520 C   0  0  0  0  0  0  0  0  0  0  0  0
   57.9790   21.8240   43.7930 C   0  0  0  0  0  0  0  0  0  0  0  0
   58.9070   22.5090   44.5720 C   0  0  0  0  0  0  0  0  0  0  0  0
   58.5110   23.6200   45.3160 C   0  0  0  0  0  0  0  0  0  0  0  0
   57.1750   24.0580   45.3120 C   0  0  0  0  0  0  0  0  0  0  0  0
   56.7780   25.4930   46.2960 S   0  0  0  0  0  0  0  0  0  0  0  0
   56.8290   25.1630   47.7620 O   0  0  0  0  0  0  0  0  0  0  0  0
   55.3590   25.8860   45.9850 O   0  0  0  0  0  0  0  0  0  0  0  0
   57.8060   26.8760   45.9640 N   0  0  0  0  0  0  0  0  0  0  0  0
   57.7970   27.8440   47.0840 C   0  0  0  0  0  0  0  0  0  0  0  0
   58.2150   29.2420   46.6180 C   0  0  0  0  0  0  0  0  0  0  0  0
   57.2520   29.7650   45.6200 N   0  0  0  0  0  0  0  0  0  0  0  0
   57.7640   30.9520   44.9000 C   0  0  0  0  0  0  0  0  0  0  0  0
   58.5990   31.8520   45.7690 C   0  0  0  0  0  0  0  0  0  0  0  0
   58.1430   33.0060   46.3190 N   0  0  0  0  0  0  0  0  0  0  0  0
   59.1980   33.4480   47.0180 C   0  0  0  0  0  0  0  0  0  0  0  0
   59.3150   34.5910   47.8030 C   0  0  0  0  0  0  0  0  0  0  0  0
   60.5070   34.8150   48.4350 N   0  0  0  0  0  0  0  0  0  0  0  0
   61.5670   33.9530   48.3160 C   0  0  0  0  0  0  0  0  0  0  0  0
   62.7690   34.2110   48.9860 C   0  0  0  0  0  0  0  0  0  0  0  0
   63.8410   33.3190   48.8680 C   0  0  0  0  0  0  0  0  0  0  0  0
   63.7210   32.1660   48.0800 C   0  0  0  0  0  0  0  0  0  0  0  0
   62.5290   31.8950   47.4020 C   0  0  0  0  0  0  0  0  0  0  0  0
   61.4520   32.7830   47.5160 C   0  0  0  0  0  0  0  0  0  0  0  0
   60.2310   32.5760   46.8790 C   0  0  0  0  0  0  0  0  0  0  0  0
   59.8540   31.5910   46.1000 O   0  0  0  0  0  0  0  0  0  0  0  0
   56.6640   28.7310   44.7320 C   0  0  0  0  0  0  0  0  0  0  0  0
   57.5530   27.4790   44.6380 C   0  0  0  0  0  0  0  0  0  0  0  0
   54.3588   23.9385   45.3730 H   0  0  0  0  0  0  0  0  0  0  0  0
   54.7521   24.7574   43.8233 H   0  0  0  0  0  0  0  0  0  0  0  0
   54.2263   23.0398   43.8233 H   0  0  0  0  0  0  0  0  0  0  0  0
   55.9255   21.7165   43.1237 H   0  0  0  0  0  0  0  0  0  0  0  0
   58.2913   20.9449   43.2103 H   0  0  0  0  0  0  0  0  0  0  0  0
   59.9542   22.1735   44.6008 H   0  0  0  0  0  0  0  0  0  0  0  0
   59.2563   24.1627   45.9160 H   0  0  0  0  0  0  0  0  0  0  0  0
   56.7818   27.8955   47.5043 H   0  0  0  0  0  0  0  0  0  0  0  0
   58.5167   27.5024   47.8425 H   0  0  0  0  0  0  0  0  0  0  0  0
   58.2425   29.9194   47.4843 H   0  0  0  0  0  0  0  0  0  0  0  0
   59.2104   29.1800   46.1540 H   0  0  0  0  0  0  0  0  0  0  0  0
   58.3800   30.6106   44.0550 H   0  0  0  0  0  0  0  0  0  0  0  0
   56.8931   31.5342   44.5646 H   0  0  0  0  0  0  0  0  0  0  0  0
   57.1970   33.4410   46.2280 H   0  0  0  0  0  0  0  0  0  0  0  0
   58.4748   35.2926   47.9118 H   0  0  0  0  0  0  0  0  0  0  0  0
   62.8708   35.1146   49.6050 H   0  0  0  0  0  0  0  0  0  0  0  0
   64.7835   33.5240   49.3969 H   0  0  0  0  0  0  0  0  0  0  0  0
   64.5692   31.4708   47.9947 H   0  0  0  0  0  0  0  0  0  0  0  0
   62.4375   30.9903   46.7830 H   0  0  0  0  0  0  0  0  0  0  0  0
   55.6806   28.4393   45.1292 H   0  0  0  0  0  0  0  0  0  0  0  0
   56.5742   29.1605   43.7233 H   0  0  0  0  0  0  0  0  0  0  0  0
   57.0526   26.7357   43.9999 H   0  0  0  0  0  0  0  0  0  0  0  0
   58.5214   27.7821   44.2133 H   0  0  0  0  0  0  0  0  0  0  0  0
  1  2  1  0
  2  3  2  0
  3  4  1  0
  4  5  2  0
  5  6  1  0
  6  7  2  0
  7  8  1  0
  8  9  2  0
  8 10  2  0
  8 11  1  0
 11 12  1  0
 12 13  1  0
 13 14  1  0
 14 15  1  0
 15 16  1  0
 16 17  2  0
 17 18  1  0
 18 19  2  0
 19 20  1  0
 20 21  2  0
 21 22  1  0
 22 23  2  0
 23 24  1  0
 24 25  2  0
 25 26  1  0
 26 27  2  0
 27 28  1  0
 14 29  1  0
 29 30  1  0
  7  2  1  0
 30 11  1  0
 28 16  1  0
 27 18  1  0
 26 21  1  0
  1 31  1  0
  1 32  1  0
  1 33  1  0
  3 34  1  0
  4 35  1  0
  5 36  1  0
  6 37  1  0
 12 38  1  0
 12 39  1  0
 13 40  1  0
 13 41  1  0
 15 42  1  0
 15 43  1  0
 17 44  1  0
 19 45  1  0
 22 46  1  0
 23 47  1  0
 24 48  1  0
 25 49  1  0
 29 50  1  0
 29 51  1  0
 30 52  1  0
 30 53  1  0
M  CHG  1  17   1
M  END
>  <UniqueID>  (31) 
30

>  <SMILES>  (31) 
Cc1ccccc1S(=O)(=O)N1CCN(Cc2[nH+]c3cnc4ccccc4c3o2)CC1

>  <Energy>  (31) 
117.13663214685268

>  <Genealogy>  (31) 
Cc1ccccc1S(=O)(=O)N1CCN(Cc2[nH+]c3cnc4ccccc4c3o2)CC1 (protonated)
Cc1ccccc1S(=O)(=O)N1CCN(Cc2[nH+]c3cnc4ccccc4c3o2)CC1 (3D coordinates assigned)
Cc1ccccc1S(=O)(=O)N1CCN(Cc2[nH+]c3cnc4ccccc4c3o2)CC1 (nonaromatic ring conformer: 117.13663214685268 kcal/mol)

>  <smiles>  (31) 
Cc1ccccc1S(=O)(=O)N1CCN(Cc2nc3cnc4ccccc4c3o2)CC1

>  <score_type>  (31) 
oracle

>  <origin>  (31) 
adg

>  <m_score__min__energy>  (31) 
-8.4000000000000004

>  <m_primary>  (31) 
energy

$$$$
31:0
     RDKit          3D

 29 30  0  0  0  0  0  0  0  0999 V2000
   58.0860   32.3900   42.7840 C   0  0  0  0  0  0  0  0  0  0  0  0
   58.1690   32.9640   44.1720 C   0  0  0  0  0  0  0  0  0  0  0  0
   59.1370   33.9380   44.4700 C   0  0  0  0  0  0  0  0  0  0  0  0
   59.2290   34.4740   45.7560 C   0  0  0  0  0  0  0  0  0  0  0  0
   60.1670   35.4140   46.0340 F   0  0  0  0  0  0  0  0  0  0  0  0
   58.3560   34.0440   46.7550 C   0  0  0  0  0  0  0  0  0  0  0  0
   57.3890   33.0770   46.4740 C   0  0  0  0  0  0  0  0  0  0  0  0
   57.2870   32.5250   45.1820 C   0  0  0  0  0  0  0  0  0  0  0  0
   56.3060   31.5230   44.8690 N   0  0  0  0  0  0  0  0  0  0  0  0
   56.6500   29.8790   44.4370 S   0  0  0  0  0  0  0  0  0  0  0  0
   55.5930   28.9860   45.0250 O   0  0  0  0  0  0  0  0  0  0  0  0
   56.6250   29.7490   42.9400 O   0  0  0  0  0  0  0  0  0  0  0  0
   58.2470   29.4200   45.0200 C   0  0  0  0  0  0  0  0  0  0  0  0
   58.5570   29.5200   46.3810 C   0  0  0  0  0  0  0  0  0  0  0  0
   59.8230   29.1460   46.8340 C   0  0  0  0  0  0  0  0  0  0  0  0
   60.7680   28.6790   45.9180 C   0  0  0  0  0  0  0  0  0  0  0  0
   60.4530   28.5940   44.5970 N   0  0  0  0  0  0  0  0  0  0  0  0
   59.2230   28.9520   44.1330 C   0  0  0  0  0  0  0  0  0  0  0  0
   57.9288   31.3030   42.8455 H   0  0  0  0  0  0  0  0  0  0  0  0
   57.2453   32.8522   42.2458 H   0  0  0  0  0  0  0  0  0  0  0  0
   59.0231   32.5951   42.2458 H   0  0  0  0  0  0  0  0  0  0  0  0
   59.8270   34.2805   43.6848 H   0  0  0  0  0  0  0  0  0  0  0  0
   58.4296   34.4680   47.7673 H   0  0  0  0  0  0  0  0  0  0  0  0
   56.7025   32.7441   47.2664 H   0  0  0  0  0  0  0  0  0  0  0  0
   57.8048   29.8924   47.0919 H   0  0  0  0  0  0  0  0  0  0  0  0
   60.0741   29.2184   47.9025 H   0  0  0  0  0  0  0  0  0  0  0  0
   61.7681   28.3796   46.2647 H   0  0  0  0  0  0  0  0  0  0  0  0
   61.1710   28.2440   43.9220 H   0  0  0  0  0  0  0  0  0  0  0  0
   58.9968   28.8730   43.0594 H   0  0  0  0  0  0  0  0  0  0  0  0
  1  2  1  0
  2  3  2  0
  3  4  1  0
  4  5  1  0
  4  6  2  0
  6  7  1  0
  7  8  2  0
  8  9  1  0
  9 10  1  0
 10 11  2  0
 10 12  2  0
 10 13  1  0
 13 14  2  0
 14 15  1  0
 15 16  2  0
 16 17  1  0
 17 18  2  0
  8  2  1  0
 18 13  1  0
  1 19  1  0
  1 20  1  0
  1 21  1  0
  3 22  1  0
  6 23  1  0
  7 24  1  0
 14 25  1  0
 15 26  1  0
 16 27  1  0
 17 28  1  0
 18 29  1  0
M  CHG  2   9  -1  17   1
M  END
>  <UniqueID>  (32) 
31

>  <SMILES>  (32) 
Cc1cc(F)ccc1[N-]S(=O)(=O)c1ccc[nH+]c1

>  <Energy>  (32) 
32.698569763521995

>  <Genealogy>  (32) 
Cc1cc(F)ccc1[N-]S(=O)(=O)c1ccc[nH+]c1 (protonated)
Cc1cc(F)ccc1[N-]S(=O)(=O)c1ccc[nH+]c1 (3D coordinates assigned)
Cc1cc(F)ccc1[N-]S(=O)(=O)c1ccc[nH+]c1 (optimized conformer: 32.698569763521995 kcal/mol)

>  <smiles>  (32) 
Cc1cc(F)ccc1NS(=O)(=O)c1cccnc1

>  <score_type>  (32) 
oracle

>  <origin>  (32) 
adg

>  <m_score__min__energy>  (32) 
-7.0700000000000003

>  <m_primary>  (32) 
energy

$$$$
32:0
     RDKit          3D

 64 68  0  0  0  0  0  0  0  0999 V2000
   66.8330   30.8760   50.8780 C   0  0  0  0  0  0  0  0  0  0  0  0
   66.0980   31.9090   50.2280 O   0  0  0  0  0  0  0  0  0  0  0  0
   65.5940   33.0540   50.8710 C   0  0  0  0  0  0  0  0  0  0  0  0
   66.4000   33.8410   51.7250 C   0  0  0  0  0  0  0  0  0  0  0  0
   65.8790   34.9890   52.3350 C   0  0  0  0  0  0  0  0  0  0  0  0
   64.5540   35.3650   52.0940 C   0  0  0  0  0  0  0  0  0  0  0  0
   63.7450   34.5910   51.2590 C   0  0  0  0  0  0  0  0  0  0  0  0
   64.2520   33.4300   50.6450 C   0  0  0  0  0  0  0  0  0  0  0  0
   63.3710   32.5870   49.8740 N   0  0  0  0  0  0  0  0  0  0  0  0
   63.7600   32.1340   48.5280 C   0  0  0  0  0  0  0  0  0  0  0  0
   62.8530   32.7930   47.4760 C   0  0  0  0  0  0  0  0  0  0  0  0
   61.4610   32.8890   47.9570 N   0  0  0  0  0  0  0  0  0  0  0  0
   60.6090   33.9530   47.4830 C   0  0  0  0  0  0  0  0  0  0  0  0
   59.8700   34.5700   48.2990 O   0  0  0  0  0  0  0  0  0  0  0  0
   60.6730   34.4310   46.0510 C   0  0  0  0  0  0  0  0  0  0  0  0
   59.2800   34.6110   45.4220 C   0  0  0  0  0  0  0  0  0  0  0  0
   58.1290   33.8690   46.1420 C   0  0  0  0  0  0  0  0  0  0  0  0
   58.1170   32.4130   45.8630 N   0  0  0  0  0  0  0  0  0  0  0  0
   58.3230   31.5350   47.0000 C   0  0  0  0  0  0  0  0  0  0  0  0
   58.2600   32.0060   48.1730 O   0  0  0  0  0  0  0  0  0  0  0  0
   58.6800   30.1150   46.8610 C   0  0  0  0  0  0  0  0  0  0  0  0
   59.6900   29.5690   47.6730 C   0  0  0  0  0  0  0  0  0  0  0  0
   59.9510   28.1950   47.6510 C   0  0  0  0  0  0  0  0  0  0  0  0
   59.1950   27.3560   46.8290 C   0  0  0  0  0  0  0  0  0  0  0  0
   58.1700   27.8900   46.0410 C   0  0  0  0  0  0  0  0  0  0  0  0
   57.9170   29.2680   46.0530 C   0  0  0  0  0  0  0  0  0  0  0  0
   56.8920   29.7720   45.2650 O   0  0  0  0  0  0  0  0  0  0  0  0
   57.1410   30.7140   44.2700 C   0  0  0  0  0  0  0  0  0  0  0  0
   56.7170   30.3890   42.9770 C   0  0  0  0  0  0  0  0  0  0  0  0
   57.0180   31.2140   41.8980 C   0  0  0  0  0  0  0  0  0  0  0  0
   57.7460   32.3770   42.1020 C   0  0  0  0  0  0  0  0  0  0  0  0
   58.1380   32.7370   43.3890 C   0  0  0  0  0  0  0  0  0  0  0  0
   57.8310   31.9320   44.5130 C   0  0  0  0  0  0  0  0  0  0  0  0
   61.0560   32.0910   49.1230 C   0  0  0  0  0  0  0  0  0  0  0  0
   61.9680   32.4330   50.3070 C   0  0  0  0  0  0  0  0  0  0  0  0
   66.7479   30.9957   51.9681 H   0  0  0  0  0  0  0  0  0  0  0  0
   66.4275   29.8967   50.5838 H   0  0  0  0  0  0  0  0  0  0  0  0
   67.8911   30.9381   50.5838 H   0  0  0  0  0  0  0  0  0  0  0  0
   67.4441   33.5496   51.9118 H   0  0  0  0  0  0  0  0  0  0  0  0
   66.5108   35.5936   53.0023 H   0  0  0  0  0  0  0  0  0  0  0  0
   64.1476   36.2730   52.5634 H   0  0  0  0  0  0  0  0  0  0  0  0
   62.7021   34.8913   51.0795 H   0  0  0  0  0  0  0  0  0  0  0  0
   64.8061   32.4148   48.3360 H   0  0  0  0  0  0  0  0  0  0  0  0
   63.6532   31.0409   48.4670 H   0  0  0  0  0  0  0  0  0  0  0  0
   63.2289   33.8041   47.2608 H   0  0  0  0  0  0  0  0  0  0  0  0
   62.8658   32.1732   46.5673 H   0  0  0  0  0  0  0  0  0  0  0  0
   61.1981   35.3973   46.0257 H   0  0  0  0  0  0  0  0  0  0  0  0
   61.2041   33.6640   45.4682 H   0  0  0  0  0  0  0  0  0  0  0  0
   59.0437   35.6853   45.4210 H   0  0  0  0  0  0  0  0  0  0  0  0
   59.3418   34.1726   44.4150 H   0  0  0  0  0  0  0  0  0  0  0  0
   58.2398   34.0176   47.2263 H   0  0  0  0  0  0  0  0  0  0  0  0
   57.1825   34.2847   45.7662 H   0  0  0  0  0  0  0  0  0  0  0  0
   60.2785   30.2266   48.3296 H   0  0  0  0  0  0  0  0  0  0  0  0
   60.7502   27.7759   48.2799 H   0  0  0  0  0  0  0  0  0  0  0  0
   59.4054   26.2767   46.8014 H   0  0  0  0  0  0  0  0  0  0  0  0
   57.5608   27.2261   45.4101 H   0  0  0  0  0  0  0  0  0  0  0  0
   56.1378   29.4687   42.8113 H   0  0  0  0  0  0  0  0  0  0  0  0
   56.6798   30.9449   40.8864 H   0  0  0  0  0  0  0  0  0  0  0  0
   58.0138   33.0151   41.2470 H   0  0  0  0  0  0  0  0  0  0  0  0
   58.7006   33.6707   43.5363 H   0  0  0  0  0  0  0  0  0  0  0  0
   60.0125   32.3224   49.3831 H   0  0  0  0  0  0  0  0  0  0  0  0
   61.1418   31.0201   48.8867 H   0  0  0  0  0  0  0  0  0  0  0  0
   61.6275   33.3750   50.7616 H   0  0  0  0  0  0  0  0  0  0  0  0
   61.9168   31.6099   51.0349 H   0  0  0  0  0  0  0  0  0  0  0  0
  1  2  1  0
  2  3  1  0
  3  4  2  0
  4  5  1  0
  5  6  2  0
  6  7  1  0
  7  8  2  0
  8  9  1  0
  9 10  1  0
 10 11  1  0
 11 12  1  0
 12 13  1  0
 13 14  2  0
 13 15  1  0
 15 16  1  0
 16 17  1  0
 17 18  1  0
 18 19  1  0
 19 20  2  0
 19 21  1  0
 21 22  2  0
 22 23  1  0
 23 24  2  0
 24 25  1  0
 25 26  2  0
 26 27  1  0
 27 28  1  0
 28 29  2  0
 29 30  1  0
 30 31  2  0
 31 32  1  0
 32 33  2  0
 12 34  1  0
 34 35  1  0
  8  3  1  0
 35  9  1  0
 33 18  1  0
 26 21  1  0
 33 28  1  0
  1 36  1  0
  1 37  1  0
  1 38  1  0
  4 39  1  0
  5 40  1  0
  6 41  1  0
  7 42  1  0
 10 43  1  0
 10 44  1  0
 11 45  1  0
 11 46  1  0
 15 47  1  0
 15 48  1  0
 16 49  1  0
 16 50  1  0
 17 51  1  0
 17 52  1  0
 22 53  1  0
 23 54  1  0
 24 55  1  0
 25 56  1  0
 29 57  1  0
 30 58  1  0
 31 59  1  0
 32 60  1  0
 34 61  1  0
 34 62  1  0
 35 63  1  0
 35 64  1  0
M  END
>  <UniqueID>  (33) 
32

>  <SMILES>  (33) 
COc1ccccc1N1CCN(C(=O)CCCN2C(=O)c3ccccc3Oc3ccccc32)CC1

>  <Energy>  (33) 
100.30858772483353

>  <Genealogy>  (33) 
COc1ccccc1N1CCN(C(=O)CCCN2C(=O)c3ccccc3Oc3ccccc32)CC1 (3D coordinates assigned)
COc1ccccc1N1CCN(C(=O)CCCN2C(=O)c3ccccc3Oc3ccccc32)CC1 (nonaromatic ring conformer: 100.30858772483353 kcal/mol)

>  <smiles>  (33) 
COc1ccccc1N1CCN(C(=O)CCCN2C(=O)c3ccccc3Oc3ccccc32)CC1

>  <score_type>  (33) 
oracle

>  <origin>  (33) 
adg

>  <m_score__min__energy>  (33) 
-9.5500000000000007

>  <m_primary>  (33) 
energy

$$$$
33:0
     RDKit          3D

 33 35  0  0  0  0  0  0  0  0999 V2000
   59.4050   33.5110   49.5850 C   0  0  0  0  0  0  0  0  0  0  0  0
   60.5930   33.2360   48.7750 N   0  0  0  0  0  0  0  0  0  0  0  0
   60.6440   32.7850   47.4910 C   0  0  0  0  0  0  0  0  0  0  0  0
   59.4820   32.5350   46.6190 C   0  0  0  0  0  0  0  0  0  0  0  0
   58.6010   33.4300   46.5120 O   0  0  0  0  0  0  0  0  0  0  0  0
   59.3430   31.2840   45.9210 N   0  0  0  0  0  0  0  0  0  0  0  0
   58.2580   30.9770   45.0290 C   0  0  0  0  0  0  0  0  0  0  0  0
   58.2790   31.4900   43.7230 C   0  0  0  0  0  0  0  0  0  0  0  0
   57.2490   31.1870   42.8270 C   0  0  0  0  0  0  0  0  0  0  0  0
   56.1980   30.3570   43.2230 C   0  0  0  0  0  0  0  0  0  0  0  0
   56.1810   29.8190   44.5130 C   0  0  0  0  0  0  0  0  0  0  0  0
   55.1450   28.9770   44.8990 O   0  0  0  0  0  0  0  0  0  0  0  0
   57.2090   30.1210   45.4130 C   0  0  0  0  0  0  0  0  0  0  0  0
   61.9620   32.5750   47.0940 C   0  0  0  0  0  0  0  0  0  0  0  0
   62.7300   32.9490   48.1740 C   0  0  0  0  0  0  0  0  0  0  0  0
   64.1140   32.9630   48.3320 C   0  0  0  0  0  0  0  0  0  0  0  0
   64.6290   33.4070   49.5630 C   0  0  0  0  0  0  0  0  0  0  0  0
   63.7600   33.8230   50.5950 C   0  0  0  0  0  0  0  0  0  0  0  0
   62.3670   33.7970   50.4060 C   0  0  0  0  0  0  0  0  0  0  0  0
   61.8780   33.3500   49.1740 C   0  0  0  0  0  0  0  0  0  0  0  0
   59.6665   33.4505   50.6517 H   0  0  0  0  0  0  0  0  0  0  0  0
   59.0305   34.5196   49.3559 H   0  0  0  0  0  0  0  0  0  0  0  0
   58.6254   32.7696   49.3559 H   0  0  0  0  0  0  0  0  0  0  0  0
   60.1020   30.5740   46.0130 H   0  0  0  0  0  0  0  0  0  0  0  0
   59.1107   32.1344   43.4021 H   0  0  0  0  0  0  0  0  0  0  0  0
   57.2666   31.6030   41.8088 H   0  0  0  0  0  0  0  0  0  0  0  0
   55.3839   30.1267   42.5200 H   0  0  0  0  0  0  0  0  0  0  0  0
   57.1972   29.6879   46.4241 H   0  0  0  0  0  0  0  0  0  0  0  0
   62.3144   32.1922   46.1248 H   0  0  0  0  0  0  0  0  0  0  0  0
   64.7819   32.6376   47.5208 H   0  0  0  0  0  0  0  0  0  0  0  0
   65.7170   33.4303   49.7230 H   0  0  0  0  0  0  0  0  0  0  0  0
   64.1753   34.1696   51.5528 H   0  0  0  0  0  0  0  0  0  0  0  0
   61.6815   34.1189   51.2038 H   0  0  0  0  0  0  0  0  0  0  0  0
  1  2  1  0
  2  3  1  0
  3  4  1  0
  4  5  2  0
  4  6  1  0
  6  7  1  0
  7  8  2  0
  8  9  1  0
  9 10  2  0
 10 11  1  0
 11 12  1  0
 11 13  2  0
  3 14  2  0
 14 15  1  0
 15 16  2  0
 16 17  1  0
 17 18  2  0
 18 19  1  0
 19 20  2  0
 20  2  1  0
 13  7  1  0
 20 15  1  0
  1 21  1  0
  1 22  1  0
  1 23  1  0
  6 24  1  0
  8 25  1  0
  9 26  1  0
 10 27  1  0
 13 28  1  0
 14 29  1  0
 16 30  1  0
 17 31  1  0
 18 32  1  0
 19 33  1  0
M  CHG  1  12  -1
M  END
>  <UniqueID>  (34) 
33

>  <SMILES>  (34) 
Cn1c(C(=O)Nc2cccc([O-])c2)cc2ccccc21

>  <Energy>  (34) 
77.23187101702405

>  <Genealogy>  (34) 
Cn1c(C(=O)Nc2cccc([O-])c2)cc2ccccc21 (protonated)
Cn1c(C(=O)Nc2cccc([O-])c2)cc2ccccc21 (3D coordinates assigned)
Cn1c(C(=O)Nc2cccc([O-])c2)cc2ccccc21 (optimized conformer: 77.23187101702405 kcal/mol)

>  <smiles>  (34) 
Cn1c(C(=O)Nc2cccc(O)c2)cc2ccccc21

>  <score_type>  (34) 
oracle

>  <origin>  (34) 
adg

>  <m_score__min__energy>  (34) 
-10.51

>  <m_primary>  (34) 
energy

$$$$
34:0
     RDKit          3D

 49 52  0  0  0  0  0  0  0  0999 V2000
   61.2400   30.5640   47.0210 C   0  0  0  0  0  0  0  0  0  0  0  0
   59.9930   29.7450   46.8440 C   0  0  0  0  0  0  0  0  0  0  0  0
   59.0370   30.1340   45.8910 C   0  0  0  0  0  0  0  0  0  0  0  0
   57.8720   29.3810   45.7010 C   0  0  0  0  0  0  0  0  0  0  0  0
   56.6840   29.8550   44.4920 S   0  0  0  0  0  0  0  0  0  0  0  0
   57.1640   29.4830   43.1170 O   0  0  0  0  0  0  0  0  0  0  0  0
   55.3930   29.1370   44.7700 O   0  0  0  0  0  0  0  0  0  0  0  0
   56.3960   31.5630   44.5470 N   0  0  0  0  0  0  0  0  0  0  0  0
   57.3360   32.5470   44.9970 C   0  0  0  0  0  0  0  0  0  0  0  0
   58.2000   33.2210   44.1120 C   0  0  0  0  0  0  0  0  0  0  0  0
   59.1010   34.1750   44.5980 C   0  0  0  0  0  0  0  0  0  0  0  0
   59.1420   34.4670   45.9640 C   0  0  0  0  0  0  0  0  0  0  0  0
   58.2900   33.8010   46.8480 C   0  0  0  0  0  0  0  0  0  0  0  0
   57.3940   32.8410   46.3660 C   0  0  0  0  0  0  0  0  0  0  0  0
   57.6510   28.2400   46.4820 C   0  0  0  0  0  0  0  0  0  0  0  0
   58.5800   27.8630   47.4530 C   0  0  0  0  0  0  0  0  0  0  0  0
   59.7430   28.6240   47.6630 C   0  0  0  0  0  0  0  0  0  0  0  0
   60.7060   28.2430   48.6590 N   0  0  0  0  0  0  0  0  0  0  0  0
   60.7670   28.7210   50.0080 C   0  0  0  0  0  0  0  0  0  0  0  0
   61.6800   28.2930   50.7630 O   0  0  0  0  0  0  0  0  0  0  0  0
   59.9050   29.8240   50.4700 C   0  0  0  0  0  0  0  0  0  0  0  0
   58.6990   29.4580   50.9810 N   0  0  0  0  0  0  0  0  0  0  0  0
   57.7440   30.3620   51.2940 C   0  0  0  0  0  0  0  0  0  0  0  0
   56.6490   29.9790   51.7780 O   0  0  0  0  0  0  0  0  0  0  0  0
   57.9600   31.6760   51.0650 N   0  0  0  0  0  0  0  0  0  0  0  0
   59.1420   32.1210   50.5720 C   0  0  0  0  0  0  0  0  0  0  0  0
   59.3000   33.4890   50.3440 C   0  0  0  0  0  0  0  0  0  0  0  0
   60.5070   33.9880   49.8720 C   0  0  0  0  0  0  0  0  0  0  0  0
   61.5850   33.1320   49.6760 C   0  0  0  0  0  0  0  0  0  0  0  0
   61.4740   31.7520   49.9300 C   0  0  0  0  0  0  0  0  0  0  0  0
   62.7510   30.9510   49.8520 C   0  0  0  0  0  0  0  0  0  0  0  0
   60.2020   31.2100   50.3010 C   0  0  0  0  0  0  0  0  0  0  0  0
   61.4422   30.6968   48.0941 H   0  0  0  0  0  0  0  0  0  0  0  0
   62.0885   30.0467   46.5493 H   0  0  0  0  0  0  0  0  0  0  0  0
   61.1024   31.5481   46.5493 H   0  0  0  0  0  0  0  0  0  0  0  0
   59.2053   31.0387   45.2884 H   0  0  0  0  0  0  0  0  0  0  0  0
   58.1664   32.9968   43.0356 H   0  0  0  0  0  0  0  0  0  0  0  0
   59.7776   34.6955   43.9042 H   0  0  0  0  0  0  0  0  0  0  0  0
   59.8460   35.2222   46.3435 H   0  0  0  0  0  0  0  0  0  0  0  0
   58.3236   34.0314   47.9231 H   0  0  0  0  0  0  0  0  0  0  0  0
   56.7302   32.3131   47.0665 H   0  0  0  0  0  0  0  0  0  0  0  0
   56.7424   27.6389   46.3298 H   0  0  0  0  0  0  0  0  0  0  0  0
   58.4005   26.9627   48.0591 H   0  0  0  0  0  0  0  0  0  0  0  0
   58.4634   34.1760   50.5394 H   0  0  0  0  0  0  0  0  0  0  0  0
   60.6103   35.0610   49.6531 H   0  0  0  0  0  0  0  0  0  0  0  0
   62.5410   33.5403   49.3163 H   0  0  0  0  0  0  0  0  0  0  0  0
   63.1066   30.7280   50.8688 H   0  0  0  0  0  0  0  0  0  0  0  0
   62.5613   30.0098   49.3152 H   0  0  0  0  0  0  0  0  0  0  0  0
   63.5158   31.5315   49.3152 H   0  0  0  0  0  0  0  0  0  0  0  0
  1  2  1  0
  2  3  2  0
  3  4  1  0
  4  5  1  0
  5  6  2  0
  5  7  2  0
  5  8  1  0
  8  9  1  0
  9 10  2  0
 10 11  1  0
 11 12  2  0
 12 13  1  0
 13 14  2  0
  4 15  2  0
 15 16  1  0
 16 17  2  0
 17 18  1  0
 18 19  1  0
 19 20  2  0
 19 21  1  0
 21 22  2  0
 22 23  1  0
 23 24  2  0
 23 25  1  0
 25 26  1  0
 26 27  2  0
 27 28  1  0
 28 29  2  0
 29 30  1  0
 30 31  1  0
 30 32  2  0
 17  2  1  0
 32 21  1  0
 14  9  1  0
 32 26  1  0
  1 33  1  0
  1 34  1  0
  1 35  1  0
  3 36  1  0
 10 37  1  0
 11 38  1  0
 12 39  1  0
 13 40  1  0
 14 41  1  0
 15 42  1  0
 16 43  1  0
 27 44  1  0
 28 45  1  0
 29 46  1  0
 31 47  1  0
 31 48  1  0
 31 49  1  0
M  CHG  3   8  -1  18  -1  25  -1
M  END
>  <UniqueID>  (35) 
34

>  <SMILES>  (35) 
Cc1cc(S(=O)(=O)[N-]c2ccccc2)ccc1[N-]C(=O)c1nc(=O)[n-]c2cccc(C)c12

>  <Energy>  (35) 
78.5876476977241

>  <Genealogy>  (35) 
Cc1cc(S(=O)(=O)[N-]c2ccccc2)ccc1[N-]C(=O)c1nc(=O)[n-]c2cccc(C)c12 (protonated)
Cc1cc(S(=O)(=O)[N-]c2ccccc2)ccc1[N-]C(=O)c1nc(=O)[n-]c2cccc(C)c12 (3D coordinates assigned)
Cc1cc(S(=O)(=O)[N-]c2ccccc2)ccc1[N-]C(=O)c1nc(=O)[n-]c2cccc(C)c12 (optimized conformer: 78.5876476977241 kcal/mol)

>  <smiles>  (35) 
Cc1cc(S(=O)(=O)Nc2ccccc2)ccc1NC(=O)c1nc(=O)[nH]c2cccc(C)c12

>  <score_type>  (35) 
oracle

>  <origin>  (35) 
adg

>  <m_score__min__energy>  (35) 
-13.76

>  <m_primary>  (35) 
energy

$$$$
35:0
     RDKit          3D

 52 55  0  0  1  0  0  0  0  0999 V2000
   58.1110   27.8390   43.7100 C   0  0  0  0  0  0  0  0  0  0  0  0
   58.4440   27.9020   45.1770 C   0  0  0  0  0  0  0  0  0  0  0  0
   58.4730   29.3110   45.6070 C   0  0  0  0  0  0  0  0  0  0  0  0
   58.2610   30.2960   44.7260 N   0  0  0  0  0  0  0  0  0  0  0  0
   58.2890   31.5840   45.1050 C   0  0  0  0  0  0  0  0  0  0  0  0
   58.0900   32.5180   44.1060 C   0  0  0  0  0  0  0  0  0  0  0  0
   57.7460   31.9710   42.3150 Br  0  0  0  0  0  0  0  0  0  0  0  0
   58.1590   33.8310   44.4960 C   0  0  0  0  0  0  0  0  0  0  0  0
   58.4080   34.2150   45.7810 C   0  0  0  0  0  0  0  0  0  0  0  0
   58.6120   33.2790   46.8150 C   0  0  0  0  0  0  0  0  0  0  0  0
   58.8580   33.8140   48.0170 O   0  0  0  0  0  0  0  0  0  0  0  0
   59.9010   34.1890   48.7950 C   0  0  0  0  0  0  0  0  0  0  0  0
   61.2620   33.8080   48.4780 C   0  0  0  0  0  0  0  0  0  0  0  0
   62.2650   33.4220   49.3260 C   0  0  0  0  0  0  0  0  0  0  0  0
   63.5410   33.0920   48.9210 C   0  0  0  0  0  0  0  0  0  0  0  0
   63.8640   33.1420   47.5800 C   0  0  0  0  0  0  0  0  0  0  0  0
   62.8890   33.5230   46.6960 C   0  0  0  0  0  0  0  0  0  0  0  0
   61.6270   33.8490   47.1130 C   0  0  0  0  0  0  0  0  0  0  0  0
   58.5350   31.9710   46.4230 C   0  0  0  0  0  0  0  0  0  0  0  0
   58.7410   30.9560   47.3060 C   0  0  0  0  0  0  0  0  0  0  0  0
   58.7630   31.1020   48.5470 N   0  0  0  0  0  0  0  0  0  0  0  0
   58.6040   30.1550   49.4590 O   0  0  0  0  0  0  0  0  0  0  0  0
   59.4350   30.2130   50.6660 C   0  0  0  0  0  0  0  0  0  0  0  0
   59.1320   31.4920   51.3360 C   0  0  0  0  0  0  0  0  0  0  0  0
   60.2000   32.3260   51.6460 C   0  0  0  0  0  0  0  0  0  0  0  0
   59.9480   33.5310   52.2740 C   0  0  0  0  0  0  0  0  0  0  0  0
   58.6660   33.9340   52.6040 C   0  0  0  0  0  0  0  0  0  0  0  0
   58.5130   35.1180   53.2130 F   0  0  0  0  0  0  0  0  0  0  0  0
   57.6020   33.0980   52.2940 C   0  0  0  0  0  0  0  0  0  0  0  0
   57.8580   31.8960   51.6670 C   0  0  0  0  0  0  0  0  0  0  0  0
   58.7080   29.6600   46.8760 N   0  0  0  0  0  0  0  0  0  0  0  0
   57.0370   27.6358   43.5862 H   0  0  0  0  0  0  0  0  0  0  0  0
   58.3594   28.8001   43.2360 H   0  0  0  0  0  0  0  0  0  0  0  0
   58.6933   27.0351   43.2360 H   0  0  0  0  0  0  0  0  0  0  0  0
   57.6800   27.3577   45.7514 H   0  0  0  0  0  0  0  0  0  0  0  0
   59.4274   27.4415   45.3529 H   0  0  0  0  0  0  0  0  0  0  0  0
   58.0063   34.6117   43.7363 H   0  0  0  0  0  0  0  0  0  0  0  0
   58.4509   35.2884   46.0177 H   0  0  0  0  0  0  0  0  0  0  0  0
   59.8861   35.2885   48.8236 H   0  0  0  0  0  0  0  0  0  0  0  0
   59.7121   33.6322   49.7247 H   0  0  0  0  0  0  0  0  0  0  0  0
   62.0380   33.3718   50.4012 H   0  0  0  0  0  0  0  0  0  0  0  0
   64.2965   32.7909   49.6616 H   0  0  0  0  0  0  0  0  0  0  0  0
   64.8747   32.8835   47.2312 H   0  0  0  0  0  0  0  0  0  0  0  0
   63.1269   33.5680   45.6230 H   0  0  0  0  0  0  0  0  0  0  0  0
   60.8773   34.1507   46.3667 H   0  0  0  0  0  0  0  0  0  0  0  0
   59.1938   29.3712   51.3317 H   0  0  0  0  0  0  0  0  0  0  0  0
   60.5030   30.1461   50.4114 H   0  0  0  0  0  0  0  0  0  0  0  0
   61.2298   32.0314   51.3953 H   0  0  0  0  0  0  0  0  0  0  0  0
   60.7933   34.1907   52.5193 H   0  0  0  0  0  0  0  0  0  0  0  0
   56.5712   33.3893   52.5443 H   0  0  0  0  0  0  0  0  0  0  0  0
   57.0128   31.2358   51.4224 H   0  0  0  0  0  0  0  0  0  0  0  0
   58.8740   28.8590   47.5490 H   0  0  0  0  0  0  0  0  0  0  0  0
  1  2  1  0
  2  3  1  0
  3  4  2  0
  4  5  1  0
  5  6  2  0
  6  7  1  0
  6  8  1  0
  8  9  2  0
  9 10  1  0
 10 11  1  0
 11 12  1  0
 12 13  1  0
 13 14  2  0
 14 15  1  0
 15 16  2  0
 16 17  1  0
 17 18  2  0
 10 19  2  0
 19 20  1  0
 20 21  2  0
 21 22  1  0
 22 23  1  0
 23 24  1  0
 24 25  2  0
 25 26  1  0
 26 27  2  0
 27 28  1  0
 27 29  1  0
 29 30  2  0
 20 31  1  0
 31  3  1  0
 19  5  1  0
 30 24  1  0
 18 13  1  0
  1 32  1  0
  1 33  1  0
  1 34  1  0
  2 35  1  0
  2 36  1  0
  8 37  1  0
  9 38  1  0
 12 39  1  0
 12 40  1  0
 14 41  1  0
 15 42  1  0
 16 43  1  0
 17 44  1  0
 18 45  1  0
 23 46  1  0
 23 47  1  0
 25 48  1  0
 26 49  1  0
 29 50  1  0
 30 51  1  0
 31 52  1  0
M  END
>  <smiles>  (36) 
CCc1nc2c(Br)ccc(OCc3ccccc3)c2c(=NOCc2ccc(F)cc2)[nH]1

>  <score_type>  (36) 
oracle

>  <origin>  (36) 
adg

>  <m_score__min__energy>  (36) 
-8.2100000000000009

>  <m_primary>  (36) 
energy

$$$$
36:0
     RDKit          3D

 45 48  0  0  0  0  0  0  0  0999 V2000
   56.6550   27.4160   45.6370 C   0  0  0  0  0  0  0  0  0  0  0  0
   55.9570   28.5810   45.2100 O   0  0  0  0  0  0  0  0  0  0  0  0
   56.4990   29.5800   44.3860 C   0  0  0  0  0  0  0  0  0  0  0  0
   56.0850   29.7500   43.0490 C   0  0  0  0  0  0  0  0  0  0  0  0
   56.6420   30.7590   42.2600 C   0  0  0  0  0  0  0  0  0  0  0  0
   57.6180   31.6040   42.7900 C   0  0  0  0  0  0  0  0  0  0  0  0
   58.0360   31.4470   44.1120 C   0  0  0  0  0  0  0  0  0  0  0  0
   57.4740   30.4440   44.9220 C   0  0  0  0  0  0  0  0  0  0  0  0
   57.9180   30.2600   46.2750 N   0  0  0  0  0  0  0  0  0  0  0  0
   59.1670   29.6370   46.6180 C   0  0  0  0  0  0  0  0  0  0  0  0
   59.8850   29.1080   45.7270 O   0  0  0  0  0  0  0  0  0  0  0  0
   59.6590   29.6590   48.0380 C   0  0  0  0  0  0  0  0  0  0  0  0
   60.4410   30.8790   48.3010 N   0  0  0  0  0  0  0  0  0  0  0  0
   61.5030   30.8470   49.2940 C   0  0  0  0  0  0  0  0  0  0  0  0
   61.8660   29.7450   49.7900 O   0  0  0  0  0  0  0  0  0  0  0  0
   62.1640   32.0760   49.7880 C   0  0  0  0  0  0  0  0  0  0  0  0
   62.2590   32.3010   51.1700 C   0  0  0  0  0  0  0  0  0  0  0  0
   62.8510   33.4710   51.6560 C   0  0  0  0  0  0  0  0  0  0  0  0
   63.3600   34.4200   50.7650 C   0  0  0  0  0  0  0  0  0  0  0  0
   63.2900   34.1940   49.3870 C   0  0  0  0  0  0  0  0  0  0  0  0
   62.7100   33.0180   48.8970 C   0  0  0  0  0  0  0  0  0  0  0  0
   62.6530   32.7220   47.1340 S   0  0  0  0  0  0  0  0  0  0  0  0
   60.8940   33.0390   47.1370 C   0  0  0  0  0  0  0  0  0  0  0  0
   60.4090   34.2350   46.5980 C   0  0  0  0  0  0  0  0  0  0  0  0
   59.0390   34.4850   46.5830 C   0  0  0  0  0  0  0  0  0  0  0  0
   58.1660   33.5370   47.1140 C   0  0  0  0  0  0  0  0  0  0  0  0
   58.6550   32.3900   47.6530 N   0  0  0  0  0  0  0  0  0  0  0  0
   59.9900   32.1140   47.6960 C   0  0  0  0  0  0  0  0  0  0  0  0
   56.6749   27.3828   46.7363 H   0  0  0  0  0  0  0  0  0  0  0  0
   56.1443   26.5209   45.2523 H   0  0  0  0  0  0  0  0  0  0  0  0
   57.6852   27.4441   45.2523 H   0  0  0  0  0  0  0  0  0  0  0  0
   55.3190   29.0842   42.6249 H   0  0  0  0  0  0  0  0  0  0  0  0
   56.3108   30.8878   41.2190 H   0  0  0  0  0  0  0  0  0  0  0  0
   58.0583   32.3948   42.1649 H   0  0  0  0  0  0  0  0  0  0  0  0
   58.8099   32.1119   44.5232 H   0  0  0  0  0  0  0  0  0  0  0  0
   57.3870   30.7470   47.0280 H   0  0  0  0  0  0  0  0  0  0  0  0
   58.7959   29.6298   48.7193 H   0  0  0  0  0  0  0  0  0  0  0  0
   60.3050   28.7838   48.2012 H   0  0  0  0  0  0  0  0  0  0  0  0
   61.8658   31.5533   51.8745 H   0  0  0  0  0  0  0  0  0  0  0  0
   62.9161   33.6446   52.7403 H   0  0  0  0  0  0  0  0  0  0  0  0
   63.8158   35.3450   51.1480 H   0  0  0  0  0  0  0  0  0  0  0  0
   63.6913   34.9415   48.6868 H   0  0  0  0  0  0  0  0  0  0  0  0
   61.1088   34.9773   46.1864 H   0  0  0  0  0  0  0  0  0  0  0  0
   58.6498   35.4212   46.1564 H   0  0  0  0  0  0  0  0  0  0  0  0
   57.0811   33.7177   47.0966 H   0  0  0  0  0  0  0  0  0  0  0  0
  1  2  1  0
  2  3  1  0
  3  4  2  0
  4  5  1  0
  5  6  2  0
  6  7  1  0
  7  8  2  0
  8  9  1  0
  9 10  1  0
 10 11  2  0
 10 12  1  0
 12 13  1  0
 13 14  1  0
 14 15  2  0
 14 16  1  0
 16 17  2  0
 17 18  1  0
 18 19  2  0
 19 20  1  0
 20 21  2  0
 21 22  1  0
 22 23  1  0
 23 24  2  0
 24 25  1  0
 25 26  2  0
 26 27  1  0
 27 28  2  0
  8  3  1  0
 28 13  1  0
 21 16  1  0
 28 23  1  0
  1 29  1  0
  1 30  1  0
  1 31  1  0
  4 32  1  0
  5 33  1  0
  6 34  1  0
  7 35  1  0
  9 36  1  0
 12 37  1  0
 12 38  1  0
 17 39  1  0
 18 40  1  0
 19 41  1  0
 20 42  1  0
 24 43  1  0
 25 44  1  0
 26 45  1  0
M  END
>  <UniqueID>  (37) 
35

>  <SMILES>  (37) 
COc1ccccc1NC(=O)CN1C(=O)c2ccccc2Sc2cccnc21

>  <Energy>  (37) 
64.70786386576705

>  <Genealogy>  (37) 
COc1ccccc1NC(=O)CN1C(=O)c2ccccc2Sc2cccnc21 (3D coordinates assigned)
COc1ccccc1NC(=O)CN1C(=O)c2ccccc2Sc2cccnc21 (nonaromatic ring conformer: 64.70786386576705 kcal/mol)

>  <smiles>  (37) 
COc1ccccc1NC(=O)CN1C(=O)c2ccccc2Sc2cccnc21

>  <score_type>  (37) 
oracle

>  <origin>  (37) 
adg

>  <m_score__min__energy>  (37) 
-8.1099999999999994

>  <m_primary>  (37) 
energy

$$$$
37:0
     RDKit          3D

 50 53  0  0  1  0  0  0  0  0999 V2000
   61.6840   33.3950   51.6160 C   0  0  0  0  0  0  0  0  0  0  0  0
   61.4500   32.3060   50.7390 O   0  0  0  0  0  0  0  0  0  0  0  0
   62.1540   32.3050   49.5310 C   0  0  0  0  0  0  0  0  0  0  0  0
   63.2980   33.0510   49.3350 C   0  0  0  0  0  0  0  0  0  0  0  0
   64.0070   33.0640   48.1560 C   0  0  0  0  0  0  0  0  0  0  0  0
   63.5710   32.3090   47.1120 C   0  0  0  0  0  0  0  0  0  0  0  0
   62.4200   31.5450   47.2760 C   0  0  0  0  0  0  0  0  0  0  0  0
   61.7060   31.5270   48.4560 C   0  0  0  0  0  0  0  0  0  0  0  0
   60.4690   30.7100   48.6420 C   0  0  0  0  0  0  0  0  0  0  0  0
   59.2560   31.4570   48.4280 N   0  0  0  0  0  0  0  0  0  0  0  0
   59.2060   32.6440   47.9290 C   0  0  0  0  0  0  0  0  0  0  0  0
   59.6900   33.6910   48.6180 N   0  0  0  0  0  0  0  0  0  0  0  0
   59.6180   34.9050   48.0810 C   0  0  0  0  0  0  0  0  0  0  0  0
   59.0730   35.1310   46.8520 N   0  0  0  0  0  0  0  0  0  0  0  0
   58.5780   34.1180   46.1250 C   0  0  0  0  0  0  0  0  0  0  0  0
   58.0160   34.2970   44.8750 C   0  0  0  0  0  0  0  0  0  0  0  0
   57.5070   33.2580   44.1260 C   0  0  0  0  0  0  0  0  0  0  0  0
   57.5790   31.9900   44.6820 C   0  0  0  0  0  0  0  0  0  0  0  0
   56.9720   30.5860   43.8450 S   0  0  0  0  0  0  0  0  0  0  0  0
   55.7140   30.0910   44.5010 O   0  0  0  0  0  0  0  0  0  0  0  0
   56.6240   30.9710   42.4400 O   0  0  0  0  0  0  0  0  0  0  0  0
   58.1010   29.3090   43.8010 N   0  0  0  0  0  0  0  0  0  0  0  0
   58.6920   28.7720   45.0020 C   0  0  0  0  0  0  0  0  0  0  0  0
   57.8890   28.4090   46.0880 C   0  0  0  0  0  0  0  0  0  0  0  0
   58.4230   27.8920   47.2500 C   0  0  0  0  0  0  0  0  0  0  0  0
   59.7940   27.7240   47.3530 C   0  0  0  0  0  0  0  0  0  0  0  0
   60.4300   27.0630   48.8440 Cl  0  0  0  0  0  0  0  0  0  0  0  0
   60.5910   28.0750   46.2970 C   0  0  0  0  0  0  0  0  0  0  0  0
   60.0600   28.5970   45.1210 C   0  0  0  0  0  0  0  0  0  0  0  0
   58.1370   31.7880   45.9320 C   0  0  0  0  0  0  0  0  0  0  0  0
   58.6470   32.8370   46.6790 C   0  0  0  0  0  0  0  0  0  0  0  0
   61.6097   33.0494   52.6577 H   0  0  0  0  0  0  0  0  0  0  0  0
   62.6900   33.8016   51.4354 H   0  0  0  0  0  0  0  0  0  0  0  0
   60.9338   34.1790   51.4354 H   0  0  0  0  0  0  0  0  0  0  0  0
   63.6636   33.6698   50.1677 H   0  0  0  0  0  0  0  0  0  0  0  0
   64.9150   33.6772   48.0589 H   0  0  0  0  0  0  0  0  0  0  0  0
   64.1174   32.3026   46.1573 H   0  0  0  0  0  0  0  0  0  0  0  0
   62.0662   30.9326   46.4335 H   0  0  0  0  0  0  0  0  0  0  0  0
   60.4935   29.8721   47.9297 H   0  0  0  0  0  0  0  0  0  0  0  0
   60.4598   30.3654   49.6866 H   0  0  0  0  0  0  0  0  0  0  0  0
   60.1080   33.5280   49.5590 H   0  0  0  0  0  0  0  0  0  0  0  0
   60.0131   35.7595   48.6499 H   0  0  0  0  0  0  0  0  0  0  0  0
   57.9730   35.3145   44.4593 H   0  0  0  0  0  0  0  0  0  0  0  0
   57.0643   33.4269   43.1333 H   0  0  0  0  0  0  0  0  0  0  0  0
   58.4220   28.8550   42.9170 H   0  0  0  0  0  0  0  0  0  0  0  0
   56.7993   28.5396   46.0133 H   0  0  0  0  0  0  0  0  0  0  0  0
   57.7657   27.6155   48.0876 H   0  0  0  0  0  0  0  0  0  0  0  0
   61.6797   27.9410   46.3799 H   0  0  0  0  0  0  0  0  0  0  0  0
   60.7255   28.8697   44.2886 H   0  0  0  0  0  0  0  0  0  0  0  0
   58.1766   30.7684   46.3429 H   0  0  0  0  0  0  0  0  0  0  0  0
  1  2  1  0
  2  3  1  0
  3  4  2  0
  4  5  1  0
  5  6  2  0
  6  7  1  0
  7  8  2  0
  8  9  1  0
  9 10  1  0
 10 11  2  0
 11 12  1  0
 12 13  1  0
 13 14  2  0
 14 15  1  0
 15 16  2  0
 16 17  1  0
 17 18  2  0
 18 19  1  0
 19 20  2  0
 19 21  2  0
 19 22  1  0
 22 23  1  0
 23 24  2  0
 24 25  1  0
 25 26  2  0
 26 27  1  0
 26 28  1  0
 28 29  2  0
 18 30  1  0
 30 31  2  0
  8  3  1  0
 31 11  1  0
 31 15  1  0
 29 23  1  0
  1 32  1  0
  1 33  1  0
  1 34  1  0
  4 35  1  0
  5 36  1  0
  6 37  1  0
  7 38  1  0
  9 39  1  0
  9 40  1  0
 12 41  1  0
 13 42  1  0
 16 43  1  0
 17 44  1  0
 22 45  1  0
 24 46  1  0
 25 47  1  0
 28 48  1  0
 29 49  1  0
 30 50  1  0
M  END
>  <smiles>  (38) 
COc1ccccc1CN=c1[nH]cnc2ccc(S(=O)(=O)Nc3ccc(Cl)cc3)cc12

>  <score_type>  (38) 
oracle

>  <origin>  (38) 
adg

>  <m_score__min__energy>  (38) 
-9.6300000000000008

>  <m_primary>  (38) 
energy

$$$$
38:0
     RDKit          3D

 28 29  0  0  0  0  0  0  0  0999 V2000
   55.8610   30.0560   42.8360 O   0  0  0  0  0  0  0  0  0  0  0  0
   55.9060   30.1540   44.0910 C   0  0  0  0  0  0  0  0  0  0  0  0
   55.5750   29.0150   44.8880 N   0  0  0  0  0  0  0  0  0  0  0  0
   56.5200   28.0510   45.3690 C   0  0  0  0  0  0  0  0  0  0  0  0
   57.8880   28.3120   45.2040 C   0  0  0  0  0  0  0  0  0  0  0  0
   58.8430   27.4000   45.6600 C   0  0  0  0  0  0  0  0  0  0  0  0
   58.4400   26.2110   46.2720 C   0  0  0  0  0  0  0  0  0  0  0  0
   57.0780   25.9250   46.4120 C   0  0  0  0  0  0  0  0  0  0  0  0
   56.1170   26.8300   45.9500 C   0  0  0  0  0  0  0  0  0  0  0  0
   54.7710   26.4910   46.0400 O   0  0  0  0  0  0  0  0  0  0  0  0
   56.3160   31.3430   44.7080 O   0  0  0  0  0  0  0  0  0  0  0  0
   57.3850   32.1490   44.2890 C   0  0  0  0  0  0  0  0  0  0  0  0
   57.7640   32.1370   43.0860 O   0  0  0  0  0  0  0  0  0  0  0  0
   58.0660   33.0210   45.2710 C   0  0  0  0  0  0  0  0  0  0  0  0
   58.0080   32.7360   46.6480 C   0  0  0  0  0  0  0  0  0  0  0  0
   58.6560   33.5660   47.5700 C   0  0  0  0  0  0  0  0  0  0  0  0
   59.3680   34.6820   47.1280 C   0  0  0  0  0  0  0  0  0  0  0  0
   59.4340   34.9740   45.7630 C   0  0  0  0  0  0  0  0  0  0  0  0
   58.7870   34.1490   44.8370 C   0  0  0  0  0  0  0  0  0  0  0  0
   58.2113   29.2413   44.7121 H   0  0  0  0  0  0  0  0  0  0  0  0
   59.9140   27.6187   45.5369 H   0  0  0  0  0  0  0  0  0  0  0  0
   59.1929   25.5003   46.6435 H   0  0  0  0  0  0  0  0  0  0  0  0
   56.7616   24.9848   46.8872 H   0  0  0  0  0  0  0  0  0  0  0  0
   57.4504   31.8562   47.0015 H   0  0  0  0  0  0  0  0  0  0  0  0
   58.6040   33.3383   48.6449 H   0  0  0  0  0  0  0  0  0  0  0  0
   59.8775   35.3321   47.8545 H   0  0  0  0  0  0  0  0  0  0  0  0
   59.9956   35.8540   45.4162 H   0  0  0  0  0  0  0  0  0  0  0  0
   58.8421   34.3832   43.7636 H   0  0  0  0  0  0  0  0  0  0  0  0
  1  2  2  0
  2  3  1  0
  3  4  1  0
  4  5  2  0
  5  6  1  0
  6  7  2  0
  7  8  1  0
  8  9  2  0
  9 10  1  0
  2 11  1  0
 11 12  1  0
 12 13  2  0
 12 14  1  0
 14 15  2  0
 15 16  1  0
 16 17  2  0
 17 18  1  0
 18 19  2  0
  9  4  1  0
 19 14  1  0
  5 20  1  0
  6 21  1  0
  7 22  1  0
  8 23  1  0
 15 24  1  0
 16 25  1  0
 17 26  1  0
 18 27  1  0
 19 28  1  0
M  CHG  2   3  -1  10  -1
M  END
>  <UniqueID>  (39) 
36

>  <SMILES>  (39) 
O=C([N-]c1ccccc1[O-])OC(=O)c1ccccc1

>  <Energy>  (39) 
34.84699388557518

>  <Genealogy>  (39) 
O=C([N-]c1ccccc1[O-])OC(=O)c1ccccc1 (protonated)
O=C([N-]c1ccccc1[O-])OC(=O)c1ccccc1 (3D coordinates assigned)
O=C([N-]c1ccccc1[O-])OC(=O)c1ccccc1 (optimized conformer: 34.84699388557518 kcal/mol)

>  <smiles>  (39) 
O=C(Nc1ccccc1O)OC(=O)c1ccccc1

>  <score_type>  (39) 
oracle

>  <origin>  (39) 
adg

>  <m_score__min__energy>  (39) 
-13.720000000000001

>  <m_primary>  (39) 
energy

$$$$
39:0
     RDKit          3D

 41 43  0  0  0  0  0  0  0  0999 V2000
   63.1880   34.0440   50.7300 C   0  0  0  0  0  0  0  0  0  0  0  0
   63.3760   33.0270   49.2840 S   0  0  0  0  0  0  0  0  0  0  0  0
   63.4580   31.5830   49.6910 O   0  0  0  0  0  0  0  0  0  0  0  0
   64.6440   33.4000   48.5680 O   0  0  0  0  0  0  0  0  0  0  0  0
   61.9970   33.2680   48.2160 C   0  0  0  0  0  0  0  0  0  0  0  0
   60.6990   33.0060   48.6720 C   0  0  0  0  0  0  0  0  0  0  0  0
   59.6050   33.1830   47.8200 C   0  0  0  0  0  0  0  0  0  0  0  0
   59.7980   33.6330   46.5010 C   0  0  0  0  0  0  0  0  0  0  0  0
   58.7280   33.8100   45.6120 O   0  0  0  0  0  0  0  0  0  0  0  0
   58.1850   32.8150   44.7860 C   0  0  0  0  0  0  0  0  0  0  0  0
   58.2200   32.9920   43.4020 C   0  0  0  0  0  0  0  0  0  0  0  0
   57.6950   32.0510   42.5740 N   0  0  0  0  0  0  0  0  0  0  0  0
   57.1060   30.9200   43.0530 C   0  0  0  0  0  0  0  0  0  0  0  0
   56.6660   30.0620   42.2410 O   0  0  0  0  0  0  0  0  0  0  0  0
   57.0080   30.7110   44.4460 C   0  0  0  0  0  0  0  0  0  0  0  0
   56.3470   29.5100   45.0210 C   0  0  0  0  0  0  0  0  0  0  0  0
   55.1110   29.3410   44.8430 O   0  0  0  0  0  0  0  0  0  0  0  0
   57.0590   28.5610   45.8320 N   0  0  0  0  0  0  0  0  0  0  0  0
   57.0090   27.2600   45.7540 C   0  0  0  0  0  0  0  0  0  0  0  0
   58.1390   26.4710   45.4470 C   0  0  0  0  0  0  0  0  0  0  0  0
   58.0070   25.0830   45.3750 C   0  0  0  0  0  0  0  0  0  0  0  0
   56.7650   24.4880   45.5940 C   0  0  0  0  0  0  0  0  0  0  0  0
   55.6640   25.2960   45.8780 C   0  0  0  0  0  0  0  0  0  0  0  0
   54.4460   24.7380   46.0830 F   0  0  0  0  0  0  0  0  0  0  0  0
   55.8090   26.6460   45.9460 N   0  0  0  0  0  0  0  0  0  0  0  0
   57.5620   31.6710   45.3050 C   0  0  0  0  0  0  0  0  0  0  0  0
   61.1000   33.8660   46.0430 C   0  0  0  0  0  0  0  0  0  0  0  0
   62.1940   33.6890   46.8940 C   0  0  0  0  0  0  0  0  0  0  0  0
   63.3026   33.4243   51.6316 H   0  0  0  0  0  0  0  0  0  0  0  0
   63.9557   34.8318   50.7266 H   0  0  0  0  0  0  0  0  0  0  0  0
   62.1894   34.5052   50.7266 H   0  0  0  0  0  0  0  0  0  0  0  0
   60.5399   32.6598   49.7039 H   0  0  0  0  0  0  0  0  0  0  0  0
   58.5886   32.9695   48.1824 H   0  0  0  0  0  0  0  0  0  0  0  0
   58.6756   33.8993   42.9786 H   0  0  0  0  0  0  0  0  0  0  0  0
   57.7530   32.2030   41.5410 H   0  0  0  0  0  0  0  0  0  0  0  0
   59.1147   26.9457   45.2662 H   0  0  0  0  0  0  0  0  0  0  0  0
   58.8830   24.4586   45.1454 H   0  0  0  0  0  0  0  0  0  0  0  0
   56.6548   23.3947   45.5434 H   0  0  0  0  0  0  0  0  0  0  0  0
   57.5075   31.5256   46.3940 H   0  0  0  0  0  0  0  0  0  0  0  0
   61.2632   34.1910   45.0049 H   0  0  0  0  0  0  0  0  0  0  0  0
   63.2125   33.8806   46.5253 H   0  0  0  0  0  0  0  0  0  0  0  0
  1  2  1  0
  2  3  2  0
  2  4  2  0
  2  5  1  0
  5  6  2  0
  6  7  1  0
  7  8  2  0
  8  9  1  0
  9 10  1  0
 10 11  2  0
 11 12  1  0
 12 13  1  0
 13 14  2  0
 13 15  1  0
 15 16  1  0
 16 17  2  0
 16 18  1  0
 18 19  2  3
 19 20  1  0
 20 21  2  0
 21 22  1  0
 22 23  2  0
 23 24  1  0
 23 25  1  0
 15 26  2  0
  8 27  1  0
 27 28  2  0
 28  5  1  0
 26 10  1  0
 25 19  1  0
  1 29  1  0
  1 30  1  0
  1 31  1  0
  6 32  1  0
  7 33  1  0
 11 34  1  0
 12 35  1  0
 20 36  1  0
 21 37  1  0
 22 38  1  0
 26 39  1  0
 27 40  1  0
 28 41  1  0
M  CHG  1  25  -1
M  END
>  <UniqueID>  (40) 
37

>  <SMILES>  (40) 
CS(=O)(=O)c1ccc(Oc2c[nH]c(=O)c(C(=O)N=c3cccc(F)[n-]3)c2)cc1

>  <Energy>  (40) 
61.034942287141114

>  <Genealogy>  (40) 
CS(=O)(=O)c1ccc(Oc2c[nH]c(=O)c(C(=O)N=c3cccc(F)[n-]3)c2)cc1 (protonated)
CS(=O)(=O)c1ccc(Oc2c[nH]c(=O)c(C(=O)N=c3cccc(F)[n-]3)c2)cc1 (3D coordinates assigned)
CS(=O)(=O)c1ccc(Oc2c[nH]c(=O)c(C(=O)N=c3cccc(F)[n-]3)c2)cc1 (optimized conformer: 61.034942287141114 kcal/mol)

>  <smiles>  (40) 
CS(=O)(=O)c1ccc(Oc2c[nH]c(=O)c(C(=O)N=c3cccc(F)[nH]3)c2)cc1

>  <score_type>  (40) 
oracle

>  <origin>  (40) 
adg

>  <m_score__min__energy>  (40) 
-10.16

>  <m_primary>  (40) 
energy

$$$$
40:0
     RDKit          3D

 53 56  0  0  0  0  0  0  0  0999 V2000
   53.6770   25.0710   45.6310 N   0  0  0  0  0  0  0  0  0  0  0  0
   54.9430   24.4500   45.4130 C   0  0  0  0  0  0  0  0  0  0  0  0
   54.9830   23.3160   44.8630 O   0  0  0  0  0  0  0  0  0  0  0  0
   56.1950   25.1250   45.8290 C   0  0  0  0  0  0  0  0  0  0  0  0
   57.4480   24.5570   45.5330 C   0  0  0  0  0  0  0  0  0  0  0  0
   58.6260   25.2000   45.9230 C   0  0  0  0  0  0  0  0  0  0  0  0
   58.5700   26.4340   46.5870 C   0  0  0  0  0  0  0  0  0  0  0  0
   59.7700   27.0590   47.0490 N   0  0  0  0  0  0  0  0  0  0  0  0
   60.0120   28.3160   47.3050 C   0  0  0  0  0  0  0  0  0  0  0  0
   60.0560   28.8710   48.8870 S   0  0  0  0  0  0  0  0  0  0  0  0
   60.4970   30.4310   48.4610 C   0  0  0  0  0  0  0  0  0  0  0  0
   60.7140   31.5420   49.4430 C   0  0  0  0  0  0  0  0  0  0  0  0
   59.2840   32.6070   49.5170 S   0  0  0  0  0  0  0  0  0  0  0  0
   58.0890   31.8020   49.9470 O   0  0  0  0  0  0  0  0  0  0  0  0
   59.5230   33.6880   50.5330 O   0  0  0  0  0  0  0  0  0  0  0  0
   58.9780   33.3420   47.9470 C   0  0  0  0  0  0  0  0  0  0  0  0
   59.8740   34.2820   47.4150 C   0  0  0  0  0  0  0  0  0  0  0  0
   59.6330   34.8450   46.1590 C   0  0  0  0  0  0  0  0  0  0  0  0
   58.4900   34.4890   45.4380 C   0  0  0  0  0  0  0  0  0  0  0  0
   57.5850   33.5690   45.9730 C   0  0  0  0  0  0  0  0  0  0  0  0
   57.8290   32.9940   47.2240 C   0  0  0  0  0  0  0  0  0  0  0  0
   60.5450   30.4990   47.0660 C   0  0  0  0  0  0  0  0  0  0  0  0
   60.8110   31.6790   46.3670 O   0  0  0  0  0  0  0  0  0  0  0  0
   60.2830   29.3220   46.4110 N   0  0  0  0  0  0  0  0  0  0  0  0
   60.0980   29.3260   44.9480 C   0  0  0  0  0  0  0  0  0  0  0  0
   58.7430   29.8740   44.5790 C   0  0  0  0  0  0  0  0  0  0  0  0
   58.6330   31.0740   43.8550 C   0  0  0  0  0  0  0  0  0  0  0  0
   57.3760   31.5510   43.4690 C   0  0  0  0  0  0  0  0  0  0  0  0
   56.2220   30.8390   43.8070 C   0  0  0  0  0  0  0  0  0  0  0  0
   56.3220   29.6520   44.5390 C   0  0  0  0  0  0  0  0  0  0  0  0
   55.1730   28.9510   44.8850 O   0  0  0  0  0  0  0  0  0  0  0  0
   57.5760   29.1720   44.9260 C   0  0  0  0  0  0  0  0  0  0  0  0
   57.3290   26.9800   46.9260 C   0  0  0  0  0  0  0  0  0  0  0  0
   56.1480   26.3410   46.5360 C   0  0  0  0  0  0  0  0  0  0  0  0
   53.6000   26.1070   45.7440 H   0  0  0  0  0  0  0  0  0  0  0  0
   57.5006   23.6010   44.9913 H   0  0  0  0  0  0  0  0  0  0  0  0
   59.6003   24.7367   45.7084 H   0  0  0  0  0  0  0  0  0  0  0  0
   60.8965   31.1128   50.4392 H   0  0  0  0  0  0  0  0  0  0  0  0
   61.5810   32.1362   49.1187 H   0  0  0  0  0  0  0  0  0  0  0  0
   60.7665   34.5758   47.9870 H   0  0  0  0  0  0  0  0  0  0  0  0
   60.3445   35.5700   45.7369 H   0  0  0  0  0  0  0  0  0  0  0  0
   58.3029   34.9332   44.4492 H   0  0  0  0  0  0  0  0  0  0  0  0
   56.6801   33.2968   45.4099 H   0  0  0  0  0  0  0  0  0  0  0  0
   57.1173   32.2667   47.6417 H   0  0  0  0  0  0  0  0  0  0  0  0
   61.7130   32.1350   46.3880 H   0  0  0  0  0  0  0  0  0  0  0  0
   60.8771   29.9518   44.4881 H   0  0  0  0  0  0  0  0  0  0  0  0
   60.1705   28.2914   44.5816 H   0  0  0  0  0  0  0  0  0  0  0  0
   59.5386   31.6399   43.5911 H   0  0  0  0  0  0  0  0  0  0  0  0
   57.2957   32.4881   42.8985 H   0  0  0  0  0  0  0  0  0  0  0  0
   55.2348   31.2125   43.4971 H   0  0  0  0  0  0  0  0  0  0  0  0
   57.6501   28.2398   45.5053 H   0  0  0  0  0  0  0  0  0  0  0  0
   57.2811   27.9160   47.5018 H   0  0  0  0  0  0  0  0  0  0  0  0
   55.1756   26.7918   46.7835 H   0  0  0  0  0  0  0  0  0  0  0  0
  1  2  1  0
  2  3  2  0
  2  4  1  0
  4  5  2  0
  5  6  1  0
  6  7  2  0
  7  8  1  0
  8  9  2  3
  9 10  1  0
 10 11  1  0
 11 12  1  0
 12 13  1  0
 13 14  2  0
 13 15  2  0
 13 16  1  0
 16 17  2  0
 17 18  1  0
 18 19  2  0
 19 20  1  0
 20 21  2  0
 11 22  2  0
 22 23  1  0
 22 24  1  0
 24 25  1  0
 25 26  1  0
 26 27  2  0
 27 28  1  0
 28 29  2  0
 29 30  1  0
 30 31  1  0
 30 32  2  0
  7 33  1  0
 33 34  2  0
 34  4  1  0
 24  9  1  0
 32 26  1  0
 21 16  1  0
  1 35  1  0
  5 36  1  0
  6 37  1  0
 12 38  1  0
 12 39  1  0
 17 40  1  0
 18 41  1  0
 19 42  1  0
 20 43  1  0
 21 44  1  0
 23 45  1  0
 25 46  1  0
 25 47  1  0
 27 48  1  0
 28 49  1  0
 29 50  1  0
 32 51  1  0
 33 52  1  0
 34 53  1  0
M  CHG  2   1  -1  31  -1
M  END
>  <UniqueID>  (41) 
38

>  <SMILES>  (41) 
[NH-]C(=O)c1ccc(N=c2sc(CS(=O)(=O)c3ccccc3)c(O)n2Cc2cccc([O-])c2)cc1

>  <Energy>  (41) 
97.00951544726445

>  <Genealogy>  (41) 
[NH-]C(=O)c1ccc(N=c2sc(CS(=O)(=O)c3ccccc3)c(O)n2Cc2cccc([O-])c2)cc1 (protonated)
[NH-]C(=O)c1ccc(N=c2sc(CS(=O)(=O)c3ccccc3)c(O)n2Cc2cccc([O-])c2)cc1 (3D coordinates assigned)
[NH-]C(=O)c1ccc(N=c2sc(CS(=O)(=O)c3ccccc3)c(O)n2Cc2cccc([O-])c2)cc1 (optimized conformer: 97.00951544726445 kcal/mol)

>  <smiles>  (41) 
NC(=O)c1ccc(N=c2sc(CS(=O)(=O)c3ccccc3)c(O)n2Cc2cccc(O)c2)cc1

>  <score_type>  (41) 
oracle

>  <origin>  (41) 
adg

>  <m_score__min__energy>  (41) 
-14.77

>  <m_primary>  (41) 
energy

$$$$
41:0
     RDKit          3D

 42 44  0  0  0  0  0  0  0  0999 V2000
   59.7400   34.4840   47.2350 C   0  0  0  0  0  0  0  0  0  0  0  0
   58.9140   33.5190   46.4360 C   0  0  0  0  0  0  0  0  0  0  0  0
   57.6140   33.8590   46.0470 C   0  0  0  0  0  0  0  0  0  0  0  0
   56.8600   32.9790   45.2700 C   0  0  0  0  0  0  0  0  0  0  0  0
   57.3950   31.7500   44.8480 C   0  0  0  0  0  0  0  0  0  0  0  0
   56.5910   30.8860   44.0290 N   0  0  0  0  0  0  0  0  0  0  0  0
   56.8990   30.6970   42.8330 O   0  0  0  0  0  0  0  0  0  0  0  0
   55.6300   30.0840   44.5990 O   0  0  0  0  0  0  0  0  0  0  0  0
   58.7110   31.3950   45.2450 C   0  0  0  0  0  0  0  0  0  0  0  0
   59.3440   30.0720   44.8860 C   0  0  0  0  0  0  0  0  0  0  0  0
   58.9380   29.0430   45.8400 N   0  0  0  0  0  0  0  0  0  0  0  0
   57.9020   28.1930   45.6920 C   0  0  0  0  0  0  0  0  0  0  0  0
   57.8290   27.4290   46.8300 C   0  0  0  0  0  0  0  0  0  0  0  0
   56.8200   26.4540   47.1160 N   0  0  0  0  0  0  0  0  0  0  0  0
   56.9930   25.0310   47.0770 C   0  0  0  0  0  0  0  0  0  0  0  0
   57.2540   24.4230   48.1480 O   0  0  0  0  0  0  0  0  0  0  0  0
   56.7780   24.2520   45.8360 C   0  0  0  0  0  0  0  0  0  0  0  0
   57.8590   23.5120   45.3250 C   0  0  0  0  0  0  0  0  0  0  0  0
   57.7430   22.8250   44.1170 C   0  0  0  0  0  0  0  0  0  0  0  0
   56.5510   22.8750   43.3960 C   0  0  0  0  0  0  0  0  0  0  0  0
   55.4660   23.6010   43.8890 C   0  0  0  0  0  0  0  0  0  0  0  0
   55.5530   24.2860   45.1150 C   0  0  0  0  0  0  0  0  0  0  0  0
   54.3380   24.9690   45.6250 C   0  0  0  0  0  0  0  0  0  0  0  0
   53.2360   24.3640   45.6970 O   0  0  0  0  0  0  0  0  0  0  0  0
   54.3920   26.3110   45.9840 O   0  0  0  0  0  0  0  0  0  0  0  0
   58.8360   27.8830   47.6610 C   0  0  0  0  0  0  0  0  0  0  0  0
   59.5000   28.8710   47.0290 N   0  0  0  0  0  0  0  0  0  0  0  0
   59.4590   32.2970   46.0230 C   0  0  0  0  0  0  0  0  0  0  0  0
   59.5828   34.3003   48.3081 H   0  0  0  0  0  0  0  0  0  0  0  0
   60.8037   34.3455   46.9913 H   0  0  0  0  0  0  0  0  0  0  0  0
   59.4390   35.5136   46.9913 H   0  0  0  0  0  0  0  0  0  0  0  0
   57.1846   34.8238   46.3549 H   0  0  0  0  0  0  0  0  0  0  0  0
   55.8332   33.2508   44.9840 H   0  0  0  0  0  0  0  0  0  0  0  0
   59.0230   29.7779   43.8758 H   0  0  0  0  0  0  0  0  0  0  0  0
   60.4385   30.1778   44.9164 H   0  0  0  0  0  0  0  0  0  0  0  0
   57.2367   28.1243   44.8187 H   0  0  0  0  0  0  0  0  0  0  0  0
   58.8058   23.4746   45.8838 H   0  0  0  0  0  0  0  0  0  0  0  0
   58.5934   22.2428   43.7325 H   0  0  0  0  0  0  0  0  0  0  0  0
   56.4656   22.3418   42.4377 H   0  0  0  0  0  0  0  0  0  0  0  0
   54.5305   23.6383   43.3116 H   0  0  0  0  0  0  0  0  0  0  0  0
   59.0581   27.5020   48.6687 H   0  0  0  0  0  0  0  0  0  0  0  0
   60.4885   32.0384   46.3116 H   0  0  0  0  0  0  0  0  0  0  0  0
  1  2  1  0
  2  3  2  0
  3  4  1  0
  4  5  2  0
  5  6  1  0
  6  7  2  0
  6  8  1  0
  5  9  1  0
  9 10  1  0
 10 11  1  0
 11 12  1  0
 12 13  2  0
 13 14  1  0
 14 15  1  0
 15 16  2  0
 15 17  1  0
 17 18  2  0
 18 19  1  0
 19 20  2  0
 20 21  1  0
 21 22  2  0
 22 23  1  0
 23 24  2  0
 23 25  1  0
 13 26  1  0
 26 27  2  0
  9 28  2  0
 28  2  1  0
 27 11  1  0
 22 17  1  0
  1 29  1  0
  1 30  1  0
  1 31  1  0
  3 32  1  0
  4 33  1  0
 10 34  1  0
 10 35  1  0
 12 36  1  0
 18 37  1  0
 19 38  1  0
 20 39  1  0
 21 40  1  0
 26 41  1  0
 28 42  1  0
M  CHG  4   6   1   8  -1  14  -1  25  -1
M  END
>  <UniqueID>  (42) 
39

>  <SMILES>  (42) 
Cc1ccc([N+](=O)[O-])c(Cn2cc([N-]C(=O)c3ccccc3C(=O)[O-])cn2)c1

>  <Energy>  (42) 
91.68066564902816

>  <Genealogy>  (42) 
Cc1ccc([N+](=O)[O-])c(Cn2cc([N-]C(=O)c3ccccc3C(=O)[O-])cn2)c1 (protonated)
Cc1ccc([N+](=O)[O-])c(Cn2cc([N-]C(=O)c3ccccc3C(=O)[O-])cn2)c1 (3D coordinates assigned)
Cc1ccc([N+](=O)[O-])c(Cn2cc([N-]C(=O)c3ccccc3C(=O)[O-])cn2)c1 (optimized conformer: 91.68066564902816 kcal/mol)

>  <smiles>  (42) 
Cc1ccc([N+](=O)[O-])c(Cn2cc(NC(=O)c3ccccc3C(=O)O)cn2)c1

>  <score_type>  (42) 
oracle

>  <origin>  (42) 
adg

>  <m_score__min__energy>  (42) 
-13.06

>  <m_primary>  (42) 
energy

$$$$
42:0
     RDKit          3D

 51 54  0  0  0  0  0  0  0  0999 V2000
   59.6280   31.9380   49.2030 O   0  0  0  0  0  0  0  0  0  0  0  0
   60.8650   31.7720   49.0220 C   0  0  0  0  0  0  0  0  0  0  0  0
   61.3340   30.7750   48.0990 N   0  0  0  0  0  0  0  0  0  0  0  0
   60.4610   29.9780   47.2850 C   0  0  0  0  0  0  0  0  0  0  0  0
   59.3020   29.4280   47.8530 C   0  0  0  0  0  0  0  0  0  0  0  0
   58.4100   28.6970   47.0660 C   0  0  0  0  0  0  0  0  0  0  0  0
   58.6710   28.5030   45.7040 C   0  0  0  0  0  0  0  0  0  0  0  0
   57.4360   27.7130   44.6650 S   0  0  0  0  0  0  0  0  0  0  0  0
   56.3410   29.1780   44.5450 C   0  0  0  0  0  0  0  0  0  0  0  0
   57.1280   30.4560   44.5000 C   0  0  0  0  0  0  0  0  0  0  0  0
   57.5030   31.0260   43.2840 C   0  0  0  0  0  0  0  0  0  0  0  0
   58.1390   32.2690   43.2870 C   0  0  0  0  0  0  0  0  0  0  0  0
   58.4770   32.7800   42.1830 O   0  0  0  0  0  0  0  0  0  0  0  0
   58.3810   32.9210   44.4720 N   0  0  0  0  0  0  0  0  0  0  0  0
   58.9880   34.1510   44.4870 C   0  0  0  0  0  0  0  0  0  0  0  0
   59.2150   34.8220   45.6910 C   0  0  0  0  0  0  0  0  0  0  0  0
   58.8230   34.2340   46.8910 C   0  0  0  0  0  0  0  0  0  0  0  0
   58.2110   32.9840   46.8790 C   0  0  0  0  0  0  0  0  0  0  0  0
   57.9970   32.3330   45.6590 C   0  0  0  0  0  0  0  0  0  0  0  0
   57.3850   31.1210   45.6550 N   0  0  0  0  0  0  0  0  0  0  0  0
   59.8570   28.9900   45.1470 C   0  0  0  0  0  0  0  0  0  0  0  0
   60.7510   29.7240   45.9320 C   0  0  0  0  0  0  0  0  0  0  0  0
   61.8600   32.5390   49.8630 C   0  0  0  0  0  0  0  0  0  0  0  0
   62.0480   33.9620   49.3030 C   0  0  0  0  0  0  0  0  0  0  0  0
   62.8180   33.9760   47.9680 C   0  0  0  0  0  0  0  0  0  0  0  0
   63.9690   32.9500   47.9030 C   0  0  0  0  0  0  0  0  0  0  0  0
   64.3880   32.4480   49.2870 C   0  0  0  0  0  0  0  0  0  0  0  0
   63.2120   31.7850   50.0260 C   0  0  0  0  0  0  0  0  0  0  0  0
   62.3420   30.5020   48.1460 H   0  0  0  0  0  0  0  0  0  0  0  0
   59.0951   29.5734   48.9235 H   0  0  0  0  0  0  0  0  0  0  0  0
   57.5006   28.2728   47.5167 H   0  0  0  0  0  0  0  0  0  0  0  0
   55.7376   29.0982   43.6287 H   0  0  0  0  0  0  0  0  0  0  0  0
   55.6993   29.2012   45.4381 H   0  0  0  0  0  0  0  0  0  0  0  0
   57.3009   30.5044   42.3368 H   0  0  0  0  0  0  0  0  0  0  0  0
   59.2998   34.6146   43.5395 H   0  0  0  0  0  0  0  0  0  0  0  0
   59.7005   35.8090   45.6912 H   0  0  0  0  0  0  0  0  0  0  0  0
   58.9963   34.7551   47.8441 H   0  0  0  0  0  0  0  0  0  0  0  0
   57.8979   32.5113   47.8216 H   0  0  0  0  0  0  0  0  0  0  0  0
   60.0872   28.7953   44.0891 H   0  0  0  0  0  0  0  0  0  0  0  0
   61.6840   30.1041   45.4905 H   0  0  0  0  0  0  0  0  0  0  0  0
   61.4458   32.6239   50.8785 H   0  0  0  0  0  0  0  0  0  0  0  0
   61.0569   34.4115   49.1429 H   0  0  0  0  0  0  0  0  0  0  0  0
   62.6387   34.5329   50.0346 H   0  0  0  0  0  0  0  0  0  0  0  0
   62.1094   33.7543   47.1564 H   0  0  0  0  0  0  0  0  0  0  0  0
   63.2714   34.9734   47.8697 H   0  0  0  0  0  0  0  0  0  0  0  0
   63.6410   32.0900   47.3006 H   0  0  0  0  0  0  0  0  0  0  0  0
   64.8382   33.4521   47.4531 H   0  0  0  0  0  0  0  0  0  0  0  0
   65.1974   31.7123   49.1705 H   0  0  0  0  0  0  0  0  0  0  0  0
   64.7257   33.3110   49.8796 H   0  0  0  0  0  0  0  0  0  0  0  0
   63.0887   30.7641   49.6354 H   0  0  0  0  0  0  0  0  0  0  0  0
   63.4590   31.7997   51.0978 H   0  0  0  0  0  0  0  0  0  0  0  0
  1  2  2  0
  2  3  1  0
  3  4  1  0
  4  5  2  0
  5  6  1  0
  6  7  2  0
  7  8  1  0
  8  9  1  0
  9 10  1  0
 10 11  2  0
 11 12  1  0
 12 13  2  0
 12 14  1  0
 14 15  1  0
 15 16  2  0
 16 17  1  0
 17 18  2  0
 18 19  1  0
 19 20  2  0
  7 21  1  0
 21 22  2  0
  2 23  1  0
 23 24  1  0
 24 25  1  0
 25 26  1  0
 26 27  1  0
 27 28  1  0
 22  4  1  0
 28 23  1  0
 20 10  1  0
 19 14  1  0
  3 29  1  0
  5 30  1  0
  6 31  1  0
  9 32  1  0
  9 33  1  0
 11 34  1  0
 15 35  1  0
 16 36  1  0
 17 37  1  0
 18 38  1  0
 21 39  1  0
 22 40  1  0
 23 41  1  0
 24 42  1  0
 24 43  1  0
 25 44  1  0
 25 45  1  0
 26 46  1  0
 26 47  1  0
 27 48  1  0
 27 49  1  0
 28 50  1  0
 28 51  1  0
M  END
>  <UniqueID>  (43) 
40

>  <SMILES>  (43) 
O=C(Nc1ccc(SCc2cc(=O)n3ccccc3n2)cc1)C1CCCCC1

>  <Energy>  (43) 
59.12474096292618

>  <Genealogy>  (43) 
O=C(Nc1ccc(SCc2cc(=O)n3ccccc3n2)cc1)C1CCCCC1 (3D coordinates assigned)
O=C(Nc1ccc(SCc2cc(=O)n3ccccc3n2)cc1)C1CCCCC1 (nonaromatic ring conformer: 59.12474096292618 kcal/mol)

>  <smiles>  (43) 
O=C(Nc1ccc(SCc2cc(=O)n3ccccc3n2)cc1)C1CCCCC1

>  <score_type>  (43) 
oracle

>  <origin>  (43) 
adg

>  <m_score__min__energy>  (43) 
-9.5700000000000003

>  <m_primary>  (43) 
energy

$$$$
43:0
     RDKit          3D

 59 63  0  0  1  0  0  0  0  0999 V2000
   58.1090   32.0620   42.4290 C   0  0  0  0  0  0  0  0  0  0  0  0
   57.0660   31.6100   43.4930 C   0  0  0  0  0  0  0  0  0  0  0  0
   56.9840   30.1060   43.2220 C   0  0  0  0  0  0  0  0  0  0  0  0
   57.6790   31.8910   44.7490 N   0  0  0  0  0  0  0  0  0  0  0  0
   58.5620   26.6260   46.6660 C   0  0  0  0  0  0  0  0  0  0  0  0
   58.0730   25.5000   47.0430 N   0  0  0  0  0  0  0  0  0  0  0  0
   58.2980   28.8620   46.1200 C   0  0  0  0  0  0  0  0  0  0  0  0
   59.6710   28.9350   45.8760 C   0  0  0  0  0  0  0  0  0  0  0  0
   60.4940   27.8300   46.0340 C   0  0  0  0  0  0  0  0  0  0  0  0
   59.8880   26.6930   46.4320 N   0  0  0  0  0  0  0  0  0  0  0  0
   57.8150   31.1390   45.8310 C   0  0  0  0  0  0  0  0  0  0  0  0
   57.4270   29.9560   46.0180 N   0  0  0  0  0  0  0  0  0  0  0  0
   57.7510   24.4670   46.1160 C   0  0  0  0  0  0  0  0  0  0  0  0
   56.3920   24.2660   45.8660 C   0  0  0  0  0  0  0  0  0  0  0  0
   55.9700   23.2920   44.9850 C   0  0  0  0  0  0  0  0  0  0  0  0
   56.9330   22.5250   44.3610 C   0  0  0  0  0  0  0  0  0  0  0  0
   56.4730   21.5030   43.4370 C   0  0  0  0  0  0  0  0  0  0  0  0
   56.2720   21.8090   42.2400 O   0  0  0  0  0  0  0  0  0  0  0  0
   56.2400   20.1850   43.8020 O   0  0  0  0  0  0  0  0  0  0  0  0
   58.2860   22.7140   44.6000 C   0  0  0  0  0  0  0  0  0  0  0  0
   58.7000   23.6940   45.4860 C   0  0  0  0  0  0  0  0  0  0  0  0
   57.7330   27.6760   46.5240 N   0  0  0  0  0  0  0  0  0  0  0  0
   58.4830   31.8310   46.8150 N   0  0  0  0  0  0  0  0  0  0  0  0
   58.7700   33.0300   46.3480 C   0  0  0  0  0  0  0  0  0  0  0  0
   59.4180   34.1230   46.8880 C   0  0  0  0  0  0  0  0  0  0  0  0
   60.0700   34.0880   48.5510 S   0  0  0  0  0  0  0  0  0  0  0  0
   61.8020   33.7060   48.5980 C   0  0  0  0  0  0  0  0  0  0  0  0
   62.4360   33.7400   49.8250 C   0  0  0  0  0  0  0  0  0  0  0  0
   63.7920   33.4510   49.9340 C   0  0  0  0  0  0  0  0  0  0  0  0
   64.5110   33.1270   48.7930 C   0  0  0  0  0  0  0  0  0  0  0  0
   63.9060   33.0850   47.5580 C   0  0  0  0  0  0  0  0  0  0  0  0
   62.5420   33.3800   47.4800 C   0  0  0  0  0  0  0  0  0  0  0  0
   59.5900   35.2930   46.1610 C   0  0  0  0  0  0  0  0  0  0  0  0
   59.0830   35.3040   44.8850 C   0  0  0  0  0  0  0  0  0  0  0  0
   58.4650   34.2380   44.3940 N   0  0  0  0  0  0  0  0  0  0  0  0
   58.2770   33.0820   45.0660 C   0  0  0  0  0  0  0  0  0  0  0  0
   59.0049   32.4502   42.9356 H   0  0  0  0  0  0  0  0  0  0  0  0
   58.3866   31.2035   41.7999 H   0  0  0  0  0  0  0  0  0  0  0  0
   57.6724   32.8516   41.7999 H   0  0  0  0  0  0  0  0  0  0  0  0
   56.0719   32.0806   43.4734 H   0  0  0  0  0  0  0  0  0  0  0  0
   56.9544   29.5623   44.1778 H   0  0  0  0  0  0  0  0  0  0  0  0
   56.0725   29.8862   42.6467 H   0  0  0  0  0  0  0  0  0  0  0  0
   57.8662   29.7885   42.6467 H   0  0  0  0  0  0  0  0  0  0  0  0
   60.1095   29.8901   45.5513 H   0  0  0  0  0  0  0  0  0  0  0  0
   61.5767   27.8782   45.8459 H   0  0  0  0  0  0  0  0  0  0  0  0
   60.4850   25.8450   46.5590 H   0  0  0  0  0  0  0  0  0  0  0  0
   55.6476   24.8930   46.3787 H   0  0  0  0  0  0  0  0  0  0  0  0
   54.9001   23.1317   44.7861 H   0  0  0  0  0  0  0  0  0  0  0  0
   57.0090   19.5020   43.8040 H   0  0  0  0  0  0  0  0  0  0  0  0
   59.0291   22.0862   44.0864 H   0  0  0  0  0  0  0  0  0  0  0  0
   59.7705   23.8525   45.6834 H   0  0  0  0  0  0  0  0  0  0  0  0
   58.7280   31.4880   47.7690 H   0  0  0  0  0  0  0  0  0  0  0  0
   61.8614   33.9988   50.7266 H   0  0  0  0  0  0  0  0  0  0  0  0
   64.2891   33.4791   50.9149 H   0  0  0  0  0  0  0  0  0  0  0  0
   65.5840   32.8996   48.8770 H   0  0  0  0  0  0  0  0  0  0  0  0
   64.4803   32.8262   46.6562 H   0  0  0  0  0  0  0  0  0  0  0  0
   62.0443   33.3515   46.4994 H   0  0  0  0  0  0  0  0  0  0  0  0
   60.1061   36.1667   46.5855 H   0  0  0  0  0  0  0  0  0  0  0  0
   59.1904   36.2056   44.2640 H   0  0  0  0  0  0  0  0  0  0  0  0
  1  2  1  0
  2  3  1  0
  2  4  1  0
  4  5  1  0
  5  6  2  0
  6  7  1  0
  7  8  1  0
  8  9  2  0
  9 10  1  0
 10 11  1  0
 11 12  2  0
 12 13  1  0
 13 14  2  0
 14 15  1  0
 15 16  2  0
 16 17  1  0
 17 18  2  0
 17 19  1  0
 16 20  1  0
 20 21  2  0
 11 22  1  0
  5 23  1  0
 23 24  1  0
 24 25  2  0
 25 26  1  0
 26 27  1  0
 27 28  2  0
 28 29  1  0
 29 30  2  0
 30 31  1  0
 31 32  2  0
 25 33  1  0
 33 34  2  0
 34 35  1  0
 35 36  2  0
 36  4  1  0
 22  7  2  0
 36 24  1  0
 21 13  1  0
 32 27  1  0
  1 37  1  0
  1 38  1  0
  1 39  1  0
  2 40  1  0
  3 41  1  0
  3 42  1  0
  3 43  1  0
  8 44  1  0
  9 45  1  0
 10 46  1  0
 14 47  1  0
 15 48  1  0
 19 49  1  0
 20 50  1  0
 21 51  1  0
 23 52  1  0
 28 53  1  0
 29 54  1  0
 30 55  1  0
 31 56  1  0
 32 57  1  0
 33 58  1  0
 34 59  1  0
M  END
>  <smiles>  (44) 
CC(C)n1c(=Nc2cc[nH]c(=Nc3ccc(C(=O)O)cc3)n2)[nH]c2c(Sc3ccccc3)ccnc21

>  <score_type>  (44) 
oracle

>  <origin>  (44) 
adg

>  <m_score__min__energy>  (44) 
-10.94

>  <m_primary>  (44) 
energy

$$$$
44:0
     RDKit          3D

 23 24  0  0  0  0  0  0  0  0999 V2000
   58.3000   25.5790   47.2430 O   0  0  0  0  0  0  0  0  0  0  0  0
   57.8250   25.7550   46.0870 C   0  0  0  0  0  0  0  0  0  0  0  0
   57.6270   24.5830   45.1980 C   0  0  0  0  0  0  0  0  0  0  0  0
   56.6370   24.6170   44.1970 C   0  0  0  0  0  0  0  0  0  0  0  0
   56.4350   23.5140   43.3630 C   0  0  0  0  0  0  0  0  0  0  0  0
   57.2100   22.3630   43.5230 C   0  0  0  0  0  0  0  0  0  0  0  0
   58.1870   22.3120   44.5210 C   0  0  0  0  0  0  0  0  0  0  0  0
   58.3940   23.4140   45.3570 C   0  0  0  0  0  0  0  0  0  0  0  0
   57.4890   27.1350   45.6600 C   0  0  0  0  0  0  0  0  0  0  0  0
   56.1520   27.5660   45.6160 C   0  0  0  0  0  0  0  0  0  0  0  0
   55.1220   26.7110   45.9990 O   0  0  0  0  0  0  0  0  0  0  0  0
   55.8550   28.8300   45.2130 N   0  0  0  0  0  0  0  0  0  0  0  0
   56.8360   29.6940   44.8420 C   0  0  0  0  0  0  0  0  0  0  0  0
   56.5470   30.8640   44.4750 O   0  0  0  0  0  0  0  0  0  0  0  0
   58.1340   29.2980   44.8620 N   0  0  0  0  0  0  0  0  0  0  0  0
   58.4820   28.0450   45.2530 C   0  0  0  0  0  0  0  0  0  0  0  0
   59.6960   27.7100   45.2300 O   0  0  0  0  0  0  0  0  0  0  0  0
   56.0185   25.5179   44.0707 H   0  0  0  0  0  0  0  0  0  0  0  0
   55.6643   23.5523   42.5791 H   0  0  0  0  0  0  0  0  0  0  0  0
   57.0514   21.4969   42.8636 H   0  0  0  0  0  0  0  0  0  0  0  0
   58.7941   21.4037   44.6492 H   0  0  0  0  0  0  0  0  0  0  0  0
   59.1613   23.3666   46.1438 H   0  0  0  0  0  0  0  0  0  0  0  0
   54.8570   29.1400   45.1920 H   0  0  0  0  0  0  0  0  0  0  0  0
  1  2  2  0
  2  3  1  0
  3  4  2  0
  4  5  1  0
  5  6  2  0
  6  7  1  0
  7  8  2  0
  2  9  1  0
  9 10  2  0
 10 11  1  0
 10 12  1  0
 12 13  1  0
 13 14  2  0
 13 15  1  0
 15 16  1  0
 16 17  2  0
  8  3  1  0
 16  9  1  0
  4 18  1  0
  5 19  1  0
  6 20  1  0
  7 21  1  0
  8 22  1  0
 12 23  1  0
M  CHG  2  11  -1  15  -1
M  END
>  <UniqueID>  (45) 
41

>  <SMILES>  (45) 
O=C(c1ccccc1)c1c([O-])[nH]c(=O)[n-]c1=O

>  <Energy>  (45) 
33.661899465774304

>  <Genealogy>  (45) 
O=C(c1ccccc1)c1c([O-])[nH]c(=O)[n-]c1=O (protonated)
O=C(c1ccccc1)c1c([O-])[nH]c(=O)[n-]c1=O (3D coordinates assigned)
O=C(c1ccccc1)c1c([O-])[nH]c(=O)[n-]c1=O (optimized conformer: 33.661899465774304 kcal/mol)

>  <smiles>  (45) 
O=C(c1ccccc1)c1c(O)[nH]c(=O)[nH]c1=O

>  <score_type>  (45) 
oracle

>  <origin>  (45) 
adg

>  <m_score__min__energy>  (45) 
-11.539999999999999

>  <m_primary>  (45) 
energy

$$$$
45:0
     RDKit          3D

 59 64  0  0  0  0  0  0  0  0999 V2000
   61.1010   34.5500   46.5190 O   0  0  0  0  0  0  0  0  0  0  0  0
   60.0560   34.0910   47.0490 C   0  0  0  0  0  0  0  0  0  0  0  0
   60.1180   33.5150   48.4250 C   0  0  0  0  0  0  0  0  0  0  0  0
   58.5460   32.7210   48.9270 S   0  0  0  0  0  0  0  0  0  0  0  0
   59.0820   30.9980   48.7730 C   0  0  0  0  0  0  0  0  0  0  0  0
   58.6610   30.3140   47.6670 N   0  0  0  0  0  0  0  0  0  0  0  0
   59.0200   29.0250   47.5220 C   0  0  0  0  0  0  0  0  0  0  0  0
   59.8230   28.3870   48.4120 C   0  0  0  0  0  0  0  0  0  0  0  0
   60.0330   27.1350   48.0500 O   0  0  0  0  0  0  0  0  0  0  0  0
   59.3560   26.9590   46.9280 C   0  0  0  0  0  0  0  0  0  0  0  0
   59.2580   25.7960   46.1670 C   0  0  0  0  0  0  0  0  0  0  0  0
   58.4700   25.8370   45.0010 C   0  0  0  0  0  0  0  0  0  0  0  0
   57.8020   27.0260   44.6230 C   0  0  0  0  0  0  0  0  0  0  0  0
   57.9160   28.1890   45.4070 C   0  0  0  0  0  0  0  0  0  0  0  0
   58.7040   28.1150   46.5510 C   0  0  0  0  0  0  0  0  0  0  0  0
   60.3120   29.0740   49.5100 C   0  0  0  0  0  0  0  0  0  0  0  0
   61.1300   28.5020   50.2800 O   0  0  0  0  0  0  0  0  0  0  0  0
   59.9160   30.3850   49.7110 N   0  0  0  0  0  0  0  0  0  0  0  0
   60.5340   31.1620   50.8150 C   0  0  0  0  0  0  0  0  0  0  0  0
   62.0700   31.2350   50.7420 C   0  0  0  0  0  0  0  0  0  0  0  0
   62.5770   31.9210   49.5040 C   0  0  0  0  0  0  0  0  0  0  0  0
   63.1430   33.2040   49.5850 C   0  0  0  0  0  0  0  0  0  0  0  0
   63.7340   33.7840   48.4600 C   0  0  0  0  0  0  0  0  0  0  0  0
   63.7430   33.1010   47.2410 C   0  0  0  0  0  0  0  0  0  0  0  0
   63.1600   31.8350   47.1450 C   0  0  0  0  0  0  0  0  0  0  0  0
   62.5720   31.2470   48.2710 C   0  0  0  0  0  0  0  0  0  0  0  0
   58.7930   34.1600   46.3750 N   0  0  0  0  0  0  0  0  0  0  0  0
   58.3030   33.2840   45.3540 C   0  0  0  0  0  0  0  0  0  0  0  0
   58.7090   33.5090   44.0300 C   0  0  0  0  0  0  0  0  0  0  0  0
   58.2660   32.6730   43.0000 C   0  0  0  0  0  0  0  0  0  0  0  0
   57.4050   31.6120   43.2880 C   0  0  0  0  0  0  0  0  0  0  0  0
   56.9510   31.4130   44.5990 C   0  0  0  0  0  0  0  0  0  0  0  0
   57.4000   32.2410   45.6320 C   0  0  0  0  0  0  0  0  0  0  0  0
   56.0450   30.3770   44.8530 O   0  0  0  0  0  0  0  0  0  0  0  0
   55.3780   29.7000   43.7860 C   0  0  0  0  0  0  0  0  0  0  0  0
   56.3330   29.5060   42.6010 C   0  0  0  0  0  0  0  0  0  0  0  0
   56.9820   30.7390   42.2820 O   0  0  0  0  0  0  0  0  0  0  0  0
   60.9189   32.7616   48.4559 H   0  0  0  0  0  0  0  0  0  0  0  0
   60.3119   34.3419   49.1241 H   0  0  0  0  0  0  0  0  0  0  0  0
   59.7796   24.8753   46.4676 H   0  0  0  0  0  0  0  0  0  0  0  0
   58.3726   24.9359   44.3776 H   0  0  0  0  0  0  0  0  0  0  0  0
   57.1892   27.0412   43.7096 H   0  0  0  0  0  0  0  0  0  0  0  0
   57.4021   29.1202   45.1262 H   0  0  0  0  0  0  0  0  0  0  0  0
   60.1365   32.1871   50.7820 H   0  0  0  0  0  0  0  0  0  0  0  0
   60.2830   30.6420   51.7512 H   0  0  0  0  0  0  0  0  0  0  0  0
   62.4350   31.7869   51.6207 H   0  0  0  0  0  0  0  0  0  0  0  0
   62.4434   30.2006   50.7161 H   0  0  0  0  0  0  0  0  0  0  0  0
   63.1208   33.7538   50.5375 H   0  0  0  0  0  0  0  0  0  0  0  0
   64.1934   34.7807   48.5339 H   0  0  0  0  0  0  0  0  0  0  0  0
   64.2092   33.5602   46.3568 H   0  0  0  0  0  0  0  0  0  0  0  0
   63.1631   31.2999   46.1839 H   0  0  0  0  0  0  0  0  0  0  0  0
   62.1047   30.2545   48.1904 H   0  0  0  0  0  0  0  0  0  0  0  0
   59.3808   34.3492   43.8003 H   0  0  0  0  0  0  0  0  0  0  0  0
   58.5950   32.8508   41.9655 H   0  0  0  0  0  0  0  0  0  0  0  0
   57.0478   32.0774   46.6612 H   0  0  0  0  0  0  0  0  0  0  0  0
   55.0330   28.7170   44.1391 H   0  0  0  0  0  0  0  0  0  0  0  0
   54.5193   30.3048   43.4590 H   0  0  0  0  0  0  0  0  0  0  0  0
   57.0913   28.7541   42.8650 H   0  0  0  0  0  0  0  0  0  0  0  0
   55.7564   29.1678   41.7274 H   0  0  0  0  0  0  0  0  0  0  0  0
  1  2  2  0
  2  3  1  0
  3  4  1  0
  4  5  1  0
  5  6  2  0
  6  7  1  0
  7  8  2  0
  8  9  1  0
  9 10  1  0
 10 11  2  0
 11 12  1  0
 12 13  2  0
 13 14  1  0
 14 15  2  0
  8 16  1  0
 16 17  2  0
 16 18  1  0
 18 19  1  0
 19 20  1  0
 20 21  1  0
 21 22  2  0
 22 23  1  0
 23 24  2  0
 24 25  1  0
 25 26  2  0
  2 27  1  0
 27 28  1  0
 28 29  2  0
 29 30  1  0
 30 31  2  0
 31 32  1  0
 32 33  2  0
 32 34  1  0
 34 35  1  0
 35 36  1  0
 36 37  1  0
 18  5  1  0
 26 21  1  0
 33 28  1  0
 15  7  1  0
 37 31  1  0
 15 10  1  0
  3 38  1  0
  3 39  1  0
 11 40  1  0
 12 41  1  0
 13 42  1  0
 14 43  1  0
 19 44  1  0
 19 45  1  0
 20 46  1  0
 20 47  1  0
 22 48  1  0
 23 49  1  0
 24 50  1  0
 25 51  1  0
 26 52  1  0
 29 53  1  0
 30 54  1  0
 33 55  1  0
 35 56  1  0
 35 57  1  0
 36 58  1  0
 36 59  1  0
M  CHG  1  27  -1
M  END
>  <UniqueID>  (46) 
42

>  <SMILES>  (46) 
O=C(CSc1nc2c(oc3ccccc32)c(=O)n1CCc1ccccc1)[N-]c1ccc2c(c1)OCCO2

>  <Energy>  (46) 
115.42089469682865

>  <Genealogy>  (46) 
O=C(CSc1nc2c(oc3ccccc32)c(=O)n1CCc1ccccc1)[N-]c1ccc2c(c1)OCCO2 (protonated)
O=C(CSc1nc2c(oc3ccccc32)c(=O)n1CCc1ccccc1)[N-]c1ccc2c(c1)OCCO2 (3D coordinates assigned)
O=C(CSc1nc2c(oc3ccccc32)c(=O)n1CCc1ccccc1)[N-]c1ccc2c(c1)OCCO2 (nonaromatic ring conformer: 115.42089469682865 kcal/mol)

>  <smiles>  (46) 
O=C(CSc1nc2c(oc3ccccc32)c(=O)n1CCc1ccccc1)Nc1ccc2c(c1)OCCO2

>  <score_type>  (46) 
oracle

>  <origin>  (46) 
adg

>  <m_score__min__energy>  (46) 
-11.119999999999999

>  <m_primary>  (46) 
energy

$$$$
46:0
     RDKit          3D

 35 38  0  0  0  0  0  0  0  0999 V2000
   56.5760   30.8110   42.3490 O   0  0  0  0  0  0  0  0  0  0  0  0
   56.9060   30.4820   43.7770 S   0  0  0  0  0  0  0  0  0  0  0  0
   55.6410   30.1190   44.5030 O   0  0  0  0  0  0  0  0  0  0  0  0
   57.9950   29.1310   43.8170 N   0  0  0  0  0  0  0  0  0  0  0  0
   58.0650   28.1870   44.8990 C   0  0  0  0  0  0  0  0  0  0  0  0
   58.4430   28.5800   46.2130 C   0  0  0  0  0  0  0  0  0  0  0  0
   58.4900   27.6420   47.2600 C   0  0  0  0  0  0  0  0  0  0  0  0
   58.1660   26.3230   46.9660 C   0  0  0  0  0  0  0  0  0  0  0  0
   58.1040   25.2860   47.8180 N   0  0  0  0  0  0  0  0  0  0  0  0
   57.7230   24.2220   47.1180 N   0  0  0  0  0  0  0  0  0  0  0  0
   57.5470   24.5770   45.8230 C   0  0  0  0  0  0  0  0  0  0  0  0
   57.1270   23.6330   44.7670 C   0  0  0  0  0  0  0  0  0  0  0  0
   56.0200   23.9370   43.9610 C   0  0  0  0  0  0  0  0  0  0  0  0
   55.6170   23.0360   42.9730 C   0  0  0  0  0  0  0  0  0  0  0  0
   56.2850   21.8640   42.8060 N   0  0  0  0  0  0  0  0  0  0  0  0
   57.3490   21.5340   43.5830 C   0  0  0  0  0  0  0  0  0  0  0  0
   57.7860   22.4070   44.5820 C   0  0  0  0  0  0  0  0  0  0  0  0
   57.8180   25.9290   45.7060 C   0  0  0  0  0  0  0  0  0  0  0  0
   57.7320   26.8360   44.6490 C   0  0  0  0  0  0  0  0  0  0  0  0
   57.6620   31.8820   44.5200 C   0  0  0  0  0  0  0  0  0  0  0  0
   57.8240   32.0140   45.9060 C   0  0  0  0  0  0  0  0  0  0  0  0
   58.4330   33.2030   46.2790 C   0  0  0  0  0  0  0  0  0  0  0  0
   58.7640   34.0790   44.8830 S   0  0  0  0  0  0  0  0  0  0  0  0
   58.1410   32.9630   43.7920 C   0  0  0  0  0  0  0  0  0  0  0  0
   58.6900   29.0620   43.0390 H   0  0  0  0  0  0  0  0  0  0  0  0
   58.7017   29.6304   46.4126 H   0  0  0  0  0  0  0  0  0  0  0  0
   58.7742   27.9429   48.2792 H   0  0  0  0  0  0  0  0  0  0  0  0
   55.4723   24.8798   44.1063 H   0  0  0  0  0  0  0  0  0  0  0  0
   54.7578   23.2751   42.3291 H   0  0  0  0  0  0  0  0  0  0  0  0
   57.8678   20.5770   43.4252 H   0  0  0  0  0  0  0  0  0  0  0  0
   58.6405   22.1359   45.2194 H   0  0  0  0  0  0  0  0  0  0  0  0
   57.4137   26.5086   43.6483 H   0  0  0  0  0  0  0  0  0  0  0  0
   57.4999   31.2494   46.6273 H   0  0  0  0  0  0  0  0  0  0  0  0
   58.6597   33.5177   47.3083 H   0  0  0  0  0  0  0  0  0  0  0  0
   58.1170   33.0697   42.6975 H   0  0  0  0  0  0  0  0  0  0  0  0
  1  2  2  0
  2  3  2  0
  2  4  1  0
  4  5  1  0
  5  6  2  0
  6  7  1  0
  7  8  2  0
  8  9  1  0
  9 10  1  0
 10 11  2  0
 11 12  1  0
 12 13  2  0
 13 14  1  0
 14 15  2  0
 15 16  1  0
 16 17  2  0
 11 18  1  0
 18 19  2  0
  2 20  1  0
 20 21  1  0
 21 22  2  0
 22 23  1  0
 23 24  1  0
 19  5  1  0
 24 20  2  0
 18  8  1  0
 17 12  1  0
  4 25  1  0
  6 26  1  0
  7 27  1  0
 13 28  1  0
 14 29  1  0
 16 30  1  0
 17 31  1  0
 19 32  1  0
 21 33  1  0
 22 34  1  0
 24 35  1  0
M  CHG  1   9  -1
M  END
>  <UniqueID>  (47) 
43

>  <SMILES>  (47) 
O=S(=O)(Nc1ccc2[n-]nc(-c3ccncc3)c2c1)c1ccsc1

>  <Energy>  (47) 
110.75148403050935

>  <Genealogy>  (47) 
O=S(=O)(Nc1ccc2[n-]nc(-c3ccncc3)c2c1)c1ccsc1 (protonated)
O=S(=O)(Nc1ccc2[n-]nc(-c3ccncc3)c2c1)c1ccsc1 (3D coordinates assigned)
O=S(=O)(Nc1ccc2[n-]nc(-c3ccncc3)c2c1)c1ccsc1 (optimized conformer: 110.75148403050935 kcal/mol)

>  <smiles>  (47) 
O=S(=O)(Nc1ccc2[nH]nc(-c3ccncc3)c2c1)c1ccsc1

>  <score_type>  (47) 
oracle

>  <origin>  (47) 
adg

>  <m_score__min__energy>  (47) 
-10.42

>  <m_primary>  (47) 
energy

$$$$
47:0
     RDKit          3D

 34 36  0  0  0  0  0  0  0  0999 V2000
   58.3634   24.6308   47.6621 H   0  0  0  0  0  0  0  0  0  0  0  0
   58.0440   25.5790   47.2050 C   0  0  0  0  0  0  0  0  0  0  0  0
   56.7660   25.7770   46.1270 S   0  0  0  0  0  0  0  0  0  0  0  0
   57.0080   27.4410   45.9700 C   0  0  0  0  0  0  0  0  0  0  0  0
   56.3120   28.2690   45.2460 N   0  0  0  0  0  0  0  0  0  0  0  0
   56.4670   29.6910   45.1270 C   0  0  0  0  0  0  0  0  0  0  0  0
   55.5830   30.3420   44.5100 O   0  0  0  0  0  0  0  0  0  0  0  0
   57.6200   30.3620   45.6540 N   0  0  0  0  0  0  0  0  0  0  0  0
   57.9140   31.7650   45.5830 C   0  0  0  0  0  0  0  0  0  0  0  0
   57.4320   32.5680   44.5320 C   0  0  0  0  0  0  0  0  0  0  0  0
   56.8229   32.1182   43.7341 H   0  0  0  0  0  0  0  0  0  0  0  0
   57.7240   33.9340   44.4980 C   0  0  0  0  0  0  0  0  0  0  0  0
   57.3545   34.5535   43.6675 H   0  0  0  0  0  0  0  0  0  0  0  0
   58.4840   34.5150   45.5160 C   0  0  0  0  0  0  0  0  0  0  0  0
   58.7200   35.5888   45.4816 H   0  0  0  0  0  0  0  0  0  0  0  0
   58.9440   33.7330   46.5770 C   0  0  0  0  0  0  0  0  0  0  0  0
   59.5321   34.1950   47.3837 H   0  0  0  0  0  0  0  0  0  0  0  0
   58.6590   32.3610   46.6180 C   0  0  0  0  0  0  0  0  0  0  0  0
   59.2580   31.3880   48.0060 S   0  0  0  0  0  0  0  0  0  0  0  0
   60.8610   32.1940   48.0100 C   0  0  0  0  0  0  0  0  0  0  0  0
   61.8750   31.7460   47.1540 C   0  0  0  0  0  0  0  0  0  0  0  0
   61.6901   30.8962   46.4804 H   0  0  0  0  0  0  0  0  0  0  0  0
   63.1220   32.3780   47.1550 C   0  0  0  0  0  0  0  0  0  0  0  0
   63.9158   32.0284   46.4785 H   0  0  0  0  0  0  0  0  0  0  0  0
   63.3610   33.4540   48.0150 C   0  0  0  0  0  0  0  0  0  0  0  0
   64.3418   33.9520   48.0136 H   0  0  0  0  0  0  0  0  0  0  0  0
   62.3530   33.8970   48.8770 C   0  0  0  0  0  0  0  0  0  0  0  0
   62.5422   34.7418   49.5556 H   0  0  0  0  0  0  0  0  0  0  0  0
   61.1050   33.2670   48.8770 C   0  0  0  0  0  0  0  0  0  0  0  0
   60.3141   33.6140   49.5582 H   0  0  0  0  0  0  0  0  0  0  0  0
   58.0460   27.8480   46.7300 N   0  0  0  0  0  0  0  0  0  0  0  0
   58.3730   28.8380   46.7910 H   0  0  0  0  0  0  0  0  0  0  0  0
   58.6250   26.8250   47.4160 C   0  0  0  0  0  0  0  0  0  0  0  0
   59.4855   26.9722   48.0852 H   0  0  0  0  0  0  0  0  0  0  0  0
  1  2  1  0
  2  3  1  0
  3  4  1  0
  4  5  2  0
  5  6  1  0
  6  7  2  0
  6  8  1  0
  8  9  1  0
  9 10  2  0
 10 11  1  0
 10 12  1  0
 12 13  1  0
 12 14  2  0
 14 15  1  0
 14 16  1  0
 16 17  1  0
 16 18  2  0
 18 19  1  0
 19 20  1  0
 20 21  2  0
 21 22  1  0
 21 23  1  0
 23 24  1  0
 23 25  2  0
 25 26  1  0
 25 27  1  0
 27 28  1  0
 27 29  2  0
 29 30  1  0
  4 31  1  0
 31 32  1  0
 31 33  1  0
 33 34  1  0
 33  2  2  0
 18  9  1  0
 29 20  1  0
M  CHG  1   8  -1
M  END
>  <UniqueID>  (48) 
44

>  <SMILES>  (48) 
O=C(/N=c1/[nH]ccs1)[N-]c1ccccc1Sc1ccccc1

>  <Energy>  (48) 
68.20140646920164

>  <Genealogy>  (48) 
O=C(N=c1[nH]ccs1)[N-]c1ccccc1Sc1ccccc1 (protonated)
O=C(/N=c1/[nH]ccs1)[N-]c1ccccc1Sc1ccccc1 (cis-trans isomerization)
O=C(/N=c1/[nH]ccs1)[N-]c1ccccc1Sc1ccccc1 (3D coordinates assigned)
O=C(/N=c1/[nH]ccs1)[N-]c1ccccc1Sc1ccccc1 (optimized conformer: 68.20140646920164 kcal/mol)

>  <smiles>  (48) 
O=C(N=c1[nH]ccs1)Nc1ccccc1Sc1ccccc1

>  <score_type>  (48) 
oracle

>  <origin>  (48) 
adg

>  <m_score__min__energy>  (48) 
-9.1799999999999997

>  <m_primary>  (48) 
energy

$$$$
48:0
     RDKit          3D

 51 54  0  0  0  0  0  0  0  0999 V2000
   61.5220   33.2240   51.7320 C   0  0  0  0  0  0  0  0  0  0  0  0
   60.3140   33.4660   51.0200 O   0  0  0  0  0  0  0  0  0  0  0  0
   59.1180   32.7980   51.3040 C   0  0  0  0  0  0  0  0  0  0  0  0
   58.1770   33.3850   52.0950 N   0  0  0  0  0  0  0  0  0  0  0  0
   57.0040   32.7770   52.4010 C   0  0  0  0  0  0  0  0  0  0  0  0
   56.7250   31.4960   51.9070 C   0  0  0  0  0  0  0  0  0  0  0  0
   55.4620   30.8070   52.2530 C   0  0  0  0  0  0  0  0  0  0  0  0
   55.4900   29.5240   52.8570 C   0  0  0  0  0  0  0  0  0  0  0  0
   54.2970   28.8710   53.2090 C   0  0  0  0  0  0  0  0  0  0  0  0
   53.0910   29.5110   52.9360 C   0  0  0  0  0  0  0  0  0  0  0  0
   51.8590   29.0400   53.2030 N   0  0  0  0  0  0  0  0  0  0  0  0
   51.0180   30.0010   52.7510 C   0  0  0  0  0  0  0  0  0  0  0  0
   51.7160   31.0690   52.1980 C   0  0  0  0  0  0  0  0  0  0  0  0
   51.1180   32.2580   51.5700 C   0  0  0  0  0  0  0  0  0  0  0  0
   51.0520   32.3420   50.3150 O   0  0  0  0  0  0  0  0  0  0  0  0
   50.6450   33.3090   52.3440 O   0  0  0  0  0  0  0  0  0  0  0  0
   53.0510   30.7430   52.3340 C   0  0  0  0  0  0  0  0  0  0  0  0
   54.2190   31.4280   51.9880 C   0  0  0  0  0  0  0  0  0  0  0  0
   57.6730   30.8760   51.0800 C   0  0  0  0  0  0  0  0  0  0  0  0
   58.8840   31.5180   50.7680 C   0  0  0  0  0  0  0  0  0  0  0  0
   59.8760   30.8980   49.9270 N   0  0  0  0  0  0  0  0  0  0  0  0
   59.7410   30.7530   48.2020 S   0  0  0  0  0  0  0  0  0  0  0  0
   60.9530   30.0290   47.6840 O   0  0  0  0  0  0  0  0  0  0  0  0
   58.5230   29.9400   47.8650 O   0  0  0  0  0  0  0  0  0  0  0  0
   59.5910   32.3500   47.4440 C   0  0  0  0  0  0  0  0  0  0  0  0
   58.4220   32.6470   46.7260 C   0  0  0  0  0  0  0  0  0  0  0  0
   58.2650   33.8820   46.0860 C   0  0  0  0  0  0  0  0  0  0  0  0
   57.0100   34.1660   45.3140 C   0  0  0  0  0  0  0  0  0  0  0  0
   59.2850   34.8360   46.1730 C   0  0  0  0  0  0  0  0  0  0  0  0
   60.4510   34.5570   46.8860 C   0  0  0  0  0  0  0  0  0  0  0  0
   60.6150   33.3230   47.5390 C   0  0  0  0  0  0  0  0  0  0  0  0
   61.9030   33.0580   48.2730 C   0  0  0  0  0  0  0  0  0  0  0  0
   61.3245   33.2636   52.8134 H   0  0  0  0  0  0  0  0  0  0  0  0
   61.9113   32.2300   51.4665 H   0  0  0  0  0  0  0  0  0  0  0  0
   62.2641   33.9913   51.4665 H   0  0  0  0  0  0  0  0  0  0  0  0
   56.2697   33.2910   53.0387 H   0  0  0  0  0  0  0  0  0  0  0  0
   56.4560   29.0352   53.0519 H   0  0  0  0  0  0  0  0  0  0  0  0
   54.3152   27.8807   53.6874 H   0  0  0  0  0  0  0  0  0  0  0  0
   49.9213   29.9437   52.8135 H   0  0  0  0  0  0  0  0  0  0  0  0
   54.1729   32.4234   51.5221 H   0  0  0  0  0  0  0  0  0  0  0  0
   57.4665   29.8760   50.6709 H   0  0  0  0  0  0  0  0  0  0  0  0
   60.7530   30.5260   50.3540 H   0  0  0  0  0  0  0  0  0  0  0  0
   57.6180   31.8987   46.6654 H   0  0  0  0  0  0  0  0  0  0  0  0
   56.1829   34.3532   46.0147 H   0  0  0  0  0  0  0  0  0  0  0  0
   57.1618   35.0525   44.6807 H   0  0  0  0  0  0  0  0  0  0  0  0
   56.7653   33.3005   44.6807 H   0  0  0  0  0  0  0  0  0  0  0  0
   59.1668   35.8106   45.6768 H   0  0  0  0  0  0  0  0  0  0  0  0
   61.2506   35.3106   46.9378 H   0  0  0  0  0  0  0  0  0  0  0  0
   61.7215   33.0953   49.3573 H   0  0  0  0  0  0  0  0  0  0  0  0
   62.2832   32.0628   47.9989 H   0  0  0  0  0  0  0  0  0  0  0  0
   62.6452   33.8223   47.9989 H   0  0  0  0  0  0  0  0  0  0  0  0
  1  2  1  0
  2  3  1  0
  3  4  2  0
  4  5  1  0
  5  6  2  0
  6  7  1  0
  7  8  2  0
  8  9  1  0
  9 10  2  0
 10 11  1  0
 11 12  1  0
 12 13  2  0
 13 14  1  0
 14 15  2  0
 14 16  1  0
 13 17  1  0
 17 18  2  0
  6 19  1  0
 19 20  2  0
 20 21  1  0
 21 22  1  0
 22 23  2  0
 22 24  2  0
 22 25  1  0
 25 26  2  0
 26 27  1  0
 27 28  1  0
 27 29  2  0
 29 30  1  0
 30 31  2  0
 31 32  1  0
 20  3  1  0
 31 25  1  0
 18  7  1  0
 17 10  1  0
  1 33  1  0
  1 34  1  0
  1 35  1  0
  5 36  1  0
  8 37  1  0
  9 38  1  0
 12 39  1  0
 18 40  1  0
 19 41  1  0
 21 42  1  0
 26 43  1  0
 28 44  1  0
 28 45  1  0
 28 46  1  0
 29 47  1  0
 30 48  1  0
 32 49  1  0
 32 50  1  0
 32 51  1  0
M  CHG  2  11  -1  16  -1
M  END
>  <UniqueID>  (49) 
45

>  <SMILES>  (49) 
COc1ncc(-c2ccc3[n-]cc(C(=O)[O-])c3c2)cc1NS(=O)(=O)c1cc(C)ccc1C

>  <Energy>  (49) 
92.62357912839967

>  <Genealogy>  (49) 
COc1ncc(-c2ccc3[n-]cc(C(=O)[O-])c3c2)cc1NS(=O)(=O)c1cc(C)ccc1C (protonated)
COc1ncc(-c2ccc3[n-]cc(C(=O)[O-])c3c2)cc1NS(=O)(=O)c1cc(C)ccc1C (3D coordinates assigned)
COc1ncc(-c2ccc3[n-]cc(C(=O)[O-])c3c2)cc1NS(=O)(=O)c1cc(C)ccc1C (optimized conformer: 92.62357912839967 kcal/mol)

>  <smiles>  (49) 
COc1ncc(-c2ccc3[nH]cc(C(=O)O)c3c2)cc1NS(=O)(=O)c1cc(C)ccc1C

>  <score_type>  (49) 
oracle

>  <origin>  (49) 
adg

>  <m_score__min__energy>  (49) 
-13.91

>  <m_primary>  (49) 
energy

$$$$
49:0
     RDKit          3D

 46 49  0  0  0  0  0  0  0  0999 V2000
   60.3110   34.1120   49.3780 C   0  0  0  0  0  0  0  0  0  0  0  0
   61.4660   33.3360   48.9390 N   0  0  0  0  0  0  0  0  0  0  0  0
   62.1010   33.5490   47.6700 C   0  0  0  0  0  0  0  0  0  0  0  0
   63.6780   33.1500   47.4890 S   0  0  0  0  0  0  0  0  0  0  0  0
   61.4280   34.2300   46.6010 N   0  0  0  0  0  0  0  0  0  0  0  0
   60.1140   33.8780   46.1360 C   0  0  0  0  0  0  0  0  0  0  0  0
   59.2620   34.8850   45.6610 C   0  0  0  0  0  0  0  0  0  0  0  0
   57.9850   34.5660   45.1910 C   0  0  0  0  0  0  0  0  0  0  0  0
   57.5510   33.2390   45.1830 C   0  0  0  0  0  0  0  0  0  0  0  0
   58.3950   32.2110   45.6400 C   0  0  0  0  0  0  0  0  0  0  0  0
   57.9350   30.7980   45.6340 C   0  0  0  0  0  0  0  0  0  0  0  0
   58.4900   29.8630   46.5250 C   0  0  0  0  0  0  0  0  0  0  0  0
   58.0570   28.5340   46.5210 C   0  0  0  0  0  0  0  0  0  0  0  0
   57.0620   28.1110   45.6250 C   0  0  0  0  0  0  0  0  0  0  0  0
   56.6040   26.7040   45.6200 C   0  0  0  0  0  0  0  0  0  0  0  0
   57.4050   25.6660   45.2530 N   0  0  0  0  0  0  0  0  0  0  0  0
   56.5990   24.6060   45.3960 C   0  0  0  0  0  0  0  0  0  0  0  0
   56.9030   23.2670   45.1610 C   0  0  0  0  0  0  0  0  0  0  0  0
   55.8850   22.3080   45.3730 C   0  0  0  0  0  0  0  0  0  0  0  0
   56.1720   20.8400   45.1850 C   0  0  0  0  0  0  0  0  0  0  0  0
   57.3190   20.4770   45.8670 F   0  0  0  0  0  0  0  0  0  0  0  0
   55.1230   20.0710   45.6630 F   0  0  0  0  0  0  0  0  0  0  0  0
   56.3450   20.5780   43.8390 F   0  0  0  0  0  0  0  0  0  0  0  0
   54.6130   22.7320   45.8500 C   0  0  0  0  0  0  0  0  0  0  0  0
   54.3490   24.0950   46.0740 C   0  0  0  0  0  0  0  0  0  0  0  0
   55.3740   25.0020   45.8310 C   0  0  0  0  0  0  0  0  0  0  0  0
   55.3460   26.3340   45.9840 N   0  0  0  0  0  0  0  0  0  0  0  0
   56.5060   29.0450   44.7330 C   0  0  0  0  0  0  0  0  0  0  0  0
   56.9380   30.3740   44.7380 C   0  0  0  0  0  0  0  0  0  0  0  0
   59.6810   32.5400   46.1040 C   0  0  0  0  0  0  0  0  0  0  0  0
   60.2798   34.1330   50.4774 H   0  0  0  0  0  0  0  0  0  0  0  0
   60.3921   35.1395   48.9938 H   0  0  0  0  0  0  0  0  0  0  0  0
   59.3904   33.6485   48.9938 H   0  0  0  0  0  0  0  0  0  0  0  0
   61.9430   32.7290   49.6440 H   0  0  0  0  0  0  0  0  0  0  0  0
   61.9610   34.9580   46.0740 H   0  0  0  0  0  0  0  0  0  0  0  0
   59.6004   35.9317   45.6582 H   0  0  0  0  0  0  0  0  0  0  0  0
   57.3200   35.3627   44.8263 H   0  0  0  0  0  0  0  0  0  0  0  0
   56.5426   32.9960   44.8169 H   0  0  0  0  0  0  0  0  0  0  0  0
   59.2716   30.1799   47.2312 H   0  0  0  0  0  0  0  0  0  0  0  0
   58.4991   27.8139   47.2252 H   0  0  0  0  0  0  0  0  0  0  0  0
   57.9044   22.9646   44.8209 H   0  0  0  0  0  0  0  0  0  0  0  0
   53.8285   21.9861   46.0454 H   0  0  0  0  0  0  0  0  0  0  0  0
   53.3642   24.4322   46.4297 H   0  0  0  0  0  0  0  0  0  0  0  0
   55.7254   28.7273   44.0262 H   0  0  0  0  0  0  0  0  0  0  0  0
   56.4943   31.0944   44.0350 H   0  0  0  0  0  0  0  0  0  0  0  0
   60.3562   31.7418   46.4459 H   0  0  0  0  0  0  0  0  0  0  0  0
  1  2  1  0
  2  3  1  0
  3  4  2  0
  3  5  1  0
  5  6  1  0
  6  7  2  0
  7  8  1  0
  8  9  2  0
  9 10  1  0
 10 11  1  0
 11 12  2  0
 12 13  1  0
 13 14  2  0
 14 15  1  0
 15 16  2  0
 16 17  1  0
 17 18  2  0
 18 19  1  0
 19 20  1  0
 20 21  1  0
 20 22  1  0
 20 23  1  0
 19 24  2  0
 24 25  1  0
 25 26  2  0
 26 27  1  0
 14 28  1  0
 28 29  2  0
 10 30  2  0
 30  6  1  0
 29 11  1  0
 27 15  1  0
 26 17  1  0
  1 31  1  0
  1 32  1  0
  1 33  1  0
  2 34  1  0
  5 35  1  0
  7 36  1  0
  8 37  1  0
  9 38  1  0
 12 39  1  0
 13 40  1  0
 18 41  1  0
 24 42  1  0
 25 43  1  0
 28 44  1  0
 29 45  1  0
 30 46  1  0
M  CHG  1  27  -1
M  END
>  <UniqueID>  (50) 
46

>  <SMILES>  (50) 
CNC(=S)Nc1cccc(-c2ccc(-c3nc4cc(C(F)(F)F)ccc4[n-]3)cc2)c1

>  <Energy>  (50) 
94.10216794514858

>  <Genealogy>  (50) 
CNC(=S)Nc1cccc(-c2ccc(-c3nc4cc(C(F)(F)F)ccc4[n-]3)cc2)c1 (protonated)
CNC(=S)Nc1cccc(-c2ccc(-c3nc4cc(C(F)(F)F)ccc4[n-]3)cc2)c1 (3D coordinates assigned)
CNC(=S)Nc1cccc(-c2ccc(-c3nc4cc(C(F)(F)F)ccc4[n-]3)cc2)c1 (optimized conformer: 94.10216794514858 kcal/mol)

>  <smiles>  (50) 
CNC(=S)Nc1cccc(-c2ccc(-c3nc4cc(C(F)(F)F)ccc4[nH]3)cc2)c1

>  <score_type>  (50) 
oracle

>  <origin>  (50) 
adg

>  <m_score__min__energy>  (50) 
-10.050000000000001

>  <m_primary>  (50) 
energy

$$$$
50:0
     RDKit          3D

 44 47  0  0  0  0  0  0  0  0999 V2000
   56.6710   34.7880   44.8940 O   0  0  0  0  0  0  0  0  0  0  0  0
   57.2000   33.7050   45.2650 C   0  0  0  0  0  0  0  0  0  0  0  0
   56.6090   32.4460   44.9010 N   0  0  0  0  0  0  0  0  0  0  0  0
   57.2490   31.3240   44.7720 C   0  0  0  0  0  0  0  0  0  0  0  0
   58.5650   31.2560   44.5070 N   0  0  0  0  0  0  0  0  0  0  0  0
   58.8540   29.9660   44.4360 N   0  0  0  0  0  0  0  0  0  0  0  0
   57.7000   29.3010   44.6630 C   0  0  0  0  0  0  0  0  0  0  0  0
   57.5700   27.8310   44.6690 C   0  0  0  0  0  0  0  0  0  0  0  0
   57.1400   27.1530   45.8220 C   0  0  0  0  0  0  0  0  0  0  0  0
   57.0270   25.7590   45.8220 C   0  0  0  0  0  0  0  0  0  0  0  0
   57.3440   25.0310   44.6710 C   0  0  0  0  0  0  0  0  0  0  0  0
   57.1960   23.1260   44.6750 Br  0  0  0  0  0  0  0  0  0  0  0  0
   57.7650   25.6980   43.5160 C   0  0  0  0  0  0  0  0  0  0  0  0
   57.8790   27.0920   43.5150 C   0  0  0  0  0  0  0  0  0  0  0  0
   56.7070   30.1340   44.8720 O   0  0  0  0  0  0  0  0  0  0  0  0
   58.4440   33.7310   46.0710 C   0  0  0  0  0  0  0  0  0  0  0  0
   59.6780   34.0380   45.4680 C   0  0  0  0  0  0  0  0  0  0  0  0
   60.8550   34.0360   46.2210 C   0  0  0  0  0  0  0  0  0  0  0  0
   60.8180   33.7410   47.5890 C   0  0  0  0  0  0  0  0  0  0  0  0
   62.3200   33.7050   48.5080 S   0  0  0  0  0  0  0  0  0  0  0  0
   63.4400   34.1850   47.6280 O   0  0  0  0  0  0  0  0  0  0  0  0
   62.2410   34.5990   49.7140 O   0  0  0  0  0  0  0  0  0  0  0  0
   62.6480   32.0790   49.0130 N   0  0  0  0  0  0  0  0  0  0  0  0
   61.8420   30.9330   48.7020 C   0  0  0  0  0  0  0  0  0  0  0  0
   61.4520   30.6370   47.3810 C   0  0  0  0  0  0  0  0  0  0  0  0
   60.6630   29.5160   47.1110 C   0  0  0  0  0  0  0  0  0  0  0  0
   60.2570   28.6790   48.1530 C   0  0  0  0  0  0  0  0  0  0  0  0
   60.6410   28.9610   49.4660 C   0  0  0  0  0  0  0  0  0  0  0  0
   61.4260   30.0860   49.7450 C   0  0  0  0  0  0  0  0  0  0  0  0
   61.8820   30.4180   51.4110 Cl  0  0  0  0  0  0  0  0  0  0  0  0
   59.5910   33.4550   48.2020 C   0  0  0  0  0  0  0  0  0  0  0  0
   58.4130   33.4460   47.4480 C   0  0  0  0  0  0  0  0  0  0  0  0
   56.8908   27.7218   46.7299 H   0  0  0  0  0  0  0  0  0  0  0  0
   56.6885   25.2350   46.7280 H   0  0  0  0  0  0  0  0  0  0  0  0
   58.0066   25.1260   42.6080 H   0  0  0  0  0  0  0  0  0  0  0  0
   58.2126   27.6127   42.6053 H   0  0  0  0  0  0  0  0  0  0  0  0
   59.7162   34.2813   44.3959 H   0  0  0  0  0  0  0  0  0  0  0  0
   61.8152   34.2673   45.7366 H   0  0  0  0  0  0  0  0  0  0  0  0
   61.7706   31.2925   46.5571 H   0  0  0  0  0  0  0  0  0  0  0  0
   60.3613   29.2924   46.0771 H   0  0  0  0  0  0  0  0  0  0  0  0
   59.6347   27.7975   47.9395 H   0  0  0  0  0  0  0  0  0  0  0  0
   60.3254   28.2966   50.2839 H   0  0  0  0  0  0  0  0  0  0  0  0
   59.5540   33.2369   49.2795 H   0  0  0  0  0  0  0  0  0  0  0  0
   57.4547   33.2142   47.9358 H   0  0  0  0  0  0  0  0  0  0  0  0
  1  2  2  0
  2  3  1  0
  3  4  2  3
  4  5  1  0
  5  6  1  0
  6  7  2  0
  7  8  1  0
  8  9  2  0
  9 10  1  0
 10 11  2  0
 11 12  1  0
 11 13  1  0
 13 14  2  0
  7 15  1  0
  2 16  1  0
 16 17  2  0
 17 18  1  0
 18 19  2  0
 19 20  1  0
 20 21  2  0
 20 22  2  0
 20 23  1  0
 23 24  1  0
 24 25  2  0
 25 26  1  0
 26 27  2  0
 27 28  1  0
 28 29  2  0
 29 30  1  0
 19 31  1  0
 31 32  2  0
 15  4  1  0
 32 16  1  0
 14  8  1  0
 29 24  1  0
  9 33  1  0
 10 34  1  0
 13 35  1  0
 14 36  1  0
 17 37  1  0
 18 38  1  0
 25 39  1  0
 26 40  1  0
 27 41  1  0
 28 42  1  0
 31 43  1  0
 32 44  1  0
M  CHG  2   5  -1  23  -1
M  END
>  <UniqueID>  (51) 
47

>  <SMILES>  (51) 
O=C(N=c1[n-]nc(-c2ccc(Br)cc2)o1)c1ccc(S(=O)(=O)[N-]c2ccccc2Cl)cc1

>  <Energy>  (51) 
90.13195313620919

>  <Genealogy>  (51) 
O=C(N=c1[n-]nc(-c2ccc(Br)cc2)o1)c1ccc(S(=O)(=O)[N-]c2ccccc2Cl)cc1 (protonated)
O=C(N=c1[n-]nc(-c2ccc(Br)cc2)o1)c1ccc(S(=O)(=O)[N-]c2ccccc2Cl)cc1 (3D coordinates assigned)
O=C(N=c1[n-]nc(-c2ccc(Br)cc2)o1)c1ccc(S(=O)(=O)[N-]c2ccccc2Cl)cc1 (optimized conformer: 90.13195313620919 kcal/mol)

>  <smiles>  (51) 
O=C(N=c1[nH]nc(-c2ccc(Br)cc2)o1)c1ccc(S(=O)(=O)Nc2ccccc2Cl)cc1

>  <score_type>  (51) 
oracle

>  <origin>  (51) 
adg

>  <m_score__min__energy>  (51) 
-12.35

>  <m_primary>  (51) 
energy

$$$$
51:0
     RDKit          3D

 71 76  0  0  0  0  0  0  0  0999 V2000
   57.8870   21.6770   45.5290 C   0  0  0  0  0  0  0  0  0  0  0  0
   57.8230   23.1050   45.0780 C   0  0  0  0  0  0  0  0  0  0  0  0
   57.3840   23.4300   43.7770 C   0  0  0  0  0  0  0  0  0  0  0  0
   57.3600   24.7730   43.3630 C   0  0  0  0  0  0  0  0  0  0  0  0
   57.7650   25.7740   44.2600 C   0  0  0  0  0  0  0  0  0  0  0  0
   58.2130   25.4650   45.5160 C   0  0  0  0  0  0  0  0  0  0  0  0
   58.2190   24.1320   45.9600 C   0  0  0  0  0  0  0  0  0  0  0  0
   58.6290   26.6760   46.2960 C   0  0  1  0  0  0  0  0  0  0  0  0
   60.0620   26.5630   46.7970 C   0  0  0  0  0  0  0  0  0  0  0  0
   60.7700   25.5570   46.4980 O   0  0  0  0  0  0  0  0  0  0  0  0
   60.5990   27.5270   47.7200 N   0  0  0  0  0  0  0  0  0  0  0  0
   60.0120   27.7380   49.0380 C   0  0  0  0  0  0  0  0  0  0  0  0
   59.9740   29.2040   49.3900 C   0  0  0  0  0  0  0  0  0  0  0  0
   60.9910   29.7770   50.1880 C   0  0  0  0  0  0  0  0  0  0  0  0
   60.9030   31.1160   50.5830 C   0  0  0  0  0  0  0  0  0  0  0  0
   59.8020   31.8850   50.2080 C   0  0  0  0  0  0  0  0  0  0  0  0
   58.7870   31.3270   49.4200 C   0  0  0  0  0  0  0  0  0  0  0  0
   58.8760   29.9940   49.0090 C   0  0  0  0  0  0  0  0  0  0  0  0
   58.3380   27.8930   45.3070 C   0  0  0  0  0  0  0  0  0  0  0  0
   59.6120   28.7390   44.9510 C   0  0  0  0  0  0  0  0  0  0  0  0
   59.2770   29.9840   44.1200 C   0  0  0  0  0  0  0  0  0  0  0  0
   58.2790   30.7780   44.8370 N   0  0  0  0  0  0  0  0  0  0  0  0
   58.6710   32.0130   45.4630 C   0  0  0  0  0  0  0  0  0  0  0  0
   57.9360   33.1870   45.2460 C   0  0  0  0  0  0  0  0  0  0  0  0
   58.3330   34.3860   45.8420 C   0  0  0  0  0  0  0  0  0  0  0  0
   59.4710   34.4210   46.6560 C   0  0  0  0  0  0  0  0  0  0  0  0
   60.2240   33.2590   46.8830 C   0  0  0  0  0  0  0  0  0  0  0  0
   61.4630   33.3070   47.7080 C   0  0  0  0  0  0  0  0  0  0  0  0
   62.5660   32.4750   47.4090 C   0  0  0  0  0  0  0  0  0  0  0  0
   63.7380   32.5590   48.1680 C   0  0  0  0  0  0  0  0  0  0  0  0
   63.8320   33.4710   49.2230 C   0  0  0  0  0  0  0  0  0  0  0  0
   62.7480   34.2970   49.5310 C   0  0  0  0  0  0  0  0  0  0  0  0
   61.5670   34.2160   48.7840 C   0  0  0  0  0  0  0  0  0  0  0  0
   59.8080   32.0520   46.2870 C   0  0  0  0  0  0  0  0  0  0  0  0
   57.0120   30.1190   45.1680 C   0  0  0  0  0  0  0  0  0  0  0  0
   57.2850   28.8390   45.9800 C   0  0  0  0  0  0  0  0  0  0  0  0
   57.7430   27.2340   44.0040 C   0  0  0  0  0  0  0  0  0  0  0  0
   57.8887   21.6394   46.6284 H   0  0  0  0  0  0  0  0  0  0  0  0
   57.0124   21.1316   45.1448 H   0  0  0  0  0  0  0  0  0  0  0  0
   58.8069   21.2120   45.1448 H   0  0  0  0  0  0  0  0  0  0  0  0
   57.0615   22.6347   43.0888 H   0  0  0  0  0  0  0  0  0  0  0  0
   57.0278   25.0366   42.3480 H   0  0  0  0  0  0  0  0  0  0  0  0
   58.5300   23.8912   46.9873 H   0  0  0  0  0  0  0  0  0  0  0  0
   58.0720   26.8136   47.2345 H   0  0  0  0  0  0  0  0  0  0  0  0
   61.6110   27.7700   47.6060 H   0  0  0  0  0  0  0  0  0  0  0  0
   58.9859   27.3415   49.0414 H   0  0  0  0  0  0  0  0  0  0  0  0
   60.6317   27.2170   49.7827 H   0  0  0  0  0  0  0  0  0  0  0  0
   61.8531   29.1686   50.4988 H   0  0  0  0  0  0  0  0  0  0  0  0
   61.7037   31.5630   51.1905 H   0  0  0  0  0  0  0  0  0  0  0  0
   59.7301   32.9337   50.5321 H   0  0  0  0  0  0  0  0  0  0  0  0
   57.9207   31.9374   49.1250 H   0  0  0  0  0  0  0  0  0  0  0  0
   58.0817   29.5607   48.3835 H   0  0  0  0  0  0  0  0  0  0  0  0
   60.0958   29.0585   45.8858 H   0  0  0  0  0  0  0  0  0  0  0  0
   60.2773   28.1037   44.3479 H   0  0  0  0  0  0  0  0  0  0  0  0
   60.1870   30.5833   43.9695 H   0  0  0  0  0  0  0  0  0  0  0  0
   58.8790   29.6819   43.1400 H   0  0  0  0  0  0  0  0  0  0  0  0
   57.0432   33.1636   44.6038 H   0  0  0  0  0  0  0  0  0  0  0  0
   57.7508   35.3036   45.6715 H   0  0  0  0  0  0  0  0  0  0  0  0
   59.7781   35.3687   47.1224 H   0  0  0  0  0  0  0  0  0  0  0  0
   62.5025   31.7589   46.5764 H   0  0  0  0  0  0  0  0  0  0  0  0
   64.5900   31.9040   47.9334 H   0  0  0  0  0  0  0  0  0  0  0  0
   64.7593   33.5384   49.8108 H   0  0  0  0  0  0  0  0  0  0  0  0
   62.8229   35.0129   50.3628 H   0  0  0  0  0  0  0  0  0  0  0  0
   60.7148   34.8641   49.0365 H   0  0  0  0  0  0  0  0  0  0  0  0
   60.3798   31.1301   46.4689 H   0  0  0  0  0  0  0  0  0  0  0  0
   56.3894   30.8031   45.7633 H   0  0  0  0  0  0  0  0  0  0  0  0
   56.4873   29.8538   44.2383 H   0  0  0  0  0  0  0  0  0  0  0  0
   57.6593   29.1283   46.9731 H   0  0  0  0  0  0  0  0  0  0  0  0
   56.3380   28.2827   46.0410 H   0  0  0  0  0  0  0  0  0  0  0  0
   56.7129   27.5799   43.8331 H   0  0  0  0  0  0  0  0  0  0  0  0
   58.3213   27.5023   43.1076 H   0  0  0  0  0  0  0  0  0  0  0  0
  1  2  1  0
  2  3  2  0
  3  4  1  0
  4  5  2  0
  5  6  1  0
  6  7  2  0
  6  8  1  0
  8  9  1  0
  9 10  2  0
  9 11  1  0
 11 12  1  0
 12 13  1  0
 13 14  2  0
 14 15  1  0
 15 16  2  0
 16 17  1  0
 17 18  2  0
  8 19  1  0
 19 20  1  0
 20 21  1  0
 21 22  1  0
 22 23  1  0
 23 24  2  0
 24 25  1  0
 25 26  2  0
 26 27  1  0
 27 28  1  0
 28 29  2  0
 29 30  1  0
 30 31  2  0
 31 32  1  0
 32 33  2  0
 27 34  2  0
 22 35  1  0
 35 36  1  0
 19 37  1  0
  7  2  1  0
 18 13  1  0
 36 19  1  0
 37  5  1  0
 34 23  1  0
 33 28  1  0
  1 38  1  0
  1 39  1  0
  1 40  1  0
  3 41  1  0
  4 42  1  0
  7 43  1  0
  8 44  1  1
 11 45  1  0
 12 46  1  0
 12 47  1  0
 14 48  1  0
 15 49  1  0
 16 50  1  0
 17 51  1  0
 18 52  1  0
 20 53  1  0
 20 54  1  0
 21 55  1  0
 21 56  1  0
 24 57  1  0
 25 58  1  0
 26 59  1  0
 29 60  1  0
 30 61  1  0
 31 62  1  0
 32 63  1  0
 33 64  1  0
 34 65  1  0
 35 66  1  0
 35 67  1  0
 36 68  1  0
 36 69  1  0
 37 70  1  0
 37 71  1  0
M  END
>  <UniqueID>  (52) 
48

>  <SMILES>  (52) 
Cc1ccc2c(c1)[C@@H](C(=O)NCc1ccccc1)C1(CCN(c3cccc(-c4ccccc4)c3)CC1)C2

>  <Energy>  (52) 
103.94810478555365

>  <Genealogy>  (52) 
Cc1ccc2c(c1)[C@@H](C(=O)NCc1ccccc1)C1(CCN(c3cccc(-c4ccccc4)c3)CC1)C2 (chirality)
Cc1ccc2c(c1)[C@@H](C(=O)NCc1ccccc1)C1(CCN(c3cccc(-c4ccccc4)c3)CC1)C2 (3D coordinates assigned)
Cc1ccc2c(c1)[C@@H](C(=O)NCc1ccccc1)C1(CCN(c3cccc(-c4ccccc4)c3)CC1)C2 (nonaromatic ring conformer: 103.94810478555365 kcal/mol)

>  <smiles>  (52) 
Cc1ccc2c(c1)C(C(=O)NCc1ccccc1)C1(CCN(c3cccc(-c4ccccc4)c3)CC1)C2

>  <score_type>  (52) 
oracle

>  <origin>  (52) 
adg

>  <m_score__min__energy>  (52) 
-11.119999999999999

>  <m_primary>  (52) 
energy

$$$$
52:0
     RDKit          3D

 51 54  0  0  0  0  0  0  0  0999 V2000
   60.0390   35.7390   46.0660 O   0  0  0  0  0  0  0  0  0  0  0  0
   59.3550   34.7560   46.4630 C   0  0  0  0  0  0  0  0  0  0  0  0
   58.0060   34.5920   46.0150 N   0  0  0  0  0  0  0  0  0  0  0  0
   57.6490   34.0160   44.7230 C   0  0  0  0  0  0  0  0  0  0  0  0
   57.6420   32.5150   44.8040 C   0  0  0  0  0  0  0  0  0  0  0  0
   57.3770   31.7380   43.6670 C   0  0  0  0  0  0  0  0  0  0  0  0
   57.4010   30.3420   43.7430 C   0  0  0  0  0  0  0  0  0  0  0  0
   57.6970   29.7010   44.9580 C   0  0  0  0  0  0  0  0  0  0  0  0
   57.7320   28.2270   45.0430 C   0  0  0  0  0  0  0  0  0  0  0  0
   56.6480   27.4630   45.3040 N   0  0  0  0  0  0  0  0  0  0  0  0
   57.1390   26.2090   45.2700 C   0  0  0  0  0  0  0  0  0  0  0  0
   56.3260   25.0100   45.5350 C   0  0  0  0  0  0  0  0  0  0  0  0
   55.2230   25.1480   46.1290 O   0  0  0  0  0  0  0  0  0  0  0  0
   56.7480   23.6990   45.1160 N   0  0  0  0  0  0  0  0  0  0  0  0
   56.5030   22.5340   45.9760 C   0  0  0  0  0  0  0  0  0  0  0  0
   55.9030   21.3570   45.1690 C   0  0  0  0  0  0  0  0  0  0  0  0
   55.9020   21.5670   43.7660 O   0  0  0  0  0  0  0  0  0  0  0  0
   57.1610   22.0420   43.3440 C   0  0  0  0  0  0  0  0  0  0  0  0
   57.3240   23.4990   43.7790 C   0  0  0  0  0  0  0  0  0  0  0  0
   58.4940   26.2540   45.0160 C   0  0  0  0  0  0  0  0  0  0  0  0
   58.8250   27.5130   44.8750 O   0  0  0  0  0  0  0  0  0  0  0  0
   57.9660   30.4800   46.0950 C   0  0  0  0  0  0  0  0  0  0  0  0
   57.9390   31.8770   46.0180 C   0  0  0  0  0  0  0  0  0  0  0  0
   59.9030   33.8160   47.3970 N   0  0  0  0  0  0  0  0  0  0  0  0
   61.2980   33.7290   47.7330 C   0  0  0  0  0  0  0  0  0  0  0  0
   61.6930   33.8490   49.0760 C   0  0  0  0  0  0  0  0  0  0  0  0
   63.0410   33.7410   49.4310 C   0  0  0  0  0  0  0  0  0  0  0  0
   64.0060   33.4980   48.4500 C   0  0  0  0  0  0  0  0  0  0  0  0
   63.6230   33.3550   47.1140 C   0  0  0  0  0  0  0  0  0  0  0  0
   62.2750   33.4640   46.7540 C   0  0  0  0  0  0  0  0  0  0  0  0
   56.6481   34.3683   44.4329 H   0  0  0  0  0  0  0  0  0  0  0  0
   58.3911   34.3301   43.9743 H   0  0  0  0  0  0  0  0  0  0  0  0
   57.1489   32.2296   42.7098 H   0  0  0  0  0  0  0  0  0  0  0  0
   57.1869   29.7419   42.8463 H   0  0  0  0  0  0  0  0  0  0  0  0
   57.4547   22.2129   46.4245 H   0  0  0  0  0  0  0  0  0  0  0  0
   55.7837   22.8230   46.7564 H   0  0  0  0  0  0  0  0  0  0  0  0
   56.4918   20.4531   45.3841 H   0  0  0  0  0  0  0  0  0  0  0  0
   54.8522   21.2583   45.4791 H   0  0  0  0  0  0  0  0  0  0  0  0
   57.9552   21.4318   43.7989 H   0  0  0  0  0  0  0  0  0  0  0  0
   57.2315   21.9748   42.2483 H   0  0  0  0  0  0  0  0  0  0  0  0
   58.3940   23.7531   43.8030 H   0  0  0  0  0  0  0  0  0  0  0  0
   56.7989   24.1475   43.0623 H   0  0  0  0  0  0  0  0  0  0  0  0
   59.1720   25.3907   44.9449 H   0  0  0  0  0  0  0  0  0  0  0  0
   58.1992   29.9894   47.0515 H   0  0  0  0  0  0  0  0  0  0  0  0
   58.1518   32.4784   46.9142 H   0  0  0  0  0  0  0  0  0  0  0  0
   59.2320   33.2020   47.9120 H   0  0  0  0  0  0  0  0  0  0  0  0
   60.9363   34.0292   49.8537 H   0  0  0  0  0  0  0  0  0  0  0  0
   63.3422   33.8474   50.4836 H   0  0  0  0  0  0  0  0  0  0  0  0
   65.0670   33.4193   48.7296 H   0  0  0  0  0  0  0  0  0  0  0  0
   64.3825   33.1563   46.3435 H   0  0  0  0  0  0  0  0  0  0  0  0
   61.9774   33.3422   45.7021 H   0  0  0  0  0  0  0  0  0  0  0  0
  1  2  2  0
  2  3  1  0
  3  4  1  0
  4  5  1  0
  5  6  2  0
  6  7  1  0
  7  8  2  0
  8  9  1  0
  9 10  2  0
 10 11  1  0
 11 12  1  0
 12 13  2  0
 12 14  1  0
 14 15  1  0
 15 16  1  0
 16 17  1  0
 17 18  1  0
 18 19  1  0
 11 20  2  0
 20 21  1  0
  8 22  1  0
 22 23  2  0
  2 24  1  0
 24 25  1  0
 25 26  2  0
 26 27  1  0
 27 28  2  0
 28 29  1  0
 29 30  2  0
 23  5  1  0
 30 25  1  0
 21  9  1  0
 19 14  1  0
  4 31  1  0
  4 32  1  0
  6 33  1  0
  7 34  1  0
 15 35  1  0
 15 36  1  0
 16 37  1  0
 16 38  1  0
 18 39  1  0
 18 40  1  0
 19 41  1  0
 19 42  1  0
 20 43  1  0
 22 44  1  0
 23 45  1  0
 24 46  1  0
 26 47  1  0
 27 48  1  0
 28 49  1  0
 29 50  1  0
 30 51  1  0
M  CHG  1   3  -1
M  END
>  <UniqueID>  (53) 
49

>  <SMILES>  (53) 
O=C([N-]Cc1ccc(-c2nc(C(=O)N3CCOCC3)co2)cc1)Nc1ccccc1

>  <Energy>  (53) 
95.34734978032478

>  <Genealogy>  (53) 
O=C([N-]Cc1ccc(-c2nc(C(=O)N3CCOCC3)co2)cc1)Nc1ccccc1 (protonated)
O=C([N-]Cc1ccc(-c2nc(C(=O)N3CCOCC3)co2)cc1)Nc1ccccc1 (3D coordinates assigned)
O=C([N-]Cc1ccc(-c2nc(C(=O)N3CCOCC3)co2)cc1)Nc1ccccc1 (nonaromatic ring conformer: 95.34734978032478 kcal/mol)

>  <smiles>  (53) 
O=C(NCc1ccc(-c2nc(C(=O)N3CCOCC3)co2)cc1)Nc1ccccc1

>  <score_type>  (53) 
oracle

>  <origin>  (53) 
adg

>  <m_score__min__energy>  (53) 
-10.25

>  <m_primary>  (53) 
energy

$$$$
53:0
     RDKit          3D

 30 31  0  0  0  0  0  0  0  0999 V2000
   59.6050   28.3440   45.1970 C   0  0  0  0  0  0  0  0  0  0  0  0
   58.2400   27.8480   45.0080 N   0  0  0  0  0  0  0  0  0  0  0  0
   57.9950   26.5430   44.3870 C   0  0  0  0  0  0  0  0  0  0  0  0
   57.1320   28.6530   45.4430 C   0  0  0  0  0  0  0  0  0  0  0  0
   55.9500   28.2490   45.2630 O   0  0  0  0  0  0  0  0  0  0  0  0
   57.3720   29.9100   46.0160 O   0  0  0  0  0  0  0  0  0  0  0  0
   57.7750   31.0590   45.3170 C   0  0  0  0  0  0  0  0  0  0  0  0
   57.6630   31.1560   43.9180 C   0  0  0  0  0  0  0  0  0  0  0  0
   58.0640   32.3220   43.2380 C   0  0  0  0  0  0  0  0  0  0  0  0
   57.9490   32.4120   41.8050 N   0  0  0  0  0  0  0  0  0  0  0  0
   56.9870   31.8850   41.2090 O   0  0  0  0  0  0  0  0  0  0  0  0
   58.9010   33.0770   41.0670 O   0  0  0  0  0  0  0  0  0  0  0  0
   58.5740   33.4040   43.9770 C   0  0  0  0  0  0  0  0  0  0  0  0
   58.6710   33.3270   45.3720 C   0  0  0  0  0  0  0  0  0  0  0  0
   59.1640   34.4030   46.1230 C   0  0  0  0  0  0  0  0  0  0  0  0
   59.2480   34.3000   47.5120 C   0  0  0  0  0  0  0  0  0  0  0  0
   58.8360   33.1220   48.1390 C   0  0  0  0  0  0  0  0  0  0  0  0
   58.3610   32.0860   47.4010 N   0  0  0  0  0  0  0  0  0  0  0  0
   58.2660   32.1540   46.0440 C   0  0  0  0  0  0  0  0  0  0  0  0
   59.8209   28.4225   46.2727 H   0  0  0  0  0  0  0  0  0  0  0  0
   60.3164   27.6469   44.7301 H   0  0  0  0  0  0  0  0  0  0  0  0
   59.7029   29.3352   44.7301 H   0  0  0  0  0  0  0  0  0  0  0  0
   57.8526   25.7848   45.1711 H   0  0  0  0  0  0  0  0  0  0  0  0
   57.0915   26.5982   43.7620 H   0  0  0  0  0  0  0  0  0  0  0  0
   58.8570   26.2667   43.7620 H   0  0  0  0  0  0  0  0  0  0  0  0
   57.2562   30.3085   43.3469 H   0  0  0  0  0  0  0  0  0  0  0  0
   58.8989   34.3168   43.4561 H   0  0  0  0  0  0  0  0  0  0  0  0
   59.4840   35.3266   45.6184 H   0  0  0  0  0  0  0  0  0  0  0  0
   59.6354   35.1394   48.1081 H   0  0  0  0  0  0  0  0  0  0  0  0
   58.8965   33.0333   49.2337 H   0  0  0  0  0  0  0  0  0  0  0  0
  1  2  1  0
  2  3  1  0
  2  4  1  0
  4  5  2  0
  4  6  1  0
  6  7  1  0
  7  8  2  0
  8  9  1  0
  9 10  1  0
 10 11  2  0
 10 12  1  0
  9 13  2  0
 13 14  1  0
 14 15  2  0
 15 16  1  0
 16 17  2  0
 17 18  1  0
 18 19  2  0
 19  7  1  0
 19 14  1  0
  1 20  1  0
  1 21  1  0
  1 22  1  0
  3 23  1  0
  3 24  1  0
  3 25  1  0
  8 26  1  0
 13 27  1  0
 15 28  1  0
 16 29  1  0
 17 30  1  0
M  CHG  2  10   1  12  -1
M  END
>  <UniqueID>  (54) 
50

>  <SMILES>  (54) 
CN(C)C(=O)Oc1cc([N+](=O)[O-])cc2cccnc12

>  <Energy>  (54) 
36.02719562670541

>  <Genealogy>  (54) 
CN(C)C(=O)Oc1cc([N+](=O)[O-])cc2cccnc12 (3D coordinates assigned)
CN(C)C(=O)Oc1cc([N+](=O)[O-])cc2cccnc12 (optimized conformer: 36.02719562670541 kcal/mol)

>  <smiles>  (54) 
CN(C)C(=O)Oc1cc([N+](=O)[O-])cc2cccnc12

>  <score_type>  (54) 
oracle

>  <origin>  (54) 
adg

>  <m_score__min__energy>  (54) 
-6.54

>  <m_primary>  (54) 
energy

$$$$
54:0
     RDKit          3D

 46 49  0  0  0  0  0  0  0  0999 V2000
   61.6947   32.8897   52.0222 H   0  0  0  0  0  0  0  0  0  0  0  0
   61.2520   32.3140   51.1960 C   0  0  0  0  0  0  0  0  0  0  0  0
   59.9610   32.2660   51.0590 N   0  0  0  0  0  0  0  0  0  0  0  0
   59.1440   33.3750   50.8980 O   0  0  0  0  0  0  0  0  0  0  0  0
   58.5790   34.1040   51.9850 C   0  0  0  0  0  0  0  0  0  0  0  0
   58.9181   33.6665   52.9356 H   0  0  0  0  0  0  0  0  0  0  0  0
   58.9014   35.1542   51.9291 H   0  0  0  0  0  0  0  0  0  0  0  0
   57.4816   34.0538   51.9291 H   0  0  0  0  0  0  0  0  0  0  0  0
   62.1380   31.5890   50.2340 C   0  0  0  0  0  0  0  0  0  0  0  0
   63.0918   31.3601   50.7319 H   0  0  0  0  0  0  0  0  0  0  0  0
   61.6227   30.6684   49.9228 H   0  0  0  0  0  0  0  0  0  0  0  0
   62.4180   32.4130   48.9940 C   0  0  0  0  0  0  0  0  0  0  0  0
   63.7590   32.6190   48.6200 C   0  0  0  0  0  0  0  0  0  0  0  0
   64.5657   32.2007   49.2399 H   0  0  0  0  0  0  0  0  0  0  0  0
   64.0790   33.3470   47.4730 C   0  0  0  0  0  0  0  0  0  0  0  0
   65.1323   33.4977   47.1941 H   0  0  0  0  0  0  0  0  0  0  0  0
   63.0660   33.8830   46.6810 C   0  0  0  0  0  0  0  0  0  0  0  0
   63.3206   34.4508   45.7739 H   0  0  0  0  0  0  0  0  0  0  0  0
   61.7300   33.7010   47.0360 C   0  0  0  0  0  0  0  0  0  0  0  0
   60.9374   34.1310   46.4060 H   0  0  0  0  0  0  0  0  0  0  0  0
   61.3820   32.9730   48.1920 C   0  0  0  0  0  0  0  0  0  0  0  0
   59.9820   32.8690   48.5560 N   0  0  0  0  0  0  0  0  0  0  0  0
   59.7230   33.7020   49.1260 H   0  0  0  0  0  0  0  0  0  0  0  0
   59.8480   32.0330   49.1720 H   0  0  0  0  0  0  0  0  0  0  0  0
   59.0670   32.7450   47.4270 C   0  0  0  0  0  0  0  0  0  0  0  0
   58.2510   33.8170   47.0000 C   0  0  0  0  0  0  0  0  0  0  0  0
   58.2963   34.7852   47.5201 H   0  0  0  0  0  0  0  0  0  0  0  0
   57.3890   33.6450   45.9190 C   0  0  0  0  0  0  0  0  0  0  0  0
   56.6490   34.5940   45.5480 O   0  0  0  0  0  0  0  0  0  0  0  0
   57.3380   32.4890   45.2760 O   0  0  0  0  0  0  0  0  0  0  0  0
   58.0910   31.4430   45.6020 C   0  0  0  0  0  0  0  0  0  0  0  0
   59.0030   31.5340   46.6870 C   0  0  0  0  0  0  0  0  0  0  0  0
   59.8180   30.4250   46.9870 C   0  0  0  0  0  0  0  0  0  0  0  0
   60.5457   30.4918   47.8092 H   0  0  0  0  0  0  0  0  0  0  0  0
   59.7130   29.2420   46.2530 C   0  0  0  0  0  0  0  0  0  0  0  0
   60.3532   28.3840   46.5058 H   0  0  0  0  0  0  0  0  0  0  0  0
   58.8000   29.1400   45.1990 C   0  0  0  0  0  0  0  0  0  0  0  0
   58.6960   27.9460   44.4670 C   0  0  0  0  0  0  0  0  0  0  0  0
   59.3326   27.0870   44.7255 H   0  0  0  0  0  0  0  0  0  0  0  0
   57.7860   27.8460   43.4110 C   0  0  0  0  0  0  0  0  0  0  0  0
   57.7069   26.9081   42.8417 H   0  0  0  0  0  0  0  0  0  0  0  0
   56.9770   28.9340   43.0770 C   0  0  0  0  0  0  0  0  0  0  0  0
   56.2632   28.8509   42.2442 H   0  0  0  0  0  0  0  0  0  0  0  0
   57.0710   30.1280   43.7970 C   0  0  0  0  0  0  0  0  0  0  0  0
   56.4300   30.9806   43.5283 H   0  0  0  0  0  0  0  0  0  0  0  0
   57.9820   30.2460   44.8650 C   0  0  0  0  0  0  0  0  0  0  0  0
  1  2  1  0
  2  3  2  0
  3  4  1  0
  4  5  1  0
  5  6  1  0
  5  7  1  0
  5  8  1  0
  2  9  1  0
  9 10  1  0
  9 11  1  0
  9 12  1  0
 12 13  2  0
 13 14  1  0
 13 15  1  0
 15 16  1  0
 15 17  2  0
 17 18  1  0
 17 19  1  0
 19 20  1  0
 19 21  2  0
 21 22  1  0
 22 23  1  0
 22 24  1  0
 22 25  1  0
 25 26  2  0
 26 27  1  0
 26 28  1  0
 28 29  2  0
 28 30  1  0
 30 31  1  0
 31 32  2  0
 32 33  1  0
 33 34  1  0
 33 35  2  0
 35 36  1  0
 35 37  1  0
 37 38  2  0
 38 39  1  0
 38 40  1  0
 40 41  1  0
 40 42  2  0
 42 43  1  0
 42 44  1  0
 44 45  1  0
 44 46  2  0
 21 12  1  0
 32 25  1  0
 46 37  1  0
 46 31  1  0
M  CHG  1  22   1
M  END
>  <UniqueID>  (55) 
51

>  <SMILES>  (55) 
CO/N=C/Cc1ccccc1[NH2+]c1cc(=O)oc2c1ccc1ccccc12

>  <Energy>  (55) 
64.99755115114341

>  <Genealogy>  (55) 
CON=CCc1ccccc1[NH2+]c1cc(=O)oc2c1ccc1ccccc12 (protonated)
CO/N=C/Cc1ccccc1[NH2+]c1cc(=O)oc2c1ccc1ccccc12 (cis-trans isomerization)
CO/N=C/Cc1ccccc1[NH2+]c1cc(=O)oc2c1ccc1ccccc12 (3D coordinates assigned)
CO/N=C/Cc1ccccc1[NH2+]c1cc(=O)oc2c1ccc1ccccc12 (optimized conformer: 64.99755115114341 kcal/mol)

>  <smiles>  (55) 
CON=CCc1ccccc1Nc1cc(=O)oc2c1ccc1ccccc12

>  <score_type>  (55) 
oracle

>  <origin>  (55) 
adg

>  <m_score__min__energy>  (55) 
-6.1500000000000004

>  <m_primary>  (55) 
energy

$$$$
55:0
     RDKit          3D

 55 56  0  0  0  0  0  0  0  0999 V2000
   56.7520   23.1080   43.6080 C   0  0  0  0  0  0  0  0  0  0  0  0
   56.2350   24.4490   44.1200 C   0  0  0  0  0  0  0  0  0  0  0  0
   57.2290   25.0820   45.0100 N   0  0  0  0  0  0  0  0  0  0  0  0
   58.3770   24.2220   45.3800 C   0  0  0  0  0  0  0  0  0  0  0  0
   59.5710   24.9630   46.0080 C   0  0  0  0  0  0  0  0  0  0  0  0
   56.5090   25.8710   46.4030 S   0  0  0  0  0  0  0  0  0  0  0  0
   55.1390   26.3620   46.0230 O   0  0  0  0  0  0  0  0  0  0  0  0
   56.3600   24.8820   47.5240 O   0  0  0  0  0  0  0  0  0  0  0  0
   57.4750   27.2640   46.9890 C   0  0  0  0  0  0  0  0  0  0  0  0
   58.1130   28.0380   45.8360 C   0  0  0  0  0  0  0  0  0  0  0  0
   57.1520   28.2220   44.7560 N   0  0  0  0  0  0  0  0  0  0  0  0
   56.4000   29.4270   44.5810 C   0  0  0  0  0  0  0  0  0  0  0  0
   55.1410   29.3920   44.6430 O   0  0  0  0  0  0  0  0  0  0  0  0
   57.0970   30.7100   44.3310 C   0  0  0  0  0  0  0  0  0  0  0  0
   57.2160   31.2170   43.0240 C   0  0  0  0  0  0  0  0  0  0  0  0
   57.8800   32.4230   42.7910 C   0  0  0  0  0  0  0  0  0  0  0  0
   58.4360   33.1360   43.8540 C   0  0  0  0  0  0  0  0  0  0  0  0
   58.3280   32.6470   45.1600 C   0  0  0  0  0  0  0  0  0  0  0  0
   59.0620   33.5440   46.4860 S   0  0  0  0  0  0  0  0  0  0  0  0
   58.8580   32.8350   47.7950 O   0  0  0  0  0  0  0  0  0  0  0  0
   58.4230   34.9010   46.5660 O   0  0  0  0  0  0  0  0  0  0  0  0
   60.7610   33.7300   46.1990 N   0  0  0  0  0  0  0  0  0  0  0  0
   61.7830   33.6370   47.2010 C   0  0  0  0  0  0  0  0  0  0  0  0
   61.4870   34.0620   48.5010 C   0  0  0  0  0  0  0  0  0  0  0  0
   62.4530   33.9860   49.5090 C   0  0  0  0  0  0  0  0  0  0  0  0
   63.7280   33.4770   49.2300 C   0  0  0  0  0  0  0  0  0  0  0  0
   64.7790   33.4380   50.2990 C   0  0  0  0  0  0  0  0  0  0  0  0
   64.0320   33.0620   47.9250 C   0  0  0  0  0  0  0  0  0  0  0  0
   63.0650   33.1320   46.9180 C   0  0  0  0  0  0  0  0  0  0  0  0
   57.6560   31.4400   45.3970 C   0  0  0  0  0  0  0  0  0  0  0  0
   57.0014   22.4610   44.4619 H   0  0  0  0  0  0  0  0  0  0  0  0
   55.9756   22.6250   42.9965 H   0  0  0  0  0  0  0  0  0  0  0  0
   57.6517   23.2712   42.9965 H   0  0  0  0  0  0  0  0  0  0  0  0
   56.0410   25.1125   43.2644 H   0  0  0  0  0  0  0  0  0  0  0  0
   55.3077   24.2793   44.6868 H   0  0  0  0  0  0  0  0  0  0  0  0
   58.0225   23.4725   46.1028 H   0  0  0  0  0  0  0  0  0  0  0  0
   58.7471   23.7839   44.4414 H   0  0  0  0  0  0  0  0  0  0  0  0
   59.4959   24.9164   47.1044 H   0  0  0  0  0  0  0  0  0  0  0  0
   60.5088   24.4880   45.6842 H   0  0  0  0  0  0  0  0  0  0  0  0
   59.5616   26.0142   45.6842 H   0  0  0  0  0  0  0  0  0  0  0  0
   56.8166   27.9421   47.5517 H   0  0  0  0  0  0  0  0  0  0  0  0
   58.2820   26.8757   47.6277 H   0  0  0  0  0  0  0  0  0  0  0  0
   58.4435   29.0224   46.1990 H   0  0  0  0  0  0  0  0  0  0  0  0
   58.9733   27.4677   45.4556 H   0  0  0  0  0  0  0  0  0  0  0  0
   56.7831   30.6597   42.1802 H   0  0  0  0  0  0  0  0  0  0  0  0
   57.9652   32.8125   41.7658 H   0  0  0  0  0  0  0  0  0  0  0  0
   58.9602   34.0843   43.6645 H   0  0  0  0  0  0  0  0  0  0  0  0
   60.4872   34.4587   48.7315 H   0  0  0  0  0  0  0  0  0  0  0  0
   62.2106   34.3276   50.5261 H   0  0  0  0  0  0  0  0  0  0  0  0
   64.2972   33.4559   51.2877 H   0  0  0  0  0  0  0  0  0  0  0  0
   65.3721   32.5172   50.1967 H   0  0  0  0  0  0  0  0  0  0  0  0
   65.4387   34.3123   50.1967 H   0  0  0  0  0  0  0  0  0  0  0  0
   65.0368   32.6794   47.6928 H   0  0  0  0  0  0  0  0  0  0  0  0
   63.3074   32.7910   45.9007 H   0  0  0  0  0  0  0  0  0  0  0  0
   57.5646   31.0598   46.4251 H   0  0  0  0  0  0  0  0  0  0  0  0
  1  2  1  0
  2  3  1  0
  3  4  1  0
  4  5  1  0
  3  6  1  0
  6  7  2  0
  6  8  2  0
  6  9  1  0
  9 10  1  0
 10 11  1  0
 11 12  1  0
 12 13  2  0
 12 14  1  0
 14 15  2  0
 15 16  1  0
 16 17  2  0
 17 18  1  0
 18 19  1  0
 19 20  2  0
 19 21  2  0
 19 22  1  0
 22 23  1  0
 23 24  2  0
 24 25  1  0
 25 26  2  0
 26 27  1  0
 26 28  1  0
 28 29  2  0
 18 30  2  0
 30 14  1  0
 29 23  1  0
  1 31  1  0
  1 32  1  0
  1 33  1  0
  2 34  1  0
  2 35  1  0
  4 36  1  0
  4 37  1  0
  5 38  1  0
  5 39  1  0
  5 40  1  0
  9 41  1  0
  9 42  1  0
 10 43  1  0
 10 44  1  0
 15 45  1  0
 16 46  1  0
 17 47  1  0
 24 48  1  0
 25 49  1  0
 27 50  1  0
 27 51  1  0
 27 52  1  0
 28 53  1  0
 29 54  1  0
 30 55  1  0
M  CHG  2  11  -1  22  -1
M  END
>  <UniqueID>  (56) 
52

>  <SMILES>  (56) 
CCN(CC)S(=O)(=O)CC[N-]C(=O)c1cccc(S(=O)(=O)[N-]c2ccc(C)cc2)c1

>  <Energy>  (56) 
52.37001095306268

>  <Genealogy>  (56) 
CCN(CC)S(=O)(=O)CC[N-]C(=O)c1cccc(S(=O)(=O)[N-]c2ccc(C)cc2)c1 (protonated)
CCN(CC)S(=O)(=O)CC[N-]C(=O)c1cccc(S(=O)(=O)[N-]c2ccc(C)cc2)c1 (3D coordinates assigned)
CCN(CC)S(=O)(=O)CC[N-]C(=O)c1cccc(S(=O)(=O)[N-]c2ccc(C)cc2)c1 (optimized conformer: 52.37001095306268 kcal/mol)

>  <smiles>  (56) 
CCN(CC)S(=O)(=O)CCNC(=O)c1cccc(S(=O)(=O)Nc2ccc(C)cc2)c1

>  <score_type>  (56) 
oracle

>  <origin>  (56) 
adg

>  <m_score__min__energy>  (56) 
-12.33

>  <m_primary>  (56) 
energy

$$$$
56:0
     RDKit          3D

 41 43  0  0  0  0  0  0  0  0999 V2000
   55.1440   29.3650   44.8810 N   0  0  0  0  0  0  0  0  0  0  0  0
   56.7630   29.7490   44.4100 S   0  0  0  0  0  0  0  0  0  0  0  0
   56.9570   29.3110   42.9850 O   0  0  0  0  0  0  0  0  0  0  0  0
   56.9750   31.2330   44.5010 O   0  0  0  0  0  0  0  0  0  0  0  0
   57.9190   28.9170   45.4560 C   0  0  0  0  0  0  0  0  0  0  0  0
   59.1050   29.5720   45.8260 C   0  0  0  0  0  0  0  0  0  0  0  0
   60.0580   28.9200   46.6120 C   0  0  0  0  0  0  0  0  0  0  0  0
   59.8380   27.6070   47.0330 C   0  0  0  0  0  0  0  0  0  0  0  0
   58.6590   26.9480   46.6790 C   0  0  0  0  0  0  0  0  0  0  0  0
   57.6890   27.5980   45.9070 C   0  0  0  0  0  0  0  0  0  0  0  0
   56.5100   26.9150   45.5960 O   0  0  0  0  0  0  0  0  0  0  0  0
   56.3760   25.5200   45.6450 C   0  0  0  0  0  0  0  0  0  0  0  0
   56.5460   24.7910   44.4650 C   0  0  0  0  0  0  0  0  0  0  0  0
   56.4140   23.4000   44.4670 C   0  0  0  0  0  0  0  0  0  0  0  0
   56.6150   22.4990   42.9750 Cl  0  0  0  0  0  0  0  0  0  0  0  0
   56.1150   22.7260   45.6550 C   0  0  0  0  0  0  0  0  0  0  0  0
   55.9500   23.4380   46.8570 C   0  0  0  0  0  0  0  0  0  0  0  0
   55.6340   22.7450   48.0850 N   0  0  0  0  0  0  0  0  0  0  0  0
   56.6110   21.8450   48.7120 C   0  0  0  0  0  0  0  0  0  0  0  0
   56.3930   21.8080   50.2310 C   0  0  0  0  0  0  0  0  0  0  0  0
   55.0130   21.4510   50.6190 N   0  0  0  0  0  0  0  0  0  0  0  0
   53.9950   21.6730   49.5780 C   0  0  0  0  0  0  0  0  0  0  0  0
   54.3100   22.8920   48.7040 C   0  0  0  0  0  0  0  0  0  0  0  0
   56.0890   24.8380   46.8430 C   0  0  0  0  0  0  0  0  0  0  0  0
   55.2080   28.6440   45.6330 H   0  0  0  0  0  0  0  0  0  0  0  0
   59.2846   30.6054   45.4946 H   0  0  0  0  0  0  0  0  0  0  0  0
   60.9828   29.4415   46.8996 H   0  0  0  0  0  0  0  0  0  0  0  0
   60.5938   27.0916   47.6438 H   0  0  0  0  0  0  0  0  0  0  0  0
   58.4915   25.9120   47.0087 H   0  0  0  0  0  0  0  0  0  0  0  0
   56.7853   25.3157   43.5283 H   0  0  0  0  0  0  0  0  0  0  0  0
   56.0080   21.6312   45.6497 H   0  0  0  0  0  0  0  0  0  0  0  0
   56.4883   20.8318   48.3018 H   0  0  0  0  0  0  0  0  0  0  0  0
   57.6264   22.2125   48.5022 H   0  0  0  0  0  0  0  0  0  0  0  0
   57.0796   21.0653   50.6634 H   0  0  0  0  0  0  0  0  0  0  0  0
   56.5839   22.8227   50.6104 H   0  0  0  0  0  0  0  0  0  0  0  0
   54.9900   20.4370   50.8800 H   0  0  0  0  0  0  0  0  0  0  0  0
   53.9458   20.7811   48.9360 H   0  0  0  0  0  0  0  0  0  0  0  0
   53.0352   21.8602   50.0817 H   0  0  0  0  0  0  0  0  0  0  0  0
   53.5482   22.9801   47.9154 H   0  0  0  0  0  0  0  0  0  0  0  0
   54.3064   23.7945   49.3328 H   0  0  0  0  0  0  0  0  0  0  0  0
   55.9722   25.4058   47.7779 H   0  0  0  0  0  0  0  0  0  0  0  0
  1  2  1  0
  2  3  2  0
  2  4  2  0
  2  5  1  0
  5  6  2  0
  6  7  1  0
  7  8  2  0
  8  9  1  0
  9 10  2  0
 10 11  1  0
 11 12  1  0
 12 13  2  0
 13 14  1  0
 14 15  1  0
 14 16  2  0
 16 17  1  0
 17 18  1  0
 18 19  1  0
 19 20  1  0
 20 21  1  0
 21 22  1  0
 22 23  1  0
 17 24  2  0
 10  5  1  0
 24 12  1  0
 23 18  1  0
  1 25  1  0
  6 26  1  0
  7 27  1  0
  8 28  1  0
  9 29  1  0
 13 30  1  0
 16 31  1  0
 19 32  1  0
 19 33  1  0
 20 34  1  0
 20 35  1  0
 21 36  1  0
 22 37  1  0
 22 38  1  0
 23 39  1  0
 23 40  1  0
 24 41  1  0
M  CHG  1   1  -1
M  END
>  <UniqueID>  (57) 
53

>  <SMILES>  (57) 
[NH-]S(=O)(=O)c1ccccc1Oc1cc(Cl)cc(N2CCNCC2)c1

>  <Energy>  (57) 
57.91917974584672

>  <Genealogy>  (57) 
[NH-]S(=O)(=O)c1ccccc1Oc1cc(Cl)cc(N2CCNCC2)c1 (protonated)
[NH-]S(=O)(=O)c1ccccc1Oc1cc(Cl)cc(N2CCNCC2)c1 (3D coordinates assigned)
[NH-]S(=O)(=O)c1ccccc1Oc1cc(Cl)cc(N2CCNCC2)c1 (nonaromatic ring conformer: 57.91917974584672 kcal/mol)

>  <smiles>  (57) 
NS(=O)(=O)c1ccccc1Oc1cc(Cl)cc(N2CCNCC2)c1

>  <score_type>  (57) 
oracle

>  <origin>  (57) 
adg

>  <m_score__min__energy>  (57) 
-11.25

>  <m_primary>  (57) 
energy

$$$$
57:0
     RDKit          3D

 26 27  0  0  0  0  0  0  0  0999 V2000
   58.4780   34.4020   45.2360 C   0  0  0  0  0  0  0  0  0  0  0  0
   57.7980   33.4150   46.6040 S   0  0  0  0  0  0  0  0  0  0  0  0
   57.7790   31.9020   45.6510 C   0  0  0  0  0  0  0  0  0  0  0  0
   57.2480   31.8940   44.4030 N   0  0  0  0  0  0  0  0  0  0  0  0
   57.2110   30.7570   43.6630 C   0  0  0  0  0  0  0  0  0  0  0  0
   56.7140   30.7980   42.5060 O   0  0  0  0  0  0  0  0  0  0  0  0
   57.7200   29.5540   44.1900 C   0  0  0  0  0  0  0  0  0  0  0  0
   57.6900   28.2780   43.3830 C   0  0  0  0  0  0  0  0  0  0  0  0
   58.2900   29.5940   45.4840 C   0  0  0  0  0  0  0  0  0  0  0  0
   58.8540   28.3710   46.1610 C   0  0  0  0  0  0  0  0  0  0  0  0
   57.8170   27.2970   46.2500 C   0  0  0  0  0  0  0  0  0  0  0  0
   56.5030   27.5030   46.0090 N   0  0  0  0  0  0  0  0  0  0  0  0
   55.7790   26.3660   46.1880 C   0  0  0  0  0  0  0  0  0  0  0  0
   54.4050   26.3380   45.9920 O   0  0  0  0  0  0  0  0  0  0  0  0
   56.5020   25.2460   46.5810 C   0  0  0  0  0  0  0  0  0  0  0  0
   58.1150   25.7050   46.7090 S   0  0  0  0  0  0  0  0  0  0  0  0
   58.2920   30.7630   46.1770 N   0  0  0  0  0  0  0  0  0  0  0  0
   59.0576   35.2433   45.6437 H   0  0  0  0  0  0  0  0  0  0  0  0
   59.1334   33.7702   44.6185 H   0  0  0  0  0  0  0  0  0  0  0  0
   57.6542   34.7894   44.6185 H   0  0  0  0  0  0  0  0  0  0  0  0
   57.6697   27.4141   44.0636 H   0  0  0  0  0  0  0  0  0  0  0  0
   56.7913   28.2663   42.7488 H   0  0  0  0  0  0  0  0  0  0  0  0
   58.5871   28.2241   42.7488 H   0  0  0  0  0  0  0  0  0  0  0  0
   59.7115   27.9992   45.5810 H   0  0  0  0  0  0  0  0  0  0  0  0
   59.1734   28.6425   47.1780 H   0  0  0  0  0  0  0  0  0  0  0  0
   56.0939   24.2427   46.7732 H   0  0  0  0  0  0  0  0  0  0  0  0
  1  2  1  0
  2  3  1  0
  3  4  2  0
  4  5  1  0
  5  6  2  0
  5  7  1  0
  7  8  1  0
  7  9  2  0
  9 10  1  0
 10 11  1  0
 11 12  2  0
 12 13  1  0
 13 14  1  0
 13 15  2  0
 15 16  1  0
  9 17  1  0
 17  3  1  0
 16 11  1  0
  1 18  1  0
  1 19  1  0
  1 20  1  0
  8 21  1  0
  8 22  1  0
  8 23  1  0
 10 24  1  0
 10 25  1  0
 15 26  1  0
M  CHG  2  14  -1  17  -1
M  END
>  <UniqueID>  (58) 
54

>  <SMILES>  (58) 
CSc1nc(=O)c(C)c(Cc2nc([O-])cs2)[n-]1

>  <Energy>  (58) 
52.567547258872686

>  <Genealogy>  (58) 
CSc1nc(=O)c(C)c(Cc2nc([O-])cs2)[n-]1 (protonated)
CSc1nc(=O)c(C)c(Cc2nc([O-])cs2)[n-]1 (3D coordinates assigned)
CSc1nc(=O)c(C)c(Cc2nc([O-])cs2)[n-]1 (optimized conformer: 52.567547258872686 kcal/mol)

>  <smiles>  (58) 
CSc1nc(=O)c(C)c(Cc2nc(O)cs2)[nH]1

>  <score_type>  (58) 
oracle

>  <origin>  (58) 
adg

>  <m_score__min__energy>  (58) 
-11.210000000000001

>  <m_primary>  (58) 
energy

$$$$
58:0
     RDKit          3D

 26 27  0  0  0  0  0  0  0  0999 V2000
   57.4030   32.3740   45.2510 C   0  0  0  0  0  0  0  0  0  0  0  0
   58.2590   31.2600   44.0940 S   0  0  0  0  0  0  0  0  0  0  0  0
   57.5410   29.7750   44.8050 C   0  0  0  0  0  0  0  0  0  0  0  0
   56.2350   29.3290   44.6140 C   0  0  0  0  0  0  0  0  0  0  0  0
   55.2040   29.9860   43.7530 C   0  0  0  0  0  0  0  0  0  0  0  0
   56.0330   28.1580   45.2560 N   0  0  0  0  0  0  0  0  0  0  0  0
   57.1940   27.8690   45.8700 C   0  0  0  0  0  0  0  0  0  0  0  0
   57.4580   26.7510   46.6570 C   0  0  0  0  0  0  0  0  0  0  0  0
   58.7390   26.6250   47.2140 C   0  0  0  0  0  0  0  0  0  0  0  0
   59.7210   27.6090   46.9810 C   0  0  0  0  0  0  0  0  0  0  0  0
   59.4380   28.7390   46.1820 C   0  0  0  0  0  0  0  0  0  0  0  0
   60.4900   29.7880   45.9580 C   0  0  0  0  0  0  0  0  0  0  0  0
   58.1470   28.8340   45.6280 C   0  0  0  0  0  0  0  0  0  0  0  0
   57.6323   32.0756   46.2846 H   0  0  0  0  0  0  0  0  0  0  0  0
   57.7419   33.4071   45.0838 H   0  0  0  0  0  0  0  0  0  0  0  0
   56.3175   32.3126   45.0838 H   0  0  0  0  0  0  0  0  0  0  0  0
   54.4476   30.4680   44.3898 H   0  0  0  0  0  0  0  0  0  0  0  0
   55.6856   30.7441   43.1179 H   0  0  0  0  0  0  0  0  0  0  0  0
   54.7203   29.2292   43.1179 H   0  0  0  0  0  0  0  0  0  0  0  0
   55.1570   27.5890   45.2670 H   0  0  0  0  0  0  0  0  0  0  0  0
   56.6849   25.9893   46.8365 H   0  0  0  0  0  0  0  0  0  0  0  0
   58.9793   25.7513   47.8377 H   0  0  0  0  0  0  0  0  0  0  0  0
   60.7201   27.4955   47.4269 H   0  0  0  0  0  0  0  0  0  0  0  0
   60.8562   30.1532   46.9288 H   0  0  0  0  0  0  0  0  0  0  0  0
   61.3262   29.3534   45.3906 H   0  0  0  0  0  0  0  0  0  0  0  0
   60.0578   30.6254   45.3906 H   0  0  0  0  0  0  0  0  0  0  0  0
  1  2  1  0
  2  3  1  0
  3  4  2  0
  4  5  1  0
  4  6  1  0
  6  7  1  0
  7  8  2  0
  8  9  1  0
  9 10  2  0
 10 11  1  0
 11 12  1  0
 11 13  2  0
 13  3  1  0
 13  7  1  0
  1 14  1  0
  1 15  1  0
  1 16  1  0
  5 17  1  0
  5 18  1  0
  5 19  1  0
  6 20  1  0
  8 21  1  0
  9 22  1  0
 10 23  1  0
 12 24  1  0
 12 25  1  0
 12 26  1  0
M  END
>  <UniqueID>  (59) 
55

>  <SMILES>  (59) 
CSc1c(C)[nH]c2cccc(C)c12

>  <Energy>  (59) 
54.334819598597875

>  <Genealogy>  (59) 
CSc1c(C)[nH]c2cccc(C)c12 (3D coordinates assigned)
CSc1c(C)[nH]c2cccc(C)c12 (optimized conformer: 54.334819598597875 kcal/mol)

>  <smiles>  (59) 
CSc1c(C)[nH]c2cccc(C)c12

>  <score_type>  (59) 
oracle

>  <origin>  (59) 
adg

>  <m_score__min__energy>  (59) 
-5.5199999999999996

>  <m_primary>  (59) 
energy

$$$$
59:0
     RDKit          3D

 28 30  0  0  0  0  0  0  0  0999 V2000
   59.6310   35.8160   45.9610 F   0  0  0  0  0  0  0  0  0  0  0  0
   59.1240   34.5660   45.7810 C   0  0  0  0  0  0  0  0  0  0  0  0
   58.0840   34.3820   44.8950 C   0  0  0  0  0  0  0  0  0  0  0  0
   57.5560   33.1130   44.6990 C   0  0  0  0  0  0  0  0  0  0  0  0
   58.0920   32.0390   45.4120 C   0  0  0  0  0  0  0  0  0  0  0  0
   57.5830   30.6810   45.2540 C   0  0  0  0  0  0  0  0  0  0  0  0
   56.4920   30.3520   44.5210 N   0  0  0  0  0  0  0  0  0  0  0  0
   56.3070   29.0420   44.5900 N   0  0  0  0  0  0  0  0  0  0  0  0
   57.2570   28.4930   45.3560 C   0  0  0  0  0  0  0  0  0  0  0  0
   57.5160   27.1250   45.7520 C   0  0  0  0  0  0  0  0  0  0  0  0
   56.4350   26.2720   46.0070 C   0  0  0  0  0  0  0  0  0  0  0  0
   55.1450   26.7290   45.8820 F   0  0  0  0  0  0  0  0  0  0  0  0
   56.6100   24.9620   46.3870 C   0  0  0  0  0  0  0  0  0  0  0  0
   57.8630   24.4100   46.5400 C   0  0  0  0  0  0  0  0  0  0  0  0
   58.9400   25.2330   46.2940 C   0  0  0  0  0  0  0  0  0  0  0  0
   58.7590   26.5670   45.9070 C   0  0  0  0  0  0  0  0  0  0  0  0
   60.2160   27.4850   45.6310 Cl  0  0  0  0  0  0  0  0  0  0  0  0
   58.0290   29.5250   45.7510 N   0  0  0  0  0  0  0  0  0  0  0  0
   59.1310   32.2290   46.2980 C   0  0  0  0  0  0  0  0  0  0  0  0
   59.6550   33.5060   46.4870 C   0  0  0  0  0  0  0  0  0  0  0  0
   57.6726   35.2403   44.3435 H   0  0  0  0  0  0  0  0  0  0  0  0
   56.7277   32.9561   43.9924 H   0  0  0  0  0  0  0  0  0  0  0  0
   55.5310   28.5660   44.1060 H   0  0  0  0  0  0  0  0  0  0  0  0
   55.7243   24.3371   46.5741 H   0  0  0  0  0  0  0  0  0  0  0  0
   57.9971   23.3615   46.8443 H   0  0  0  0  0  0  0  0  0  0  0  0
   59.9599   24.8357   46.4034 H   0  0  0  0  0  0  0  0  0  0  0  0
   59.5450   31.3749   46.8540 H   0  0  0  0  0  0  0  0  0  0  0  0
   60.4838   33.6676   47.1920 H   0  0  0  0  0  0  0  0  0  0  0  0
  1  2  1  0
  2  3  2  0
  3  4  1  0
  4  5  2  0
  5  6  1  0
  6  7  2  0
  7  8  1  0
  8  9  1  0
  9 10  1  0
 10 11  2  0
 11 12  1  0
 11 13  1  0
 13 14  2  0
 14 15  1  0
 15 16  2  0
 16 17  1  0
  9 18  2  0
  5 19  1  0
 19 20  2  0
 20  2  1  0
 18  6  1  0
 16 10  1  0
  3 21  1  0
  4 22  1  0
  8 23  1  0
 13 24  1  0
 14 25  1  0
 15 26  1  0
 19 27  1  0
 20 28  1  0
M  END
>  <smiles>  (60) 
Fc1ccc(-c2n[nH]c(-c3c(F)cccc3Cl)n2)cc1

>  <score_type>  (60) 
oracle

>  <origin>  (60) 
adg

>  <m_score__min__energy>  (60) 
-7.6699999999999999

>  <m_primary>  (60) 
energy

$$$$
60:0
     RDKit          3D

 23 24  0  0  0  0  0  0  0  0999 V2000
   55.9988   28.7990   43.1155 H   0  0  0  0  0  0  0  0  0  0  0  0
   56.2770   29.3450   44.0290 C   0  0  0  0  0  0  0  0  0  0  0  0
   55.9930   28.8370   45.1880 N   0  0  0  0  0  0  0  0  0  0  0  0
   56.6190   27.6890   45.7090 N   0  0  0  0  0  0  0  0  0  0  0  0
   57.9310   27.4080   45.8660 C   0  0  0  0  0  0  0  0  0  0  0  0
   59.0730   28.3280   45.5680 C   0  0  0  0  0  0  0  0  0  0  0  0
   59.5136   28.6830   46.5113 H   0  0  0  0  0  0  0  0  0  0  0  0
   59.8359   27.7892   44.9868 H   0  0  0  0  0  0  0  0  0  0  0  0
   58.7090   29.1881   44.9868 H   0  0  0  0  0  0  0  0  0  0  0  0
   58.1020   26.1340   46.2800 N   0  0  0  0  0  0  0  0  0  0  0  0
   56.8990   25.5800   46.3660 N   0  0  0  0  0  0  0  0  0  0  0  0
   56.0180   26.5270   46.0010 C   0  0  0  0  0  0  0  0  0  0  0  0
   54.7730   26.3410   45.9400 O   0  0  0  0  0  0  0  0  0  0  0  0
   56.9680   30.6450   43.9170 C   0  0  0  0  0  0  0  0  0  0  0  0
   57.2050   31.2530   42.6720 C   0  0  0  0  0  0  0  0  0  0  0  0
   56.8711   30.7579   41.7482 H   0  0  0  0  0  0  0  0  0  0  0  0
   57.8450   32.4500   42.6050 N   0  0  0  0  0  0  0  0  0  0  0  0
   58.2740   33.0960   43.7210 C   0  0  0  0  0  0  0  0  0  0  0  0
   58.7875   34.0648   43.6326 H   0  0  0  0  0  0  0  0  0  0  0  0
   58.0630   32.5300   44.9800 C   0  0  0  0  0  0  0  0  0  0  0  0
   58.4100   33.0470   45.8868 H   0  0  0  0  0  0  0  0  0  0  0  0
   57.4070   31.3010   45.0760 C   0  0  0  0  0  0  0  0  0  0  0  0
   57.2343   30.8466   46.0627 H   0  0  0  0  0  0  0  0  0  0  0  0
  1  2  1  0
  2  3  2  0
  3  4  1  0
  4  5  1  0
  5  6  1  0
  6  7  1  0
  6  8  1  0
  6  9  1  0
  5 10  2  0
 10 11  1  0
 11 12  1  0
 12 13  2  0
  2 14  1  0
 14 15  2  0
 15 16  1  0
 15 17  1  0
 17 18  2  0
 18 19  1  0
 18 20  1  0
 20 21  1  0
 20 22  2  0
 22 23  1  0
 12  4  1  0
 22 14  1  0
M  CHG  1  11  -1
M  END
>  <UniqueID>  (61) 
56

>  <SMILES>  (61) 
Cc1n[n-]c(=O)n1/N=C/c1cccnc1

>  <Energy>  (61) 
65.18699104301437

>  <Genealogy>  (61) 
Cc1n[n-]c(=O)n1N=Cc1cccnc1 (protonated)
Cc1n[n-]c(=O)n1/N=C/c1cccnc1 (cis-trans isomerization)
Cc1n[n-]c(=O)n1/N=C/c1cccnc1 (3D coordinates assigned)
Cc1n[n-]c(=O)n1/N=C/c1cccnc1 (optimized conformer: 65.18699104301437 kcal/mol)

>  <smiles>  (61) 
Cc1n[nH]c(=O)n1N=Cc1cccnc1

>  <score_type>  (61) 
oracle

>  <origin>  (61) 
adg

>  <m_score__min__energy>  (61) 
-7.4400000000000004

>  <m_primary>  (61) 
energy

$$$$
61:0
     RDKit          3D

 52 55  0  0  0  0  0  0  0  0999 V2000
   60.0090   35.0630   46.8200 C   0  0  0  0  0  0  0  0  0  0  0  0
   59.1430   33.9740   46.2520 C   0  0  0  0  0  0  0  0  0  0  0  0
   58.2600   34.2590   45.1980 C   0  0  0  0  0  0  0  0  0  0  0  0
   57.4070   33.2700   44.7010 C   0  0  0  0  0  0  0  0  0  0  0  0
   57.4380   31.9760   45.2370 C   0  0  0  0  0  0  0  0  0  0  0  0
   56.5760   30.9420   44.7460 N   0  0  0  0  0  0  0  0  0  0  0  0
   56.6380   29.5620   45.1270 C   0  0  0  0  0  0  0  0  0  0  0  0
   55.5710   28.8910   45.1360 O   0  0  0  0  0  0  0  0  0  0  0  0
   57.9230   28.8940   45.4520 C   0  0  0  0  0  0  0  0  0  0  0  0
   58.0510   28.1400   46.6330 C   0  0  0  0  0  0  0  0  0  0  0  0
   59.2520   27.4880   46.9310 C   0  0  0  0  0  0  0  0  0  0  0  0
   60.3360   27.5810   46.0550 C   0  0  0  0  0  0  0  0  0  0  0  0
   60.2190   28.3190   44.8760 C   0  0  0  0  0  0  0  0  0  0  0  0
   59.0160   28.9600   44.5670 C   0  0  0  0  0  0  0  0  0  0  0  0
   58.3300   31.6810   46.2710 C   0  0  0  0  0  0  0  0  0  0  0  0
   59.1470   32.6840   46.8220 C   0  0  0  0  0  0  0  0  0  0  0  0
   59.9620   32.4100   47.9750 N   0  0  0  0  0  0  0  0  0  0  0  0
   59.8340   31.2460   48.8050 C   0  0  0  0  0  0  0  0  0  0  0  0
   60.7150   30.3490   48.7380 O   0  0  0  0  0  0  0  0  0  0  0  0
   58.7030   31.0910   49.7470 C   0  0  0  0  0  0  0  0  0  0  0  0
   58.3640   29.8370   50.2700 C   0  0  0  0  0  0  0  0  0  0  0  0
   57.3970   29.7350   51.2160 N   0  0  0  0  0  0  0  0  0  0  0  0
   56.7250   30.8320   51.6610 C   0  0  0  0  0  0  0  0  0  0  0  0
   55.8630   30.7430   52.6310 N   0  0  0  0  0  0  0  0  0  0  0  0
   54.4620   30.4680   52.4690 C   0  0  0  0  0  0  0  0  0  0  0  0
   53.9160   29.2220   52.8160 C   0  0  0  0  0  0  0  0  0  0  0  0
   52.5490   28.9870   52.6590 C   0  0  0  0  0  0  0  0  0  0  0  0
   51.7170   29.9900   52.1520 C   0  0  0  0  0  0  0  0  0  0  0  0
   52.2510   31.2360   51.7830 C   0  0  0  0  0  0  0  0  0  0  0  0
   51.3670   32.3000   51.2600 C   0  0  0  0  0  0  0  0  0  0  0  0
   50.9100   33.1890   52.0280 O   0  0  0  0  0  0  0  0  0  0  0  0
   51.0210   32.3320   49.9130 O   0  0  0  0  0  0  0  0  0  0  0  0
   53.6320   31.4590   51.9300 C   0  0  0  0  0  0  0  0  0  0  0  0
   57.0110   32.0520   51.1350 N   0  0  0  0  0  0  0  0  0  0  0  0
   57.9680   32.2000   50.1820 C   0  0  0  0  0  0  0  0  0  0  0  0
   59.9763   35.0219   47.9187 H   0  0  0  0  0  0  0  0  0  0  0  0
   61.0452   34.9231   46.4785 H   0  0  0  0  0  0  0  0  0  0  0  0
   59.6393   36.0411   46.4785 H   0  0  0  0  0  0  0  0  0  0  0  0
   58.2396   35.2680   44.7604 H   0  0  0  0  0  0  0  0  0  0  0  0
   56.7083   33.5085   43.8855 H   0  0  0  0  0  0  0  0  0  0  0  0
   57.2008   28.0628   47.3266 H   0  0  0  0  0  0  0  0  0  0  0  0
   59.3430   26.9010   47.8568 H   0  0  0  0  0  0  0  0  0  0  0  0
   61.2817   27.0727   46.2942 H   0  0  0  0  0  0  0  0  0  0  0  0
   61.0747   28.3962   44.1891 H   0  0  0  0  0  0  0  0  0  0  0  0
   58.9225   29.5204   43.6251 H   0  0  0  0  0  0  0  0  0  0  0  0
   58.3938   30.6533   46.6581 H   0  0  0  0  0  0  0  0  0  0  0  0
   58.8820   28.9344   49.9137 H   0  0  0  0  0  0  0  0  0  0  0  0
   54.5670   28.4290   53.2126 H   0  0  0  0  0  0  0  0  0  0  0  0
   52.1251   28.0101   52.9349 H   0  0  0  0  0  0  0  0  0  0  0  0
   50.6387   29.8025   52.0415 H   0  0  0  0  0  0  0  0  0  0  0  0
   54.0644   32.4213   51.6185 H   0  0  0  0  0  0  0  0  0  0  0  0
   58.1655   33.1929   49.7516 H   0  0  0  0  0  0  0  0  0  0  0  0
  1  2  1  0
  2  3  2  0
  3  4  1  0
  4  5  2  0
  5  6  1  0
  6  7  1  0
  7  8  2  0
  7  9  1  0
  9 10  2  0
 10 11  1  0
 11 12  2  0
 12 13  1  0
 13 14  2  0
  5 15  1  0
 15 16  2  0
 16 17  1  0
 17 18  1  0
 18 19  2  0
 18 20  1  0
 20 21  1  0
 21 22  2  0
 22 23  1  0
 23 24  2  3
 24 25  1  0
 25 26  2  0
 26 27  1  0
 27 28  2  0
 28 29  1  0
 29 30  1  0
 30 31  2  0
 30 32  1  0
 29 33  2  0
 23 34  1  0
 34 35  1  0
 16  2  1  0
 35 20  2  0
 14  9  1  0
 33 25  1  0
  1 36  1  0
  1 37  1  0
  1 38  1  0
  3 39  1  0
  4 40  1  0
 10 41  1  0
 11 42  1  0
 12 43  1  0
 13 44  1  0
 14 45  1  0
 15 46  1  0
 21 47  1  0
 26 48  1  0
 27 49  1  0
 28 50  1  0
 33 51  1  0
 35 52  1  0
M  CHG  4   6  -1  17  -1  32  -1  34  -1
M  END
>  <UniqueID>  (62) 
57

>  <SMILES>  (62) 
Cc1ccc([N-]C(=O)c2ccccc2)cc1[N-]C(=O)c1cnc(=Nc2cccc(C(=O)[O-])c2)[n-]c1

>  <Energy>  (62) 
75.2987259004278

>  <Genealogy>  (62) 
Cc1ccc([N-]C(=O)c2ccccc2)cc1[N-]C(=O)c1cnc(=Nc2cccc(C(=O)[O-])c2)[n-]c1 (protonated)
Cc1ccc([N-]C(=O)c2ccccc2)cc1[N-]C(=O)c1cnc(=Nc2cccc(C(=O)[O-])c2)[n-]c1 (3D coordinates assigned)
Cc1ccc([N-]C(=O)c2ccccc2)cc1[N-]C(=O)c1cnc(=Nc2cccc(C(=O)[O-])c2)[n-]c1 (optimized conformer: 75.2987259004278 kcal/mol)

>  <smiles>  (62) 
Cc1ccc(NC(=O)c2ccccc2)cc1NC(=O)c1cnc(=Nc2cccc(C(=O)O)c2)[nH]c1

>  <score_type>  (62) 
oracle

>  <origin>  (62) 
adg

>  <m_score__min__energy>  (62) 
-18.68

>  <m_primary>  (62) 
energy

$$$$
62:0
     RDKit          3D

 59 62  0  0  0  0  0  0  0  0999 V2000
   59.5710   32.5550   50.3440 C   0  0  0  0  0  0  0  0  0  0  0  0
   60.2810   33.8370   49.9220 C   0  0  0  0  0  0  0  0  0  0  0  0
   61.3310   33.5910   48.8130 C   0  0  1  0  0  0  0  0  0  0  0  0
   61.8070   32.1270   48.7990 C   0  0  0  0  0  0  0  0  0  0  0  0
   62.7140   31.8090   47.5850 C   0  0  0  0  0  0  0  0  0  0  0  0
   63.1800   33.0680   46.8350 C   0  0  0  0  0  0  0  0  0  0  0  0
   61.9710   33.9130   46.3950 C   0  0  0  0  0  0  0  0  0  0  0  0
   60.9310   33.9850   47.4400 N   0  0  0  0  0  0  0  0  0  0  0  0
   59.5600   34.0800   46.9990 C   0  0  0  0  0  0  0  0  0  0  0  0
   58.6160   33.9890   47.8270 O   0  0  0  0  0  0  0  0  0  0  0  0
   59.2250   34.2230   45.5380 C   0  0  0  0  0  0  0  0  0  0  0  0
   57.7010   33.3060   45.1410 S   0  0  0  0  0  0  0  0  0  0  0  0
   58.4020   31.6950   45.4890 C   0  0  0  0  0  0  0  0  0  0  0  0
   58.7540   31.2740   46.7280 N   0  0  0  0  0  0  0  0  0  0  0  0
   59.2510   30.0100   46.7010 C   0  0  0  0  0  0  0  0  0  0  0  0
   59.6840   29.2980   47.8190 C   0  0  0  0  0  0  0  0  0  0  0  0
   60.1590   27.9880   47.6420 C   0  0  0  0  0  0  0  0  0  0  0  0
   60.2150   27.4030   46.3570 C   0  0  0  0  0  0  0  0  0  0  0  0
   60.6720   26.0480   46.2370 N   0  0  0  0  0  0  0  0  0  0  0  0
   59.8580   24.8950   45.9860 C   0  0  0  0  0  0  0  0  0  0  0  0
   60.3910   23.7540   45.8920 O   0  0  0  0  0  0  0  0  0  0  0  0
   58.3870   25.0340   45.8850 C   0  0  0  0  0  0  0  0  0  0  0  0
   57.6750   25.8190   46.8080 C   0  0  0  0  0  0  0  0  0  0  0  0
   56.2880   25.9500   46.7080 C   0  0  0  0  0  0  0  0  0  0  0  0
   55.5830   25.3070   45.6850 C   0  0  0  0  0  0  0  0  0  0  0  0
   54.1910   25.4760   45.6250 O   0  0  0  0  0  0  0  0  0  0  0  0
   53.2730   24.4540   45.2460 C   0  0  0  0  0  0  0  0  0  0  0  0
   56.2890   24.5200   44.7560 C   0  0  0  0  0  0  0  0  0  0  0  0
   57.6770   24.3870   44.8550 C   0  0  0  0  0  0  0  0  0  0  0  0
   59.7570   28.1340   45.2400 C   0  0  0  0  0  0  0  0  0  0  0  0
   59.2900   29.4290   45.4430 C   0  0  0  0  0  0  0  0  0  0  0  0
   58.6870   30.5140   44.3120 S   0  0  0  0  0  0  0  0  0  0  0  0
   59.5393   32.4978   51.4421 H   0  0  0  0  0  0  0  0  0  0  0  0
   58.5451   32.5564   49.9472 H   0  0  0  0  0  0  0  0  0  0  0  0
   60.1165   31.6861   49.9472 H   0  0  0  0  0  0  0  0  0  0  0  0
   59.5312   34.5492   49.5471 H   0  0  0  0  0  0  0  0  0  0  0  0
   60.8087   34.2338   50.8019 H   0  0  0  0  0  0  0  0  0  0  0  0
   62.1523   34.2672   49.0928 H   0  0  0  0  0  0  0  0  0  0  0  0
   62.3721   31.9311   49.7222 H   0  0  0  0  0  0  0  0  0  0  0  0
   60.9155   31.4868   48.7264 H   0  0  0  0  0  0  0  0  0  0  0  0
   63.6012   31.2663   47.9433 H   0  0  0  0  0  0  0  0  0  0  0  0
   62.1206   31.2078   46.8804 H   0  0  0  0  0  0  0  0  0  0  0  0
   63.8190   33.6688   47.4988 H   0  0  0  0  0  0  0  0  0  0  0  0
   63.7432   32.7612   45.9413 H   0  0  0  0  0  0  0  0  0  0  0  0
   62.3155   34.9325   46.1672 H   0  0  0  0  0  0  0  0  0  0  0  0
   61.5278   33.4331   45.5100 H   0  0  0  0  0  0  0  0  0  0  0  0
   59.0789   35.2875   45.3024 H   0  0  0  0  0  0  0  0  0  0  0  0
   60.0530   33.8131   44.9410 H   0  0  0  0  0  0  0  0  0  0  0  0
   58.6570   31.8500   47.5930 H   0  0  0  0  0  0  0  0  0  0  0  0
   59.6542   29.7533   48.8199 H   0  0  0  0  0  0  0  0  0  0  0  0
   60.4921   27.4093   48.5162 H   0  0  0  0  0  0  0  0  0  0  0  0
   58.2146   26.3346   47.6160 H   0  0  0  0  0  0  0  0  0  0  0  0
   55.7447   26.5648   47.4408 H   0  0  0  0  0  0  0  0  0  0  0  0
   52.8525   23.9859   46.1482 H   0  0  0  0  0  0  0  0  0  0  0  0
   52.4608   24.8938   44.6486 H   0  0  0  0  0  0  0  0  0  0  0  0
   53.7971   23.6935   44.6486 H   0  0  0  0  0  0  0  0  0  0  0  0
   55.7461   24.0072   43.9483 H   0  0  0  0  0  0  0  0  0  0  0  0
   58.2194   23.7717   44.1221 H   0  0  0  0  0  0  0  0  0  0  0  0
   59.7689   27.6908   44.2333 H   0  0  0  0  0  0  0  0  0  0  0  0
  1  2  1  0
  2  3  1  0
  3  4  1  0
  4  5  1  0
  5  6  1  0
  6  7  1  0
  7  8  1  0
  8  9  1  0
  9 10  2  0
  9 11  1  0
 11 12  1  0
 12 13  1  0
 13 14  2  0
 14 15  1  0
 15 16  2  0
 16 17  1  0
 17 18  2  0
 18 19  1  0
 19 20  1  0
 20 21  2  0
 20 22  1  0
 22 23  2  0
 23 24  1  0
 24 25  2  0
 25 26  1  0
 26 27  1  0
 25 28  1  0
 28 29  2  0
 18 30  1  0
 30 31  2  0
 31 32  1  0
  8  3  1  0
 32 13  1  0
 31 15  1  0
 29 22  1  0
  1 33  1  0
  1 34  1  0
  1 35  1  0
  2 36  1  0
  2 37  1  0
  3 38  1  1
  4 39  1  0
  4 40  1  0
  5 41  1  0
  5 42  1  0
  6 43  1  0
  6 44  1  0
  7 45  1  0
  7 46  1  0
 11 47  1  0
 11 48  1  0
 14 49  1  0
 16 50  1  0
 17 51  1  0
 23 52  1  0
 24 53  1  0
 27 54  1  0
 27 55  1  0
 27 56  1  0
 28 57  1  0
 29 58  1  0
 30 59  1  0
M  CHG  2  14   1  19  -1
M  END
>  <UniqueID>  (63) 
58

>  <SMILES>  (63) 
CC[C@H]1CCCCN1C(=O)CSc1[nH+]c2ccc([N-]C(=O)c3ccc(OC)cc3)cc2s1

>  <Energy>  (63) 
101.7470370788941

>  <Genealogy>  (63) 
CCC1CCCCN1C(=O)CSc1[nH+]c2ccc([N-]C(=O)c3ccc(OC)cc3)cc2s1 (protonated)
CC[C@H]1CCCCN1C(=O)CSc1[nH+]c2ccc([N-]C(=O)c3ccc(OC)cc3)cc2s1 (chirality)
CC[C@H]1CCCCN1C(=O)CSc1[nH+]c2ccc([N-]C(=O)c3ccc(OC)cc3)cc2s1 (3D coordinates assigned)
CC[C@H]1CCCCN1C(=O)CSc1[nH+]c2ccc([N-]C(=O)c3ccc(OC)cc3)cc2s1 (nonaromatic ring conformer: 101.7470370788941 kcal/mol)

>  <smiles>  (63) 
CCC1CCCCN1C(=O)CSc1nc2ccc(NC(=O)c3ccc(OC)cc3)cc2s1

>  <score_type>  (63) 
oracle

>  <origin>  (63) 
adg

>  <m_score__min__energy>  (63) 
-9.4399999999999995

>  <m_primary>  (63) 
energy

$$$$
63:0
     RDKit          3D

 36 38  0  0  1  0  0  0  0  0999 V2000
   58.9640   30.5550   50.0910 C   0  0  0  0  0  0  0  0  0  0  0  0
   58.3540   31.9180   49.8510 C   0  0  0  0  0  0  0  0  0  0  0  0
   59.0660   32.6000   48.7780 N   0  0  0  0  0  0  0  0  0  0  0  0
   60.3830   32.5780   48.5760 C   0  0  0  0  0  0  0  0  0  0  0  0
   60.6480   33.3480   47.4780 C   0  0  0  0  0  0  0  0  0  0  0  0
   62.3550   33.6870   46.7220 Br  0  0  0  0  0  0  0  0  0  0  0  0
   59.3980   33.8190   47.0560 C   0  0  0  0  0  0  0  0  0  0  0  0
   59.2330   34.6930   45.9180 C   0  0  0  0  0  0  0  0  0  0  0  0
   59.8430   35.8150   45.9780 O   0  0  0  0  0  0  0  0  0  0  0  0
   57.1890   28.8410   44.7430 N   0  0  0  0  0  0  0  0  0  0  0  0
   58.4350   28.9460   45.1100 C   0  0  0  0  0  0  0  0  0  0  0  0
   57.2860   32.3460   45.0650 C   0  0  0  0  0  0  0  0  0  0  0  0
   57.2010   31.2350   44.2550 C   0  0  0  0  0  0  0  0  0  0  0  0
   56.4240   29.9890   44.5120 C   0  0  0  0  0  0  0  0  0  0  0  0
   55.1990   30.1160   44.4920 O   0  0  0  0  0  0  0  0  0  0  0  0
   58.4760   34.4320   44.7640 N   0  0  0  0  0  0  0  0  0  0  0  0
   58.0980   33.2400   44.4040 C   0  0  0  0  0  0  0  0  0  0  0  0
   59.5920   28.8020   44.4720 N   0  0  0  0  0  0  0  0  0  0  0  0
   60.7240   28.9680   45.0810 C   0  0  0  0  0  0  0  0  0  0  0  0
   60.7050   29.3040   46.4450 C   0  0  0  0  0  0  0  0  0  0  0  0
   58.8810   29.3700   46.7960 S   0  0  0  0  0  0  0  0  0  0  0  0
   57.9510   31.5160   43.1750 N   0  0  0  0  0  0  0  0  0  0  0  0
   58.4930   32.6950   43.2380 N   0  0  0  0  0  0  0  0  0  0  0  0
   58.4450   33.3440   47.8720 N   0  0  0  0  0  0  0  0  0  0  0  0
   59.0447   30.3748   51.1731 H   0  0  0  0  0  0  0  0  0  0  0  0
   58.3257   29.7826   49.6372 H   0  0  0  0  0  0  0  0  0  0  0  0
   59.9653   30.5163   49.6372 H   0  0  0  0  0  0  0  0  0  0  0  0
   57.2972   31.7998   49.5695 H   0  0  0  0  0  0  0  0  0  0  0  0
   58.4300   32.5151   50.7717 H   0  0  0  0  0  0  0  0  0  0  0  0
   61.1237   32.0374   49.1836 H   0  0  0  0  0  0  0  0  0  0  0  0
   56.8027   32.4898   46.0426 H   0  0  0  0  0  0  0  0  0  0  0  0
   59.5740   28.5390   43.4170 H   0  0  0  0  0  0  0  0  0  0  0  0
   61.6761   28.8487   44.5432 H   0  0  0  0  0  0  0  0  0  0  0  0
   61.5494   29.4817   47.1273 H   0  0  0  0  0  0  0  0  0  0  0  0
   58.0820   30.8420   42.3630 H   0  0  0  0  0  0  0  0  0  0  0  0
   59.1130   33.0870   42.4880 H   0  0  0  0  0  0  0  0  0  0  0  0
  1  2  1  0
  2  3  1  0
  3  4  1  0
  4  5  2  0
  5  6  1  0
  5  7  1  0
  7  8  1  0
  8  9  2  0
  8 10  1  0
 10 11  2  0
 11 12  1  0
 12 13  2  0
 13 14  1  0
 14 15  2  0
 14 16  1  0
 16 17  2  0
 17 18  1  0
 18 19  1  0
 19 20  2  0
 20 21  1  0
 13 22  1  0
 22 23  1  0
  7 24  2  0
 24  3  1  0
 23 11  1  0
 21 17  1  0
  1 25  1  0
  1 26  1  0
  1 27  1  0
  2 28  1  0
  2 29  1  0
  4 30  1  0
 12 31  1  0
 18 32  1  0
 19 33  1  0
 20 34  1  0
 22 35  1  0
 23 36  1  0
M  END
>  <smiles>  (64) 
CCn1cc(Br)c(C(=O)N=c2cc(C(=O)N=c3[nH]ccs3)[nH][nH]2)n1

>  <score_type>  (64) 
oracle

>  <origin>  (64) 
adg

>  <m_score__min__energy>  (64) 
-8.8100000000000005

>  <m_primary>  (64) 
energy

$$$$
64:0
     RDKit          3D

 54 59  0  0  0  0  0  0  0  0999 V2000
   57.4358   31.6814   41.8277 H   0  0  0  0  0  0  0  0  0  0  0  0
   57.6880   31.8370   42.8870 C   0  0  0  0  0  0  0  0  0  0  0  0
   57.7860   33.0970   43.3820 N   0  0  0  0  0  0  0  0  0  0  0  0
   58.0980   33.3370   44.6820 C   0  0  0  0  0  0  0  0  0  0  0  0
   58.1890   34.5310   45.0760 O   0  0  0  0  0  0  0  0  0  0  0  0
   58.3350   32.2620   45.5690 C   0  0  0  0  0  0  0  0  0  0  0  0
   58.7050   32.5220   46.9840 C   0  0  0  0  0  0  0  0  0  0  0  0
   58.1560   31.8430   48.0280 N   0  0  0  0  0  0  0  0  0  0  0  0
   58.7540   32.4010   49.0910 C   0  0  0  0  0  0  0  0  0  0  0  0
   58.5700   32.0900   50.4350 C   0  0  0  0  0  0  0  0  0  0  0  0
   57.8696   31.3010   50.7463 H   0  0  0  0  0  0  0  0  0  0  0  0
   59.3120   32.8210   51.3820 C   0  0  0  0  0  0  0  0  0  0  0  0
   59.1943   32.6047   52.4541 H   0  0  0  0  0  0  0  0  0  0  0  0
   60.2080   33.8320   50.9630 C   0  0  0  0  0  0  0  0  0  0  0  0
   60.7831   34.3980   51.7106 H   0  0  0  0  0  0  0  0  0  0  0  0
   60.3670   34.1170   49.5950 C   0  0  0  0  0  0  0  0  0  0  0  0
   61.0592   34.9006   49.2533 H   0  0  0  0  0  0  0  0  0  0  0  0
   59.6170   33.3720   48.6880 C   0  0  0  0  0  0  0  0  0  0  0  0
   59.6050   33.4740   47.3530 N   0  0  0  0  0  0  0  0  0  0  0  0
   58.2390   30.9410   45.0630 C   0  0  0  0  0  0  0  0  0  0  0  0
   58.3970   29.8060   45.9340 N   0  0  0  0  0  0  0  0  0  0  0  0
   58.4580   29.9990   46.9590 H   0  0  0  0  0  0  0  0  0  0  0  0
   58.7860   28.4560   45.4870 C   0  0  2  0  0  0  0  0  0  0  0  0
   59.7400   28.5641   44.9502 H   0  0  0  0  0  0  0  0  0  0  0  0
   57.7770   27.8750   44.4680 C   0  0  0  0  0  0  0  0  0  0  0  0
   56.7590   27.9674   44.8743 H   0  0  0  0  0  0  0  0  0  0  0  0
   57.8625   28.4352   43.5252 H   0  0  0  0  0  0  0  0  0  0  0  0
   58.0780   26.3970   44.1940 C   0  0  0  0  0  0  0  0  0  0  0  0
   57.3533   26.0189   43.4579 H   0  0  0  0  0  0  0  0  0  0  0  0
   59.1084   26.3278   43.8152 H   0  0  0  0  0  0  0  0  0  0  0  0
   57.9850   25.5340   45.4710 C   0  0  0  0  0  0  0  0  0  0  0  0
   57.0261   24.9952   45.4567 H   0  0  0  0  0  0  0  0  0  0  0  0
   58.8494   24.8538   45.4624 H   0  0  0  0  0  0  0  0  0  0  0  0
   58.0660   26.3470   46.7760 C   0  0  0  0  0  0  0  0  0  0  0  0
   57.0779   26.7813   46.9882 H   0  0  0  0  0  0  0  0  0  0  0  0
   58.3789   25.6702   47.5847 H   0  0  0  0  0  0  0  0  0  0  0  0
   59.1010   27.4850   46.6710 C   0  0  2  0  0  0  0  0  0  0  0  0
   60.0770   27.0241   46.4587 H   0  0  0  0  0  0  0  0  0  0  0  0
   59.1980   28.2150   47.9390 N   0  0  0  0  0  0  0  0  0  0  0  0
   60.1060   29.0950   48.2420 C   0  0  0  0  0  0  0  0  0  0  0  0
   60.6440   29.9150   47.3080 N   0  0  0  0  0  0  0  0  0  0  0  0
   61.5720   30.7340   47.8630 C   0  0  0  0  0  0  0  0  0  0  0  0
   62.3020   31.6930   47.1570 C   0  0  0  0  0  0  0  0  0  0  0  0
   62.1484   31.8309   46.0765 H   0  0  0  0  0  0  0  0  0  0  0  0
   63.2360   32.4780   47.8530 C   0  0  0  0  0  0  0  0  0  0  0  0
   63.8204   33.2380   47.3136 H   0  0  0  0  0  0  0  0  0  0  0  0
   63.4300   32.2990   49.2380 C   0  0  0  0  0  0  0  0  0  0  0  0
   64.1650   32.9193   49.7719 H   0  0  0  0  0  0  0  0  0  0  0  0
   62.6900   31.3330   49.9400 C   0  0  0  0  0  0  0  0  0  0  0  0
   62.8312   31.1866   51.0210 H   0  0  0  0  0  0  0  0  0  0  0  0
   61.7720   30.5660   49.2260 C   0  0  0  0  0  0  0  0  0  0  0  0
   60.7630   29.3480   49.7890 S   0  0  0  0  0  0  0  0  0  0  0  0
   57.9060   30.7420   43.7170 C   0  0  0  0  0  0  0  0  0  0  0  0
   57.8170   29.7213   43.3168 H   0  0  0  0  0  0  0  0  0  0  0  0
  1  2  1  0
  2  3  1  0
  3  4  1  0
  4  5  2  0
  4  6  1  0
  6  7  1  0
  7  8  2  0
  8  9  1  0
  9 10  2  0
 10 11  1  0
 10 12  1  0
 12 13  1  0
 12 14  2  0
 14 15  1  0
 14 16  1  0
 16 17  1  0
 16 18  2  0
 18 19  1  0
  6 20  2  0
 20 21  1  0
 21 22  1  0
 21 23  1  0
 23 24  1  6
 23 25  1  0
 25 26  1  0
 25 27  1  0
 25 28  1  0
 28 29  1  0
 28 30  1  0
 28 31  1  0
 31 32  1  0
 31 33  1  0
 31 34  1  0
 34 35  1  0
 34 36  1  0
 34 37  1  0
 37 38  1  6
 37 39  1  0
 39 40  2  0
 40 41  1  0
 41 42  1  0
 42 43  2  0
 43 44  1  0
 43 45  1  0
 45 46  1  0
 45 47  2  0
 47 48  1  0
 47 49  1  0
 49 50  1  0
 49 51  2  0
 51 52  1  0
 20 53  1  0
 53 54  1  0
 53  2  2  0
 19  7  1  0
 37 23  1  0
 52 40  1  0
 18  9  1  0
 51 42  1  0
M  CHG  3   3  -1  19  -1  41  -1
M  END
>  <UniqueID>  (65) 
59

>  <SMILES>  (65) 
O=c1[n-]ccc(N[C@@H]2CCCC[C@@H]2/N=c2/[n-]c3ccccc3s2)c1-c1nc2ccccc2[n-]1

>  <Energy>  (65) 
147.80464364411657

>  <Genealogy>  (65) 
O=c1[n-]ccc(NC2CCCCC2N=c2[n-]c3ccccc3s2)c1-c1nc2ccccc2[n-]1 (protonated)
O=c1[n-]ccc(N[C@@H]2CCCC[C@@H]2N=c2[n-]c3ccccc3s2)c1-c1nc2ccccc2[n-]1 (chirality)
O=c1[n-]ccc(N[C@@H]2CCCC[C@@H]2/N=c2/[n-]c3ccccc3s2)c1-c1nc2ccccc2[n-]1 (cis-trans isomerization)
O=c1[n-]ccc(N[C@@H]2CCCC[C@@H]2/N=c2/[n-]c3ccccc3s2)c1-c1nc2ccccc2[n-]1 (3D coordinates assigned)
O=c1[n-]ccc(N[C@@H]2CCCC[C@@H]2/N=c2/[n-]c3ccccc3s2)c1-c1nc2ccccc2[n-]1 (nonaromatic ring conformer: 147.80464364411657 kcal/mol)

>  <smiles>  (65) 
O=c1[nH]ccc(NC2CCCCC2N=c2[nH]c3ccccc3s2)c1-c1nc2ccccc2[nH]1

>  <score_type>  (65) 
oracle

>  <origin>  (65) 
adg

>  <m_score__min__energy>  (65) 
-12.26

>  <m_primary>  (65) 
energy

$$$$
65:0
     RDKit          3D

 45 47  0  0  0  0  0  0  0  0999 V2000
   64.3658   32.9709   48.4269 H   0  0  0  0  0  0  0  0  0  0  0  0
   63.3730   33.3350   48.1240 C   0  0  0  0  0  0  0  0  0  0  0  0
   63.0410   33.4120   46.7690 C   0  0  0  0  0  0  0  0  0  0  0  0
   63.7736   33.1103   46.0059 H   0  0  0  0  0  0  0  0  0  0  0  0
   61.7790   33.8720   46.3820 C   0  0  0  0  0  0  0  0  0  0  0  0
   61.5251   33.9400   45.3139 H   0  0  0  0  0  0  0  0  0  0  0  0
   60.8330   34.2480   47.3510 C   0  0  0  0  0  0  0  0  0  0  0  0
   59.4880   34.7730   46.9220 C   0  0  0  0  0  0  0  0  0  0  0  0
   59.6013   35.8053   46.5594 H   0  0  0  0  0  0  0  0  0  0  0  0
   58.8045   34.7464   47.7835 H   0  0  0  0  0  0  0  0  0  0  0  0
   58.9060   33.9060   45.8010 C   0  0  0  0  0  0  0  0  0  0  0  0
   59.7055   33.2825   45.3745 H   0  0  0  0  0  0  0  0  0  0  0  0
   58.4824   34.5642   45.0281 H   0  0  0  0  0  0  0  0  0  0  0  0
   57.8440   33.0400   46.3160 N   0  0  0  0  0  0  0  0  0  0  0  0
   57.8010   31.7470   46.1710 C   0  0  0  0  0  0  0  0  0  0  0  0
   57.0230   31.1950   45.2010 N   0  0  0  0  0  0  0  0  0  0  0  0
   56.9270   29.8540   45.0080 C   0  0  0  0  0  0  0  0  0  0  0  0
   56.1240   29.3470   43.9810 O   0  0  0  0  0  0  0  0  0  0  0  0
   56.2690   29.7480   42.6230 C   0  0  0  0  0  0  0  0  0  0  0  0
   56.6428   30.7818   42.5839 H   0  0  0  0  0  0  0  0  0  0  0  0
   56.9827   29.0806   42.1178 H   0  0  0  0  0  0  0  0  0  0  0  0
   55.2935   29.6915   42.1178 H   0  0  0  0  0  0  0  0  0  0  0  0
   57.6370   28.9820   45.8410 C   0  0  0  0  0  0  0  0  0  0  0  0
   57.5380   27.5550   45.6190 C   0  0  0  0  0  0  0  0  0  0  0  0
   57.4590   26.4150   45.4410 N   0  0  0  0  0  0  0  0  0  0  0  0
   58.4430   29.5080   46.8750 C   0  0  0  0  0  0  0  0  0  0  0  0
   58.5530   30.9100   47.0220 C   0  0  0  0  0  0  0  0  0  0  0  0
   59.3870   31.5120   48.1400 C   0  0  0  0  0  0  0  0  0  0  0  0
   58.7161   31.7855   48.9677 H   0  0  0  0  0  0  0  0  0  0  0  0
   59.9084   32.3863   47.7232 H   0  0  0  0  0  0  0  0  0  0  0  0
   60.4180   30.5940   48.6570 N   0  0  0  0  0  0  0  0  0  0  0  0
   61.5780   30.4990   47.7530 C   0  0  0  0  0  0  0  0  0  0  0  0
   62.5007   30.4234   48.3471 H   0  0  0  0  0  0  0  0  0  0  0  0
   61.4763   29.6062   47.1186 H   0  0  0  0  0  0  0  0  0  0  0  0
   61.6229   31.3965   47.1186 H   0  0  0  0  0  0  0  0  0  0  0  0
   59.8430   29.2780   48.9850 C   0  0  0  0  0  0  0  0  0  0  0  0
   59.0472   29.4164   49.7317 H   0  0  0  0  0  0  0  0  0  0  0  0
   60.6544   28.6449   49.3732 H   0  0  0  0  0  0  0  0  0  0  0  0
   59.2490   28.5760   47.7560 C   0  0  0  0  0  0  0  0  0  0  0  0
   58.5924   27.7631   48.0997 H   0  0  0  0  0  0  0  0  0  0  0  0
   60.0889   28.1983   47.1544 H   0  0  0  0  0  0  0  0  0  0  0  0
   61.1790   34.1810   48.7130 C   0  0  0  0  0  0  0  0  0  0  0  0
   60.2980   34.5650   49.6710 F   0  0  0  0  0  0  0  0  0  0  0  0
   62.4450   33.7200   49.0940 C   0  0  0  0  0  0  0  0  0  0  0  0
   62.7093   33.6609   50.1601 H   0  0  0  0  0  0  0  0  0  0  0  0
  1  2  1  0
  2  3  2  0
  3  4  1  0
  3  5  1  0
  5  6  1  0
  5  7  2  0
  7  8  1  0
  8  9  1  0
  8 10  1  0
  8 11  1  0
 11 12  1  0
 11 13  1  0
 11 14  1  0
 14 15  2  0
 15 16  1  0
 16 17  1  0
 17 18  1  0
 18 19  1  0
 19 20  1  0
 19 21  1  0
 19 22  1  0
 17 23  2  0
 23 24  1  0
 24 25  3  0
 23 26  1  0
 26 27  2  0
 27 28  1  0
 28 29  1  0
 28 30  1  0
 28 31  1  0
 31 32  1  0
 32 33  1  0
 32 34  1  0
 32 35  1  0
 31 36  1  0
 36 37  1  0
 36 38  1  0
 36 39  1  0
 39 40  1  0
 39 41  1  0
  7 42  1  0
 42 43  1  0
 42 44  2  0
 44 45  1  0
 44  2  1  0
 27 15  1  0
 39 26  1  0
M  CHG  1  16  -1
M  END
>  <UniqueID>  (66) 
60

>  <SMILES>  (66) 
COc1[n-]/c(=N\CCc2ccccc2F)c2c(c1C#N)CCN(C)C2

>  <Energy>  (66) 
49.246348504072635

>  <Genealogy>  (66) 
COc1[n-]c(=NCCc2ccccc2F)c2c(c1C#N)CCN(C)C2 (protonated)
COc1[n-]/c(=N\CCc2ccccc2F)c2c(c1C#N)CCN(C)C2 (cis-trans isomerization)
COc1[n-]/c(=N\CCc2ccccc2F)c2c(c1C#N)CCN(C)C2 (3D coordinates assigned)
COc1[n-]/c(=N\CCc2ccccc2F)c2c(c1C#N)CCN(C)C2 (nonaromatic ring conformer: 49.246348504072635 kcal/mol)

>  <smiles>  (66) 
COc1[nH]c(=NCCc2ccccc2F)c2c(c1C#N)CCN(C)C2

>  <score_type>  (66) 
oracle

>  <origin>  (66) 
adg

>  <m_score__min__energy>  (66) 
-9.2400000000000002

>  <m_primary>  (66) 
energy

$$$$
66:0
     RDKit          3D

 73 77  0  0  0  0  0  0  0  0999 V2000
   57.8700   31.5120   52.2370 C   0  0  0  0  0  0  0  0  0  0  0  0
   58.9730   32.3030   51.6100 C   0  0  0  0  0  0  0  0  0  0  0  0
   60.2710   32.2380   52.1290 C   0  0  0  0  0  0  0  0  0  0  0  0
   61.2960   32.9890   51.5260 C   0  0  0  0  0  0  0  0  0  0  0  0
   62.6250   32.9620   51.9780 O   0  0  0  0  0  0  0  0  0  0  0  0
   63.6710   33.8280   51.5370 C   0  0  0  0  0  0  0  0  0  0  0  0
   64.5380   33.1320   50.4850 C   0  0  0  0  0  0  0  0  0  0  0  0
   63.7710   32.9400   49.2050 C   0  0  0  0  0  0  0  0  0  0  0  0
   63.5130   34.0340   48.3620 C   0  0  0  0  0  0  0  0  0  0  0  0
   62.8280   33.8470   47.1570 C   0  0  0  0  0  0  0  0  0  0  0  0
   62.4030   32.5690   46.7830 C   0  0  0  0  0  0  0  0  0  0  0  0
   62.6680   31.4740   47.6110 C   0  0  0  0  0  0  0  0  0  0  0  0
   63.3530   31.6560   48.8160 C   0  0  0  0  0  0  0  0  0  0  0  0
   60.9900   33.8010   50.4310 C   0  0  0  0  0  0  0  0  0  0  0  0
   59.6700   33.8510   49.9360 C   0  0  0  0  0  0  0  0  0  0  0  0
   59.3370   34.5640   48.8960 N   0  0  0  0  0  0  0  0  0  0  0  0
   59.1810   34.0950   47.5490 C   0  0  0  0  0  0  0  0  0  0  0  0
   59.5800   34.8870   46.4620 C   0  0  0  0  0  0  0  0  0  0  0  0
   59.3960   34.4280   45.1570 C   0  0  0  0  0  0  0  0  0  0  0  0
   58.8080   33.1820   44.9270 C   0  0  0  0  0  0  0  0  0  0  0  0
   58.3830   32.3850   46.0050 C   0  0  0  0  0  0  0  0  0  0  0  0
   57.7670   31.0580   45.7650 C   0  0  0  0  0  0  0  0  0  0  0  0
   56.9130   30.9160   44.8460 O   0  0  0  0  0  0  0  0  0  0  0  0
   58.1340   29.9360   46.5760 N   0  0  0  0  0  0  0  0  0  0  0  0
   59.4370   29.2860   46.5180 C   0  0  0  0  0  0  0  0  0  0  0  0
   59.9580   29.0270   47.9050 C   0  0  0  0  0  0  0  0  0  0  0  0
   60.1600   30.0970   48.7890 C   0  0  0  0  0  0  0  0  0  0  0  0
   60.6540   29.8660   50.0750 C   0  0  0  0  0  0  0  0  0  0  0  0
   60.9520   28.5600   50.4990 C   0  0  0  0  0  0  0  0  0  0  0  0
   61.4660   28.3060   51.8640 C   0  0  0  0  0  0  0  0  0  0  0  0
   60.7130   28.5040   52.8550 O   0  0  0  0  0  0  0  0  0  0  0  0
   62.7860   27.7930   52.0950 N   0  0  0  0  0  0  0  0  0  0  0  0
   63.9990   28.5630   52.1190 C   0  0  0  0  0  0  0  0  0  0  0  0
   65.2060   28.0220   51.6360 C   0  0  0  0  0  0  0  0  0  0  0  0
   66.3770   28.7830   51.6520 C   0  0  0  0  0  0  0  0  0  0  0  0
   66.3550   30.0920   52.1330 C   0  0  0  0  0  0  0  0  0  0  0  0
   65.1590   30.6480   52.5920 C   0  0  0  0  0  0  0  0  0  0  0  0
   63.9740   29.8950   52.5820 C   0  0  0  0  0  0  0  0  0  0  0  0
   62.7600   30.4860   53.0590 N   0  0  0  0  0  0  0  0  0  0  0  0
   60.7730   27.4930   49.6040 C   0  0  0  0  0  0  0  0  0  0  0  0
   60.2750   27.7240   48.3180 C   0  0  0  0  0  0  0  0  0  0  0  0
   58.5590   32.8630   47.3170 C   0  0  0  0  0  0  0  0  0  0  0  0
   58.7110   33.0960   50.5360 N   0  0  0  0  0  0  0  0  0  0  0  0
   57.9529   31.5715   53.3323 H   0  0  0  0  0  0  0  0  0  0  0  0
   56.8994   31.9211   51.9200 H   0  0  0  0  0  0  0  0  0  0  0  0
   57.9462   30.4614   51.9200 H   0  0  0  0  0  0  0  0  0  0  0  0
   60.4879   31.6045   53.0017 H   0  0  0  0  0  0  0  0  0  0  0  0
   63.2290   34.7350   51.0988 H   0  0  0  0  0  0  0  0  0  0  0  0
   64.3015   34.0908   52.3992 H   0  0  0  0  0  0  0  0  0  0  0  0
   65.4266   33.7485   50.2843 H   0  0  0  0  0  0  0  0  0  0  0  0
   64.8363   32.1455   50.8695 H   0  0  0  0  0  0  0  0  0  0  0  0
   63.8507   35.0404   48.6505 H   0  0  0  0  0  0  0  0  0  0  0  0
   62.6234   34.7071   46.5025 H   0  0  0  0  0  0  0  0  0  0  0  0
   61.8601   32.4248   45.8373 H   0  0  0  0  0  0  0  0  0  0  0  0
   62.3370   30.4679   47.3139 H   0  0  0  0  0  0  0  0  0  0  0  0
   63.5655   30.7912   49.4618 H   0  0  0  0  0  0  0  0  0  0  0  0
   61.7788   34.4016   49.9546 H   0  0  0  0  0  0  0  0  0  0  0  0
   60.0385   35.8712   46.6385 H   0  0  0  0  0  0  0  0  0  0  0  0
   59.7149   35.0492   44.3071 H   0  0  0  0  0  0  0  0  0  0  0  0
   58.6765   32.8218   43.8960 H   0  0  0  0  0  0  0  0  0  0  0  0
   59.3412   28.3298   45.9828 H   0  0  0  0  0  0  0  0  0  0  0  0
   60.1412   29.9464   45.9907 H   0  0  0  0  0  0  0  0  0  0  0  0
   59.9282   31.1233   48.4680 H   0  0  0  0  0  0  0  0  0  0  0  0
   60.8107   30.7121   50.7603 H   0  0  0  0  0  0  0  0  0  0  0  0
   65.2267   26.9944   51.2440 H   0  0  0  0  0  0  0  0  0  0  0  0
   67.3186   28.3491   51.2845 H   0  0  0  0  0  0  0  0  0  0  0  0
   67.2802   30.6867   52.1508 H   0  0  0  0  0  0  0  0  0  0  0  0
   65.1452   31.6831   52.9640 H   0  0  0  0  0  0  0  0  0  0  0  0
   61.9650   29.8860   53.3760 H   0  0  0  0  0  0  0  0  0  0  0  0
   62.6320   31.5220   53.0910 H   0  0  0  0  0  0  0  0  0  0  0  0
   61.0261   26.4691   49.9164 H   0  0  0  0  0  0  0  0  0  0  0  0
   60.1311   26.8804   47.6269 H   0  0  0  0  0  0  0  0  0  0  0  0
   58.2044   32.2627   48.1679 H   0  0  0  0  0  0  0  0  0  0  0  0
  1  2  1  0
  2  3  2  0
  3  4  1  0
  4  5  1  0
  5  6  1  0
  6  7  1  0
  7  8  1  0
  8  9  2  0
  9 10  1  0
 10 11  2  0
 11 12  1  0
 12 13  2  0
  4 14  2  0
 14 15  1  0
 15 16  2  3
 16 17  1  0
 17 18  2  0
 18 19  1  0
 19 20  2  0
 20 21  1  0
 21 22  1  0
 22 23  2  0
 22 24  1  0
 24 25  1  0
 25 26  1  0
 26 27  2  0
 27 28  1  0
 28 29  2  0
 29 30  1  0
 30 31  2  0
 30 32  1  0
 32 33  1  0
 33 34  2  0
 34 35  1  0
 35 36  2  0
 36 37  1  0
 37 38  2  0
 38 39  1  0
 29 40  1  0
 40 41  2  0
 21 42  2  0
 15 43  1  0
 43  2  1  0
 13  8  1  0
 42 17  1  0
 41 26  1  0
 38 33  1  0
  1 44  1  0
  1 45  1  0
  1 46  1  0
  3 47  1  0
  6 48  1  0
  6 49  1  0
  7 50  1  0
  7 51  1  0
  9 52  1  0
 10 53  1  0
 11 54  1  0
 12 55  1  0
 13 56  1  0
 14 57  1  0
 18 58  1  0
 19 59  1  0
 20 60  1  0
 25 61  1  0
 25 62  1  0
 27 63  1  0
 28 64  1  0
 34 65  1  0
 35 66  1  0
 36 67  1  0
 37 68  1  0
 39 69  1  0
 39 70  1  0
 40 71  1  0
 41 72  1  0
 42 73  1  0
M  CHG  3  24  -1  32  -1  43  -1
M  END
>  <UniqueID>  (67) 
61

>  <SMILES>  (67) 
Cc1cc(OCCc2ccccc2)cc(=Nc2cccc(C(=O)[N-]Cc3ccc(C(=O)[N-]c4ccccc4N)cc3)c2)[n-]1

>  <Energy>  (67) 
91.75019498076905

>  <Genealogy>  (67) 
Cc1cc(OCCc2ccccc2)cc(=Nc2cccc(C(=O)[N-]Cc3ccc(C(=O)[N-]c4ccccc4N)cc3)c2)[n-]1 (protonated)
Cc1cc(OCCc2ccccc2)cc(=Nc2cccc(C(=O)[N-]Cc3ccc(C(=O)[N-]c4ccccc4N)cc3)c2)[n-]1 (3D coordinates assigned)
Cc1cc(OCCc2ccccc2)cc(=Nc2cccc(C(=O)[N-]Cc3ccc(C(=O)[N-]c4ccccc4N)cc3)c2)[n-]1 (optimized conformer: 91.75019498076905 kcal/mol)

>  <smiles>  (67) 
Cc1cc(OCCc2ccccc2)cc(=Nc2cccc(C(=O)NCc3ccc(C(=O)Nc4ccccc4N)cc3)c2)[nH]1

>  <score_type>  (67) 
oracle

>  <origin>  (67) 
adg

>  <m_score__min__energy>  (67) 
-13.49

>  <m_primary>  (67) 
energy

$$$$
67:0
     RDKit          3D

 41 42  0  0  0  0  0  0  0  0999 V2000
   58.7370   32.6350   49.2220 C   0  0  0  0  0  0  0  0  0  0  0  0
   60.1230   32.9950   48.7590 C   0  0  0  0  0  0  0  0  0  0  0  0
   60.9290   33.8200   49.5620 C   0  0  0  0  0  0  0  0  0  0  0  0
   62.2160   34.1720   49.1480 C   0  0  0  0  0  0  0  0  0  0  0  0
   63.0070   34.9830   49.9530 O   0  0  0  0  0  0  0  0  0  0  0  0
   62.7060   33.7160   47.9240 C   0  0  0  0  0  0  0  0  0  0  0  0
   61.9100   32.9050   47.1100 C   0  0  0  0  0  0  0  0  0  0  0  0
   60.6190   32.5300   47.5190 C   0  0  0  0  0  0  0  0  0  0  0  0
   59.7910   31.7290   46.6580 N   0  0  0  0  0  0  0  0  0  0  0  0
   58.8110   32.2840   45.7640 C   0  0  0  0  0  0  0  0  0  0  0  0
   58.6490   33.5350   45.7070 O   0  0  0  0  0  0  0  0  0  0  0  0
   57.9840   31.4140   44.8940 C   0  0  0  0  0  0  0  0  0  0  0  0
   57.8030   31.7050   43.5310 C   0  0  0  0  0  0  0  0  0  0  0  0
   57.0150   30.8750   42.7300 C   0  0  0  0  0  0  0  0  0  0  0  0
   56.3940   29.7510   43.2770 C   0  0  0  0  0  0  0  0  0  0  0  0
   56.5520   29.4510   44.6410 C   0  0  0  0  0  0  0  0  0  0  0  0
   55.9280   28.3120   45.2470 N   0  0  0  0  0  0  0  0  0  0  0  0
   56.7450   26.8590   45.7280 S   0  0  0  0  0  0  0  0  0  0  0  0
   57.3530   26.2100   44.5160 O   0  0  0  0  0  0  0  0  0  0  0  0
   55.7630   25.9190   46.3690 O   0  0  0  0  0  0  0  0  0  0  0  0
   58.0100   27.2620   46.8600 N   0  0  0  0  0  0  0  0  0  0  0  0
   58.4180   26.0530   47.5850 C   0  0  0  0  0  0  0  0  0  0  0  0
   59.1550   27.8230   46.1320 C   0  0  0  0  0  0  0  0  0  0  0  0
   57.3420   30.2870   45.4400 C   0  0  0  0  0  0  0  0  0  0  0  0
   58.7081   32.6275   50.3216 H   0  0  0  0  0  0  0  0  0  0  0  0
   58.0191   33.3765   48.8414 H   0  0  0  0  0  0  0  0  0  0  0  0
   58.4707   31.6379   48.8414 H   0  0  0  0  0  0  0  0  0  0  0  0
   60.5438   34.1912   50.5232 H   0  0  0  0  0  0  0  0  0  0  0  0
   63.7193   33.9948   47.5993 H   0  0  0  0  0  0  0  0  0  0  0  0
   62.2975   32.5574   46.1410 H   0  0  0  0  0  0  0  0  0  0  0  0
   59.9380   30.6950   46.6770 H   0  0  0  0  0  0  0  0  0  0  0  0
   58.2846   32.5914   43.0924 H   0  0  0  0  0  0  0  0  0  0  0  0
   56.8833   31.1083   41.6631 H   0  0  0  0  0  0  0  0  0  0  0  0
   55.7796   29.0986   42.6392 H   0  0  0  0  0  0  0  0  0  0  0  0
   58.3561   26.2364   48.6678 H   0  0  0  0  0  0  0  0  0  0  0  0
   57.7509   25.2210   47.3153 H   0  0  0  0  0  0  0  0  0  0  0  0
   59.4528   25.7954   47.3153 H   0  0  0  0  0  0  0  0  0  0  0  0
   59.9027   28.1893   46.8508 H   0  0  0  0  0  0  0  0  0  0  0  0
   59.6052   27.0434   45.4999 H   0  0  0  0  0  0  0  0  0  0  0  0
   58.8149   28.6565   45.4999 H   0  0  0  0  0  0  0  0  0  0  0  0
   57.4624   30.0595   46.5095 H   0  0  0  0  0  0  0  0  0  0  0  0
  1  2  1  0
  2  3  2  0
  3  4  1  0
  4  5  1  0
  4  6  2  0
  6  7  1  0
  7  8  2  0
  8  9  1  0
  9 10  1  0
 10 11  2  0
 10 12  1  0
 12 13  2  0
 13 14  1  0
 14 15  2  0
 15 16  1  0
 16 17  1  0
 17 18  1  0
 18 19  2  0
 18 20  2  0
 18 21  1  0
 21 22  1  0
 21 23  1  0
 16 24  2  0
  8  2  1  0
 24 12  1  0
  1 25  1  0
  1 26  1  0
  1 27  1  0
  3 28  1  0
  6 29  1  0
  7 30  1  0
  9 31  1  0
 13 32  1  0
 14 33  1  0
 15 34  1  0
 22 35  1  0
 22 36  1  0
 22 37  1  0
 23 38  1  0
 23 39  1  0
 23 40  1  0
 24 41  1  0
M  CHG  2   5  -1  17  -1
M  END
>  <UniqueID>  (68) 
62

>  <SMILES>  (68) 
Cc1cc([O-])ccc1NC(=O)c1cccc([N-]S(=O)(=O)N(C)C)c1

>  <Energy>  (68) 
48.117881505758106

>  <Genealogy>  (68) 
Cc1cc([O-])ccc1NC(=O)c1cccc([N-]S(=O)(=O)N(C)C)c1 (protonated)
Cc1cc([O-])ccc1NC(=O)c1cccc([N-]S(=O)(=O)N(C)C)c1 (3D coordinates assigned)
Cc1cc([O-])ccc1NC(=O)c1cccc([N-]S(=O)(=O)N(C)C)c1 (optimized conformer: 48.117881505758106 kcal/mol)

>  <smiles>  (68) 
Cc1cc(O)ccc1NC(=O)c1cccc(NS(=O)(=O)N(C)C)c1

>  <score_type>  (68) 
oracle

>  <origin>  (68) 
adg

>  <m_score__min__energy>  (68) 
-10.68

>  <m_primary>  (68) 
energy

$$$$
68:0
     RDKit          3D

 45 47  0  0  0  0  0  0  0  0999 V2000
   57.7640   21.4770   43.3610 C   0  0  0  0  0  0  0  0  0  0  0  0
   58.9090   22.1330   44.1350 C   0  0  0  0  0  0  0  0  0  0  0  0
   58.5460   22.4150   45.6070 C   0  0  0  0  0  0  0  0  0  0  0  0
   57.5420   23.4980   45.7220 N   0  0  0  0  0  0  0  0  0  0  0  0
   57.9270   24.8150   45.8860 C   0  0  0  0  0  0  0  0  0  0  0  0
   59.3160   25.1940   45.8690 N   0  0  0  0  0  0  0  0  0  0  0  0
   56.9490   25.8200   46.0210 C   0  0  0  0  0  0  0  0  0  0  0  0
   57.3020   27.1760   46.3170 N   0  0  0  0  0  0  0  0  0  0  0  0
   57.8380   28.2600   45.0720 S   0  0  0  0  0  0  0  0  0  0  0  0
   56.6580   28.6810   44.2430 O   0  0  0  0  0  0  0  0  0  0  0  0
   58.8100   27.5560   44.1680 O   0  0  0  0  0  0  0  0  0  0  0  0
   58.5900   29.6940   45.8240 C   0  0  0  0  0  0  0  0  0  0  0  0
   59.7730   29.5840   46.6060 C   0  0  0  0  0  0  0  0  0  0  0  0
   60.3950   28.2490   46.9220 C   0  0  0  0  0  0  0  0  0  0  0  0
   60.3390   30.7070   47.1320 N   0  0  0  0  0  0  0  0  0  0  0  0
   59.7850   31.9210   46.9040 C   0  0  0  0  0  0  0  0  0  0  0  0
   60.3650   33.3770   47.4980 S   0  0  0  0  0  0  0  0  0  0  0  0
   59.1200   34.2640   46.7860 C   0  0  0  0  0  0  0  0  0  0  0  0
   58.2760   33.3900   46.0970 C   0  0  0  0  0  0  0  0  0  0  0  0
   57.0380   33.8800   45.4070 C   0  0  0  0  0  0  0  0  0  0  0  0
   58.6620   32.0710   46.1620 N   0  0  0  0  0  0  0  0  0  0  0  0
   58.0530   30.9820   45.6000 C   0  0  0  0  0  0  0  0  0  0  0  0
   57.0240   31.1230   44.8850 O   0  0  0  0  0  0  0  0  0  0  0  0
   55.6040   25.4630   45.9100 C   0  0  0  0  0  0  0  0  0  0  0  0
   54.6970   26.3360   45.9820 O   0  0  0  0  0  0  0  0  0  0  0  0
   55.2650   24.1660   45.7400 N   0  0  0  0  0  0  0  0  0  0  0  0
   56.2030   23.1880   45.6590 C   0  0  0  0  0  0  0  0  0  0  0  0
   55.8200   21.9940   45.5170 O   0  0  0  0  0  0  0  0  0  0  0  0
   57.0343   21.0589   44.0701 H   0  0  0  0  0  0  0  0  0  0  0  0
   57.2707   22.2295   42.7282 H   0  0  0  0  0  0  0  0  0  0  0  0
   58.1637   20.6709   42.7282 H   0  0  0  0  0  0  0  0  0  0  0  0
   59.7808   21.4626   44.1095 H   0  0  0  0  0  0  0  0  0  0  0  0
   59.1250   23.0987   43.6547 H   0  0  0  0  0  0  0  0  0  0  0  0
   58.1356   21.4983   46.0556 H   0  0  0  0  0  0  0  0  0  0  0  0
   59.4585   22.7340   46.1319 H   0  0  0  0  0  0  0  0  0  0  0  0
   60.0820   24.5210   46.0780 H   0  0  0  0  0  0  0  0  0  0  0  0
   59.6000   26.1780   45.6670 H   0  0  0  0  0  0  0  0  0  0  0  0
   60.4545   28.1212   48.0129 H   0  0  0  0  0  0  0  0  0  0  0  0
   59.7782   27.4461   46.4919 H   0  0  0  0  0  0  0  0  0  0  0  0
   61.4065   28.2047   46.4919 H   0  0  0  0  0  0  0  0  0  0  0  0
   61.2000   30.6450   47.7240 H   0  0  0  0  0  0  0  0  0  0  0  0
   58.9931   35.3546   46.8533 H   0  0  0  0  0  0  0  0  0  0  0  0
   56.2916   34.1754   46.1591 H   0  0  0  0  0  0  0  0  0  0  0  0
   57.2877   34.7471   44.7779 H   0  0  0  0  0  0  0  0  0  0  0  0
   56.6266   33.0769   44.7779 H   0  0  0  0  0  0  0  0  0  0  0  0
  1  2  1  0
  2  3  1  0
  3  4  1  0
  4  5  1  0
  5  6  1  0
  5  7  2  0
  7  8  1  0
  8  9  1  0
  9 10  2  0
  9 11  2  0
  9 12  1  0
 12 13  2  0
 13 14  1  0
 13 15  1  0
 15 16  2  0
 16 17  1  0
 17 18  1  0
 18 19  2  0
 19 20  1  0
 19 21  1  0
 21 22  1  0
 22 23  2  0
  7 24  1  0
 24 25  2  0
 24 26  1  0
 26 27  1  0
 27 28  2  0
 27  4  1  0
 22 12  1  0
 21 16  1  0
  1 29  1  0
  1 30  1  0
  1 31  1  0
  2 32  1  0
  2 33  1  0
  3 34  1  0
  3 35  1  0
  6 36  1  0
  6 37  1  0
 14 38  1  0
 14 39  1  0
 14 40  1  0
 15 41  1  0
 18 42  1  0
 20 43  1  0
 20 44  1  0
 20 45  1  0
M  CHG  3   8  -1  15   1  26  -1
M  END
>  <UniqueID>  (69) 
63

>  <SMILES>  (69) 
CCCn1c(N)c([N-]S(=O)(=O)c2c(C)[nH+]c3scc(C)n3c2=O)c(=O)[n-]c1=O

>  <Energy>  (69) 
95.06705835432828

>  <Genealogy>  (69) 
CCCn1c(N)c([N-]S(=O)(=O)c2c(C)[nH+]c3scc(C)n3c2=O)c(=O)[n-]c1=O (protonated)
CCCn1c(N)c([N-]S(=O)(=O)c2c(C)[nH+]c3scc(C)n3c2=O)c(=O)[n-]c1=O (3D coordinates assigned)
CCCn1c(N)c([N-]S(=O)(=O)c2c(C)[nH+]c3scc(C)n3c2=O)c(=O)[n-]c1=O (optimized conformer: 95.06705835432828 kcal/mol)

>  <smiles>  (69) 
CCCn1c(N)c(NS(=O)(=O)c2c(C)nc3scc(C)n3c2=O)c(=O)[nH]c1=O

>  <score_type>  (69) 
oracle

>  <origin>  (69) 
adg

>  <m_score__min__energy>  (69) 
-10.869999999999999

>  <m_primary>  (69) 
energy

$$$$
69:0
     RDKit          3D

 40 41  0  0  0  0  0  0  0  0999 V2000
   59.2020   28.8720   46.4500 C   0  0  0  0  0  0  0  0  0  0  0  0
   59.3460   27.5670   45.1810 S   0  0  0  0  0  0  0  0  0  0  0  0
   57.7210   27.8840   44.4090 C   0  0  0  0  0  0  0  0  0  0  0  0
   57.4440   29.3540   44.3580 C   0  0  0  0  0  0  0  0  0  0  0  0
   56.3430   29.9340   44.8810 N   0  0  0  0  0  0  0  0  0  0  0  0
   56.4590   31.2010   44.5960 O   0  0  0  0  0  0  0  0  0  0  0  0
   57.5740   31.4050   43.9300 C   0  0  0  0  0  0  0  0  0  0  0  0
   58.0190   32.7280   43.3940 C   0  0  0  0  0  0  0  0  0  0  0  0
   57.4650   33.8180   44.2070 N   0  0  0  0  0  0  0  0  0  0  0  0
   58.4720   34.3630   45.1270 C   0  0  0  0  0  0  0  0  0  0  0  0
   58.3690   33.7200   46.4850 C   0  0  0  0  0  0  0  0  0  0  0  0
   57.2250   33.3850   46.8990 O   0  0  0  0  0  0  0  0  0  0  0  0
   59.5280   33.4860   47.3200 N   0  0  0  0  0  0  0  0  0  0  0  0
   59.6880   34.2840   48.5420 C   0  0  0  0  0  0  0  0  0  0  0  0
   60.4850   32.4010   47.0530 C   0  0  0  0  0  0  0  0  0  0  0  0
   61.9050   32.8670   47.2160 C   0  0  0  0  0  0  0  0  0  0  0  0
   62.8640   32.3950   48.0940 C   0  0  0  0  0  0  0  0  0  0  0  0
   64.0050   33.1200   47.8190 C   0  0  0  0  0  0  0  0  0  0  0  0
   63.7690   33.9680   46.8450 O   0  0  0  0  0  0  0  0  0  0  0  0
   62.5210   33.8390   46.4560 C   0  0  0  0  0  0  0  0  0  0  0  0
   58.2410   30.2510   43.7490 N   0  0  0  0  0  0  0  0  0  0  0  0
   59.2521   28.4176   47.4505 H   0  0  0  0  0  0  0  0  0  0  0  0
   60.0263   29.5908   46.3320 H   0  0  0  0  0  0  0  0  0  0  0  0
   58.2408   29.3938   46.3320 H   0  0  0  0  0  0  0  0  0  0  0  0
   57.7210   27.4797   43.3860 H   0  0  0  0  0  0  0  0  0  0  0  0
   56.9398   27.3949   45.0095 H   0  0  0  0  0  0  0  0  0  0  0  0
   59.1176   32.7789   43.4185 H   0  0  0  0  0  0  0  0  0  0  0  0
   57.6606   32.8346   42.3595 H   0  0  0  0  0  0  0  0  0  0  0  0
   56.6930   33.4180   44.7900 H   0  0  0  0  0  0  0  0  0  0  0  0
   59.4745   34.1745   44.7152 H   0  0  0  0  0  0  0  0  0  0  0  0
   58.2966   35.4433   45.2374 H   0  0  0  0  0  0  0  0  0  0  0  0
   59.5583   33.6370   49.4221 H   0  0  0  0  0  0  0  0  0  0  0  0
   60.6934   34.7299   48.5597 H   0  0  0  0  0  0  0  0  0  0  0  0
   58.9322   35.0830   48.5597 H   0  0  0  0  0  0  0  0  0  0  0  0
   60.2963   31.5766   47.7564 H   0  0  0  0  0  0  0  0  0  0  0  0
   60.3481   32.0677   46.0137 H   0  0  0  0  0  0  0  0  0  0  0  0
   62.7424   31.6072   48.8521 H   0  0  0  0  0  0  0  0  0  0  0  0
   64.9680   33.0048   48.3380 H   0  0  0  0  0  0  0  0  0  0  0  0
   62.0425   34.4156   45.6507 H   0  0  0  0  0  0  0  0  0  0  0  0
   59.1440   30.0900   43.2470 H   0  0  0  0  0  0  0  0  0  0  0  0
  1  2  1  0
  2  3  1  0
  3  4  1  0
  4  5  2  0
  5  6  1  0
  6  7  1  0
  7  8  1  0
  8  9  1  0
  9 10  1  0
 10 11  1  0
 11 12  2  0
 11 13  1  0
 13 14  1  0
 13 15  1  0
 15 16  1  0
 16 17  1  0
 17 18  2  0
 18 19  1  0
 19 20  1  0
  7 21  2  0
 21  4  1  0
 20 16  2  0
  1 22  1  0
  1 23  1  0
  1 24  1  0
  3 25  1  0
  3 26  1  0
  8 27  1  0
  8 28  1  0
  9 29  1  0
 10 30  1  0
 10 31  1  0
 14 32  1  0
 14 33  1  0
 14 34  1  0
 15 35  1  0
 15 36  1  0
 17 37  1  0
 18 38  1  0
 20 39  1  0
 21 40  1  0
M  CHG  1  21   1
M  END
>  <UniqueID>  (70) 
64

>  <SMILES>  (70) 
CSCc1noc(CNCC(=O)N(C)Cc2ccoc2)[nH+]1

>  <Energy>  (70) 
89.70189313174201

>  <Genealogy>  (70) 
CSCc1noc(CNCC(=O)N(C)Cc2ccoc2)[nH+]1 (protonated)
CSCc1noc(CNCC(=O)N(C)Cc2ccoc2)[nH+]1 (3D coordinates assigned)
CSCc1noc(CNCC(=O)N(C)Cc2ccoc2)[nH+]1 (optimized conformer: 89.70189313174201 kcal/mol)

>  <smiles>  (70) 
CSCc1noc(CNCC(=O)N(C)Cc2ccoc2)n1

>  <score_type>  (70) 
oracle

>  <origin>  (70) 
adg

>  <m_score__min__energy>  (70) 
-6.1299999999999999

>  <m_primary>  (70) 
energy

$$$$
70:0
     RDKit          3D

 26 27  0  0  0  0  0  0  0  0999 V2000
   57.7760   33.5290   45.3210 C   0  0  0  0  0  0  0  0  0  0  0  0
   58.2110   32.3500   46.1850 C   0  0  0  0  0  0  0  0  0  0  0  0
   58.4810   31.1070   45.3330 C   0  0  0  0  0  0  0  0  0  0  0  0
   57.2310   30.3980   45.0720 N   0  0  0  0  0  0  0  0  0  0  0  0
   56.2000   30.8950   44.4070 N   0  0  0  0  0  0  0  0  0  0  0  0
   55.2670   29.9560   44.2930 N   0  0  0  0  0  0  0  0  0  0  0  0
   55.6920   28.8400   44.8690 N   0  0  0  0  0  0  0  0  0  0  0  0
   56.9200   29.1210   45.3410 C   0  0  0  0  0  0  0  0  0  0  0  0
   57.6920   28.2990   45.9930 N   0  0  0  0  0  0  0  0  0  0  0  0
   57.6020   26.8700   45.9510 C   0  0  0  0  0  0  0  0  0  0  0  0
   58.6560   26.1880   46.0360 O   0  0  0  0  0  0  0  0  0  0  0  0
   56.3190   26.1810   45.7270 C   0  0  0  0  0  0  0  0  0  0  0  0
   56.1370   24.9000   45.2440 C   0  0  0  0  0  0  0  0  0  0  0  0
   54.7690   24.7640   45.2560 C   0  0  0  0  0  0  0  0  0  0  0  0
   54.1360   23.7390   44.8910 O   0  0  0  0  0  0  0  0  0  0  0  0
   54.1780   25.8810   45.7170 N   0  0  0  0  0  0  0  0  0  0  0  0
   55.1440   26.7100   45.9920 O   0  0  0  0  0  0  0  0  0  0  0  0
   57.4680   34.3637   45.9679 H   0  0  0  0  0  0  0  0  0  0  0  0
   58.6157   33.8477   44.6860 H   0  0  0  0  0  0  0  0  0  0  0  0
   56.9305   33.2260   44.6860 H   0  0  0  0  0  0  0  0  0  0  0  0
   59.1302   32.6211   46.7250 H   0  0  0  0  0  0  0  0  0  0  0  0
   57.3997   32.1182   46.8907 H   0  0  0  0  0  0  0  0  0  0  0  0
   58.9331   31.4116   44.3776 H   0  0  0  0  0  0  0  0  0  0  0  0
   59.1674   30.4401   45.8753 H   0  0  0  0  0  0  0  0  0  0  0  0
   55.1430   27.9550   44.9420 H   0  0  0  0  0  0  0  0  0  0  0  0
   56.8972   24.1703   44.9283 H   0  0  0  0  0  0  0  0  0  0  0  0
  1  2  1  0
  2  3  1  0
  3  4  1  0
  4  5  1  0
  5  6  1  0
  6  7  2  0
  7  8  1  0
  8  9  2  3
  9 10  1  0
 10 11  2  0
 10 12  1  0
 12 13  2  0
 13 14  1  0
 14 15  2  0
 14 16  1  0
 16 17  1  0
  8  4  1  0
 17 12  1  0
  1 18  1  0
  1 19  1  0
  1 20  1  0
  2 21  1  0
  2 22  1  0
  3 23  1  0
  3 24  1  0
  7 25  1  0
 13 26  1  0
M  CHG  3   5  -1   7   1  16  -1
M  END
>  <UniqueID>  (71) 
65

>  <SMILES>  (71) 
CCCn1[n-]n[nH+]c1=NC(=O)c1cc(=O)[n-]o1

>  <Energy>  (71) 
100.54372759809561

>  <Genealogy>  (71) 
CCCn1[n-]n[nH+]c1=NC(=O)c1cc(=O)[n-]o1 (protonated)
CCCn1[n-]n[nH+]c1=NC(=O)c1cc(=O)[n-]o1 (3D coordinates assigned)
CCCn1[n-]n[nH+]c1=NC(=O)c1cc(=O)[n-]o1 (optimized conformer: 100.54372759809561 kcal/mol)

>  <smiles>  (71) 
CCCn1[nH]nnc1=NC(=O)c1cc(=O)[nH]o1

>  <score_type>  (71) 
oracle

>  <origin>  (71) 
adg

>  <m_score__min__energy>  (71) 
-10.58

>  <m_primary>  (71) 
energy

$$$$
71:0
     RDKit          3D

 51 53  0  0  0  0  0  0  0  0999 V2000
   56.6510   30.8550   42.6860 C   0  0  0  0  0  0  0  0  0  0  0  0
   57.2410   31.4110   43.9400 C   0  0  0  0  0  0  0  0  0  0  0  0
   56.9060   30.9200   45.0520 O   0  0  0  0  0  0  0  0  0  0  0  0
   58.2490   32.4310   43.8640 N   0  0  0  0  0  0  0  0  0  0  0  0
   58.7410   33.1670   44.9970 C   0  0  0  0  0  0  0  0  0  0  0  0
   58.9790   34.5430   44.8710 C   0  0  0  0  0  0  0  0  0  0  0  0
   59.4440   35.2820   45.9600 C   0  0  0  0  0  0  0  0  0  0  0  0
   59.6580   34.6580   47.1910 C   0  0  0  0  0  0  0  0  0  0  0  0
   59.3940   33.2900   47.3510 C   0  0  0  0  0  0  0  0  0  0  0  0
   59.6120   32.6770   48.6350 N   0  0  0  0  0  0  0  0  0  0  0  0
   59.8160   31.2690   48.8210 C   0  0  0  0  0  0  0  0  0  0  0  0
   59.1450   30.3710   47.9800 C   0  0  0  0  0  0  0  0  0  0  0  0
   59.2930   28.9830   48.1390 C   0  0  0  0  0  0  0  0  0  0  0  0
   58.5800   28.0650   47.2800 N   0  0  0  0  0  0  0  0  0  0  0  0
   58.1420   26.7570   47.7940 C   0  0  0  0  0  0  0  0  0  0  0  0
   58.1180   25.7180   46.6680 C   0  0  0  0  0  0  0  0  0  0  0  0
   57.2350   26.1580   45.4700 C   0  0  0  0  0  0  0  0  0  0  0  0
   55.9040   25.4540   45.4850 C   0  0  0  0  0  0  0  0  0  0  0  0
   54.7440   26.1350   45.9590 N   0  0  0  0  0  0  0  0  0  0  0  0
   55.8110   24.2570   45.1000 O   0  0  0  0  0  0  0  0  0  0  0  0
   57.0250   27.6870   45.3950 C   0  0  0  0  0  0  0  0  0  0  0  0
   58.2520   28.4530   45.8980 C   0  0  0  0  0  0  0  0  0  0  0  0
   60.1400   28.5030   49.1520 C   0  0  0  0  0  0  0  0  0  0  0  0
   60.8330   29.3910   49.9770 C   0  0  0  0  0  0  0  0  0  0  0  0
   60.6900   30.7750   49.8140 C   0  0  0  0  0  0  0  0  0  0  0  0
   61.4600   31.6610   50.6370 N   0  0  0  0  0  0  0  0  0  0  0  0
   58.9360   32.5480   46.2450 C   0  0  0  0  0  0  0  0  0  0  0  0
   55.8723   30.1212   42.9411 H   0  0  0  0  0  0  0  0  0  0  0  0
   56.2071   31.6708   42.0966 H   0  0  0  0  0  0  0  0  0  0  0  0
   57.4390   30.3635   42.0966 H   0  0  0  0  0  0  0  0  0  0  0  0
   58.7090   32.5900   42.9380 H   0  0  0  0  0  0  0  0  0  0  0  0
   58.7982   35.0432   43.9081 H   0  0  0  0  0  0  0  0  0  0  0  0
   59.6423   36.3582   45.8484 H   0  0  0  0  0  0  0  0  0  0  0  0
   60.0365   35.2440   48.0415 H   0  0  0  0  0  0  0  0  0  0  0  0
   59.7680   33.2980   49.4620 H   0  0  0  0  0  0  0  0  0  0  0  0
   58.4928   30.7587   47.1836 H   0  0  0  0  0  0  0  0  0  0  0  0
   58.8382   26.4248   48.5782 H   0  0  0  0  0  0  0  0  0  0  0  0
   57.1270   26.8586   48.2057 H   0  0  0  0  0  0  0  0  0  0  0  0
   59.1463   25.5628   46.3097 H   0  0  0  0  0  0  0  0  0  0  0  0
   57.6875   24.7923   47.0774 H   0  0  0  0  0  0  0  0  0  0  0  0
   57.7902   25.8643   44.5669 H   0  0  0  0  0  0  0  0  0  0  0  0
   54.8190   27.0820   46.3940 H   0  0  0  0  0  0  0  0  0  0  0  0
   56.8324   27.9694   44.3495 H   0  0  0  0  0  0  0  0  0  0  0  0
   56.1711   27.9476   46.0376 H   0  0  0  0  0  0  0  0  0  0  0  0
   59.1096   28.2279   45.2470 H   0  0  0  0  0  0  0  0  0  0  0  0
   58.0283   29.5298   45.8777 H   0  0  0  0  0  0  0  0  0  0  0  0
   60.2581   27.4189   49.2963 H   0  0  0  0  0  0  0  0  0  0  0  0
   61.4972   29.0004   50.7620 H   0  0  0  0  0  0  0  0  0  0  0  0
   62.1420   32.3260   50.2090 H   0  0  0  0  0  0  0  0  0  0  0  0
   61.3250   31.7060   51.6710 H   0  0  0  0  0  0  0  0  0  0  0  0
   58.7287   31.4737   46.3582 H   0  0  0  0  0  0  0  0  0  0  0  0
  1  2  1  0
  2  3  2  0
  2  4  1  0
  4  5  1  0
  5  6  2  0
  6  7  1  0
  7  8  2  0
  8  9  1  0
  9 10  1  0
 10 11  1  0
 11 12  2  0
 12 13  1  0
 13 14  1  0
 14 15  1  0
 15 16  1  0
 16 17  1  0
 17 18  1  0
 18 19  1  0
 18 20  2  0
 17 21  1  0
 21 22  1  0
 13 23  2  0
 23 24  1  0
 24 25  2  0
 25 26  1  0
  9 27  2  0
 27  5  1  0
 25 11  1  0
 22 14  1  0
  1 28  1  0
  1 29  1  0
  1 30  1  0
  4 31  1  0
  6 32  1  0
  7 33  1  0
  8 34  1  0
 10 35  1  0
 12 36  1  0
 15 37  1  0
 15 38  1  0
 16 39  1  0
 16 40  1  0
 17 41  1  0
 19 42  1  0
 21 43  1  0
 21 44  1  0
 22 45  1  0
 22 46  1  0
 23 47  1  0
 24 48  1  0
 26 49  1  0
 26 50  1  0
 27 51  1  0
M  CHG  1  19  -1
M  END
>  <UniqueID>  (72) 
66

>  <SMILES>  (72) 
CC(=O)Nc1cccc(Nc2cc(N3CCC(C([NH-])=O)CC3)ccc2N)c1

>  <Energy>  (72) 
64.61896010922493

>  <Genealogy>  (72) 
CC(=O)Nc1cccc(Nc2cc(N3CCC(C([NH-])=O)CC3)ccc2N)c1 (protonated)
CC(=O)Nc1cccc(Nc2cc(N3CCC(C([NH-])=O)CC3)ccc2N)c1 (3D coordinates assigned)
CC(=O)Nc1cccc(Nc2cc(N3CCC(C([NH-])=O)CC3)ccc2N)c1 (nonaromatic ring conformer: 64.61896010922493 kcal/mol)

>  <smiles>  (72) 
CC(=O)Nc1cccc(Nc2cc(N3CCC(C(N)=O)CC3)ccc2N)c1

>  <score_type>  (72) 
oracle

>  <origin>  (72) 
adg

>  <m_score__min__energy>  (72) 
-11.84

>  <m_primary>  (72) 
energy

$$$$
72:0
     RDKit          3D

 15 15  0  0  0  0  0  0  0  0999 V2000
   53.1850   28.7410   51.6000 H   0  0  0  0  0  0  0  0  0  0  0  0
   52.2790   29.0240   52.0390 N   0  0  0  0  0  0  0  0  0  0  0  0
   51.8620   30.2530   52.0520 C   0  0  0  0  0  0  0  0  0  0  0  0
   51.8550   31.0080   50.8700 C   0  0  0  0  0  0  0  0  0  0  0  0
   52.2034   30.5619   49.9268 H   0  0  0  0  0  0  0  0  0  0  0  0
   51.4040   32.3270   50.8970 C   0  0  0  0  0  0  0  0  0  0  0  0
   51.3940   33.0840   49.7340 O   0  0  0  0  0  0  0  0  0  0  0  0
   50.9750   32.8750   52.0630 N   0  0  0  0  0  0  0  0  0  0  0  0
   50.9640   32.1790   53.2330 C   0  0  0  0  0  0  0  0  0  0  0  0
   50.4950   32.8310   54.4190 N   0  0  0  0  0  0  0  0  0  0  0  0
   50.7200   32.4300   55.3560 H   0  0  0  0  0  0  0  0  0  0  0  0
   49.9290   33.7070   54.3840 H   0  0  0  0  0  0  0  0  0  0  0  0
   51.4120   30.8400   53.2520 C   0  0  0  0  0  0  0  0  0  0  0  0
   51.4110   30.0760   54.4810 C   0  0  0  0  0  0  0  0  0  0  0  0
   51.4100   29.4660   55.4640 N   0  0  0  0  0  0  0  0  0  0  0  0
  1  2  1  0
  2  3  2  0
  3  4  1  0
  4  5  1  0
  4  6  2  0
  6  7  1  0
  6  8  1  0
  8  9  1  0
  9 10  1  0
 10 11  1  0
 10 12  1  0
  9 13  2  0
 13 14  1  0
 14 15  3  0
 13  3  1  0
M  CHG  2   7  -1   8  -1
M  END
>  <UniqueID>  (73) 
67

>  <SMILES>  (73) 
[H]/N=c1\cc([O-])[n-]c(N)c1C#N

>  <Energy>  (73) 
15.623446233351967

>  <Genealogy>  (73) 
N#Cc1c(N)[n-]c([O-])cc1=N (protonated)
[H]/N=c1\cc([O-])[n-]c(N)c1C#N (cis-trans isomerization)
[H]/N=c1\cc([O-])[n-]c(N)c1C#N (3D coordinates assigned)
[H]/N=c1\cc([O-])[n-]c(N)c1C#N (optimized conformer: 15.623446233351967 kcal/mol)

>  <smiles>  (73) 
N#Cc1c(N)[nH]c(O)cc1=N

>  <score_type>  (73) 
oracle

>  <origin>  (73) 
adg

>  <m_score__min__energy>  (73) 
-10.4

>  <m_primary>  (73) 
energy

$$$$
73:0
     RDKit          3D

 42 44  0  0  0  0  0  0  0  0999 V2000
   59.8979   35.6752   47.5875 H   0  0  0  0  0  0  0  0  0  0  0  0
   59.4080   34.9410   46.9310 C   0  0  0  0  0  0  0  0  0  0  0  0
   58.5790   33.9590   47.4780 C   0  0  0  0  0  0  0  0  0  0  0  0
   58.4149   33.9223   48.5651 H   0  0  0  0  0  0  0  0  0  0  0  0
   57.9570   33.0220   46.6460 C   0  0  0  0  0  0  0  0  0  0  0  0
   57.3011   32.2538   47.0815 H   0  0  0  0  0  0  0  0  0  0  0  0
   58.1660   33.0570   45.2550 C   0  0  0  0  0  0  0  0  0  0  0  0
   57.5040   32.0610   44.3750 C   0  0  0  0  0  0  0  0  0  0  0  0
   57.4230   32.2830   43.1370 O   0  0  0  0  0  0  0  0  0  0  0  0
   57.0180   30.8090   44.8820 N   0  0  0  0  0  0  0  0  0  0  0  0
   57.7330   29.7870   45.2690 C   0  0  0  0  0  0  0  0  0  0  0  0
   57.4780   28.4720   44.8340 C   0  0  0  0  0  0  0  0  0  0  0  0
   56.6429   28.2675   44.1479 H   0  0  0  0  0  0  0  0  0  0  0  0
   58.2930   27.4300   45.2800 C   0  0  0  0  0  0  0  0  0  0  0  0
   58.0988   26.4011   44.9430 H   0  0  0  0  0  0  0  0  0  0  0  0
   59.3260   27.6800   46.1290 N   0  0  0  0  0  0  0  0  0  0  0  0
   59.9360   26.8810   46.4140 H   0  0  0  0  0  0  0  0  0  0  0  0
   59.5950   28.9430   46.5710 C   0  0  0  0  0  0  0  0  0  0  0  0
   60.6680   29.2010   47.4360 O   0  0  0  0  0  0  0  0  0  0  0  0
   61.0730   30.4740   47.8620 C   0  0  0  0  0  0  0  0  0  0  0  0
   60.5820   30.9630   49.0730 C   0  0  0  0  0  0  0  0  0  0  0  0
   59.8820   30.3541   49.6639 H   0  0  0  0  0  0  0  0  0  0  0  0
   60.9720   32.2180   49.5400 C   0  0  0  0  0  0  0  0  0  0  0  0
   60.5695   32.5943   50.4920 H   0  0  0  0  0  0  0  0  0  0  0  0
   61.8740   33.0060   48.8060 C   0  0  0  0  0  0  0  0  0  0  0  0
   62.2740   34.3590   49.3350 C   0  0  0  0  0  0  0  0  0  0  0  0
   62.2681   34.3391   50.4348 H   0  0  0  0  0  0  0  0  0  0  0  0
   63.2842   34.6082   48.9782 H   0  0  0  0  0  0  0  0  0  0  0  0
   61.5617   35.1175   48.9782 H   0  0  0  0  0  0  0  0  0  0  0  0
   62.3880   32.5130   47.5830 C   0  0  0  0  0  0  0  0  0  0  0  0
   63.3730   33.3140   46.7710 C   0  0  0  0  0  0  0  0  0  0  0  0
   64.0462   33.8614   47.4471 H   0  0  0  0  0  0  0  0  0  0  0  0
   63.9625   32.6358   46.1366 H   0  0  0  0  0  0  0  0  0  0  0  0
   62.8292   34.0294   46.1366 H   0  0  0  0  0  0  0  0  0  0  0  0
   61.9910   31.2440   47.1280 C   0  0  0  0  0  0  0  0  0  0  0  0
   62.4032   30.8494   46.1875 H   0  0  0  0  0  0  0  0  0  0  0  0
   58.8140   30.0140   46.1270 C   0  0  0  0  0  0  0  0  0  0  0  0
   59.0501   31.0376   46.4532 H   0  0  0  0  0  0  0  0  0  0  0  0
   58.9950   34.0580   44.7140 C   0  0  0  0  0  0  0  0  0  0  0  0
   59.1559   34.1065   43.6269 H   0  0  0  0  0  0  0  0  0  0  0  0
   59.6150   34.9910   45.5510 C   0  0  0  0  0  0  0  0  0  0  0  0
   60.2670   35.7658   45.1214 H   0  0  0  0  0  0  0  0  0  0  0  0
  1  2  1  0
  2  3  2  0
  3  4  1  0
  3  5  1  0
  5  6  1  0
  5  7  2  0
  7  8  1  0
  8  9  2  0
  8 10  1  0
 10 11  2  0
 11 12  1  0
 12 13  1  0
 12 14  2  0
 14 15  1  0
 14 16  1  0
 16 17  1  0
 16 18  1  0
 18 19  1  0
 19 20  1  0
 20 21  2  0
 21 22  1  0
 21 23  1  0
 23 24  1  0
 23 25  2  0
 25 26  1  0
 26 27  1  0
 26 28  1  0
 26 29  1  0
 25 30  1  0
 30 31  1  0
 31 32  1  0
 31 33  1  0
 31 34  1  0
 30 35  2  0
 35 36  1  0
 18 37  2  0
 37 38  1  0
  7 39  1  0
 39 40  1  0
 39 41  2  0
 41 42  1  0
 41  2  1  0
 37 11  1  0
 35 20  1  0
M  END
>  <UniqueID>  (74) 
68

>  <SMILES>  (74) 
Cc1ccc(Oc2c/c(=N/C(=O)c3ccccc3)cc[nH]2)cc1C

>  <Energy>  (74) 
61.13920352869046

>  <Genealogy>  (74) 
Cc1ccc(Oc2c/c(=N/C(=O)c3ccccc3)cc[nH]2)cc1C (cis-trans isomerization)
Cc1ccc(Oc2c/c(=N/C(=O)c3ccccc3)cc[nH]2)cc1C (3D coordinates assigned)
Cc1ccc(Oc2c/c(=N/C(=O)c3ccccc3)cc[nH]2)cc1C (optimized conformer: 61.13920352869046 kcal/mol)

>  <smiles>  (74) 
Cc1ccc(Oc2cc(=NC(=O)c3ccccc3)cc[nH]2)cc1C

>  <score_type>  (74) 
oracle

>  <origin>  (74) 
adg

>  <m_score__min__energy>  (74) 
-8.6699999999999999

>  <m_primary>  (74) 
energy

$$$$
74:0
     RDKit          3D

 51 54  0  0  0  0  0  0  0  0999 V2000
   53.1730   24.0720   45.8400 O   0  0  0  0  0  0  0  0  0  0  0  0
   54.2880   24.6410   45.6880 C   0  0  0  0  0  0  0  0  0  0  0  0
   54.3990   25.9610   45.9620 N   0  0  0  0  0  0  0  0  0  0  0  0
   55.5560   26.6050   45.8260 N   0  0  0  0  0  0  0  0  0  0  0  0
   56.6910   25.9860   45.4030 C   0  0  0  0  0  0  0  0  0  0  0  0
   57.9560   26.8160   45.2980 C   0  0  0  0  0  0  0  0  0  0  0  0
   58.0500   27.9190   46.3740 C   0  0  0  0  0  0  0  0  0  0  0  0
   57.9390   29.3350   45.8270 C   0  0  0  0  0  0  0  0  0  0  0  0
   57.3520   29.5230   44.5600 C   0  0  0  0  0  0  0  0  0  0  0  0
   57.1740   30.8020   44.0350 C   0  0  0  0  0  0  0  0  0  0  0  0
   57.5990   31.9150   44.7520 C   0  0  0  0  0  0  0  0  0  0  0  0
   58.2360   31.7520   45.9820 C   0  0  0  0  0  0  0  0  0  0  0  0
   58.4390   30.4710   46.5240 C   0  0  0  0  0  0  0  0  0  0  0  0
   59.3920   30.3440   48.0160 S   0  0  0  0  0  0  0  0  0  0  0  0
   58.4990   29.8500   49.1210 O   0  0  0  0  0  0  0  0  0  0  0  0
   60.5070   29.3550   47.8260 O   0  0  0  0  0  0  0  0  0  0  0  0
   60.0740   31.8850   48.4340 N   0  0  0  0  0  0  0  0  0  0  0  0
   61.3070   32.3570   47.8680 C   0  0  0  0  0  0  0  0  0  0  0  0
   62.4960   31.6860   48.1910 C   0  0  0  0  0  0  0  0  0  0  0  0
   63.7150   32.0900   47.6420 C   0  0  0  0  0  0  0  0  0  0  0  0
   63.7630   33.1860   46.7800 C   0  0  0  0  0  0  0  0  0  0  0  0
   62.5940   33.8910   46.4830 C   0  0  0  0  0  0  0  0  0  0  0  0
   61.3660   33.4920   47.0280 C   0  0  0  0  0  0  0  0  0  0  0  0
   59.9630   34.5040   46.7130 Cl  0  0  0  0  0  0  0  0  0  0  0  0
   56.6250   24.6190   45.0310 C   0  0  0  0  0  0  0  0  0  0  0  0
   55.4070   23.9240   45.2370 C   0  0  0  0  0  0  0  0  0  0  0  0
   55.2630   22.4520   44.9090 C   0  0  0  0  0  0  0  0  0  0  0  0
   56.6080   21.7330   44.8440 C   0  0  0  0  0  0  0  0  0  0  0  0
   57.5610   22.5040   43.9390 C   0  0  0  0  0  0  0  0  0  0  0  0
   57.8580   23.8870   44.5250 C   0  0  0  0  0  0  0  0  0  0  0  0
   58.8229   26.1475   45.4058 H   0  0  0  0  0  0  0  0  0  0  0  0
   57.9392   27.3155   44.3181 H   0  0  0  0  0  0  0  0  0  0  0  0
   57.2369   27.7643   47.0986 H   0  0  0  0  0  0  0  0  0  0  0  0
   59.0480   27.8330   46.8286 H   0  0  0  0  0  0  0  0  0  0  0  0
   57.0295   28.6479   43.9767 H   0  0  0  0  0  0  0  0  0  0  0  0
   56.6968   30.9310   43.0523 H   0  0  0  0  0  0  0  0  0  0  0  0
   57.4327   32.9248   44.3488 H   0  0  0  0  0  0  0  0  0  0  0  0
   58.5839   32.6370   46.5349 H   0  0  0  0  0  0  0  0  0  0  0  0
   59.7460   32.3090   49.3300 H   0  0  0  0  0  0  0  0  0  0  0  0
   62.4678   30.8324   48.8842 H   0  0  0  0  0  0  0  0  0  0  0  0
   64.6374   31.5440   47.8892 H   0  0  0  0  0  0  0  0  0  0  0  0
   64.7203   33.4947   46.3347 H   0  0  0  0  0  0  0  0  0  0  0  0
   62.6377   34.7652   45.8168 H   0  0  0  0  0  0  0  0  0  0  0  0
   54.6459   21.9763   45.6855 H   0  0  0  0  0  0  0  0  0  0  0  0
   54.7947   22.3751   43.9166 H   0  0  0  0  0  0  0  0  0  0  0  0
   57.0366   21.6677   45.8549 H   0  0  0  0  0  0  0  0  0  0  0  0
   56.4602   20.7212   44.4386 H   0  0  0  0  0  0  0  0  0  0  0  0
   58.5019   21.9424   43.8423 H   0  0  0  0  0  0  0  0  0  0  0  0
   57.0906   22.6297   42.9526 H   0  0  0  0  0  0  0  0  0  0  0  0
   58.5572   23.7643   45.3653 H   0  0  0  0  0  0  0  0  0  0  0  0
   58.2790   24.4952   43.7109 H   0  0  0  0  0  0  0  0  0  0  0  0
  1  2  2  0
  2  3  1  0
  3  4  1  0
  4  5  2  0
  5  6  1  0
  6  7  1  0
  7  8  1  0
  8  9  2  0
  9 10  1  0
 10 11  2  0
 11 12  1  0
 12 13  2  0
 13 14  1  0
 14 15  2  0
 14 16  2  0
 14 17  1  0
 17 18  1  0
 18 19  2  0
 19 20  1  0
 20 21  2  0
 21 22  1  0
 22 23  2  0
 23 24  1  0
  5 25  1  0
 25 26  2  0
 26 27  1  0
 27 28  1  0
 28 29  1  0
 29 30  1  0
 26  2  1  0
 13  8  1  0
 23 18  1  0
 30 25  1  0
  6 31  1  0
  6 32  1  0
  7 33  1  0
  7 34  1  0
  9 35  1  0
 10 36  1  0
 11 37  1  0
 12 38  1  0
 17 39  1  0
 19 40  1  0
 20 41  1  0
 21 42  1  0
 22 43  1  0
 27 44  1  0
 27 45  1  0
 28 46  1  0
 28 47  1  0
 29 48  1  0
 29 49  1  0
 30 50  1  0
 30 51  1  0
M  CHG  1   3  -1
M  END
>  <UniqueID>  (75) 
69

>  <SMILES>  (75) 
O=c1[n-]nc(CCc2ccccc2S(=O)(=O)Nc2ccccc2Cl)c2c1CCCC2

>  <Energy>  (75) 
66.82245613396145

>  <Genealogy>  (75) 
O=c1[n-]nc(CCc2ccccc2S(=O)(=O)Nc2ccccc2Cl)c2c1CCCC2 (protonated)
O=c1[n-]nc(CCc2ccccc2S(=O)(=O)Nc2ccccc2Cl)c2c1CCCC2 (3D coordinates assigned)
O=c1[n-]nc(CCc2ccccc2S(=O)(=O)Nc2ccccc2Cl)c2c1CCCC2 (nonaromatic ring conformer: 66.82245613396145 kcal/mol)

>  <smiles>  (75) 
O=c1[nH]nc(CCc2ccccc2S(=O)(=O)Nc2ccccc2Cl)c2c1CCCC2

>  <score_type>  (75) 
oracle

>  <origin>  (75) 
adg

>  <m_score__min__energy>  (75) 
-13

>  <m_primary>  (75) 
energy

$$$$
75:0
     RDKit          3D

 41 43  0  0  0  0  0  0  0  0999 V2000
   58.5560   34.6620   44.8850 C   0  0  0  0  0  0  0  0  0  0  0  0
   57.7380   33.5020   44.9930 O   0  0  0  0  0  0  0  0  0  0  0  0
   58.1640   32.2800   45.5350 C   0  0  0  0  0  0  0  0  0  0  0  0
   58.1960   32.1460   46.9280 C   0  0  0  0  0  0  0  0  0  0  0  0
   58.6100   30.9480   47.5150 C   0  0  0  0  0  0  0  0  0  0  0  0
   58.9970   29.8700   46.7100 C   0  0  0  0  0  0  0  0  0  0  0  0
   58.9790   29.9890   45.3220 C   0  0  0  0  0  0  0  0  0  0  0  0
   58.5580   31.1930   44.7300 C   0  0  0  0  0  0  0  0  0  0  0  0
   59.3830   28.8070   44.4720 C   0  0  2  0  0  0  0  0  0  0  0  0
   58.1740   28.1650   43.7800 C   0  0  0  0  0  0  0  0  0  0  0  0
   60.1820   27.8460   45.1600 O   0  0  0  0  0  0  0  0  0  0  0  0
   59.7080   27.4750   46.4520 C   0  0  2  0  0  0  0  0  0  0  0  0
   58.5480   26.4980   46.3790 C   0  0  0  0  0  0  0  0  0  0  0  0
   58.7370   25.1040   46.3290 C   0  0  0  0  0  0  0  0  0  0  0  0
   57.6380   24.2420   46.2660 C   0  0  0  0  0  0  0  0  0  0  0  0
   56.3280   24.7540   46.2470 C   0  0  0  0  0  0  0  0  0  0  0  0
   55.2040   23.9160   46.1880 O   0  0  0  0  0  0  0  0  0  0  0  0
   54.5820   23.4810   44.9830 C   0  0  0  0  0  0  0  0  0  0  0  0
   56.1380   26.1470   46.2880 C   0  0  0  0  0  0  0  0  0  0  0  0
   54.8560   26.6980   46.2690 O   0  0  0  0  0  0  0  0  0  0  0  0
   57.2400   27.0050   46.3500 C   0  0  0  0  0  0  0  0  0  0  0  0
   59.4250   28.6410   47.2910 N   0  0  0  0  0  0  0  0  0  0  0  0
   58.8120   35.0251   45.8913 H   0  0  0  0  0  0  0  0  0  0  0  0
   59.4780   34.4110   44.3401 H   0  0  0  0  0  0  0  0  0  0  0  0
   58.0100   35.4462   44.3401 H   0  0  0  0  0  0  0  0  0  0  0  0
   57.8930   32.9901   47.5649 H   0  0  0  0  0  0  0  0  0  0  0  0
   58.6320   30.8515   48.6105 H   0  0  0  0  0  0  0  0  0  0  0  0
   58.5362   31.2865   43.6342 H   0  0  0  0  0  0  0  0  0  0  0  0
   60.0373   29.2161   43.6881 H   0  0  0  0  0  0  0  0  0  0  0  0
   57.4718   27.7921   44.5401 H   0  0  0  0  0  0  0  0  0  0  0  0
   57.6704   28.9145   43.1518 H   0  0  0  0  0  0  0  0  0  0  0  0
   58.5128   27.3280   43.1518 H   0  0  0  0  0  0  0  0  0  0  0  0
   60.5255   26.9342   46.9512 H   0  0  0  0  0  0  0  0  0  0  0  0
   59.7561   24.6901   46.3396 H   0  0  0  0  0  0  0  0  0  0  0  0
   57.7991   23.1544   46.2310 H   0  0  0  0  0  0  0  0  0  0  0  0
   53.7028   22.8661   45.2255 H   0  0  0  0  0  0  0  0  0  0  0  0
   54.2667   24.3565   44.3964 H   0  0  0  0  0  0  0  0  0  0  0  0
   55.2961   22.8844   44.3964 H   0  0  0  0  0  0  0  0  0  0  0  0
   54.0230   26.1320   46.3760 H   0  0  0  0  0  0  0  0  0  0  0  0
   57.0794   28.0929   46.3764 H   0  0  0  0  0  0  0  0  0  0  0  0
   59.4470   28.5340   48.3310 H   0  0  0  0  0  0  0  0  0  0  0  0
  1  2  1  0
  2  3  1  0
  3  4  2  0
  4  5  1  0
  5  6  2  0
  6  7  1  0
  7  8  2  0
  7  9  1  0
  9 10  1  0
  9 11  1  0
 11 12  1  0
 12 13  1  0
 13 14  2  0
 14 15  1  0
 15 16  2  0
 16 17  1  0
 17 18  1  0
 16 19  1  0
 19 20  1  0
 19 21  2  0
 12 22  1  0
  8  3  1  0
 21 13  1  0
 22  6  1  0
  1 23  1  0
  1 24  1  0
  1 25  1  0
  4 26  1  0
  5 27  1  0
  8 28  1  0
  9 29  1  6
 10 30  1  0
 10 31  1  0
 10 32  1  0
 12 33  1  1
 14 34  1  0
 15 35  1  0
 18 36  1  0
 18 37  1  0
 18 38  1  0
 20 39  1  0
 21 40  1  0
 22 41  1  0
M  END
>  <UniqueID>  (76) 
70

>  <SMILES>  (76) 
COc1ccc2c(c1)[C@H](C)O[C@H](c1ccc(OC)c(O)c1)N2

>  <Energy>  (76) 
50.82812410317273

>  <Genealogy>  (76) 
COc1ccc2c(c1)[C@H](C)O[C@H](c1ccc(OC)c(O)c1)N2 (chirality)
COc1ccc2c(c1)[C@H](C)O[C@H](c1ccc(OC)c(O)c1)N2 (3D coordinates assigned)
COc1ccc2c(c1)[C@H](C)O[C@H](c1ccc(OC)c(O)c1)N2 (nonaromatic ring conformer: 50.82812410317273 kcal/mol)

>  <smiles>  (76) 
COc1ccc2c(c1)C(C)OC(c1ccc(OC)c(O)c1)N2

>  <score_type>  (76) 
oracle

>  <origin>  (76) 
adg

>  <m_score__min__energy>  (76) 
-7.0599999999999996

>  <m_primary>  (76) 
energy

$$$$
76:0
     RDKit          3D

 60 63  0  0  0  0  0  0  0  0999 V2000
   57.8160   28.6380   43.8260 C   0  0  0  0  0  0  0  0  0  0  0  0
   56.5480   29.8110   44.2600 S   0  0  0  0  0  0  0  0  0  0  0  0
   55.5090   29.1180   45.0960 O   0  0  0  0  0  0  0  0  0  0  0  0
   55.8940   30.3440   43.0160 O   0  0  0  0  0  0  0  0  0  0  0  0
   57.2230   31.1240   45.1790 N   0  0  0  0  0  0  0  0  0  0  0  0
   57.3380   32.3260   44.3500 C   0  0  0  0  0  0  0  0  0  0  0  0
   57.1950   33.5870   45.2300 C   0  0  0  0  0  0  0  0  0  0  0  0
   57.2390   33.2310   46.7420 C   0  0  0  0  0  0  0  0  0  0  0  0
   58.5730   33.5780   47.4340 C   0  0  0  0  0  0  0  0  0  0  0  0
   59.7040   33.4710   46.5030 N   0  0  0  0  0  0  0  0  0  0  0  0
   60.9610   32.9590   46.9750 C   0  0  0  0  0  0  0  0  0  0  0  0
   62.0900   33.7930   46.9460 C   0  0  0  0  0  0  0  0  0  0  0  0
   63.3280   33.3240   47.3840 C   0  0  0  0  0  0  0  0  0  0  0  0
   63.4490   32.0220   47.8640 C   0  0  0  0  0  0  0  0  0  0  0  0
   62.3350   31.1810   47.9050 C   0  0  0  0  0  0  0  0  0  0  0  0
   61.0800   31.6260   47.4490 C   0  0  0  0  0  0  0  0  0  0  0  0
   59.9220   30.7650   47.4940 N   0  0  0  0  0  0  0  0  0  0  0  0
   59.8010   29.3040   48.4290 S   0  0  0  0  0  0  0  0  0  0  0  0
   61.1270   28.9240   49.0250 O   0  0  0  0  0  0  0  0  0  0  0  0
   58.8480   29.5560   49.5640 O   0  0  0  0  0  0  0  0  0  0  0  0
   59.1750   27.9930   47.4300 C   0  0  0  0  0  0  0  0  0  0  0  0
   60.0310   26.9850   46.9650 C   0  0  0  0  0  0  0  0  0  0  0  0
   59.5280   25.9260   46.2060 C   0  0  0  0  0  0  0  0  0  0  0  0
   58.1540   25.8510   45.9070 C   0  0  0  0  0  0  0  0  0  0  0  0
   57.5960   24.7170   45.1290 C   0  0  0  0  0  0  0  0  0  0  0  0
   57.1630   24.8720   43.8030 C   0  0  0  0  0  0  0  0  0  0  0  0
   56.6560   23.7690   43.1160 C   0  0  0  0  0  0  0  0  0  0  0  0
   56.5950   22.5360   43.7600 C   0  0  0  0  0  0  0  0  0  0  0  0
   56.1410   21.5250   43.1630 O   0  0  0  0  0  0  0  0  0  0  0  0
   57.0360   22.4280   45.0400 N   0  0  0  0  0  0  0  0  0  0  0  0
   57.5220   23.4820   45.7000 N   0  0  0  0  0  0  0  0  0  0  0  0
   57.3070   26.8850   46.3460 C   0  0  0  0  0  0  0  0  0  0  0  0
   57.8140   27.9450   47.1020 C   0  0  0  0  0  0  0  0  0  0  0  0
   59.6680   34.1810   45.2160 C   0  0  0  0  0  0  0  0  0  0  0  0
   58.2490   34.6590   44.8780 C   0  0  0  0  0  0  0  0  0  0  0  0
   58.2626   28.2249   44.7425 H   0  0  0  0  0  0  0  0  0  0  0  0
   57.3744   27.8230   43.2337 H   0  0  0  0  0  0  0  0  0  0  0  0
   58.5942   29.1416   43.2337 H   0  0  0  0  0  0  0  0  0  0  0  0
   58.3207   32.3356   43.8558 H   0  0  0  0  0  0  0  0  0  0  0  0
   56.5407   32.3209   43.5921 H   0  0  0  0  0  0  0  0  0  0  0  0
   56.2067   34.0191   45.0145 H   0  0  0  0  0  0  0  0  0  0  0  0
   56.4334   33.7816   47.2498 H   0  0  0  0  0  0  0  0  0  0  0  0
   57.1199   32.1398   46.8137 H   0  0  0  0  0  0  0  0  0  0  0  0
   58.5204   34.6081   47.8162 H   0  0  0  0  0  0  0  0  0  0  0  0
   58.7325   32.8642   48.2556 H   0  0  0  0  0  0  0  0  0  0  0  0
   61.9973   34.8244   46.5749 H   0  0  0  0  0  0  0  0  0  0  0  0
   64.2088   33.9821   47.3505 H   0  0  0  0  0  0  0  0  0  0  0  0
   64.4258   31.6549   48.2121 H   0  0  0  0  0  0  0  0  0  0  0  0
   62.4395   30.1590   48.2982 H   0  0  0  0  0  0  0  0  0  0  0  0
   59.1530   30.9080   46.8070 H   0  0  0  0  0  0  0  0  0  0  0  0
   61.1049   27.0283   47.1992 H   0  0  0  0  0  0  0  0  0  0  0  0
   60.2101   25.1449   45.8391 H   0  0  0  0  0  0  0  0  0  0  0  0
   57.2229   25.8537   43.3103 H   0  0  0  0  0  0  0  0  0  0  0  0
   56.3084   23.8721   42.0775 H   0  0  0  0  0  0  0  0  0  0  0  0
   56.2370   26.8587   46.0920 H   0  0  0  0  0  0  0  0  0  0  0  0
   57.1409   28.7460   47.4414 H   0  0  0  0  0  0  0  0  0  0  0  0
   60.3359   35.0534   45.2700 H   0  0  0  0  0  0  0  0  0  0  0  0
   59.9953   33.4861   44.4286 H   0  0  0  0  0  0  0  0  0  0  0  0
   58.0338   35.5739   45.4496 H   0  0  0  0  0  0  0  0  0  0  0  0
   58.1974   34.8534   43.7965 H   0  0  0  0  0  0  0  0  0  0  0  0
  1  2  1  0
  2  3  2  0
  2  4  2  0
  2  5  1  0
  5  6  1  0
  6  7  1  0
  7  8  1  0
  8  9  1  0
  9 10  1  0
 10 11  1  0
 11 12  2  0
 12 13  1  0
 13 14  2  0
 14 15  1  0
 15 16  2  0
 16 17  1  0
 17 18  1  0
 18 19  2  0
 18 20  2  0
 18 21  1  0
 21 22  2  0
 22 23  1  0
 23 24  2  0
 24 25  1  0
 25 26  1  0
 26 27  2  0
 27 28  1  0
 28 29  2  0
 28 30  1  0
 30 31  1  0
 24 32  1  0
 32 33  2  0
 10 34  1  0
 34 35  1  0
 35  7  1  0
 16 11  1  0
 33 21  1  0
 31 25  2  0
  1 36  1  0
  1 37  1  0
  1 38  1  0
  6 39  1  0
  6 40  1  0
  7 41  1  0
  8 42  1  0
  8 43  1  0
  9 44  1  0
  9 45  1  0
 12 46  1  0
 13 47  1  0
 14 48  1  0
 15 49  1  0
 17 50  1  0
 22 51  1  0
 23 52  1  0
 26 53  1  0
 27 54  1  0
 32 55  1  0
 33 56  1  0
 34 57  1  0
 34 58  1  0
 35 59  1  0
 35 60  1  0
M  CHG  2   5  -1  30  -1
M  END
>  <UniqueID>  (77) 
71

>  <SMILES>  (77) 
CS(=O)(=O)[N-]CC1CCN(c2ccccc2NS(=O)(=O)c2ccc(-c3ccc(=O)[n-]n3)cc2)CC1

>  <Energy>  (77) 
71.65098056268849

>  <Genealogy>  (77) 
CS(=O)(=O)[N-]CC1CCN(c2ccccc2NS(=O)(=O)c2ccc(-c3ccc(=O)[n-]n3)cc2)CC1 (protonated)
CS(=O)(=O)[N-]CC1CCN(c2ccccc2NS(=O)(=O)c2ccc(-c3ccc(=O)[n-]n3)cc2)CC1 (3D coordinates assigned)
CS(=O)(=O)[N-]CC1CCN(c2ccccc2NS(=O)(=O)c2ccc(-c3ccc(=O)[n-]n3)cc2)CC1 (nonaromatic ring conformer: 71.65098056268849 kcal/mol)

>  <smiles>  (77) 
CS(=O)(=O)NCC1CCN(c2ccccc2NS(=O)(=O)c2ccc(-c3ccc(=O)[nH]n3)cc2)CC1

>  <score_type>  (77) 
oracle

>  <origin>  (77) 
adg

>  <m_score__min__energy>  (77) 
-14.449999999999999

>  <m_primary>  (77) 
energy

$$$$
77:0
     RDKit          3D

 69 72  0  0  0  0  0  0  0  0999 V2000
   55.8880   22.4110   48.3350 C   0  0  0  0  0  0  0  0  0  0  0  0
   57.0250   22.5520   47.4930 O   0  0  0  0  0  0  0  0  0  0  0  0
   57.4520   23.7690   46.9390 C   0  0  0  0  0  0  0  0  0  0  0  0
   57.7450   23.8120   45.5710 C   0  0  0  0  0  0  0  0  0  0  0  0
   58.1460   25.0050   44.9660 C   0  0  0  0  0  0  0  0  0  0  0  0
   58.2630   26.1790   45.7260 C   0  0  0  0  0  0  0  0  0  0  0  0
   58.6470   27.4170   45.1060 N   0  0  0  0  0  0  0  0  0  0  0  0
   57.7450   28.1030   44.1750 C   0  0  0  0  0  0  0  0  0  0  0  0
   56.7360   28.9450   44.9110 C   0  0  0  0  0  0  0  0  0  0  0  0
   55.6090   28.4620   45.2010 O   0  0  0  0  0  0  0  0  0  0  0  0
   56.9950   30.3210   45.2180 N   0  0  0  0  0  0  0  0  0  0  0  0
   56.6020   31.4550   44.3800 C   0  0  0  0  0  0  0  0  0  0  0  0
   57.2660   32.7290   44.8950 C   0  0  0  0  0  0  0  0  0  0  0  0
   58.5070   32.9190   44.0450 C   0  0  0  0  0  0  0  0  0  0  0  0
   58.1540   32.3410   42.6870 C   0  0  0  0  0  0  0  0  0  0  0  0
   57.1040   31.2650   42.9420 C   0  0  0  0  0  0  0  0  0  0  0  0
   60.0560   28.2560   45.6820 S   0  0  0  0  0  0  0  0  0  0  0  0
   60.6160   29.1110   44.5800 O   0  0  0  0  0  0  0  0  0  0  0  0
   61.1170   27.2800   46.1090 O   0  0  0  0  0  0  0  0  0  0  0  0
   59.5870   29.2440   47.0570 C   0  0  0  0  0  0  0  0  0  0  0  0
   59.6190   28.7230   48.3570 C   0  0  0  0  0  0  0  0  0  0  0  0
   59.2890   29.5340   49.4470 C   0  0  0  0  0  0  0  0  0  0  0  0
   58.9120   30.8720   49.2470 C   0  0  0  0  0  0  0  0  0  0  0  0
   58.5780   31.7420   50.3920 C   0  0  0  0  0  0  0  0  0  0  0  0
   57.7440   31.3390   51.2430 O   0  0  0  0  0  0  0  0  0  0  0  0
   59.1970   33.0200   50.5850 N   0  0  0  0  0  0  0  0  0  0  0  0
   60.6330   33.2680   50.5120 C   0  0  0  0  0  0  0  0  0  0  0  0
   61.0200   33.5060   49.0830 C   0  0  0  0  0  0  0  0  0  0  0  0
   62.1760   32.9100   48.5580 C   0  0  0  0  0  0  0  0  0  0  0  0
   62.5110   33.0880   47.2130 C   0  0  0  0  0  0  0  0  0  0  0  0
   61.6940   33.8580   46.3810 C   0  0  0  0  0  0  0  0  0  0  0  0
   60.5370   34.4650   46.8940 C   0  0  0  0  0  0  0  0  0  0  0  0
   59.6330   35.2510   45.9910 C   0  0  0  0  0  0  0  0  0  0  0  0
   60.1920   34.2680   48.2400 C   0  0  0  0  0  0  0  0  0  0  0  0
   58.9070   31.3970   47.9460 C   0  0  0  0  0  0  0  0  0  0  0  0
   59.2380   30.5860   46.8570 C   0  0  0  0  0  0  0  0  0  0  0  0
   57.9910   26.1360   47.1010 C   0  0  0  0  0  0  0  0  0  0  0  0
   57.5870   24.9430   47.7060 C   0  0  0  0  0  0  0  0  0  0  0  0
   56.2043   22.4502   49.3878 H   0  0  0  0  0  0  0  0  0  0  0  0
   55.1795   23.2282   48.1343 H   0  0  0  0  0  0  0  0  0  0  0  0
   55.4006   21.4455   48.1343 H   0  0  0  0  0  0  0  0  0  0  0  0
   57.6585   22.8971   44.9665 H   0  0  0  0  0  0  0  0  0  0  0  0
   58.3711   25.0246   43.8894 H   0  0  0  0  0  0  0  0  0  0  0  0
   58.3383   28.7513   43.5134 H   0  0  0  0  0  0  0  0  0  0  0  0
   57.2040   27.3430   43.5922 H   0  0  0  0  0  0  0  0  0  0  0  0
   55.5045   31.5229   44.4087 H   0  0  0  0  0  0  0  0  0  0  0  0
   56.5880   33.5877   44.7808 H   0  0  0  0  0  0  0  0  0  0  0  0
   57.5144   32.6531   45.9639 H   0  0  0  0  0  0  0  0  0  0  0  0
   58.7538   33.9873   43.9568 H   0  0  0  0  0  0  0  0  0  0  0  0
   59.3856   32.4249   44.4854 H   0  0  0  0  0  0  0  0  0  0  0  0
   57.7450   33.1255   42.0334 H   0  0  0  0  0  0  0  0  0  0  0  0
   59.0405   31.9250   42.1859 H   0  0  0  0  0  0  0  0  0  0  0  0
   56.2700   31.3764   42.2335 H   0  0  0  0  0  0  0  0  0  0  0  0
   57.5320   30.2608   42.8065 H   0  0  0  0  0  0  0  0  0  0  0  0
   59.9044   27.6733   48.5206 H   0  0  0  0  0  0  0  0  0  0  0  0
   59.3248   29.1220   50.4663 H   0  0  0  0  0  0  0  0  0  0  0  0
   60.8845   34.1538   51.1137 H   0  0  0  0  0  0  0  0  0  0  0  0
   61.1790   32.3966   50.9026 H   0  0  0  0  0  0  0  0  0  0  0  0
   62.8213   32.3002   49.2074 H   0  0  0  0  0  0  0  0  0  0  0  0
   63.4206   32.6205   46.8080 H   0  0  0  0  0  0  0  0  0  0  0  0
   61.9583   33.9888   45.3213 H   0  0  0  0  0  0  0  0  0  0  0  0
   58.9409   35.8527   46.5984 H   0  0  0  0  0  0  0  0  0  0  0  0
   60.2369   35.9161   45.3562 H   0  0  0  0  0  0  0  0  0  0  0  0
   59.0583   34.5605   45.3562 H   0  0  0  0  0  0  0  0  0  0  0  0
   59.2679   34.7126   48.6380 H   0  0  0  0  0  0  0  0  0  0  0  0
   58.6413   32.4518   47.7823 H   0  0  0  0  0  0  0  0  0  0  0  0
   59.2244   31.0029   45.8391 H   0  0  0  0  0  0  0  0  0  0  0  0
   58.0964   27.0477   47.7075 H   0  0  0  0  0  0  0  0  0  0  0  0
   57.3736   24.9204   48.7849 H   0  0  0  0  0  0  0  0  0  0  0  0
  1  2  1  0
  2  3  1  0
  3  4  2  0
  4  5  1  0
  5  6  2  0
  6  7  1  0
  7  8  1  0
  8  9  1  0
  9 10  2  0
  9 11  1  0
 11 12  1  0
 12 13  1  0
 13 14  1  0
 14 15  1  0
 15 16  1  0
  7 17  1  0
 17 18  2  0
 17 19  2  0
 17 20  1  0
 20 21  2  0
 21 22  1  0
 22 23  2  0
 23 24  1  0
 24 25  2  0
 24 26  1  0
 26 27  1  0
 27 28  1  0
 28 29  2  0
 29 30  1  0
 30 31  2  0
 31 32  1  0
 32 33  1  0
 32 34  2  0
 23 35  1  0
 35 36  2  0
  6 37  1  0
 37 38  2  0
 38  3  1  0
 16 12  1  0
 36 20  1  0
 34 28  1  0
  1 39  1  0
  1 40  1  0
  1 41  1  0
  4 42  1  0
  5 43  1  0
  8 44  1  0
  8 45  1  0
 12 46  1  0
 13 47  1  0
 13 48  1  0
 14 49  1  0
 14 50  1  0
 15 51  1  0
 15 52  1  0
 16 53  1  0
 16 54  1  0
 21 55  1  0
 22 56  1  0
 27 57  1  0
 27 58  1  0
 29 59  1  0
 30 60  1  0
 31 61  1  0
 33 62  1  0
 33 63  1  0
 33 64  1  0
 34 65  1  0
 35 66  1  0
 36 67  1  0
 37 68  1  0
 38 69  1  0
M  CHG  2  11  -1  26  -1
M  END
>  <UniqueID>  (78) 
72

>  <SMILES>  (78) 
COc1ccc(N(CC(=O)[N-]C2CCCC2)S(=O)(=O)c2ccc(C(=O)[N-]Cc3cccc(C)c3)cc2)cc1

>  <Energy>  (78) 
77.4031123549635

>  <Genealogy>  (78) 
COc1ccc(N(CC(=O)[N-]C2CCCC2)S(=O)(=O)c2ccc(C(=O)[N-]Cc3cccc(C)c3)cc2)cc1 (protonated)
COc1ccc(N(CC(=O)[N-]C2CCCC2)S(=O)(=O)c2ccc(C(=O)[N-]Cc3cccc(C)c3)cc2)cc1 (3D coordinates assigned)
COc1ccc(N(CC(=O)[N-]C2CCCC2)S(=O)(=O)c2ccc(C(=O)[N-]Cc3cccc(C)c3)cc2)cc1 (nonaromatic ring conformer: 77.4031123549635 kcal/mol)

>  <smiles>  (78) 
COc1ccc(N(CC(=O)NC2CCCC2)S(=O)(=O)c2ccc(C(=O)NCc3cccc(C)c3)cc2)cc1

>  <score_type>  (78) 
oracle

>  <origin>  (78) 
adg

>  <m_score__min__energy>  (78) 
-12.619999999999999

>  <m_primary>  (78) 
energy

$$$$
78:0
     RDKit          3D

 57 60  0  0  0  0  0  0  0  0999 V2000
   60.9600   27.0040   50.3610 O   0  0  0  0  0  0  0  0  0  0  0  0
   60.8060   27.8680   49.4580 C   0  0  0  0  0  0  0  0  0  0  0  0
   60.4200   27.4400   48.1470 N   0  0  0  0  0  0  0  0  0  0  0  0
   59.4040   28.0420   47.3330 C   0  0  0  0  0  0  0  0  0  0  0  0
   58.2560   27.2990   47.0250 C   0  0  0  0  0  0  0  0  0  0  0  0
   57.2460   27.8500   46.2300 C   0  0  0  0  0  0  0  0  0  0  0  0
   57.3850   29.1430   45.7070 C   0  0  0  0  0  0  0  0  0  0  0  0
   56.3290   29.7400   44.8660 C   0  0  0  0  0  0  0  0  0  0  0  0
   55.3860   29.0110   44.4620 O   0  0  0  0  0  0  0  0  0  0  0  0
   56.3110   31.1380   44.5380 N   0  0  0  0  0  0  0  0  0  0  0  0
   57.4060   31.8890   43.9280 C   0  0  0  0  0  0  0  0  0  0  0  0
   57.9800   32.8920   44.8950 C   0  0  0  0  0  0  0  0  0  0  0  0
   58.9060   33.8500   44.4500 C   0  0  0  0  0  0  0  0  0  0  0  0
   59.4290   34.7910   45.3440 C   0  0  0  0  0  0  0  0  0  0  0  0
   59.0320   34.7810   46.6840 C   0  0  0  0  0  0  0  0  0  0  0  0
   58.1170   33.8270   47.1340 C   0  0  0  0  0  0  0  0  0  0  0  0
   57.5930   32.8830   46.2460 C   0  0  0  0  0  0  0  0  0  0  0  0
   58.5370   29.8860   46.0030 C   0  0  0  0  0  0  0  0  0  0  0  0
   59.5470   29.3360   46.7980 C   0  0  0  0  0  0  0  0  0  0  0  0
   60.8970   29.2660   49.7610 N   0  0  0  0  0  0  0  0  0  0  0  0
   59.8370   30.1550   50.1480 C   0  0  0  0  0  0  0  0  0  0  0  0
   58.7420   29.7100   50.9140 C   0  0  0  0  0  0  0  0  0  0  0  0
   57.7570   30.6110   51.3270 C   0  0  0  0  0  0  0  0  0  0  0  0
   57.8640   31.9630   51.0020 C   0  0  0  0  0  0  0  0  0  0  0  0
   58.9580   32.4210   50.2620 C   0  0  0  0  0  0  0  0  0  0  0  0
   59.9500   31.5270   49.8320 C   0  0  0  0  0  0  0  0  0  0  0  0
   61.0740   32.0200   49.0790 N   0  0  0  0  0  0  0  0  0  0  0  0
   60.9500   32.1730   47.6220 C   0  0  0  0  0  0  0  0  0  0  0  0
   62.1670   32.8940   47.0290 C   0  0  0  0  0  0  0  0  0  0  0  0
   63.4770   32.2350   47.4890 C   0  0  0  0  0  0  0  0  0  0  0  0
   63.5330   31.9550   49.0080 C   0  0  0  0  0  0  0  0  0  0  0  0
   62.2980   32.4510   49.7680 C   0  0  0  0  0  0  0  0  0  0  0  0
   58.1487   26.2748   47.4116 H   0  0  0  0  0  0  0  0  0  0  0  0
   56.3389   27.2664   46.0143 H   0  0  0  0  0  0  0  0  0  0  0  0
   58.1977   31.1879   43.6253 H   0  0  0  0  0  0  0  0  0  0  0  0
   57.0144   32.4304   43.0542 H   0  0  0  0  0  0  0  0  0  0  0  0
   59.2208   33.8605   43.3961 H   0  0  0  0  0  0  0  0  0  0  0  0
   60.1537   35.5397   44.9915 H   0  0  0  0  0  0  0  0  0  0  0  0
   59.4403   35.5247   47.3842 H   0  0  0  0  0  0  0  0  0  0  0  0
   57.8078   33.8183   48.1896 H   0  0  0  0  0  0  0  0  0  0  0  0
   56.8755   32.1308   46.6058 H   0  0  0  0  0  0  0  0  0  0  0  0
   58.6465   30.9067   45.6077 H   0  0  0  0  0  0  0  0  0  0  0  0
   60.4574   29.9171   47.0063 H   0  0  0  0  0  0  0  0  0  0  0  0
   58.6618   28.6478   51.1885 H   0  0  0  0  0  0  0  0  0  0  0  0
   56.8954   30.2531   51.9097 H   0  0  0  0  0  0  0  0  0  0  0  0
   57.0868   32.6697   51.3283 H   0  0  0  0  0  0  0  0  0  0  0  0
   59.0416   33.4897   50.0152 H   0  0  0  0  0  0  0  0  0  0  0  0
   60.8659   31.1767   47.1635 H   0  0  0  0  0  0  0  0  0  0  0  0
   60.0544   32.7763   47.4124 H   0  0  0  0  0  0  0  0  0  0  0  0
   62.1098   32.8525   45.9313 H   0  0  0  0  0  0  0  0  0  0  0  0
   62.1593   33.9376   47.3767 H   0  0  0  0  0  0  0  0  0  0  0  0
   63.5909   31.2798   46.9556 H   0  0  0  0  0  0  0  0  0  0  0  0
   64.2887   32.9421   47.2628 H   0  0  0  0  0  0  0  0  0  0  0  0
   63.6214   30.8690   49.1586 H   0  0  0  0  0  0  0  0  0  0  0  0
   64.3993   32.5038   49.4060 H   0  0  0  0  0  0  0  0  0  0  0  0
   62.3071   32.0365   50.7869 H   0  0  0  0  0  0  0  0  0  0  0  0
   62.3190   33.5500   49.8107 H   0  0  0  0  0  0  0  0  0  0  0  0
  1  2  2  0
  2  3  1  0
  3  4  1  0
  4  5  2  0
  5  6  1  0
  6  7  2  0
  7  8  1  0
  8  9  2  0
  8 10  1  0
 10 11  1  0
 11 12  1  0
 12 13  2  0
 13 14  1  0
 14 15  2  0
 15 16  1  0
 16 17  2  0
  7 18  1  0
 18 19  2  0
  2 20  1  0
 20 21  1  0
 21 22  2  0
 22 23  1  0
 23 24  2  0
 24 25  1  0
 25 26  2  0
 26 27  1  0
 27 28  1  0
 28 29  1  0
 29 30  1  0
 30 31  1  0
 31 32  1  0
 19  4  1  0
 26 21  1  0
 32 27  1  0
 17 12  1  0
  5 33  1  0
  6 34  1  0
 11 35  1  0
 11 36  1  0
 13 37  1  0
 14 38  1  0
 15 39  1  0
 16 40  1  0
 17 41  1  0
 18 42  1  0
 19 43  1  0
 22 44  1  0
 23 45  1  0
 24 46  1  0
 25 47  1  0
 28 48  1  0
 28 49  1  0
 29 50  1  0
 29 51  1  0
 30 52  1  0
 30 53  1  0
 31 54  1  0
 31 55  1  0
 32 56  1  0
 32 57  1  0
M  CHG  3   3  -1  10  -1  20  -1
M  END
>  <UniqueID>  (79) 
73

>  <SMILES>  (79) 
O=C([N-]c1ccc(C(=O)[N-]Cc2ccccc2)cc1)[N-]c1ccccc1N1CCCCC1

>  <Energy>  (79) 
73.7798382114097

>  <Genealogy>  (79) 
O=C([N-]c1ccc(C(=O)[N-]Cc2ccccc2)cc1)[N-]c1ccccc1N1CCCCC1 (protonated)
O=C([N-]c1ccc(C(=O)[N-]Cc2ccccc2)cc1)[N-]c1ccccc1N1CCCCC1 (3D coordinates assigned)
O=C([N-]c1ccc(C(=O)[N-]Cc2ccccc2)cc1)[N-]c1ccccc1N1CCCCC1 (nonaromatic ring conformer: 73.7798382114097 kcal/mol)

>  <smiles>  (79) 
O=C(Nc1ccc(C(=O)NCc2ccccc2)cc1)Nc1ccccc1N1CCCCC1

>  <score_type>  (79) 
oracle

>  <origin>  (79) 
adg

>  <m_score__min__energy>  (79) 
-13.06

>  <m_primary>  (79) 
energy

$$$$
79:0
     RDKit          3D

 57 60  0  0  0  0  0  0  0  0999 V2000
   69.2930   35.3110   50.9750 C   0  0  0  0  0  0  0  0  0  0  0  0
   68.1000   35.2140   51.7390 O   0  0  0  0  0  0  0  0  0  0  0  0
   67.0020   34.4460   51.3380 C   0  0  0  0  0  0  0  0  0  0  0  0
   67.2090   33.3300   50.5260 C   0  0  0  0  0  0  0  0  0  0  0  0
   66.1160   32.5630   50.1220 C   0  0  0  0  0  0  0  0  0  0  0  0
   64.8160   32.9130   50.5260 C   0  0  0  0  0  0  0  0  0  0  0  0
   63.6420   32.1180   50.0880 C   0  0  0  0  0  0  0  0  0  0  0  0
   62.7960   31.5110   51.0340 C   0  0  0  0  0  0  0  0  0  0  0  0
   61.6730   30.7900   50.6190 C   0  0  0  0  0  0  0  0  0  0  0  0
   61.3730   30.6620   49.2530 C   0  0  0  0  0  0  0  0  0  0  0  0
   60.1160   29.9500   48.8140 C   0  0  0  0  0  0  0  0  0  0  0  0
   60.4280   28.5970   48.3200 N   0  0  0  0  0  0  0  0  0  0  0  0
   60.4210   28.3370   46.8720 C   0  0  0  0  0  0  0  0  0  0  0  0
   59.0350   28.4970   46.2990 C   0  0  0  0  0  0  0  0  0  0  0  0
   58.6100   29.7420   45.8000 C   0  0  0  0  0  0  0  0  0  0  0  0
   57.3120   29.8960   45.3020 C   0  0  0  0  0  0  0  0  0  0  0  0
   56.4310   28.8110   45.2950 C   0  0  0  0  0  0  0  0  0  0  0  0
   55.1380   28.9680   44.8100 O   0  0  0  0  0  0  0  0  0  0  0  0
   56.8490   27.5650   45.7780 C   0  0  0  0  0  0  0  0  0  0  0  0
   58.1460   27.4060   46.2800 C   0  0  0  0  0  0  0  0  0  0  0  0
   60.7360   27.5260   49.2400 C   0  0  0  0  0  0  0  0  0  0  0  0
   60.7610   26.3320   48.8300 O   0  0  0  0  0  0  0  0  0  0  0  0
   60.9700   27.7980   50.6280 N   0  0  0  0  0  0  0  0  0  0  0  0
   61.7720   26.9590   51.4760 C   0  0  0  0  0  0  0  0  0  0  0  0
   61.3260   25.6610   51.7850 C   0  0  0  0  0  0  0  0  0  0  0  0
   60.1670   25.1900   51.2550 F   0  0  0  0  0  0  0  0  0  0  0  0
   62.0800   24.8360   52.6280 C   0  0  0  0  0  0  0  0  0  0  0  0
   63.2720   25.3040   53.1870 C   0  0  0  0  0  0  0  0  0  0  0  0
   63.9870   24.5100   54.0210 F   0  0  0  0  0  0  0  0  0  0  0  0
   63.7140   26.6000   52.9040 C   0  0  0  0  0  0  0  0  0  0  0  0
   62.9700   27.4290   52.0570 C   0  0  0  0  0  0  0  0  0  0  0  0
   63.3970   28.6990   51.8430 F   0  0  0  0  0  0  0  0  0  0  0  0
   62.2360   31.2380   48.3070 C   0  0  0  0  0  0  0  0  0  0  0  0
   63.3540   31.9670   48.7190 C   0  0  0  0  0  0  0  0  0  0  0  0
   64.6570   34.0430   51.3450 C   0  0  0  0  0  0  0  0  0  0  0  0
   65.7390   34.7720   51.7270 N   0  0  0  0  0  0  0  0  0  0  0  0
   70.1572   35.3813   51.6519 H   0  0  0  0  0  0  0  0  0  0  0  0
   69.3958   34.4182   50.3406 H   0  0  0  0  0  0  0  0  0  0  0  0
   69.2502   36.2086   50.3406 H   0  0  0  0  0  0  0  0  0  0  0  0
   68.2258   33.0573   50.2071 H   0  0  0  0  0  0  0  0  0  0  0  0
   66.2722   31.6803   49.4844 H   0  0  0  0  0  0  0  0  0  0  0  0
   63.0198   31.6044   52.1069 H   0  0  0  0  0  0  0  0  0  0  0  0
   61.0192   30.3192   51.3679 H   0  0  0  0  0  0  0  0  0  0  0  0
   59.4280   29.8724   49.6687 H   0  0  0  0  0  0  0  0  0  0  0  0
   59.6506   30.5247   47.9997 H   0  0  0  0  0  0  0  0  0  0  0  0
   61.0991   29.0471   46.3761 H   0  0  0  0  0  0  0  0  0  0  0  0
   60.7528   27.3023   46.7009 H   0  0  0  0  0  0  0  0  0  0  0  0
   59.3013   30.5977   45.8015 H   0  0  0  0  0  0  0  0  0  0  0  0
   56.9842   30.8723   44.9154 H   0  0  0  0  0  0  0  0  0  0  0  0
   56.1572   26.7099   45.7630 H   0  0  0  0  0  0  0  0  0  0  0  0
   58.4711   26.4264   46.6604 H   0  0  0  0  0  0  0  0  0  0  0  0
   60.4720   28.6080   51.0640 H   0  0  0  0  0  0  0  0  0  0  0  0
   61.7330   23.8163   52.8510 H   0  0  0  0  0  0  0  0  0  0  0  0
   64.6499   26.9692   53.3487 H   0  0  0  0  0  0  0  0  0  0  0  0
   62.0302   31.1143   47.2335 H   0  0  0  0  0  0  0  0  0  0  0  0
   64.0138   32.4262   47.9681 H   0  0  0  0  0  0  0  0  0  0  0  0
   63.6518   34.3396   51.6790 H   0  0  0  0  0  0  0  0  0  0  0  0
  1  2  1  0
  2  3  1  0
  3  4  2  0
  4  5  1  0
  5  6  2  0
  6  7  1  0
  7  8  2  0
  8  9  1  0
  9 10  2  0
 10 11  1  0
 11 12  1  0
 12 13  1  0
 13 14  1  0
 14 15  2  0
 15 16  1  0
 16 17  2  0
 17 18  1  0
 17 19  1  0
 19 20  2  0
 12 21  1  0
 21 22  2  0
 21 23  1  0
 23 24  1  0
 24 25  2  0
 25 26  1  0
 25 27  1  0
 27 28  2  0
 28 29  1  0
 28 30  1  0
 30 31  2  0
 31 32  1  0
 10 33  1  0
 33 34  2  0
  6 35  1  0
 35 36  2  0
 36  3  1  0
 34  7  1  0
 20 14  1  0
 31 24  1  0
  1 37  1  0
  1 38  1  0
  1 39  1  0
  4 40  1  0
  5 41  1  0
  8 42  1  0
  9 43  1  0
 11 44  1  0
 11 45  1  0
 13 46  1  0
 13 47  1  0
 15 48  1  0
 16 49  1  0
 19 50  1  0
 20 51  1  0
 23 52  1  0
 27 53  1  0
 30 54  1  0
 33 55  1  0
 34 56  1  0
 35 57  1  0
M  CHG  1  18  -1
M  END
>  <UniqueID>  (80) 
74

>  <SMILES>  (80) 
COc1ccc(-c2ccc(CN(Cc3ccc([O-])cc3)C(=O)Nc3c(F)cc(F)cc3F)cc2)cn1

>  <Energy>  (80) 
67.31730221694983

>  <Genealogy>  (80) 
COc1ccc(-c2ccc(CN(Cc3ccc([O-])cc3)C(=O)Nc3c(F)cc(F)cc3F)cc2)cn1 (protonated)
COc1ccc(-c2ccc(CN(Cc3ccc([O-])cc3)C(=O)Nc3c(F)cc(F)cc3F)cc2)cn1 (3D coordinates assigned)
COc1ccc(-c2ccc(CN(Cc3ccc([O-])cc3)C(=O)Nc3c(F)cc(F)cc3F)cc2)cn1 (optimized conformer: 67.31730221694983 kcal/mol)

>  <smiles>  (80) 
COc1ccc(-c2ccc(CN(Cc3ccc(O)cc3)C(=O)Nc3c(F)cc(F)cc3F)cc2)cn1

>  <score_type>  (80) 
oracle

>  <origin>  (80) 
adg

>  <m_score__min__energy>  (80) 
-10.66

>  <m_primary>  (80) 
energy

$$$$
80:0
     RDKit          3D

 38 40  0  0  0  0  0  0  0  0999 V2000
   57.2066   30.9735   42.9945 H   0  0  0  0  0  0  0  0  0  0  0  0
   57.1700   30.8700   44.0890 C   0  0  0  0  0  0  0  0  0  0  0  0
   57.0980   31.9370   44.8270 N   0  0  0  0  0  0  0  0  0  0  0  0
   58.1410   32.4790   45.6570 C   0  0  0  0  0  0  0  0  0  0  0  0
   58.5800   33.7810   45.4010 C   0  0  0  0  0  0  0  0  0  0  0  0
   58.1202   34.3588   44.5857 H   0  0  0  0  0  0  0  0  0  0  0  0
   59.5960   34.3580   46.1680 C   0  0  0  0  0  0  0  0  0  0  0  0
   59.9237   35.3865   45.9565 H   0  0  0  0  0  0  0  0  0  0  0  0
   60.2020   33.6310   47.2090 C   0  0  0  0  0  0  0  0  0  0  0  0
   61.2530   34.1870   48.0210 N   0  0  0  0  0  0  0  0  0  0  0  0
   61.0590   35.0540   48.5710 H   0  0  0  0  0  0  0  0  0  0  0  0
   62.8780   33.5780   48.0790 S   0  0  0  0  0  0  0  0  0  0  0  0
   63.7320   34.2890   47.0680 O   0  0  0  0  0  0  0  0  0  0  0  0
   62.8580   32.1120   47.7470 O   0  0  0  0  0  0  0  0  0  0  0  0
   63.5510   33.7780   49.7160 C   0  0  0  0  0  0  0  0  0  0  0  0
   62.7759   33.5477   50.4618 H   0  0  0  0  0  0  0  0  0  0  0  0
   64.4022   33.0940   49.8486 H   0  0  0  0  0  0  0  0  0  0  0  0
   63.8905   34.8159   49.8486 H   0  0  0  0  0  0  0  0  0  0  0  0
   59.7770   32.3160   47.4510 C   0  0  0  0  0  0  0  0  0  0  0  0
   60.2502   31.7312   48.2536 H   0  0  0  0  0  0  0  0  0  0  0  0
   58.7600   31.7400   46.6850 C   0  0  0  0  0  0  0  0  0  0  0  0
   58.4415   30.7063   46.8851 H   0  0  0  0  0  0  0  0  0  0  0  0
   57.2040   29.5110   44.6940 C   0  0  0  0  0  0  0  0  0  0  0  0
   56.0260   28.8040   45.0330 C   0  0  0  0  0  0  0  0  0  0  0  0
   54.7690   29.3530   44.8100 O   0  0  0  0  0  0  0  0  0  0  0  0
   56.0960   27.5920   45.5710 O   0  0  0  0  0  0  0  0  0  0  0  0
   57.2450   26.9760   45.8230 C   0  0  0  0  0  0  0  0  0  0  0  0
   57.2340   25.6980   46.3930 C   0  0  0  0  0  0  0  0  0  0  0  0
   56.2766   25.2110   46.6299 H   0  0  0  0  0  0  0  0  0  0  0  0
   58.4370   25.0390   46.6620 C   0  0  0  0  0  0  0  0  0  0  0  0
   58.4244   24.0341   47.1092 H   0  0  0  0  0  0  0  0  0  0  0  0
   59.6550   25.6540   46.3640 C   0  0  0  0  0  0  0  0  0  0  0  0
   60.5994   25.1323   46.5783 H   0  0  0  0  0  0  0  0  0  0  0  0
   59.6780   26.9310   45.7940 C   0  0  0  0  0  0  0  0  0  0  0  0
   60.6398   27.4109   45.5603 H   0  0  0  0  0  0  0  0  0  0  0  0
   58.4720   27.6030   45.5190 C   0  0  0  0  0  0  0  0  0  0  0  0
   58.4420   28.8860   44.9480 C   0  0  0  0  0  0  0  0  0  0  0  0
   59.5220   29.4760   44.6620 O   0  0  0  0  0  0  0  0  0  0  0  0
  1  2  1  0
  2  3  2  0
  3  4  1  0
  4  5  2  0
  5  6  1  0
  5  7  1  0
  7  8  1  0
  7  9  2  0
  9 10  1  0
 10 11  1  0
 10 12  1  0
 12 13  2  0
 12 14  2  0
 12 15  1  0
 15 16  1  0
 15 17  1  0
 15 18  1  0
  9 19  1  0
 19 20  1  0
 19 21  2  0
 21 22  1  0
  2 23  1  0
 23 24  2  0
 24 25  1  0
 24 26  1  0
 26 27  1  0
 27 28  2  0
 28 29  1  0
 28 30  1  0
 30 31  1  0
 30 32  2  0
 32 33  1  0
 32 34  1  0
 34 35  1  0
 34 36  2  0
 36 37  1  0
 37 38  2  0
 21  4  1  0
 37 23  1  0
 36 27  1  0
M  CHG  1  25  -1
M  END
>  <UniqueID>  (81) 
75

>  <SMILES>  (81) 
CS(=O)(=O)Nc1ccc(/N=C/c2c([O-])oc3ccccc3c2=O)cc1

>  <Energy>  (81) 
50.66315581878934

>  <Genealogy>  (81) 
CS(=O)(=O)Nc1ccc(N=Cc2c([O-])oc3ccccc3c2=O)cc1 (protonated)
CS(=O)(=O)Nc1ccc(/N=C/c2c([O-])oc3ccccc3c2=O)cc1 (cis-trans isomerization)
CS(=O)(=O)Nc1ccc(/N=C/c2c([O-])oc3ccccc3c2=O)cc1 (3D coordinates assigned)
CS(=O)(=O)Nc1ccc(/N=C/c2c([O-])oc3ccccc3c2=O)cc1 (optimized conformer: 50.66315581878934 kcal/mol)

>  <smiles>  (81) 
CS(=O)(=O)Nc1ccc(N=Cc2c(O)oc3ccccc3c2=O)cc1

>  <score_type>  (81) 
oracle

>  <origin>  (81) 
adg

>  <m_score__min__energy>  (81) 
-10.84

>  <m_primary>  (81) 
energy

$$$$
81:0
     RDKit          3D

 32 33  0  0  0  0  0  0  0  0999 V2000
   59.1750   35.3410   47.6720 N   0  0  0  0  0  0  0  0  0  0  0  0
   59.7340   34.7050   46.1650 S   0  0  0  0  0  0  0  0  0  0  0  0
   59.5160   35.7190   45.0780 O   0  0  0  0  0  0  0  0  0  0  0  0
   61.2050   34.4110   46.2620 O   0  0  0  0  0  0  0  0  0  0  0  0
   58.8530   33.2290   45.7870 C   0  0  0  0  0  0  0  0  0  0  0  0
   59.2580   32.0070   46.3390 C   0  0  0  0  0  0  0  0  0  0  0  0
   58.5590   30.8340   46.0400 C   0  0  0  0  0  0  0  0  0  0  0  0
   57.4400   30.8750   45.1940 C   0  0  0  0  0  0  0  0  0  0  0  0
   56.7000   29.6900   44.8870 N   0  0  0  0  0  0  0  0  0  0  0  0
   57.2640   28.3880   44.6700 C   0  0  0  0  0  0  0  0  0  0  0  0
   57.4510   27.9990   43.4870 O   0  0  0  0  0  0  0  0  0  0  0  0
   57.5910   27.4520   45.8080 C   0  0  0  0  0  0  0  0  0  0  0  0
   57.0880   26.0500   45.5480 C   0  0  0  0  0  0  0  0  0  0  0  0
   58.0010   25.0340   45.2100 C   0  0  0  0  0  0  0  0  0  0  0  0
   57.5530   23.7380   44.9430 C   0  0  0  0  0  0  0  0  0  0  0  0
   56.1930   23.4370   45.0210 C   0  0  0  0  0  0  0  0  0  0  0  0
   55.2770   24.4290   45.3770 C   0  0  0  0  0  0  0  0  0  0  0  0
   55.7160   25.7300   45.6500 C   0  0  0  0  0  0  0  0  0  0  0  0
   54.7830   26.6910   46.0220 O   0  0  0  0  0  0  0  0  0  0  0  0
   57.0640   32.0890   44.6080 C   0  0  0  0  0  0  0  0  0  0  0  0
   57.7610   33.2630   44.9090 C   0  0  0  0  0  0  0  0  0  0  0  0
   58.8400   36.3120   47.4860 H   0  0  0  0  0  0  0  0  0  0  0  0
   60.1289   31.9703   47.0099 H   0  0  0  0  0  0  0  0  0  0  0  0
   58.8870   29.8758   46.4692 H   0  0  0  0  0  0  0  0  0  0  0  0
   58.6827   27.4194   45.9390 H   0  0  0  0  0  0  0  0  0  0  0  0
   57.0937   27.8299   46.7135 H   0  0  0  0  0  0  0  0  0  0  0  0
   59.0757   25.2620   45.1556 H   0  0  0  0  0  0  0  0  0  0  0  0
   58.2741   22.9532   44.6707 H   0  0  0  0  0  0  0  0  0  0  0  0
   55.8421   22.4177   44.8020 H   0  0  0  0  0  0  0  0  0  0  0  0
   54.2060   24.1872   45.4432 H   0  0  0  0  0  0  0  0  0  0  0  0
   56.2164   32.1197   43.9075 H   0  0  0  0  0  0  0  0  0  0  0  0
   57.4515   34.2161   44.4554 H   0  0  0  0  0  0  0  0  0  0  0  0
  1  2  1  0
  2  3  2  0
  2  4  2  0
  2  5  1  0
  5  6  2  0
  6  7  1  0
  7  8  2  0
  8  9  1  0
  9 10  1  0
 10 11  2  0
 10 12  1  0
 12 13  1  0
 13 14  2  0
 14 15  1  0
 15 16  2  0
 16 17  1  0
 17 18  2  0
 18 19  1  0
  8 20  1  0
 20 21  2  0
 21  5  1  0
 18 13  1  0
  1 22  1  0
  6 23  1  0
  7 24  1  0
 12 25  1  0
 12 26  1  0
 14 27  1  0
 15 28  1  0
 16 29  1  0
 17 30  1  0
 20 31  1  0
 21 32  1  0
M  CHG  3   1  -1   9  -1  19  -1
M  END
>  <UniqueID>  (82) 
76

>  <SMILES>  (82) 
[NH-]S(=O)(=O)c1ccc([N-]C(=O)Cc2ccccc2[O-])cc1

>  <Energy>  (82) 
36.422422897143335

>  <Genealogy>  (82) 
[NH-]S(=O)(=O)c1ccc([N-]C(=O)Cc2ccccc2[O-])cc1 (protonated)
[NH-]S(=O)(=O)c1ccc([N-]C(=O)Cc2ccccc2[O-])cc1 (3D coordinates assigned)
[NH-]S(=O)(=O)c1ccc([N-]C(=O)Cc2ccccc2[O-])cc1 (optimized conformer: 36.422422897143335 kcal/mol)

>  <smiles>  (82) 
NS(=O)(=O)c1ccc(NC(=O)Cc2ccccc2O)cc1

>  <score_type>  (82) 
oracle

>  <origin>  (82) 
adg

>  <m_score__min__energy>  (82) 
-13

>  <m_primary>  (82) 
energy

$$$$
82:0
     RDKit          3D

 50 54  0  0  0  0  0  0  0  0999 V2000
   61.7580   30.7240   46.7290 O   0  0  0  0  0  0  0  0  0  0  0  0
   60.9940   29.9580   47.3830 C   0  0  0  0  0  0  0  0  0  0  0  0
   61.0050   30.0110   48.7860 C   0  0  0  0  0  0  0  0  0  0  0  0
   61.8350   30.8840   49.5110 C   0  0  0  0  0  0  0  0  0  0  0  0
   61.7840   30.8910   50.9060 C   0  0  0  0  0  0  0  0  0  0  0  0
   60.9030   30.0290   51.5650 C   0  0  0  0  0  0  0  0  0  0  0  0
   60.1100   29.1880   50.8510 N   0  0  0  0  0  0  0  0  0  0  0  0
   60.1410   29.1610   49.4910 C   0  0  0  0  0  0  0  0  0  0  0  0
   59.3460   28.3010   48.8160 N   0  0  0  0  0  0  0  0  0  0  0  0
   59.3470   28.2410   47.4580 C   0  0  0  0  0  0  0  0  0  0  0  0
   58.4880   27.2180   46.8300 C   0  0  0  0  0  0  0  0  0  0  0  0
   59.0360   26.0000   46.4070 C   0  0  0  0  0  0  0  0  0  0  0  0
   58.2230   25.0270   45.8210 C   0  0  0  0  0  0  0  0  0  0  0  0
   56.8450   25.2600   45.6550 C   0  0  0  0  0  0  0  0  0  0  0  0
   55.9890   24.3020   45.0170 N   0  0  0  0  0  0  0  0  0  0  0  0
   55.7510   22.6710   45.5540 S   0  0  0  0  0  0  0  0  0  0  0  0
   55.8870   21.7380   44.3830 O   0  0  0  0  0  0  0  0  0  0  0  0
   56.7910   22.3300   46.5830 O   0  0  0  0  0  0  0  0  0  0  0  0
   54.1600   22.5130   46.2770 C   0  0  0  0  0  0  0  0  0  0  0  0
   53.8300   21.6800   47.3390 C   0  0  0  0  0  0  0  0  0  0  0  0
   52.4630   21.6930   47.6380 C   0  0  0  0  0  0  0  0  0  0  0  0
   51.7330   22.5320   46.8080 C   0  0  0  0  0  0  0  0  0  0  0  0
   50.0010   22.7670   46.8660 Cl  0  0  0  0  0  0  0  0  0  0  0  0
   52.7670   23.2560   45.6970 S   0  0  0  0  0  0  0  0  0  0  0  0
   56.2920   26.4600   46.1240 C   0  0  0  0  0  0  0  0  0  0  0  0
   54.9280   26.7000   45.9940 O   0  0  0  0  0  0  0  0  0  0  0  0
   57.1080   27.4300   46.7180 C   0  0  0  0  0  0  0  0  0  0  0  0
   60.1530   29.0900   46.7250 N   0  0  0  0  0  0  0  0  0  0  0  0
   60.0830   29.1550   45.2470 C   0  0  0  0  0  0  0  0  0  0  0  0
   58.7530   29.7120   44.8030 C   0  0  0  0  0  0  0  0  0  0  0  0
   57.8730   28.9320   44.0310 C   0  0  0  0  0  0  0  0  0  0  0  0
   56.6500   29.4610   43.6080 C   0  0  0  0  0  0  0  0  0  0  0  0
   56.2970   30.7700   43.9500 C   0  0  0  0  0  0  0  0  0  0  0  0
   57.1640   31.5510   44.7210 C   0  0  0  0  0  0  0  0  0  0  0  0
   58.3870   31.0250   45.1490 C   0  0  0  0  0  0  0  0  0  0  0  0
   62.5224   31.5594   48.9806 H   0  0  0  0  0  0  0  0  0  0  0  0
   62.4315   31.5689   51.4815 H   0  0  0  0  0  0  0  0  0  0  0  0
   60.8516   30.0315   52.6638 H   0  0  0  0  0  0  0  0  0  0  0  0
   60.1115   25.8090   46.5370 H   0  0  0  0  0  0  0  0  0  0  0  0
   58.6616   24.0748   45.4879 H   0  0  0  0  0  0  0  0  0  0  0  0
   54.5662   21.0738   47.8873 H   0  0  0  0  0  0  0  0  0  0  0  0
   52.0134   21.0993   48.4476 H   0  0  0  0  0  0  0  0  0  0  0  0
   56.6640   28.3619   47.0981 H   0  0  0  0  0  0  0  0  0  0  0  0
   60.8893   29.8042   44.8750 H   0  0  0  0  0  0  0  0  0  0  0  0
   60.1954   28.1387   44.8413 H   0  0  0  0  0  0  0  0  0  0  0  0
   58.1481   27.9022   43.7592 H   0  0  0  0  0  0  0  0  0  0  0  0
   55.9647   28.8468   43.0055 H   0  0  0  0  0  0  0  0  0  0  0  0
   55.3363   31.1860   43.6123 H   0  0  0  0  0  0  0  0  0  0  0  0
   56.8837   32.5799   44.9909 H   0  0  0  0  0  0  0  0  0  0  0  0
   59.0651   31.6404   45.7584 H   0  0  0  0  0  0  0  0  0  0  0  0
  1  2  2  0
  2  3  1  0
  3  4  2  0
  4  5  1  0
  5  6  2  0
  6  7  1  0
  7  8  2  0
  8  9  1  0
  9 10  2  0
 10 11  1  0
 11 12  2  0
 12 13  1  0
 13 14  2  0
 14 15  1  0
 15 16  1  0
 16 17  2  0
 16 18  2  0
 16 19  1  0
 19 20  2  0
 20 21  1  0
 21 22  2  0
 22 23  1  0
 22 24  1  0
 14 25  1  0
 25 26  1  0
 25 27  2  0
 10 28  1  0
 28 29  1  0
 29 30  1  0
 30 31  2  0
 31 32  1  0
 32 33  2  0
 33 34  1  0
 34 35  2  0
 28  2  1  0
 35 30  1  0
  8  3  1  0
 27 11  1  0
 24 19  1  0
  4 36  1  0
  5 37  1  0
  6 38  1  0
 12 39  1  0
 13 40  1  0
 20 41  1  0
 21 42  1  0
 27 43  1  0
 29 44  1  0
 29 45  1  0
 31 46  1  0
 32 47  1  0
 33 48  1  0
 34 49  1  0
 35 50  1  0
M  CHG  2  15  -1  26  -1
M  END
>  <UniqueID>  (83) 
77

>  <SMILES>  (83) 
O=c1c2cccnc2nc(-c2ccc([N-]S(=O)(=O)c3ccc(Cl)s3)c([O-])c2)n1Cc1ccccc1

>  <Energy>  (83) 
102.83862273860409

>  <Genealogy>  (83) 
O=c1c2cccnc2nc(-c2ccc([N-]S(=O)(=O)c3ccc(Cl)s3)c([O-])c2)n1Cc1ccccc1 (protonated)
O=c1c2cccnc2nc(-c2ccc([N-]S(=O)(=O)c3ccc(Cl)s3)c([O-])c2)n1Cc1ccccc1 (3D coordinates assigned)
O=c1c2cccnc2nc(-c2ccc([N-]S(=O)(=O)c3ccc(Cl)s3)c([O-])c2)n1Cc1ccccc1 (optimized conformer: 102.83862273860409 kcal/mol)

>  <smiles>  (83) 
O=c1c2cccnc2nc(-c2ccc(NS(=O)(=O)c3ccc(Cl)s3)c(O)c2)n1Cc1ccccc1

>  <score_type>  (83) 
oracle

>  <origin>  (83) 
adg

>  <m_score__min__energy>  (83) 
-13.140000000000001

>  <m_primary>  (83) 
energy

$$$$
83:0
     RDKit          3D

 62 66  0  0  0  0  0  0  0  0999 V2000
   55.7764   24.0537   48.6045 H   0  0  0  0  0  0  0  0  0  0  0  0
   56.2710   24.2950   47.6520 C   0  0  0  0  0  0  0  0  0  0  0  0
   56.1230   25.5290   47.1050 N   0  0  0  0  0  0  0  0  0  0  0  0
   56.7160   25.8530   45.9290 C   0  0  0  0  0  0  0  0  0  0  0  0
   56.5090   27.1300   45.3900 O   0  0  0  0  0  0  0  0  0  0  0  0
   57.2990   28.2600   45.6520 C   0  0  0  0  0  0  0  0  0  0  0  0
   57.0320   29.4390   44.9480 C   0  0  0  0  0  0  0  0  0  0  0  0
   56.2148   29.4625   44.2121 H   0  0  0  0  0  0  0  0  0  0  0  0
   57.7960   30.5870   45.1730 C   0  0  0  0  0  0  0  0  0  0  0  0
   57.5816   31.5047   44.6057 H   0  0  0  0  0  0  0  0  0  0  0  0
   58.8360   30.5790   46.1180 C   0  0  0  0  0  0  0  0  0  0  0  0
   59.6620   31.7850   46.3460 C   0  0  0  0  0  0  0  0  0  0  0  0
   59.2910   33.0300   45.9570 N   0  0  0  0  0  0  0  0  0  0  0  0
   60.1790   33.9730   46.2690 N   0  0  0  0  0  0  0  0  0  0  0  0
   61.2620   33.4820   46.9160 C   0  0  0  0  0  0  0  0  0  0  0  0
   62.2590   34.2080   47.3250 N   0  0  0  0  0  0  0  0  0  0  0  0
   63.6210   33.7040   47.4610 C   0  0  0  0  0  0  0  0  0  0  0  0
   63.8727   33.6109   48.5278 H   0  0  0  0  0  0  0  0  0  0  0  0
   63.6970   32.7182   46.9789 H   0  0  0  0  0  0  0  0  0  0  0  0
   64.3204   34.4028   46.9789 H   0  0  0  0  0  0  0  0  0  0  0  0
   61.1650   31.8200   47.1270 S   0  0  0  0  0  0  0  0  0  0  0  0
   59.0790   29.4050   46.8520 C   0  0  0  0  0  0  0  0  0  0  0  0
   59.8753   29.3907   47.6107 H   0  0  0  0  0  0  0  0  0  0  0  0
   58.3160   28.2550   46.6250 C   0  0  0  0  0  0  0  0  0  0  0  0
   58.5114   27.3435   47.2089 H   0  0  0  0  0  0  0  0  0  0  0  0
   57.4560   24.9210   45.2700 N   0  0  0  0  0  0  0  0  0  0  0  0
   57.6400   23.6730   45.7770 C   0  0  0  0  0  0  0  0  0  0  0  0
   58.4550   22.6810   45.0010 C   0  0  0  0  0  0  0  0  0  0  0  0
   58.9948   22.0240   45.6989 H   0  0  0  0  0  0  0  0  0  0  0  0
   57.7900   22.0756   44.3675 H   0  0  0  0  0  0  0  0  0  0  0  0
   59.1779   23.2159   44.3675 H   0  0  0  0  0  0  0  0  0  0  0  0
   57.0530   23.3280   47.0050 C   0  0  0  0  0  0  0  0  0  0  0  0
   57.1990   21.9930   47.5150 N   0  0  0  0  0  0  0  0  0  0  0  0
   56.4850   20.8220   47.0970 C   0  0  0  0  0  0  0  0  0  0  0  0
   57.0110   19.9970   46.3050 O   0  0  0  0  0  0  0  0  0  0  0  0
   55.1630   20.5700   47.5810 N   0  0  0  0  0  0  0  0  0  0  0  0
   53.9990   21.3470   47.2650 C   0  0  0  0  0  0  0  0  0  0  0  0
   53.9150   22.0580   46.0530 C   0  0  0  0  0  0  0  0  0  0  0  0
   54.7299   21.9833   45.3179 H   0  0  0  0  0  0  0  0  0  0  0  0
   52.8030   22.8580   45.7780 C   0  0  0  0  0  0  0  0  0  0  0  0
   52.7210   23.7560   44.2730 Cl  0  0  0  0  0  0  0  0  0  0  0  0
   51.7630   22.9460   46.7030 C   0  0  0  0  0  0  0  0  0  0  0  0
   50.8922   23.5841   46.4917 H   0  0  0  0  0  0  0  0  0  0  0  0
   51.8260   22.2250   47.8970 C   0  0  0  0  0  0  0  0  0  0  0  0
   51.0038   22.3016   48.6237 H   0  0  0  0  0  0  0  0  0  0  0  0
   52.9250   21.4060   48.1780 C   0  0  0  0  0  0  0  0  0  0  0  0
   52.9400   20.7110   49.3960 O   0  0  0  0  0  0  0  0  0  0  0  0
   53.3760   21.2340   50.6210 C   0  0  0  0  0  0  0  0  0  0  0  0
   52.8610   22.4730   51.0310 C   0  0  0  0  0  0  0  0  0  0  0  0
   52.1413   23.0043   50.3909 H   0  0  0  0  0  0  0  0  0  0  0  0
   53.2560   23.0360   52.2460 C   0  0  0  0  0  0  0  0  0  0  0  0
   52.8607   24.0159   52.5518 H   0  0  0  0  0  0  0  0  0  0  0  0
   54.1530   22.3560   53.0740 C   0  0  0  0  0  0  0  0  0  0  0  0
   54.4571   22.7986   54.0340 H   0  0  0  0  0  0  0  0  0  0  0  0
   54.6650   21.1140   52.6850 C   0  0  0  0  0  0  0  0  0  0  0  0
   55.3731   20.5847   53.3395 H   0  0  0  0  0  0  0  0  0  0  0  0
   54.2780   20.5370   51.4580 C   0  0  0  0  0  0  0  0  0  0  0  0
   54.7540   19.2790   51.0550 O   0  0  0  0  0  0  0  0  0  0  0  0
   55.8430   19.0750   50.1600 C   0  0  0  0  0  0  0  0  0  0  0  0
   56.7639   18.9025   50.7363 H   0  0  0  0  0  0  0  0  0  0  0  0
   55.6377   18.1997   49.5262 H   0  0  0  0  0  0  0  0  0  0  0  0
   55.9684   19.9653   49.5262 H   0  0  0  0  0  0  0  0  0  0  0  0
  1  2  1  0
  2  3  2  0
  3  4  1  0
  4  5  1  0
  5  6  1  0
  6  7  2  0
  7  8  1  0
  7  9  1  0
  9 10  1  0
  9 11  2  0
 11 12  1  0
 12 13  2  0
 13 14  1  0
 14 15  1  0
 15 16  2  0
 16 17  1  0
 17 18  1  0
 17 19  1  0
 17 20  1  0
 15 21  1  0
 11 22  1  0
 22 23  1  0
 22 24  2  0
 24 25  1  0
  4 26  2  0
 26 27  1  0
 27 28  1  0
 28 29  1  0
 28 30  1  0
 28 31  1  0
 27 32  2  0
 32 33  1  0
 33 34  1  0
 34 35  2  0
 34 36  1  0
 36 37  1  0
 37 38  2  0
 38 39  1  0
 38 40  1  0
 40 41  1  0
 40 42  2  0
 42 43  1  0
 42 44  1  0
 44 45  1  0
 44 46  2  0
 46 47  1  0
 47 48  1  0
 48 49  2  0
 49 50  1  0
 49 51  1  0
 51 52  1  0
 51 53  2  0
 53 54  1  0
 53 55  1  0
 55 56  1  0
 55 57  2  0
 57 58  1  0
 58 59  1  0
 59 60  1  0
 59 61  1  0
 59 62  1  0
 32  2  1  0
 46 37  1  0
 57 48  1  0
 24  6  1  0
 21 12  1  0
M  CHG  3  14  -1  33  -1  36  -1
M  END
>  <UniqueID>  (84) 
78

>  <SMILES>  (84) 
C/N=c1\[n-]nc(-c2ccc(Oc3ncc([N-]C(=O)[N-]c4cc(Cl)ccc4Oc4ccccc4OC)c(C)n3)cc2)s1

>  <Energy>  (84) 
122.61011573555339

>  <Genealogy>  (84) 
CN=c1[n-]nc(-c2ccc(Oc3ncc([N-]C(=O)[N-]c4cc(Cl)ccc4Oc4ccccc4OC)c(C)n3)cc2)s1 (protonated)
C/N=c1\[n-]nc(-c2ccc(Oc3ncc([N-]C(=O)[N-]c4cc(Cl)ccc4Oc4ccccc4OC)c(C)n3)cc2)s1 (cis-trans isomerization)
C/N=c1\[n-]nc(-c2ccc(Oc3ncc([N-]C(=O)[N-]c4cc(Cl)ccc4Oc4ccccc4OC)c(C)n3)cc2)s1 (3D coordinates assigned)
C/N=c1\[n-]nc(-c2ccc(Oc3ncc([N-]C(=O)[N-]c4cc(Cl)ccc4Oc4ccccc4OC)c(C)n3)cc2)s1 (optimized conformer: 122.61011573555339 kcal/mol)

>  <smiles>  (84) 
CN=c1[nH]nc(-c2ccc(Oc3ncc(NC(=O)Nc4cc(Cl)ccc4Oc4ccccc4OC)c(C)n3)cc2)s1

>  <score_type>  (84) 
oracle

>  <origin>  (84) 
adg

>  <m_score__min__energy>  (84) 
-12.970000000000001

>  <m_primary>  (84) 
energy

$$$$
84:0
     RDKit          3D

 42 43  0  0  0  0  0  0  0  0999 V2000
   62.2850   33.7340   47.8800 C   0  0  0  0  0  0  0  0  0  0  0  0
   60.9730   33.2320   48.4740 C   0  0  0  0  0  0  0  0  0  0  0  0
   60.1540   34.3870   49.0610 C   0  0  0  0  0  0  0  0  0  0  0  0
   59.2710   34.9280   48.0770 O   0  0  0  0  0  0  0  0  0  0  0  0
   58.9210   34.3090   46.8650 C   0  0  0  0  0  0  0  0  0  0  0  0
   59.6540   34.4880   45.6760 C   0  0  0  0  0  0  0  0  0  0  0  0
   59.2570   33.8460   44.5000 C   0  0  0  0  0  0  0  0  0  0  0  0
   58.1250   33.0160   44.4890 C   0  0  0  0  0  0  0  0  0  0  0  0
   57.6970   32.3290   43.2110 C   0  0  0  0  0  0  0  0  0  0  0  0
   57.8410   30.8530   43.2900 N   0  0  1  0  0  0  0  0  0  0  0  0
   58.6860   30.4990   44.4650 C   0  0  0  0  0  0  0  0  0  0  0  0
   58.4690   29.0480   44.9110 C   0  0  0  0  0  0  0  0  0  0  0  0
   57.0180   28.8480   45.3980 C   0  0  2  0  0  0  0  0  0  0  0  0
   56.6340   27.5020   45.2580 O   0  0  0  0  0  0  0  0  0  0  0  0
   56.0210   29.7900   44.6840 C   0  0  0  0  0  0  0  0  0  0  0  0
   56.5150   30.1650   43.2780 C   0  0  0  0  0  0  0  0  0  0  0  0
   57.4000   32.8310   45.6770 C   0  0  0  0  0  0  0  0  0  0  0  0
   57.7970   33.4730   46.8520 C   0  0  0  0  0  0  0  0  0  0  0  0
   62.9776   33.9990   48.6924 H   0  0  0  0  0  0  0  0  0  0  0  0
   62.7328   32.9437   47.2596 H   0  0  0  0  0  0  0  0  0  0  0  0
   62.0908   34.6214   47.2596 H   0  0  0  0  0  0  0  0  0  0  0  0
   60.3859   32.7407   47.6841 H   0  0  0  0  0  0  0  0  0  0  0  0
   61.2047   32.5226   49.2821 H   0  0  0  0  0  0  0  0  0  0  0  0
   59.5635   34.0158   49.9116 H   0  0  0  0  0  0  0  0  0  0  0  0
   60.8430   35.1778   49.3924 H   0  0  0  0  0  0  0  0  0  0  0  0
   60.5429   35.1360   45.6729 H   0  0  0  0  0  0  0  0  0  0  0  0
   59.8358   33.9921   43.5761 H   0  0  0  0  0  0  0  0  0  0  0  0
   56.6422   32.5717   43.0149 H   0  0  0  0  0  0  0  0  0  0  0  0
   58.3487   32.6882   42.4009 H   0  0  0  0  0  0  0  0  0  0  0  0
   58.3650   30.5330   42.4410 H   0  0  0  0  0  0  0  0  0  0  0  0
   58.4325   31.1690   45.2998 H   0  0  0  0  0  0  0  0  0  0  0  0
   59.7403   30.6108   44.1719 H   0  0  0  0  0  0  0  0  0  0  0  0
   59.1627   28.8131   45.7317 H   0  0  0  0  0  0  0  0  0  0  0  0
   58.6549   28.3798   44.0572 H   0  0  0  0  0  0  0  0  0  0  0  0
   56.9909   29.1135   46.4651 H   0  0  0  0  0  0  0  0  0  0  0  0
   56.6450   27.2860   44.2880 H   0  0  0  0  0  0  0  0  0  0  0  0
   55.9058   30.7075   45.2797 H   0  0  0  0  0  0  0  0  0  0  0  0
   55.0588   29.2662   44.5853 H   0  0  0  0  0  0  0  0  0  0  0  0
   55.7764   30.8352   42.8140 H   0  0  0  0  0  0  0  0  0  0  0  0
   56.6342   29.2302   42.7107 H   0  0  0  0  0  0  0  0  0  0  0  0
   56.5152   32.1774   45.6823 H   0  0  0  0  0  0  0  0  0  0  0  0
   57.2212   33.3207   47.7768 H   0  0  0  0  0  0  0  0  0  0  0  0
  1  2  1  0
  2  3  1  0
  3  4  1  0
  4  5  1  0
  5  6  2  0
  6  7  1  0
  7  8  2  0
  8  9  1  0
  9 10  1  0
 10 11  1  0
 11 12  1  0
 12 13  1  0
 13 14  1  0
 13 15  1  0
 15 16  1  0
  8 17  1  0
 17 18  2  0
 18  5  1  0
 16 10  1  0
  1 19  1  0
  1 20  1  0
  1 21  1  0
  2 22  1  0
  2 23  1  0
  3 24  1  0
  3 25  1  0
  6 26  1  0
  7 27  1  0
  9 28  1  0
  9 29  1  0
 10 30  1  6
 11 31  1  0
 11 32  1  0
 12 33  1  0
 12 34  1  0
 13 35  1  1
 14 36  1  0
 15 37  1  0
 15 38  1  0
 16 39  1  0
 16 40  1  0
 17 41  1  0
 18 42  1  0
M  CHG  1  10   1
M  END
>  <UniqueID>  (85) 
79

>  <SMILES>  (85) 
CCCOc1ccc(C[NH+]2CCC(O)CC2)cc1

>  <Energy>  (85) 
46.163050112299544

>  <Genealogy>  (85) 
CCCOc1ccc(C[NH+]2CCC(O)CC2)cc1 (protonated)
CCCOc1ccc(C[NH+]2CCC(O)CC2)cc1 (3D coordinates assigned)
CCCOc1ccc(C[NH+]2CCC(O)CC2)cc1 (nonaromatic ring conformer: 46.163050112299544 kcal/mol)

>  <smiles>  (85) 
CCCOc1ccc(CN2CCC(O)CC2)cc1

>  <score_type>  (85) 
oracle

>  <origin>  (85) 
adg

>  <m_score__min__energy>  (85) 
-5.1799999999999997

>  <m_primary>  (85) 
energy

$$$$
85:0
     RDKit          3D

 46 48  0  0  0  0  0  0  0  0999 V2000
   57.7580   30.3880   44.3850 C   0  0  0  0  0  0  0  0  0  0  0  0
   58.6380   30.0000   45.5010 N   0  0  0  0  0  0  0  0  0  0  0  0
   59.6200   30.8760   45.8760 C   0  0  0  0  0  0  0  0  0  0  0  0
   60.4930   30.5920   46.9350 C   0  0  0  0  0  0  0  0  0  0  0  0
   61.5480   31.5750   47.3010 C   0  0  0  0  0  0  0  0  0  0  0  0
   62.7500   31.2090   47.4060 O   0  0  0  0  0  0  0  0  0  0  0  0
   61.2010   32.9460   47.5340 N   0  0  0  0  0  0  0  0  0  0  0  0
   60.6650   33.4470   48.7970 C   0  0  0  0  0  0  0  0  0  0  0  0
   59.5840   34.5070   48.5560 C   0  0  0  0  0  0  0  0  0  0  0  0
   58.8960   34.3220   47.2280 C   0  0  0  0  0  0  0  0  0  0  0  0
   59.4170   34.9230   46.0710 C   0  0  0  0  0  0  0  0  0  0  0  0
   58.8090   34.7070   44.8300 C   0  0  0  0  0  0  0  0  0  0  0  0
   57.6820   33.8860   44.7360 C   0  0  0  0  0  0  0  0  0  0  0  0
   57.1620   33.2790   45.8810 C   0  0  0  0  0  0  0  0  0  0  0  0
   57.7630   33.4960   47.1240 C   0  0  0  0  0  0  0  0  0  0  0  0
   60.3570   29.3670   47.6110 C   0  0  0  0  0  0  0  0  0  0  0  0
   61.1500   29.0680   48.5490 O   0  0  0  0  0  0  0  0  0  0  0  0
   59.3500   28.4640   47.2310 C   0  0  0  0  0  0  0  0  0  0  0  0
   59.1930   27.2350   47.8990 C   0  0  0  0  0  0  0  0  0  0  0  0
   58.1920   26.3430   47.5200 C   0  0  0  0  0  0  0  0  0  0  0  0
   57.3330   26.6550   46.4670 C   0  0  0  0  0  0  0  0  0  0  0  0
   56.0630   25.5190   46.0190 S   0  0  0  0  0  0  0  0  0  0  0  0
   56.5360   24.6650   44.5310 C   0  0  0  0  0  0  0  0  0  0  0  0
   54.7800   26.2640   45.7890 O   0  0  0  0  0  0  0  0  0  0  0  0
   55.8490   24.5140   47.1150 O   0  0  0  0  0  0  0  0  0  0  0  0
   57.4740   27.8740   45.7910 C   0  0  0  0  0  0  0  0  0  0  0  0
   58.4820   28.7980   46.1580 C   0  0  0  0  0  0  0  0  0  0  0  0
   56.8201   30.8015   44.7843 H   0  0  0  0  0  0  0  0  0  0  0  0
   58.2607   31.1479   43.7687 H   0  0  0  0  0  0  0  0  0  0  0  0
   57.5361   29.5043   43.7687 H   0  0  0  0  0  0  0  0  0  0  0  0
   59.7269   31.8266   45.3329 H   0  0  0  0  0  0  0  0  0  0  0  0
   60.2274   32.6089   49.3592 H   0  0  0  0  0  0  0  0  0  0  0  0
   61.4855   33.9079   49.3664 H   0  0  0  0  0  0  0  0  0  0  0  0
   58.8336   34.4371   49.3572 H   0  0  0  0  0  0  0  0  0  0  0  0
   60.0712   35.4932   48.5511 H   0  0  0  0  0  0  0  0  0  0  0  0
   60.3067   35.5661   46.1408 H   0  0  0  0  0  0  0  0  0  0  0  0
   59.2183   35.1838   43.9272 H   0  0  0  0  0  0  0  0  0  0  0  0
   57.2043   33.7179   43.7595 H   0  0  0  0  0  0  0  0  0  0  0  0
   56.2779   32.6290   45.8045 H   0  0  0  0  0  0  0  0  0  0  0  0
   57.3481   33.0189   48.0241 H   0  0  0  0  0  0  0  0  0  0  0  0
   59.8674   26.9762   48.7286 H   0  0  0  0  0  0  0  0  0  0  0  0
   58.0789   25.3880   48.0541 H   0  0  0  0  0  0  0  0  0  0  0  0
   57.0536   23.7305   44.7933 H   0  0  0  0  0  0  0  0  0  0  0  0
   55.6377   24.4332   43.9400 H   0  0  0  0  0  0  0  0  0  0  0  0
   57.2091   25.3035   43.9400 H   0  0  0  0  0  0  0  0  0  0  0  0
   56.7916   28.1167   44.9631 H   0  0  0  0  0  0  0  0  0  0  0  0
  1  2  1  0
  2  3  1  0
  3  4  2  0
  4  5  1  0
  5  6  2  0
  5  7  1  0
  7  8  1  0
  8  9  1  0
  9 10  1  0
 10 11  2  0
 11 12  1  0
 12 13  2  0
 13 14  1  0
 14 15  2  0
  4 16  1  0
 16 17  2  0
 16 18  1  0
 18 19  2  0
 19 20  1  0
 20 21  2  0
 21 22  1  0
 22 23  1  0
 22 24  2  0
 22 25  2  0
 21 26  1  0
 26 27  2  0
 27  2  1  0
 15 10  1  0
 27 18  1  0
  1 28  1  0
  1 29  1  0
  1 30  1  0
  3 31  1  0
  8 32  1  0
  8 33  1  0
  9 34  1  0
  9 35  1  0
 11 36  1  0
 12 37  1  0
 13 38  1  0
 14 39  1  0
 15 40  1  0
 19 41  1  0
 20 42  1  0
 23 43  1  0
 23 44  1  0
 23 45  1  0
 26 46  1  0
M  CHG  1   7  -1
M  END
>  <UniqueID>  (86) 
80

>  <SMILES>  (86) 
Cn1cc(C(=O)[N-]CCc2ccccc2)c(=O)c2ccc(S(C)(=O)=O)cc21

>  <Energy>  (86) 
52.8665540867995

>  <Genealogy>  (86) 
Cn1cc(C(=O)[N-]CCc2ccccc2)c(=O)c2ccc(S(C)(=O)=O)cc21 (protonated)
Cn1cc(C(=O)[N-]CCc2ccccc2)c(=O)c2ccc(S(C)(=O)=O)cc21 (3D coordinates assigned)
Cn1cc(C(=O)[N-]CCc2ccccc2)c(=O)c2ccc(S(C)(=O)=O)cc21 (optimized conformer: 52.8665540867995 kcal/mol)

>  <smiles>  (86) 
Cn1cc(C(=O)NCCc2ccccc2)c(=O)c2ccc(S(C)(=O)=O)cc21

>  <score_type>  (86) 
oracle

>  <origin>  (86) 
adg

>  <m_score__min__energy>  (86) 
-10.619999999999999

>  <m_primary>  (86) 
energy

$$$$
86:0
     RDKit          3D

 36 38  0  0  0  0  0  0  0  0999 V2000
   58.0850   32.3150   41.9790 C   0  0  0  0  0  0  0  0  0  0  0  0
   57.2940   32.3320   43.1640 O   0  0  0  0  0  0  0  0  0  0  0  0
   57.7890   32.5890   44.4530 C   0  0  0  0  0  0  0  0  0  0  0  0
   57.5830   33.8290   45.0880 C   0  0  0  0  0  0  0  0  0  0  0  0
   58.0970   34.0680   46.3640 C   0  0  0  0  0  0  0  0  0  0  0  0
   58.8270   33.0780   47.0220 C   0  0  0  0  0  0  0  0  0  0  0  0
   59.4810   33.3860   48.6200 Cl  0  0  0  0  0  0  0  0  0  0  0  0
   59.0390   31.8420   46.4060 C   0  0  0  0  0  0  0  0  0  0  0  0
   58.5140   31.5800   45.1280 C   0  0  0  0  0  0  0  0  0  0  0  0
   58.7680   30.2250   44.4920 C   0  0  0  0  0  0  0  0  0  0  0  0
   58.1800   29.1160   45.2790 N   0  0  1  0  0  0  0  0  0  0  0  0
   56.7380   29.0080   45.1460 C   0  0  0  0  0  0  0  0  0  0  0  0
   56.0520   29.9870   44.7470 O   0  0  0  0  0  0  0  0  0  0  0  0
   56.0390   27.8300   45.5830 N   0  0  0  0  0  0  0  0  0  0  0  0
   56.6510   26.5660   45.8620 C   0  0  0  0  0  0  0  0  0  0  0  0
   55.8890   25.5420   46.4380 C   0  0  0  0  0  0  0  0  0  0  0  0
   56.4650   24.2930   46.6890 C   0  0  0  0  0  0  0  0  0  0  0  0
   57.8020   24.0580   46.3550 C   0  0  0  0  0  0  0  0  0  0  0  0
   58.5660   25.0730   45.7710 C   0  0  0  0  0  0  0  0  0  0  0  0
   57.9900   26.3250   45.5260 C   0  0  0  0  0  0  0  0  0  0  0  0
   58.9070   27.6140   44.7830 S   0  0  0  0  0  0  0  0  0  0  0  0
   60.3340   27.5660   45.2550 O   0  0  0  0  0  0  0  0  0  0  0  0
   58.8580   27.4700   43.2870 O   0  0  0  0  0  0  0  0  0  0  0  0
   59.1509   32.2921   42.2499 H   0  0  0  0  0  0  0  0  0  0  0  0
   57.8381   31.4220   41.3861 H   0  0  0  0  0  0  0  0  0  0  0  0
   57.8767   33.2178   41.3861 H   0  0  0  0  0  0  0  0  0  0  0  0
   57.0120   34.6163   44.5741 H   0  0  0  0  0  0  0  0  0  0  0  0
   57.9259   35.0391   46.8515 H   0  0  0  0  0  0  0  0  0  0  0  0
   59.6218   31.0669   46.9253 H   0  0  0  0  0  0  0  0  0  0  0  0
   58.3250   30.2181   43.4852 H   0  0  0  0  0  0  0  0  0  0  0  0
   59.8563   30.0701   44.4528 H   0  0  0  0  0  0  0  0  0  0  0  0
   58.3980   29.2390   46.2940 H   0  0  0  0  0  0  0  0  0  0  0  0
   54.8342   25.7208   46.6937 H   0  0  0  0  0  0  0  0  0  0  0  0
   55.8654   23.4942   47.1499 H   0  0  0  0  0  0  0  0  0  0  0  0
   58.2531   23.0742   46.5517 H   0  0  0  0  0  0  0  0  0  0  0  0
   59.6171   24.8881   45.5047 H   0  0  0  0  0  0  0  0  0  0  0  0
  1  2  1  0
  2  3  1  0
  3  4  2  0
  4  5  1  0
  5  6  2  0
  6  7  1  0
  6  8  1  0
  8  9  2  0
  9 10  1  0
 10 11  1  0
 11 12  1  0
 12 13  2  0
 12 14  1  0
 14 15  1  0
 15 16  2  0
 16 17  1  0
 17 18  2  0
 18 19  1  0
 19 20  2  0
 20 21  1  0
 21 22  2  0
 21 23  2  0
  9  3  1  0
 21 11  1  0
 20 15  1  0
  1 24  1  0
  1 25  1  0
  1 26  1  0
  4 27  1  0
  5 28  1  0
  8 29  1  0
 10 30  1  0
 10 31  1  0
 11 32  1  1
 16 33  1  0
 17 34  1  0
 18 35  1  0
 19 36  1  0
M  CHG  2  11   1  14  -1
M  END
>  <UniqueID>  (87) 
81

>  <SMILES>  (87) 
COc1ccc(Cl)cc1C[N@H+]1C(=O)[N-]c2ccccc2S1(=O)=O

>  <Energy>  (87) 
45.18845387799379

>  <Genealogy>  (87) 
COc1ccc(Cl)cc1C[NH+]1C(=O)[N-]c2ccccc2S1(=O)=O (protonated)
COc1ccc(Cl)cc1C[N@H+]1C(=O)[N-]c2ccccc2S1(=O)=O (chirality)
COc1ccc(Cl)cc1C[N@H+]1C(=O)[N-]c2ccccc2S1(=O)=O (3D coordinates assigned)
COc1ccc(Cl)cc1C[N@H+]1C(=O)[N-]c2ccccc2S1(=O)=O (nonaromatic ring conformer: 45.18845387799379 kcal/mol)

>  <smiles>  (87) 
COc1ccc(Cl)cc1CN1C(=O)Nc2ccccc2S1(=O)=O

>  <score_type>  (87) 
oracle

>  <origin>  (87) 
adg

>  <m_score__min__energy>  (87) 
-8

>  <m_primary>  (87) 
energy

$$$$
87:0
     RDKit          3D

 66 69  0  0  0  0  0  0  0  0999 V2000
   60.5940   33.5110   50.7100 N   0  0  0  0  0  0  0  0  0  0  0  0
   59.4570   33.4500   49.8470 C   0  0  0  0  0  0  0  0  0  0  0  0
   58.5790   32.5030   49.9940 N   0  0  0  0  0  0  0  0  0  0  0  0
   59.2630   34.4820   48.8680 N   0  0  0  0  0  0  0  0  0  0  0  0
   59.0470   34.2420   47.4630 C   0  0  0  0  0  0  0  0  0  0  0  0
   59.3840   35.2420   46.5390 C   0  0  0  0  0  0  0  0  0  0  0  0
   59.2430   35.0170   45.1680 C   0  0  0  0  0  0  0  0  0  0  0  0
   58.7330   33.8030   44.7040 C   0  0  0  0  0  0  0  0  0  0  0  0
   58.3630   32.7990   45.6110 C   0  0  0  0  0  0  0  0  0  0  0  0
   57.7480   31.5430   45.1240 C   0  0  0  0  0  0  0  0  0  0  0  0
   56.5160   31.5200   44.8550 O   0  0  0  0  0  0  0  0  0  0  0  0
   58.5250   30.3530   44.9180 N   0  0  0  0  0  0  0  0  0  0  0  0
   58.9420   29.4390   45.9460 C   0  0  0  0  0  0  0  0  0  0  0  0
   59.7860   28.3740   45.6110 C   0  0  0  0  0  0  0  0  0  0  0  0
   60.2490   27.5010   46.6000 C   0  0  0  0  0  0  0  0  0  0  0  0
   59.8710   27.6850   47.9380 C   0  0  0  0  0  0  0  0  0  0  0  0
   60.3780   26.7570   49.0090 C   0  0  0  0  0  0  0  0  0  0  0  0
   60.8970   27.5200   50.1930 C   0  0  0  0  0  0  0  0  0  0  0  0
   60.8050   27.0110   51.3390 O   0  0  0  0  0  0  0  0  0  0  0  0
   61.5010   28.8130   50.0150 N   0  0  0  0  0  0  0  0  0  0  0  0
   62.2750   29.4970   51.0140 C   0  0  0  0  0  0  0  0  0  0  0  0
   62.9760   28.7950   52.0100 C   0  0  0  0  0  0  0  0  0  0  0  0
   63.7620   29.4840   52.9330 C   0  0  0  0  0  0  0  0  0  0  0  0
   63.8730   30.8750   52.8670 C   0  0  0  0  0  0  0  0  0  0  0  0
   63.1920   31.5950   51.8720 C   0  0  0  0  0  0  0  0  0  0  0  0
   63.3180   33.0680   51.7860 C   0  0  0  0  0  0  0  0  0  0  0  0
   62.4660   33.8110   52.3470 O   0  0  0  0  0  0  0  0  0  0  0  0
   64.3970   33.6560   51.0520 N   0  0  0  0  0  0  0  0  0  0  0  0
   64.9810   33.0360   49.8710 C   0  0  0  0  0  0  0  0  0  0  0  0
   63.9360   32.9020   48.7990 C   0  0  0  0  0  0  0  0  0  0  0  0
   63.2770   34.0440   48.3120 C   0  0  0  0  0  0  0  0  0  0  0  0
   62.2900   33.9210   47.3300 C   0  0  0  0  0  0  0  0  0  0  0  0
   61.9550   32.6590   46.8260 C   0  0  0  0  0  0  0  0  0  0  0  0
   62.6070   31.5200   47.3040 C   0  0  0  0  0  0  0  0  0  0  0  0
   63.5950   31.6380   48.2860 C   0  0  0  0  0  0  0  0  0  0  0  0
   62.3960   30.8930   50.9480 C   0  0  0  0  0  0  0  0  0  0  0  0
   58.9910   28.7290   48.2670 C   0  0  0  0  0  0  0  0  0  0  0  0
   58.5160   29.5890   47.2760 C   0  0  0  0  0  0  0  0  0  0  0  0
   58.5650   33.0070   46.9850 C   0  0  0  0  0  0  0  0  0  0  0  0
   61.2860   34.2880   50.6070 H   0  0  0  0  0  0  0  0  0  0  0  0
   60.8120   32.7390   51.3830 H   0  0  0  0  0  0  0  0  0  0  0  0
   57.5660   32.7220   50.1350 H   0  0  0  0  0  0  0  0  0  0  0  0
   58.8730   31.4990   49.9900 H   0  0  0  0  0  0  0  0  0  0  0  0
   59.4800   35.4600   49.1690 H   0  0  0  0  0  0  0  0  0  0  0  0
   59.7622   36.2109   46.8970 H   0  0  0  0  0  0  0  0  0  0  0  0
   59.5347   35.7988   44.4513 H   0  0  0  0  0  0  0  0  0  0  0  0
   58.6209   33.6332   43.6230 H   0  0  0  0  0  0  0  0  0  0  0  0
   60.0867   28.2230   44.5637 H   0  0  0  0  0  0  0  0  0  0  0  0
   60.9122   26.6667   46.3277 H   0  0  0  0  0  0  0  0  0  0  0  0
   59.5552   26.1045   49.3363 H   0  0  0  0  0  0  0  0  0  0  0  0
   61.2038   26.1630   48.5904 H   0  0  0  0  0  0  0  0  0  0  0  0
   61.3080   29.3250   49.1280 H   0  0  0  0  0  0  0  0  0  0  0  0
   62.9042   27.6985   52.0614 H   0  0  0  0  0  0  0  0  0  0  0  0
   64.2976   28.9292   53.7174 H   0  0  0  0  0  0  0  0  0  0  0  0
   64.4972   31.4092   53.5984 H   0  0  0  0  0  0  0  0  0  0  0  0
   65.8067   33.6612   49.5004 H   0  0  0  0  0  0  0  0  0  0  0  0
   65.3621   32.0383   50.1345 H   0  0  0  0  0  0  0  0  0  0  0  0
   63.5388   35.0375   48.7049 H   0  0  0  0  0  0  0  0  0  0  0  0
   61.7758   34.8173   46.9528 H   0  0  0  0  0  0  0  0  0  0  0  0
   61.1780   32.5641   46.0532 H   0  0  0  0  0  0  0  0  0  0  0  0
   62.3427   30.5287   46.9072 H   0  0  0  0  0  0  0  0  0  0  0  0
   64.1075   30.7388   48.6587 H   0  0  0  0  0  0  0  0  0  0  0  0
   61.8609   31.4469   50.1626 H   0  0  0  0  0  0  0  0  0  0  0  0
   58.6746   28.8695   49.3111 H   0  0  0  0  0  0  0  0  0  0  0  0
   57.8055   30.3871   47.5373 H   0  0  0  0  0  0  0  0  0  0  0  0
   58.3446   32.1971   47.6960 H   0  0  0  0  0  0  0  0  0  0  0  0
  1  2  1  0
  2  3  2  0
  2  4  1  0
  4  5  1  0
  5  6  2  0
  6  7  1  0
  7  8  2  0
  8  9  1  0
  9 10  1  0
 10 11  2  0
 10 12  1  0
 12 13  1  0
 13 14  2  0
 14 15  1  0
 15 16  2  0
 16 17  1  0
 17 18  1  0
 18 19  2  0
 18 20  1  0
 20 21  1  0
 21 22  2  0
 22 23  1  0
 23 24  2  0
 24 25  1  0
 25 26  1  0
 26 27  2  0
 26 28  1  0
 28 29  1  0
 29 30  1  0
 30 31  2  0
 31 32  1  0
 32 33  2  0
 33 34  1  0
 34 35  2  0
 25 36  2  0
 16 37  1  0
 37 38  2  0
  9 39  2  0
 39  5  1  0
 38 13  1  0
 36 21  1  0
 35 30  1  0
  1 40  1  0
  1 41  1  0
  3 42  1  0
  3 43  1  0
  4 44  1  0
  6 45  1  0
  7 46  1  0
  8 47  1  0
 14 48  1  0
 15 49  1  0
 17 50  1  0
 17 51  1  0
 20 52  1  0
 22 53  1  0
 23 54  1  0
 24 55  1  0
 29 56  1  0
 29 57  1  0
 31 58  1  0
 32 59  1  0
 33 60  1  0
 34 61  1  0
 35 62  1  0
 36 63  1  0
 37 64  1  0
 38 65  1  0
 39 66  1  0
M  CHG  3   3   1  12  -1  28  -1
M  END
>  <UniqueID>  (88) 
82

>  <SMILES>  (88) 
NC(=[NH2+])Nc1cccc(C(=O)[N-]c2ccc(CC(=O)Nc3cccc(C(=O)[N-]Cc4ccccc4)c3)cc2)c1

>  <Energy>  (88) 
80.61628206505522

>  <Genealogy>  (88) 
NC(=[NH2+])Nc1cccc(C(=O)[N-]c2ccc(CC(=O)Nc3cccc(C(=O)[N-]Cc4ccccc4)c3)cc2)c1 (protonated)
NC(=[NH2+])Nc1cccc(C(=O)[N-]c2ccc(CC(=O)Nc3cccc(C(=O)[N-]Cc4ccccc4)c3)cc2)c1 (3D coordinates assigned)
NC(=[NH2+])Nc1cccc(C(=O)[N-]c2ccc(CC(=O)Nc3cccc(C(=O)[N-]Cc4ccccc4)c3)cc2)c1 (optimized conformer: 80.61628206505522 kcal/mol)

>  <smiles>  (88) 
N=C(N)Nc1cccc(C(=O)Nc2ccc(CC(=O)Nc3cccc(C(=O)NCc4ccccc4)c3)cc2)c1

>  <score_type>  (88) 
oracle

>  <origin>  (88) 
adg

>  <m_score__min__energy>  (88) 
-12

>  <m_primary>  (88) 
energy

$$$$
88:0
     RDKit          3D

 50 53  0  0  0  0  0  0  0  0999 V2000
   65.1500   32.1390   50.3320 C   0  0  0  0  0  0  0  0  0  0  0  0
   64.2100   32.4340   49.3030 O   0  0  0  0  0  0  0  0  0  0  0  0
   63.0660   31.6690   49.0280 C   0  0  0  0  0  0  0  0  0  0  0  0
   62.4130   30.9160   50.0220 C   0  0  0  0  0  0  0  0  0  0  0  0
   61.2820   30.1600   49.7090 C   0  0  0  0  0  0  0  0  0  0  0  0
   60.7830   30.1360   48.3980 C   0  0  0  0  0  0  0  0  0  0  0  0
   59.5850   29.3250   48.0740 C   0  0  0  0  0  0  0  0  0  0  0  0
   59.4880   28.1550   48.5310 O   0  0  0  0  0  0  0  0  0  0  0  0
   58.5020   29.8480   47.2920 N   0  0  0  0  0  0  0  0  0  0  0  0
   58.1330   29.4270   45.9710 C   0  0  0  0  0  0  0  0  0  0  0  0
   58.4590   28.1410   45.4980 C   0  0  0  0  0  0  0  0  0  0  0  0
   58.0920   27.7510   44.2080 C   0  0  0  0  0  0  0  0  0  0  0  0
   57.3930   28.6330   43.3830 C   0  0  0  0  0  0  0  0  0  0  0  0
   57.0460   29.9030   43.8510 C   0  0  0  0  0  0  0  0  0  0  0  0
   57.3960   30.3000   45.1560 C   0  0  0  0  0  0  0  0  0  0  0  0
   57.0770   31.5760   45.6460 O   0  0  0  0  0  0  0  0  0  0  0  0
   57.9420   32.6820   45.6680 C   0  0  0  0  0  0  0  0  0  0  0  0
   58.1620   33.4540   44.5130 C   0  0  0  0  0  0  0  0  0  0  0  0
   59.0100   34.5640   44.5520 C   0  0  0  0  0  0  0  0  0  0  0  0
   59.6400   34.9260   45.7430 C   0  0  0  0  0  0  0  0  0  0  0  0
   59.4190   34.1820   46.9090 C   0  0  0  0  0  0  0  0  0  0  0  0
   60.0350   34.5380   48.1150 C   0  0  0  0  0  0  0  0  0  0  0  0
   59.7980   33.7860   49.2640 C   0  0  0  0  0  0  0  0  0  0  0  0
   58.9480   32.6810   49.2000 C   0  0  0  0  0  0  0  0  0  0  0  0
   58.3520   32.3370   48.0250 N   0  0  0  0  0  0  0  0  0  0  0  0
   58.5610   33.0550   46.8790 C   0  0  0  0  0  0  0  0  0  0  0  0
   61.4180   30.9060   47.4120 C   0  0  0  0  0  0  0  0  0  0  0  0
   62.5660   31.6630   47.7160 C   0  0  0  0  0  0  0  0  0  0  0  0
   63.2390   32.4200   46.7430 O   0  0  0  0  0  0  0  0  0  0  0  0
   63.3470   33.8410   46.7580 C   0  0  0  0  0  0  0  0  0  0  0  0
   64.6772   32.2874   51.3141 H   0  0  0  0  0  0  0  0  0  0  0  0
   65.4804   31.0940   50.2382 H   0  0  0  0  0  0  0  0  0  0  0  0
   66.0182   32.8079   50.2382 H   0  0  0  0  0  0  0  0  0  0  0  0
   62.7967   30.9233   51.0529 H   0  0  0  0  0  0  0  0  0  0  0  0
   60.7785   29.5790   50.4957 H   0  0  0  0  0  0  0  0  0  0  0  0
   59.0050   27.4408   46.1473 H   0  0  0  0  0  0  0  0  0  0  0  0
   58.3543   26.7474   43.8420 H   0  0  0  0  0  0  0  0  0  0  0  0
   57.1149   28.3282   42.3633 H   0  0  0  0  0  0  0  0  0  0  0  0
   56.4967   30.5961   43.1969 H   0  0  0  0  0  0  0  0  0  0  0  0
   57.6625   33.1818   43.5715 H   0  0  0  0  0  0  0  0  0  0  0  0
   59.1815   35.1547   43.6400 H   0  0  0  0  0  0  0  0  0  0  0  0
   60.3113   35.7971   45.7664 H   0  0  0  0  0  0  0  0  0  0  0  0
   60.7048   35.4097   48.1554 H   0  0  0  0  0  0  0  0  0  0  0  0
   60.2776   34.0615   50.2149 H   0  0  0  0  0  0  0  0  0  0  0  0
   58.7583   32.0842   50.1044 H   0  0  0  0  0  0  0  0  0  0  0  0
   57.7250   31.5020   48.0230 H   0  0  0  0  0  0  0  0  0  0  0  0
   61.0142   30.9186   46.3889 H   0  0  0  0  0  0  0  0  0  0  0  0
   63.3740   34.1957   47.7989 H   0  0  0  0  0  0  0  0  0  0  0  0
   64.2708   34.1440   46.2433 H   0  0  0  0  0  0  0  0  0  0  0  0
   62.4796   34.2801   46.2433 H   0  0  0  0  0  0  0  0  0  0  0  0
  1  2  1  0
  2  3  1  0
  3  4  2  0
  4  5  1  0
  5  6  2  0
  6  7  1  0
  7  8  2  0
  7  9  1  0
  9 10  1  0
 10 11  2  0
 11 12  1  0
 12 13  2  0
 13 14  1  0
 14 15  2  0
 15 16  1  0
 16 17  1  0
 17 18  2  0
 18 19  1  0
 19 20  2  0
 20 21  1  0
 21 22  2  0
 22 23  1  0
 23 24  2  0
 24 25  1  0
 25 26  2  0
  6 27  1  0
 27 28  2  0
 28 29  1  0
 29 30  1  0
 28  3  1  0
 15 10  1  0
 26 17  1  0
 26 21  1  0
  1 31  1  0
  1 32  1  0
  1 33  1  0
  4 34  1  0
  5 35  1  0
 11 36  1  0
 12 37  1  0
 13 38  1  0
 14 39  1  0
 18 40  1  0
 19 41  1  0
 20 42  1  0
 22 43  1  0
 23 44  1  0
 24 45  1  0
 25 46  1  0
 27 47  1  0
 30 48  1  0
 30 49  1  0
 30 50  1  0
M  CHG  2   9  -1  25   1
M  END
>  <UniqueID>  (89) 
83

>  <SMILES>  (89) 
COc1ccc(C(=O)[N-]c2ccccc2Oc2cccc3ccc[nH+]c23)cc1OC

>  <Energy>  (89) 
70.26261575661546

>  <Genealogy>  (89) 
COc1ccc(C(=O)[N-]c2ccccc2Oc2cccc3ccc[nH+]c23)cc1OC (protonated)
COc1ccc(C(=O)[N-]c2ccccc2Oc2cccc3ccc[nH+]c23)cc1OC (3D coordinates assigned)
COc1ccc(C(=O)[N-]c2ccccc2Oc2cccc3ccc[nH+]c23)cc1OC (optimized conformer: 70.26261575661546 kcal/mol)

>  <smiles>  (89) 
COc1ccc(C(=O)Nc2ccccc2Oc2cccc3cccnc23)cc1OC

>  <score_type>  (89) 
oracle

>  <origin>  (89) 
adg

>  <m_score__min__energy>  (89) 
-8.3499999999999996

>  <m_primary>  (89) 
energy

$$$$
89:0
     RDKit          3D

 73 76  0  0  0  0  0  0  0  0999 V2000
   57.7370   30.3940   52.5900 C   0  0  0  0  0  0  0  0  0  0  0  0
   58.2820   29.8550   51.3900 O   0  0  0  0  0  0  0  0  0  0  0  0
   58.5380   30.5920   50.2240 C   0  0  0  0  0  0  0  0  0  0  0  0
   58.2530   31.9690   50.1400 C   0  0  0  0  0  0  0  0  0  0  0  0
   58.4830   32.6670   48.9530 C   0  0  0  0  0  0  0  0  0  0  0  0
   58.9900   32.0050   47.8360 C   0  0  0  0  0  0  0  0  0  0  0  0
   59.2950   30.6390   47.9070 C   0  0  0  0  0  0  0  0  0  0  0  0
   59.8800   29.9560   46.7410 C   0  0  0  0  0  0  0  0  0  0  0  0
   59.2550   29.0020   46.0310 C   0  0  0  0  0  0  0  0  0  0  0  0
   57.8360   28.6110   46.1670 C   0  0  0  0  0  0  0  0  0  0  0  0
   56.9580   29.3140   45.5960 O   0  0  0  0  0  0  0  0  0  0  0  0
   57.4450   27.4410   46.8890 N   0  0  0  0  0  0  0  0  0  0  0  0
   56.6760   26.0730   46.1570 S   0  0  0  0  0  0  0  0  0  0  0  0
   56.8120   24.8730   47.0540 O   0  0  0  0  0  0  0  0  0  0  0  0
   55.2130   26.3790   45.9900 O   0  0  0  0  0  0  0  0  0  0  0  0
   57.4060   25.7070   44.5650 C   0  0  0  0  0  0  0  0  0  0  0  0
   57.3620   24.2340   44.2550 C   0  0  0  0  0  0  0  0  0  0  0  0
   58.2470   23.3460   44.8920 C   0  0  0  0  0  0  0  0  0  0  0  0
   58.1920   21.9760   44.6160 C   0  0  0  0  0  0  0  0  0  0  0  0
   57.2600   21.4810   43.7010 C   0  0  0  0  0  0  0  0  0  0  0  0
   56.3660   22.3520   43.0750 C   0  0  0  0  0  0  0  0  0  0  0  0
   56.4070   23.7210   43.3580 C   0  0  0  0  0  0  0  0  0  0  0  0
   59.0740   29.9310   49.0990 C   0  0  0  0  0  0  0  0  0  0  0  0
   59.3750   28.5650   49.1270 O   0  0  0  0  0  0  0  0  0  0  0  0
   60.6900   28.0590   49.3340 C   0  0  0  0  0  0  0  0  0  0  0  0
   60.7460   27.2620   50.6390 C   0  0  0  0  0  0  0  0  0  0  0  0
   60.8230   28.1570   51.8860 C   0  0  0  0  0  0  0  0  0  0  0  0
   61.8250   29.2260   51.7270 N   0  0  0  0  0  0  0  0  0  0  0  0
   61.3980   30.5180   51.5740 C   0  0  0  0  0  0  0  0  0  0  0  0
   62.3160   31.5610   51.4250 C   0  0  0  0  0  0  0  0  0  0  0  0
   63.6840   31.2940   51.4480 C   0  0  0  0  0  0  0  0  0  0  0  0
   64.5770   32.3730   51.3350 O   0  0  0  0  0  0  0  0  0  0  0  0
   64.2310   33.6890   50.9010 C   0  0  0  0  0  0  0  0  0  0  0  0
   63.4770   33.6480   49.5970 C   0  0  0  0  0  0  0  0  0  0  0  0
   62.1870   34.1970   49.5070 C   0  0  0  0  0  0  0  0  0  0  0  0
   61.4940   34.1710   48.2910 C   0  0  0  0  0  0  0  0  0  0  0  0
   62.0890   33.6090   47.1580 C   0  0  0  0  0  0  0  0  0  0  0  0
   61.4140   33.5730   45.9820 F   0  0  0  0  0  0  0  0  0  0  0  0
   63.3770   33.0750   47.2370 C   0  0  0  0  0  0  0  0  0  0  0  0
   64.0720   33.0980   48.4500 C   0  0  0  0  0  0  0  0  0  0  0  0
   64.1120   29.9640   51.5930 C   0  0  0  0  0  0  0  0  0  0  0  0
   63.1680   28.9390   51.7250 C   0  0  0  0  0  0  0  0  0  0  0  0
   63.5730   27.7480   51.8440 O   0  0  0  0  0  0  0  0  0  0  0  0
   58.2181   29.9182   53.4573 H   0  0  0  0  0  0  0  0  0  0  0  0
   57.9175   31.4787   52.6199 H   0  0  0  0  0  0  0  0  0  0  0  0
   56.6544   30.2015   52.6199 H   0  0  0  0  0  0  0  0  0  0  0  0
   57.8467   32.4975   51.0150 H   0  0  0  0  0  0  0  0  0  0  0  0
   58.2633   33.7435   48.8990 H   0  0  0  0  0  0  0  0  0  0  0  0
   59.1509   32.5556   46.8974 H   0  0  0  0  0  0  0  0  0  0  0  0
   60.8949   30.2458   46.4311 H   0  0  0  0  0  0  0  0  0  0  0  0
   59.8530   28.4635   45.2811 H   0  0  0  0  0  0  0  0  0  0  0  0
   56.8525   26.2515   43.7858 H   0  0  0  0  0  0  0  0  0  0  0  0
   58.4604   26.0193   44.5924 H   0  0  0  0  0  0  0  0  0  0  0  0
   58.9858   23.7306   45.6105 H   0  0  0  0  0  0  0  0  0  0  0  0
   58.8846   21.2865   45.1209 H   0  0  0  0  0  0  0  0  0  0  0  0
   57.2303   20.4052   43.4736 H   0  0  0  0  0  0  0  0  0  0  0  0
   55.6287   21.9610   42.3585 H   0  0  0  0  0  0  0  0  0  0  0  0
   55.6885   24.4007   42.8765 H   0  0  0  0  0  0  0  0  0  0  0  0
   60.9639   27.4029   48.4947 H   0  0  0  0  0  0  0  0  0  0  0  0
   61.3949   28.9012   49.3954 H   0  0  0  0  0  0  0  0  0  0  0  0
   59.8414   26.6401   50.7091 H   0  0  0  0  0  0  0  0  0  0  0  0
   61.6617   26.6531   50.6138 H   0  0  0  0  0  0  0  0  0  0  0  0
   59.8376   28.6145   52.0582 H   0  0  0  0  0  0  0  0  0  0  0  0
   61.1210   27.5312   52.7401 H   0  0  0  0  0  0  0  0  0  0  0  0
   60.3201   30.7374   51.5683 H   0  0  0  0  0  0  0  0  0  0  0  0
   61.9592   32.5927   51.2896 H   0  0  0  0  0  0  0  0  0  0  0  0
   63.6005   34.1657   51.6660 H   0  0  0  0  0  0  0  0  0  0  0  0
   65.1573   34.2631   50.7517 H   0  0  0  0  0  0  0  0  0  0  0  0
   61.7201   34.6486   50.3947 H   0  0  0  0  0  0  0  0  0  0  0  0
   60.4803   34.5932   48.2271 H   0  0  0  0  0  0  0  0  0  0  0  0
   63.8453   32.6358   46.3438 H   0  0  0  0  0  0  0  0  0  0  0  0
   65.0893   32.6834   48.5061 H   0  0  0  0  0  0  0  0  0  0  0  0
   65.1865   29.7286   51.6028 H   0  0  0  0  0  0  0  0  0  0  0  0
  1  2  1  0
  2  3  1  0
  3  4  2  0
  4  5  1  0
  5  6  2  0
  6  7  1  0
  7  8  1  0
  8  9  2  3
  9 10  1  0
 10 11  2  0
 10 12  1  0
 12 13  1  0
 13 14  2  0
 13 15  2  0
 13 16  1  0
 16 17  1  0
 17 18  2  0
 18 19  1  0
 19 20  2  0
 20 21  1  0
 21 22  2  0
  7 23  2  0
 23 24  1  0
 24 25  1  0
 25 26  1  0
 26 27  1  0
 27 28  1  0
 28 29  1  0
 29 30  2  0
 30 31  1  0
 31 32  1  0
 32 33  1  0
 33 34  1  0
 34 35  2  0
 35 36  1  0
 36 37  2  0
 37 38  1  0
 37 39  1  0
 39 40  2  0
 31 41  2  0
 41 42  1  0
 42 43  2  0
 23  3  1  0
 42 28  1  0
 22 17  1  0
 40 34  1  0
  1 44  1  0
  1 45  1  0
  1 46  1  0
  4 47  1  0
  5 48  1  0
  6 49  1  0
  8 50  1  0
  9 51  1  0
 16 52  1  0
 16 53  1  0
 18 54  1  0
 19 55  1  0
 20 56  1  0
 21 57  1  0
 22 58  1  0
 25 59  1  0
 25 60  1  0
 26 61  1  0
 26 62  1  0
 27 63  1  0
 27 64  1  0
 29 65  1  0
 30 66  1  0
 33 67  1  0
 33 68  1  0
 35 69  1  0
 36 70  1  0
 39 71  1  0
 40 72  1  0
 41 73  1  0
M  CHG  1  12  -1
M  END
>  <UniqueID>  (90) 
84

>  <SMILES>  (90) 
COc1cccc(C=CC(=O)[N-]S(=O)(=O)Cc2ccccc2)c1OCCCn1ccc(OCc2ccc(F)cc2)cc1=O

>  <Energy>  (90) 
79.70920552280016

>  <Genealogy>  (90) 
COc1cccc(C=CC(=O)[N-]S(=O)(=O)Cc2ccccc2)c1OCCCn1ccc(OCc2ccc(F)cc2)cc1=O (protonated)
COc1cccc(C=CC(=O)[N-]S(=O)(=O)Cc2ccccc2)c1OCCCn1ccc(OCc2ccc(F)cc2)cc1=O (3D coordinates assigned)
COc1cccc(C=CC(=O)[N-]S(=O)(=O)Cc2ccccc2)c1OCCCn1ccc(OCc2ccc(F)cc2)cc1=O (optimized conformer: 79.70920552280016 kcal/mol)

>  <smiles>  (90) 
COc1cccc(C=CC(=O)NS(=O)(=O)Cc2ccccc2)c1OCCCn1ccc(OCc2ccc(F)cc2)cc1=O

>  <score_type>  (90) 
oracle

>  <origin>  (90) 
adg

>  <m_score__min__energy>  (90) 
-11.029999999999999

>  <m_primary>  (90) 
energy

$$$$
90:0
     RDKit          3D

 28 28  0  0  0  0  0  0  0  0999 V2000
   60.3580   28.1640   45.2890 C   0  0  0  0  0  0  0  0  0  0  0  0
   59.5640   27.4120   46.3520 C   0  0  0  0  0  0  0  0  0  0  0  0
   58.9350   26.2610   45.7900 O   0  0  0  0  0  0  0  0  0  0  0  0
   57.7550   26.3170   45.0410 C   0  0  0  0  0  0  0  0  0  0  0  0
   57.7660   26.0460   43.8080 O   0  0  0  0  0  0  0  0  0  0  0  0
   56.4910   26.6610   45.7130 C   0  0  0  0  0  0  0  0  0  0  0  0
   55.8870   25.7730   46.3690 O   0  0  0  0  0  0  0  0  0  0  0  0
   55.8920   27.9580   45.5900 N   0  0  0  0  0  0  0  0  0  0  0  0
   56.4350   29.0750   44.8720 C   0  0  0  0  0  0  0  0  0  0  0  0
   57.4350   29.8470   45.4740 C   0  0  0  0  0  0  0  0  0  0  0  0
   58.0070   30.9250   44.7920 C   0  0  0  0  0  0  0  0  0  0  0  0
   57.5920   31.2360   43.4820 C   0  0  0  0  0  0  0  0  0  0  0  0
   58.1330   32.3070   42.7570 O   0  0  0  0  0  0  0  0  0  0  0  0
   58.0860   32.4230   41.3390 C   0  0  0  0  0  0  0  0  0  0  0  0
   56.6090   30.4470   42.8730 C   0  0  0  0  0  0  0  0  0  0  0  0
   56.0390   29.3690   43.5560 C   0  0  0  0  0  0  0  0  0  0  0  0
   61.0737   28.8419   45.7771 H   0  0  0  0  0  0  0  0  0  0  0  0
   60.9041   27.4442   44.6616 H   0  0  0  0  0  0  0  0  0  0  0  0
   59.6689   28.7484   44.6616 H   0  0  0  0  0  0  0  0  0  0  0  0
   60.2454   27.0953   47.1553 H   0  0  0  0  0  0  0  0  0  0  0  0
   58.7872   28.0800   46.7525 H   0  0  0  0  0  0  0  0  0  0  0  0
   57.7737   29.6037   46.4919 H   0  0  0  0  0  0  0  0  0  0  0  0
   58.7836   31.5324   45.2798 H   0  0  0  0  0  0  0  0  0  0  0  0
   57.6859   33.4103   41.0649 H   0  0  0  0  0  0  0  0  0  0  0  0
   59.1003   32.3114   40.9282 H   0  0  0  0  0  0  0  0  0  0  0  0
   57.4355   31.6369   40.9282 H   0  0  0  0  0  0  0  0  0  0  0  0
   56.2824   30.6774   41.8482 H   0  0  0  0  0  0  0  0  0  0  0  0
   55.2774   28.7482   43.0615 H   0  0  0  0  0  0  0  0  0  0  0  0
  1  2  1  0
  2  3  1  0
  3  4  1  0
  4  5  2  0
  4  6  1  0
  6  7  2  0
  6  8  1  0
  8  9  1  0
  9 10  2  0
 10 11  1  0
 11 12  2  0
 12 13  1  0
 13 14  1  0
 12 15  1  0
 15 16  2  0
 16  9  1  0
  1 17  1  0
  1 18  1  0
  1 19  1  0
  2 20  1  0
  2 21  1  0
 10 22  1  0
 11 23  1  0
 14 24  1  0
 14 25  1  0
 14 26  1  0
 15 27  1  0
 16 28  1  0
M  CHG  1   8  -1
M  END
>  <UniqueID>  (91) 
85

>  <SMILES>  (91) 
CCOC(=O)C(=O)[N-]c1ccc(OC)cc1

>  <Energy>  (91) 
25.873505474608276

>  <Genealogy>  (91) 
CCOC(=O)C(=O)[N-]c1ccc(OC)cc1 (protonated)
CCOC(=O)C(=O)[N-]c1ccc(OC)cc1 (3D coordinates assigned)
CCOC(=O)C(=O)[N-]c1ccc(OC)cc1 (optimized conformer: 25.873505474608276 kcal/mol)

>  <smiles>  (91) 
CCOC(=O)C(=O)Nc1ccc(OC)cc1

>  <score_type>  (91) 
oracle

>  <origin>  (91) 
adg

>  <m_score__min__energy>  (91) 
-6.7599999999999998

>  <m_primary>  (91) 
energy

$$$$
91:0
     RDKit          3D

 32 33  0  0  0  0  0  0  0  0999 V2000
   55.7552   31.2085   43.3615 H   0  0  0  0  0  0  0  0  0  0  0  0
   56.5570   30.6800   43.8980 C   0  0  0  0  0  0  0  0  0  0  0  0
   58.1810   31.0940   43.9080 S   0  0  0  0  0  0  0  0  0  0  0  0
   58.6370   29.8180   44.8970 C   0  0  0  0  0  0  0  0  0  0  0  0
   59.8890   29.6420   45.2320 N   0  0  0  0  0  0  0  0  0  0  0  0
   60.5690   29.7060   46.5230 C   0  0  0  0  0  0  0  0  0  0  0  0
   59.8710   29.3932   47.3136 H   0  0  0  0  0  0  0  0  0  0  0  0
   61.4417   29.0370   46.4941 H   0  0  0  0  0  0  0  0  0  0  0  0
   61.0550   31.1350   46.8170 C   0  0  0  0  0  0  0  0  0  0  0  0
   61.9850   31.0746   47.4014 H   0  0  0  0  0  0  0  0  0  0  0  0
   61.2069   31.6341   45.8486 H   0  0  0  0  0  0  0  0  0  0  0  0
   60.0350   31.9720   47.6070 C   0  0  0  0  0  0  0  0  0  0  0  0
   59.3819   31.2916   48.1732 H   0  0  0  0  0  0  0  0  0  0  0  0
   60.5954   32.6410   48.2766 H   0  0  0  0  0  0  0  0  0  0  0  0
   59.1800   32.8290   46.7090 C   0  0  0  0  0  0  0  0  0  0  0  0
   57.7780   32.7550   46.7780 C   0  0  0  0  0  0  0  0  0  0  0  0
   57.3000   32.0565   47.4805 H   0  0  0  0  0  0  0  0  0  0  0  0
   56.9890   33.5660   45.9570 C   0  0  0  0  0  0  0  0  0  0  0  0
   55.8923   33.5023   46.0128 H   0  0  0  0  0  0  0  0  0  0  0  0
   57.5920   34.4580   45.0650 C   0  0  0  0  0  0  0  0  0  0  0  0
   56.9696   35.0954   44.4197 H   0  0  0  0  0  0  0  0  0  0  0  0
   58.9850   34.5400   44.9930 C   0  0  0  0  0  0  0  0  0  0  0  0
   59.4584   35.2417   44.2905 H   0  0  0  0  0  0  0  0  0  0  0  0
   59.7780   33.7310   45.8130 C   0  0  0  0  0  0  0  0  0  0  0  0
   60.8743   33.8011   45.7563 H   0  0  0  0  0  0  0  0  0  0  0  0
   57.5550   29.0540   45.2520 N   0  0  0  0  0  0  0  0  0  0  0  0
   57.5210   27.9460   46.2140 C   0  0  0  0  0  0  0  0  0  0  0  0
   57.5334   28.3486   47.2376 H   0  0  0  0  0  0  0  0  0  0  0  0
   56.6044   27.3570   46.0627 H   0  0  0  0  0  0  0  0  0  0  0  0
   58.3998   27.3019   46.0627 H   0  0  0  0  0  0  0  0  0  0  0  0
   56.4070   29.5500   44.6890 C   0  0  0  0  0  0  0  0  0  0  0  0
   55.1580   28.9750   44.8990 O   0  0  0  0  0  0  0  0  0  0  0  0
  1  2  1  0
  2  3  1  0
  3  4  1  0
  4  5  2  0
  5  6  1  0
  6  7  1  0
  6  8  1  0
  6  9  1  0
  9 10  1  0
  9 11  1  0
  9 12  1  0
 12 13  1  0
 12 14  1  0
 12 15  1  0
 15 16  2  0
 16 17  1  0
 16 18  1  0
 18 19  1  0
 18 20  2  0
 20 21  1  0
 20 22  1  0
 22 23  1  0
 22 24  2  0
 24 25  1  0
  4 26  1  0
 26 27  1  0
 27 28  1  0
 27 29  1  0
 27 30  1  0
 26 31  1  0
 31 32  1  0
 31  2  2  0
 24 15  1  0
M  CHG  1  32  -1
M  END
>  <UniqueID>  (92) 
86

>  <SMILES>  (92) 
Cn1c([O-])cs/c1=N/CCCc1ccccc1

>  <Energy>  (92) 
68.71407398196166

>  <Genealogy>  (92) 
Cn1c([O-])csc1=NCCCc1ccccc1 (protonated)
Cn1c([O-])cs/c1=N/CCCc1ccccc1 (cis-trans isomerization)
Cn1c([O-])cs/c1=N/CCCc1ccccc1 (3D coordinates assigned)
Cn1c([O-])cs/c1=N/CCCc1ccccc1 (optimized conformer: 68.71407398196166 kcal/mol)

>  <smiles>  (92) 
Cn1c(O)csc1=NCCCc1ccccc1

>  <score_type>  (92) 
oracle

>  <origin>  (92) 
adg

>  <m_score__min__energy>  (92) 
-9.5999999999999996

>  <m_primary>  (92) 
energy

$$$$
92:0
     RDKit          3D

 51 53  0  0  0  0  0  0  0  0999 V2000
   65.0400   33.3260   49.9810 C   0  0  0  0  0  0  0  0  0  0  0  0
   63.9310   33.3840   49.0880 O   0  0  0  0  0  0  0  0  0  0  0  0
   63.0460   32.3200   48.8580 C   0  0  0  0  0  0  0  0  0  0  0  0
   62.6680   31.5200   49.9410 C   0  0  0  0  0  0  0  0  0  0  0  0
   61.7980   30.4390   49.7590 C   0  0  0  0  0  0  0  0  0  0  0  0
   61.3130   30.1290   48.4850 C   0  0  0  0  0  0  0  0  0  0  0  0
   60.4500   29.0320   48.3330 O   0  0  0  0  0  0  0  0  0  0  0  0
   59.8150   28.6970   47.1320 C   0  0  0  0  0  0  0  0  0  0  0  0
   58.4300   28.4990   47.1220 C   0  0  0  0  0  0  0  0  0  0  0  0
   57.7650   28.2280   45.9220 C   0  0  0  0  0  0  0  0  0  0  0  0
   58.4880   28.1110   44.7230 C   0  0  0  0  0  0  0  0  0  0  0  0
   57.7640   27.9990   43.4090 C   0  0  0  0  0  0  0  0  0  0  0  0
   57.0500   29.2950   43.1270 C   0  0  0  0  0  0  0  0  0  0  0  0
   55.8630   29.2990   42.5990 N   0  0  0  0  0  0  0  0  0  0  0  0
   57.7050   30.5310   43.4500 N   0  0  0  0  0  0  0  0  0  0  0  0
   57.1310   31.4710   44.3770 C   0  0  0  0  0  0  0  0  0  0  0  0
   55.8840   31.4690   44.5720 O   0  0  0  0  0  0  0  0  0  0  0  0
   57.9790   32.4360   45.1250 C   0  0  0  0  0  0  0  0  0  0  0  0
   58.4930   33.5710   44.4700 C   0  0  0  0  0  0  0  0  0  0  0  0
   59.2630   34.5080   45.1670 C   0  0  0  0  0  0  0  0  0  0  0  0
   59.5260   34.3260   46.5270 C   0  0  0  0  0  0  0  0  0  0  0  0
   59.0280   33.2020   47.1990 C   0  0  0  0  0  0  0  0  0  0  0  0
   59.2690   33.0340   48.6710 C   0  0  0  0  0  0  0  0  0  0  0  0
   58.2400   32.2710   46.5000 C   0  0  0  0  0  0  0  0  0  0  0  0
   59.8850   28.2470   44.7470 C   0  0  0  0  0  0  0  0  0  0  0  0
   60.5450   28.5430   45.9410 C   0  0  0  0  0  0  0  0  0  0  0  0
   61.6740   30.9400   47.3940 C   0  0  0  0  0  0  0  0  0  0  0  0
   62.5310   32.0300   47.5790 C   0  0  0  0  0  0  0  0  0  0  0  0
   64.6763   33.3450   51.0190 H   0  0  0  0  0  0  0  0  0  0  0  0
   65.6030   32.3972   49.8067 H   0  0  0  0  0  0  0  0  0  0  0  0
   65.6968   34.1910   49.8067 H   0  0  0  0  0  0  0  0  0  0  0  0
   63.0581   31.7425   50.9452 H   0  0  0  0  0  0  0  0  0  0  0  0
   61.4941   29.8299   50.6231 H   0  0  0  0  0  0  0  0  0  0  0  0
   57.8617   28.5567   48.0621 H   0  0  0  0  0  0  0  0  0  0  0  0
   56.6718   28.1060   45.9168 H   0  0  0  0  0  0  0  0  0  0  0  0
   58.4876   27.7950   42.6061 H   0  0  0  0  0  0  0  0  0  0  0  0
   57.0345   27.1771   43.4570 H   0  0  0  0  0  0  0  0  0  0  0  0
   55.2210   30.1150   42.7120 H   0  0  0  0  0  0  0  0  0  0  0  0
   55.5110   28.4710   42.0680 H   0  0  0  0  0  0  0  0  0  0  0  0
   58.7070   30.6240   43.1750 H   0  0  0  0  0  0  0  0  0  0  0  0
   58.2872   33.7225   43.4001 H   0  0  0  0  0  0  0  0  0  0  0  0
   59.6620   35.3894   44.6436 H   0  0  0  0  0  0  0  0  0  0  0  0
   60.1268   35.0685   47.0726 H   0  0  0  0  0  0  0  0  0  0  0  0
   58.4935   33.5746   49.2335 H   0  0  0  0  0  0  0  0  0  0  0  0
   59.2314   31.9654   48.9291 H   0  0  0  0  0  0  0  0  0  0  0  0
   60.2586   33.4390   48.9291 H   0  0  0  0  0  0  0  0  0  0  0  0
   57.8224   31.4038   47.0324 H   0  0  0  0  0  0  0  0  0  0  0  0
   60.4629   28.1196   43.8197 H   0  0  0  0  0  0  0  0  0  0  0  0
   61.6391   28.6560   45.9496 H   0  0  0  0  0  0  0  0  0  0  0  0
   61.2809   30.7162   46.3913 H   0  0  0  0  0  0  0  0  0  0  0  0
   62.8040   32.6635   46.7222 H   0  0  0  0  0  0  0  0  0  0  0  0
  1  2  1  0
  2  3  1  0
  3  4  2  0
  4  5  1  0
  5  6  2  0
  6  7  1  0
  7  8  1  0
  8  9  2  0
  9 10  1  0
 10 11  2  0
 11 12  1  0
 12 13  1  0
 13 14  2  0
 13 15  1  0
 15 16  1  0
 16 17  2  0
 16 18  1  0
 18 19  2  0
 19 20  1  0
 20 21  2  0
 21 22  1  0
 22 23  1  0
 22 24  2  0
 11 25  1  0
 25 26  2  0
  6 27  1  0
 27 28  2  0
 28  3  1  0
 26  8  1  0
 24 18  1  0
  1 29  1  0
  1 30  1  0
  1 31  1  0
  4 32  1  0
  5 33  1  0
  9 34  1  0
 10 35  1  0
 12 36  1  0
 12 37  1  0
 14 38  1  0
 14 39  1  0
 15 40  1  0
 19 41  1  0
 20 42  1  0
 21 43  1  0
 23 44  1  0
 23 45  1  0
 23 46  1  0
 24 47  1  0
 25 48  1  0
 26 49  1  0
 27 50  1  0
 28 51  1  0
M  CHG  1  14   1
M  END
>  <UniqueID>  (93) 
87

>  <SMILES>  (93) 
COc1ccc(Oc2ccc(CC(=[NH2+])NC(=O)c3cccc(C)c3)cc2)cc1

>  <Energy>  (93) 
59.02397587968129

>  <Genealogy>  (93) 
COc1ccc(Oc2ccc(CC(=[NH2+])NC(=O)c3cccc(C)c3)cc2)cc1 (protonated)
COc1ccc(Oc2ccc(CC(=[NH2+])NC(=O)c3cccc(C)c3)cc2)cc1 (3D coordinates assigned)
COc1ccc(Oc2ccc(CC(=[NH2+])NC(=O)c3cccc(C)c3)cc2)cc1 (optimized conformer: 59.02397587968129 kcal/mol)

>  <smiles>  (93) 
COc1ccc(Oc2ccc(CC(=N)NC(=O)c3cccc(C)c3)cc2)cc1

>  <score_type>  (93) 
oracle

>  <origin>  (93) 
adg

>  <m_score__min__energy>  (93) 
-7.3899999999999997

>  <m_primary>  (93) 
energy

$$$$
93:0
     RDKit          3D

 48 51  0  0  0  0  0  0  0  0999 V2000
   59.8740   33.9140   54.0630 C   0  0  0  0  0  0  0  0  0  0  0  0
   60.1740   32.9340   53.0730 O   0  0  0  0  0  0  0  0  0  0  0  0
   59.7260   32.9880   51.7450 C   0  0  0  0  0  0  0  0  0  0  0  0
   58.6690   32.1860   51.2710 C   0  0  0  0  0  0  0  0  0  0  0  0
   58.2610   32.2760   49.9380 C   0  0  0  0  0  0  0  0  0  0  0  0
   58.9050   33.1580   49.0590 C   0  0  0  0  0  0  0  0  0  0  0  0
   58.4050   33.2570   47.3730 S   0  0  0  0  0  0  0  0  0  0  0  0
   59.1060   34.4180   46.7260 O   0  0  0  0  0  0  0  0  0  0  0  0
   56.9210   33.4800   47.2790 O   0  0  0  0  0  0  0  0  0  0  0  0
   58.8210   31.7740   46.5150 C   0  0  0  0  0  0  0  0  0  0  0  0
   57.8800   31.2030   45.7150 N   0  0  0  0  0  0  0  0  0  0  0  0
   58.1220   30.0470   45.0460 C   0  0  0  0  0  0  0  0  0  0  0  0
   57.1410   29.4770   44.2260 C   0  0  0  0  0  0  0  0  0  0  0  0
   57.4070   28.2810   43.5520 C   0  0  0  0  0  0  0  0  0  0  0  0
   58.6500   27.6530   43.6950 C   0  0  0  0  0  0  0  0  0  0  0  0
   59.6340   28.2190   44.5140 C   0  0  0  0  0  0  0  0  0  0  0  0
   59.3720   29.4160   45.1900 C   0  0  0  0  0  0  0  0  0  0  0  0
   60.3140   29.9820   45.9870 N   0  0  0  0  0  0  0  0  0  0  0  0
   60.0800   31.1490   46.6470 C   0  0  0  0  0  0  0  0  0  0  0  0
   61.1160   31.7030   47.4690 N   0  0  0  0  0  0  0  0  0  0  0  0
   61.8090   32.9290   47.0560 C   0  0  0  0  0  0  0  0  0  0  0  0
   63.3230   32.7050   47.1020 C   0  0  0  0  0  0  0  0  0  0  0  0
   63.8090   32.1700   48.4680 C   0  0  0  0  0  0  0  0  0  0  0  0
   62.6750   31.6940   49.3920 C   0  0  0  0  0  0  0  0  0  0  0  0
   61.5990   30.9260   48.6170 C   0  0  0  0  0  0  0  0  0  0  0  0
   59.9480   33.9640   49.5330 C   0  0  0  0  0  0  0  0  0  0  0  0
   60.3560   33.8760   50.8660 C   0  0  0  0  0  0  0  0  0  0  0  0
   60.0077   33.4772   55.0637 H   0  0  0  0  0  0  0  0  0  0  0  0
   60.5502   34.7736   53.9448 H   0  0  0  0  0  0  0  0  0  0  0  0
   58.8325   34.2478   53.9448 H   0  0  0  0  0  0  0  0  0  0  0  0
   58.1633   31.4866   51.9529 H   0  0  0  0  0  0  0  0  0  0  0  0
   57.4305   31.6519   49.5764 H   0  0  0  0  0  0  0  0  0  0  0  0
   56.1636   29.9686   44.1122 H   0  0  0  0  0  0  0  0  0  0  0  0
   56.6370   27.8321   42.9073 H   0  0  0  0  0  0  0  0  0  0  0  0
   58.8539   26.7124   43.1624 H   0  0  0  0  0  0  0  0  0  0  0  0
   60.6102   27.7244   44.6259 H   0  0  0  0  0  0  0  0  0  0  0  0
   61.5089   33.1912   46.0307 H   0  0  0  0  0  0  0  0  0  0  0  0
   61.5404   33.7478   47.7397 H   0  0  0  0  0  0  0  0  0  0  0  0
   63.5943   31.9772   46.3230 H   0  0  0  0  0  0  0  0  0  0  0  0
   63.8066   33.6791   46.9372 H   0  0  0  0  0  0  0  0  0  0  0  0
   64.4863   31.3225   48.2866 H   0  0  0  0  0  0  0  0  0  0  0  0
   64.3064   33.0073   48.9794 H   0  0  0  0  0  0  0  0  0  0  0  0
   63.0973   31.0346   50.1645 H   0  0  0  0  0  0  0  0  0  0  0  0
   62.2058   32.5800   49.8446 H   0  0  0  0  0  0  0  0  0  0  0  0
   62.0247   29.9783   48.2554 H   0  0  0  0  0  0  0  0  0  0  0  0
   60.7511   30.7375   49.2919 H   0  0  0  0  0  0  0  0  0  0  0  0
   60.4478   34.6692   48.8526 H   0  0  0  0  0  0  0  0  0  0  0  0
   61.1791   34.5098   51.2276 H   0  0  0  0  0  0  0  0  0  0  0  0
  1  2  1  0
  2  3  1  0
  3  4  2  0
  4  5  1  0
  5  6  2  0
  6  7  1  0
  7  8  2  0
  7  9  2  0
  7 10  1  0
 10 11  2  0
 11 12  1  0
 12 13  2  0
 13 14  1  0
 14 15  2  0
 15 16  1  0
 16 17  2  0
 17 18  1  0
 18 19  2  0
 19 20  1  0
 20 21  1  0
 21 22  1  0
 22 23  1  0
 23 24  1  0
 24 25  1  0
  6 26  1  0
 26 27  2  0
 27  3  1  0
 19 10  1  0
 25 20  1  0
 17 12  1  0
  1 28  1  0
  1 29  1  0
  1 30  1  0
  4 31  1  0
  5 32  1  0
 13 33  1  0
 14 34  1  0
 15 35  1  0
 16 36  1  0
 21 37  1  0
 21 38  1  0
 22 39  1  0
 22 40  1  0
 23 41  1  0
 23 42  1  0
 24 43  1  0
 24 44  1  0
 25 45  1  0
 25 46  1  0
 26 47  1  0
 27 48  1  0
M  END
>  <UniqueID>  (94) 
88

>  <SMILES>  (94) 
COc1ccc(S(=O)(=O)c2nc3ccccc3nc2N2CCCCC2)cc1

>  <Energy>  (94) 
61.22282728826071

>  <Genealogy>  (94) 
COc1ccc(S(=O)(=O)c2nc3ccccc3nc2N2CCCCC2)cc1 (3D coordinates assigned)
COc1ccc(S(=O)(=O)c2nc3ccccc3nc2N2CCCCC2)cc1 (nonaromatic ring conformer: 61.22282728826071 kcal/mol)

>  <smiles>  (94) 
COc1ccc(S(=O)(=O)c2nc3ccccc3nc2N2CCCCC2)cc1

>  <score_type>  (94) 
oracle

>  <origin>  (94) 
adg

>  <m_score__min__energy>  (94) 
-8.3800000000000008

>  <m_primary>  (94) 
energy

$$$$
94:0
     RDKit          3D

 50 51  0  0  1  0  0  0  0  0999 V2000
   57.0480   29.6620   45.8290 O   0  0  0  0  0  0  0  0  0  0  0  0
   57.7590   29.4470   44.8410 C   0  0  0  0  0  0  0  0  0  0  0  0
   58.5440   28.1600   44.8420 C   0  0  0  0  0  0  0  0  0  0  0  0
   57.5940   27.0780   45.2830 C   0  0  0  0  0  0  0  0  0  0  0  0
   57.8380   26.6710   46.7240 C   0  0  0  0  0  0  0  0  0  0  0  0
   59.3080   26.6590   47.0160 C   0  0  0  0  0  0  0  0  0  0  0  0
   59.7430   27.5630   48.1190 C   0  0  0  0  0  0  0  0  0  0  0  0
   59.6860   28.9590   47.5780 C   0  0  0  0  0  0  0  0  0  0  0  0
   58.5830   29.7590   47.8700 O   0  0  0  0  0  0  0  0  0  0  0  0
   60.6190   29.4600   46.8480 N   0  0  0  0  0  0  0  0  0  0  0  0
   60.5340   30.7740   46.3900 O   0  0  0  0  0  0  0  0  0  0  0  0
   57.8550   30.3370   43.7470 N   0  0  0  0  0  0  0  0  0  0  0  0
   57.1470   31.5950   43.6460 C   0  0  0  0  0  0  0  0  0  0  0  0
   57.7660   32.5520   44.5870 C   0  0  0  0  0  0  0  0  0  0  0  0
   57.8790   33.9230   44.5240 C   0  0  0  0  0  0  0  0  0  0  0  0
   58.5300   34.4080   45.6390 C   0  0  0  0  0  0  0  0  0  0  0  0
   58.8180   33.2850   46.3970 C   0  0  0  0  0  0  0  0  0  0  0  0
   59.6590   33.3420   47.9480 S   0  0  0  0  0  0  0  0  0  0  0  0
   59.2020   32.1410   48.7270 O   0  0  0  0  0  0  0  0  0  0  0  0
   59.2560   34.6190   48.6320 O   0  0  0  0  0  0  0  0  0  0  0  0
   61.3960   33.2740   47.7390 C   0  0  0  0  0  0  0  0  0  0  0  0
   62.1590   32.6260   48.7100 C   0  0  0  0  0  0  0  0  0  0  0  0
   63.5290   32.5680   48.5550 C   0  0  0  0  0  0  0  0  0  0  0  0
   64.1390   33.1490   47.4410 C   0  0  0  0  0  0  0  0  0  0  0  0
   63.3660   33.7920   46.4820 C   0  0  0  0  0  0  0  0  0  0  0  0
   61.9980   33.8520   46.6340 C   0  0  0  0  0  0  0  0  0  0  0  0
   58.3600   32.1930   45.7630 N   0  0  0  0  0  0  0  0  0  0  0  0
   58.9218   27.9449   43.8316 H   0  0  0  0  0  0  0  0  0  0  0  0
   59.4119   28.2248   45.5147 H   0  0  0  0  0  0  0  0  0  0  0  0
   56.5626   27.4480   45.1867 H   0  0  0  0  0  0  0  0  0  0  0  0
   57.7575   26.1969   44.6451 H   0  0  0  0  0  0  0  0  0  0  0  0
   57.3403   27.3880   47.3935 H   0  0  0  0  0  0  0  0  0  0  0  0
   57.4314   25.6618   46.8860 H   0  0  0  0  0  0  0  0  0  0  0  0
   59.5931   25.6314   47.2856 H   0  0  0  0  0  0  0  0  0  0  0  0
   59.8033   27.0276   46.1056 H   0  0  0  0  0  0  0  0  0  0  0  0
   59.0669   27.4623   48.9808 H   0  0  0  0  0  0  0  0  0  0  0  0
   60.7581   27.3116   48.4601 H   0  0  0  0  0  0  0  0  0  0  0  0
   58.4410   30.6200   47.3360 H   0  0  0  0  0  0  0  0  0  0  0  0
   59.8640   31.3660   46.8820 H   0  0  0  0  0  0  0  0  0  0  0  0
   58.5040   30.0240   42.9620 H   0  0  0  0  0  0  0  0  0  0  0  0
   57.2211   31.9822   42.6191 H   0  0  0  0  0  0  0  0  0  0  0  0
   56.0846   31.4532   43.8934 H   0  0  0  0  0  0  0  0  0  0  0  0
   57.5023   34.5451   43.6987 H   0  0  0  0  0  0  0  0  0  0  0  0
   58.7680   35.4558   45.8744 H   0  0  0  0  0  0  0  0  0  0  0  0
   61.6762   32.1682   49.5859 H   0  0  0  0  0  0  0  0  0  0  0  0
   64.1442   32.0613   49.3132 H   0  0  0  0  0  0  0  0  0  0  0  0
   65.2314   33.0975   47.3228 H   0  0  0  0  0  0  0  0  0  0  0  0
   63.8446   34.2515   45.6046 H   0  0  0  0  0  0  0  0  0  0  0  0
   61.3830   34.3598   45.8764 H   0  0  0  0  0  0  0  0  0  0  0  0
   58.4400   31.1930   46.1110 H   0  0  0  0  0  0  0  0  0  0  0  0
  1  2  2  0
  2  3  1  0
  3  4  1  0
  4  5  1  0
  5  6  1  0
  6  7  1  0
  7  8  1  0
  8  9  1  0
  8 10  2  0
 10 11  1  0
  2 12  1  0
 12 13  1  0
 13 14  1  0
 14 15  2  0
 15 16  1  0
 16 17  2  0
 17 18  1  0
 18 19  2  0
 18 20  2  0
 18 21  1  0
 21 22  2  0
 22 23  1  0
 23 24  2  0
 24 25  1  0
 25 26  2  0
 17 27  1  0
 27 14  1  0
 26 21  1  0
  3 28  1  0
  3 29  1  0
  4 30  1  0
  4 31  1  0
  5 32  1  0
  5 33  1  0
  6 34  1  0
  6 35  1  0
  7 36  1  0
  7 37  1  0
  9 38  1  0
 11 39  1  0
 12 40  1  0
 13 41  1  0
 13 42  1  0
 15 43  1  0
 16 44  1  0
 22 45  1  0
 23 46  1  0
 24 47  1  0
 25 48  1  0
 26 49  1  0
 27 50  1  0
M  END
>  <smiles>  (95) 
O=C(CCCCCC(O)=NO)NCc1ccc(S(=O)(=O)c2ccccc2)[nH]1

>  <score_type>  (95) 
oracle

>  <origin>  (95) 
adg

>  <m_score__min__energy>  (95) 
-10.33

>  <m_primary>  (95) 
energy

$$$$
