0:0
     RDKit          3D

 40 42  0  0  0  0  0  0  0  0999 V2000
   55.5810   32.3160   52.0150 H   0  0  0  0  0  0  0  0  0  0  0  0
   56.5870   32.3760   52.1210 O   0  0  0  0  0  0  0  0  0  0  0  0
   57.4500   31.5620   51.3880 C   0  0  0  0  0  0  0  0  0  0  0  0
   58.0610   32.0610   50.2280 C   0  0  0  0  0  0  0  0  0  0  0  0
   57.8370   33.0837   49.8905 H   0  0  0  0  0  0  0  0  0  0  0  0
   58.9550   31.2670   49.4950 C   0  0  0  0  0  0  0  0  0  0  0  0
   59.6380   31.8240   48.2750 C   0  0  0  0  0  0  0  0  0  0  0  0
   59.6862   32.9201   48.3540 H   0  0  0  0  0  0  0  0  0  0  0  0
   60.6540   31.4075   48.2104 H   0  0  0  0  0  0  0  0  0  0  0  0
   58.8730   31.4480   47.0350 C   0  0  0  0  0  0  0  0  0  0  0  0
   58.8420   30.1140   46.5980 C   0  0  0  0  0  0  0  0  0  0  0  0
   59.3556   29.3345   47.1798 H   0  0  0  0  0  0  0  0  0  0  0  0
   58.1600   29.7730   45.4250 C   0  0  0  0  0  0  0  0  0  0  0  0
   58.1322   28.7253   45.0909 H   0  0  0  0  0  0  0  0  0  0  0  0
   57.5140   30.7610   44.6770 C   0  0  0  0  0  0  0  0  0  0  0  0
   56.6620   30.3310   43.2040 Cl  0  0  0  0  0  0  0  0  0  0  0  0
   57.5520   32.0940   45.1000 C   0  0  0  0  0  0  0  0  0  0  0  0
   57.0468   32.8723   44.5093 H   0  0  0  0  0  0  0  0  0  0  0  0
   58.2310   32.4380   46.2720 C   0  0  0  0  0  0  0  0  0  0  0  0
   58.2630   33.4879   46.5985 H   0  0  0  0  0  0  0  0  0  0  0  0
   59.2570   29.9750   49.9470 C   0  0  0  0  0  0  0  0  0  0  0  0
   59.9772   29.3558   49.3921 H   0  0  0  0  0  0  0  0  0  0  0  0
   58.6490   29.4700   51.0970 C   0  0  0  0  0  0  0  0  0  0  0  0
   58.8946   28.4553   51.4436 H   0  0  0  0  0  0  0  0  0  0  0  0
   57.7250   30.2480   51.8160 C   0  0  0  0  0  0  0  0  0  0  0  0
   57.0900   29.6810   53.0300 C   0  0  0  0  0  0  0  0  0  0  0  0
   57.7820   29.5380   54.0720 O   0  0  0  0  0  0  0  0  0  0  0  0
   55.6980   29.3230   53.0760 N   0  0  0  0  0  0  0  0  0  0  0  0
   54.7010   30.0360   52.6340 C   0  0  0  0  0  0  0  0  0  0  0  0
   54.6650   30.4790   51.3460 N   0  0  0  0  0  0  0  0  0  0  0  0
   53.6300   31.2150   50.8620 C   0  0  0  0  0  0  0  0  0  0  0  0
   53.6436   31.5588   49.8172 H   0  0  0  0  0  0  0  0  0  0  0  0
   52.5440   31.5380   51.6900 C   0  0  0  0  0  0  0  0  0  0  0  0
   51.4140   32.3390   51.1730 C   0  0  0  0  0  0  0  0  0  0  0  0
   51.3850   32.7010   49.9660 O   0  0  0  0  0  0  0  0  0  0  0  0
   50.3670   32.7040   52.0120 O   0  0  0  0  0  0  0  0  0  0  0  0
   52.5580   31.0800   53.0180 C   0  0  0  0  0  0  0  0  0  0  0  0
   51.7183   31.3163   53.6882 H   0  0  0  0  0  0  0  0  0  0  0  0
   53.6340   30.3260   53.4900 C   0  0  0  0  0  0  0  0  0  0  0  0
   53.6424   29.9625   54.5282 H   0  0  0  0  0  0  0  0  0  0  0  0
  1  2  1  0
  2  3  1  0
  3  4  2  0
  4  5  1  0
  4  6  1  0
  6  7  1  0
  7  8  1  0
  7  9  1  0
  7 10  1  0
 10 11  2  0
 11 12  1  0
 11 13  1  0
 13 14  1  0
 13 15  2  0
 15 16  1  0
 15 17  1  0
 17 18  1  0
 17 19  2  0
 19 20  1  0
  6 21  2  0
 21 22  1  0
 21 23  1  0
 23 24  1  0
 23 25  2  0
 25 26  1  0
 26 27  2  0
 26 28  1  0
 28 29  2  0
 29 30  1  0
 30 31  1  0
 31 32  1  0
 31 33  2  0
 33 34  1  0
 34 35  2  0
 34 36  1  0
 33 37  1  0
 37 38  1  0
 37 39  2  0
 39 40  1  0
 25  3  1  0
 39 29  1  0
 19 10  1  0
M  CHG  2  30  -1  36  -1
M  END
>  <UniqueID>  (1) 
1

>  <SMILES>  (1) 
O=C([O-])c1cc/c(=N/C(=O)c2ccc(Cc3ccc(Cl)cc3)cc2O)[n-]c1

>  <Energy>  (1) 
51.285800075109506

>  <Genealogy>  (1) 
O=C([O-])c1ccc(=NC(=O)c2ccc(Cc3ccc(Cl)cc3)cc2O)[n-]c1 (protonated)
O=C([O-])c1cc/c(=N/C(=O)c2ccc(Cc3ccc(Cl)cc3)cc2O)[n-]c1 (cis-trans isomerization)
O=C([O-])c1cc/c(=N/C(=O)c2ccc(Cc3ccc(Cl)cc3)cc2O)[n-]c1 (3D coordinates assigned)
O=C([O-])c1cc/c(=N/C(=O)c2ccc(Cc3ccc(Cl)cc3)cc2O)[n-]c1 (optimized conformer: 51.285800075109506 kcal/mol)

>  <smiles>  (1) 
O=C(O)c1ccc(=NC(=O)c2ccc(Cc3ccc(Cl)cc3)cc2O)[nH]c1

>  <score_type>  (1) 
oracle

>  <origin>  (1) 
adg

>  <m_score__min__energy>  (1) 
-12.76

>  <m_primary>  (1) 
energy

$$$$
1:0
     RDKit          3D

 45 47  0  0  0  0  0  0  0  0999 V2000
   59.5030   34.2320   47.9250 C   0  0  0  0  0  0  0  0  0  0  0  0
   60.9710   33.9040   47.9470 C   0  0  0  0  0  0  0  0  0  0  0  0
   61.6440   33.7050   46.7280 C   0  0  0  0  0  0  0  0  0  0  0  0
   63.0150   33.4490   46.7090 C   0  0  0  0  0  0  0  0  0  0  0  0
   63.7320   33.3880   47.9030 C   0  0  0  0  0  0  0  0  0  0  0  0
   63.0730   33.5430   49.1240 C   0  0  0  0  0  0  0  0  0  0  0  0
   61.6870   33.7690   49.1650 C   0  0  0  0  0  0  0  0  0  0  0  0
   61.0080   33.8650   50.5140 C   0  0  0  0  0  0  0  0  0  0  0  0
   60.0800   32.7100   50.7950 C   0  0  0  0  0  0  0  0  0  0  0  0
   60.3970   31.4450   50.4000 N   0  0  0  0  0  0  0  0  0  0  0  0
   59.5660   30.3900   50.6350 C   0  0  0  0  0  0  0  0  0  0  0  0
   59.8970   29.1860   50.2700 N   0  0  0  0  0  0  0  0  0  0  0  0
   60.4740   28.8250   48.9730 C   0  0  0  0  0  0  0  0  0  0  0  0
   59.5260   29.1330   47.8400 C   0  0  0  0  0  0  0  0  0  0  0  0
   59.5020   30.4190   47.2790 C   0  0  0  0  0  0  0  0  0  0  0  0
   58.6000   30.7270   46.2570 C   0  0  0  0  0  0  0  0  0  0  0  0
   57.7210   29.7480   45.7750 C   0  0  0  0  0  0  0  0  0  0  0  0
   56.6090   30.1280   44.4650 S   0  0  0  0  0  0  0  0  0  0  0  0
   55.1700   29.1860   44.6380 N   0  0  0  0  0  0  0  0  0  0  0  0
   57.2550   29.8160   43.1460 O   0  0  0  0  0  0  0  0  0  0  0  0
   56.2620   31.5890   44.4970 O   0  0  0  0  0  0  0  0  0  0  0  0
   57.7160   28.4740   46.3540 C   0  0  0  0  0  0  0  0  0  0  0  0
   58.6040   28.1710   47.3890 C   0  0  0  0  0  0  0  0  0  0  0  0
   58.3490   30.6170   51.2930 C   0  0  0  0  0  0  0  0  0  0  0  0
   57.5500   29.6700   51.5200 O   0  0  0  0  0  0  0  0  0  0  0  0
   58.0290   31.8750   51.6880 N   0  0  0  0  0  0  0  0  0  0  0  0
   58.8600   32.9270   51.4540 C   0  0  0  0  0  0  0  0  0  0  0  0
   58.4930   34.2050   51.8670 O   0  0  0  0  0  0  0  0  0  0  0  0
   59.1304   34.3152   48.9566 H   0  0  0  0  0  0  0  0  0  0  0  0
   59.3484   35.1868   47.4011 H   0  0  0  0  0  0  0  0  0  0  0  0
   58.9567   33.4338   47.4011 H   0  0  0  0  0  0  0  0  0  0  0  0
   61.0846   33.7516   45.7820 H   0  0  0  0  0  0  0  0  0  0  0  0
   63.5314   33.2950   45.7501 H   0  0  0  0  0  0  0  0  0  0  0  0
   64.8185   33.2175   47.8831 H   0  0  0  0  0  0  0  0  0  0  0  0
   63.6442   33.4877   50.0625 H   0  0  0  0  0  0  0  0  0  0  0  0
   61.7827   33.8890   51.2945 H   0  0  0  0  0  0  0  0  0  0  0  0
   60.3984   34.7806   50.5089 H   0  0  0  0  0  0  0  0  0  0  0  0
   61.4041   29.3933   48.8251 H   0  0  0  0  0  0  0  0  0  0  0  0
   60.6715   27.7429   48.9727 H   0  0  0  0  0  0  0  0  0  0  0  0
   60.1969   31.1888   47.6457 H   0  0  0  0  0  0  0  0  0  0  0  0
   58.5800   31.7405   45.8299 H   0  0  0  0  0  0  0  0  0  0  0  0
   55.1430   28.8520   45.6280 H   0  0  0  0  0  0  0  0  0  0  0  0
   57.0116   27.7098   45.9935 H   0  0  0  0  0  0  0  0  0  0  0  0
   58.5821   27.1744   47.8540 H   0  0  0  0  0  0  0  0  0  0  0  0
   58.6710   35.0100   51.2810 H   0  0  0  0  0  0  0  0  0  0  0  0
  1  2  1  0
  2  3  2  0
  3  4  1  0
  4  5  2  0
  5  6  1  0
  6  7  2  0
  7  8  1  0
  8  9  1  0
  9 10  1  0
 10 11  1  0
 11 12  2  3
 12 13  1  0
 13 14  1  0
 14 15  2  0
 15 16  1  0
 16 17  2  0
 17 18  1  0
 18 19  1  0
 18 20  2  0
 18 21  2  0
 17 22  1  0
 22 23  2  0
 11 24  1  0
 24 25  2  0
 24 26  1  0
 26 27  1  0
 27 28  1  0
  7  2  1  0
 27  9  2  0
 23 14  1  0
  1 29  1  0
  1 30  1  0
  1 31  1  0
  3 32  1  0
  4 33  1  0
  5 34  1  0
  6 35  1  0
  8 36  1  0
  8 37  1  0
 13 38  1  0
 13 39  1  0
 15 40  1  0
 16 41  1  0
 19 42  1  0
 22 43  1  0
 23 44  1  0
 28 45  1  0
M  CHG  3  10  -1  19  -1  26  -1
M  END
>  <UniqueID>  (2) 
2

>  <SMILES>  (2) 
Cc1ccccc1Cc1[n-]c(=NCc2ccc(S([NH-])(=O)=O)cc2)c(=O)[n-]c1O

>  <Energy>  (2) 
45.16049275402755

>  <Genealogy>  (2) 
Cc1ccccc1Cc1[n-]c(=NCc2ccc(S([NH-])(=O)=O)cc2)c(=O)[n-]c1O (protonated)
Cc1ccccc1Cc1[n-]c(=NCc2ccc(S([NH-])(=O)=O)cc2)c(=O)[n-]c1O (3D coordinates assigned)
Cc1ccccc1Cc1[n-]c(=NCc2ccc(S([NH-])(=O)=O)cc2)c(=O)[n-]c1O (optimized conformer: 45.16049275402755 kcal/mol)

>  <smiles>  (2) 
Cc1ccccc1Cc1[nH]c(=NCc2ccc(S(N)(=O)=O)cc2)c(=O)[nH]c1O

>  <score_type>  (2) 
oracle

>  <origin>  (2) 
adg

>  <m_score__min__energy>  (2) 
-12.93

>  <m_primary>  (2) 
energy

$$$$
2:0
     RDKit          3D

 62 66  0  0  0  0  0  0  0  0999 V2000
   57.0960   30.7890   43.0860 C   0  0  0  0  0  0  0  0  0  0  0  0
   57.6850   31.6620   44.1450 C   0  0  0  0  0  0  0  0  0  0  0  0
   57.9710   32.9760   43.9580 N   0  0  0  0  0  0  0  0  0  0  0  0
   58.5210   33.4020   45.0850 N   0  0  0  0  0  0  0  0  0  0  0  0
   58.9700   34.6520   45.3620 C   0  0  0  0  0  0  0  0  0  0  0  0
   58.8880   35.5750   44.5070 O   0  0  0  0  0  0  0  0  0  0  0  0
   59.5330   34.8870   46.6240 C   0  0  0  0  0  0  0  0  0  0  0  0
   59.5980   33.8180   47.5510 C   0  0  0  0  0  0  0  0  0  0  0  0
   60.2470   34.0090   48.8880 C   0  0  0  0  0  0  0  0  0  0  0  0
   61.6900   33.8200   48.7660 N   0  0  0  0  0  0  0  0  0  0  0  0
   62.5820   33.7400   49.7670 C   0  0  0  0  0  0  0  0  0  0  0  0
   63.8150   33.4740   49.2110 C   0  0  0  0  0  0  0  0  0  0  0  0
   63.6950   33.3750   47.8680 N   0  0  0  0  0  0  0  0  0  0  0  0
   62.3830   33.5840   47.6330 C   0  0  0  0  0  0  0  0  0  0  0  0
   59.1370   32.5800   47.2020 N   0  0  0  0  0  0  0  0  0  0  0  0
   58.6030   32.4030   45.9690 C   0  0  0  0  0  0  0  0  0  0  0  0
   58.0930   31.2520   45.4160 C   0  0  0  0  0  0  0  0  0  0  0  0
   57.9450   29.9120   46.0630 C   0  0  0  0  0  0  0  0  0  0  0  0
   56.9600   29.0800   45.2940 C   0  0  0  0  0  0  0  0  0  0  0  0
   55.7780   29.4930   45.1610 O   0  0  0  0  0  0  0  0  0  0  0  0
   57.3730   27.9140   44.5720 N   0  0  0  0  0  0  0  0  0  0  0  0
   57.7290   26.7590   45.0640 C   0  0  0  0  0  0  0  0  0  0  0  0
   57.4040   25.5300   44.2590 C   0  0  0  0  0  0  0  0  0  0  0  0
   56.1890   24.8490   44.8110 C   0  0  0  0  0  0  0  0  0  0  0  0
   55.8790   23.5120   44.7000 C   0  0  0  0  0  0  0  0  0  0  0  0
   54.7210   23.3250   45.4300 C   0  0  0  0  0  0  0  0  0  0  0  0
   54.3080   24.4800   45.9970 N   0  0  0  0  0  0  0  0  0  0  0  0
   55.2130   25.4020   45.6170 C   0  0  0  0  0  0  0  0  0  0  0  0
   55.1590   26.7370   46.0040 O   0  0  0  0  0  0  0  0  0  0  0  0
   58.3970   26.6130   46.3820 C   0  0  0  0  0  0  0  0  0  0  0  0
   57.6970   26.4410   47.4170 O   0  0  0  0  0  0  0  0  0  0  0  0
   59.7910   26.7190   46.4890 O   0  0  0  0  0  0  0  0  0  0  0  0
   60.5010   27.9450   46.3160 C   0  0  0  0  0  0  0  0  0  0  0  0
   60.5060   28.7360   47.5950 C   0  0  0  0  0  0  0  0  0  0  0  0
   61.0270   30.0410   47.6250 C   0  0  0  0  0  0  0  0  0  0  0  0
   60.9880   30.7850   48.8100 C   0  0  0  0  0  0  0  0  0  0  0  0
   60.4240   30.2370   49.9680 C   0  0  0  0  0  0  0  0  0  0  0  0
   59.9020   28.9410   49.9430 C   0  0  0  0  0  0  0  0  0  0  0  0
   59.9430   28.1920   48.7640 C   0  0  0  0  0  0  0  0  0  0  0  0
   56.5401   29.9651   43.5573 H   0  0  0  0  0  0  0  0  0  0  0  0
   56.4125   31.3818   42.4604 H   0  0  0  0  0  0  0  0  0  0  0  0
   57.9016   30.3771   42.4604 H   0  0  0  0  0  0  0  0  0  0  0  0
   59.9172   35.8830   46.8895 H   0  0  0  0  0  0  0  0  0  0  0  0
   60.0410   35.0262   49.2525 H   0  0  0  0  0  0  0  0  0  0  0  0
   59.8419   33.2731   49.5981 H   0  0  0  0  0  0  0  0  0  0  0  0
   62.3671   33.8645   50.8386 H   0  0  0  0  0  0  0  0  0  0  0  0
   64.7531   33.3597   49.7739 H   0  0  0  0  0  0  0  0  0  0  0  0
   61.9297   33.5642   46.6309 H   0  0  0  0  0  0  0  0  0  0  0  0
   58.9203   29.4035   46.0762 H   0  0  0  0  0  0  0  0  0  0  0  0
   57.5813   30.0449   47.0926 H   0  0  0  0  0  0  0  0  0  0  0  0
   57.2137   25.8205   43.2153 H   0  0  0  0  0  0  0  0  0  0  0  0
   58.2556   24.8355   44.3094 H   0  0  0  0  0  0  0  0  0  0  0  0
   56.4400   22.7473   44.1427 H   0  0  0  0  0  0  0  0  0  0  0  0
   54.2024   22.3607   45.5359 H   0  0  0  0  0  0  0  0  0  0  0  0
   55.1460   27.4770   45.3120 H   0  0  0  0  0  0  0  0  0  0  0  0
   61.5380   27.7244   46.0228 H   0  0  0  0  0  0  0  0  0  0  0  0
   60.0033   28.5369   45.5337 H   0  0  0  0  0  0  0  0  0  0  0  0
   61.4660   30.4782   46.7161 H   0  0  0  0  0  0  0  0  0  0  0  0
   61.4020   31.8039   48.8313 H   0  0  0  0  0  0  0  0  0  0  0  0
   60.3917   30.8258   50.8966 H   0  0  0  0  0  0  0  0  0  0  0  0
   59.4583   28.5099   50.8525 H   0  0  0  0  0  0  0  0  0  0  0  0
   59.5328   27.1714   48.7498 H   0  0  0  0  0  0  0  0  0  0  0  0
  1  2  1  0
  2  3  1  0
  3  4  1  0
  4  5  1  0
  5  6  2  0
  5  7  1  0
  7  8  2  0
  8  9  1  0
  9 10  1  0
 10 11  1  0
 11 12  2  0
 12 13  1  0
 13 14  2  0
  8 15  1  0
 15 16  2  0
 16 17  1  0
 17 18  1  0
 18 19  1  0
 19 20  2  0
 19 21  1  0
 21 22  2  3
 22 23  1  0
 23 24  1  0
 24 25  1  0
 25 26  2  0
 26 27  1  0
 27 28  1  0
 28 29  1  0
 22 30  1  0
 30 31  2  0
 30 32  1  0
 32 33  1  0
 33 34  1  0
 34 35  2  0
 35 36  1  0
 36 37  2  0
 37 38  1  0
 38 39  2  0
 17  2  2  0
 28 24  2  0
 39 34  1  0
 16  4  1  0
 14 10  1  0
  1 40  1  0
  1 41  1  0
  1 42  1  0
  7 43  1  0
  9 44  1  0
  9 45  1  0
 11 46  1  0
 12 47  1  0
 14 48  1  0
 18 49  1  0
 18 50  1  0
 23 51  1  0
 23 52  1  0
 25 53  1  0
 26 54  1  0
 29 55  1  0
 33 56  1  0
 33 57  1  0
 35 58  1  0
 36 59  1  0
 37 60  1  0
 38 61  1  0
 39 62  1  0
M  CHG  2   3  -1  27  -1
M  END
>  <UniqueID>  (3) 
3

>  <SMILES>  (3) 
Cc1[n-]n2c(=O)cc(Cn3ccnc3)nc2c1CC(=O)N=C(Cc1cc[n-]c1O)C(=O)OCc1ccccc1

>  <Energy>  (3) 
155.80569023352248

>  <Genealogy>  (3) 
Cc1[n-]n2c(=O)cc(Cn3ccnc3)nc2c1CC(=O)N=C(Cc1cc[n-]c1O)C(=O)OCc1ccccc1 (protonated)
Cc1[n-]n2c(=O)cc(Cn3ccnc3)nc2c1CC(=O)N=C(Cc1cc[n-]c1O)C(=O)OCc1ccccc1 (3D coordinates assigned)
Cc1[n-]n2c(=O)cc(Cn3ccnc3)nc2c1CC(=O)N=C(Cc1cc[n-]c1O)C(=O)OCc1ccccc1 (optimized conformer: 155.80569023352248 kcal/mol)

>  <smiles>  (3) 
Cc1[nH]n2c(=O)cc(Cn3ccnc3)nc2c1CC(=O)N=C(Cc1cc[nH]c1O)C(=O)OCc1ccccc1

>  <score_type>  (3) 
oracle

>  <origin>  (3) 
adg

>  <m_score__min__energy>  (3) 
-14.07

>  <m_primary>  (3) 
energy

$$$$
3:0
     RDKit          3D

 47 49  0  0  0  0  0  0  0  0999 V2000
   54.8450   26.3110   45.9810 N   0  0  0  0  0  0  0  0  0  0  0  0
   56.5470   26.0200   46.0430 S   0  0  0  0  0  0  0  0  0  0  0  0
   56.8440   24.9920   47.0980 O   0  0  0  0  0  0  0  0  0  0  0  0
   57.0180   25.4980   44.7140 O   0  0  0  0  0  0  0  0  0  0  0  0
   57.3820   27.5220   46.4230 C   0  0  0  0  0  0  0  0  0  0  0  0
   57.2050   28.6520   45.6140 C   0  0  0  0  0  0  0  0  0  0  0  0
   57.8760   29.8420   45.9110 C   0  0  0  0  0  0  0  0  0  0  0  0
   58.7410   29.9160   47.0150 C   0  0  0  0  0  0  0  0  0  0  0  0
   59.4210   31.1480   47.3260 N   0  0  0  0  0  0  0  0  0  0  0  0
   58.9710   32.4210   46.7430 C   0  0  0  0  0  0  0  0  0  0  0  0
   58.8930   33.5300   47.8150 C   0  0  0  0  0  0  0  0  0  0  0  0
   59.6610   33.1780   49.0260 N   0  0  0  0  0  0  0  0  0  0  0  0
   59.7180   34.2260   50.0720 C   0  0  0  0  0  0  0  0  0  0  0  0
   59.6200   33.7360   51.5430 C   0  0  1  0  0  0  0  0  0  0  0  0
   59.1000   34.7700   52.3400 O   0  0  0  0  0  0  0  0  0  0  0  0
   58.7280   32.5270   51.6970 C   0  0  0  0  0  0  0  0  0  0  0  0
   59.2060   31.2440   51.3730 C   0  0  0  0  0  0  0  0  0  0  0  0
   58.3770   30.1260   51.5070 C   0  0  0  0  0  0  0  0  0  0  0  0
   57.0670   30.2760   51.9710 C   0  0  0  0  0  0  0  0  0  0  0  0
   56.2440   29.1630   52.1000 O   0  0  0  0  0  0  0  0  0  0  0  0
   56.5860   31.5450   52.3070 C   0  0  0  0  0  0  0  0  0  0  0  0
   57.4110   32.6650   52.1750 C   0  0  0  0  0  0  0  0  0  0  0  0
   60.9390   32.5160   48.7190 C   0  0  0  0  0  0  0  0  0  0  0  0
   60.6380   31.1240   48.1540 C   0  0  0  0  0  0  0  0  0  0  0  0
   58.9130   28.7800   47.8240 C   0  0  0  0  0  0  0  0  0  0  0  0
   58.2430   27.5910   47.5260 C   0  0  0  0  0  0  0  0  0  0  0  0
   54.6440   27.0870   46.6510 H   0  0  0  0  0  0  0  0  0  0  0  0
   56.5359   28.6028   44.7423 H   0  0  0  0  0  0  0  0  0  0  0  0
   57.7253   30.7270   45.2753 H   0  0  0  0  0  0  0  0  0  0  0  0
   59.6805   32.7278   45.9604 H   0  0  0  0  0  0  0  0  0  0  0  0
   57.9662   32.2743   46.3200 H   0  0  0  0  0  0  0  0  0  0  0  0
   59.2996   34.4613   47.3939 H   0  0  0  0  0  0  0  0  0  0  0  0
   57.8385   33.6532   48.1030 H   0  0  0  0  0  0  0  0  0  0  0  0
   60.6730   34.7602   49.9596 H   0  0  0  0  0  0  0  0  0  0  0  0
   58.8268   34.8503   49.9107 H   0  0  0  0  0  0  0  0  0  0  0  0
   60.6353   33.4524   51.8572 H   0  0  0  0  0  0  0  0  0  0  0  0
   58.5490   35.3470   51.7470 H   0  0  0  0  0  0  0  0  0  0  0  0
   60.2377   31.1197   51.0122 H   0  0  0  0  0  0  0  0  0  0  0  0
   58.7563   29.1268   51.2468 H   0  0  0  0  0  0  0  0  0  0  0  0
   55.5563   31.6619   52.6759 H   0  0  0  0  0  0  0  0  0  0  0  0
   57.0292   33.6603   52.4462 H   0  0  0  0  0  0  0  0  0  0  0  0
   61.4944   33.1067   47.9757 H   0  0  0  0  0  0  0  0  0  0  0  0
   61.5493   32.4306   49.6302 H   0  0  0  0  0  0  0  0  0  0  0  0
   61.4871   30.7936   47.5377 H   0  0  0  0  0  0  0  0  0  0  0  0
   60.4805   30.4296   48.9924 H   0  0  0  0  0  0  0  0  0  0  0  0
   59.5796   28.8273   48.6977 H   0  0  0  0  0  0  0  0  0  0  0  0
   58.3921   26.7048   48.1603 H   0  0  0  0  0  0  0  0  0  0  0  0
  1  2  1  0
  2  3  2  0
  2  4  2  0
  2  5  1  0
  5  6  2  0
  6  7  1  0
  7  8  2  0
  8  9  1  0
  9 10  1  0
 10 11  1  0
 11 12  1  0
 12 13  1  0
 13 14  1  0
 14 15  1  0
 14 16  1  0
 16 17  2  0
 17 18  1  0
 18 19  2  0
 19 20  1  0
 19 21  1  0
 21 22  2  0
 12 23  1  0
 23 24  1  0
  8 25  1  0
 25 26  2  0
 26  5  1  0
 24  9  1  0
 22 16  1  0
  1 27  1  0
  6 28  1  0
  7 29  1  0
 10 30  1  0
 10 31  1  0
 11 32  1  0
 11 33  1  0
 13 34  1  0
 13 35  1  0
 14 36  1  1
 15 37  1  0
 17 38  1  0
 18 39  1  0
 21 40  1  0
 22 41  1  0
 23 42  1  0
 23 43  1  0
 24 44  1  0
 24 45  1  0
 25 46  1  0
 26 47  1  0
M  CHG  2   1  -1  20  -1
M  END
>  <UniqueID>  (4) 
4

>  <SMILES>  (4) 
[NH-]S(=O)(=O)c1ccc(N2CCN(C[C@@H](O)c3ccc([O-])cc3)CC2)cc1

>  <Energy>  (4) 
62.96177389442319

>  <Genealogy>  (4) 
[NH-]S(=O)(=O)c1ccc(N2CCN(CC(O)c3ccc([O-])cc3)CC2)cc1 (protonated)
[NH-]S(=O)(=O)c1ccc(N2CCN(C[C@@H](O)c3ccc([O-])cc3)CC2)cc1 (chirality)
[NH-]S(=O)(=O)c1ccc(N2CCN(C[C@@H](O)c3ccc([O-])cc3)CC2)cc1 (3D coordinates assigned)
[NH-]S(=O)(=O)c1ccc(N2CCN(C[C@@H](O)c3ccc([O-])cc3)CC2)cc1 (nonaromatic ring conformer: 62.96177389442319 kcal/mol)

>  <smiles>  (4) 
NS(=O)(=O)c1ccc(N2CCN(CC(O)c3ccc(O)cc3)CC2)cc1

>  <score_type>  (4) 
oracle

>  <origin>  (4) 
adg

>  <m_score__min__energy>  (4) 
-12.550000000000001

>  <m_primary>  (4) 
energy

$$$$
4:0
     RDKit          3D

 85 89  0  0  0  0  0  0  0  0999 V2000
   67.9360   27.1400   49.7480 C   0  0  0  0  0  0  0  0  0  0  0  0
   66.9680   27.4940   50.8770 C   0  0  0  0  0  0  0  0  0  0  0  0
   67.0950   28.9670   51.2840 C   0  0  0  0  0  0  0  0  0  0  0  0
   65.8050   29.4680   51.8880 C   0  0  0  0  0  0  0  0  0  0  0  0
   64.6760   28.7830   51.5800 N   0  0  0  0  0  0  0  0  0  0  0  0
   63.4560   29.1500   52.0370 C   0  0  0  0  0  0  0  0  0  0  0  0
   62.4560   28.4520   51.7250 O   0  0  0  0  0  0  0  0  0  0  0  0
   63.3170   30.2650   52.8190 N   0  0  0  0  0  0  0  0  0  0  0  0
   61.9950   30.6390   53.3590 C   0  0  0  0  0  0  0  0  0  0  0  0
   61.0770   31.0580   52.2410 C   0  0  0  0  0  0  0  0  0  0  0  0
   61.0680   32.3880   51.7910 C   0  0  0  0  0  0  0  0  0  0  0  0
   60.2840   32.7550   50.6930 C   0  0  0  0  0  0  0  0  0  0  0  0
   59.4960   31.7980   50.0270 C   0  0  0  0  0  0  0  0  0  0  0  0
   58.7450   32.1290   48.8480 N   0  0  0  0  0  0  0  0  0  0  0  0
   59.1650   33.0840   47.8580 C   0  0  0  0  0  0  0  0  0  0  0  0
   59.8800   34.0680   48.1950 O   0  0  0  0  0  0  0  0  0  0  0  0
   58.7140   32.9460   46.4570 C   0  0  0  0  0  0  0  0  0  0  0  0
   59.0540   33.9110   45.4950 C   0  0  0  0  0  0  0  0  0  0  0  0
   58.5840   33.7980   44.1860 C   0  0  0  0  0  0  0  0  0  0  0  0
   57.7890   32.7110   43.8160 C   0  0  0  0  0  0  0  0  0  0  0  0
   57.4730   31.7140   44.7530 C   0  0  0  0  0  0  0  0  0  0  0  0
   56.6610   30.5410   44.3700 C   0  0  0  0  0  0  0  0  0  0  0  0
   55.4890   30.4080   44.8160 O   0  0  0  0  0  0  0  0  0  0  0  0
   57.2050   29.5600   43.4790 N   0  0  0  0  0  0  0  0  0  0  0  0
   57.8010   28.3040   43.9140 C   0  0  0  0  0  0  0  0  0  0  0  0
   58.6410   28.5410   45.1390 C   0  0  0  0  0  0  0  0  0  0  0  0
   59.9190   29.1140   45.0310 C   0  0  0  0  0  0  0  0  0  0  0  0
   60.6930   29.3170   46.1780 C   0  0  0  0  0  0  0  0  0  0  0  0
   60.2020   28.9430   47.4360 C   0  0  0  0  0  0  0  0  0  0  0  0
   58.9350   28.3710   47.5500 C   0  0  0  0  0  0  0  0  0  0  0  0
   58.1520   28.1760   46.4070 C   0  0  0  0  0  0  0  0  0  0  0  0
   57.9360   31.8420   46.0730 C   0  0  0  0  0  0  0  0  0  0  0  0
   59.5150   30.4710   50.4740 C   0  0  0  0  0  0  0  0  0  0  0  0
   60.2870   30.1040   51.5780 C   0  0  0  0  0  0  0  0  0  0  0  0
   64.4250   31.0030   53.1500 C   0  0  0  0  0  0  0  0  0  0  0  0
   64.2780   32.1600   53.9120 O   0  0  0  0  0  0  0  0  0  0  0  0
   65.7120   30.6100   52.7230 C   0  0  0  0  0  0  0  0  0  0  0  0
   66.9280   31.4310   53.1290 C   0  0  0  0  0  0  0  0  0  0  0  0
   67.0760   32.7470   52.3360 C   0  0  0  0  0  0  0  0  0  0  0  0
   66.6880   32.6630   50.8760 C   0  0  0  0  0  0  0  0  0  0  0  0
   67.1440   31.7490   50.1410 O   0  0  0  0  0  0  0  0  0  0  0  0
   65.7830   33.6120   50.3000 N   0  0  0  0  0  0  0  0  0  0  0  0
   64.3490   33.6280   50.5560 C   0  0  0  0  0  0  0  0  0  0  0  0
   63.6210   33.0730   49.3660 C   0  0  0  0  0  0  0  0  0  0  0  0
   63.2040   31.7350   49.3430 C   0  0  0  0  0  0  0  0  0  0  0  0
   62.5330   31.2260   48.2260 C   0  0  0  0  0  0  0  0  0  0  0  0
   62.2830   32.0460   47.1230 C   0  0  0  0  0  0  0  0  0  0  0  0
   62.7110   33.3730   47.1330 C   0  0  0  0  0  0  0  0  0  0  0  0
   63.3830   33.8870   48.2460 C   0  0  0  0  0  0  0  0  0  0  0  0
   68.8875   26.7920   50.1764 H   0  0  0  0  0  0  0  0  0  0  0  0
   67.5000   26.3431   49.1276 H   0  0  0  0  0  0  0  0  0  0  0  0
   68.1170   28.0301   49.1276 H   0  0  0  0  0  0  0  0  0  0  0  0
   65.9388   27.3041   50.5383 H   0  0  0  0  0  0  0  0  0  0  0  0
   67.2135   26.8719   51.7503 H   0  0  0  0  0  0  0  0  0  0  0  0
   67.9031   29.0688   52.0233 H   0  0  0  0  0  0  0  0  0  0  0  0
   67.3201   29.5631   50.3873 H   0  0  0  0  0  0  0  0  0  0  0  0
   61.5590   29.7758   53.8832 H   0  0  0  0  0  0  0  0  0  0  0  0
   62.1171   31.4797   54.0578 H   0  0  0  0  0  0  0  0  0  0  0  0
   61.6801   33.1442   52.3043 H   0  0  0  0  0  0  0  0  0  0  0  0
   60.2832   33.7993   50.3473 H   0  0  0  0  0  0  0  0  0  0  0  0
   57.8140   31.6710   48.7120 H   0  0  0  0  0  0  0  0  0  0  0  0
   59.6943   34.7605   45.7749 H   0  0  0  0  0  0  0  0  0  0  0  0
   58.8405   34.5676   43.4431 H   0  0  0  0  0  0  0  0  0  0  0  0
   57.4089   32.6356   42.7865 H   0  0  0  0  0  0  0  0  0  0  0  0
   57.0043   27.5833   44.1504 H   0  0  0  0  0  0  0  0  0  0  0  0
   58.4343   27.9024   43.1092 H   0  0  0  0  0  0  0  0  0  0  0  0
   60.3108   29.4029   44.0446 H   0  0  0  0  0  0  0  0  0  0  0  0
   61.6909   29.7719   46.0923 H   0  0  0  0  0  0  0  0  0  0  0  0
   60.8165   29.1007   48.3347 H   0  0  0  0  0  0  0  0  0  0  0  0
   58.5519   28.0736   48.5373 H   0  0  0  0  0  0  0  0  0  0  0  0
   57.1486   27.7349   46.5001 H   0  0  0  0  0  0  0  0  0  0  0  0
   57.6863   31.0686   46.8143 H   0  0  0  0  0  0  0  0  0  0  0  0
   58.9163   29.7109   49.9506 H   0  0  0  0  0  0  0  0  0  0  0  0
   60.2766   29.0621   51.9306 H   0  0  0  0  0  0  0  0  0  0  0  0
   66.8411   31.6765   54.1977 H   0  0  0  0  0  0  0  0  0  0  0  0
   67.8171   30.8209   52.9117 H   0  0  0  0  0  0  0  0  0  0  0  0
   66.4404   33.5066   52.8145 H   0  0  0  0  0  0  0  0  0  0  0  0
   68.1469   32.9974   52.3547 H   0  0  0  0  0  0  0  0  0  0  0  0
   64.1278   33.0128   51.4406 H   0  0  0  0  0  0  0  0  0  0  0  0
   64.0207   34.6622   50.7366 H   0  0  0  0  0  0  0  0  0  0  0  0
   63.4050   31.0832   50.2060 H   0  0  0  0  0  0  0  0  0  0  0  0
   62.2013   30.1772   48.2162 H   0  0  0  0  0  0  0  0  0  0  0  0
   61.7495   31.6456   46.2483 H   0  0  0  0  0  0  0  0  0  0  0  0
   62.5193   34.0175   46.2624 H   0  0  0  0  0  0  0  0  0  0  0  0
   63.7264   34.9320   48.2448 H   0  0  0  0  0  0  0  0  0  0  0  0
  1  2  1  0
  2  3  1  0
  3  4  1  0
  4  5  2  0
  5  6  1  0
  6  7  2  0
  6  8  1  0
  8  9  1  0
  9 10  1  0
 10 11  2  0
 11 12  1  0
 12 13  2  0
 13 14  1  0
 14 15  1  0
 15 16  2  0
 15 17  1  0
 17 18  2  0
 18 19  1  0
 19 20  2  0
 20 21  1  0
 21 22  1  0
 22 23  2  0
 22 24  1  0
 24 25  1  0
 25 26  1  0
 26 27  2  0
 27 28  1  0
 28 29  2  0
 29 30  1  0
 30 31  2  0
 21 32  2  0
 13 33  1  0
 33 34  2  0
  8 35  1  0
 35 36  1  0
 35 37  2  0
 37 38  1  0
 38 39  1  0
 39 40  1  0
 40 41  2  0
 40 42  1  0
 42 43  1  0
 43 44  1  0
 44 45  2  0
 45 46  1  0
 46 47  2  0
 47 48  1  0
 48 49  2  0
 37  4  1  0
 49 44  1  0
 34 10  1  0
 32 17  1  0
 31 26  1  0
  1 50  1  0
  1 51  1  0
  1 52  1  0
  2 53  1  0
  2 54  1  0
  3 55  1  0
  3 56  1  0
  9 57  1  0
  9 58  1  0
 11 59  1  0
 12 60  1  0
 14 61  1  0
 18 62  1  0
 19 63  1  0
 20 64  1  0
 25 65  1  0
 25 66  1  0
 27 67  1  0
 28 68  1  0
 29 69  1  0
 30 70  1  0
 31 71  1  0
 32 72  1  0
 33 73  1  0
 34 74  1  0
 38 75  1  0
 38 76  1  0
 39 77  1  0
 39 78  1  0
 43 79  1  0
 43 80  1  0
 45 81  1  0
 46 82  1  0
 47 83  1  0
 48 84  1  0
 49 85  1  0
M  CHG  3  24  -1  36  -1  42  -1
M  END
>  <UniqueID>  (5) 
5

>  <SMILES>  (5) 
CCCc1nc(=O)n(Cc2ccc(NC(=O)c3cccc(C(=O)[N-]Cc4ccccc4)c3)cc2)c([O-])c1CCC(=O)[N-]Cc1ccccc1

>  <Energy>  (5) 
89.40898853030451

>  <Genealogy>  (5) 
CCCc1nc(=O)n(Cc2ccc(NC(=O)c3cccc(C(=O)[N-]Cc4ccccc4)c3)cc2)c([O-])c1CCC(=O)[N-]Cc1ccccc1 (protonated)
CCCc1nc(=O)n(Cc2ccc(NC(=O)c3cccc(C(=O)[N-]Cc4ccccc4)c3)cc2)c([O-])c1CCC(=O)[N-]Cc1ccccc1 (3D coordinates assigned)
CCCc1nc(=O)n(Cc2ccc(NC(=O)c3cccc(C(=O)[N-]Cc4ccccc4)c3)cc2)c([O-])c1CCC(=O)[N-]Cc1ccccc1 (optimized conformer: 89.40898853030451 kcal/mol)

>  <smiles>  (5) 
CCCc1nc(=O)n(Cc2ccc(NC(=O)c3cccc(C(=O)NCc4ccccc4)c3)cc2)c(O)c1CCC(=O)NCc1ccccc1

>  <score_type>  (5) 
oracle

>  <origin>  (5) 
adg

>  <m_score__min__energy>  (5) 
-15.16

>  <m_primary>  (5) 
energy

$$$$
5:0
     RDKit          3D

 51 54  0  0  0  0  0  0  0  0999 V2000
   59.7860   29.3310   47.4970 C   0  0  0  0  0  0  0  0  0  0  0  0
   59.3640   29.9270   46.3710 C   0  0  0  0  0  0  0  0  0  0  0  0
   58.7260   29.3190   45.2760 C   0  0  0  0  0  0  0  0  0  0  0  0
   58.5490   28.0200   44.9670 C   0  0  0  0  0  0  0  0  0  0  0  0
   57.5070   27.1440   45.5250 C   0  0  0  0  0  0  0  0  0  0  0  0
   56.1570   27.4130   45.6670 C   0  0  0  0  0  0  0  0  0  0  0  0
   55.5200   28.5620   45.2140 O   0  0  0  0  0  0  0  0  0  0  0  0
   55.5140   26.4270   46.3250 N   0  0  0  0  0  0  0  0  0  0  0  0
   56.4740   25.5300   46.6410 C   0  0  0  0  0  0  0  0  0  0  0  0
   56.1980   24.2320   47.3310 C   0  0  0  0  0  0  0  0  0  0  0  0
   55.9770   23.1500   46.3160 C   0  0  0  0  0  0  0  0  0  0  0  0
   56.3070   23.3540   44.9700 C   0  0  0  0  0  0  0  0  0  0  0  0
   56.1260   22.2990   44.0710 C   0  0  0  0  0  0  0  0  0  0  0  0
   56.4620   22.4730   42.6240 C   0  0  0  0  0  0  0  0  0  0  0  0
   55.6450   21.1090   44.5180 N   0  0  0  0  0  0  0  0  0  0  0  0
   55.3370   20.9250   45.8280 C   0  0  0  0  0  0  0  0  0  0  0  0
   54.7690   19.4830   46.3370 S   0  0  0  0  0  0  0  0  0  0  0  0
   55.5090   21.9380   46.7160 N   0  0  0  0  0  0  0  0  0  0  0  0
   57.7030   25.9490   46.1720 C   0  0  0  0  0  0  0  0  0  0  0  0
   58.9140   25.2830   46.3200 O   0  0  0  0  0  0  0  0  0  0  0  0
   58.2630   30.3500   44.4750 C   0  0  0  0  0  0  0  0  0  0  0  0
   58.6870   31.5270   45.0540 C   0  0  0  0  0  0  0  0  0  0  0  0
   58.4150   32.8930   44.4980 C   0  0  0  0  0  0  0  0  0  0  0  0
   59.3530   31.2750   46.2030 N   0  0  0  0  0  0  0  0  0  0  0  0
   59.9100   32.2650   47.0870 C   0  0  0  0  0  0  0  0  0  0  0  0
   59.0760   32.9690   47.9650 C   0  0  0  0  0  0  0  0  0  0  0  0
   59.6140   33.9260   48.8280 C   0  0  0  0  0  0  0  0  0  0  0  0
   60.9880   34.1850   48.8220 C   0  0  0  0  0  0  0  0  0  0  0  0
   61.8410   33.4870   47.9480 C   0  0  0  0  0  0  0  0  0  0  0  0
   63.2970   33.7610   47.9360 C   0  0  0  0  0  0  0  0  0  0  0  0
   64.1680   33.0890   48.8450 N   0  0  0  0  0  0  0  0  0  0  0  0
   63.7830   34.5880   47.1190 O   0  0  0  0  0  0  0  0  0  0  0  0
   61.2880   32.5260   47.0800 C   0  0  0  0  0  0  0  0  0  0  0  0
   60.2744   29.9247   48.2837 H   0  0  0  0  0  0  0  0  0  0  0  0
   59.6434   28.2488   47.6332 H   0  0  0  0  0  0  0  0  0  0  0  0
   59.2416   27.5770   44.2362 H   0  0  0  0  0  0  0  0  0  0  0  0
   57.0565   23.9667   47.9656 H   0  0  0  0  0  0  0  0  0  0  0  0
   55.2952   24.3366   47.9506 H   0  0  0  0  0  0  0  0  0  0  0  0
   56.6998   24.3229   44.6281 H   0  0  0  0  0  0  0  0  0  0  0  0
   57.4353   22.9770   42.5316 H   0  0  0  0  0  0  0  0  0  0  0  0
   56.5119   21.4874   42.1381 H   0  0  0  0  0  0  0  0  0  0  0  0
   55.6859   23.0825   42.1381 H   0  0  0  0  0  0  0  0  0  0  0  0
   57.6706   30.2489   43.5537 H   0  0  0  0  0  0  0  0  0  0  0  0
   58.2734   33.6041   45.3252 H   0  0  0  0  0  0  0  0  0  0  0  0
   59.2669   33.2138   43.8805 H   0  0  0  0  0  0  0  0  0  0  0  0
   57.5052   32.8630   43.8805 H   0  0  0  0  0  0  0  0  0  0  0  0
   57.9947   32.7675   47.9747 H   0  0  0  0  0  0  0  0  0  0  0  0
   58.9549   34.4777   49.5145 H   0  0  0  0  0  0  0  0  0  0  0  0
   61.4047   34.9396   49.5053 H   0  0  0  0  0  0  0  0  0  0  0  0
   64.8970   32.4260   48.4990 H   0  0  0  0  0  0  0  0  0  0  0  0
   61.9432   31.9746   46.3896 H   0  0  0  0  0  0  0  0  0  0  0  0
  1  2  2  0
  2  3  1  0
  3  4  2  3
  4  5  1  0
  5  6  2  0
  6  7  1  0
  6  8  1  0
  8  9  1  0
  9 10  1  0
 10 11  1  0
 11 12  2  0
 12 13  1  0
 13 14  1  0
 13 15  2  0
 15 16  1  0
 16 17  2  0
 16 18  1  0
  9 19  2  0
 19 20  1  0
  3 21  1  0
 21 22  2  0
 22 23  1  0
 22 24  1  0
 24 25  1  0
 25 26  2  0
 26 27  1  0
 27 28  2  0
 28 29  1  0
 29 30  1  0
 30 31  1  0
 30 32  2  0
 29 33  2  0
 24  2  1  0
 33 25  1  0
 19  5  1  0
 18 11  1  0
  1 34  1  0
  1 35  1  0
  4 36  1  0
 10 37  1  0
 10 38  1  0
 12 39  1  0
 14 40  1  0
 14 41  1  0
 14 42  1  0
 21 43  1  0
 23 44  1  0
 23 45  1  0
 23 46  1  0
 26 47  1  0
 27 48  1  0
 28 49  1  0
 31 50  1  0
 33 51  1  0
M  CHG  5   7  -1   8  -1  18  -1  20  -1  31  -1
M  END
>  <UniqueID>  (6) 
6

>  <SMILES>  (6) 
C=c1c(=Cc2c([O-])[n-]c(Cc3cc(C)nc(=S)[n-]3)c2[O-])cc(C)n1-c1cccc(C([NH-])=O)c1

>  <Energy>  (6) 
126.21599665681283

>  <Genealogy>  (6) 
C=c1c(=Cc2c([O-])[n-]c(Cc3cc(C)nc(=S)[n-]3)c2[O-])cc(C)n1-c1cccc(C([NH-])=O)c1 (protonated)
C=c1c(=Cc2c([O-])[n-]c(Cc3cc(C)nc(=S)[n-]3)c2[O-])cc(C)n1-c1cccc(C([NH-])=O)c1 (3D coordinates assigned)
C=c1c(=Cc2c([O-])[n-]c(Cc3cc(C)nc(=S)[n-]3)c2[O-])cc(C)n1-c1cccc(C([NH-])=O)c1 (optimized conformer: 126.21599665681283 kcal/mol)

>  <smiles>  (6) 
C=c1c(=Cc2c(O)[nH]c(Cc3cc(C)nc(=S)[nH]3)c2O)cc(C)n1-c1cccc(C(N)=O)c1

>  <score_type>  (6) 
oracle

>  <origin>  (6) 
adg

>  <m_score__min__energy>  (6) 
-18.140000000000001

>  <m_primary>  (6) 
energy

$$$$
6:0
     RDKit          3D

 39 41  0  0  0  0  0  0  0  0999 V2000
   58.4477   35.2420   44.0249 H   0  0  0  0  0  0  0  0  0  0  0  0
   58.6880   34.6760   44.9370 C   0  0  0  0  0  0  0  0  0  0  0  0
   57.6610   34.2390   45.7780 C   0  0  0  0  0  0  0  0  0  0  0  0
   56.6146   34.4718   45.5312 H   0  0  0  0  0  0  0  0  0  0  0  0
   57.9580   33.5070   46.9320 C   0  0  0  0  0  0  0  0  0  0  0  0
   56.9390   33.1050   47.7390 F   0  0  0  0  0  0  0  0  0  0  0  0
   59.2960   33.1970   47.2530 C   0  0  0  0  0  0  0  0  0  0  0  0
   59.5960   32.4250   48.5170 C   0  0  0  0  0  0  0  0  0  0  0  0
   59.1931   32.9734   49.3813 H   0  0  0  0  0  0  0  0  0  0  0  0
   60.6856   32.3118   48.6168 H   0  0  0  0  0  0  0  0  0  0  0  0
   58.9690   31.0670   48.4580 C   0  0  0  0  0  0  0  0  0  0  0  0
   58.7300   30.5430   47.3350 O   0  0  0  0  0  0  0  0  0  0  0  0
   54.3930   29.8600   51.8420 N   0  0  0  0  0  0  0  0  0  0  0  0
   53.3490   30.3550   51.2480 C   0  0  0  0  0  0  0  0  0  0  0  0
   52.7270   31.4670   51.7320 N   0  0  0  0  0  0  0  0  0  0  0  0
   56.4570   31.0060   52.4230 C   0  0  0  0  0  0  0  0  0  0  0  0
   55.1310   30.5120   52.9220 C   0  0  0  0  0  0  0  0  0  0  0  0
   55.2955   29.7907   53.7360 H   0  0  0  0  0  0  0  0  0  0  0  0
   54.5457   31.3679   53.2892 H   0  0  0  0  0  0  0  0  0  0  0  0
   58.6660   30.3790   49.6840 N   0  0  0  0  0  0  0  0  0  0  0  0
   58.1750   30.9000   50.7710 C   0  0  0  0  0  0  0  0  0  0  0  0
   52.8810   29.7640   50.1160 N   0  0  0  0  0  0  0  0  0  0  0  0
   51.6410   31.9930   51.1050 C   0  0  0  0  0  0  0  0  0  0  0  0
   51.0270   33.1280   51.6190 O   0  0  0  0  0  0  0  0  0  0  0  0
   51.1500   31.3950   49.9460 C   0  0  0  0  0  0  0  0  0  0  0  0
   50.2733   31.8089   49.4262 H   0  0  0  0  0  0  0  0  0  0  0  0
   51.7980   30.2580   49.4610 C   0  0  0  0  0  0  0  0  0  0  0  0
   51.3850   29.6910   48.4160 O   0  0  0  0  0  0  0  0  0  0  0  0
   56.9930   30.4670   51.2940 N   0  0  0  0  0  0  0  0  0  0  0  0
   57.1210   32.0580   53.0700 C   0  0  0  0  0  0  0  0  0  0  0  0
   56.6891   32.5155   53.9723 H   0  0  0  0  0  0  0  0  0  0  0  0
   58.3340   32.5190   52.5590 C   0  0  0  0  0  0  0  0  0  0  0  0
   59.0080   33.5570   53.1920 O   0  0  0  0  0  0  0  0  0  0  0  0
   58.8700   31.9360   51.4070 C   0  0  0  0  0  0  0  0  0  0  0  0
   59.8306   32.2885   51.0032 H   0  0  0  0  0  0  0  0  0  0  0  0
   60.3320   33.6630   46.4070 C   0  0  0  0  0  0  0  0  0  0  0  0
   62.0330   33.3660   46.7560 Cl  0  0  0  0  0  0  0  0  0  0  0  0
   60.0190   34.3950   45.2530 C   0  0  0  0  0  0  0  0  0  0  0  0
   60.8251   34.7495   44.5938 H   0  0  0  0  0  0  0  0  0  0  0  0
  1  2  1  0
  2  3  2  0
  3  4  1  0
  3  5  1  0
  5  6  1  0
  5  7  2  0
  7  8  1  0
  8  9  1  0
  8 10  1  0
  8 11  1  0
 11 12  2  0
 11 13  1  0
 13 14  2  0
 14 15  1  0
 15 16  1  0
 16 17  1  0
 17 18  1  0
 17 19  1  0
 17 20  1  0
 20 21  2  0
 21 22  1  0
 22 23  1  0
 23 24  1  0
 23 25  2  0
 25 26  1  0
 25 27  1  0
 27 28  2  0
 27 29  1  0
 16 30  2  0
 30 31  1  0
 30 32  1  0
 32 33  1  0
 32 34  2  0
 34 35  1  0
  7 36  1  0
 36 37  1  0
 36 38  2  0
 38 39  1  0
 38  2  1  0
 34 14  1  0
 29 21  1  0
M  CHG  5  15  -1  22  -1  24  -1  29  -1  33  -1
M  END
>  <UniqueID>  (7) 
7

>  <SMILES>  (7) 
O=C(Cc1c(F)cccc1Cl)/N=c1/cc([O-])cc(C/N=c2\[n-]c([O-])cc(=O)[n-]2)[n-]1

>  <Energy>  (7) 
44.67030657110652

>  <Genealogy>  (7) 
O=C(Cc1c(F)cccc1Cl)N=c1cc([O-])cc(CN=c2[n-]c([O-])cc(=O)[n-]2)[n-]1 (protonated)
O=C(Cc1c(F)cccc1Cl)/N=c1/cc([O-])cc(C/N=c2\[n-]c([O-])cc(=O)[n-]2)[n-]1 (cis-trans isomerization)
O=C(Cc1c(F)cccc1Cl)/N=c1/cc([O-])cc(C/N=c2\[n-]c([O-])cc(=O)[n-]2)[n-]1 (3D coordinates assigned)
O=C(Cc1c(F)cccc1Cl)/N=c1/cc([O-])cc(C/N=c2\[n-]c([O-])cc(=O)[n-]2)[n-]1 (optimized conformer: 44.67030657110652 kcal/mol)

>  <smiles>  (7) 
O=C(Cc1c(F)cccc1Cl)N=c1cc(O)cc(CN=c2[nH]c(O)cc(=O)[nH]2)[nH]1

>  <score_type>  (7) 
oracle

>  <origin>  (7) 
adg

>  <m_score__min__energy>  (7) 
-17.469999999999999

>  <m_primary>  (7) 
energy

$$$$
7:0
     RDKit          3D

 47 50  0  0  1  0  0  0  0  0999 V2000
   58.6960   33.8910   46.9890 C   0  0  0  0  0  0  0  0  0  0  0  0
   59.7590   32.8950   47.2680 C   0  0  0  0  0  0  0  0  0  0  0  0
   61.1050   33.2390   47.3420 C   0  0  0  0  0  0  0  0  0  0  0  0
   61.9870   32.2120   47.6090 C   0  0  0  0  0  0  0  0  0  0  0  0
   61.5920   30.9040   47.7980 C   0  0  0  0  0  0  0  0  0  0  0  0
   57.4810   26.9250   46.6500 C   0  0  0  0  0  0  0  0  0  0  0  0
   57.2030   25.6570   46.8060 N   0  0  0  0  0  0  0  0  0  0  0  0
   58.7830   28.8120   47.1720 C   0  0  0  0  0  0  0  0  0  0  0  0
   58.0100   29.5230   46.2970 N   0  0  0  0  0  0  0  0  0  0  0  0
   60.2440   30.6310   47.7110 C   0  0  0  0  0  0  0  0  0  0  0  0
   59.8480   29.4350   47.8810 N   0  0  0  0  0  0  0  0  0  0  0  0
   56.6560   24.9580   45.6700 C   0  0  0  0  0  0  0  0  0  0  0  0
   57.4550   24.8050   44.5400 C   0  0  0  0  0  0  0  0  0  0  0  0
   56.9760   24.1380   43.4160 C   0  0  0  0  0  0  0  0  0  0  0  0
   55.6940   23.6360   43.4560 C   0  0  0  0  0  0  0  0  0  0  0  0
   54.9140   23.7910   44.5730 C   0  0  0  0  0  0  0  0  0  0  0  0
   55.3630   24.4470   45.6980 C   0  0  0  0  0  0  0  0  0  0  0  0
   56.7240   27.6320   45.7910 N   0  0  0  0  0  0  0  0  0  0  0  0
   57.0020   28.9350   45.6250 C   0  0  0  0  0  0  0  0  0  0  0  0
   56.2860   29.6420   44.8000 N   0  0  0  0  0  0  0  0  0  0  0  0
   56.8720   30.7020   44.0410 C   0  0  0  0  0  0  0  0  0  0  0  0
   56.7410   30.5990   42.6530 C   0  0  0  0  0  0  0  0  0  0  0  0
   57.2950   31.6070   41.8960 C   0  0  0  0  0  0  0  0  0  0  0  0
   57.9600   32.6840   42.4520 C   0  0  0  0  0  0  0  0  0  0  0  0
   58.0680   32.7500   43.8270 C   0  0  0  0  0  0  0  0  0  0  0  0
   57.5280   31.7650   44.6320 C   0  0  0  0  0  0  0  0  0  0  0  0
   58.5040   27.4870   47.3430 N   0  0  0  0  0  0  0  0  0  0  0  0
   59.3620   31.6140   47.4520 N   0  0  0  0  0  0  0  0  0  0  0  0
   58.2908   34.2706   47.9386 H   0  0  0  0  0  0  0  0  0  0  0  0
   59.1185   34.7259   46.4107 H   0  0  0  0  0  0  0  0  0  0  0  0
   57.8903   33.4151   46.4107 H   0  0  0  0  0  0  0  0  0  0  0  0
   61.4477   34.2740   47.1955 H   0  0  0  0  0  0  0  0  0  0  0  0
   63.0593   32.4483   47.6744 H   0  0  0  0  0  0  0  0  0  0  0  0
   62.3238   30.1105   48.0097 H   0  0  0  0  0  0  0  0  0  0  0  0
   58.4755   25.2155   44.5354 H   0  0  0  0  0  0  0  0  0  0  0  0
   57.6037   24.0153   42.5210 H   0  0  0  0  0  0  0  0  0  0  0  0
   55.2911   23.1044   42.5814 H   0  0  0  0  0  0  0  0  0  0  0  0
   53.8948   23.3773   44.5707 H   0  0  0  0  0  0  0  0  0  0  0  0
   54.7229   24.5623   46.5851 H   0  0  0  0  0  0  0  0  0  0  0  0
   55.9370   27.1590   45.2700 H   0  0  0  0  0  0  0  0  0  0  0  0
   56.2187   29.7507   42.1865 H   0  0  0  0  0  0  0  0  0  0  0  0
   57.2045   31.5530   40.8011 H   0  0  0  0  0  0  0  0  0  0  0  0
   58.3925   33.4692   41.8146 H   0  0  0  0  0  0  0  0  0  0  0  0
   58.5920   33.5998   44.2888 H   0  0  0  0  0  0  0  0  0  0  0  0
   57.6190   31.8262   45.7265 H   0  0  0  0  0  0  0  0  0  0  0  0
   59.0680   26.8980   48.0030 H   0  0  0  0  0  0  0  0  0  0  0  0
   58.3480   31.3690   47.3940 H   0  0  0  0  0  0  0  0  0  0  0  0
  1  2  1  0
  2  3  2  0
  3  4  1  0
  4  5  2  0
  5  6  1  0
  6  7  2  0
  7  8  1  0
  8  9  2  0
  9 10  1  0
 10 11  2  0
 11 12  1  0
 12 13  2  0
 13 14  1  0
 14 15  2  0
 15 16  1  0
 16 17  2  0
 10 18  1  0
 18 19  1  0
 19 20  2  0
 20 21  1  0
 21 22  2  0
 22 23  1  0
 23 24  2  0
 24 25  1  0
 25 26  2  0
 19 27  1  0
  6 28  1  0
 28  2  1  0
 27  8  1  0
 17 12  1  0
 26 21  1  0
  1 29  1  0
  1 30  1  0
  1 31  1  0
  3 32  1  0
  4 33  1  0
  5 34  1  0
 13 35  1  0
 14 36  1  0
 15 37  1  0
 16 38  1  0
 17 39  1  0
 18 40  1  0
 22 41  1  0
 23 42  1  0
 24 43  1  0
 25 44  1  0
 26 45  1  0
 27 46  1  0
 28 47  1  0
M  END
>  <smiles>  (8) 
Cc1cccc(=Nc2nc(=Nc3ccccc3)[nH]c(=Nc3ccccc3)[nH]2)[nH]1

>  <score_type>  (8) 
oracle

>  <origin>  (8) 
adg

>  <m_score__min__energy>  (8) 
-8.6500000000000004

>  <m_primary>  (8) 
energy

$$$$
8:0
     RDKit          3D

 57 60  0  0  0  0  0  0  0  0999 V2000
   55.8340   25.8220   45.9530 C   0  0  0  0  0  0  0  0  0  0  0  0
   55.5980   27.2190   45.6250 N   0  0  0  0  0  0  0  0  0  0  0  0
   56.6560   28.1350   45.3200 C   0  0  0  0  0  0  0  0  0  0  0  0
   56.6680   28.7130   44.1980 O   0  0  0  0  0  0  0  0  0  0  0  0
   57.7450   28.4100   46.3030 C   0  0  0  0  0  0  0  0  0  0  0  0
   58.4170   27.3240   46.8920 C   0  0  0  0  0  0  0  0  0  0  0  0
   59.4060   27.5270   47.7970 N   0  0  0  0  0  0  0  0  0  0  0  0
   59.7790   28.7720   48.1930 C   0  0  0  0  0  0  0  0  0  0  0  0
   60.8660   28.9630   49.1130 N   0  0  0  0  0  0  0  0  0  0  0  0
   61.4650   30.0710   49.4500 C   0  0  0  0  0  0  0  0  0  0  0  0
   61.5200   30.5430   50.7770 C   0  0  0  0  0  0  0  0  0  0  0  0
   62.1730   31.7450   51.0530 C   0  0  0  0  0  0  0  0  0  0  0  0
   62.7660   32.4840   50.0210 C   0  0  0  0  0  0  0  0  0  0  0  0
   63.4440   33.7720   50.2980 C   0  0  0  0  0  0  0  0  0  0  0  0
   62.8210   34.8530   50.1180 O   0  0  0  0  0  0  0  0  0  0  0  0
   64.7930   33.8110   50.7930 N   0  0  0  0  0  0  0  0  0  0  0  0
   65.8650   33.1080   50.0770 C   0  0  0  0  0  0  0  0  0  0  0  0
   66.9950   32.6710   51.0410 C   0  0  0  0  0  0  0  0  0  0  0  0
   66.8630   33.1920   52.3520 O   0  0  0  0  0  0  0  0  0  0  0  0
   66.5810   34.5750   52.2990 C   0  0  0  0  0  0  0  0  0  0  0  0
   65.1370   34.7780   51.8390 C   0  0  0  0  0  0  0  0  0  0  0  0
   62.6580   32.0000   48.7090 C   0  0  0  0  0  0  0  0  0  0  0  0
   62.0220   30.8240   48.4630 N   0  0  0  0  0  0  0  0  0  0  0  0
   59.1740   29.8870   47.6150 C   0  0  0  0  0  0  0  0  0  0  0  0
   58.1490   29.7230   46.6590 C   0  0  0  0  0  0  0  0  0  0  0  0
   57.5720   30.7540   46.1010 N   0  0  0  0  0  0  0  0  0  0  0  0
   58.0960   32.0880   46.0040 C   0  0  0  0  0  0  0  0  0  0  0  0
   58.3290   32.8040   47.1860 C   0  0  0  0  0  0  0  0  0  0  0  0
   58.0410   32.2460   48.3890 F   0  0  0  0  0  0  0  0  0  0  0  0
   58.8860   34.0840   47.1380 C   0  0  0  0  0  0  0  0  0  0  0  0
   59.2080   34.6610   45.9100 C   0  0  0  0  0  0  0  0  0  0  0  0
   58.9550   33.9690   44.7230 C   0  0  0  0  0  0  0  0  0  0  0  0
   58.3750   32.6890   44.7500 C   0  0  0  0  0  0  0  0  0  0  0  0
   58.0700   32.0140   43.4670 C   0  0  0  0  0  0  0  0  0  0  0  0
   57.9860   30.5900   43.3800 N   0  0  0  0  0  0  0  0  0  0  0  0
   57.8430   32.7070   42.4380 O   0  0  0  0  0  0  0  0  0  0  0  0
   55.8545   25.7004   47.0461 H   0  0  0  0  0  0  0  0  0  0  0  0
   55.0274   25.2048   45.5305 H   0  0  0  0  0  0  0  0  0  0  0  0
   56.7986   25.5041   45.5305 H   0  0  0  0  0  0  0  0  0  0  0  0
   58.1367   26.2970   46.6150 H   0  0  0  0  0  0  0  0  0  0  0  0
   61.0515   29.9679   51.5893 H   0  0  0  0  0  0  0  0  0  0  0  0
   62.2225   32.1147   52.0878 H   0  0  0  0  0  0  0  0  0  0  0  0
   65.4449   32.2157   49.5899 H   0  0  0  0  0  0  0  0  0  0  0  0
   66.2919   33.7948   49.3313 H   0  0  0  0  0  0  0  0  0  0  0  0
   66.9926   31.5727   51.1026 H   0  0  0  0  0  0  0  0  0  0  0  0
   67.9357   33.0683   50.6321 H   0  0  0  0  0  0  0  0  0  0  0  0
   66.7140   35.0159   53.2980 H   0  0  0  0  0  0  0  0  0  0  0  0
   67.2660   35.0643   51.5909 H   0  0  0  0  0  0  0  0  0  0  0  0
   64.4610   34.6408   52.6959 H   0  0  0  0  0  0  0  0  0  0  0  0
   65.0316   35.7950   51.4332 H   0  0  0  0  0  0  0  0  0  0  0  0
   63.0896   32.5742   47.8759 H   0  0  0  0  0  0  0  0  0  0  0  0
   59.4966   30.8978   47.9050 H   0  0  0  0  0  0  0  0  0  0  0  0
   59.0709   34.6377   48.0703 H   0  0  0  0  0  0  0  0  0  0  0  0
   59.6618   35.6624   45.8759 H   0  0  0  0  0  0  0  0  0  0  0  0
   59.2122   34.4303   43.7581 H   0  0  0  0  0  0  0  0  0  0  0  0
   57.8260   30.1300   42.4570 H   0  0  0  0  0  0  0  0  0  0  0  0
   58.0100   29.9940   44.2370 H   0  0  0  0  0  0  0  0  0  0  0  0
  1  2  1  0
  2  3  1  0
  3  4  2  0
  3  5  1  0
  5  6  2  0
  6  7  1  0
  7  8  1  0
  8  9  1  0
  9 10  2  3
 10 11  1  0
 11 12  2  0
 12 13  1  0
 13 14  1  0
 14 15  2  0
 14 16  1  0
 16 17  1  0
 17 18  1  0
 18 19  1  0
 19 20  1  0
 20 21  1  0
 13 22  2  0
 22 23  1  0
  8 24  2  0
 24 25  1  0
 25 26  2  3
 26 27  1  0
 27 28  2  0
 28 29  1  0
 28 30  1  0
 30 31  2  0
 31 32  1  0
 32 33  2  0
 33 34  1  0
 34 35  1  0
 34 36  2  0
 25  5  1  0
 33 27  1  0
 23 10  1  0
 21 16  1  0
  1 37  1  0
  1 38  1  0
  1 39  1  0
  6 40  1  0
 11 41  1  0
 12 42  1  0
 17 43  1  0
 17 44  1  0
 18 45  1  0
 18 46  1  0
 20 47  1  0
 20 48  1  0
 21 49  1  0
 21 50  1  0
 22 51  1  0
 24 52  1  0
 30 53  1  0
 31 54  1  0
 32 55  1  0
 35 56  1  0
 35 57  1  0
M  CHG  3   2  -1   7  -1  23  -1
M  END
>  <UniqueID>  (9) 
8

>  <SMILES>  (9) 
C[N-]C(=O)c1c[n-]c(N=c2ccc(C(=O)N3CCOCC3)c[n-]2)cc1=Nc1c(F)cccc1C(N)=O

>  <Energy>  (9) 
95.51748563587792

>  <Genealogy>  (9) 
C[N-]C(=O)c1c[n-]c(N=c2ccc(C(=O)N3CCOCC3)c[n-]2)cc1=Nc1c(F)cccc1C(N)=O (protonated)
C[N-]C(=O)c1c[n-]c(N=c2ccc(C(=O)N3CCOCC3)c[n-]2)cc1=Nc1c(F)cccc1C(N)=O (3D coordinates assigned)
C[N-]C(=O)c1c[n-]c(N=c2ccc(C(=O)N3CCOCC3)c[n-]2)cc1=Nc1c(F)cccc1C(N)=O (nonaromatic ring conformer: 95.51748563587792 kcal/mol)

>  <smiles>  (9) 
CNC(=O)c1c[nH]c(N=c2ccc(C(=O)N3CCOCC3)c[nH]2)cc1=Nc1c(F)cccc1C(N)=O

>  <score_type>  (9) 
oracle

>  <origin>  (9) 
adg

>  <m_score__min__energy>  (9) 
-12.23

>  <m_primary>  (9) 
energy

$$$$
9:0
     RDKit          3D

 82 86  0  0  0  0  0  0  0  0999 V2000
   62.6150   33.8000   46.5300 C   0  0  0  0  0  0  0  0  0  0  0  0
   62.4290   32.5000   47.3490 C   0  0  0  0  0  0  0  0  0  0  0  0
   61.1880   31.7630   46.7880 C   0  0  0  0  0  0  0  0  0  0  0  0
   63.6890   31.6280   47.1360 C   0  0  0  0  0  0  0  0  0  0  0  0
   62.2330   32.7590   48.8590 C   0  0  0  0  0  0  0  0  0  0  0  0
   61.2590   33.6890   49.2840 C   0  0  0  0  0  0  0  0  0  0  0  0
   61.0150   33.9140   50.6420 C   0  0  0  0  0  0  0  0  0  0  0  0
   61.7490   33.2260   51.6180 C   0  0  0  0  0  0  0  0  0  0  0  0
   61.4570   33.3600   53.0190 N   0  0  0  0  0  0  0  0  0  0  0  0
   60.1640   33.1760   53.5990 C   0  0  0  0  0  0  0  0  0  0  0  0
   59.7400   34.0030   54.4500 O   0  0  0  0  0  0  0  0  0  0  0  0
   59.3750   32.0190   53.2820 N   0  0  0  0  0  0  0  0  0  0  0  0
   59.1560   31.4580   51.9720 C   0  0  0  0  0  0  0  0  0  0  0  0
   59.6550   30.1840   51.6870 C   0  0  0  0  0  0  0  0  0  0  0  0
   59.4400   29.5970   50.4320 C   0  0  0  0  0  0  0  0  0  0  0  0
   58.7690   30.3090   49.4260 C   0  0  0  0  0  0  0  0  0  0  0  0
   58.6330   29.8010   48.1270 O   0  0  0  0  0  0  0  0  0  0  0  0
   59.0950   28.5470   47.7130 C   0  0  0  0  0  0  0  0  0  0  0  0
   60.3840   28.3810   47.1900 C   0  0  0  0  0  0  0  0  0  0  0  0
   60.8240   27.1030   46.8470 C   0  0  0  0  0  0  0  0  0  0  0  0
   59.9940   26.0390   46.9980 N   0  0  0  0  0  0  0  0  0  0  0  0
   58.7300   26.1660   47.4920 C   0  0  0  0  0  0  0  0  0  0  0  0
   57.9280   25.1400   47.5570 N   0  0  0  0  0  0  0  0  0  0  0  0
   56.6070   25.0960   46.9970 C   0  0  0  0  0  0  0  0  0  0  0  0
   55.7860   24.2350   47.4080 O   0  0  0  0  0  0  0  0  0  0  0  0
   56.2340   25.9690   45.8730 C   0  0  0  0  0  0  0  0  0  0  0  0
   55.2280   26.7100   45.9940 O   0  0  0  0  0  0  0  0  0  0  0  0
   56.9610   25.9750   44.6420 N   0  0  0  0  0  0  0  0  0  0  0  0
   58.1990   26.7110   44.3860 C   0  0  0  0  0  0  0  0  0  0  0  0
   57.9970   28.1980   44.5170 C   0  0  0  0  0  0  0  0  0  0  0  0
   56.7030   28.7400   44.5500 C   0  0  0  0  0  0  0  0  0  0  0  0
   56.5220   30.1250   44.6230 C   0  0  0  0  0  0  0  0  0  0  0  0
   57.6310   30.9850   44.6410 C   0  0  0  0  0  0  0  0  0  0  0  0
   57.4420   32.4790   44.6840 C   0  0  0  0  0  0  0  0  0  0  0  0
   58.5630   33.1210   45.4000 N   0  0  0  0  0  0  0  0  0  0  0  0
   58.2450   33.3440   46.8160 C   0  0  0  0  0  0  0  0  0  0  0  0
   58.8790   34.6690   47.2350 C   0  0  0  0  0  0  0  0  0  0  0  0
   59.5190   35.2280   45.9830 C   0  0  0  0  0  0  0  0  0  0  0  0
   58.8890   34.4420   44.8530 C   0  0  0  0  0  0  0  0  0  0  0  0
   58.9270   30.4420   44.5760 C   0  0  0  0  0  0  0  0  0  0  0  0
   59.1060   29.0580   44.5160 C   0  0  0  0  0  0  0  0  0  0  0  0
   58.2680   27.4320   47.8720 C   0  0  0  0  0  0  0  0  0  0  0  0
   58.2570   31.5800   49.7080 C   0  0  0  0  0  0  0  0  0  0  0  0
   58.4220   32.1380   50.9800 C   0  0  0  0  0  0  0  0  0  0  0  0
   62.7240   32.3100   51.2180 C   0  0  0  0  0  0  0  0  0  0  0  0
   62.9680   32.0740   49.8580 C   0  0  0  0  0  0  0  0  0  0  0  0
   62.7368   34.6513   47.2160 H   0  0  0  0  0  0  0  0  0  0  0  0
   63.5093   33.7091   45.8960 H   0  0  0  0  0  0  0  0  0  0  0  0
   61.7311   33.9636   45.8960 H   0  0  0  0  0  0  0  0  0  0  0  0
   60.5711   31.3966   47.6218 H   0  0  0  0  0  0  0  0  0  0  0  0
   60.5971   32.4566   46.1718 H   0  0  0  0  0  0  0  0  0  0  0  0
   61.5143   30.9122   46.1718 H   0  0  0  0  0  0  0  0  0  0  0  0
   64.1050   31.3401   48.1127 H   0  0  0  0  0  0  0  0  0  0  0  0
   63.4178   30.7234   46.5719 H   0  0  0  0  0  0  0  0  0  0  0  0
   64.4400   32.2005   46.5719 H   0  0  0  0  0  0  0  0  0  0  0  0
   60.6814   34.2469   48.5323 H   0  0  0  0  0  0  0  0  0  0  0  0
   60.2423   34.6353   50.9464 H   0  0  0  0  0  0  0  0  0  0  0  0
   60.2218   29.6366   52.4546 H   0  0  0  0  0  0  0  0  0  0  0  0
   59.7982   28.5757   50.2355 H   0  0  0  0  0  0  0  0  0  0  0  0
   61.0430   29.2508   47.0512 H   0  0  0  0  0  0  0  0  0  0  0  0
   61.8413   26.9571   46.4549 H   0  0  0  0  0  0  0  0  0  0  0  0
   58.9619   26.3892   45.1101 H   0  0  0  0  0  0  0  0  0  0  0  0
   58.5201   26.4967   43.3559 H   0  0  0  0  0  0  0  0  0  0  0  0
   55.8284   28.0736   44.5184 H   0  0  0  0  0  0  0  0  0  0  0  0
   55.5052   30.5424   44.6665 H   0  0  0  0  0  0  0  0  0  0  0  0
   57.3985   32.8683   43.6561 H   0  0  0  0  0  0  0  0  0  0  0  0
   56.5050   32.7043   45.2144 H   0  0  0  0  0  0  0  0  0  0  0  0
   57.1544   33.3919   46.9514 H   0  0  0  0  0  0  0  0  0  0  0  0
   58.6355   32.5201   47.4314 H   0  0  0  0  0  0  0  0  0  0  0  0
   58.1110   35.3590   47.6145 H   0  0  0  0  0  0  0  0  0  0  0  0
   59.6145   34.5312   48.0413 H   0  0  0  0  0  0  0  0  0  0  0  0
   59.2998   36.3010   45.8799 H   0  0  0  0  0  0  0  0  0  0  0  0
   60.6151   35.1364   45.9965 H   0  0  0  0  0  0  0  0  0  0  0  0
   57.9755   34.9448   44.5027 H   0  0  0  0  0  0  0  0  0  0  0  0
   59.5715   34.3610   43.9942 H   0  0  0  0  0  0  0  0  0  0  0  0
   59.8017   31.1090   44.5724 H   0  0  0  0  0  0  0  0  0  0  0  0
   60.1222   28.6397   44.4677 H   0  0  0  0  0  0  0  0  0  0  0  0
   57.2587   27.5483   48.2937 H   0  0  0  0  0  0  0  0  0  0  0  0
   57.7233   32.1420   48.9274 H   0  0  0  0  0  0  0  0  0  0  0  0
   57.9746   33.1167   51.2079 H   0  0  0  0  0  0  0  0  0  0  0  0
   63.3064   31.7682   51.9777 H   0  0  0  0  0  0  0  0  0  0  0  0
   63.7397   31.3479   49.5627 H   0  0  0  0  0  0  0  0  0  0  0  0
  1  2  1  0
  2  3  1  0
  2  4  1  0
  2  5  1  0
  5  6  2  0
  6  7  1  0
  7  8  2  0
  8  9  1  0
  9 10  1  0
 10 11  2  0
 10 12  1  0
 12 13  1  0
 13 14  2  0
 14 15  1  0
 15 16  2  0
 16 17  1  0
 17 18  1  0
 18 19  1  0
 19 20  2  0
 20 21  1  0
 21 22  1  0
 22 23  2  3
 23 24  1  0
 24 25  2  0
 24 26  1  0
 26 27  2  0
 26 28  1  0
 28 29  1  0
 29 30  1  0
 30 31  2  0
 31 32  1  0
 32 33  2  0
 33 34  1  0
 34 35  1  0
 35 36  1  0
 36 37  1  0
 37 38  1  0
 38 39  1  0
 33 40  1  0
 40 41  2  0
 22 42  1  0
 16 43  1  0
 43 44  2  0
  8 45  1  0
 45 46  2  0
 46  5  1  0
 44 13  1  0
 42 18  2  0
 41 30  1  0
 39 35  1  0
  1 47  1  0
  1 48  1  0
  1 49  1  0
  3 50  1  0
  3 51  1  0
  3 52  1  0
  4 53  1  0
  4 54  1  0
  4 55  1  0
  6 56  1  0
  7 57  1  0
 14 58  1  0
 15 59  1  0
 19 60  1  0
 20 61  1  0
 29 62  1  0
 29 63  1  0
 31 64  1  0
 32 65  1  0
 34 66  1  0
 34 67  1  0
 36 68  1  0
 36 69  1  0
 37 70  1  0
 37 71  1  0
 38 72  1  0
 38 73  1  0
 39 74  1  0
 39 75  1  0
 40 76  1  0
 41 77  1  0
 42 78  1  0
 43 79  1  0
 44 80  1  0
 45 81  1  0
 46 82  1  0
M  CHG  4   9  -1  12  -1  21  -1  28  -1
M  END
>  <UniqueID>  (10) 
9

>  <SMILES>  (10) 
CC(C)(C)c1ccc([N-]C(=O)[N-]c2ccc(Oc3cc[n-]c(=NC(=O)C(=O)[N-]Cc4ccc(CN5CCCC5)cc4)c3)cc2)cc1

>  <Energy>  (10) 
117.84808555914778

>  <Genealogy>  (10) 
CC(C)(C)c1ccc([N-]C(=O)[N-]c2ccc(Oc3cc[n-]c(=NC(=O)C(=O)[N-]Cc4ccc(CN5CCCC5)cc4)c3)cc2)cc1 (protonated)
CC(C)(C)c1ccc([N-]C(=O)[N-]c2ccc(Oc3cc[n-]c(=NC(=O)C(=O)[N-]Cc4ccc(CN5CCCC5)cc4)c3)cc2)cc1 (3D coordinates assigned)
CC(C)(C)c1ccc([N-]C(=O)[N-]c2ccc(Oc3cc[n-]c(=NC(=O)C(=O)[N-]Cc4ccc(CN5CCCC5)cc4)c3)cc2)cc1 (nonaromatic ring conformer: 117.84808555914778 kcal/mol)

>  <smiles>  (10) 
CC(C)(C)c1ccc(NC(=O)Nc2ccc(Oc3cc[nH]c(=NC(=O)C(=O)NCc4ccc(CN5CCCC5)cc4)c3)cc2)cc1

>  <score_type>  (10) 
oracle

>  <origin>  (10) 
adg

>  <m_score__min__energy>  (10) 
-15.210000000000001

>  <m_primary>  (10) 
energy

$$$$
10:0
     RDKit          3D

 40 42  0  0  0  0  0  0  0  0999 V2000
   64.3550   33.2370   48.8635 H   0  0  0  0  0  0  0  0  0  0  0  0
   63.4590   33.4530   48.2630 C   0  0  0  0  0  0  0  0  0  0  0  0
   61.9260   33.8050   48.8660 S   0  0  0  0  0  0  0  0  0  0  0  0
   61.2480   33.9650   47.3390 C   0  0  0  0  0  0  0  0  0  0  0  0
   60.0010   34.2780   47.1380 N   0  0  0  0  0  0  0  0  0  0  0  0
   59.3100   34.2090   45.8830 C   0  0  0  0  0  0  0  0  0  0  0  0
   59.2470   35.2480   45.1740 O   0  0  0  0  0  0  0  0  0  0  0  0
   58.6090   32.9790   45.4390 C   0  0  0  0  0  0  0  0  0  0  0  0
   57.7250   33.0060   44.3460 C   0  0  0  0  0  0  0  0  0  0  0  0
   57.5467   33.9508   43.8117 H   0  0  0  0  0  0  0  0  0  0  0  0
   57.0710   31.8420   43.9330 C   0  0  0  0  0  0  0  0  0  0  0  0
   56.3700   31.8794   43.0861 H   0  0  0  0  0  0  0  0  0  0  0  0
   57.3040   30.6260   44.5930 C   0  0  0  0  0  0  0  0  0  0  0  0
   56.5960   29.3700   44.1580 C   0  0  0  0  0  0  0  0  0  0  0  0
   57.2710   28.7770   43.5234 H   0  0  0  0  0  0  0  0  0  0  0  0
   55.6920   29.6512   43.5980 H   0  0  0  0  0  0  0  0  0  0  0  0
   56.2090   28.5880   45.2880 O   0  0  0  0  0  0  0  0  0  0  0  0
   56.9200   27.4900   45.8010 C   0  0  0  0  0  0  0  0  0  0  0  0
   58.3190   27.5150   45.9790 C   0  0  0  0  0  0  0  0  0  0  0  0
   58.8889   28.4160   45.7080 H   0  0  0  0  0  0  0  0  0  0  0  0
   58.9840   26.4030   46.4970 C   0  0  0  0  0  0  0  0  0  0  0  0
   60.0746   26.4316   46.6375 H   0  0  0  0  0  0  0  0  0  0  0  0
   58.2680   25.2550   46.8370 C   0  0  0  0  0  0  0  0  0  0  0  0
   58.7949   24.3794   47.2442 H   0  0  0  0  0  0  0  0  0  0  0  0
   56.8830   25.2160   46.6610 C   0  0  0  0  0  0  0  0  0  0  0  0
   56.3226   24.3084   46.9298 H   0  0  0  0  0  0  0  0  0  0  0  0
   56.2000   26.3330   46.1410 C   0  0  0  0  0  0  0  0  0  0  0  0
   54.8090   26.3330   45.9500 O   0  0  0  0  0  0  0  0  0  0  0  0
   54.0410   25.1810   45.6190 C   0  0  0  0  0  0  0  0  0  0  0  0
   53.7094   24.6836   46.5424 H   0  0  0  0  0  0  0  0  0  0  0  0
   53.1628   25.4828   45.0294 H   0  0  0  0  0  0  0  0  0  0  0  0
   54.6574   24.4864   45.0294 H   0  0  0  0  0  0  0  0  0  0  0  0
   58.1840   30.5950   45.6840 C   0  0  0  0  0  0  0  0  0  0  0  0
   58.3610   29.6490   46.2168 H   0  0  0  0  0  0  0  0  0  0  0  0
   58.8380   31.7590   46.0990 C   0  0  0  0  0  0  0  0  0  0  0  0
   59.5366   31.7199   46.9478 H   0  0  0  0  0  0  0  0  0  0  0  0
   62.1680   33.7710   46.3640 N   0  0  0  0  0  0  0  0  0  0  0  0
   61.9910   33.8590   45.3400 H   0  0  0  0  0  0  0  0  0  0  0  0
   63.3950   33.4830   46.8730 C   0  0  0  0  0  0  0  0  0  0  0  0
   64.2700   33.2886   46.2354 H   0  0  0  0  0  0  0  0  0  0  0  0
  1  2  1  0
  2  3  1  0
  3  4  1  0
  4  5  2  0
  5  6  1  0
  6  7  2  0
  6  8  1  0
  8  9  2  0
  9 10  1  0
  9 11  1  0
 11 12  1  0
 11 13  2  0
 13 14  1  0
 14 15  1  0
 14 16  1  0
 14 17  1  0
 17 18  1  0
 18 19  2  0
 19 20  1  0
 19 21  1  0
 21 22  1  0
 21 23  2  0
 23 24  1  0
 23 25  1  0
 25 26  1  0
 25 27  2  0
 27 28  1  0
 28 29  1  0
 29 30  1  0
 29 31  1  0
 29 32  1  0
 13 33  1  0
 33 34  1  0
 33 35  2  0
 35 36  1  0
  4 37  1  0
 37 38  1  0
 37 39  1  0
 39 40  1  0
 39  2  2  0
 35  8  1  0
 27 18  1  0
M  END
>  <UniqueID>  (11) 
10

>  <SMILES>  (11) 
COc1ccccc1OCc1ccc(C(=O)/N=c2\[nH]ccs2)cc1

>  <Energy>  (11) 
80.0704693311205

>  <Genealogy>  (11) 
COc1ccccc1OCc1ccc(C(=O)/N=c2\[nH]ccs2)cc1 (cis-trans isomerization)
COc1ccccc1OCc1ccc(C(=O)/N=c2\[nH]ccs2)cc1 (3D coordinates assigned)
COc1ccccc1OCc1ccc(C(=O)/N=c2\[nH]ccs2)cc1 (optimized conformer: 80.0704693311205 kcal/mol)

>  <smiles>  (11) 
COc1ccccc1OCc1ccc(C(=O)N=c2[nH]ccs2)cc1

>  <score_type>  (11) 
oracle

>  <origin>  (11) 
adg

>  <m_score__min__energy>  (11) 
-8.3100000000000005

>  <m_primary>  (11) 
energy

$$$$
11:0
     RDKit          3D

 39 42  0  0  0  0  0  0  0  0999 V2000
   64.5840   32.4940   47.5600 H   0  0  0  0  0  0  0  0  0  0  0  0
   63.7500   32.0440   47.9190 O   0  0  0  0  0  0  0  0  0  0  0  0
   62.4800   32.3990   47.4690 C   0  0  0  0  0  0  0  0  0  0  0  0
   61.3680   31.6070   47.7860 C   0  0  0  0  0  0  0  0  0  0  0  0
   61.4969   30.6963   48.3893 H   0  0  0  0  0  0  0  0  0  0  0  0
   60.0950   31.9720   47.3370 C   0  0  0  0  0  0  0  0  0  0  0  0
   59.2282   31.3372   47.5731 H   0  0  0  0  0  0  0  0  0  0  0  0
   59.9180   33.1470   46.5850 C   0  0  0  0  0  0  0  0  0  0  0  0
   58.5870   33.5400   46.0800 C   0  0  0  0  0  0  0  0  0  0  0  0
   58.0543   34.3350   46.6224 H   0  0  0  0  0  0  0  0  0  0  0  0
   57.9750   33.0040   45.0110 C   0  0  0  0  0  0  0  0  0  0  0  0
   57.7853   33.6667   44.1537 H   0  0  0  0  0  0  0  0  0  0  0  0
   57.5360   31.6000   44.8910 C   0  0  0  0  0  0  0  0  0  0  0  0
   56.9920   31.2280   43.8170 O   0  0  0  0  0  0  0  0  0  0  0  0
   57.6590   30.6980   46.0030 N   0  0  0  0  0  0  0  0  0  0  0  0
   58.0210   29.4510   45.9450 C   0  0  0  0  0  0  0  0  0  0  0  0
   57.1640   28.4070   45.9280 N   0  0  0  0  0  0  0  0  0  0  0  0
   57.8190   27.2170   45.8500 C   0  0  0  0  0  0  0  0  0  0  0  0
   57.0890   25.9310   45.8170 C   0  0  0  0  0  0  0  0  0  0  0  0
   55.7230   25.7160   45.9990 C   0  0  0  0  0  0  0  0  0  0  0  0
   54.7840   26.7080   46.2520 O   0  0  0  0  0  0  0  0  0  0  0  0
   55.3900   24.4070   45.9280 N   0  0  0  0  0  0  0  0  0  0  0  0
   56.5600   23.7810   45.7010 C   0  0  0  0  0  0  0  0  0  0  0  0
   56.7450   22.4080   45.5470 C   0  0  0  0  0  0  0  0  0  0  0  0
   55.8954   21.7122   45.6108 H   0  0  0  0  0  0  0  0  0  0  0  0
   58.0470   21.9380   45.3080 C   0  0  0  0  0  0  0  0  0  0  0  0
   58.2248   20.8596   45.1840 H   0  0  0  0  0  0  0  0  0  0  0  0
   59.1280   22.8410   45.2260 C   0  0  0  0  0  0  0  0  0  0  0  0
   60.1430   22.4619   45.0363 H   0  0  0  0  0  0  0  0  0  0  0  0
   58.9170   24.2220   45.3850 C   0  0  0  0  0  0  0  0  0  0  0  0
   59.7528   24.9341   45.3186 H   0  0  0  0  0  0  0  0  0  0  0  0
   57.6130   24.6630   45.6300 C   0  0  0  0  0  0  0  0  0  0  0  0
   59.2110   27.3240   45.8030 C   0  0  0  0  0  0  0  0  0  0  0  0
   59.9195   26.4850   45.7385 H   0  0  0  0  0  0  0  0  0  0  0  0
   59.6190   28.9560   45.8620 S   0  0  0  0  0  0  0  0  0  0  0  0
   61.0390   33.9190   46.2440 C   0  0  0  0  0  0  0  0  0  0  0  0
   60.9160   34.8170   45.6208 H   0  0  0  0  0  0  0  0  0  0  0  0
   62.3130   33.5520   46.6930 C   0  0  0  0  0  0  0  0  0  0  0  0
   63.4120   34.3370   46.3630 O   0  0  0  0  0  0  0  0  0  0  0  0
  1  2  1  0
  2  3  1  0
  3  4  2  0
  4  5  1  0
  4  6  1  0
  6  7  1  0
  6  8  2  0
  8  9  1  0
  9 10  1  0
  9 11  2  3
 11 12  1  0
 11 13  1  0
 13 14  2  0
 13 15  1  0
 15 16  2  0
 16 17  1  0
 17 18  1  0
 18 19  1  0
 19 20  2  0
 20 21  1  0
 20 22  1  0
 22 23  1  0
 23 24  2  0
 24 25  1  0
 24 26  1  0
 26 27  1  0
 26 28  2  0
 28 29  1  0
 28 30  1  0
 30 31  1  0
 30 32  2  0
 18 33  2  0
 33 34  1  0
 33 35  1  0
  8 36  1  0
 36 37  1  0
 36 38  2  0
 38 39  1  0
 38  3  1  0
 35 16  1  0
 32 19  1  0
 32 23  1  0
M  CHG  4  17  -1  21  -1  22  -1  39  -1
M  END
>  <UniqueID>  (12) 
11

>  <SMILES>  (12) 
O=C(C=Cc1ccc(O)c([O-])c1)/N=c1\[n-]c(-c2c([O-])[n-]c3ccccc23)cs1

>  <Energy>  (12) 
117.39391220872598

>  <Genealogy>  (12) 
O=C(C=Cc1ccc(O)c([O-])c1)N=c1[n-]c(-c2c([O-])[n-]c3ccccc23)cs1 (protonated)
O=C(C=Cc1ccc(O)c([O-])c1)/N=c1\[n-]c(-c2c([O-])[n-]c3ccccc23)cs1 (cis-trans isomerization)
O=C(C=Cc1ccc(O)c([O-])c1)/N=c1\[n-]c(-c2c([O-])[n-]c3ccccc23)cs1 (3D coordinates assigned)
O=C(C=Cc1ccc(O)c([O-])c1)/N=c1\[n-]c(-c2c([O-])[n-]c3ccccc23)cs1 (optimized conformer: 117.39391220872598 kcal/mol)

>  <smiles>  (12) 
O=C(C=Cc1ccc(O)c(O)c1)N=c1[nH]c(-c2c(O)[nH]c3ccccc23)cs1

>  <score_type>  (12) 
oracle

>  <origin>  (12) 
adg

>  <m_score__min__energy>  (12) 
-16.079999999999998

>  <m_primary>  (12) 
energy

$$$$
12:0
     RDKit          3D

 64 67  0  0  0  0  0  0  0  0999 V2000
   55.5360   29.0180   44.8760 O   0  0  0  0  0  0  0  0  0  0  0  0
   56.4210   29.8220   44.4820 C   0  0  0  0  0  0  0  0  0  0  0  0
   57.6060   29.2890   43.7250 C   0  0  0  0  0  0  0  0  0  0  0  0
   57.5140   27.8270   43.6150 N   0  0  0  0  0  0  0  0  0  0  0  0
   58.6870   27.1650   44.2030 C   0  0  0  0  0  0  0  0  0  0  0  0
   59.0830   27.7820   45.5250 C   0  0  0  0  0  0  0  0  0  0  0  0
   58.3000   27.5640   46.6670 C   0  0  0  0  0  0  0  0  0  0  0  0
   58.6380   28.1700   47.8800 C   0  0  0  0  0  0  0  0  0  0  0  0
   59.7650   29.0090   47.9680 C   0  0  0  0  0  0  0  0  0  0  0  0
   60.1420   29.6520   49.1600 O   0  0  0  0  0  0  0  0  0  0  0  0
   59.6480   29.3410   50.4640 C   0  0  0  0  0  0  0  0  0  0  0  0
   59.1270   30.5770   51.1570 C   0  0  0  0  0  0  0  0  0  0  0  0
   57.7400   30.7920   51.2480 C   0  0  0  0  0  0  0  0  0  0  0  0
   57.2380   31.9340   51.8770 C   0  0  0  0  0  0  0  0  0  0  0  0
   58.1150   32.8820   52.4090 C   0  0  0  0  0  0  0  0  0  0  0  0
   59.4940   32.6910   52.3120 C   0  0  0  0  0  0  0  0  0  0  0  0
   60.0080   31.5480   51.6880 C   0  0  0  0  0  0  0  0  0  0  0  0
   61.7540   31.3730   51.5760 Cl  0  0  0  0  0  0  0  0  0  0  0  0
   60.5430   29.2260   46.8250 C   0  0  0  0  0  0  0  0  0  0  0  0
   60.2060   28.6210   45.6110 C   0  0  0  0  0  0  0  0  0  0  0  0
   56.3150   31.2000   44.8630 N   0  0  0  0  0  0  0  0  0  0  0  0
   57.4090   32.1020   45.0720 C   0  0  0  0  0  0  0  0  0  0  0  0
   57.8720   32.3050   46.3780 C   0  0  0  0  0  0  0  0  0  0  0  0
   58.9070   33.2170   46.6360 C   0  0  0  0  0  0  0  0  0  0  0  0
   59.4600   33.4890   48.2930 S   0  0  0  0  0  0  0  0  0  0  0  0
   58.4580   32.9100   49.2530 O   0  0  0  0  0  0  0  0  0  0  0  0
   59.5430   34.9700   48.5460 O   0  0  0  0  0  0  0  0  0  0  0  0
   61.0200   32.7550   48.5890 N   0  0  0  0  0  0  0  0  0  0  0  0
   61.5310   32.1200   47.3580 C   0  0  0  0  0  0  0  0  0  0  0  0
   63.0520   31.9100   47.4490 C   0  0  0  0  0  0  0  0  0  0  0  0
   63.7970   33.1080   47.6340 O   0  0  0  0  0  0  0  0  0  0  0  0
   63.0360   34.1780   48.1810 C   0  0  0  0  0  0  0  0  0  0  0  0
   61.9740   33.7120   49.1900 C   0  0  0  0  0  0  0  0  0  0  0  0
   59.4770   33.9290   45.5730 C   0  0  0  0  0  0  0  0  0  0  0  0
   59.0050   33.7490   44.2700 C   0  0  0  0  0  0  0  0  0  0  0  0
   57.9500   32.8600   44.0170 C   0  0  0  0  0  0  0  0  0  0  0  0
   57.4200   32.7550   42.7310 O   0  0  0  0  0  0  0  0  0  0  0  0
   57.6233   29.7300   42.7174 H   0  0  0  0  0  0  0  0  0  0  0  0
   58.5280   29.5539   44.2633 H   0  0  0  0  0  0  0  0  0  0  0  0
   56.6520   27.5010   44.1150 H   0  0  0  0  0  0  0  0  0  0  0  0
   58.4517   26.1025   44.3634 H   0  0  0  0  0  0  0  0  0  0  0  0
   59.5296   27.2855   43.5062 H   0  0  0  0  0  0  0  0  0  0  0  0
   57.4154   26.9129   46.6081 H   0  0  0  0  0  0  0  0  0  0  0  0
   58.0195   27.9903   48.7717 H   0  0  0  0  0  0  0  0  0  0  0  0
   58.8321   28.6088   50.3739 H   0  0  0  0  0  0  0  0  0  0  0  0
   60.4742   28.9277   51.0612 H   0  0  0  0  0  0  0  0  0  0  0  0
   57.0446   30.0547   50.8203 H   0  0  0  0  0  0  0  0  0  0  0  0
   56.1513   32.0867   51.9533 H   0  0  0  0  0  0  0  0  0  0  0  0
   57.7183   33.7801   52.9050 H   0  0  0  0  0  0  0  0  0  0  0  0
   60.1809   33.4427   52.7281 H   0  0  0  0  0  0  0  0  0  0  0  0
   61.4270   29.8781   46.8826 H   0  0  0  0  0  0  0  0  0  0  0  0
   60.8232   28.8028   44.7188 H   0  0  0  0  0  0  0  0  0  0  0  0
   57.4201   31.7443   47.2095 H   0  0  0  0  0  0  0  0  0  0  0  0
   61.0389   31.1456   47.2227 H   0  0  0  0  0  0  0  0  0  0  0  0
   61.3141   32.7775   46.5032 H   0  0  0  0  0  0  0  0  0  0  0  0
   63.2576   31.2415   48.2981 H   0  0  0  0  0  0  0  0  0  0  0  0
   63.3703   31.4859   46.4853 H   0  0  0  0  0  0  0  0  0  0  0  0
   63.7223   34.8704   48.6905 H   0  0  0  0  0  0  0  0  0  0  0  0
   62.5052   34.6611   47.3474 H   0  0  0  0  0  0  0  0  0  0  0  0
   62.4789   33.2252   50.0374 H   0  0  0  0  0  0  0  0  0  0  0  0
   61.4070   34.5955   49.5184 H   0  0  0  0  0  0  0  0  0  0  0  0
   60.3000   34.6332   45.7647 H   0  0  0  0  0  0  0  0  0  0  0  0
   59.4626   34.3067   43.4396 H   0  0  0  0  0  0  0  0  0  0  0  0
   56.6590   32.1200   42.5210 H   0  0  0  0  0  0  0  0  0  0  0  0
  1  2  2  0
  2  3  1  0
  3  4  1  0
  4  5  1  0
  5  6  1  0
  6  7  2  0
  7  8  1  0
  8  9  2  0
  9 10  1  0
 10 11  1  0
 11 12  1  0
 12 13  2  0
 13 14  1  0
 14 15  2  0
 15 16  1  0
 16 17  2  0
 17 18  1  0
  9 19  1  0
 19 20  2  0
  2 21  1  0
 21 22  1  0
 22 23  2  0
 23 24  1  0
 24 25  1  0
 25 26  2  0
 25 27  2  0
 25 28  1  0
 28 29  1  0
 29 30  1  0
 30 31  1  0
 31 32  1  0
 32 33  1  0
 24 34  2  0
 34 35  1  0
 35 36  2  0
 36 37  1  0
 20  6  1  0
 36 22  1  0
 17 12  1  0
 33 28  1  0
  3 38  1  0
  3 39  1  0
  4 40  1  0
  5 41  1  0
  5 42  1  0
  7 43  1  0
  8 44  1  0
 11 45  1  0
 11 46  1  0
 13 47  1  0
 14 48  1  0
 15 49  1  0
 16 50  1  0
 19 51  1  0
 20 52  1  0
 23 53  1  0
 29 54  1  0
 29 55  1  0
 30 56  1  0
 30 57  1  0
 32 58  1  0
 32 59  1  0
 33 60  1  0
 33 61  1  0
 34 62  1  0
 35 63  1  0
 37 64  1  0
M  CHG  1  21  -1
M  END
>  <UniqueID>  (13) 
12

>  <SMILES>  (13) 
O=C(CNCc1ccc(OCc2ccccc2Cl)cc1)[N-]c1cc(S(=O)(=O)N2CCOCC2)ccc1O

>  <Energy>  (13) 
80.45282501879892

>  <Genealogy>  (13) 
O=C(CNCc1ccc(OCc2ccccc2Cl)cc1)[N-]c1cc(S(=O)(=O)N2CCOCC2)ccc1O (protonated)
O=C(CNCc1ccc(OCc2ccccc2Cl)cc1)[N-]c1cc(S(=O)(=O)N2CCOCC2)ccc1O (3D coordinates assigned)
O=C(CNCc1ccc(OCc2ccccc2Cl)cc1)[N-]c1cc(S(=O)(=O)N2CCOCC2)ccc1O (nonaromatic ring conformer: 80.45282501879892 kcal/mol)

>  <smiles>  (13) 
O=C(CNCc1ccc(OCc2ccccc2Cl)cc1)Nc1cc(S(=O)(=O)N2CCOCC2)ccc1O

>  <score_type>  (13) 
oracle

>  <origin>  (13) 
adg

>  <m_score__min__energy>  (13) 
-12.970000000000001

>  <m_primary>  (13) 
energy

$$$$
13:0
     RDKit          3D

 39 41  0  0  0  0  0  0  0  0999 V2000
   61.7920   30.9370   47.5100 C   0  0  0  0  0  0  0  0  0  0  0  0
   60.6440   30.2010   46.8860 C   0  0  0  0  0  0  0  0  0  0  0  0
   60.7820   29.6190   45.6170 C   0  0  0  0  0  0  0  0  0  0  0  0
   59.7290   28.8910   45.0570 C   0  0  0  0  0  0  0  0  0  0  0  0
   58.5310   28.7150   45.7680 C   0  0  0  0  0  0  0  0  0  0  0  0
   57.3750   27.9820   45.1410 C   0  0  0  0  0  0  0  0  0  0  0  0
   56.5320   28.9540   44.3790 C   0  0  0  0  0  0  0  0  0  0  0  0
   55.4490   29.3660   44.8770 O   0  0  0  0  0  0  0  0  0  0  0  0
   57.0060   29.4910   43.1390 N   0  0  0  0  0  0  0  0  0  0  0  0
   56.7670   30.8840   42.7800 C   0  0  0  0  0  0  0  0  0  0  0  0
   57.4510   31.7730   43.7720 C   0  0  0  0  0  0  0  0  0  0  0  0
   58.2360   32.8770   43.4450 C   0  0  0  0  0  0  0  0  0  0  0  0
   58.5180   33.4800   44.6510 C   0  0  0  0  0  0  0  0  0  0  0  0
   59.2420   34.6350   44.9400 C   0  0  0  0  0  0  0  0  0  0  0  0
   59.3410   35.0260   46.2870 C   0  0  0  0  0  0  0  0  0  0  0  0
   58.7110   34.2700   47.3000 C   0  0  0  0  0  0  0  0  0  0  0  0
   57.9760   33.1150   46.9750 C   0  0  0  0  0  0  0  0  0  0  0  0
   57.9050   32.7450   45.6330 C   0  0  0  0  0  0  0  0  0  0  0  0
   57.2420   31.7030   45.1080 N   0  0  0  0  0  0  0  0  0  0  0  0
   58.3930   29.3010   47.0360 C   0  0  0  0  0  0  0  0  0  0  0  0
   59.4450   30.0300   47.5950 C   0  0  0  0  0  0  0  0  0  0  0  0
   61.7094   30.8840   48.6056 H   0  0  0  0  0  0  0  0  0  0  0  0
   62.7391   30.4773   47.1910 H   0  0  0  0  0  0  0  0  0  0  0  0
   61.7696   31.9895   47.1910 H   0  0  0  0  0  0  0  0  0  0  0  0
   61.7235   29.7363   45.0603 H   0  0  0  0  0  0  0  0  0  0  0  0
   59.8391   28.4534   44.0538 H   0  0  0  0  0  0  0  0  0  0  0  0
   57.7565   27.2101   44.4564 H   0  0  0  0  0  0  0  0  0  0  0  0
   56.7704   27.5045   45.9262 H   0  0  0  0  0  0  0  0  0  0  0  0
   57.7660   28.9830   42.6330 H   0  0  0  0  0  0  0  0  0  0  0  0
   57.1676   31.0786   41.7742 H   0  0  0  0  0  0  0  0  0  0  0  0
   55.6859   31.0867   42.7863 H   0  0  0  0  0  0  0  0  0  0  0  0
   58.5595   33.1968   42.4435 H   0  0  0  0  0  0  0  0  0  0  0  0
   59.7200   35.2211   44.1413 H   0  0  0  0  0  0  0  0  0  0  0  0
   59.9131   35.9269   46.5536 H   0  0  0  0  0  0  0  0  0  0  0  0
   58.7955   34.5862   48.3502 H   0  0  0  0  0  0  0  0  0  0  0  0
   57.4738   32.5233   47.7546 H   0  0  0  0  0  0  0  0  0  0  0  0
   56.6570   31.0040   45.6190 H   0  0  0  0  0  0  0  0  0  0  0  0
   57.4512   29.1854   47.5924 H   0  0  0  0  0  0  0  0  0  0  0  0
   59.3332   30.4723   48.5959 H   0  0  0  0  0  0  0  0  0  0  0  0
  1  2  1  0
  2  3  2  0
  3  4  1  0
  4  5  2  0
  5  6  1  0
  6  7  1  0
  7  8  2  0
  7  9  1  0
  9 10  1  0
 10 11  1  0
 11 12  2  0
 12 13  1  0
 13 14  2  0
 14 15  1  0
 15 16  2  0
 16 17  1  0
 17 18  2  0
 18 19  1  0
  5 20  1  0
 20 21  2  0
 21  2  1  0
 19 11  1  0
 18 13  1  0
  1 22  1  0
  1 23  1  0
  1 24  1  0
  3 25  1  0
  4 26  1  0
  6 27  1  0
  6 28  1  0
  9 29  1  0
 10 30  1  0
 10 31  1  0
 12 32  1  0
 14 33  1  0
 15 34  1  0
 16 35  1  0
 17 36  1  0
 19 37  1  0
 20 38  1  0
 21 39  1  0
M  END
>  <UniqueID>  (14) 
13

>  <SMILES>  (14) 
Cc1ccc(CC(=O)NCc2cc3ccccc3[nH]2)cc1

>  <Energy>  (14) 
62.848286977897715

>  <Genealogy>  (14) 
Cc1ccc(CC(=O)NCc2cc3ccccc3[nH]2)cc1 (3D coordinates assigned)
Cc1ccc(CC(=O)NCc2cc3ccccc3[nH]2)cc1 (optimized conformer: 62.848286977897715 kcal/mol)

>  <smiles>  (14) 
Cc1ccc(CC(=O)NCc2cc3ccccc3[nH]2)cc1

>  <score_type>  (14) 
oracle

>  <origin>  (14) 
adg

>  <m_score__min__energy>  (14) 
-8.0500000000000007

>  <m_primary>  (14) 
energy

$$$$
14:0
     RDKit          3D

 55 57  0  0  0  0  0  0  0  0999 V2000
   54.1660   28.9670   44.4900 H   0  0  0  0  0  0  0  0  0  0  0  0
   54.9550   29.5040   44.1510 O   0  0  0  0  0  0  0  0  0  0  0  0
   56.2590   29.2650   44.5850 C   0  0  0  0  0  0  0  0  0  0  0  0
   56.5600   28.1380   45.3670 C   0  0  0  0  0  0  0  0  0  0  0  0
   55.5610   27.2370   45.7160 O   0  0  0  0  0  0  0  0  0  0  0  0
   57.8690   27.9120   45.7980 C   0  0  0  0  0  0  0  0  0  0  0  0
   58.0970   27.0240   46.4059 H   0  0  0  0  0  0  0  0  0  0  0  0
   58.8980   28.8090   45.4620 C   0  0  0  0  0  0  0  0  0  0  0  0
   60.2950   28.5790   45.9080 C   0  0  0  0  0  0  0  0  0  0  0  0
   60.7550   27.4030   45.8980 O   0  0  0  0  0  0  0  0  0  0  0  0
   61.1620   29.6990   46.3370 C   0  0  0  0  0  0  0  0  0  0  0  0
   62.0169   29.9820   45.7052 H   0  0  0  0  0  0  0  0  0  0  0  0
   60.9400   30.3800   47.4700 C   0  0  0  0  0  0  0  0  0  0  0  0
   60.1302   30.0477   48.1362 H   0  0  0  0  0  0  0  0  0  0  0  0
   61.7440   31.5650   47.8610 C   0  0  0  0  0  0  0  0  0  0  0  0
   63.0630   31.6970   47.3790 C   0  0  0  0  0  0  0  0  0  0  0  0
   63.5072   30.8875   46.7811 H   0  0  0  0  0  0  0  0  0  0  0  0
   63.8100   32.8420   47.6520 C   0  0  0  0  0  0  0  0  0  0  0  0
   64.8408   32.9267   47.2775 H   0  0  0  0  0  0  0  0  0  0  0  0
   63.2550   33.8780   48.3970 C   0  0  0  0  0  0  0  0  0  0  0  0
   63.8459   34.7821   48.6056 H   0  0  0  0  0  0  0  0  0  0  0  0
   61.9500   33.7720   48.8800 C   0  0  0  0  0  0  0  0  0  0  0  0
   61.5173   34.5984   49.4629 H   0  0  0  0  0  0  0  0  0  0  0  0
   61.1810   32.6200   48.6300 C   0  0  0  0  0  0  0  0  0  0  0  0
   59.8230   32.5410   49.2230 C   0  0  0  0  0  0  0  0  0  0  0  0
   59.6510   32.0210   50.3600 O   0  0  0  0  0  0  0  0  0  0  0  0
   58.7050   33.0910   48.5170 N   0  0  0  0  0  0  0  0  0  0  0  0
   58.3680   32.7510   47.1360 C   0  0  0  0  0  0  0  0  0  0  0  0
   58.1869   31.6704   47.0386 H   0  0  0  0  0  0  0  0  0  0  0  0
   57.0570   33.4670   46.7230 C   0  0  0  0  0  0  0  0  0  0  0  0
   56.2034   32.8246   46.9849 H   0  0  0  0  0  0  0  0  0  0  0  0
   57.0101   34.4270   47.2580 H   0  0  0  0  0  0  0  0  0  0  0  0
   57.0140   33.7590   45.2200 C   0  0  0  0  0  0  0  0  0  0  0  0
   57.0959   32.8104   44.6692 H   0  0  0  0  0  0  0  0  0  0  0  0
   56.0627   34.2627   44.9935 H   0  0  0  0  0  0  0  0  0  0  0  0
   58.1680   34.6890   44.7910 C   0  0  0  0  0  0  0  0  0  0  0  0
   58.4234   34.4675   43.7442 H   0  0  0  0  0  0  0  0  0  0  0  0
   57.8178   35.7232   44.9240 H   0  0  0  0  0  0  0  0  0  0  0  0
   59.4400   34.5250   45.6500 C   0  0  0  0  0  0  0  0  0  0  0  0
   60.3213   34.7368   45.0268 H   0  0  0  0  0  0  0  0  0  0  0  0
   59.3779   35.2273   46.4943 H   0  0  0  0  0  0  0  0  0  0  0  0
   59.5600   33.1060   46.2150 C   0  0  0  0  0  0  0  0  0  0  0  0
   59.5893   32.3914   45.3793 H   0  0  0  0  0  0  0  0  0  0  0  0
   60.4816   33.0531   46.8132 H   0  0  0  0  0  0  0  0  0  0  0  0
   58.5910   29.9290   44.6680 C   0  0  0  0  0  0  0  0  0  0  0  0
   59.3900   30.6315   44.3884 H   0  0  0  0  0  0  0  0  0  0  0  0
   57.2730   30.1630   44.2260 C   0  0  0  0  0  0  0  0  0  0  0  0
   56.9250   31.2750   43.4390 O   0  0  0  0  0  0  0  0  0  0  0  0
   57.8300   32.0760   42.6780 C   0  0  0  0  0  0  0  0  0  0  0  0
   58.8232   31.6032   42.6845 H   0  0  0  0  0  0  0  0  0  0  0  0
   57.8800   33.0777   43.1298 H   0  0  0  0  0  0  0  0  0  0  0  0
   57.3510   32.2130   41.2370 C   0  0  0  0  0  0  0  0  0  0  0  0
   56.2934   32.5155   41.2293 H   0  0  0  0  0  0  0  0  0  0  0  0
   57.9540   32.9747   40.7210 H   0  0  0  0  0  0  0  0  0  0  0  0
   57.4600   31.2477   40.7210 H   0  0  0  0  0  0  0  0  0  0  0  0
  1  2  1  0
  2  3  1  0
  3  4  2  0
  4  5  1  0
  4  6  1  0
  6  7  1  0
  6  8  2  0
  8  9  1  0
  9 10  2  0
  9 11  1  0
 11 12  1  0
 11 13  2  0
 13 14  1  0
 13 15  1  0
 15 16  2  0
 16 17  1  0
 16 18  1  0
 18 19  1  0
 18 20  2  0
 20 21  1  0
 20 22  1  0
 22 23  1  0
 22 24  2  0
 24 25  1  0
 25 26  2  0
 25 27  1  0
 27 28  1  0
 28 29  1  0
 28 30  1  0
 30 31  1  0
 30 32  1  0
 30 33  1  0
 33 34  1  0
 33 35  1  0
 33 36  1  0
 36 37  1  0
 36 38  1  0
 36 39  1  0
 39 40  1  0
 39 41  1  0
 39 42  1  0
 42 43  1  0
 42 44  1  0
  8 45  1  0
 45 46  1  0
 45 47  2  0
 47 48  1  0
 48 49  1  0
 49 50  1  0
 49 51  1  0
 49 52  1  0
 52 53  1  0
 52 54  1  0
 52 55  1  0
 47  3  1  0
 24 15  1  0
 42 28  1  0
M  CHG  2   5  -1  27  -1
M  END
>  <UniqueID>  (15) 
14

>  <SMILES>  (15) 
CCOc1cc(C(=O)/C=C/c2ccccc2C(=O)[N-]C2CCCCC2)cc([O-])c1O

>  <Energy>  (15) 
65.00877004843078

>  <Genealogy>  (15) 
CCOc1cc(C(=O)C=Cc2ccccc2C(=O)[N-]C2CCCCC2)cc([O-])c1O (protonated)
CCOc1cc(C(=O)/C=C/c2ccccc2C(=O)[N-]C2CCCCC2)cc([O-])c1O (cis-trans isomerization)
CCOc1cc(C(=O)/C=C/c2ccccc2C(=O)[N-]C2CCCCC2)cc([O-])c1O (3D coordinates assigned)
CCOc1cc(C(=O)/C=C/c2ccccc2C(=O)[N-]C2CCCCC2)cc([O-])c1O (nonaromatic ring conformer: 65.00877004843078 kcal/mol)

>  <smiles>  (15) 
CCOc1cc(C(=O)C=Cc2ccccc2C(=O)NC2CCCCC2)cc(O)c1O

>  <score_type>  (15) 
oracle

>  <origin>  (15) 
adg

>  <m_score__min__energy>  (15) 
-14.4

>  <m_primary>  (15) 
energy

$$$$
15:0
     RDKit          3D

 28 29  0  0  0  0  0  0  0  0999 V2000
   55.8230   30.9620   44.5090 O   0  0  0  0  0  0  0  0  0  0  0  0
   57.0830   30.9560   44.4490 C   0  0  0  0  0  0  0  0  0  0  0  0
   57.8060   32.1430   43.8900 C   0  0  0  0  0  0  0  0  0  0  0  0
   57.4180   33.4350   44.6210 C   0  0  0  0  0  0  0  0  0  0  0  0
   58.2650   33.6580   45.8540 C   0  0  0  0  0  0  0  0  0  0  0  0
   58.1270   32.7930   46.9540 C   0  0  0  0  0  0  0  0  0  0  0  0
   58.8680   33.0070   48.1190 C   0  0  0  0  0  0  0  0  0  0  0  0
   59.7490   34.0880   48.2000 C   0  0  0  0  0  0  0  0  0  0  0  0
   59.8890   34.9590   47.1170 C   0  0  0  0  0  0  0  0  0  0  0  0
   59.1510   34.7510   45.9460 C   0  0  0  0  0  0  0  0  0  0  0  0
   59.2990   35.6380   44.8850 O   0  0  0  0  0  0  0  0  0  0  0  0
   57.8370   29.8510   44.9620 N   0  0  0  0  0  0  0  0  0  0  0  0
   57.2780   28.6140   45.4130 C   0  0  0  0  0  0  0  0  0  0  0  0
   58.0030   27.6310   46.0540 C   0  0  0  0  0  0  0  0  0  0  0  0
   57.1070   26.6250   46.3360 C   0  0  0  0  0  0  0  0  0  0  0  0
   55.8930   27.0600   45.8510 C   0  0  0  0  0  0  0  0  0  0  0  0
   54.7080   26.3400   45.9300 O   0  0  0  0  0  0  0  0  0  0  0  0
   55.9780   28.2780   45.2840 N   0  0  0  0  0  0  0  0  0  0  0  0
   58.8893   31.9840   43.9963 H   0  0  0  0  0  0  0  0  0  0  0  0
   57.5271   32.2491   42.8313 H   0  0  0  0  0  0  0  0  0  0  0  0
   57.5537   34.2857   43.9370 H   0  0  0  0  0  0  0  0  0  0  0  0
   56.3684   33.3467   44.9382 H   0  0  0  0  0  0  0  0  0  0  0  0
   57.4315   31.9427   46.8970 H   0  0  0  0  0  0  0  0  0  0  0  0
   58.7575   32.3233   48.9736 H   0  0  0  0  0  0  0  0  0  0  0  0
   60.3330   34.2535   49.1174 H   0  0  0  0  0  0  0  0  0  0  0  0
   60.5814   35.8111   47.1846 H   0  0  0  0  0  0  0  0  0  0  0  0
   59.0770   27.6477   46.2912 H   0  0  0  0  0  0  0  0  0  0  0  0
   57.3166   25.6717   46.8432 H   0  0  0  0  0  0  0  0  0  0  0  0
  1  2  2  0
  2  3  1  0
  3  4  1  0
  4  5  1  0
  5  6  2  0
  6  7  1  0
  7  8  2  0
  8  9  1  0
  9 10  2  0
 10 11  1  0
  2 12  1  0
 12 13  1  0
 13 14  2  0
 14 15  1  0
 15 16  2  0
 16 17  1  0
 16 18  1  0
 10  5  1  0
 18 13  1  0
  3 19  1  0
  3 20  1  0
  4 21  1  0
  4 22  1  0
  6 23  1  0
  7 24  1  0
  8 25  1  0
  9 26  1  0
 14 27  1  0
 15 28  1  0
M  CHG  4  11  -1  12  -1  17  -1  18  -1
M  END
>  <UniqueID>  (16) 
15

>  <SMILES>  (16) 
O=C(CCc1ccccc1[O-])[N-]c1ccc([O-])[n-]1

>  <Energy>  (16) 
50.35865758095554

>  <Genealogy>  (16) 
O=C(CCc1ccccc1[O-])[N-]c1ccc([O-])[n-]1 (protonated)
O=C(CCc1ccccc1[O-])[N-]c1ccc([O-])[n-]1 (3D coordinates assigned)
O=C(CCc1ccccc1[O-])[N-]c1ccc([O-])[n-]1 (optimized conformer: 50.35865758095554 kcal/mol)

>  <smiles>  (16) 
O=C(CCc1ccccc1O)Nc1ccc(O)[nH]1

>  <score_type>  (16) 
oracle

>  <origin>  (16) 
adg

>  <m_score__min__energy>  (16) 
-15.390000000000001

>  <m_primary>  (16) 
energy

$$$$
16:0
     RDKit          3D

 53 56  0  0  0  0  0  0  0  0999 V2000
   59.5030   26.2740   45.4720 O   0  0  0  0  0  0  0  0  0  0  0  0
   58.7380   27.1050   44.9100 C   0  0  0  0  0  0  0  0  0  0  0  0
   59.2210   28.4980   44.6100 C   0  0  0  0  0  0  0  0  0  0  0  0
   58.3120   29.5230   45.1490 N   0  0  0  0  0  0  0  0  0  0  0  0
   57.1610   29.8600   44.3560 C   0  0  0  0  0  0  0  0  0  0  0  0
   56.5000   28.9580   43.7750 O   0  0  0  0  0  0  0  0  0  0  0  0
   56.8270   31.2970   44.1060 C   0  0  0  0  0  0  0  0  0  0  0  0
   57.2620   32.1400   45.1720 O   0  0  0  0  0  0  0  0  0  0  0  0
   58.2130   31.7720   46.1310 C   0  0  0  0  0  0  0  0  0  0  0  0
   58.6270   32.7290   47.0580 C   0  0  0  0  0  0  0  0  0  0  0  0
   59.5200   32.3910   48.0740 C   0  0  0  0  0  0  0  0  0  0  0  0
   60.0160   33.6130   49.2430 S   0  0  0  0  0  0  0  0  0  0  0  0
   59.5270   34.9680   48.8120 O   0  0  0  0  0  0  0  0  0  0  0  0
   59.3990   33.2810   50.5740 O   0  0  0  0  0  0  0  0  0  0  0  0
   61.7570   33.6180   49.3810 N   0  0  0  0  0  0  0  0  0  0  0  0
   62.1970   32.4910   50.2190 C   0  0  0  0  0  0  0  0  0  0  0  0
   63.7020   32.6060   50.5260 C   0  0  0  0  0  0  0  0  0  0  0  0
   64.4560   33.4380   49.4760 C   0  0  0  0  0  0  0  0  0  0  0  0
   63.8710   33.2180   48.0790 C   0  0  0  0  0  0  0  0  0  0  0  0
   62.3610   33.5420   48.0330 C   0  0  0  0  0  0  0  0  0  0  0  0
   59.9560   31.0690   48.1960 C   0  0  0  0  0  0  0  0  0  0  0  0
   59.5490   30.0920   47.2790 C   0  0  0  0  0  0  0  0  0  0  0  0
   60.0360   28.2890   47.7200 Br  0  0  0  0  0  0  0  0  0  0  0  0
   58.7170   30.4530   46.1830 C   0  0  0  0  0  0  0  0  0  0  0  0
   57.4180   26.7160   44.5010 N   0  0  0  0  0  0  0  0  0  0  0  0
   56.7910   25.4820   44.8900 C   0  0  0  0  0  0  0  0  0  0  0  0
   57.3830   24.2420   44.5820 C   0  0  0  0  0  0  0  0  0  0  0  0
   56.7770   23.0480   44.9880 C   0  0  0  0  0  0  0  0  0  0  0  0
   57.5210   21.5090   44.5980 Cl  0  0  0  0  0  0  0  0  0  0  0  0
   55.5810   23.0830   45.7120 C   0  0  0  0  0  0  0  0  0  0  0  0
   54.9970   24.3090   46.0400 C   0  0  0  0  0  0  0  0  0  0  0  0
   55.5990   25.5050   45.6380 C   0  0  0  0  0  0  0  0  0  0  0  0
   55.0020   26.7160   45.9720 O   0  0  0  0  0  0  0  0  0  0  0  0
   60.2160   28.6337   45.0590 H   0  0  0  0  0  0  0  0  0  0  0  0
   59.2591   28.6173   43.5172 H   0  0  0  0  0  0  0  0  0  0  0  0
   57.3177   31.6190   43.1757 H   0  0  0  0  0  0  0  0  0  0  0  0
   55.7331   31.3833   44.0292 H   0  0  0  0  0  0  0  0  0  0  0  0
   58.2458   33.7584   46.9867 H   0  0  0  0  0  0  0  0  0  0  0  0
   61.6328   32.4994   51.1632 H   0  0  0  0  0  0  0  0  0  0  0  0
   62.0139   31.5510   49.6778 H   0  0  0  0  0  0  0  0  0  0  0  0
   63.8258   33.0832   51.5093 H   0  0  0  0  0  0  0  0  0  0  0  0
   64.1240   31.5902   50.5129 H   0  0  0  0  0  0  0  0  0  0  0  0
   64.3755   34.5038   49.7360 H   0  0  0  0  0  0  0  0  0  0  0  0
   65.5095   33.1217   49.4687 H   0  0  0  0  0  0  0  0  0  0  0  0
   64.3971   33.8696   47.3658 H   0  0  0  0  0  0  0  0  0  0  0  0
   64.0019   32.1580   47.8160 H   0  0  0  0  0  0  0  0  0  0  0  0
   62.2231   34.5102   47.5295 H   0  0  0  0  0  0  0  0  0  0  0  0
   61.8608   32.7280   47.4879 H   0  0  0  0  0  0  0  0  0  0  0  0
   60.6271   30.7924   49.0225 H   0  0  0  0  0  0  0  0  0  0  0  0
   56.9200   27.3320   43.8200 H   0  0  0  0  0  0  0  0  0  0  0  0
   58.3275   24.2119   44.0189 H   0  0  0  0  0  0  0  0  0  0  0  0
   55.0996   22.1443   46.0235 H   0  0  0  0  0  0  0  0  0  0  0  0
   54.0605   24.3334   46.6164 H   0  0  0  0  0  0  0  0  0  0  0  0
  1  2  2  0
  2  3  1  0
  3  4  1  0
  4  5  1  0
  5  6  2  0
  5  7  1  0
  7  8  1  0
  8  9  1  0
  9 10  2  0
 10 11  1  0
 11 12  1  0
 12 13  2  0
 12 14  2  0
 12 15  1  0
 15 16  1  0
 16 17  1  0
 17 18  1  0
 18 19  1  0
 19 20  1  0
 11 21  2  0
 21 22  1  0
 22 23  1  0
 22 24  2  0
  2 25  1  0
 25 26  1  0
 26 27  2  0
 27 28  1  0
 28 29  1  0
 28 30  2  0
 30 31  1  0
 31 32  2  0
 32 33  1  0
 24  4  1  0
 32 26  1  0
 24  9  1  0
 20 15  1  0
  3 34  1  0
  3 35  1  0
  7 36  1  0
  7 37  1  0
 10 38  1  0
 16 39  1  0
 16 40  1  0
 17 41  1  0
 17 42  1  0
 18 43  1  0
 18 44  1  0
 19 45  1  0
 19 46  1  0
 20 47  1  0
 20 48  1  0
 21 49  1  0
 25 50  1  0
 27 51  1  0
 30 52  1  0
 31 53  1  0
M  CHG  1  33  -1
M  END
>  <UniqueID>  (17) 
16

>  <SMILES>  (17) 
O=C(CN1C(=O)COc2cc(S(=O)(=O)N3CCCCC3)cc(Br)c21)Nc1cc(Cl)ccc1[O-]

>  <Energy>  (17) 
76.3957561785698

>  <Genealogy>  (17) 
O=C(CN1C(=O)COc2cc(S(=O)(=O)N3CCCCC3)cc(Br)c21)Nc1cc(Cl)ccc1[O-] (protonated)
O=C(CN1C(=O)COc2cc(S(=O)(=O)N3CCCCC3)cc(Br)c21)Nc1cc(Cl)ccc1[O-] (3D coordinates assigned)
O=C(CN1C(=O)COc2cc(S(=O)(=O)N3CCCCC3)cc(Br)c21)Nc1cc(Cl)ccc1[O-] (nonaromatic ring conformer: 76.3957561785698 kcal/mol)

>  <smiles>  (17) 
O=C(CN1C(=O)COc2cc(S(=O)(=O)N3CCCCC3)cc(Br)c21)Nc1cc(Cl)ccc1O

>  <score_type>  (17) 
oracle

>  <origin>  (17) 
adg

>  <m_score__min__energy>  (17) 
-14.029999999999999

>  <m_primary>  (17) 
energy

$$$$
17:0
     RDKit          3D

 88 92  0  0  1  0  0  0  0  0999 V2000
   66.2790   35.6310   52.5780 C   0  0  0  0  0  0  0  0  0  0  0  0
   64.9580   35.5710   52.0280 O   0  0  0  0  0  0  0  0  0  0  0  0
   64.3550   34.3640   51.7310 C   0  0  0  0  0  0  0  0  0  0  0  0
   64.8330   33.2450   52.3930 C   0  0  0  0  0  0  0  0  0  0  0  0
   64.2150   32.0520   52.0780 C   0  0  0  0  0  0  0  0  0  0  0  0
   64.6060   30.9970   52.6580 N   0  0  0  0  0  0  0  0  0  0  0  0
   65.4740   30.0370   52.0540 C   0  0  0  0  0  0  0  0  0  0  0  0
   66.6020   30.5760   51.4230 C   0  0  0  0  0  0  0  0  0  0  0  0
   67.4820   29.6820   50.8170 C   0  0  0  0  0  0  0  0  0  0  0  0
   67.2660   28.3180   50.8300 C   0  0  0  0  0  0  0  0  0  0  0  0
   68.2420   27.4590   50.1710 C   0  0  0  0  0  0  0  0  0  0  0  0
   68.5780   26.1080   50.7040 C   0  0  0  0  0  0  0  0  0  0  0  0
   68.7860   27.9180   49.1250 O   0  0  0  0  0  0  0  0  0  0  0  0
   66.1380   27.8260   51.4650 C   0  0  0  0  0  0  0  0  0  0  0  0
   65.2360   28.6810   52.0810 C   0  0  0  0  0  0  0  0  0  0  0  0
   63.2030   32.0130   51.1690 N   0  0  0  0  0  0  0  0  0  0  0  0
   62.7440   33.0830   50.5320 C   0  0  0  0  0  0  0  0  0  0  0  0
   61.7430   33.1620   49.5050 C   0  0  0  0  0  0  0  0  0  0  0  0
   61.0060   34.3540   49.4010 C   0  0  0  0  0  0  0  0  0  0  0  0
   60.0530   34.5720   48.4530 C   0  0  0  0  0  0  0  0  0  0  0  0
   59.7540   33.6110   47.5250 C   0  0  0  0  0  0  0  0  0  0  0  0
   60.4560   32.4290   47.5940 C   0  0  0  0  0  0  0  0  0  0  0  0
   60.1600   31.4180   46.6310 N   0  0  0  0  0  0  0  0  0  0  0  0
   59.3860   30.3100   47.1170 C   0  0  0  0  0  0  0  0  0  0  0  0
   59.0730   30.3770   48.3470 O   0  0  0  0  0  0  0  0  0  0  0  0
   58.9900   29.1980   46.2660 C   0  0  0  0  0  0  0  0  0  0  0  0
   58.9040   27.8930   46.7020 C   0  0  0  0  0  0  0  0  0  0  0  0
   58.5190   26.8920   45.8070 C   0  0  0  0  0  0  0  0  0  0  0  0
   58.2210   27.1660   44.4880 C   0  0  0  0  0  0  0  0  0  0  0  0
   57.8260   26.1550   43.5210 C   0  0  0  0  0  0  0  0  0  0  0  0
   58.1090   26.3260   42.3020 O   0  0  0  0  0  0  0  0  0  0  0  0
   57.1310   24.9660   43.8540 N   0  0  0  0  0  0  0  0  0  0  0  0
   56.7330   23.9540   42.9210 C   0  0  0  0  0  0  0  0  0  0  0  0
   55.7700   22.9900   43.5390 C   0  0  0  0  0  0  0  0  0  0  0  0
   56.3390   21.7350   43.8150 N   0  0  0  0  0  0  0  0  0  0  0  0
   57.6270   21.4260   43.3580 C   0  0  0  0  0  0  0  0  0  0  0  0
   58.7240   21.8880   44.3190 C   0  0  0  0  0  0  0  0  0  0  0  0
   58.4990   21.3360   45.7020 C   0  0  0  0  0  0  0  0  0  0  0  0
   57.5480   22.0500   46.4900 N   0  0  0  0  0  0  0  0  0  0  0  0
   57.7490   23.4650   46.4510 C   0  0  0  0  0  0  0  0  0  0  0  0
   56.1740   21.6930   46.2860 C   0  0  0  0  0  0  0  0  0  0  0  0
   55.8560   21.0650   44.9750 C   0  0  0  0  0  0  0  0  0  0  0  0
   58.3180   28.4820   44.0910 C   0  0  0  0  0  0  0  0  0  0  0  0
   58.6940   29.4890   44.9520 C   0  0  0  0  0  0  0  0  0  0  0  0
   61.4410   32.2050   48.5710 C   0  0  0  0  0  0  0  0  0  0  0  0
   62.1480   30.9120   48.4790 C   0  0  0  0  0  0  0  0  0  0  0  0
   63.3690   34.2610   50.8580 N   0  0  0  0  0  0  0  0  0  0  0  0
   66.2193   35.6283   53.6764 H   0  0  0  0  0  0  0  0  0  0  0  0
   66.8569   34.7582   52.2400 H   0  0  0  0  0  0  0  0  0  0  0  0
   66.7754   36.5526   52.2400 H   0  0  0  0  0  0  0  0  0  0  0  0
   65.6533   33.3036   53.1236 H   0  0  0  0  0  0  0  0  0  0  0  0
   66.7856   31.6604   51.4065 H   0  0  0  0  0  0  0  0  0  0  0  0
   68.3770   30.0749   50.3123 H   0  0  0  0  0  0  0  0  0  0  0  0
   68.5712   26.1355   51.8036 H   0  0  0  0  0  0  0  0  0  0  0  0
   67.8338   25.3790   50.3508 H   0  0  0  0  0  0  0  0  0  0  0  0
   69.5770   25.8125   50.3508 H   0  0  0  0  0  0  0  0  0  0  0  0
   65.9546   26.7415   51.4811 H   0  0  0  0  0  0  0  0  0  0  0  0
   64.3431   28.2814   52.5840 H   0  0  0  0  0  0  0  0  0  0  0  0
   62.7800   31.1060   51.0190 H   0  0  0  0  0  0  0  0  0  0  0  0
   61.2103   35.1558   50.1259 H   0  0  0  0  0  0  0  0  0  0  0  0
   59.5168   35.5322   48.4326 H   0  0  0  0  0  0  0  0  0  0  0  0
   58.9848   33.7765   46.7563 H   0  0  0  0  0  0  0  0  0  0  0  0
   60.4700   31.4550   45.6380 H   0  0  0  0  0  0  0  0  0  0  0  0
   59.1369   27.6418   47.7473 H   0  0  0  0  0  0  0  0  0  0  0  0
   58.4514   25.8539   46.1646 H   0  0  0  0  0  0  0  0  0  0  0  0
   56.8750   24.8110   44.8760 H   0  0  0  0  0  0  0  0  0  0  0  0
   56.2530   24.4340   42.0554 H   0  0  0  0  0  0  0  0  0  0  0  0
   57.6295   23.3970   42.6111 H   0  0  0  0  0  0  0  0  0  0  0  0
   55.4012   23.4209   44.4815 H   0  0  0  0  0  0  0  0  0  0  0  0
   54.9603   22.8277   42.8123 H   0  0  0  0  0  0  0  0  0  0  0  0
   57.7040   20.3356   43.2349 H   0  0  0  0  0  0  0  0  0  0  0  0
   57.7764   21.9559   42.4057 H   0  0  0  0  0  0  0  0  0  0  0  0
   59.6985   21.5390   43.9467 H   0  0  0  0  0  0  0  0  0  0  0  0
   58.7024   22.9865   44.3728 H   0  0  0  0  0  0  0  0  0  0  0  0
   58.1485   20.2981   45.6021 H   0  0  0  0  0  0  0  0  0  0  0  0
   59.4612   21.4240   46.2278 H   0  0  0  0  0  0  0  0  0  0  0  0
   57.8045   23.8559   47.4777 H   0  0  0  0  0  0  0  0  0  0  0  0
   58.6878   23.6876   45.9226 H   0  0  0  0  0  0  0  0  0  0  0  0
   56.9093   23.9402   45.9226 H   0  0  0  0  0  0  0  0  0  0  0  0
   55.8882   20.9848   47.0777 H   0  0  0  0  0  0  0  0  0  0  0  0
   55.6130   22.6390   46.3081 H   0  0  0  0  0  0  0  0  0  0  0  0
   56.2835   20.0515   44.9777 H   0  0  0  0  0  0  0  0  0  0  0  0
   54.7594   21.0986   44.8948 H   0  0  0  0  0  0  0  0  0  0  0  0
   58.0863   28.7380   43.0466 H   0  0  0  0  0  0  0  0  0  0  0  0
   58.7581   30.5260   44.5906 H   0  0  0  0  0  0  0  0  0  0  0  0
   62.3546   30.5342   49.4912 H   0  0  0  0  0  0  0  0  0  0  0  0
   61.5200   30.1884   47.9386 H   0  0  0  0  0  0  0  0  0  0  0  0
   63.0961   31.0501   47.9386 H   0  0  0  0  0  0  0  0  0  0  0  0
  1  2  1  0
  2  3  1  0
  3  4  2  0
  4  5  1  0
  5  6  2  0
  6  7  1  0
  7  8  2  0
  8  9  1  0
  9 10  2  0
 10 11  1  0
 11 12  1  0
 11 13  2  0
 10 14  1  0
 14 15  2  0
  5 16  1  0
 16 17  1  0
 17 18  1  0
 18 19  2  0
 19 20  1  0
 20 21  2  0
 21 22  1  0
 22 23  1  0
 23 24  1  0
 24 25  2  0
 24 26  1  0
 26 27  2  0
 27 28  1  0
 28 29  2  0
 29 30  1  0
 30 31  2  0
 30 32  1  0
 32 33  1  0
 33 34  1  0
 34 35  1  0
 35 36  1  0
 36 37  1  0
 37 38  1  0
 38 39  1  0
 39 40  1  0
 39 41  1  0
 41 42  1  0
 29 43  1  0
 43 44  2  0
 22 45  2  0
 45 46  1  0
 17 47  2  0
 47  3  1  0
 15  7  1  0
 45 18  1  0
 44 26  1  0
 42 35  1  0
  1 48  1  0
  1 49  1  0
  1 50  1  0
  4 51  1  0
  8 52  1  0
  9 53  1  0
 12 54  1  0
 12 55  1  0
 12 56  1  0
 14 57  1  0
 15 58  1  0
 16 59  1  0
 19 60  1  0
 20 61  1  0
 21 62  1  0
 23 63  1  0
 27 64  1  0
 28 65  1  0
 32 66  1  0
 33 67  1  0
 33 68  1  0
 34 69  1  0
 34 70  1  0
 36 71  1  0
 36 72  1  0
 37 73  1  0
 37 74  1  0
 38 75  1  0
 38 76  1  0
 40 77  1  0
 40 78  1  0
 40 79  1  0
 41 80  1  0
 41 81  1  0
 42 82  1  0
 42 83  1  0
 43 84  1  0
 44 85  1  0
 46 86  1  0
 46 87  1  0
 46 88  1  0
M  END
>  <smiles>  (18) 
COc1cc(=Nc2ccc(C(C)=O)cc2)[nH]c(-c2cccc(NC(=O)c3ccc(C(=O)NCCN4CCCN(C)CC4)cc3)c2C)n1

>  <score_type>  (18) 
oracle

>  <origin>  (18) 
adg

>  <m_score__min__energy>  (18) 
-7.0899999999999999

>  <m_primary>  (18) 
energy

$$$$
18:0
     RDKit          3D

 43 45  0  0  0  0  0  0  0  0999 V2000
   64.7700   32.3970   49.7630 C   0  0  0  0  0  0  0  0  0  0  0  0
   64.4200   33.5150   48.9550 O   0  0  0  0  0  0  0  0  0  0  0  0
   63.1680   33.6900   48.3480 C   0  0  0  0  0  0  0  0  0  0  0  0
   62.0660   33.9690   49.1620 C   0  0  0  0  0  0  0  0  0  0  0  0
   60.8000   34.1660   48.6030 C   0  0  0  0  0  0  0  0  0  0  0  0
   60.6140   34.0920   47.2140 C   0  0  0  0  0  0  0  0  0  0  0  0
   59.3000   34.3150   46.6700 N   0  0  0  0  0  0  0  0  0  0  0  0
   59.0330   34.7850   45.3080 C   0  0  0  0  0  0  0  0  0  0  0  0
   57.8890   33.9980   44.6570 C   0  0  0  0  0  0  0  0  0  0  0  0
   57.7520   32.6330   45.2620 C   0  0  0  0  0  0  0  0  0  0  0  0
   57.3930   32.5260   46.4650 O   0  0  0  0  0  0  0  0  0  0  0  0
   58.1150   31.4710   44.5030 N   0  0  0  0  0  0  0  0  0  0  0  0
   57.7840   30.1190   44.8750 C   0  0  0  0  0  0  0  0  0  0  0  0
   58.7590   29.2170   45.3310 C   0  0  0  0  0  0  0  0  0  0  0  0
   58.4020   27.9630   45.7090 N   0  0  0  0  0  0  0  0  0  0  0  0
   57.1070   27.5540   45.6650 C   0  0  0  0  0  0  0  0  0  0  0  0
   56.7450   26.1950   46.0930 C   0  0  0  0  0  0  0  0  0  0  0  0
   57.5160   25.3560   46.8920 C   0  0  0  0  0  0  0  0  0  0  0  0
   56.8990   24.1280   47.1590 C   0  0  0  0  0  0  0  0  0  0  0  0
   55.6440   23.9930   46.5740 C   0  0  0  0  0  0  0  0  0  0  0  0
   55.3010   25.4060   45.7270 S   0  0  0  0  0  0  0  0  0  0  0  0
   56.1440   28.4160   45.2470 N   0  0  0  0  0  0  0  0  0  0  0  0
   56.4500   29.6810   44.8580 C   0  0  0  0  0  0  0  0  0  0  0  0
   55.5260   30.4520   44.4820 O   0  0  0  0  0  0  0  0  0  0  0  0
   61.7190   33.7930   46.3960 C   0  0  0  0  0  0  0  0  0  0  0  0
   62.9840   33.5960   46.9570 C   0  0  0  0  0  0  0  0  0  0  0  0
   64.6843   32.6709   50.8249 H   0  0  0  0  0  0  0  0  0  0  0  0
   64.0910   31.5597   49.5443 H   0  0  0  0  0  0  0  0  0  0  0  0
   65.8053   32.0963   49.5443 H   0  0  0  0  0  0  0  0  0  0  0  0
   62.1964   34.0341   50.2523 H   0  0  0  0  0  0  0  0  0  0  0  0
   59.9423   34.3808   49.2574 H   0  0  0  0  0  0  0  0  0  0  0  0
   58.4720   34.1640   47.2900 H   0  0  0  0  0  0  0  0  0  0  0  0
   58.7592   35.8498   45.3444 H   0  0  0  0  0  0  0  0  0  0  0  0
   59.9416   34.6351   44.7064 H   0  0  0  0  0  0  0  0  0  0  0  0
   56.9480   34.5494   44.8004 H   0  0  0  0  0  0  0  0  0  0  0  0
   58.1134   33.8818   43.5864 H   0  0  0  0  0  0  0  0  0  0  0  0
   58.6870   31.6230   43.6420 H   0  0  0  0  0  0  0  0  0  0  0  0
   59.8132   29.5270   45.3819 H   0  0  0  0  0  0  0  0  0  0  0  0
   58.5100   25.6301   47.2751 H   0  0  0  0  0  0  0  0  0  0  0  0
   57.3633   23.3430   47.7740 H   0  0  0  0  0  0  0  0  0  0  0  0
   54.9882   23.1133   46.6518 H   0  0  0  0  0  0  0  0  0  0  0  0
   61.5864   33.7137   45.3069 H   0  0  0  0  0  0  0  0  0  0  0  0
   63.8407   33.3661   46.3065 H   0  0  0  0  0  0  0  0  0  0  0  0
  1  2  1  0
  2  3  1  0
  3  4  2  0
  4  5  1  0
  5  6  2  0
  6  7  1  0
  7  8  1  0
  8  9  1  0
  9 10  1  0
 10 11  2  0
 10 12  1  0
 12 13  1  0
 13 14  2  0
 14 15  1  0
 15 16  1  0
 16 17  1  0
 17 18  2  0
 18 19  1  0
 19 20  2  0
 20 21  1  0
 16 22  2  0
 22 23  1  0
 23 24  2  0
  6 25  1  0
 25 26  2  0
 26  3  1  0
 23 13  1  0
 21 17  1  0
  1 27  1  0
  1 28  1  0
  1 29  1  0
  4 30  1  0
  5 31  1  0
  7 32  1  0
  8 33  1  0
  8 34  1  0
  9 35  1  0
  9 36  1  0
 12 37  1  0
 14 38  1  0
 18 39  1  0
 19 40  1  0
 20 41  1  0
 25 42  1  0
 26 43  1  0
M  CHG  1  15  -1
M  END
>  <UniqueID>  (19) 
17

>  <SMILES>  (19) 
COc1ccc(NCCC(=O)Nc2c[n-]c(-c3cccs3)nc2=O)cc1

>  <Energy>  (19) 
71.83793918575715

>  <Genealogy>  (19) 
COc1ccc(NCCC(=O)Nc2c[n-]c(-c3cccs3)nc2=O)cc1 (protonated)
COc1ccc(NCCC(=O)Nc2c[n-]c(-c3cccs3)nc2=O)cc1 (3D coordinates assigned)
COc1ccc(NCCC(=O)Nc2c[n-]c(-c3cccs3)nc2=O)cc1 (optimized conformer: 71.83793918575715 kcal/mol)

>  <smiles>  (19) 
COc1ccc(NCCC(=O)Nc2c[nH]c(-c3cccs3)nc2=O)cc1

>  <score_type>  (19) 
oracle

>  <origin>  (19) 
adg

>  <m_score__min__energy>  (19) 
-9.1300000000000008

>  <m_primary>  (19) 
energy

$$$$
19:0
     RDKit          3D

 42 44  0  0  0  0  0  0  0  0999 V2000
   58.5360   29.3470   53.2480 C   0  0  0  0  0  0  0  0  0  0  0  0
   57.2920   29.9060   52.6360 C   0  0  0  0  0  0  0  0  0  0  0  0
   56.1060   29.9620   53.2690 N   0  0  0  0  0  0  0  0  0  0  0  0
   55.2990   30.5990   52.3910 C   0  0  0  0  0  0  0  0  0  0  0  0
   53.8820   30.9190   52.6730 C   0  0  0  0  0  0  0  0  0  0  0  0
   53.1260   31.6640   51.7600 C   0  0  0  0  0  0  0  0  0  0  0  0
   51.7920   31.9570   52.0320 C   0  0  0  0  0  0  0  0  0  0  0  0
   51.0420   32.6900   51.1170 O   0  0  0  0  0  0  0  0  0  0  0  0
   51.2150   31.5090   53.2270 C   0  0  0  0  0  0  0  0  0  0  0  0
   50.0040   31.7710   53.4630 O   0  0  0  0  0  0  0  0  0  0  0  0
   51.9590   30.7880   54.1260 N   0  0  0  0  0  0  0  0  0  0  0  0
   51.3420   30.3040   55.3670 C   0  0  0  0  0  0  0  0  0  0  0  0
   53.2690   30.4880   53.8620 C   0  0  0  0  0  0  0  0  0  0  0  0
   55.9200   30.9540   51.2440 N   0  0  0  0  0  0  0  0  0  0  0  0
   57.1770   30.5090   51.4020 C   0  0  0  0  0  0  0  0  0  0  0  0
   58.2790   30.7810   50.4210 C   0  0  0  0  0  0  0  0  0  0  0  0
   59.2410   29.2670   50.0740 S   0  0  0  0  0  0  0  0  0  0  0  0
   58.5760   29.0280   48.4280 C   0  0  0  0  0  0  0  0  0  0  0  0
   58.3540   27.7730   47.9570 N   0  0  0  0  0  0  0  0  0  0  0  0
   57.8300   27.5690   46.7180 C   0  0  0  0  0  0  0  0  0  0  0  0
   57.6050   26.1650   46.2310 C   0  0  0  0  0  0  0  0  0  0  0  0
   56.1690   25.7820   46.4000 C   0  0  0  0  0  0  0  0  0  0  0  0
   55.1370   26.6900   46.0140 N   0  0  0  0  0  0  0  0  0  0  0  0
   55.8690   24.6710   46.9140 O   0  0  0  0  0  0  0  0  0  0  0  0
   57.5150   28.6720   45.9130 C   0  0  0  0  0  0  0  0  0  0  0  0
   57.7490   29.9530   46.4150 C   0  0  0  0  0  0  0  0  0  0  0  0
   57.4740   30.9660   45.7200 O   0  0  0  0  0  0  0  0  0  0  0  0
   58.2730   30.1070   47.6580 N   0  0  0  0  0  0  0  0  0  0  0  0
   58.4538   29.3839   54.3443 H   0  0  0  0  0  0  0  0  0  0  0  0
   58.6667   28.3036   52.9250 H   0  0  0  0  0  0  0  0  0  0  0  0
   59.4029   29.9421   52.9250 H   0  0  0  0  0  0  0  0  0  0  0  0
   53.5866   32.0186   50.8261 H   0  0  0  0  0  0  0  0  0  0  0  0
   51.8777   30.7242   56.2310 H   0  0  0  0  0  0  0  0  0  0  0  0
   50.2886   30.6192   55.4000 H   0  0  0  0  0  0  0  0  0  0  0  0
   51.3973   29.2059   55.4000 H   0  0  0  0  0  0  0  0  0  0  0  0
   53.8490   29.9020   54.5902 H   0  0  0  0  0  0  0  0  0  0  0  0
   57.8409   31.1510   49.4823 H   0  0  0  0  0  0  0  0  0  0  0  0
   58.9552   31.5322   50.8552 H   0  0  0  0  0  0  0  0  0  0  0  0
   57.8746   26.1024   45.1664 H   0  0  0  0  0  0  0  0  0  0  0  0
   58.2308   25.4773   46.8187 H   0  0  0  0  0  0  0  0  0  0  0  0
   54.4920   27.0970   46.7280 H   0  0  0  0  0  0  0  0  0  0  0  0
   57.0924   28.5312   44.9072 H   0  0  0  0  0  0  0  0  0  0  0  0
  1  2  1  0
  2  3  1  0
  3  4  1  0
  4  5  1  0
  5  6  1  0
  6  7  2  0
  7  8  1  0
  7  9  1  0
  9 10  2  0
  9 11  1  0
 11 12  1  0
 11 13  1  0
  4 14  2  0
 14 15  1  0
 15 16  1  0
 16 17  1  0
 17 18  1  0
 18 19  2  0
 19 20  1  0
 20 21  1  0
 21 22  1  0
 22 23  1  0
 22 24  2  0
 20 25  2  0
 25 26  1  0
 26 27  2  0
 26 28  1  0
 15  2  2  0
 28 18  1  0
 13  5  2  0
  1 29  1  0
  1 30  1  0
  1 31  1  0
  6 32  1  0
 12 33  1  0
 12 34  1  0
 12 35  1  0
 13 36  1  0
 16 37  1  0
 16 38  1  0
 21 39  1  0
 21 40  1  0
 23 41  1  0
 25 42  1  0
M  CHG  4   3  -1   8  -1  23  -1  28  -1
M  END
>  <UniqueID>  (20) 
18

>  <SMILES>  (20) 
Cc1[n-]c(-c2cc([O-])c(=O)n(C)c2)nc1CSc1nc(CC([NH-])=O)cc(=O)[n-]1

>  <Energy>  (20) 
66.3295536753178

>  <Genealogy>  (20) 
Cc1[n-]c(-c2cc([O-])c(=O)n(C)c2)nc1CSc1nc(CC([NH-])=O)cc(=O)[n-]1 (protonated)
Cc1[n-]c(-c2cc([O-])c(=O)n(C)c2)nc1CSc1nc(CC([NH-])=O)cc(=O)[n-]1 (3D coordinates assigned)
Cc1[n-]c(-c2cc([O-])c(=O)n(C)c2)nc1CSc1nc(CC([NH-])=O)cc(=O)[n-]1 (optimized conformer: 66.3295536753178 kcal/mol)

>  <smiles>  (20) 
Cc1[nH]c(-c2cc(O)c(=O)n(C)c2)nc1CSc1nc(CC(N)=O)cc(=O)[nH]1

>  <score_type>  (20) 
oracle

>  <origin>  (20) 
adg

>  <m_score__min__energy>  (20) 
-17.02

>  <m_primary>  (20) 
energy

$$$$
20:0
     RDKit          3D

 45 47  0  0  0  0  0  0  0  0999 V2000
   59.1710   29.8080   44.5200 O   0  0  0  0  0  0  0  0  0  0  0  0
   57.9880   29.6620   44.9260 C   0  0  0  0  0  0  0  0  0  0  0  0
   57.0680   30.7490   44.7740 N   0  0  0  0  0  0  0  0  0  0  0  0
   57.3240   31.9300   43.9590 C   0  0  0  0  0  0  0  0  0  0  0  0
   57.9680   32.9910   44.8020 C   0  0  0  0  0  0  0  0  0  0  0  0
   58.9480   33.8310   44.2470 C   0  0  0  0  0  0  0  0  0  0  0  0
   59.5430   34.8290   45.0240 C   0  0  0  0  0  0  0  0  0  0  0  0
   59.1550   35.0050   46.3570 C   0  0  0  0  0  0  0  0  0  0  0  0
   59.7310   35.9750   47.1090 F   0  0  0  0  0  0  0  0  0  0  0  0
   58.1680   34.1830   46.9100 C   0  0  0  0  0  0  0  0  0  0  0  0
   57.5740   33.1820   46.1360 C   0  0  0  0  0  0  0  0  0  0  0  0
   57.5960   28.3880   45.5640 C   0  0  0  0  0  0  0  0  0  0  0  0
   56.2600   27.9600   45.4880 C   0  0  0  0  0  0  0  0  0  0  0  0
   55.8850   26.7160   46.0050 C   0  0  0  0  0  0  0  0  0  0  0  0
   54.5600   26.3060   45.9320 O   0  0  0  0  0  0  0  0  0  0  0  0
   56.8430   25.8800   46.5810 C   0  0  0  0  0  0  0  0  0  0  0  0
   58.1770   26.2900   46.6510 C   0  0  0  0  0  0  0  0  0  0  0  0
   58.5570   27.5480   46.1680 C   0  0  0  0  0  0  0  0  0  0  0  0
   59.9240   27.9460   46.2900 N   0  0  0  0  0  0  0  0  0  0  0  0
   60.4220   29.2410   47.3290 S   0  0  0  0  0  0  0  0  0  0  0  0
   61.4640   30.0810   46.6480 O   0  0  0  0  0  0  0  0  0  0  0  0
   61.0230   28.6430   48.5700 O   0  0  0  0  0  0  0  0  0  0  0  0
   59.0130   30.2350   47.8160 C   0  0  0  0  0  0  0  0  0  0  0  0
   59.4370   31.4810   48.5470 C   0  0  0  0  0  0  0  0  0  0  0  0
   58.7410   31.8980   49.6950 C   0  0  0  0  0  0  0  0  0  0  0  0
   59.1300   33.0560   50.3760 C   0  0  0  0  0  0  0  0  0  0  0  0
   60.2200   33.8030   49.9200 C   0  0  0  0  0  0  0  0  0  0  0  0
   60.9160   33.3980   48.7780 C   0  0  0  0  0  0  0  0  0  0  0  0
   60.5250   32.2450   48.0910 C   0  0  0  0  0  0  0  0  0  0  0  0
   57.9951   31.6640   43.1290 H   0  0  0  0  0  0  0  0  0  0  0  0
   56.3736   32.3096   43.5557 H   0  0  0  0  0  0  0  0  0  0  0  0
   59.2483   33.7027   43.1966 H   0  0  0  0  0  0  0  0  0  0  0  0
   60.3172   35.4769   44.5871 H   0  0  0  0  0  0  0  0  0  0  0  0
   57.8585   34.3244   47.9560 H   0  0  0  0  0  0  0  0  0  0  0  0
   56.7945   32.5412   46.5739 H   0  0  0  0  0  0  0  0  0  0  0  0
   55.5044   28.6074   45.0190 H   0  0  0  0  0  0  0  0  0  0  0  0
   56.5478   24.8983   46.9799 H   0  0  0  0  0  0  0  0  0  0  0  0
   58.9327   25.6207   47.0880 H   0  0  0  0  0  0  0  0  0  0  0  0
   58.4519   30.5237   46.9150 H   0  0  0  0  0  0  0  0  0  0  0  0
   58.3881   29.6353   48.4941 H   0  0  0  0  0  0  0  0  0  0  0  0
   57.8857   31.3103   50.0597 H   0  0  0  0  0  0  0  0  0  0  0  0
   58.5779   33.3791   51.2709 H   0  0  0  0  0  0  0  0  0  0  0  0
   60.5299   34.7097   50.4602 H   0  0  0  0  0  0  0  0  0  0  0  0
   61.7727   33.9872   48.4191 H   0  0  0  0  0  0  0  0  0  0  0  0
   61.0718   31.9340   47.1886 H   0  0  0  0  0  0  0  0  0  0  0  0
  1  2  2  0
  2  3  1  0
  3  4  1  0
  4  5  1  0
  5  6  2  0
  6  7  1  0
  7  8  2  0
  8  9  1  0
  8 10  1  0
 10 11  2  0
  2 12  1  0
 12 13  2  0
 13 14  1  0
 14 15  1  0
 14 16  2  0
 16 17  1  0
 17 18  2  0
 18 19  1  0
 19 20  1  0
 20 21  2  0
 20 22  2  0
 20 23  1  0
 23 24  1  0
 24 25  2  0
 25 26  1  0
 26 27  2  0
 27 28  1  0
 28 29  2  0
 11  5  1  0
 18 12  1  0
 29 24  1  0
  4 30  1  0
  4 31  1  0
  6 32  1  0
  7 33  1  0
 10 34  1  0
 11 35  1  0
 13 36  1  0
 16 37  1  0
 17 38  1  0
 23 39  1  0
 23 40  1  0
 25 41  1  0
 26 42  1  0
 27 43  1  0
 28 44  1  0
 29 45  1  0
M  CHG  3   3  -1  15  -1  19  -1
M  END
>  <UniqueID>  (21) 
19

>  <SMILES>  (21) 
O=C([N-]Cc1ccc(F)cc1)c1cc([O-])ccc1[N-]S(=O)(=O)Cc1ccccc1

>  <Energy>  (21) 
51.624478341989644

>  <Genealogy>  (21) 
O=C([N-]Cc1ccc(F)cc1)c1cc([O-])ccc1[N-]S(=O)(=O)Cc1ccccc1 (protonated)
O=C([N-]Cc1ccc(F)cc1)c1cc([O-])ccc1[N-]S(=O)(=O)Cc1ccccc1 (3D coordinates assigned)
O=C([N-]Cc1ccc(F)cc1)c1cc([O-])ccc1[N-]S(=O)(=O)Cc1ccccc1 (optimized conformer: 51.624478341989644 kcal/mol)

>  <smiles>  (21) 
O=C(NCc1ccc(F)cc1)c1cc(O)ccc1NS(=O)(=O)Cc1ccccc1

>  <score_type>  (21) 
oracle

>  <origin>  (21) 
adg

>  <m_score__min__energy>  (21) 
-13.609999999999999

>  <m_primary>  (21) 
energy

$$$$
21:0
     RDKit          3D

 47 50  0  0  0  0  0  0  0  0999 V2000
   57.7840   33.0990   44.0430 O   0  0  0  0  0  0  0  0  0  0  0  0
   57.2620   32.4910   45.0140 C   0  0  0  0  0  0  0  0  0  0  0  0
   57.0260   33.1770   46.2490 N   0  0  0  0  0  0  0  0  0  0  0  0
   57.8990   34.2200   46.7730 C   0  0  0  0  0  0  0  0  0  0  0  0
   59.2960   33.6870   46.9400 C   0  0  0  0  0  0  0  0  0  0  0  0
   60.3650   34.2960   46.2650 C   0  0  0  0  0  0  0  0  0  0  0  0
   61.6710   33.8330   46.4460 C   0  0  0  0  0  0  0  0  0  0  0  0
   61.9260   32.7500   47.3000 C   0  0  0  0  0  0  0  0  0  0  0  0
   63.3360   32.2820   47.5310 C   0  0  0  0  0  0  0  0  0  0  0  0
   63.8250   32.7660   48.8590 C   0  0  0  0  0  0  0  0  0  0  0  0
   63.3070   33.8170   49.5780 C   0  0  0  0  0  0  0  0  0  0  0  0
   64.0530   33.9970   50.6810 N   0  0  0  0  0  0  0  0  0  0  0  0
   65.0100   33.0490   50.5900 C   0  0  0  0  0  0  0  0  0  0  0  0
   64.9110   32.2810   49.4850 N   0  0  0  0  0  0  0  0  0  0  0  0
   60.8590   32.1500   47.9880 C   0  0  0  0  0  0  0  0  0  0  0  0
   59.5530   32.6140   47.8080 C   0  0  0  0  0  0  0  0  0  0  0  0
   56.8600   31.1280   44.8470 N   0  0  0  0  0  0  0  0  0  0  0  0
   57.6960   29.9740   45.0140 C   0  0  0  0  0  0  0  0  0  0  0  0
   58.9660   30.1390   45.5800 C   0  0  0  0  0  0  0  0  0  0  0  0
   59.8050   29.0390   45.7710 C   0  0  0  0  0  0  0  0  0  0  0  0
   59.3740   27.7590   45.4140 C   0  0  0  0  0  0  0  0  0  0  0  0
   58.0920   27.5690   44.8770 C   0  0  0  0  0  0  0  0  0  0  0  0
   57.6390   26.1930   44.4690 C   0  0  0  0  0  0  0  0  0  0  0  0
   57.0980   25.4550   45.6530 C   0  0  0  0  0  0  0  0  0  0  0  0
   57.6900   24.3840   46.2100 N   0  0  0  0  0  0  0  0  0  0  0  0
   56.8290   24.0280   47.1890 C   0  0  0  0  0  0  0  0  0  0  0  0
   57.0400   23.0500   47.9520 O   0  0  0  0  0  0  0  0  0  0  0  0
   55.7230   24.7980   47.2810 N   0  0  0  0  0  0  0  0  0  0  0  0
   55.9080   25.6940   46.2980 C   0  0  0  0  0  0  0  0  0  0  0  0
   55.0020   26.7010   45.9920 O   0  0  0  0  0  0  0  0  0  0  0  0
   57.2530   28.6800   44.6840 C   0  0  0  0  0  0  0  0  0  0  0  0
   57.9141   35.0681   46.0726 H   0  0  0  0  0  0  0  0  0  0  0  0
   57.5196   34.5503   47.7512 H   0  0  0  0  0  0  0  0  0  0  0  0
   60.1738   35.1428   45.5895 H   0  0  0  0  0  0  0  0  0  0  0  0
   62.5029   34.3202   45.9163 H   0  0  0  0  0  0  0  0  0  0  0  0
   63.3625   31.1825   47.5118 H   0  0  0  0  0  0  0  0  0  0  0  0
   63.9843   32.6850   46.7390 H   0  0  0  0  0  0  0  0  0  0  0  0
   62.4263   34.4129   49.2965 H   0  0  0  0  0  0  0  0  0  0  0  0
   65.7973   32.9151   51.3465 H   0  0  0  0  0  0  0  0  0  0  0  0
   61.0520   31.3105   48.6721 H   0  0  0  0  0  0  0  0  0  0  0  0
   58.7228   32.1363   48.3489 H   0  0  0  0  0  0  0  0  0  0  0  0
   59.3054   31.1425   45.8764 H   0  0  0  0  0  0  0  0  0  0  0  0
   60.8066   29.1807   46.2031 H   0  0  0  0  0  0  0  0  0  0  0  0
   60.0425   26.8968   45.5545 H   0  0  0  0  0  0  0  0  0  0  0  0
   56.8524   26.2810   43.7052 H   0  0  0  0  0  0  0  0  0  0  0  0
   58.4973   25.6385   44.0619 H   0  0  0  0  0  0  0  0  0  0  0  0
   56.2431   28.5368   44.2721 H   0  0  0  0  0  0  0  0  0  0  0  0
  1  2  2  0
  2  3  1  0
  3  4  1  0
  4  5  1  0
  5  6  2  0
  6  7  1  0
  7  8  2  0
  8  9  1  0
  9 10  1  0
 10 11  2  0
 11 12  1  0
 12 13  1  0
 13 14  2  0
  8 15  1  0
 15 16  2  0
  2 17  1  0
 17 18  1  0
 18 19  2  0
 19 20  1  0
 20 21  2  0
 21 22  1  0
 22 23  1  0
 23 24  1  0
 24 25  1  0
 25 26  1  0
 26 27  2  0
 26 28  1  0
 28 29  1  0
 29 30  1  0
 22 31  2  0
 16  5  1  0
 31 18  1  0
 14 10  1  0
 29 24  2  0
  4 32  1  0
  4 33  1  0
  6 34  1  0
  7 35  1  0
  9 36  1  0
  9 37  1  0
 11 38  1  0
 13 39  1  0
 15 40  1  0
 16 41  1  0
 19 42  1  0
 20 43  1  0
 21 44  1  0
 23 45  1  0
 23 46  1  0
 31 47  1  0
M  CHG  6   3  -1  12  -1  17  -1  25  -1  28  -1  30  -1
M  END
>  <UniqueID>  (22) 
20

>  <SMILES>  (22) 
O=C([N-]Cc1ccc(Cc2c[n-]cn2)cc1)[N-]c1cccc(Cc2[n-]c(=O)[n-]c2[O-])c1

>  <Energy>  (22) 
104.08392756733566

>  <Genealogy>  (22) 
O=C([N-]Cc1ccc(Cc2c[n-]cn2)cc1)[N-]c1cccc(Cc2[n-]c(=O)[n-]c2[O-])c1 (protonated)
O=C([N-]Cc1ccc(Cc2c[n-]cn2)cc1)[N-]c1cccc(Cc2[n-]c(=O)[n-]c2[O-])c1 (3D coordinates assigned)
O=C([N-]Cc1ccc(Cc2c[n-]cn2)cc1)[N-]c1cccc(Cc2[n-]c(=O)[n-]c2[O-])c1 (optimized conformer: 104.08392756733566 kcal/mol)

>  <smiles>  (22) 
O=C(NCc1ccc(Cc2c[nH]cn2)cc1)Nc1cccc(Cc2[nH]c(=O)[nH]c2O)c1

>  <score_type>  (22) 
oracle

>  <origin>  (22) 
adg

>  <m_score__min__energy>  (22) 
-21.600000000000001

>  <m_primary>  (22) 
energy

$$$$
22:0
     RDKit          3D

 61 64  0  0  0  0  0  0  0  0999 V2000
   58.3140   32.6500   49.5640 C   0  0  0  0  0  0  0  0  0  0  0  0
   59.2690   33.2500   48.5810 C   0  0  0  0  0  0  0  0  0  0  0  0
   58.7950   34.0290   47.5180 C   0  0  0  0  0  0  0  0  0  0  0  0
   59.7040   34.5560   46.5890 C   0  0  0  0  0  0  0  0  0  0  0  0
   59.2190   35.3660   45.4140 C   0  0  0  0  0  0  0  0  0  0  0  0
   58.3360   34.5600   44.5430 N   0  0  0  0  0  0  0  0  0  0  0  0
   58.9180   33.2220   44.2730 C   0  0  0  0  0  0  0  0  0  0  0  0
   57.8400   32.2170   43.8420 C   0  0  0  0  0  0  0  0  0  0  0  0
   56.8160   32.0190   44.8840 N   0  0  0  0  0  0  0  0  0  0  0  0
   56.6590   33.1710   45.7910 C   0  0  0  0  0  0  0  0  0  0  0  0
   56.9510   34.5000   45.0780 C   0  0  0  0  0  0  0  0  0  0  0  0
   61.0700   34.2810   46.7340 C   0  0  0  0  0  0  0  0  0  0  0  0
   61.5070   33.4940   47.8080 C   0  0  0  0  0  0  0  0  0  0  0  0
   62.9560   33.1520   47.9580 C   0  0  0  0  0  0  0  0  0  0  0  0
   63.1020   31.7040   48.0590 N   0  0  0  0  0  0  0  0  0  0  0  0
   62.3320   30.8660   48.9290 C   0  0  0  0  0  0  0  0  0  0  0  0
   62.4880   30.9790   50.1730 O   0  0  0  0  0  0  0  0  0  0  0  0
   61.3370   29.9050   48.4140 C   0  0  0  0  0  0  0  0  0  0  0  0
   60.6970   29.0230   49.2960 C   0  0  0  0  0  0  0  0  0  0  0  0
   59.7540   28.1080   48.8200 C   0  0  0  0  0  0  0  0  0  0  0  0
   59.4470   28.0600   47.4510 C   0  0  0  0  0  0  0  0  0  0  0  0
   58.4520   27.0950   46.9430 C   0  0  0  0  0  0  0  0  0  0  0  0
   58.5890   25.7440   47.3000 C   0  0  0  0  0  0  0  0  0  0  0  0
   57.6590   24.7990   46.8640 C   0  0  0  0  0  0  0  0  0  0  0  0
   56.5860   25.1910   46.0650 C   0  0  0  0  0  0  0  0  0  0  0  0
   56.4440   26.5290   45.6900 C   0  0  0  0  0  0  0  0  0  0  0  0
   57.3740   27.4930   46.1120 C   0  0  0  0  0  0  0  0  0  0  0  0
   57.1790   29.1660   45.5600 S   0  0  0  0  0  0  0  0  0  0  0  0
   55.5380   29.4600   45.0990 N   0  0  0  0  0  0  0  0  0  0  0  0
   58.0850   29.4210   44.3910 O   0  0  0  0  0  0  0  0  0  0  0  0
   57.5330   30.1160   46.6690 O   0  0  0  0  0  0  0  0  0  0  0  0
   60.1170   28.9130   46.5630 C   0  0  0  0  0  0  0  0  0  0  0  0
   61.0570   29.8310   47.0410 C   0  0  0  0  0  0  0  0  0  0  0  0
   60.6000   32.9930   48.6900 N   0  0  0  0  0  0  0  0  0  0  0  0
   58.6569   32.8655   50.5867 H   0  0  0  0  0  0  0  0  0  0  0  0
   57.3136   33.0822   49.4140 H   0  0  0  0  0  0  0  0  0  0  0  0
   58.2693   31.5612   49.4140 H   0  0  0  0  0  0  0  0  0  0  0  0
   57.7179   34.2260   47.4125 H   0  0  0  0  0  0  0  0  0  0  0  0
   58.6602   36.2381   45.7844 H   0  0  0  0  0  0  0  0  0  0  0  0
   60.0913   35.6884   44.8266 H   0  0  0  0  0  0  0  0  0  0  0  0
   59.6644   33.3121   43.4700 H   0  0  0  0  0  0  0  0  0  0  0  0
   59.3828   32.8540   45.1996 H   0  0  0  0  0  0  0  0  0  0  0  0
   57.3506   32.5912   42.9307 H   0  0  0  0  0  0  0  0  0  0  0  0
   58.3319   31.2495   43.6632 H   0  0  0  0  0  0  0  0  0  0  0  0
   57.0830   31.1880   45.4630 H   0  0  0  0  0  0  0  0  0  0  0  0
   55.6262   33.1888   46.1691 H   0  0  0  0  0  0  0  0  0  0  0  0
   57.3788   33.0589   46.6152 H   0  0  0  0  0  0  0  0  0  0  0  0
   56.2440   34.6166   44.2434 H   0  0  0  0  0  0  0  0  0  0  0  0
   56.8393   35.3091   45.8148 H   0  0  0  0  0  0  0  0  0  0  0  0
   61.7949   34.6803   46.0094 H   0  0  0  0  0  0  0  0  0  0  0  0
   63.5123   33.5171   47.0821 H   0  0  0  0  0  0  0  0  0  0  0  0
   63.3543   33.6267   48.8669 H   0  0  0  0  0  0  0  0  0  0  0  0
   60.9385   29.0513   50.3688 H   0  0  0  0  0  0  0  0  0  0  0  0
   59.2513   27.4240   49.5195 H   0  0  0  0  0  0  0  0  0  0  0  0
   59.4353   25.4281   47.9277 H   0  0  0  0  0  0  0  0  0  0  0  0
   57.7729   23.7433   47.1513 H   0  0  0  0  0  0  0  0  0  0  0  0
   55.8501   24.4455   45.7294 H   0  0  0  0  0  0  0  0  0  0  0  0
   55.5956   26.8305   45.0581 H   0  0  0  0  0  0  0  0  0  0  0  0
   55.1510   28.5530   44.7550 H   0  0  0  0  0  0  0  0  0  0  0  0
   59.9023   28.8599   45.4855 H   0  0  0  0  0  0  0  0  0  0  0  0
   61.5788   30.4974   46.3384 H   0  0  0  0  0  0  0  0  0  0  0  0
  1  2  1  0
  2  3  2  0
  3  4  1  0
  4  5  1  0
  5  6  1  0
  6  7  1  0
  7  8  1  0
  8  9  1  0
  9 10  1  0
 10 11  1  0
  4 12  2  0
 12 13  1  0
 13 14  1  0
 14 15  1  0
 15 16  1  0
 16 17  2  0
 16 18  1  0
 18 19  2  0
 19 20  1  0
 20 21  2  0
 21 22  1  0
 22 23  2  0
 23 24  1  0
 24 25  2  0
 25 26  1  0
 26 27  2  0
 27 28  1  0
 28 29  1  0
 28 30  2  0
 28 31  2  0
 21 32  1  0
 32 33  2  0
 13 34  2  0
 34  2  1  0
 11  6  1  0
 33 18  1  0
 27 22  1  0
  1 35  1  0
  1 36  1  0
  1 37  1  0
  3 38  1  0
  5 39  1  0
  5 40  1  0
  7 41  1  0
  7 42  1  0
  8 43  1  0
  8 44  1  0
  9 45  1  0
 10 46  1  0
 10 47  1  0
 11 48  1  0
 11 49  1  0
 12 50  1  0
 14 51  1  0
 14 52  1  0
 19 53  1  0
 20 54  1  0
 23 55  1  0
 24 56  1  0
 25 57  1  0
 26 58  1  0
 29 59  1  0
 32 60  1  0
 33 61  1  0
M  CHG  2  15  -1  29  -1
M  END
>  <UniqueID>  (23) 
21

>  <SMILES>  (23) 
Cc1cc(CN2CCNCC2)cc(C[N-]C(=O)c2ccc(-c3ccccc3S([NH-])(=O)=O)cc2)n1

>  <Energy>  (23) 
84.35786484267261

>  <Genealogy>  (23) 
Cc1cc(CN2CCNCC2)cc(C[N-]C(=O)c2ccc(-c3ccccc3S([NH-])(=O)=O)cc2)n1 (protonated)
Cc1cc(CN2CCNCC2)cc(C[N-]C(=O)c2ccc(-c3ccccc3S([NH-])(=O)=O)cc2)n1 (3D coordinates assigned)
Cc1cc(CN2CCNCC2)cc(C[N-]C(=O)c2ccc(-c3ccccc3S([NH-])(=O)=O)cc2)n1 (nonaromatic ring conformer: 84.35786484267261 kcal/mol)

>  <smiles>  (23) 
Cc1cc(CN2CCNCC2)cc(CNC(=O)c2ccc(-c3ccccc3S(N)(=O)=O)cc2)n1

>  <score_type>  (23) 
oracle

>  <origin>  (23) 
adg

>  <m_score__min__energy>  (23) 
-12.890000000000001

>  <m_primary>  (23) 
energy

$$$$
23:0
     RDKit          3D

 54 57  0  0  0  0  0  0  0  0999 V2000
   55.8970   19.6650   44.1290 C   0  0  0  0  0  0  0  0  0  0  0  0
   56.1040   20.8590   43.3820 O   0  0  0  0  0  0  0  0  0  0  0  0
   56.4820   22.0910   43.9390 C   0  0  0  0  0  0  0  0  0  0  0  0
   56.5100   23.2110   43.1090 C   0  0  0  0  0  0  0  0  0  0  0  0
   56.8770   24.4600   43.6120 C   0  0  0  0  0  0  0  0  0  0  0  0
   57.2290   24.6150   44.9630 C   0  0  0  0  0  0  0  0  0  0  0  0
   57.6170   25.9570   45.4640 C   0  0  0  0  0  0  0  0  0  0  0  0
   57.5310   27.0880   44.7100 N   0  0  0  0  0  0  0  0  0  0  0  0
   57.9790   28.0290   45.5580 C   0  0  0  0  0  0  0  0  0  0  0  0
   58.1020   29.3970   45.3290 C   0  0  0  0  0  0  0  0  0  0  0  0
   58.5930   30.2040   46.3860 C   0  0  0  0  0  0  0  0  0  0  0  0
   58.6900   31.6330   46.2550 N   0  0  0  0  0  0  0  0  0  0  0  0
   57.7340   32.4510   45.5640 C   0  0  0  0  0  0  0  0  0  0  0  0
   56.9940   31.9590   44.6690 O   0  0  0  0  0  0  0  0  0  0  0  0
   57.6040   33.9040   45.9090 C   0  0  0  0  0  0  0  0  0  0  0  0
   59.0880   34.8290   45.3800 S   0  0  0  0  0  0  0  0  0  0  0  0
   60.1540   34.1490   46.6480 C   0  0  0  0  0  0  0  0  0  0  0  0
   59.6730   33.9410   47.9010 N   0  0  0  0  0  0  0  0  0  0  0  0
   60.4710   33.4470   48.8850 C   0  0  0  0  0  0  0  0  0  0  0  0
   59.9220   33.2740   50.2650 C   0  0  0  0  0  0  0  0  0  0  0  0
   61.8160   33.1740   48.6120 C   0  0  0  0  0  0  0  0  0  0  0  0
   62.2910   33.3820   47.3140 C   0  0  0  0  0  0  0  0  0  0  0  0
   63.7260   33.1210   46.9820 C   0  0  0  0  0  0  0  0  0  0  0  0
   61.4510   33.8670   46.3610 N   0  0  0  0  0  0  0  0  0  0  0  0
   58.9180   29.6030   47.6310 C   0  0  0  0  0  0  0  0  0  0  0  0
   58.7810   28.2150   47.8190 C   0  0  0  0  0  0  0  0  0  0  0  0
   58.3040   27.4670   46.7500 C   0  0  0  0  0  0  0  0  0  0  0  0
   58.0790   26.1830   46.6850 O   0  0  0  0  0  0  0  0  0  0  0  0
   57.2080   23.4880   45.8160 C   0  0  0  0  0  0  0  0  0  0  0  0
   57.5660   23.6400   47.1670 O   0  0  0  0  0  0  0  0  0  0  0  0
   56.7290   23.3200   48.2730 C   0  0  0  0  0  0  0  0  0  0  0  0
   56.8310   22.2320   45.2960 C   0  0  0  0  0  0  0  0  0  0  0  0
   55.9366   19.8937   45.2042 H   0  0  0  0  0  0  0  0  0  0  0  0
   54.9123   19.2428   43.8800 H   0  0  0  0  0  0  0  0  0  0  0  0
   56.6821   18.9359   43.8800 H   0  0  0  0  0  0  0  0  0  0  0  0
   56.2402   23.1092   42.0475 H   0  0  0  0  0  0  0  0  0  0  0  0
   56.8908   25.3330   42.9429 H   0  0  0  0  0  0  0  0  0  0  0  0
   57.8270   29.8373   44.3592 H   0  0  0  0  0  0  0  0  0  0  0  0
   59.5060   32.1090   46.7010 H   0  0  0  0  0  0  0  0  0  0  0  0
   56.7204   34.3180   45.4011 H   0  0  0  0  0  0  0  0  0  0  0  0
   57.4976   34.0002   46.9996 H   0  0  0  0  0  0  0  0  0  0  0  0
   60.7003   33.5193   51.0026 H   0  0  0  0  0  0  0  0  0  0  0  0
   59.0610   33.9444   50.4038 H   0  0  0  0  0  0  0  0  0  0  0  0
   59.6009   32.2311   50.4038 H   0  0  0  0  0  0  0  0  0  0  0  0
   62.4854   32.8035   49.4023 H   0  0  0  0  0  0  0  0  0  0  0  0
   64.3042   33.0158   47.9118 H   0  0  0  0  0  0  0  0  0  0  0  0
   63.8038   32.1940   46.3950 H   0  0  0  0  0  0  0  0  0  0  0  0
   64.1252   33.9613   46.3950 H   0  0  0  0  0  0  0  0  0  0  0  0
   59.2813   30.2301   48.4585 H   0  0  0  0  0  0  0  0  0  0  0  0
   59.0418   27.7403   48.7764 H   0  0  0  0  0  0  0  0  0  0  0  0
   57.2661   23.5253   49.2108 H   0  0  0  0  0  0  0  0  0  0  0  0
   55.8163   23.9326   48.2315 H   0  0  0  0  0  0  0  0  0  0  0  0
   56.4578   22.2548   48.2315 H   0  0  0  0  0  0  0  0  0  0  0  0
   56.8094   21.3534   45.9575 H   0  0  0  0  0  0  0  0  0  0  0  0
  1  2  1  0
  2  3  1  0
  3  4  2  0
  4  5  1  0
  5  6  2  0
  6  7  1  0
  7  8  2  0
  8  9  1  0
  9 10  2  0
 10 11  1  0
 11 12  1  0
 12 13  1  0
 13 14  2  0
 13 15  1  0
 15 16  1  0
 16 17  1  0
 17 18  2  0
 18 19  1  0
 19 20  1  0
 19 21  2  0
 21 22  1  0
 22 23  1  0
 22 24  2  0
 11 25  2  0
 25 26  1  0
 26 27  2  0
 27 28  1  0
  6 29  1  0
 29 30  1  0
 30 31  1  0
 29 32  2  0
 32  3  1  0
 28  7  1  0
 27  9  1  0
 24 17  1  0
  1 33  1  0
  1 34  1  0
  1 35  1  0
  4 36  1  0
  5 37  1  0
 10 38  1  0
 12 39  1  0
 15 40  1  0
 15 41  1  0
 20 42  1  0
 20 43  1  0
 20 44  1  0
 21 45  1  0
 23 46  1  0
 23 47  1  0
 23 48  1  0
 25 49  1  0
 26 50  1  0
 31 51  1  0
 31 52  1  0
 31 53  1  0
 32 54  1  0
M  END
>  <UniqueID>  (24) 
22

>  <SMILES>  (24) 
COc1ccc(-c2nc3cc(NC(=O)CSc4nc(C)cc(C)n4)ccc3o2)c(OC)c1

>  <Energy>  (24) 
89.33374181289977

>  <Genealogy>  (24) 
COc1ccc(-c2nc3cc(NC(=O)CSc4nc(C)cc(C)n4)ccc3o2)c(OC)c1 (3D coordinates assigned)
COc1ccc(-c2nc3cc(NC(=O)CSc4nc(C)cc(C)n4)ccc3o2)c(OC)c1 (optimized conformer: 89.33374181289977 kcal/mol)

>  <smiles>  (24) 
COc1ccc(-c2nc3cc(NC(=O)CSc4nc(C)cc(C)n4)ccc3o2)c(OC)c1

>  <score_type>  (24) 
oracle

>  <origin>  (24) 
adg

>  <m_score__min__energy>  (24) 
-8.4600000000000009

>  <m_primary>  (24) 
energy

$$$$
24:0
     RDKit          3D

 51 53  0  0  0  0  0  0  0  0999 V2000
   59.1610   29.8030   48.2430 C   0  0  0  0  0  0  0  0  0  0  0  0
   60.3740   29.3040   47.4630 C   0  0  0  0  0  0  0  0  0  0  0  0
   60.4720   29.9910   46.0940 C   0  0  0  0  0  0  0  0  0  0  0  0
   60.7360   28.9960   44.9600 C   0  0  0  0  0  0  0  0  0  0  0  0
   59.4830   28.3970   44.4980 N   0  0  0  0  0  0  0  0  0  0  0  0
   58.7170   27.6030   45.1910 C   0  0  0  0  0  0  0  0  0  0  0  0
   59.2390   26.5180   45.8340 N   0  0  0  0  0  0  0  0  0  0  0  0
   58.4690   25.6670   46.5580 C   0  0  0  0  0  0  0  0  0  0  0  0
   57.0950   25.8870   46.6640 C   0  0  0  0  0  0  0  0  0  0  0  0
   56.5300   26.9910   46.0270 C   0  0  0  0  0  0  0  0  0  0  0  0
   57.3360   27.8650   45.2840 C   0  0  0  0  0  0  0  0  0  0  0  0
   56.6370   29.3080   44.5450 S   0  0  0  0  0  0  0  0  0  0  0  0
   55.1560   29.3660   44.8050 O   0  0  0  0  0  0  0  0  0  0  0  0
   56.8880   29.2790   43.0640 O   0  0  0  0  0  0  0  0  0  0  0  0
   57.3950   30.6940   45.2510 N   0  0  0  0  0  0  0  0  0  0  0  0
   57.7130   31.8760   44.5120 C   0  0  0  0  0  0  0  0  0  0  0  0
   57.3850   31.9600   43.2970 O   0  0  0  0  0  0  0  0  0  0  0  0
   58.4300   32.9900   45.1730 C   0  0  0  0  0  0  0  0  0  0  0  0
   58.5420   34.2420   44.5400 C   0  0  0  0  0  0  0  0  0  0  0  0
   59.2180   35.2920   45.1640 C   0  0  0  0  0  0  0  0  0  0  0  0
   59.7900   35.1100   46.4240 C   0  0  0  0  0  0  0  0  0  0  0  0
   59.6760   33.8710   47.0790 C   0  0  0  0  0  0  0  0  0  0  0  0
   60.2560   33.6410   48.3360 O   0  0  0  0  0  0  0  0  0  0  0  0
   61.6200   33.4200   48.5750 C   0  0  0  0  0  0  0  0  0  0  0  0
   62.4640   32.8560   47.5990 C   0  0  0  0  0  0  0  0  0  0  0  0
   63.8230   32.6690   47.8680 C   0  0  0  0  0  0  0  0  0  0  0  0
   64.3510   33.0480   49.1050 C   0  0  0  0  0  0  0  0  0  0  0  0
   63.5220   33.6300   50.0690 C   0  0  0  0  0  0  0  0  0  0  0  0
   62.1620   33.8200   49.8010 C   0  0  0  0  0  0  0  0  0  0  0  0
   59.0080   32.8160   46.4450 C   0  0  0  0  0  0  0  0  0  0  0  0
   59.3598   29.7212   49.3218 H   0  0  0  0  0  0  0  0  0  0  0  0
   58.9661   30.8543   47.9847 H   0  0  0  0  0  0  0  0  0  0  0  0
   58.2827   29.1931   47.9847 H   0  0  0  0  0  0  0  0  0  0  0  0
   61.2855   29.5203   48.0395 H   0  0  0  0  0  0  0  0  0  0  0  0
   60.2651   28.2211   47.3033 H   0  0  0  0  0  0  0  0  0  0  0  0
   59.5254   30.5137   45.8923 H   0  0  0  0  0  0  0  0  0  0  0  0
   61.3192   30.6917   46.1299 H   0  0  0  0  0  0  0  0  0  0  0  0
   61.2158   29.5223   44.1217 H   0  0  0  0  0  0  0  0  0  0  0  0
   61.3937   28.1978   45.3346 H   0  0  0  0  0  0  0  0  0  0  0  0
   58.9280   24.8034   47.0615 H   0  0  0  0  0  0  0  0  0  0  0  0
   56.4646   25.1968   47.2439 H   0  0  0  0  0  0  0  0  0  0  0  0
   55.4488   27.1768   46.1076 H   0  0  0  0  0  0  0  0  0  0  0  0
   58.0939   34.3942   43.5470 H   0  0  0  0  0  0  0  0  0  0  0  0
   59.3002   36.2666   44.6606 H   0  0  0  0  0  0  0  0  0  0  0  0
   60.3312   35.9377   46.9057 H   0  0  0  0  0  0  0  0  0  0  0  0
   62.0527   32.5617   46.6221 H   0  0  0  0  0  0  0  0  0  0  0  0
   64.4776   32.2229   47.1048 H   0  0  0  0  0  0  0  0  0  0  0  0
   65.4179   32.8886   49.3202 H   0  0  0  0  0  0  0  0  0  0  0  0
   63.9394   33.9387   51.0388 H   0  0  0  0  0  0  0  0  0  0  0  0
   61.5153   34.2866   50.5587 H   0  0  0  0  0  0  0  0  0  0  0  0
   58.9340   31.8399   46.9467 H   0  0  0  0  0  0  0  0  0  0  0  0
  1  2  1  0
  2  3  1  0
  3  4  1  0
  4  5  1  0
  5  6  2  3
  6  7  1  0
  7  8  1  0
  8  9  2  0
  9 10  1  0
 10 11  2  0
 11 12  1  0
 12 13  2  0
 12 14  2  0
 12 15  1  0
 15 16  1  0
 16 17  2  0
 16 18  1  0
 18 19  2  0
 19 20  1  0
 20 21  2  0
 21 22  1  0
 22 23  1  0
 23 24  1  0
 24 25  2  0
 25 26  1  0
 26 27  2  0
 27 28  1  0
 28 29  2  0
 22 30  2  0
 11  6  1  0
 30 18  1  0
 29 24  1  0
  1 31  1  0
  1 32  1  0
  1 33  1  0
  2 34  1  0
  2 35  1  0
  3 36  1  0
  3 37  1  0
  4 38  1  0
  4 39  1  0
  8 40  1  0
  9 41  1  0
 10 42  1  0
 19 43  1  0
 20 44  1  0
 21 45  1  0
 25 46  1  0
 26 47  1  0
 27 48  1  0
 28 49  1  0
 29 50  1  0
 30 51  1  0
M  CHG  2   7  -1  15  -1
M  END
>  <UniqueID>  (25) 
23

>  <SMILES>  (25) 
CCCCN=c1[n-]cccc1S(=O)(=O)[N-]C(=O)c1cccc(Oc2ccccc2)c1

>  <Energy>  (25) 
57.64922215776721

>  <Genealogy>  (25) 
CCCCN=c1[n-]cccc1S(=O)(=O)[N-]C(=O)c1cccc(Oc2ccccc2)c1 (protonated)
CCCCN=c1[n-]cccc1S(=O)(=O)[N-]C(=O)c1cccc(Oc2ccccc2)c1 (3D coordinates assigned)
CCCCN=c1[n-]cccc1S(=O)(=O)[N-]C(=O)c1cccc(Oc2ccccc2)c1 (optimized conformer: 57.64922215776721 kcal/mol)

>  <smiles>  (25) 
CCCCN=c1[nH]cccc1S(=O)(=O)NC(=O)c1cccc(Oc2ccccc2)c1

>  <score_type>  (25) 
oracle

>  <origin>  (25) 
adg

>  <m_score__min__energy>  (25) 
-11.82

>  <m_primary>  (25) 
energy

$$$$
25:0
     RDKit          3D

 31 32  0  0  0  0  0  0  0  0999 V2000
   60.7680   29.2340   48.3720 C   0  0  0  0  0  0  0  0  0  0  0  0
   59.6330   28.8580   47.4730 C   0  0  0  0  0  0  0  0  0  0  0  0
   59.2060   27.2770   47.1070 S   0  0  0  0  0  0  0  0  0  0  0  0
   57.9040   27.6650   46.1130 C   0  0  0  0  0  0  0  0  0  0  0  0
   57.1460   26.7160   45.3460 N   0  0  0  0  0  0  0  0  0  0  0  0
   57.3430   25.2960   45.4150 C   0  0  0  0  0  0  0  0  0  0  0  0
   58.0680   24.7900   46.3140 O   0  0  0  0  0  0  0  0  0  0  0  0
   56.6140   24.3950   44.4680 C   0  0  0  0  0  0  0  0  0  0  0  0
   55.2380   24.1180   44.9880 C   0  0  0  0  0  0  0  0  0  0  0  0
   54.5860   22.9530   44.8190 N   0  0  0  0  0  0  0  0  0  0  0  0
   53.3780   23.1910   45.3750 C   0  0  0  0  0  0  0  0  0  0  0  0
   52.4690   22.3210   45.4180 O   0  0  0  0  0  0  0  0  0  0  0  0
   53.2180   24.4350   45.8750 N   0  0  0  0  0  0  0  0  0  0  0  0
   54.4030   25.0110   45.6140 C   0  0  0  0  0  0  0  0  0  0  0  0
   54.7100   26.3270   45.9330 O   0  0  0  0  0  0  0  0  0  0  0  0
   57.7870   29.0590   46.0330 C   0  0  0  0  0  0  0  0  0  0  0  0
   56.7460   29.7420   45.2300 C   0  0  0  0  0  0  0  0  0  0  0  0
   55.5430   29.0650   44.8760 N   0  0  0  0  0  0  0  0  0  0  0  0
   56.9130   30.9340   44.8590 O   0  0  0  0  0  0  0  0  0  0  0  0
   58.7560   29.7320   46.8200 C   0  0  0  0  0  0  0  0  0  0  0  0
   58.8430   31.2300   46.9450 C   0  0  0  0  0  0  0  0  0  0  0  0
   60.4546   29.1302   49.4213 H   0  0  0  0  0  0  0  0  0  0  0  0
   61.6245   28.5716   48.1779 H   0  0  0  0  0  0  0  0  0  0  0  0
   61.0596   30.2767   48.1779 H   0  0  0  0  0  0  0  0  0  0  0  0
   56.4180   27.0740   44.6880 H   0  0  0  0  0  0  0  0  0  0  0  0
   56.5413   24.8816   43.4841 H   0  0  0  0  0  0  0  0  0  0  0  0
   57.1638   23.4469   44.3734 H   0  0  0  0  0  0  0  0  0  0  0  0
   55.4990   28.0210   44.8530 H   0  0  0  0  0  0  0  0  0  0  0  0
   58.8592   31.5088   48.0090 H   0  0  0  0  0  0  0  0  0  0  0  0
   59.7633   31.5857   46.4587 H   0  0  0  0  0  0  0  0  0  0  0  0
   57.9700   31.6898   46.4587 H   0  0  0  0  0  0  0  0  0  0  0  0
  1  2  1  0
  2  3  1  0
  3  4  1  0
  4  5  1  0
  5  6  1  0
  6  7  2  0
  6  8  1  0
  8  9  1  0
  9 10  1  0
 10 11  1  0
 11 12  2  0
 11 13  1  0
 13 14  1  0
 14 15  1  0
  4 16  2  0
 16 17  1  0
 17 18  1  0
 17 19  2  0
 16 20  1  0
 20 21  1  0
 20  2  2  0
 14  9  2  0
  1 22  1  0
  1 23  1  0
  1 24  1  0
  5 25  1  0
  8 26  1  0
  8 27  1  0
 18 28  1  0
 21 29  1  0
 21 30  1  0
 21 31  1  0
M  CHG  4  10  -1  13  -1  15  -1  18  -1
M  END
>  <UniqueID>  (26) 
24

>  <SMILES>  (26) 
Cc1sc(NC(=O)Cc2[n-]c(=O)[n-]c2[O-])c(C([NH-])=O)c1C

>  <Energy>  (26) 
88.21752701499098

>  <Genealogy>  (26) 
Cc1sc(NC(=O)Cc2[n-]c(=O)[n-]c2[O-])c(C([NH-])=O)c1C (protonated)
Cc1sc(NC(=O)Cc2[n-]c(=O)[n-]c2[O-])c(C([NH-])=O)c1C (3D coordinates assigned)
Cc1sc(NC(=O)Cc2[n-]c(=O)[n-]c2[O-])c(C([NH-])=O)c1C (optimized conformer: 88.21752701499098 kcal/mol)

>  <smiles>  (26) 
Cc1sc(NC(=O)Cc2[nH]c(=O)[nH]c2O)c(C(N)=O)c1C

>  <score_type>  (26) 
oracle

>  <origin>  (26) 
adg

>  <m_score__min__energy>  (26) 
-17.59

>  <m_primary>  (26) 
energy

$$$$
26:0
     RDKit          3D

 48 51  0  0  0  0  0  0  0  0999 V2000
   60.8020   27.0630   50.5300 C   0  0  0  0  0  0  0  0  0  0  0  0
   60.7340   27.8890   49.2900 C   0  0  0  0  0  0  0  0  0  0  0  0
   60.2050   27.3670   48.1530 N   0  0  0  0  0  0  0  0  0  0  0  0
   60.1080   28.1070   47.0180 C   0  0  0  0  0  0  0  0  0  0  0  0
   59.4910   27.5020   45.7900 C   0  0  0  0  0  0  0  0  0  0  0  0
   58.3260   28.3010   45.3620 N   0  0  0  0  0  0  0  0  0  0  0  0
   57.0560   27.8550   45.6060 C   0  0  0  0  0  0  0  0  0  0  0  0
   56.8580   26.7490   46.1770 O   0  0  0  0  0  0  0  0  0  0  0  0
   55.9910   28.6000   45.2360 N   0  0  0  0  0  0  0  0  0  0  0  0
   56.1560   29.7980   44.6320 C   0  0  0  0  0  0  0  0  0  0  0  0
   55.1350   30.4580   44.3010 O   0  0  0  0  0  0  0  0  0  0  0  0
   57.4150   30.2800   44.3940 N   0  0  0  0  0  0  0  0  0  0  0  0
   57.6060   31.5790   43.7160 C   0  0  0  0  0  0  0  0  0  0  0  0
   58.0820   32.6210   44.6960 C   0  0  0  0  0  0  0  0  0  0  0  0
   58.8540   33.7090   44.2540 C   0  0  0  0  0  0  0  0  0  0  0  0
   59.3220   34.6590   45.1670 C   0  0  0  0  0  0  0  0  0  0  0  0
   59.0260   34.5290   46.5260 C   0  0  0  0  0  0  0  0  0  0  0  0
   58.2630   33.4480   46.9750 C   0  0  0  0  0  0  0  0  0  0  0  0
   57.7930   32.4960   46.0650 C   0  0  0  0  0  0  0  0  0  0  0  0
   58.4990   29.5240   44.7620 C   0  0  0  0  0  0  0  0  0  0  0  0
   59.6670   29.9580   44.5500 O   0  0  0  0  0  0  0  0  0  0  0  0
   60.5320   29.4410   47.0250 C   0  0  0  0  0  0  0  0  0  0  0  0
   61.0530   29.9800   48.2130 C   0  0  0  0  0  0  0  0  0  0  0  0
   61.5150   31.3900   48.2930 C   0  0  0  0  0  0  0  0  0  0  0  0
   60.9030   32.3150   49.1630 C   0  0  0  0  0  0  0  0  0  0  0  0
   61.3610   33.6350   49.2280 C   0  0  0  0  0  0  0  0  0  0  0  0
   62.4350   34.0460   48.4360 C   0  0  0  0  0  0  0  0  0  0  0  0
   63.0570   33.1360   47.5790 C   0  0  0  0  0  0  0  0  0  0  0  0
   62.6040   31.8150   47.5100 C   0  0  0  0  0  0  0  0  0  0  0  0
   61.1410   29.1840   49.3130 N   0  0  0  0  0  0  0  0  0  0  0  0
   60.7480   27.7193   51.4111 H   0  0  0  0  0  0  0  0  0  0  0  0
   59.9590   26.3566   50.5467 H   0  0  0  0  0  0  0  0  0  0  0  0
   61.7492   26.5040   50.5467 H   0  0  0  0  0  0  0  0  0  0  0  0
   60.2357   27.4820   44.9807 H   0  0  0  0  0  0  0  0  0  0  0  0
   59.1608   26.4782   46.0198 H   0  0  0  0  0  0  0  0  0  0  0  0
   58.3541   31.4642   42.9178 H   0  0  0  0  0  0  0  0  0  0  0  0
   56.6447   31.9032   43.2909 H   0  0  0  0  0  0  0  0  0  0  0  0
   59.0911   33.8137   43.1850 H   0  0  0  0  0  0  0  0  0  0  0  0
   59.9239   35.5097   44.8147 H   0  0  0  0  0  0  0  0  0  0  0  0
   59.3937   35.2779   47.2429 H   0  0  0  0  0  0  0  0  0  0  0  0
   58.0318   33.3458   48.0456 H   0  0  0  0  0  0  0  0  0  0  0  0
   57.1943   31.6454   46.4228 H   0  0  0  0  0  0  0  0  0  0  0  0
   60.4585   30.0564   46.1162 H   0  0  0  0  0  0  0  0  0  0  0  0
   60.0603   31.9969   49.7944 H   0  0  0  0  0  0  0  0  0  0  0  0
   60.8735   34.3517   49.9053 H   0  0  0  0  0  0  0  0  0  0  0  0
   62.7907   35.0856   48.4872 H   0  0  0  0  0  0  0  0  0  0  0  0
   63.9049   33.4589   46.9570 H   0  0  0  0  0  0  0  0  0  0  0  0
   63.1034   31.1018   46.8377 H   0  0  0  0  0  0  0  0  0  0  0  0
  1  2  1  0
  2  3  2  0
  3  4  1  0
  4  5  1  0
  5  6  1  0
  6  7  1  0
  7  8  2  0
  7  9  1  0
  9 10  1  0
 10 11  2  0
 10 12  1  0
 12 13  1  0
 13 14  1  0
 14 15  2  0
 15 16  1  0
 16 17  2  0
 17 18  1  0
 18 19  2  0
 12 20  1  0
 20 21  2  0
  4 22  2  0
 22 23  1  0
 23 24  1  0
 24 25  2  0
 25 26  1  0
 26 27  2  0
 27 28  1  0
 28 29  2  0
 23 30  2  0
 30  2  1  0
 20  6  1  0
 29 24  1  0
 19 14  1  0
  1 31  1  0
  1 32  1  0
  1 33  1  0
  5 34  1  0
  5 35  1  0
 13 36  1  0
 13 37  1  0
 15 38  1  0
 16 39  1  0
 17 40  1  0
 18 41  1  0
 19 42  1  0
 22 43  1  0
 25 44  1  0
 26 45  1  0
 27 46  1  0
 28 47  1  0
 29 48  1  0
M  CHG  1   9  -1
M  END
>  <UniqueID>  (27) 
25

>  <SMILES>  (27) 
Cc1nc(Cn2c(=O)[n-]c(=O)n(Cc3ccccc3)c2=O)cc(-c2ccccc2)n1

>  <Energy>  (27) 
61.369283494375786

>  <Genealogy>  (27) 
Cc1nc(Cn2c(=O)[n-]c(=O)n(Cc3ccccc3)c2=O)cc(-c2ccccc2)n1 (protonated)
Cc1nc(Cn2c(=O)[n-]c(=O)n(Cc3ccccc3)c2=O)cc(-c2ccccc2)n1 (3D coordinates assigned)
Cc1nc(Cn2c(=O)[n-]c(=O)n(Cc3ccccc3)c2=O)cc(-c2ccccc2)n1 (optimized conformer: 61.369283494375786 kcal/mol)

>  <smiles>  (27) 
Cc1nc(Cn2c(=O)[nH]c(=O)n(Cc3ccccc3)c2=O)cc(-c2ccccc2)n1

>  <score_type>  (27) 
oracle

>  <origin>  (27) 
adg

>  <m_score__min__energy>  (27) 
-10.48

>  <m_primary>  (27) 
energy

$$$$
27:0
     RDKit          3D

 37 40  0  0  0  0  0  0  0  0999 V2000
   54.1850   28.6290   52.3650 O   0  0  0  0  0  0  0  0  0  0  0  0
   53.9950   29.8570   52.1490 C   0  0  0  0  0  0  0  0  0  0  0  0
   54.9320   30.6160   51.3670 N   0  0  0  0  0  0  0  0  0  0  0  0
   56.0710   31.0880   51.7800 C   0  0  0  0  0  0  0  0  0  0  0  0
   57.0330   31.5810   50.9680 N   0  0  0  0  0  0  0  0  0  0  0  0
   58.1170   32.0110   51.6700 C   0  0  0  0  0  0  0  0  0  0  0  0
   59.3100   32.5660   50.9810 C   0  0  0  0  0  0  0  0  0  0  0  0
   59.5930   32.1580   49.6680 C   0  0  0  0  0  0  0  0  0  0  0  0
   60.7160   32.6640   49.0080 C   0  0  0  0  0  0  0  0  0  0  0  0
   61.0390   32.2690   47.7020 C   0  0  0  0  0  0  0  0  0  0  0  0
   62.1740   32.7950   47.0750 C   0  0  0  0  0  0  0  0  0  0  0  0
   62.9860   33.7140   47.7480 C   0  0  0  0  0  0  0  0  0  0  0  0
   62.6690   34.1120   49.0520 C   0  0  0  0  0  0  0  0  0  0  0  0
   61.5350   33.5910   49.6860 C   0  0  0  0  0  0  0  0  0  0  0  0
   61.2320   33.9720   50.9210 O   0  0  0  0  0  0  0  0  0  0  0  0
   60.1710   33.5120   51.5800 C   0  0  0  0  0  0  0  0  0  0  0  0
   59.9390   33.9560   52.7360 O   0  0  0  0  0  0  0  0  0  0  0  0
   58.0140   31.8440   53.0550 C   0  0  0  0  0  0  0  0  0  0  0  0
   56.5170   31.1520   53.3930 S   0  0  0  0  0  0  0  0  0  0  0  0
   52.8320   30.5430   52.7510 C   0  0  0  0  0  0  0  0  0  0  0  0
   52.4000   30.1380   54.0270 C   0  0  0  0  0  0  0  0  0  0  0  0
   51.2630   30.7050   54.6070 C   0  0  0  0  0  0  0  0  0  0  0  0
   50.5430   31.6830   53.9240 C   0  0  0  0  0  0  0  0  0  0  0  0
   50.9670   32.1150   52.6660 C   0  0  0  0  0  0  0  0  0  0  0  0
   50.2500   33.1050   52.0030 O   0  0  0  0  0  0  0  0  0  0  0  0
   52.1170   31.5680   52.0760 C   0  0  0  0  0  0  0  0  0  0  0  0
   52.5350   32.0870   50.8480 O   0  0  0  0  0  0  0  0  0  0  0  0
   58.9317   31.4410   49.1594 H   0  0  0  0  0  0  0  0  0  0  0  0
   60.4012   31.5468   47.1712 H   0  0  0  0  0  0  0  0  0  0  0  0
   62.4283   32.4851   46.0506 H   0  0  0  0  0  0  0  0  0  0  0  0
   63.8768   34.1253   47.2507 H   0  0  0  0  0  0  0  0  0  0  0  0
   63.3108   34.8339   49.5783 H   0  0  0  0  0  0  0  0  0  0  0  0
   58.7796   32.1178   53.7959 H   0  0  0  0  0  0  0  0  0  0  0  0
   52.9632   29.3671   54.5734 H   0  0  0  0  0  0  0  0  0  0  0  0
   50.9352   30.3788   55.6051 H   0  0  0  0  0  0  0  0  0  0  0  0
   49.6387   32.1156   54.3769 H   0  0  0  0  0  0  0  0  0  0  0  0
   53.4800   32.0010   50.4980 H   0  0  0  0  0  0  0  0  0  0  0  0
  1  2  2  0
  2  3  1  0
  3  4  2  3
  4  5  1  0
  5  6  1  0
  6  7  1  0
  7  8  2  0
  8  9  1  0
  9 10  2  0
 10 11  1  0
 11 12  2  0
 12 13  1  0
 13 14  2  0
 14 15  1  0
 15 16  1  0
 16 17  2  0
  6 18  2  0
 18 19  1  0
  2 20  1  0
 20 21  2  0
 21 22  1  0
 22 23  2  0
 23 24  1  0
 24 25  1  0
 24 26  2  0
 26 27  1  0
 19  4  1  0
 26 20  1  0
 16  7  1  0
 14  9  1  0
  8 28  1  0
 10 29  1  0
 11 30  1  0
 12 31  1  0
 13 32  1  0
 18 33  1  0
 21 34  1  0
 22 35  1  0
 23 36  1  0
 27 37  1  0
M  CHG  2   5  -1  25  -1
M  END
>  <UniqueID>  (28) 
26

>  <SMILES>  (28) 
O=C(N=c1[n-]c(-c2cc3ccccc3oc2=O)cs1)c1cccc([O-])c1O

>  <Energy>  (28) 
88.59475746044374

>  <Genealogy>  (28) 
O=C(N=c1[n-]c(-c2cc3ccccc3oc2=O)cs1)c1cccc([O-])c1O (protonated)
O=C(N=c1[n-]c(-c2cc3ccccc3oc2=O)cs1)c1cccc([O-])c1O (3D coordinates assigned)
O=C(N=c1[n-]c(-c2cc3ccccc3oc2=O)cs1)c1cccc([O-])c1O (optimized conformer: 88.59475746044374 kcal/mol)

>  <smiles>  (28) 
O=C(N=c1[nH]c(-c2cc3ccccc3oc2=O)cs1)c1cccc(O)c1O

>  <score_type>  (28) 
oracle

>  <origin>  (28) 
adg

>  <m_score__min__energy>  (28) 
-14.24

>  <m_primary>  (28) 
energy

$$$$
28:0
     RDKit          3D

 46 48  0  0  0  0  0  0  0  0999 V2000
   58.2412   34.2116   47.8763 H   0  0  0  0  0  0  0  0  0  0  0  0
   58.1460   33.7360   46.8890 C   0  0  0  0  0  0  0  0  0  0  0  0
   57.8650   32.4110   46.7970 N   0  0  0  0  0  0  0  0  0  0  0  0
   57.7400   31.7560   45.6100 C   0  0  0  0  0  0  0  0  0  0  0  0
   57.4160   30.4920   45.6700 N   0  0  0  0  0  0  0  0  0  0  0  0
   56.6590   29.6880   44.7580 C   0  0  0  0  0  0  0  0  0  0  0  0
   55.4000   29.6640   44.8260 O   0  0  0  0  0  0  0  0  0  0  0  0
   57.3680   28.7420   43.8420 C   0  0  0  0  0  0  0  0  0  0  0  0
   56.7409   28.5576   42.9572 H   0  0  0  0  0  0  0  0  0  0  0  0
   58.3268   29.1905   43.5429 H   0  0  0  0  0  0  0  0  0  0  0  0
   57.6450   27.4120   44.5480 C   0  0  0  0  0  0  0  0  0  0  0  0
   57.2212   26.5918   43.9499 H   0  0  0  0  0  0  0  0  0  0  0  0
   58.7332   27.2895   44.6520 H   0  0  0  0  0  0  0  0  0  0  0  0
   57.0150   27.3920   45.9440 C   0  0  0  0  0  0  0  0  0  0  0  0
   57.3097   28.3019   46.4873 H   0  0  0  0  0  0  0  0  0  0  0  0
   55.9207   27.3503   45.8401 H   0  0  0  0  0  0  0  0  0  0  0  0
   57.4630   26.2220   46.6890 N   0  0  0  0  0  0  0  0  0  0  0  0
   58.6390   25.4440   46.4220 C   0  0  0  0  0  0  0  0  0  0  0  0
   58.5320   24.1910   46.3790 O   0  0  0  0  0  0  0  0  0  0  0  0
   60.0040   26.0620   46.2510 C   0  0  0  0  0  0  0  0  0  0  0  0
   60.7677   25.3558   46.6090 H   0  0  0  0  0  0  0  0  0  0  0  0
   60.1606   26.2850   45.1853 H   0  0  0  0  0  0  0  0  0  0  0  0
   60.1070   27.3160   47.0180 N   0  0  0  0  0  0  0  0  0  0  0  0
   59.9360   27.2860   48.3840 C   0  0  0  0  0  0  0  0  0  0  0  0
   59.7124   26.3331   48.8860 H   0  0  0  0  0  0  0  0  0  0  0  0
   60.0450   28.4620   49.1390 C   0  0  0  0  0  0  0  0  0  0  0  0
   59.9123   28.4498   50.2309 H   0  0  0  0  0  0  0  0  0  0  0  0
   60.3190   29.6140   48.4810 N   0  0  0  0  0  0  0  0  0  0  0  0
   60.4630   30.8580   48.9690 C   0  0  0  0  0  0  0  0  0  0  0  0
   60.3866   31.1427   50.0288 H   0  0  0  0  0  0  0  0  0  0  0  0
   60.7240   31.7250   47.9160 C   0  0  0  0  0  0  0  0  0  0  0  0
   60.8902   32.8099   47.9898 H   0  0  0  0  0  0  0  0  0  0  0  0
   60.7360   30.9660   46.7510 C   0  0  0  0  0  0  0  0  0  0  0  0
   60.9115   31.3230   45.7254 H   0  0  0  0  0  0  0  0  0  0  0  0
   60.4810   29.6690   47.1530 C   0  0  0  0  0  0  0  0  0  0  0  0
   60.3740   28.5100   46.3820 C   0  0  0  0  0  0  0  0  0  0  0  0
   60.5160   28.5670   45.1300 O   0  0  0  0  0  0  0  0  0  0  0  0
   57.9890   32.4800   44.4010 C   0  0  0  0  0  0  0  0  0  0  0  0
   58.1040   31.8540   43.0330 C   0  0  0  0  0  0  0  0  0  0  0  0
   58.3018   30.7770   43.1380 H   0  0  0  0  0  0  0  0  0  0  0  0
   57.1636   32.0020   42.4818 H   0  0  0  0  0  0  0  0  0  0  0  0
   58.9304   32.3266   42.4818 H   0  0  0  0  0  0  0  0  0  0  0  0
   58.2380   33.8620   44.4940 C   0  0  0  0  0  0  0  0  0  0  0  0
   58.3749   34.4529   43.5763 H   0  0  0  0  0  0  0  0  0  0  0  0
   58.3130   34.4900   45.7350 C   0  0  0  0  0  0  0  0  0  0  0  0
   58.5025   35.5716   45.8002 H   0  0  0  0  0  0  0  0  0  0  0  0
  1  2  1  0
  2  3  1  0
  3  4  1  0
  4  5  2  0
  5  6  1  0
  6  7  2  0
  6  8  1  0
  8  9  1  0
  8 10  1  0
  8 11  1  0
 11 12  1  0
 11 13  1  0
 11 14  1  0
 14 15  1  0
 14 16  1  0
 14 17  1  0
 17 18  1  0
 18 19  2  0
 18 20  1  0
 20 21  1  0
 20 22  1  0
 20 23  1  0
 23 24  1  0
 24 25  1  0
 24 26  2  0
 26 27  1  0
 26 28  1  0
 28 29  1  0
 29 30  1  0
 29 31  2  0
 31 32  1  0
 31 33  1  0
 33 34  1  0
 33 35  2  0
 35 36  1  0
 36 37  2  0
  4 38  1  0
 38 39  1  0
 39 40  1  0
 39 41  1  0
 39 42  1  0
 38 43  2  0
 43 44  1  0
 43 45  1  0
 45 46  1  0
 45  2  2  0
 36 23  1  0
 35 28  1  0
M  CHG  2   3  -1  17  -1
M  END
>  <UniqueID>  (29) 
27

>  <SMILES>  (29) 
Cc1ccc[n-]/c1=N/C(=O)CCC[N-]C(=O)Cn1ccn2cccc2c1=O

>  <Energy>  (29) 
92.56995356448624

>  <Genealogy>  (29) 
Cc1ccc[n-]c1=NC(=O)CCC[N-]C(=O)Cn1ccn2cccc2c1=O (protonated)
Cc1ccc[n-]/c1=N/C(=O)CCC[N-]C(=O)Cn1ccn2cccc2c1=O (cis-trans isomerization)
Cc1ccc[n-]/c1=N/C(=O)CCC[N-]C(=O)Cn1ccn2cccc2c1=O (3D coordinates assigned)
Cc1ccc[n-]/c1=N/C(=O)CCC[N-]C(=O)Cn1ccn2cccc2c1=O (optimized conformer: 92.56995356448624 kcal/mol)

>  <smiles>  (29) 
Cc1ccc[nH]c1=NC(=O)CCCNC(=O)Cn1ccn2cccc2c1=O

>  <score_type>  (29) 
oracle

>  <origin>  (29) 
adg

>  <m_score__min__energy>  (29) 
-11.4

>  <m_primary>  (29) 
energy

$$$$
29:0
     RDKit          3D

 55 58  0  0  0  0  0  0  0  0999 V2000
   59.1150   33.8560   51.6720 O   0  0  0  0  0  0  0  0  0  0  0  0
   58.9940   32.7470   51.0860 C   0  0  0  0  0  0  0  0  0  0  0  0
   59.8210   32.4690   49.9470 N   0  0  0  0  0  0  0  0  0  0  0  0
   59.4040   32.6060   48.5810 C   0  0  0  0  0  0  0  0  0  0  0  0
   58.0970   33.0020   48.2510 C   0  0  0  0  0  0  0  0  0  0  0  0
   57.7050   33.0880   46.9140 C   0  0  0  0  0  0  0  0  0  0  0  0
   58.6050   32.7620   45.8860 C   0  0  0  0  0  0  0  0  0  0  0  0
   58.1640   32.8150   44.4370 C   0  0  0  0  0  0  0  0  0  0  0  0
   57.1720   31.7860   44.0490 N   0  0  0  0  0  0  0  0  0  0  0  0
   57.1810   30.5650   44.8540 C   0  0  0  0  0  0  0  0  0  0  0  0
   56.4280   29.5260   44.0400 C   0  0  0  0  0  0  0  0  0  0  0  0
   56.4950   30.0170   42.5990 C   0  0  0  0  0  0  0  0  0  0  0  0
   57.2300   31.3500   42.6540 C   0  0  0  0  0  0  0  0  0  0  0  0
   59.9280   32.4270   46.2180 C   0  0  0  0  0  0  0  0  0  0  0  0
   60.3250   32.3560   47.5580 C   0  0  0  0  0  0  0  0  0  0  0  0
   58.0210   31.7550   51.5980 C   0  0  0  0  0  0  0  0  0  0  0  0
   56.7890   32.1880   52.1080 C   0  0  0  0  0  0  0  0  0  0  0  0
   55.8340   31.2580   52.5210 C   0  0  0  0  0  0  0  0  0  0  0  0
   56.1240   29.8900   52.4380 C   0  0  0  0  0  0  0  0  0  0  0  0
   55.0820   28.8580   52.7700 C   0  0  0  0  0  0  0  0  0  0  0  0
   53.8720   29.4930   53.4680 C   0  0  0  0  0  0  0  0  0  0  0  0
   52.9820   30.2210   52.4920 C   0  0  0  0  0  0  0  0  0  0  0  0
   52.2360   31.3350   52.9110 C   0  0  0  0  0  0  0  0  0  0  0  0
   51.4460   32.0360   51.9950 C   0  0  0  0  0  0  0  0  0  0  0  0
   51.4040   31.6400   50.6540 C   0  0  0  0  0  0  0  0  0  0  0  0
   50.6220   32.3400   49.7450 O   0  0  0  0  0  0  0  0  0  0  0  0
   52.1550   30.5390   50.2280 C   0  0  0  0  0  0  0  0  0  0  0  0
   52.9420   29.8330   51.1420 C   0  0  0  0  0  0  0  0  0  0  0  0
   57.3360   29.4870   51.9700 N   0  0  0  0  0  0  0  0  0  0  0  0
   58.2850   30.3710   51.5630 C   0  0  0  0  0  0  0  0  0  0  0  0
   59.3970   29.9350   51.1640 O   0  0  0  0  0  0  0  0  0  0  0  0
   57.3800   33.2451   49.0490 H   0  0  0  0  0  0  0  0  0  0  0  0
   56.6844   33.4133   46.6638 H   0  0  0  0  0  0  0  0  0  0  0  0
   57.7207   33.8044   44.2507 H   0  0  0  0  0  0  0  0  0  0  0  0
   59.0629   32.6199   43.8337 H   0  0  0  0  0  0  0  0  0  0  0  0
   58.2141   30.2338   45.0359 H   0  0  0  0  0  0  0  0  0  0  0  0
   56.7140   30.7251   45.8370 H   0  0  0  0  0  0  0  0  0  0  0  0
   56.9084   28.5409   44.1340 H   0  0  0  0  0  0  0  0  0  0  0  0
   55.3901   29.4086   44.3850 H   0  0  0  0  0  0  0  0  0  0  0  0
   57.0472   29.2996   41.9742 H   0  0  0  0  0  0  0  0  0  0  0  0
   55.4928   30.1228   42.1581 H   0  0  0  0  0  0  0  0  0  0  0  0
   58.2755   31.2232   42.3365 H   0  0  0  0  0  0  0  0  0  0  0  0
   56.7721   32.0903   41.9815 H   0  0  0  0  0  0  0  0  0  0  0  0
   60.6562   32.2193   45.4201 H   0  0  0  0  0  0  0  0  0  0  0  0
   61.3658   32.1025   47.8081 H   0  0  0  0  0  0  0  0  0  0  0  0
   56.5744   33.2643   52.1829 H   0  0  0  0  0  0  0  0  0  0  0  0
   54.8617   31.5963   52.9085 H   0  0  0  0  0  0  0  0  0  0  0  0
   54.7468   28.3751   51.8403 H   0  0  0  0  0  0  0  0  0  0  0  0
   55.5289   28.1199   53.4523 H   0  0  0  0  0  0  0  0  0  0  0  0
   53.2883   28.7009   53.9599 H   0  0  0  0  0  0  0  0  0  0  0  0
   54.2443   30.2229   54.2019 H   0  0  0  0  0  0  0  0  0  0  0  0
   52.2735   31.6566   53.9623 H   0  0  0  0  0  0  0  0  0  0  0  0
   50.8556   32.9016   52.3298 H   0  0  0  0  0  0  0  0  0  0  0  0
   52.1260   30.2289   49.1730 H   0  0  0  0  0  0  0  0  0  0  0  0
   53.5330   28.9694   50.8030 H   0  0  0  0  0  0  0  0  0  0  0  0
  1  2  2  0
  2  3  1  0
  3  4  1  0
  4  5  2  0
  5  6  1  0
  6  7  2  0
  7  8  1  0
  8  9  1  0
  9 10  1  0
 10 11  1  0
 11 12  1  0
 12 13  1  0
  7 14  1  0
 14 15  2  0
  2 16  1  0
 16 17  2  0
 17 18  1  0
 18 19  2  0
 19 20  1  0
 20 21  1  0
 21 22  1  0
 22 23  2  0
 23 24  1  0
 24 25  2  0
 25 26  1  0
 25 27  1  0
 27 28  2  0
 19 29  1  0
 29 30  1  0
 30 31  2  0
 15  4  1  0
 30 16  1  0
 13  9  1  0
 28 22  1  0
  5 32  1  0
  6 33  1  0
  8 34  1  0
  8 35  1  0
 10 36  1  0
 10 37  1  0
 11 38  1  0
 11 39  1  0
 12 40  1  0
 12 41  1  0
 13 42  1  0
 13 43  1  0
 14 44  1  0
 15 45  1  0
 17 46  1  0
 18 47  1  0
 20 48  1  0
 20 49  1  0
 21 50  1  0
 21 51  1  0
 23 52  1  0
 24 53  1  0
 27 54  1  0
 28 55  1  0
M  CHG  3   3  -1  26  -1  29  -1
M  END
>  <UniqueID>  (30) 
28

>  <SMILES>  (30) 
O=C([N-]c1ccc(CN2CCCC2)cc1)c1ccc(CCc2ccc([O-])cc2)[n-]c1=O

>  <Energy>  (30) 
67.3083947435656

>  <Genealogy>  (30) 
O=C([N-]c1ccc(CN2CCCC2)cc1)c1ccc(CCc2ccc([O-])cc2)[n-]c1=O (protonated)
O=C([N-]c1ccc(CN2CCCC2)cc1)c1ccc(CCc2ccc([O-])cc2)[n-]c1=O (3D coordinates assigned)
O=C([N-]c1ccc(CN2CCCC2)cc1)c1ccc(CCc2ccc([O-])cc2)[n-]c1=O (nonaromatic ring conformer: 67.3083947435656 kcal/mol)

>  <smiles>  (30) 
O=C(Nc1ccc(CN2CCCC2)cc1)c1ccc(CCc2ccc(O)cc2)[nH]c1=O

>  <score_type>  (30) 
oracle

>  <origin>  (30) 
adg

>  <m_score__min__energy>  (30) 
-15.09

>  <m_primary>  (30) 
energy

$$$$
30:0
     RDKit          3D

 43 46  0  0  0  0  0  0  0  0999 V2000
   58.2890   24.7740   46.7010 C   0  0  0  0  0  0  0  0  0  0  0  0
   57.0190   25.4840   46.3570 C   0  0  0  0  0  0  0  0  0  0  0  0
   55.8470   24.8470   46.1780 N   0  0  0  0  0  0  0  0  0  0  0  0
   54.9940   25.8430   45.8720 C   0  0  0  0  0  0  0  0  0  0  0  0
   53.7760   25.6410   45.6270 O   0  0  0  0  0  0  0  0  0  0  0  0
   55.5470   27.0710   45.8470 N   0  0  0  0  0  0  0  0  0  0  0  0
   56.8340   26.8450   46.1680 C   0  0  0  0  0  0  0  0  0  0  0  0
   57.8390   27.9200   46.2580 C   0  0  0  0  0  0  0  0  0  0  0  0
   59.0610   27.6190   46.1980 O   0  0  0  0  0  0  0  0  0  0  0  0
   57.4450   29.2960   46.3640 N   0  0  0  0  0  0  0  0  0  0  0  0
   58.3990   30.3370   46.6180 C   0  0  0  0  0  0  0  0  0  0  0  0
   59.4030   30.1040   47.5620 C   0  0  0  0  0  0  0  0  0  0  0  0
   60.3300   31.0950   47.8700 C   0  0  0  0  0  0  0  0  0  0  0  0
   60.2860   32.3390   47.2340 C   0  0  0  0  0  0  0  0  0  0  0  0
   61.2540   33.3240   47.6210 N   0  0  0  0  0  0  0  0  0  0  0  0
   62.5560   33.3910   46.9570 C   0  0  0  0  0  0  0  0  0  0  0  0
   63.6570   33.4670   48.0210 C   0  0  0  0  0  0  0  0  0  0  0  0
   63.3970   34.5150   48.9380 O   0  0  0  0  0  0  0  0  0  0  0  0
   62.2160   34.2350   49.6710 C   0  0  0  0  0  0  0  0  0  0  0  0
   60.9940   34.2200   48.7480 C   0  0  0  0  0  0  0  0  0  0  0  0
   59.3060   32.5890   46.2350 C   0  0  0  0  0  0  0  0  0  0  0  0
   59.2410   33.8080   45.5090 C   0  0  0  0  0  0  0  0  0  0  0  0
   60.0510   34.7460   45.7250 O   0  0  0  0  0  0  0  0  0  0  0  0
   58.2970   33.9790   44.5470 N   0  0  0  0  0  0  0  0  0  0  0  0
   57.3960   33.0160   44.2350 C   0  0  0  0  0  0  0  0  0  0  0  0
   57.4110   31.8000   44.9100 C   0  0  0  0  0  0  0  0  0  0  0  0
   58.3570   31.5720   45.9280 C   0  0  0  0  0  0  0  0  0  0  0  0
   58.3922   24.7163   47.7946 H   0  0  0  0  0  0  0  0  0  0  0  0
   58.2663   23.7577   46.2807 H   0  0  0  0  0  0  0  0  0  0  0  0
   59.1429   25.3256   46.2807 H   0  0  0  0  0  0  0  0  0  0  0  0
   56.5120   29.5740   45.9860 H   0  0  0  0  0  0  0  0  0  0  0  0
   59.4609   29.1281   48.0662 H   0  0  0  0  0  0  0  0  0  0  0  0
   61.1069   30.8970   48.6231 H   0  0  0  0  0  0  0  0  0  0  0  0
   62.7015   32.4923   46.3396 H   0  0  0  0  0  0  0  0  0  0  0  0
   62.5992   34.2824   46.3140 H   0  0  0  0  0  0  0  0  0  0  0  0
   63.6986   32.5125   48.5661 H   0  0  0  0  0  0  0  0  0  0  0  0
   64.6173   33.6643   47.5221 H   0  0  0  0  0  0  0  0  0  0  0  0
   62.3156   33.2515   50.1535 H   0  0  0  0  0  0  0  0  0  0  0  0
   62.0764   35.0205   50.4283 H   0  0  0  0  0  0  0  0  0  0  0  0
   60.1156   33.8639   49.3062 H   0  0  0  0  0  0  0  0  0  0  0  0
   60.7997   35.2365   48.3751 H   0  0  0  0  0  0  0  0  0  0  0  0
   56.6510   33.1965   43.4460 H   0  0  0  0  0  0  0  0  0  0  0  0
   56.6842   31.0167   44.6488 H   0  0  0  0  0  0  0  0  0  0  0  0
  1  2  1  0
  2  3  1  0
  3  4  1  0
  4  5  2  0
  4  6  1  0
  6  7  1  0
  7  8  1  0
  8  9  2  0
  8 10  1  0
 10 11  1  0
 11 12  2  0
 12 13  1  0
 13 14  2  0
 14 15  1  0
 15 16  1  0
 16 17  1  0
 17 18  1  0
 18 19  1  0
 19 20  1  0
 14 21  1  0
 21 22  1  0
 22 23  2  0
 22 24  1  0
 24 25  1  0
 25 26  2  0
 26 27  1  0
  7  2  2  0
 27 11  1  0
 20 15  1  0
 27 21  2  0
  1 28  1  0
  1 29  1  0
  1 30  1  0
 10 31  1  0
 12 32  1  0
 13 33  1  0
 16 34  1  0
 16 35  1  0
 17 36  1  0
 17 37  1  0
 19 38  1  0
 19 39  1  0
 20 40  1  0
 20 41  1  0
 25 42  1  0
 26 43  1  0
M  CHG  3   3  -1   6  -1  24  -1
M  END
>  <UniqueID>  (31) 
29

>  <SMILES>  (31) 
Cc1[n-]c(=O)[n-]c1C(=O)Nc1ccc(N2CCOCC2)c2c(=O)[n-]ccc12

>  <Energy>  (31) 
98.02074685631156

>  <Genealogy>  (31) 
Cc1[n-]c(=O)[n-]c1C(=O)Nc1ccc(N2CCOCC2)c2c(=O)[n-]ccc12 (protonated)
Cc1[n-]c(=O)[n-]c1C(=O)Nc1ccc(N2CCOCC2)c2c(=O)[n-]ccc12 (3D coordinates assigned)
Cc1[n-]c(=O)[n-]c1C(=O)Nc1ccc(N2CCOCC2)c2c(=O)[n-]ccc12 (nonaromatic ring conformer: 98.02074685631156 kcal/mol)

>  <smiles>  (31) 
Cc1[nH]c(=O)[nH]c1C(=O)Nc1ccc(N2CCOCC2)c2c(=O)[nH]ccc12

>  <score_type>  (31) 
oracle

>  <origin>  (31) 
adg

>  <m_score__min__energy>  (31) 
-12.640000000000001

>  <m_primary>  (31) 
energy

$$$$
31:0
     RDKit          3D

 44 46  0  0  0  0  0  0  0  0999 V2000
   58.6680   29.8860   47.6560 C   0  0  0  0  0  0  0  0  0  0  0  0
   58.3090   30.4130   46.4720 C   0  0  0  0  0  0  0  0  0  0  0  0
   58.1800   29.7070   45.2710 C   0  0  0  0  0  0  0  0  0  0  0  0
   58.4170   28.3970   45.0560 C   0  0  0  0  0  0  0  0  0  0  0  0
   57.5300   27.3170   45.5460 C   0  0  0  0  0  0  0  0  0  0  0  0
   56.1360   27.4830   45.6170 C   0  0  0  0  0  0  0  0  0  0  0  0
   55.5390   28.6750   45.2260 O   0  0  0  0  0  0  0  0  0  0  0  0
   55.3570   26.4770   46.0940 N   0  0  0  0  0  0  0  0  0  0  0  0
   55.9030   25.3110   46.5220 C   0  0  0  0  0  0  0  0  0  0  0  0
   55.1620   24.3920   46.9560 O   0  0  0  0  0  0  0  0  0  0  0  0
   57.2500   25.1370   46.4900 N   0  0  0  0  0  0  0  0  0  0  0  0
   58.0720   26.1120   46.0210 C   0  0  0  0  0  0  0  0  0  0  0  0
   59.3160   25.9170   46.0090 O   0  0  0  0  0  0  0  0  0  0  0  0
   57.8070   30.6340   44.3100 C   0  0  0  0  0  0  0  0  0  0  0  0
   57.7100   31.8510   44.9510 C   0  0  0  0  0  0  0  0  0  0  0  0
   57.3940   33.1410   44.2560 C   0  0  0  0  0  0  0  0  0  0  0  0
   58.0140   31.7250   46.2660 N   0  0  0  0  0  0  0  0  0  0  0  0
   58.0710   32.8350   47.2330 C   0  0  0  0  0  0  0  0  0  0  0  0
   59.4920   33.0870   47.6680 C   0  0  0  0  0  0  0  0  0  0  0  0
   60.5540   32.9150   46.7640 C   0  0  0  0  0  0  0  0  0  0  0  0
   61.8710   33.1340   47.1740 C   0  0  0  0  0  0  0  0  0  0  0  0
   62.1510   33.5090   48.4920 C   0  0  0  0  0  0  0  0  0  0  0  0
   63.5140   33.7490   48.8710 N   0  0  0  0  0  0  0  0  0  0  0  0
   64.3940   32.8280   49.5310 C   0  0  0  0  0  0  0  0  0  0  0  0
   63.8810   31.6450   50.2940 C   0  0  0  0  0  0  0  0  0  0  0  0
   65.6370   33.0000   49.4370 O   0  0  0  0  0  0  0  0  0  0  0  0
   61.0890   33.7150   49.3890 C   0  0  0  0  0  0  0  0  0  0  0  0
   59.7710   33.4960   48.9810 C   0  0  0  0  0  0  0  0  0  0  0  0
   58.7406   30.5296   48.5451 H   0  0  0  0  0  0  0  0  0  0  0  0
   58.8891   28.8114   47.7353 H   0  0  0  0  0  0  0  0  0  0  0  0
   59.3157   28.1161   44.4872 H   0  0  0  0  0  0  0  0  0  0  0  0
   57.6240   30.4370   43.2434 H   0  0  0  0  0  0  0  0  0  0  0  0
   57.2023   33.9236   45.0049 H   0  0  0  0  0  0  0  0  0  0  0  0
   58.2463   33.4367   43.6266 H   0  0  0  0  0  0  0  0  0  0  0  0
   56.5016   33.0093   43.6266 H   0  0  0  0  0  0  0  0  0  0  0  0
   57.6700   33.7450   46.7628 H   0  0  0  0  0  0  0  0  0  0  0  0
   57.4720   32.5674   48.1159 H   0  0  0  0  0  0  0  0  0  0  0  0
   60.3471   32.6064   45.7286 H   0  0  0  0  0  0  0  0  0  0  0  0
   62.6942   33.0106   46.4549 H   0  0  0  0  0  0  0  0  0  0  0  0
   63.9656   31.8400   51.3733 H   0  0  0  0  0  0  0  0  0  0  0  0
   62.8264   31.4705   50.0345 H   0  0  0  0  0  0  0  0  0  0  0  0
   64.4744   30.7559   50.0345 H   0  0  0  0  0  0  0  0  0  0  0  0
   61.2963   34.0499   50.4161 H   0  0  0  0  0  0  0  0  0  0  0  0
   58.9465   33.6451   49.6937 H   0  0  0  0  0  0  0  0  0  0  0  0
  1  2  2  0
  2  3  1  0
  3  4  2  3
  4  5  1  0
  5  6  2  0
  6  7  1  0
  6  8  1  0
  8  9  1  0
  9 10  2  0
  9 11  1  0
 11 12  1  0
 12 13  2  0
  3 14  1  0
 14 15  2  0
 15 16  1  0
 15 17  1  0
 17 18  1  0
 18 19  1  0
 19 20  2  0
 20 21  1  0
 21 22  2  0
 22 23  1  0
 23 24  1  0
 24 25  1  0
 24 26  2  0
 22 27  1  0
 27 28  2  0
 17  2  1  0
 28 19  1  0
 12  5  1  0
  1 29  1  0
  1 30  1  0
  4 31  1  0
 14 32  1  0
 16 33  1  0
 16 34  1  0
 16 35  1  0
 18 36  1  0
 18 37  1  0
 20 38  1  0
 21 39  1  0
 25 40  1  0
 25 41  1  0
 25 42  1  0
 27 43  1  0
 28 44  1  0
M  CHG  4   7  -1   8  -1  11  -1  23  -1
M  END
>  <UniqueID>  (32) 
30

>  <SMILES>  (32) 
C=c1c(=Cc2c([O-])[n-]c(=O)[n-]c2=O)cc(C)n1Cc1ccc([N-]C(C)=O)cc1

>  <Energy>  (32) 
88.02346829658035

>  <Genealogy>  (32) 
C=c1c(=Cc2c([O-])[n-]c(=O)[n-]c2=O)cc(C)n1Cc1ccc([N-]C(C)=O)cc1 (protonated)
C=c1c(=Cc2c([O-])[n-]c(=O)[n-]c2=O)cc(C)n1Cc1ccc([N-]C(C)=O)cc1 (3D coordinates assigned)
C=c1c(=Cc2c([O-])[n-]c(=O)[n-]c2=O)cc(C)n1Cc1ccc([N-]C(C)=O)cc1 (optimized conformer: 88.02346829658035 kcal/mol)

>  <smiles>  (32) 
C=c1c(=Cc2c(O)[nH]c(=O)[nH]c2=O)cc(C)n1Cc1ccc(NC(C)=O)cc1

>  <score_type>  (32) 
oracle

>  <origin>  (32) 
adg

>  <m_score__min__energy>  (32) 
-16.48

>  <m_primary>  (32) 
energy

$$$$
32:0
     RDKit          3D

 38 39  0  0  0  0  0  0  0  0999 V2000
   60.4129   35.3458   46.5450 H   0  0  0  0  0  0  0  0  0  0  0  0
   59.6120   34.6510   46.2520 C   0  0  0  0  0  0  0  0  0  0  0  0
   59.0240   33.8070   47.2030 C   0  0  0  0  0  0  0  0  0  0  0  0
   59.4780   33.8390   48.6280 C   0  0  0  0  0  0  0  0  0  0  0  0
   58.6038   33.7774   49.2928 H   0  0  0  0  0  0  0  0  0  0  0  0
   60.1452   32.9857   48.8195 H   0  0  0  0  0  0  0  0  0  0  0  0
   60.0189   34.7775   48.8195 H   0  0  0  0  0  0  0  0  0  0  0  0
   58.0370   32.9490   46.8240 N   0  0  0  0  0  0  0  0  0  0  0  0
   57.5900   32.8800   45.5370 C   0  0  0  0  0  0  0  0  0  0  0  0
   56.6430   32.0540   45.1930 N   0  0  0  0  0  0  0  0  0  0  0  0
   56.7340   30.9900   44.2330 C   0  0  0  0  0  0  0  0  0  0  0  0
   57.3890   31.1250   43.1640 O   0  0  0  0  0  0  0  0  0  0  0  0
   55.9880   29.7200   44.4800 C   0  0  0  0  0  0  0  0  0  0  0  0
   55.3377   29.8402   45.3590 H   0  0  0  0  0  0  0  0  0  0  0  0
   55.3710   29.4770   43.6023 H   0  0  0  0  0  0  0  0  0  0  0  0
   56.9410   28.6440   44.7220 N   0  0  0  0  0  0  0  0  0  0  0  0
   57.5010   28.3190   46.0000 C   0  0  0  0  0  0  0  0  0  0  0  0
   57.0130   27.3560   46.6490 O   0  0  0  0  0  0  0  0  0  0  0  0
   58.6050   29.0990   46.5950 C   0  0  0  0  0  0  0  0  0  0  0  0
   59.5930   29.6790   45.7870 C   0  0  0  0  0  0  0  0  0  0  0  0
   59.5430   29.5636   44.6942 H   0  0  0  0  0  0  0  0  0  0  0  0
   60.6410   30.4030   46.3620 C   0  0  0  0  0  0  0  0  0  0  0  0
   61.4048   30.8597   45.7154 H   0  0  0  0  0  0  0  0  0  0  0  0
   60.7310   30.5550   47.7590 C   0  0  0  0  0  0  0  0  0  0  0  0
   61.8550   31.3380   48.3490 C   0  0  0  0  0  0  0  0  0  0  0  0
   62.0490   31.2940   49.5950 O   0  0  0  0  0  0  0  0  0  0  0  0
   62.7730   32.1910   47.5120 C   0  0  0  0  0  0  0  0  0  0  0  0
   62.0320   32.9720   46.6450 F   0  0  0  0  0  0  0  0  0  0  0  0
   63.6230   31.3930   46.7670 F   0  0  0  0  0  0  0  0  0  0  0  0
   63.5370   33.0010   48.3330 F   0  0  0  0  0  0  0  0  0  0  0  0
   59.7480   29.9480   48.5660 C   0  0  0  0  0  0  0  0  0  0  0  0
   59.8034   30.0471   49.6601 H   0  0  0  0  0  0  0  0  0  0  0  0
   58.7030   29.2210   47.9880 C   0  0  0  0  0  0  0  0  0  0  0  0
   57.9514   28.7407   48.6318 H   0  0  0  0  0  0  0  0  0  0  0  0
   58.1560   33.7150   44.5670 C   0  0  0  0  0  0  0  0  0  0  0  0
   57.8029   33.6730   43.5261 H   0  0  0  0  0  0  0  0  0  0  0  0
   59.1710   34.6010   44.9290 C   0  0  0  0  0  0  0  0  0  0  0  0
   59.6231   35.2593   44.1725 H   0  0  0  0  0  0  0  0  0  0  0  0
  1  2  1  0
  2  3  2  0
  3  4  1  0
  4  5  1  0
  4  6  1  0
  4  7  1  0
  3  8  1  0
  8  9  1  0
  9 10  2  0
 10 11  1  0
 11 12  2  0
 11 13  1  0
 13 14  1  0
 13 15  1  0
 13 16  1  0
 16 17  1  0
 17 18  2  0
 17 19  1  0
 19 20  2  0
 20 21  1  0
 20 22  1  0
 22 23  1  0
 22 24  2  0
 24 25  1  0
 25 26  2  0
 25 27  1  0
 27 28  1  0
 27 29  1  0
 27 30  1  0
 24 31  1  0
 31 32  1  0
 31 33  2  0
 33 34  1  0
  9 35  1  0
 35 36  1  0
 35 37  2  0
 37 38  1  0
 37  2  1  0
 33 19  1  0
M  CHG  2   8  -1  16  -1
M  END
>  <UniqueID>  (33) 
31

>  <SMILES>  (33) 
Cc1ccc/c(=N/C(=O)C[N-]C(=O)c2ccc(C(=O)C(F)(F)F)cc2)[n-]1

>  <Energy>  (33) 
44.36476739962522

>  <Genealogy>  (33) 
Cc1cccc(=NC(=O)C[N-]C(=O)c2ccc(C(=O)C(F)(F)F)cc2)[n-]1 (protonated)
Cc1ccc/c(=N/C(=O)C[N-]C(=O)c2ccc(C(=O)C(F)(F)F)cc2)[n-]1 (cis-trans isomerization)
Cc1ccc/c(=N/C(=O)C[N-]C(=O)c2ccc(C(=O)C(F)(F)F)cc2)[n-]1 (3D coordinates assigned)
Cc1ccc/c(=N/C(=O)C[N-]C(=O)c2ccc(C(=O)C(F)(F)F)cc2)[n-]1 (optimized conformer: 44.36476739962522 kcal/mol)

>  <smiles>  (33) 
Cc1cccc(=NC(=O)CNC(=O)c2ccc(C(=O)C(F)(F)F)cc2)[nH]1

>  <score_type>  (33) 
oracle

>  <origin>  (33) 
adg

>  <m_score__min__energy>  (33) 
-10.789999999999999

>  <m_primary>  (33) 
energy

$$$$
33:0
     RDKit          3D

 49 51  0  0  0  0  0  0  0  0999 V2000
   59.1242   35.1438   47.8702 H   0  0  0  0  0  0  0  0  0  0  0  0
   58.8350   34.4420   47.0740 C   0  0  0  0  0  0  0  0  0  0  0  0
   58.1140   33.2870   47.3890 C   0  0  0  0  0  0  0  0  0  0  0  0
   57.8345   33.0810   48.4328 H   0  0  0  0  0  0  0  0  0  0  0  0
   57.7480   32.3940   46.3790 C   0  0  0  0  0  0  0  0  0  0  0  0
   57.1782   31.4873   46.6305 H   0  0  0  0  0  0  0  0  0  0  0  0
   58.1040   32.6480   45.0430 C   0  0  0  0  0  0  0  0  0  0  0  0
   57.6770   31.6950   43.9520 C   0  0  0  0  0  0  0  0  0  0  0  0
   58.5741   31.2656   43.4821 H   0  0  0  0  0  0  0  0  0  0  0  0
   57.0798   32.2571   43.2189 H   0  0  0  0  0  0  0  0  0  0  0  0
   56.8410   30.5960   44.4840 N   0  0  2  0  0  0  0  0  0  0  0  0
   56.2510   30.9800   45.2560 H   0  0  0  0  0  0  0  0  0  0  0  0
   57.6950   29.5450   44.9990 C   0  0  0  0  0  0  0  0  0  0  0  0
   58.9460   29.7160   45.0420 O   0  0  0  0  0  0  0  0  0  0  0  0
   57.1340   28.3300   45.6290 C   0  0  0  0  0  0  0  0  0  0  0  0
   55.9230   27.8410   45.3020 N   0  0  0  0  0  0  0  0  0  0  0  0
   55.8330   26.7010   46.0150 C   0  0  0  0  0  0  0  0  0  0  0  0
   54.7890   25.9310   45.9580 N   0  0  0  0  0  0  0  0  0  0  0  0
   54.8550   24.5140   45.6260 C   0  0  0  0  0  0  0  0  0  0  0  0
   54.8826   23.9213   46.5522 H   0  0  0  0  0  0  0  0  0  0  0  0
   53.9689   24.2336   45.0375 H   0  0  0  0  0  0  0  0  0  0  0  0
   55.7633   24.3172   45.0375 H   0  0  0  0  0  0  0  0  0  0  0  0
   56.9130   26.4360   46.7820 N   0  0  0  0  0  0  0  0  0  0  0  0
   57.7360   27.4710   46.5370 C   0  0  0  0  0  0  0  0  0  0  0  0
   59.0050   27.6720   47.2570 C   0  0  0  0  0  0  0  0  0  0  0  0
   59.9600   26.8760   47.0590 O   0  0  0  0  0  0  0  0  0  0  0  0
   59.1750   28.7400   48.1940 N   0  0  0  0  0  0  0  0  0  0  0  0
   60.4080   28.9920   48.9290 C   0  0  0  0  0  0  0  0  0  0  0  0
   60.1909   29.0364   50.0064 H   0  0  0  0  0  0  0  0  0  0  0  0
   61.1250   28.1808   48.7344 H   0  0  0  0  0  0  0  0  0  0  0  0
   60.9940   30.2980   48.4820 C   0  0  0  0  0  0  0  0  0  0  0  0
   60.7790   30.7540   47.1700 C   0  0  0  0  0  0  0  0  0  0  0  0
   60.2028   30.1387   46.4634 H   0  0  0  0  0  0  0  0  0  0  0  0
   61.2950   31.9870   46.7600 C   0  0  0  0  0  0  0  0  0  0  0  0
   61.1327   32.3346   45.7291 H   0  0  0  0  0  0  0  0  0  0  0  0
   62.0170   32.7790   47.6580 C   0  0  0  0  0  0  0  0  0  0  0  0
   62.5150   33.9740   47.2600 F   0  0  0  0  0  0  0  0  0  0  0  0
   62.2200   32.3380   48.9710 C   0  0  0  0  0  0  0  0  0  0  0  0
   62.7848   32.9624   49.6789 H   0  0  0  0  0  0  0  0  0  0  0  0
   61.7060   31.1050   49.3840 C   0  0  0  0  0  0  0  0  0  0  0  0
   61.8599   30.7660   50.4191 H   0  0  0  0  0  0  0  0  0  0  0  0
   55.9340   30.0550   43.4550 C   0  0  0  0  0  0  0  0  0  0  0  0
   55.0869   29.5497   43.9419 H   0  0  0  0  0  0  0  0  0  0  0  0
   55.5591   30.8772   42.8277 H   0  0  0  0  0  0  0  0  0  0  0  0
   56.4793   29.3345   42.8277 H   0  0  0  0  0  0  0  0  0  0  0  0
   58.8240   33.8150   44.7330 C   0  0  0  0  0  0  0  0  0  0  0  0
   59.1010   34.0278   43.6899 H   0  0  0  0  0  0  0  0  0  0  0  0
   59.1890   34.7060   45.7470 C   0  0  0  0  0  0  0  0  0  0  0  0
   59.7555   35.6161   45.5005 H   0  0  0  0  0  0  0  0  0  0  0  0
  1  2  1  0
  2  3  2  0
  3  4  1  0
  3  5  1  0
  5  6  1  0
  5  7  2  0
  7  8  1  0
  8  9  1  0
  8 10  1  0
  8 11  1  0
 11 12  1  1
 11 13  1  0
 13 14  2  0
 13 15  1  0
 15 16  1  0
 16 17  1  0
 17 18  2  0
 18 19  1  0
 19 20  1  0
 19 21  1  0
 19 22  1  0
 17 23  1  0
 23 24  1  0
 24 25  1  0
 25 26  2  0
 25 27  1  0
 27 28  1  0
 28 29  1  0
 28 30  1  0
 28 31  1  0
 31 32  2  0
 32 33  1  0
 32 34  1  0
 34 35  1  0
 34 36  2  0
 36 37  1  0
 36 38  1  0
 38 39  1  0
 38 40  2  0
 40 41  1  0
 11 42  1  0
 42 43  1  0
 42 44  1  0
 42 45  1  0
  7 46  1  0
 46 47  1  0
 46 48  2  0
 48 49  1  0
 48  2  1  0
 24 15  2  0
 40 31  1  0
M  CHG  4  11   1  16  -1  23  -1  27  -1
M  END
>  <UniqueID>  (34) 
32

>  <SMILES>  (34) 
C/N=c1\[n-]c(C(=O)[N-]Cc2ccc(F)cc2)c(C(=O)[N@H+](C)Cc2ccccc2)[n-]1

>  <Energy>  (34) 
83.51578065741944

>  <Genealogy>  (34) 
CN=c1[n-]c(C(=O)[N-]Cc2ccc(F)cc2)c(C(=O)[NH+](C)Cc2ccccc2)[n-]1 (protonated)
CN=c1[n-]c(C(=O)[N-]Cc2ccc(F)cc2)c(C(=O)[N@H+](C)Cc2ccccc2)[n-]1 (chirality)
C/N=c1\[n-]c(C(=O)[N-]Cc2ccc(F)cc2)c(C(=O)[N@H+](C)Cc2ccccc2)[n-]1 (cis-trans isomerization)
C/N=c1\[n-]c(C(=O)[N-]Cc2ccc(F)cc2)c(C(=O)[N@H+](C)Cc2ccccc2)[n-]1 (3D coordinates assigned)
C/N=c1\[n-]c(C(=O)[N-]Cc2ccc(F)cc2)c(C(=O)[N@H+](C)Cc2ccccc2)[n-]1 (optimized conformer: 83.51578065741944 kcal/mol)

>  <smiles>  (34) 
CN=c1[nH]c(C(=O)NCc2ccc(F)cc2)c(C(=O)N(C)Cc2ccccc2)[nH]1

>  <score_type>  (34) 
oracle

>  <origin>  (34) 
adg

>  <m_score__min__energy>  (34) 
-11.75

>  <m_primary>  (34) 
energy

$$$$
34:0
     RDKit          3D

 65 68  0  0  0  0  0  0  0  0999 V2000
   52.8050   23.6780   45.5980 C   0  0  0  0  0  0  0  0  0  0  0  0
   53.9410   23.8620   44.7610 O   0  0  0  0  0  0  0  0  0  0  0  0
   55.2320   24.1520   45.2280 C   0  0  0  0  0  0  0  0  0  0  0  0
   56.2900   23.2270   45.1350 C   0  0  0  0  0  0  0  0  0  0  0  0
   57.5620   23.5580   45.6090 C   0  0  0  0  0  0  0  0  0  0  0  0
   57.8020   24.8190   46.1760 C   0  0  0  0  0  0  0  0  0  0  0  0
   59.1720   25.1750   46.6950 C   0  0  0  0  0  0  0  0  0  0  0  0
   59.7720   26.2430   45.8930 N   0  0  0  0  0  0  0  0  0  0  0  0
   59.2050   27.5630   45.7370 C   0  0  0  0  0  0  0  0  0  0  0  0
   58.7420   28.0150   44.4870 C   0  0  0  0  0  0  0  0  0  0  0  0
   58.1880   29.2890   44.3490 C   0  0  0  0  0  0  0  0  0  0  0  0
   58.0940   30.1530   45.4530 C   0  0  0  0  0  0  0  0  0  0  0  0
   57.4640   31.4930   45.3290 C   0  0  0  0  0  0  0  0  0  0  0  0
   56.5920   31.6890   44.4380 O   0  0  0  0  0  0  0  0  0  0  0  0
   57.8320   32.5710   46.2050 N   0  0  0  0  0  0  0  0  0  0  0  0
   57.5750   33.9740   45.8800 C   0  0  0  0  0  0  0  0  0  0  0  0
   58.8860   34.7320   45.6630 C   0  0  0  0  0  0  0  0  0  0  0  0
   59.9300   34.3320   46.6720 C   0  0  0  0  0  0  0  0  0  0  0  0
   61.0890   33.6480   46.2660 C   0  0  0  0  0  0  0  0  0  0  0  0
   62.0550   33.2810   47.2060 C   0  0  0  0  0  0  0  0  0  0  0  0
   61.8640   33.5780   48.5590 C   0  0  0  0  0  0  0  0  0  0  0  0
   60.7060   34.2390   48.9730 C   0  0  0  0  0  0  0  0  0  0  0  0
   59.7410   34.6160   48.0350 C   0  0  0  0  0  0  0  0  0  0  0  0
   58.5620   29.7070   46.7000 C   0  0  0  0  0  0  0  0  0  0  0  0
   59.1200   28.4290   46.8450 C   0  0  0  0  0  0  0  0  0  0  0  0
   59.5460   27.9900   48.1340 N   0  0  0  0  0  0  0  0  0  0  0  0
   60.4160   29.0310   49.2090 S   0  0  0  0  0  0  0  0  0  0  0  0
   61.1170   28.1940   50.2420 O   0  0  0  0  0  0  0  0  0  0  0  0
   61.4500   29.7950   48.4320 O   0  0  0  0  0  0  0  0  0  0  0  0
   59.3200   30.1460   50.0180 C   0  0  0  0  0  0  0  0  0  0  0  0
   59.1070   31.4300   49.4960 C   0  0  0  0  0  0  0  0  0  0  0  0
   58.2370   32.3140   50.1400 C   0  0  0  0  0  0  0  0  0  0  0  0
   57.5790   31.9210   51.3080 C   0  0  0  0  0  0  0  0  0  0  0  0
   57.8000   30.6480   51.8420 C   0  0  0  0  0  0  0  0  0  0  0  0
   58.6710   29.7620   51.2000 C   0  0  0  0  0  0  0  0  0  0  0  0
   56.7450   25.7350   46.2840 C   0  0  0  0  0  0  0  0  0  0  0  0
   55.4720   25.4060   45.8080 C   0  0  0  0  0  0  0  0  0  0  0  0
   54.4400   26.3310   45.9120 O   0  0  0  0  0  0  0  0  0  0  0  0
   53.1145   23.7281   46.6524 H   0  0  0  0  0  0  0  0  0  0  0  0
   52.0676   24.4684   45.3943 H   0  0  0  0  0  0  0  0  0  0  0  0
   52.3548   22.6952   45.3943 H   0  0  0  0  0  0  0  0  0  0  0  0
   56.1139   22.2381   44.6865 H   0  0  0  0  0  0  0  0  0  0  0  0
   58.3799   22.8260   45.5373 H   0  0  0  0  0  0  0  0  0  0  0  0
   59.0856   25.5129   47.7382 H   0  0  0  0  0  0  0  0  0  0  0  0
   59.8145   24.2844   46.6322 H   0  0  0  0  0  0  0  0  0  0  0  0
   60.6880   26.0260   45.4390 H   0  0  0  0  0  0  0  0  0  0  0  0
   58.8175   27.3569   43.6088 H   0  0  0  0  0  0  0  0  0  0  0  0
   57.8214   29.6197   43.3660 H   0  0  0  0  0  0  0  0  0  0  0  0
   58.2520   32.3590   47.1380 H   0  0  0  0  0  0  0  0  0  0  0  0
   56.9721   34.0265   44.9614 H   0  0  0  0  0  0  0  0  0  0  0  0
   57.0359   34.4367   46.7198 H   0  0  0  0  0  0  0  0  0  0  0  0
   59.2626   34.5123   44.6531 H   0  0  0  0  0  0  0  0  0  0  0  0
   58.6861   35.8071   45.7819 H   0  0  0  0  0  0  0  0  0  0  0  0
   61.2358   33.4008   45.2042 H   0  0  0  0  0  0  0  0  0  0  0  0
   62.9667   32.7579   46.8816 H   0  0  0  0  0  0  0  0  0  0  0  0
   62.6267   33.2906   49.2977 H   0  0  0  0  0  0  0  0  0  0  0  0
   60.5530   34.4634   50.0389 H   0  0  0  0  0  0  0  0  0  0  0  0
   58.8301   35.1370   48.3650 H   0  0  0  0  0  0  0  0  0  0  0  0
   58.4897   30.3697   47.5750 H   0  0  0  0  0  0  0  0  0  0  0  0
   59.6258   31.7421   48.5776 H   0  0  0  0  0  0  0  0  0  0  0  0
   58.0702   33.3198   49.7270 H   0  0  0  0  0  0  0  0  0  0  0  0
   56.8863   32.6139   51.8080 H   0  0  0  0  0  0  0  0  0  0  0  0
   57.2888   30.3433   52.7671 H   0  0  0  0  0  0  0  0  0  0  0  0
   58.8472   28.7620   51.6231 H   0  0  0  0  0  0  0  0  0  0  0  0
   56.9186   26.7181   46.7460 H   0  0  0  0  0  0  0  0  0  0  0  0
  1  2  1  0
  2  3  1  0
  3  4  2  0
  4  5  1  0
  5  6  2  0
  6  7  1  0
  7  8  1  0
  8  9  1  0
  9 10  2  0
 10 11  1  0
 11 12  2  0
 12 13  1  0
 13 14  2  0
 13 15  1  0
 15 16  1  0
 16 17  1  0
 17 18  1  0
 18 19  2  0
 19 20  1  0
 20 21  2  0
 21 22  1  0
 22 23  2  0
 12 24  1  0
 24 25  2  0
 25 26  1  0
 26 27  1  0
 27 28  2  0
 27 29  2  0
 27 30  1  0
 30 31  2  0
 31 32  1  0
 32 33  2  0
 33 34  1  0
 34 35  2  0
  6 36  1  0
 36 37  2  0
 37 38  1  0
 37  3  1  0
 25  9  1  0
 35 30  1  0
 23 18  1  0
  1 39  1  0
  1 40  1  0
  1 41  1  0
  4 42  1  0
  5 43  1  0
  7 44  1  0
  7 45  1  0
  8 46  1  0
 10 47  1  0
 11 48  1  0
 15 49  1  0
 16 50  1  0
 16 51  1  0
 17 52  1  0
 17 53  1  0
 19 54  1  0
 20 55  1  0
 21 56  1  0
 22 57  1  0
 23 58  1  0
 24 59  1  0
 31 60  1  0
 32 61  1  0
 33 62  1  0
 34 63  1  0
 35 64  1  0
 36 65  1  0
M  CHG  2  26  -1  38  -1
M  END
>  <UniqueID>  (35) 
33

>  <SMILES>  (35) 
COc1ccc(CNc2ccc(C(=O)NCCc3ccccc3)cc2[N-]S(=O)(=O)c2ccccc2)cc1[O-]

>  <Energy>  (35) 
73.76465131644359

>  <Genealogy>  (35) 
COc1ccc(CNc2ccc(C(=O)NCCc3ccccc3)cc2[N-]S(=O)(=O)c2ccccc2)cc1[O-] (protonated)
COc1ccc(CNc2ccc(C(=O)NCCc3ccccc3)cc2[N-]S(=O)(=O)c2ccccc2)cc1[O-] (3D coordinates assigned)
COc1ccc(CNc2ccc(C(=O)NCCc3ccccc3)cc2[N-]S(=O)(=O)c2ccccc2)cc1[O-] (optimized conformer: 73.76465131644359 kcal/mol)

>  <smiles>  (35) 
COc1ccc(CNc2ccc(C(=O)NCCc3ccccc3)cc2NS(=O)(=O)c2ccccc2)cc1O

>  <score_type>  (35) 
oracle

>  <origin>  (35) 
adg

>  <m_score__min__energy>  (35) 
-15

>  <m_primary>  (35) 
energy

$$$$
35:0
     RDKit          3D

 84 88  0  0  0  0  0  0  0  0999 V2000
   60.4950   28.0130   51.8550 O   0  0  0  0  0  0  0  0  0  0  0  0
   60.3830   29.1210   51.2650 C   0  0  0  0  0  0  0  0  0  0  0  0
   59.6580   30.2450   51.9630 C   0  0  0  0  0  0  0  0  0  0  0  0
   58.3720   30.6180   51.2580 C   0  0  0  0  0  0  0  0  0  0  0  0
   57.4080   29.8680   51.3250 O   0  0  0  0  0  0  0  0  0  0  0  0
   58.3310   31.8380   50.3470 C   0  0  2  0  0  0  0  0  0  0  0  0
   59.2580   31.7580   49.1150 C   0  0  0  0  0  0  0  0  0  0  0  0
   58.9760   32.7660   48.0290 C   0  0  0  0  0  0  0  0  0  0  0  0
   59.5730   34.0380   48.0640 C   0  0  0  0  0  0  0  0  0  0  0  0
   59.3840   34.9360   47.0110 C   0  0  0  0  0  0  0  0  0  0  0  0
   58.6130   34.5650   45.9070 C   0  0  0  0  0  0  0  0  0  0  0  0
   57.9990   33.3100   45.8720 C   0  0  0  0  0  0  0  0  0  0  0  0
   58.1740   32.4130   46.9290 C   0  0  0  0  0  0  0  0  0  0  0  0
   58.4890   33.1120   51.0590 N   0  0  0  0  0  0  0  0  0  0  0  0
   59.6530   33.6190   51.7270 C   0  0  0  0  0  0  0  0  0  0  0  0
   59.6030   33.8120   52.9720 O   0  0  0  0  0  0  0  0  0  0  0  0
   60.8390   33.8510   51.0200 O   0  0  0  0  0  0  0  0  0  0  0  0
   61.8990   32.9000   50.9260 C   0  0  0  0  0  0  0  0  0  0  0  0
   62.4540   32.8580   49.5280 C   0  0  0  0  0  0  0  0  0  0  0  0
   62.9120   34.0350   48.9120 C   0  0  0  0  0  0  0  0  0  0  0  0
   63.4310   33.9970   47.6140 C   0  0  0  0  0  0  0  0  0  0  0  0
   63.4960   32.7850   46.9230 C   0  0  0  0  0  0  0  0  0  0  0  0
   63.0530   31.6040   47.5310 C   0  0  0  0  0  0  0  0  0  0  0  0
   62.5310   31.6370   48.8300 C   0  0  0  0  0  0  0  0  0  0  0  0
   60.8750   29.2420   49.9210 N   0  0  0  0  0  0  0  0  0  0  0  0
   61.0700   28.1420   48.9780 C   0  0  0  0  0  0  0  0  0  0  0  0
   59.8350   27.9530   48.1400 C   0  0  0  0  0  0  0  0  0  0  0  0
   59.2290   29.0610   47.5290 C   0  0  0  0  0  0  0  0  0  0  0  0
   58.0730   28.9010   46.7610 C   0  0  0  0  0  0  0  0  0  0  0  0
   57.4940   27.6290   46.6010 C   0  0  0  0  0  0  0  0  0  0  0  0
   56.2750   27.4540   45.7830 C   0  0  0  0  0  0  0  0  0  0  0  0
   55.9070   28.3670   44.9940 O   0  0  0  0  0  0  0  0  0  0  0  0
   55.4850   26.2690   45.9270 N   0  0  0  0  0  0  0  0  0  0  0  0
   55.9520   24.9320   45.7070 C   0  0  0  0  0  0  0  0  0  0  0  0
   56.2150   24.5120   44.3990 C   0  0  0  0  0  0  0  0  0  0  0  0
   56.6220   23.1940   44.1490 C   0  0  0  0  0  0  0  0  0  0  0  0
   56.7250   22.2800   45.2040 C   0  0  0  0  0  0  0  0  0  0  0  0
   56.4280   22.6810   46.5140 C   0  0  0  0  0  0  0  0  0  0  0  0
   56.4880   21.5140   47.8300 S   0  0  0  0  0  0  0  0  0  0  0  0
   55.2970   20.6000   47.7640 O   0  0  0  0  0  0  0  0  0  0  0  0
   57.7310   20.6790   47.6800 O   0  0  0  0  0  0  0  0  0  0  0  0
   56.5250   22.2920   49.3800 N   0  0  0  0  0  0  0  0  0  0  0  0
   57.4750   21.9550   50.3920 C   0  0  0  0  0  0  0  0  0  0  0  0
   58.1700   22.9650   51.0790 C   0  0  0  0  0  0  0  0  0  0  0  0
   59.1190   22.6300   52.0510 C   0  0  0  0  0  0  0  0  0  0  0  0
   59.3800   21.2900   52.3430 C   0  0  0  0  0  0  0  0  0  0  0  0
   58.7000   20.2760   51.6550 C   0  0  0  0  0  0  0  0  0  0  0  0
   57.7550   20.6020   50.6740 C   0  0  0  0  0  0  0  0  0  0  0  0
   57.0910   19.5700   50.0090 O   0  0  0  0  0  0  0  0  0  0  0  0
   56.0550   24.0100   46.7650 C   0  0  0  0  0  0  0  0  0  0  0  0
   58.1020   26.5210   47.2120 C   0  0  0  0  0  0  0  0  0  0  0  0
   59.2730   26.6800   47.9640 C   0  0  0  0  0  0  0  0  0  0  0  0
   59.4210   29.9303   52.9900 H   0  0  0  0  0  0  0  0  0  0  0  0
   60.3153   31.1270   51.9572 H   0  0  0  0  0  0  0  0  0  0  0  0
   57.3057   31.8170   49.9492 H   0  0  0  0  0  0  0  0  0  0  0  0
   60.2924   31.9083   49.4578 H   0  0  0  0  0  0  0  0  0  0  0  0
   59.0816   30.7696   48.6656 H   0  0  0  0  0  0  0  0  0  0  0  0
   60.1925   34.3279   48.9255 H   0  0  0  0  0  0  0  0  0  0  0  0
   59.8423   35.9352   47.0512 H   0  0  0  0  0  0  0  0  0  0  0  0
   58.4890   35.2612   45.0644 H   0  0  0  0  0  0  0  0  0  0  0  0
   57.3764   33.0277   45.0102 H   0  0  0  0  0  0  0  0  0  0  0  0
   57.6835   31.4288   46.9007 H   0  0  0  0  0  0  0  0  0  0  0  0
   62.7006   33.1826   51.6243 H   0  0  0  0  0  0  0  0  0  0  0  0
   61.5047   31.9050   51.1798 H   0  0  0  0  0  0  0  0  0  0  0  0
   62.8620   34.9911   49.4536 H   0  0  0  0  0  0  0  0  0  0  0  0
   63.7881   34.9217   47.1372 H   0  0  0  0  0  0  0  0  0  0  0  0
   63.8961   32.7581   45.8987 H   0  0  0  0  0  0  0  0  0  0  0  0
   63.1151   30.6495   46.9878 H   0  0  0  0  0  0  0  0  0  0  0  0
   62.1809   30.7089   49.3055 H   0  0  0  0  0  0  0  0  0  0  0  0
   61.9227   28.3720   48.3223 H   0  0  0  0  0  0  0  0  0  0  0  0
   61.2681   27.2174   49.5400 H   0  0  0  0  0  0  0  0  0  0  0  0
   59.6669   30.0621   47.6554 H   0  0  0  0  0  0  0  0  0  0  0  0
   57.6125   29.7755   46.2782 H   0  0  0  0  0  0  0  0  0  0  0  0
   56.1021   25.2185   43.5634 H   0  0  0  0  0  0  0  0  0  0  0  0
   56.8606   22.8779   43.1228 H   0  0  0  0  0  0  0  0  0  0  0  0
   57.0396   21.2450   45.0048 H   0  0  0  0  0  0  0  0  0  0  0  0
   57.9673   24.0220   50.8519 H   0  0  0  0  0  0  0  0  0  0  0  0
   59.6605   23.4240   52.5861 H   0  0  0  0  0  0  0  0  0  0  0  0
   60.1202   21.0298   53.1140 H   0  0  0  0  0  0  0  0  0  0  0  0
   58.9090   19.2211   51.8861 H   0  0  0  0  0  0  0  0  0  0  0  0
   56.5140   19.7310   49.1890 H   0  0  0  0  0  0  0  0  0  0  0  0
   55.8419   24.3331   47.7947 H   0  0  0  0  0  0  0  0  0  0  0  0
   57.6561   25.5218   47.0995 H   0  0  0  0  0  0  0  0  0  0  0  0
   59.7544   25.8018   48.4190 H   0  0  0  0  0  0  0  0  0  0  0  0
  1  2  2  0
  2  3  1  0
  3  4  1  0
  4  5  2  0
  4  6  1  0
  6  7  1  0
  7  8  1  0
  8  9  2  0
  9 10  1  0
 10 11  2  0
 11 12  1  0
 12 13  2  0
  6 14  1  0
 14 15  1  0
 15 16  2  0
 15 17  1  0
 17 18  1  0
 18 19  1  0
 19 20  2  0
 20 21  1  0
 21 22  2  0
 22 23  1  0
 23 24  2  0
  2 25  1  0
 25 26  1  0
 26 27  1  0
 27 28  2  0
 28 29  1  0
 29 30  2  0
 30 31  1  0
 31 32  2  0
 31 33  1  0
 33 34  1  0
 34 35  2  0
 35 36  1  0
 36 37  2  0
 37 38  1  0
 38 39  1  0
 39 40  2  0
 39 41  2  0
 39 42  1  0
 42 43  1  0
 43 44  2  0
 44 45  1  0
 45 46  2  0
 46 47  1  0
 47 48  2  0
 48 49  1  0
 38 50  2  0
 30 51  1  0
 51 52  2  0
 13  8  1  0
 24 19  1  0
 52 27  1  0
 50 34  1  0
 48 43  1  0
  3 53  1  0
  3 54  1  0
  6 55  1  6
  7 56  1  0
  7 57  1  0
  9 58  1  0
 10 59  1  0
 11 60  1  0
 12 61  1  0
 13 62  1  0
 18 63  1  0
 18 64  1  0
 20 65  1  0
 21 66  1  0
 22 67  1  0
 23 68  1  0
 24 69  1  0
 26 70  1  0
 26 71  1  0
 28 72  1  0
 29 73  1  0
 35 74  1  0
 36 75  1  0
 37 76  1  0
 44 77  1  0
 45 78  1  0
 46 79  1  0
 47 80  1  0
 49 81  1  0
 50 82  1  0
 51 83  1  0
 52 84  1  0
M  CHG  4  14  -1  25  -1  33  -1  42  -1
M  END
>  <UniqueID>  (36) 
34

>  <SMILES>  (36) 
O=C(CC(=O)[C@H](Cc1ccccc1)[N-]C(=O)OCc1ccccc1)[N-]Cc1ccc(C(=O)[N-]c2cccc(S(=O)(=O)[N-]c3ccccc3O)c2)cc1

>  <Energy>  (36) 
101.71912685340318

>  <Genealogy>  (36) 
O=C(CC(=O)C(Cc1ccccc1)[N-]C(=O)OCc1ccccc1)[N-]Cc1ccc(C(=O)[N-]c2cccc(S(=O)(=O)[N-]c3ccccc3O)c2)cc1 (protonated)
O=C(CC(=O)[C@H](Cc1ccccc1)[N-]C(=O)OCc1ccccc1)[N-]Cc1ccc(C(=O)[N-]c2cccc(S(=O)(=O)[N-]c3ccccc3O)c2)cc1 (chirality)
O=C(CC(=O)[C@H](Cc1ccccc1)[N-]C(=O)OCc1ccccc1)[N-]Cc1ccc(C(=O)[N-]c2cccc(S(=O)(=O)[N-]c3ccccc3O)c2)cc1 (3D coordinates assigned)
O=C(CC(=O)[C@H](Cc1ccccc1)[N-]C(=O)OCc1ccccc1)[N-]Cc1ccc(C(=O)[N-]c2cccc(S(=O)(=O)[N-]c3ccccc3O)c2)cc1 (optimized conformer: 101.71912685340318 kcal/mol)

>  <smiles>  (36) 
O=C(CC(=O)C(Cc1ccccc1)NC(=O)OCc1ccccc1)NCc1ccc(C(=O)Nc2cccc(S(=O)(=O)Nc3ccccc3O)c2)cc1

>  <score_type>  (36) 
oracle

>  <origin>  (36) 
adg

>  <m_score__min__energy>  (36) 
-18.129999999999999

>  <m_primary>  (36) 
energy

$$$$
36:0
     RDKit          3D

 26 27  0  0  0  0  0  0  0  0999 V2000
   59.4480   26.0330   46.5480 C   0  0  0  0  0  0  0  0  0  0  0  0
   58.6880   27.3160   46.3140 C   0  0  0  0  0  0  0  0  0  0  0  0
   59.2480   28.5270   46.7490 C   0  0  0  0  0  0  0  0  0  0  0  0
   58.5600   29.7220   46.5410 C   0  0  0  0  0  0  0  0  0  0  0  0
   59.0570   30.8140   46.9250 O   0  0  0  0  0  0  0  0  0  0  0  0
   57.3210   29.7030   45.9070 C   0  0  0  0  0  0  0  0  0  0  0  0
   56.7780   28.4870   45.4890 C   0  0  0  0  0  0  0  0  0  0  0  0
   55.5350   28.4830   44.8620 O   0  0  0  0  0  0  0  0  0  0  0  0
   57.4580   27.3150   45.6960 N   0  0  0  0  0  0  0  0  0  0  0  0
   56.8600   26.0830   45.2570 C   0  0  0  0  0  0  0  0  0  0  0  0
   57.6030   25.1810   44.4810 C   0  0  0  0  0  0  0  0  0  0  0  0
   57.0280   23.9820   44.0520 C   0  0  0  0  0  0  0  0  0  0  0  0
   55.7050   23.6730   44.3950 C   0  0  0  0  0  0  0  0  0  0  0  0
   55.1210   22.4810   43.9740 O   0  0  0  0  0  0  0  0  0  0  0  0
   54.9620   24.5700   45.1720 C   0  0  0  0  0  0  0  0  0  0  0  0
   55.5350   25.7710   45.6030 C   0  0  0  0  0  0  0  0  0  0  0  0
   54.7850   26.6560   46.3720 O   0  0  0  0  0  0  0  0  0  0  0  0
   59.5507   25.8597   47.6294 H   0  0  0  0  0  0  0  0  0  0  0  0
   58.9008   25.1944   46.0926 H   0  0  0  0  0  0  0  0  0  0  0  0
   60.4463   26.1099   46.0926 H   0  0  0  0  0  0  0  0  0  0  0  0
   60.2261   28.5336   47.2522 H   0  0  0  0  0  0  0  0  0  0  0  0
   56.7727   30.6412   45.7363 H   0  0  0  0  0  0  0  0  0  0  0  0
   58.6421   25.4185   44.2092 H   0  0  0  0  0  0  0  0  0  0  0  0
   57.6154   23.2788   43.4434 H   0  0  0  0  0  0  0  0  0  0  0  0
   55.1360   22.2000   43.0010 H   0  0  0  0  0  0  0  0  0  0  0  0
   53.9238   24.3293   45.4445 H   0  0  0  0  0  0  0  0  0  0  0  0
  1  2  1  0
  2  3  2  0
  3  4  1  0
  4  5  2  0
  4  6  1  0
  6  7  2  0
  7  8  1  0
  7  9  1  0
  9 10  1  0
 10 11  2  0
 11 12  1  0
 12 13  2  0
 13 14  1  0
 13 15  1  0
 15 16  2  0
 16 17  1  0
  9  2  1  0
 16 10  1  0
  1 18  1  0
  1 19  1  0
  1 20  1  0
  3 21  1  0
  6 22  1  0
 11 23  1  0
 12 24  1  0
 14 25  1  0
 15 26  1  0
M  CHG  2   8  -1  17  -1
M  END
>  <UniqueID>  (37) 
35

>  <SMILES>  (37) 
Cc1cc(=O)cc([O-])n1-c1ccc(O)cc1[O-]

>  <Energy>  (37) 
36.85458441308361

>  <Genealogy>  (37) 
Cc1cc(=O)cc([O-])n1-c1ccc(O)cc1[O-] (protonated)
Cc1cc(=O)cc([O-])n1-c1ccc(O)cc1[O-] (3D coordinates assigned)
Cc1cc(=O)cc([O-])n1-c1ccc(O)cc1[O-] (optimized conformer: 36.85458441308361 kcal/mol)

>  <smiles>  (37) 
Cc1cc(=O)cc(O)n1-c1ccc(O)cc1O

>  <score_type>  (37) 
oracle

>  <origin>  (37) 
adg

>  <m_score__min__energy>  (37) 
-12.1

>  <m_primary>  (37) 
energy

$$$$
37:0
     RDKit          3D

 45 48  0  0  0  0  0  0  0  0999 V2000
   59.6730   27.9340   45.6870 O   0  0  0  0  0  0  0  0  0  0  0  0
   58.7260   28.4550   46.3340 C   0  0  0  0  0  0  0  0  0  0  0  0
   57.7800   27.5600   47.0860 C   0  0  0  0  0  0  0  0  0  0  0  0
   57.4890   26.3630   46.2990 N   0  0  0  0  0  0  0  0  0  0  0  0
   56.2790   25.9830   45.8310 C   0  0  0  0  0  0  0  0  0  0  0  0
   55.1100   26.7160   45.9960 O   0  0  0  0  0  0  0  0  0  0  0  0
   56.3740   24.7690   45.1810 C   0  0  0  0  0  0  0  0  0  0  0  0
   57.6870   24.3810   45.2660 C   0  0  0  0  0  0  0  0  0  0  0  0
   58.3490   25.3720   45.9650 C   0  0  0  0  0  0  0  0  0  0  0  0
   59.7040   25.3450   46.2900 O   0  0  0  0  0  0  0  0  0  0  0  0
   58.2170   23.0940   44.7230 C   0  0  0  0  0  0  0  0  0  0  0  0
   57.1470   22.3110   43.9900 C   0  0  0  0  0  0  0  0  0  0  0  0
   55.8520   22.6940   43.9060 C   0  0  0  0  0  0  0  0  0  0  0  0
   55.2990   23.9570   44.5350 C   0  0  0  0  0  0  0  0  0  0  0  0
   58.5380   29.8750   46.2650 N   0  0  0  0  0  0  0  0  0  0  0  0
   58.8000   30.8160   47.3150 C   0  0  0  0  0  0  0  0  0  0  0  0
   58.9160   30.3390   48.6260 C   0  0  0  0  0  0  0  0  0  0  0  0
   59.1520   31.2220   49.6820 C   0  0  0  0  0  0  0  0  0  0  0  0
   59.2450   32.5930   49.4380 C   0  0  0  0  0  0  0  0  0  0  0  0
   59.0970   33.0850   48.1390 C   0  0  0  0  0  0  0  0  0  0  0  0
   58.8760   32.2030   47.0640 C   0  0  0  0  0  0  0  0  0  0  0  0
   58.6660   32.6740   45.7590 O   0  0  0  0  0  0  0  0  0  0  0  0
   57.4290   32.7280   45.1010 C   0  0  0  0  0  0  0  0  0  0  0  0
   56.7410   33.7840   45.0910 O   0  0  0  0  0  0  0  0  0  0  0  0
   56.9620   31.5570   44.3540 C   0  0  0  0  0  0  0  0  0  0  0  0
   57.3510   31.2080   43.0760 C   0  0  0  0  0  0  0  0  0  0  0  0
   56.6600   30.0530   42.7820 C   0  0  0  0  0  0  0  0  0  0  0  0
   55.8950   29.7700   43.8950 C   0  0  0  0  0  0  0  0  0  0  0  0
   56.0970   30.6850   44.8160 O   0  0  0  0  0  0  0  0  0  0  0  0
   58.2397   27.2649   48.0408 H   0  0  0  0  0  0  0  0  0  0  0  0
   56.8426   28.1039   47.2744 H   0  0  0  0  0  0  0  0  0  0  0  0
   60.2860   26.1680   46.2100 H   0  0  0  0  0  0  0  0  0  0  0  0
   59.0389   23.3131   44.0256 H   0  0  0  0  0  0  0  0  0  0  0  0
   58.5687   22.4845   45.5685 H   0  0  0  0  0  0  0  0  0  0  0  0
   57.4410   21.3734   43.4956 H   0  0  0  0  0  0  0  0  0  0  0  0
   55.1581   22.0491   43.3469 H   0  0  0  0  0  0  0  0  0  0  0  0
   54.8158   24.5622   43.7538 H   0  0  0  0  0  0  0  0  0  0  0  0
   54.5762   23.6654   45.3112 H   0  0  0  0  0  0  0  0  0  0  0  0
   58.8206   29.2615   48.8258 H   0  0  0  0  0  0  0  0  0  0  0  0
   59.2646   30.8368   50.7062 H   0  0  0  0  0  0  0  0  0  0  0  0
   59.4351   33.2872   50.2698 H   0  0  0  0  0  0  0  0  0  0  0  0
   59.1535   34.1680   47.9549 H   0  0  0  0  0  0  0  0  0  0  0  0
   58.0632   31.7404   42.4285 H   0  0  0  0  0  0  0  0  0  0  0  0
   56.7083   29.4733   41.8484 H   0  0  0  0  0  0  0  0  0  0  0  0
   55.2184   28.9086   43.9959 H   0  0  0  0  0  0  0  0  0  0  0  0
  1  2  2  0
  2  3  1  0
  3  4  1  0
  4  5  1  0
  5  6  1  0
  5  7  2  0
  7  8  1  0
  8  9  2  0
  9 10  1  0
  8 11  1  0
 11 12  1  0
 12 13  2  0
 13 14  1  0
  2 15  1  0
 15 16  1  0
 16 17  2  0
 17 18  1  0
 18 19  2  0
 19 20  1  0
 20 21  2  0
 21 22  1  0
 22 23  1  0
 23 24  2  0
 23 25  1  0
 25 26  2  0
 26 27  1  0
 27 28  2  0
 28 29  1  0
  9  4  1  0
 21 16  1  0
 29 25  1  0
 14  7  1  0
  3 30  1  0
  3 31  1  0
 10 32  1  0
 11 33  1  0
 11 34  1  0
 12 35  1  0
 13 36  1  0
 14 37  1  0
 14 38  1  0
 17 39  1  0
 18 40  1  0
 19 41  1  0
 20 42  1  0
 26 43  1  0
 27 44  1  0
 28 45  1  0
M  CHG  2   6  -1  15  -1
M  END
>  <UniqueID>  (38) 
36

>  <SMILES>  (38) 
O=C(Cn1c([O-])c2c(c1O)CC=CC2)[N-]c1ccccc1OC(=O)c1ccco1

>  <Energy>  (38) 
113.64803045981296

>  <Genealogy>  (38) 
O=C(Cn1c([O-])c2c(c1O)CC=CC2)[N-]c1ccccc1OC(=O)c1ccco1 (protonated)
O=C(Cn1c([O-])c2c(c1O)CC=CC2)[N-]c1ccccc1OC(=O)c1ccco1 (3D coordinates assigned)
O=C(Cn1c([O-])c2c(c1O)CC=CC2)[N-]c1ccccc1OC(=O)c1ccco1 (nonaromatic ring conformer: 113.64803045981296 kcal/mol)

>  <smiles>  (38) 
O=C(Cn1c(O)c2c(c1O)CC=CC2)Nc1ccccc1OC(=O)c1ccco1

>  <score_type>  (38) 
oracle

>  <origin>  (38) 
adg

>  <m_score__min__energy>  (38) 
-12.4

>  <m_primary>  (38) 
energy

$$$$
38:0
     RDKit          3D

 50 52  0  0  0  0  0  0  0  0999 V2000
   57.3950   31.9850   42.2500 C   0  0  0  0  0  0  0  0  0  0  0  0
   57.0110   30.6230   43.3290 S   0  0  0  0  0  0  0  0  0  0  0  0
   56.1270   29.6620   42.5840 O   0  0  0  0  0  0  0  0  0  0  0  0
   56.2750   31.1070   44.5470 O   0  0  0  0  0  0  0  0  0  0  0  0
   58.4630   29.7980   43.7980 N   0  0  0  0  0  0  0  0  0  0  0  0
   58.5300   28.7760   44.8140 C   0  0  0  0  0  0  0  0  0  0  0  0
   58.2520   27.4270   44.5210 C   0  0  0  0  0  0  0  0  0  0  0  0
   58.3170   26.4550   45.5200 C   0  0  0  0  0  0  0  0  0  0  0  0
   58.6630   26.8080   46.8230 C   0  0  0  0  0  0  0  0  0  0  0  0
   58.9690   28.1390   47.1330 C   0  0  0  0  0  0  0  0  0  0  0  0
   59.2630   28.5170   48.5290 C   0  0  0  0  0  0  0  0  0  0  0  0
   60.4280   29.0240   48.9580 C   0  0  0  0  0  0  0  0  0  0  0  0
   60.7020   30.4550   49.2410 C   0  0  0  0  0  0  0  0  0  0  0  0
   59.7790   31.2310   49.6030 O   0  0  0  0  0  0  0  0  0  0  0  0
   62.0080   31.0070   49.0250 N   0  0  0  0  0  0  0  0  0  0  0  0
   62.2920   32.0620   48.3190 C   0  0  0  0  0  0  0  0  0  0  0  0
   61.6110   32.4080   47.1200 N   0  0  0  0  0  0  0  0  0  0  0  0
   62.2850   33.4590   46.3840 C   0  0  0  0  0  0  0  0  0  0  0  0
   63.7390   33.4870   46.8630 C   0  0  0  0  0  0  0  0  0  0  0  0
   63.7720   32.9950   48.6240 S   0  0  0  0  0  0  0  0  0  0  0  0
   58.9020   29.1250   46.1300 C   0  0  0  0  0  0  0  0  0  0  0  0
   59.2000   30.4530   46.4430 O   0  0  0  0  0  0  0  0  0  0  0  0
   58.1710   31.3850   46.7580 C   0  0  0  0  0  0  0  0  0  0  0  0
   58.6600   32.7760   46.4790 C   0  0  0  0  0  0  0  0  0  0  0  0
   58.8160   33.2270   45.1590 C   0  0  0  0  0  0  0  0  0  0  0  0
   59.2550   34.5310   44.9100 C   0  0  0  0  0  0  0  0  0  0  0  0
   59.5280   35.3950   45.9750 C   0  0  0  0  0  0  0  0  0  0  0  0
   59.3560   34.9570   47.2910 C   0  0  0  0  0  0  0  0  0  0  0  0
   58.9160   33.6540   47.5450 C   0  0  0  0  0  0  0  0  0  0  0  0
   57.6448   32.8709   42.8524 H   0  0  0  0  0  0  0  0  0  0  0  0
   58.2532   31.7193   41.6153 H   0  0  0  0  0  0  0  0  0  0  0  0
   56.5244   32.2067   41.6153 H   0  0  0  0  0  0  0  0  0  0  0  0
   59.3450   30.1340   43.3510 H   0  0  0  0  0  0  0  0  0  0  0  0
   57.9811   27.1368   43.4951 H   0  0  0  0  0  0  0  0  0  0  0  0
   58.0941   25.4054   45.2780 H   0  0  0  0  0  0  0  0  0  0  0  0
   58.6958   26.0397   47.6095 H   0  0  0  0  0  0  0  0  0  0  0  0
   58.4665   28.3719   49.2737 H   0  0  0  0  0  0  0  0  0  0  0  0
   61.2549   28.3156   49.1142 H   0  0  0  0  0  0  0  0  0  0  0  0
   60.9430   31.7660   46.6410 H   0  0  0  0  0  0  0  0  0  0  0  0
   62.2477   33.2471   45.3052 H   0  0  0  0  0  0  0  0  0  0  0  0
   61.7984   34.4303   46.5568 H   0  0  0  0  0  0  0  0  0  0  0  0
   64.3402   32.7832   46.2687 H   0  0  0  0  0  0  0  0  0  0  0  0
   64.1584   34.4968   46.7434 H   0  0  0  0  0  0  0  0  0  0  0  0
   57.2846   31.1763   46.1409 H   0  0  0  0  0  0  0  0  0  0  0  0
   57.9043   31.2943   47.8213 H   0  0  0  0  0  0  0  0  0  0  0  0
   58.5925   32.5532   44.3187 H   0  0  0  0  0  0  0  0  0  0  0  0
   59.3858   34.8778   43.8743 H   0  0  0  0  0  0  0  0  0  0  0  0
   59.8780   36.4189   45.7771 H   0  0  0  0  0  0  0  0  0  0  0  0
   59.5671   35.6383   48.1284 H   0  0  0  0  0  0  0  0  0  0  0  0
   58.7701   33.3161   48.5816 H   0  0  0  0  0  0  0  0  0  0  0  0
  1  2  1  0
  2  3  2  0
  2  4  2  0
  2  5  1  0
  5  6  1  0
  6  7  2  0
  7  8  1  0
  8  9  2  0
  9 10  1  0
 10 11  1  0
 11 12  2  3
 12 13  1  0
 13 14  2  0
 13 15  1  0
 15 16  2  3
 16 17  1  0
 17 18  1  0
 18 19  1  0
 19 20  1  0
 10 21  2  0
 21 22  1  0
 22 23  1  0
 23 24  1  0
 24 25  2  0
 25 26  1  0
 26 27  2  0
 27 28  1  0
 28 29  2  0
 21  6  1  0
 29 24  1  0
 20 16  1  0
  1 30  1  0
  1 31  1  0
  1 32  1  0
  5 33  1  0
  7 34  1  0
  8 35  1  0
  9 36  1  0
 11 37  1  0
 12 38  1  0
 17 39  1  0
 18 40  1  0
 18 41  1  0
 19 42  1  0
 19 43  1  0
 23 44  1  0
 23 45  1  0
 25 46  1  0
 26 47  1  0
 27 48  1  0
 28 49  1  0
 29 50  1  0
M  END
>  <UniqueID>  (39) 
37

>  <SMILES>  (39) 
CS(=O)(=O)Nc1cccc(C=CC(=O)N=C2NCCS2)c1OCc1ccccc1

>  <Energy>  (39) 
74.85442490340296

>  <Genealogy>  (39) 
CS(=O)(=O)Nc1cccc(C=CC(=O)N=C2NCCS2)c1OCc1ccccc1 (3D coordinates assigned)
CS(=O)(=O)Nc1cccc(C=CC(=O)N=C2NCCS2)c1OCc1ccccc1 (nonaromatic ring conformer: 74.85442490340296 kcal/mol)

>  <smiles>  (39) 
CS(=O)(=O)Nc1cccc(C=CC(=O)N=C2NCCS2)c1OCc1ccccc1

>  <score_type>  (39) 
oracle

>  <origin>  (39) 
adg

>  <m_score__min__energy>  (39) 
-8.7300000000000004

>  <m_primary>  (39) 
energy

$$$$
39:0
     RDKit          3D

 63 66  0  0  0  0  0  0  0  0999 V2000
   57.0250   24.9040   44.6960 C   0  0  0  0  0  0  0  0  0  0  0  0
   56.9460   25.2970   46.1650 C   0  0  0  0  0  0  0  0  0  0  0  0
   57.2200   26.6860   46.3280 O   0  0  0  0  0  0  0  0  0  0  0  0
   58.4890   27.2470   46.1390 C   0  0  0  0  0  0  0  0  0  0  0  0
   59.2810   26.7740   45.2790 O   0  0  0  0  0  0  0  0  0  0  0  0
   58.9050   28.4400   46.9620 C   0  0  2  0  0  0  0  0  0  0  0  0
   59.0380   29.6800   46.0760 C   0  0  0  0  0  0  0  0  0  0  0  0
   58.0630   29.9640   44.9930 C   0  0  0  0  0  0  0  0  0  0  0  0
   58.4080   30.8400   43.9470 C   0  0  0  0  0  0  0  0  0  0  0  0
   57.4950   31.1160   42.9250 C   0  0  0  0  0  0  0  0  0  0  0  0
   56.2270   30.5290   42.9400 C   0  0  0  0  0  0  0  0  0  0  0  0
   55.8690   29.6680   43.9800 C   0  0  0  0  0  0  0  0  0  0  0  0
   56.7780   29.3900   45.0040 C   0  0  0  0  0  0  0  0  0  0  0  0
   59.9610   30.5690   46.3130 N   0  0  0  0  0  0  0  0  0  0  0  0
   60.8750   30.4710   47.4050 C   0  0  0  0  0  0  0  0  0  0  0  0
   62.1000   31.5540   47.5130 S   0  0  0  0  0  0  0  0  0  0  0  0
   60.7550   29.3660   48.3170 N   0  0  0  0  0  0  0  0  0  0  0  0
   61.1110   29.5160   49.7430 C   0  0  0  0  0  0  0  0  0  0  0  0
   59.9870   30.1310   50.5480 C   0  0  0  0  0  0  0  0  0  0  0  0
   59.0880   29.2890   51.2280 C   0  0  0  0  0  0  0  0  0  0  0  0
   58.0360   29.8250   51.9740 C   0  0  0  0  0  0  0  0  0  0  0  0
   57.8730   31.2070   52.0610 C   0  0  0  0  0  0  0  0  0  0  0  0
   58.7720   32.0570   51.4140 C   0  0  0  0  0  0  0  0  0  0  0  0
   59.8360   31.5310   50.6710 C   0  0  0  0  0  0  0  0  0  0  0  0
   60.7760   32.4300   50.0790 N   0  0  0  0  0  0  0  0  0  0  0  0
   60.2660   33.9960   49.5500 S   0  0  0  0  0  0  0  0  0  0  0  0
   61.4610   34.8960   49.4040 O   0  0  0  0  0  0  0  0  0  0  0  0
   59.3420   34.5820   50.5810 O   0  0  0  0  0  0  0  0  0  0  0  0
   59.4270   33.8720   48.0040 C   0  0  0  0  0  0  0  0  0  0  0  0
   58.3140   33.0310   47.8580 C   0  0  0  0  0  0  0  0  0  0  0  0
   57.6810   32.9140   46.6170 C   0  0  0  0  0  0  0  0  0  0  0  0
   58.1530   33.6370   45.5190 C   0  0  0  0  0  0  0  0  0  0  0  0
   59.2570   34.4810   45.6610 C   0  0  0  0  0  0  0  0  0  0  0  0
   59.8920   34.6010   46.9000 C   0  0  0  0  0  0  0  0  0  0  0  0
   60.2340   28.1270   47.7020 C   0  0  1  0  0  0  0  0  0  0  0  0
   60.0710   26.9530   48.6880 C   0  0  0  0  0  0  0  0  0  0  0  0
   57.2412   23.8285   44.6153 H   0  0  0  0  0  0  0  0  0  0  0  0
   56.0649   25.1228   44.2058 H   0  0  0  0  0  0  0  0  0  0  0  0
   57.8260   25.4768   44.2058 H   0  0  0  0  0  0  0  0  0  0  0  0
   55.9359   25.0810   46.5432 H   0  0  0  0  0  0  0  0  0  0  0  0
   57.6945   24.7195   46.7274 H   0  0  0  0  0  0  0  0  0  0  0  0
   58.1311   28.6514   47.7146 H   0  0  0  0  0  0  0  0  0  0  0  0
   59.4022   31.3104   43.9335 H   0  0  0  0  0  0  0  0  0  0  0  0
   57.7753   31.7965   42.1075 H   0  0  0  0  0  0  0  0  0  0  0  0
   55.5111   30.7448   42.1332 H   0  0  0  0  0  0  0  0  0  0  0  0
   54.8698   29.2081   43.9928 H   0  0  0  0  0  0  0  0  0  0  0  0
   56.4872   28.7177   45.8247 H   0  0  0  0  0  0  0  0  0  0  0  0
   61.3423   28.5236   50.1572 H   0  0  0  0  0  0  0  0  0  0  0  0
   61.9802   30.1872   49.8066 H   0  0  0  0  0  0  0  0  0  0  0  0
   59.2150   28.1978   51.1715 H   0  0  0  0  0  0  0  0  0  0  0  0
   57.3348   29.1557   52.4939 H   0  0  0  0  0  0  0  0  0  0  0  0
   57.0367   31.6273   52.6390 H   0  0  0  0  0  0  0  0  0  0  0  0
   58.6436   33.1469   51.4884 H   0  0  0  0  0  0  0  0  0  0  0  0
   61.6540   32.0370   49.6750 H   0  0  0  0  0  0  0  0  0  0  0  0
   57.9385   32.4624   48.7216 H   0  0  0  0  0  0  0  0  0  0  0  0
   56.8100   32.2516   46.5051 H   0  0  0  0  0  0  0  0  0  0  0  0
   57.6554   33.5418   44.5426 H   0  0  0  0  0  0  0  0  0  0  0  0
   59.6269   35.0518   44.7965 H   0  0  0  0  0  0  0  0  0  0  0  0
   60.7590   35.2691   47.0096 H   0  0  0  0  0  0  0  0  0  0  0  0
   60.9907   27.7812   46.9824 H   0  0  0  0  0  0  0  0  0  0  0  0
   60.1234   27.3307   49.7198 H   0  0  0  0  0  0  0  0  0  0  0  0
   59.0970   26.4688   48.5239 H   0  0  0  0  0  0  0  0  0  0  0  0
   60.8762   26.2218   48.5239 H   0  0  0  0  0  0  0  0  0  0  0  0
  1  2  1  0
  2  3  1  0
  3  4  1  0
  4  5  2  0
  4  6  1  0
  6  7  1  0
  7  8  1  0
  8  9  2  0
  9 10  1  0
 10 11  2  0
 11 12  1  0
 12 13  2  0
  7 14  2  0
 14 15  1  0
 15 16  2  0
 15 17  1  0
 17 18  1  0
 18 19  1  0
 19 20  2  0
 20 21  1  0
 21 22  2  0
 22 23  1  0
 23 24  2  0
 24 25  1  0
 25 26  1  0
 26 27  2  0
 26 28  2  0
 26 29  1  0
 29 30  2  0
 30 31  1  0
 31 32  2  0
 32 33  1  0
 33 34  2  0
 17 35  1  0
 35 36  1  0
 35  6  1  0
 13  8  1  0
 24 19  1  0
 34 29  1  0
  1 37  1  0
  1 38  1  0
  1 39  1  0
  2 40  1  0
  2 41  1  0
  6 42  1  1
  9 43  1  0
 10 44  1  0
 11 45  1  0
 12 46  1  0
 13 47  1  0
 18 48  1  0
 18 49  1  0
 20 50  1  0
 21 51  1  0
 22 52  1  0
 23 53  1  0
 25 54  1  0
 30 55  1  0
 31 56  1  0
 32 57  1  0
 33 58  1  0
 34 59  1  0
 35 60  1  6
 36 61  1  0
 36 62  1  0
 36 63  1  0
M  END
>  <UniqueID>  (40) 
38

>  <SMILES>  (40) 
CCOC(=O)[C@@H]1C(c2ccccc2)=NC(=S)N(Cc2ccccc2NS(=O)(=O)c2ccccc2)[C@H]1C

>  <Energy>  (40) 
75.7420054072796

>  <Genealogy>  (40) 
CCOC(=O)[C@@H]1C(c2ccccc2)=NC(=S)N(Cc2ccccc2NS(=O)(=O)c2ccccc2)[C@H]1C (chirality)
CCOC(=O)[C@@H]1C(c2ccccc2)=NC(=S)N(Cc2ccccc2NS(=O)(=O)c2ccccc2)[C@H]1C (3D coordinates assigned)
CCOC(=O)[C@@H]1C(c2ccccc2)=NC(=S)N(Cc2ccccc2NS(=O)(=O)c2ccccc2)[C@H]1C (nonaromatic ring conformer: 75.7420054072796 kcal/mol)

>  <smiles>  (40) 
CCOC(=O)C1C(c2ccccc2)=NC(=S)N(Cc2ccccc2NS(=O)(=O)c2ccccc2)C1C

>  <score_type>  (40) 
oracle

>  <origin>  (40) 
adg

>  <m_score__min__energy>  (40) 
-9.5800000000000001

>  <m_primary>  (40) 
energy

$$$$
40:0
     RDKit          3D

 49 51  0  0  0  0  0  0  0  0999 V2000
   59.6580   35.1900   46.7840 C   0  0  0  0  0  0  0  0  0  0  0  0
   58.9670   34.5260   45.6040 C   0  0  0  0  0  0  0  0  0  0  0  0
   57.8400   33.7350   46.0740 N   0  0  0  0  0  0  0  0  0  0  0  0
   57.9970   32.5820   46.9090 C   0  0  0  0  0  0  0  0  0  0  0  0
   58.1510   32.7210   48.1530 O   0  0  0  0  0  0  0  0  0  0  0  0
   58.0370   31.1970   46.3070 C   0  0  1  0  0  0  0  0  0  0  0  0
   57.7030   31.2260   44.8190 C   0  0  0  0  0  0  0  0  0  0  0  0
   58.4840   31.9490   43.8930 C   0  0  0  0  0  0  0  0  0  0  0  0
   58.1460   31.9680   42.5380 C   0  0  0  0  0  0  0  0  0  0  0  0
   57.0240   31.2740   42.0860 C   0  0  0  0  0  0  0  0  0  0  0  0
   56.2340   30.5610   42.9880 C   0  0  0  0  0  0  0  0  0  0  0  0
   56.5660   30.5330   44.3470 C   0  0  0  0  0  0  0  0  0  0  0  0
   55.7590   29.8170   45.2240 O   0  0  0  0  0  0  0  0  0  0  0  0
   59.3090   30.4910   46.5990 N   0  0  0  0  0  0  0  0  0  0  0  0
   59.5220   29.1600   46.0870 C   0  0  0  0  0  0  0  0  0  0  0  0
   60.3830   28.9750   45.1840 O   0  0  0  0  0  0  0  0  0  0  0  0
   58.7880   28.0010   46.6270 C   0  0  0  0  0  0  0  0  0  0  0  0
   59.2950   27.0290   47.8810 S   0  0  0  0  0  0  0  0  0  0  0  0
   58.1360   25.8420   47.8380 N   0  0  0  0  0  0  0  0  0  0  0  0
   57.3090   26.1740   46.8110 C   0  0  0  0  0  0  0  0  0  0  0  0
   56.1250   25.3340   46.5350 C   0  0  0  0  0  0  0  0  0  0  0  0
   54.9550   25.9310   45.9810 N   0  0  0  0  0  0  0  0  0  0  0  0
   56.1440   24.0910   46.7400 O   0  0  0  0  0  0  0  0  0  0  0  0
   57.6600   27.3630   46.1050 C   0  0  0  0  0  0  0  0  0  0  0  0
   56.9550   27.8620   44.9600 N   0  0  0  0  0  0  0  0  0  0  0  0
   60.3890   31.1110   47.3310 C   0  0  0  0  0  0  0  0  0  0  0  0
   61.1500   32.1460   46.7570 C   0  0  0  0  0  0  0  0  0  0  0  0
   62.1900   32.7420   47.4750 C   0  0  0  0  0  0  0  0  0  0  0  0
   62.4900   32.3050   48.7670 C   0  0  0  0  0  0  0  0  0  0  0  0
   61.7460   31.2730   49.3450 C   0  0  0  0  0  0  0  0  0  0  0  0
   60.6980   30.6770   48.6350 C   0  0  0  0  0  0  0  0  0  0  0  0
   59.9590   29.6630   49.2340 O   0  0  0  0  0  0  0  0  0  0  0  0
   59.2442   34.7924   47.7224 H   0  0  0  0  0  0  0  0  0  0  0  0
   60.7372   34.9814   46.7417 H   0  0  0  0  0  0  0  0  0  0  0  0
   59.4926   36.2767   46.7417 H   0  0  0  0  0  0  0  0  0  0  0  0
   58.6062   35.2992   44.9098 H   0  0  0  0  0  0  0  0  0  0  0  0
   59.6819   33.8685   45.0876 H   0  0  0  0  0  0  0  0  0  0  0  0
   57.2496   30.6050   46.7964 H   0  0  0  0  0  0  0  0  0  0  0  0
   59.3679   32.5033   44.2416 H   0  0  0  0  0  0  0  0  0  0  0  0
   58.7663   32.5317   41.8256 H   0  0  0  0  0  0  0  0  0  0  0  0
   56.7618   31.2888   41.0178 H   0  0  0  0  0  0  0  0  0  0  0  0
   55.3466   30.0187   42.6295 H   0  0  0  0  0  0  0  0  0  0  0  0
   55.0280   26.7140   45.2930 H   0  0  0  0  0  0  0  0  0  0  0  0
   57.3890   28.5450   44.3020 H   0  0  0  0  0  0  0  0  0  0  0  0
   55.9580   27.6020   44.7920 H   0  0  0  0  0  0  0  0  0  0  0  0
   60.9247   32.4882   45.7362 H   0  0  0  0  0  0  0  0  0  0  0  0
   62.7735   33.5569   47.0217 H   0  0  0  0  0  0  0  0  0  0  0  0
   63.3115   32.7729   49.3293 H   0  0  0  0  0  0  0  0  0  0  0  0
   61.9851   30.9280   50.3618 H   0  0  0  0  0  0  0  0  0  0  0  0
  1  2  1  0
  2  3  1  0
  3  4  1  0
  4  5  2  0
  4  6  1  0
  6  7  1  0
  7  8  2  0
  8  9  1  0
  9 10  2  0
 10 11  1  0
 11 12  2  0
 12 13  1  0
  6 14  1  0
 14 15  1  0
 15 16  2  0
 15 17  1  0
 17 18  1  0
 18 19  1  0
 19 20  2  0
 20 21  1  0
 21 22  1  0
 21 23  2  0
 20 24  1  0
 24 25  1  0
 14 26  1  0
 26 27  2  0
 27 28  1  0
 28 29  2  0
 29 30  1  0
 30 31  2  0
 31 32  1  0
 12  7  1  0
 24 17  2  0
 31 26  1  0
  1 33  1  0
  1 34  1  0
  1 35  1  0
  2 36  1  0
  2 37  1  0
  6 38  1  1
  8 39  1  0
  9 40  1  0
 10 41  1  0
 11 42  1  0
 22 43  1  0
 25 44  1  0
 25 45  1  0
 27 46  1  0
 28 47  1  0
 29 48  1  0
 30 49  1  0
M  CHG  4   3  -1  13  -1  22  -1  32  -1
M  END
>  <UniqueID>  (41) 
39

>  <SMILES>  (41) 
CC[N-]C(=O)[C@@H](c1ccccc1[O-])N(C(=O)c1snc(C([NH-])=O)c1N)c1ccccc1[O-]

>  <Energy>  (41) 
95.7757582990764

>  <Genealogy>  (41) 
CC[N-]C(=O)C(c1ccccc1[O-])N(C(=O)c1snc(C([NH-])=O)c1N)c1ccccc1[O-] (protonated)
CC[N-]C(=O)[C@@H](c1ccccc1[O-])N(C(=O)c1snc(C([NH-])=O)c1N)c1ccccc1[O-] (chirality)
CC[N-]C(=O)[C@@H](c1ccccc1[O-])N(C(=O)c1snc(C([NH-])=O)c1N)c1ccccc1[O-] (3D coordinates assigned)
CC[N-]C(=O)[C@@H](c1ccccc1[O-])N(C(=O)c1snc(C([NH-])=O)c1N)c1ccccc1[O-] (optimized conformer: 95.7757582990764 kcal/mol)

>  <smiles>  (41) 
CCNC(=O)C(c1ccccc1O)N(C(=O)c1snc(C(N)=O)c1N)c1ccccc1O

>  <score_type>  (41) 
oracle

>  <origin>  (41) 
adg

>  <m_score__min__energy>  (41) 
-14.76

>  <m_primary>  (41) 
energy

$$$$
41:0
     RDKit          3D

 57 60  0  0  0  0  0  0  0  0999 V2000
   60.8431   30.4488   49.8660 H   0  0  0  0  0  0  0  0  0  0  0  0
   60.6740   30.1570   48.8190 C   0  0  0  0  0  0  0  0  0  0  0  0
   59.7620   29.1410   48.5210 C   0  0  0  0  0  0  0  0  0  0  0  0
   59.2206   28.6386   49.3362 H   0  0  0  0  0  0  0  0  0  0  0  0
   59.5300   28.7550   47.1900 C   0  0  0  0  0  0  0  0  0  0  0  0
   58.5560   27.6780   46.8750 C   0  0  0  0  0  0  0  0  0  0  0  0
   58.6590   26.4180   47.4910 C   0  0  0  0  0  0  0  0  0  0  0  0
   59.4684   26.2266   48.2109 H   0  0  0  0  0  0  0  0  0  0  0  0
   57.7400   25.4070   47.1950 C   0  0  0  0  0  0  0  0  0  0  0  0
   57.8378   24.4221   47.6750 H   0  0  0  0  0  0  0  0  0  0  0  0
   56.6940   25.6400   46.2900 C   0  0  0  0  0  0  0  0  0  0  0  0
   55.7110   24.5470   45.9620 C   0  0  0  0  0  0  0  0  0  0  0  0
   56.0664   23.9953   45.0792 H   0  0  0  0  0  0  0  0  0  0  0  0
   55.6309   23.8734   46.8279 H   0  0  0  0  0  0  0  0  0  0  0  0
   54.3870   25.1060   45.6780 N   0  0  0  0  0  0  0  0  0  0  0  0
   53.3550   23.9370   44.9030 S   0  0  0  0  0  0  0  0  0  0  0  0
   53.4020   22.6340   45.6520 O   0  0  0  0  0  0  0  0  0  0  0  0
   53.8520   23.7130   43.5020 O   0  0  0  0  0  0  0  0  0  0  0  0
   51.6720   24.5150   44.8220 C   0  0  0  0  0  0  0  0  0  0  0  0
   51.2810   24.6493   45.8413 H   0  0  0  0  0  0  0  0  0  0  0  0
   51.6396   25.4758   44.2873 H   0  0  0  0  0  0  0  0  0  0  0  0
   51.0561   23.7769   44.2873 H   0  0  0  0  0  0  0  0  0  0  0  0
   56.5990   26.8900   45.6600 C   0  0  0  0  0  0  0  0  0  0  0  0
   55.7961   27.0753   44.9312 H   0  0  0  0  0  0  0  0  0  0  0  0
   57.5190   27.9020   45.9530 C   0  0  0  0  0  0  0  0  0  0  0  0
   57.4303   28.8804   45.4582 H   0  0  0  0  0  0  0  0  0  0  0  0
   60.2350   29.4060   46.1630 C   0  0  0  0  0  0  0  0  0  0  0  0
   60.0662   29.1134   45.1161 H   0  0  0  0  0  0  0  0  0  0  0  0
   61.1480   30.4210   46.4590 C   0  0  0  0  0  0  0  0  0  0  0  0
   61.6920   30.9206   45.6438 H   0  0  0  0  0  0  0  0  0  0  0  0
   61.3770   30.8090   47.7910 C   0  0  0  0  0  0  0  0  0  0  0  0
   62.3310   31.9020   48.1010 C   0  0  0  0  0  0  0  0  0  0  0  0
   63.4410   31.6440   48.6390 O   0  0  0  0  0  0  0  0  0  0  0  0
   61.9910   33.2650   47.8340 N   0  0  0  0  0  0  0  0  0  0  0  0
   60.8430   33.7110   47.4060 C   0  0  0  0  0  0  0  0  0  0  0  0
   60.5310   33.8310   46.0680 C   0  0  0  0  0  0  0  0  0  0  0  0
   61.1544   33.5785   45.1976 H   0  0  0  0  0  0  0  0  0  0  0  0
   59.2510   34.3430   46.0820 C   0  0  0  0  0  0  0  0  0  0  0  0
   58.5020   34.6410   44.9410 O   0  0  0  0  0  0  0  0  0  0  0  0
   57.4130   33.8310   44.4960 C   0  0  2  0  0  0  0  0  0  0  0  0
   56.6957   34.5126   44.0155 H   0  0  0  0  0  0  0  0  0  0  0  0
   56.8110   33.0470   45.6530 C   0  0  0  0  0  0  0  0  0  0  0  0
   55.7289   32.9306   45.4935 H   0  0  0  0  0  0  0  0  0  0  0  0
   56.9864   33.5889   46.5940 H   0  0  0  0  0  0  0  0  0  0  0  0
   57.4150   31.7760   45.7230 O   0  0  0  0  0  0  0  0  0  0  0  0
   58.2020   31.6090   44.5660 C   0  0  0  0  0  0  0  0  0  0  0  0
   57.9517   30.6508   44.0873 H   0  0  0  0  0  0  0  0  0  0  0  0
   59.2667   31.6132   44.8425 H   0  0  0  0  0  0  0  0  0  0  0  0
   57.9260   32.7430   43.6010 C   0  0  0  0  0  0  0  0  0  0  0  0
   57.1692   32.4535   42.8570 H   0  0  0  0  0  0  0  0  0  0  0  0
   58.8104   33.0417   43.0191 H   0  0  0  0  0  0  0  0  0  0  0  0
   58.8200   34.5200   47.3480 N   0  0  0  0  0  0  0  0  0  0  0  0
   59.7930   34.1320   48.1590 N   0  0  0  0  0  0  0  0  0  0  0  0
   59.6600   34.1940   49.6130 C   0  0  0  0  0  0  0  0  0  0  0  0
   60.5619   33.7736   50.0819 H   0  0  0  0  0  0  0  0  0  0  0  0
   59.5385   35.2416   49.9257 H   0  0  0  0  0  0  0  0  0  0  0  0
   58.7795   33.6135   49.9257 H   0  0  0  0  0  0  0  0  0  0  0  0
  1  2  1  0
  2  3  2  0
  3  4  1  0
  3  5  1  0
  5  6  1  0
  6  7  2  0
  7  8  1  0
  7  9  1  0
  9 10  1  0
  9 11  2  0
 11 12  1  0
 12 13  1  0
 12 14  1  0
 12 15  1  0
 15 16  1  0
 16 17  2  0
 16 18  2  0
 16 19  1  0
 19 20  1  0
 19 21  1  0
 19 22  1  0
 11 23  1  0
 23 24  1  0
 23 25  2  0
 25 26  1  0
  5 27  2  0
 27 28  1  0
 27 29  1  0
 29 30  1  0
 29 31  2  0
 31 32  1  0
 32 33  2  0
 32 34  1  0
 34 35  2  0
 35 36  1  0
 36 37  1  0
 36 38  2  0
 38 39  1  0
 39 40  1  0
 40 41  1  6
 40 42  1  0
 42 43  1  0
 42 44  1  0
 42 45  1  0
 45 46  1  0
 46 47  1  0
 46 48  1  0
 46 49  1  0
 49 50  1  0
 49 51  1  0
 38 52  1  0
 52 53  1  0
 53 54  1  0
 54 55  1  0
 54 56  1  0
 54 57  1  0
 31  2  1  0
 53 35  1  0
 25  6  1  0
 49 40  1  0
M  CHG  2  15  -1  52  -1
M  END
>  <UniqueID>  (42) 
40

>  <SMILES>  (42) 
Cn1[n-]c(O[C@H]2CCOC2)c/c1=N/C(=O)c1ccc(-c2ccc(C[N-]S(C)(=O)=O)cc2)cc1

>  <Energy>  (42) 
101.96511347763726

>  <Genealogy>  (42) 
Cn1[n-]c(OC2CCOC2)cc1=NC(=O)c1ccc(-c2ccc(C[N-]S(C)(=O)=O)cc2)cc1 (protonated)
Cn1[n-]c(O[C@H]2CCOC2)cc1=NC(=O)c1ccc(-c2ccc(C[N-]S(C)(=O)=O)cc2)cc1 (chirality)
Cn1[n-]c(O[C@H]2CCOC2)c/c1=N/C(=O)c1ccc(-c2ccc(C[N-]S(C)(=O)=O)cc2)cc1 (cis-trans isomerization)
Cn1[n-]c(O[C@H]2CCOC2)c/c1=N/C(=O)c1ccc(-c2ccc(C[N-]S(C)(=O)=O)cc2)cc1 (3D coordinates assigned)
Cn1[n-]c(O[C@H]2CCOC2)c/c1=N/C(=O)c1ccc(-c2ccc(C[N-]S(C)(=O)=O)cc2)cc1 (nonaromatic ring conformer: 101.96511347763726 kcal/mol)

>  <smiles>  (42) 
Cn1[nH]c(OC2CCOC2)cc1=NC(=O)c1ccc(-c2ccc(CNS(C)(=O)=O)cc2)cc1

>  <score_type>  (42) 
oracle

>  <origin>  (42) 
adg

>  <m_score__min__energy>  (42) 
-11.56

>  <m_primary>  (42) 
energy

$$$$
42:0
     RDKit          3D

 34 35  0  0  0  0  0  0  0  0999 V2000
   57.0920   31.4990   42.3190 C   0  0  0  0  0  0  0  0  0  0  0  0
   57.1810   31.0590   43.7170 N   0  0  0  0  0  0  0  0  0  0  0  0
   56.8340   29.6910   44.0330 C   0  0  0  0  0  0  0  0  0  0  0  0
   55.8390   29.4600   44.7700 O   0  0  0  0  0  0  0  0  0  0  0  0
   57.6500   28.5390   43.5880 C   0  0  0  0  0  0  0  0  0  0  0  0
   58.8220   28.1730   44.1230 C   0  0  0  0  0  0  0  0  0  0  0  0
   58.9530   27.5550   45.4570 C   0  0  0  0  0  0  0  0  0  0  0  0
   57.9370   27.3820   46.3160 C   0  0  0  0  0  0  0  0  0  0  0  0
   57.2660   26.0920   46.6020 C   0  0  0  0  0  0  0  0  0  0  0  0
   57.8860   24.9740   47.0250 N   0  0  0  0  0  0  0  0  0  0  0  0
   56.8910   24.0660   47.0950 C   0  0  0  0  0  0  0  0  0  0  0  0
   57.0850   22.8730   47.4530 O   0  0  0  0  0  0  0  0  0  0  0  0
   55.6730   24.5320   46.7450 N   0  0  0  0  0  0  0  0  0  0  0  0
   55.9220   25.8140   46.4310 C   0  0  0  0  0  0  0  0  0  0  0  0
   54.9350   26.6920   45.9860 O   0  0  0  0  0  0  0  0  0  0  0  0
   57.6350   31.9770   44.7410 C   0  0  0  0  0  0  0  0  0  0  0  0
   58.1270   31.4950   45.9700 C   0  0  0  0  0  0  0  0  0  0  0  0
   58.5050   32.3870   46.9790 C   0  0  0  0  0  0  0  0  0  0  0  0
   58.4110   33.7660   46.7700 C   0  0  0  0  0  0  0  0  0  0  0  0
   57.9460   34.2560   45.5460 C   0  0  0  0  0  0  0  0  0  0  0  0
   57.5680   33.3690   44.5340 C   0  0  0  0  0  0  0  0  0  0  0  0
   56.8740   32.5767   42.2870 H   0  0  0  0  0  0  0  0  0  0  0  0
   58.0480   31.3030   41.8114 H   0  0  0  0  0  0  0  0  0  0  0  0
   56.2873   30.9469   41.8114 H   0  0  0  0  0  0  0  0  0  0  0  0
   57.2637   27.9365   42.7527 H   0  0  0  0  0  0  0  0  0  0  0  0
   59.7369   28.3422   43.5362 H   0  0  0  0  0  0  0  0  0  0  0  0
   59.9512   27.2131   45.7679 H   0  0  0  0  0  0  0  0  0  0  0  0
   57.5721   28.2706   46.8520 H   0  0  0  0  0  0  0  0  0  0  0  0
   55.1460   27.4810   45.3890 H   0  0  0  0  0  0  0  0  0  0  0  0
   58.2144   30.4113   46.1370 H   0  0  0  0  0  0  0  0  0  0  0  0
   58.8774   32.0022   47.9399 H   0  0  0  0  0  0  0  0  0  0  0  0
   58.7026   34.4649   47.5678 H   0  0  0  0  0  0  0  0  0  0  0  0
   57.8775   35.3411   45.3791 H   0  0  0  0  0  0  0  0  0  0  0  0
   57.2155   33.7608   43.5685 H   0  0  0  0  0  0  0  0  0  0  0  0
  1  2  1  0
  2  3  1  0
  3  4  2  0
  3  5  1  0
  5  6  2  3
  6  7  1  0
  7  8  2  3
  8  9  1  0
  9 10  1  0
 10 11  1  0
 11 12  2  0
 11 13  1  0
 13 14  1  0
 14 15  1  0
  2 16  1  0
 16 17  2  0
 17 18  1  0
 18 19  2  0
 19 20  1  0
 20 21  2  0
 14  9  2  0
 21 16  1  0
  1 22  1  0
  1 23  1  0
  1 24  1  0
  5 25  1  0
  6 26  1  0
  7 27  1  0
  8 28  1  0
 15 29  1  0
 17 30  1  0
 18 31  1  0
 19 32  1  0
 20 33  1  0
 21 34  1  0
M  CHG  2  10  -1  13  -1
M  END
>  <UniqueID>  (43) 
41

>  <SMILES>  (43) 
CN(C(=O)C=CC=Cc1[n-]c(=O)[n-]c1O)c1ccccc1

>  <Energy>  (43) 
74.78497669814787

>  <Genealogy>  (43) 
CN(C(=O)C=CC=Cc1[n-]c(=O)[n-]c1O)c1ccccc1 (protonated)
CN(C(=O)C=CC=Cc1[n-]c(=O)[n-]c1O)c1ccccc1 (3D coordinates assigned)
CN(C(=O)C=CC=Cc1[n-]c(=O)[n-]c1O)c1ccccc1 (optimized conformer: 74.78497669814787 kcal/mol)

>  <smiles>  (43) 
CN(C(=O)C=CC=Cc1[nH]c(=O)[nH]c1O)c1ccccc1

>  <score_type>  (43) 
oracle

>  <origin>  (43) 
adg

>  <m_score__min__energy>  (43) 
-12.449999999999999

>  <m_primary>  (43) 
energy

$$$$
43:0
     RDKit          3D

 42 44  0  0  0  0  0  0  0  0999 V2000
   59.7494   35.2136   45.9491 H   0  0  0  0  0  0  0  0  0  0  0  0
   59.9580   34.1790   46.2590 C   0  0  0  0  0  0  0  0  0  0  0  0
   59.0940   33.2190   45.8970 C   0  0  0  0  0  0  0  0  0  0  0  0
   57.5490   33.5170   45.0140 S   0  0  0  0  0  0  0  0  0  0  0  0
   57.3080   31.7400   44.9630 C   0  0  0  0  0  0  0  0  0  0  0  0
   56.2570   31.2290   44.4940 O   0  0  0  0  0  0  0  0  0  0  0  0
   58.3450   30.9490   45.5440 N   0  0  0  0  0  0  0  0  0  0  0  0
   58.3600   29.5110   45.5890 C   0  0  0  0  0  0  0  0  0  0  0  0
   58.1830   28.7590   44.4150 C   0  0  0  0  0  0  0  0  0  0  0  0
   58.0318   29.2728   43.4542 H   0  0  0  0  0  0  0  0  0  0  0  0
   58.1980   27.3620   44.4610 C   0  0  0  0  0  0  0  0  0  0  0  0
   58.0587   26.7806   43.5377 H   0  0  0  0  0  0  0  0  0  0  0  0
   58.3900   26.7020   45.6800 C   0  0  0  0  0  0  0  0  0  0  0  0
   58.4070   24.9490   45.7350 Cl  0  0  0  0  0  0  0  0  0  0  0  0
   58.5670   27.4420   46.8530 C   0  0  0  0  0  0  0  0  0  0  0  0
   58.7175   26.9241   47.8117 H   0  0  0  0  0  0  0  0  0  0  0  0
   58.5530   28.8390   46.8090 C   0  0  0  0  0  0  0  0  0  0  0  0
   58.6939   29.4164   47.7346 H   0  0  0  0  0  0  0  0  0  0  0  0
   59.3620   31.7920   46.0720 C   0  0  0  0  0  0  0  0  0  0  0  0
   60.4120   31.3410   46.6040 O   0  0  0  0  0  0  0  0  0  0  0  0
   61.1770   33.9160   47.0540 C   0  0  0  0  0  0  0  0  0  0  0  0
   61.1410   33.8080   48.4680 C   0  0  0  0  0  0  0  0  0  0  0  0
   59.8490   33.8590   49.2660 C   0  0  0  0  0  0  0  0  0  0  0  0
   59.0423   33.4409   48.6460 H   0  0  0  0  0  0  0  0  0  0  0  0
   59.6772   34.9134   49.5281 H   0  0  0  0  0  0  0  0  0  0  0  0
   59.8990   33.1010   50.5410 N   0  0  0  0  0  0  0  0  0  0  0  0
   60.9110   32.9640   50.7740 H   0  0  0  0  0  0  0  0  0  0  0  0
   59.2950   33.8460   51.6590 C   0  0  0  0  0  0  0  0  0  0  0  0
   59.6404   33.4200   52.6125 H   0  0  0  0  0  0  0  0  0  0  0  0
   59.5945   34.9028   51.5997 H   0  0  0  0  0  0  0  0  0  0  0  0
   58.1991   33.7715   51.5997 H   0  0  0  0  0  0  0  0  0  0  0  0
   59.2970   31.7600   50.4240 C   0  0  0  0  0  0  0  0  0  0  0  0
   59.1136   31.3515   51.4287 H   0  0  0  0  0  0  0  0  0  0  0  0
   58.3448   31.8319   49.8780 H   0  0  0  0  0  0  0  0  0  0  0  0
   59.9835   31.0963   49.8780 H   0  0  0  0  0  0  0  0  0  0  0  0
   62.3060   33.6280   49.1500 N   0  0  0  0  0  0  0  0  0  0  0  0
   63.5110   33.5470   48.5310 C   0  0  0  0  0  0  0  0  0  0  0  0
   64.4251   33.3968   49.1241 H   0  0  0  0  0  0  0  0  0  0  0  0
   63.5900   33.6540   47.1450 C   0  0  0  0  0  0  0  0  0  0  0  0
   64.5634   33.5878   46.6369 H   0  0  0  0  0  0  0  0  0  0  0  0
   62.4220   33.8460   46.4080 C   0  0  0  0  0  0  0  0  0  0  0  0
   62.4761   33.9433   45.3136 H   0  0  0  0  0  0  0  0  0  0  0  0
  1  2  1  0
  2  3  2  0
  3  4  1  0
  4  5  1  0
  5  6  2  0
  5  7  1  0
  7  8  1  0
  8  9  2  0
  9 10  1  0
  9 11  1  0
 11 12  1  0
 11 13  2  0
 13 14  1  0
 13 15  1  0
 15 16  1  0
 15 17  2  0
 17 18  1  0
  7 19  1  0
 19 20  2  0
  2 21  1  0
 21 22  2  0
 22 23  1  0
 23 24  1  0
 23 25  1  0
 23 26  1  0
 26 27  1  0
 26 28  1  0
 28 29  1  0
 28 30  1  0
 28 31  1  0
 26 32  1  0
 32 33  1  0
 32 34  1  0
 32 35  1  0
 22 36  1  0
 36 37  2  0
 37 38  1  0
 37 39  1  0
 39 40  1  0
 39 41  2  0
 41 42  1  0
 19  3  1  0
 41 21  1  0
 17  8  1  0
M  CHG  1  26   1
M  END
>  <UniqueID>  (44) 
42

>  <SMILES>  (44) 
C[NH+](C)Cc1ncccc1/C=C1\SC(=O)N(c2ccc(Cl)cc2)C1=O

>  <Energy>  (44) 
77.95402504516144

>  <Genealogy>  (44) 
C[NH+](C)Cc1ncccc1C=C1SC(=O)N(c2ccc(Cl)cc2)C1=O (protonated)
C[NH+](C)Cc1ncccc1/C=C1\SC(=O)N(c2ccc(Cl)cc2)C1=O (cis-trans isomerization)
C[NH+](C)Cc1ncccc1/C=C1\SC(=O)N(c2ccc(Cl)cc2)C1=O (3D coordinates assigned)
C[NH+](C)Cc1ncccc1/C=C1\SC(=O)N(c2ccc(Cl)cc2)C1=O (nonaromatic ring conformer: 77.95402504516144 kcal/mol)

>  <smiles>  (44) 
CN(C)Cc1ncccc1C=C1SC(=O)N(c2ccc(Cl)cc2)C1=O

>  <score_type>  (44) 
oracle

>  <origin>  (44) 
adg

>  <m_score__min__energy>  (44) 
-6.7400000000000002

>  <m_primary>  (44) 
energy

$$$$
44:0
     RDKit          3D

 55 57  0  0  0  0  0  0  0  0999 V2000
   53.6830   23.6220   45.6880 C   0  0  0  0  0  0  0  0  0  0  0  0
   54.6390   23.6730   46.8740 C   0  0  0  0  0  0  0  0  0  0  0  0
   55.8400   24.4290   46.5240 N   0  0  0  0  0  0  0  0  0  0  0  0
   57.1180   24.0110   46.6450 C   0  0  0  0  0  0  0  0  0  0  0  0
   57.4910   22.7360   47.0550 O   0  0  0  0  0  0  0  0  0  0  0  0
   57.9790   25.0390   46.3330 C   0  0  0  0  0  0  0  0  0  0  0  0
   59.3630   25.0790   46.3540 C   0  0  0  0  0  0  0  0  0  0  0  0
   60.0050   26.2990   46.0770 C   0  0  0  0  0  0  0  0  0  0  0  0
   61.5110   26.3240   46.1550 C   0  0  0  0  0  0  0  0  0  0  0  0
   59.2300   27.4810   45.8120 C   0  0  0  0  0  0  0  0  0  0  0  0
   59.9090   28.8490   45.7830 C   0  0  0  0  0  0  0  0  0  0  0  0
   59.4830   29.7150   46.9520 C   0  0  0  0  0  0  0  0  0  0  0  0
   59.4590   29.1650   48.2450 C   0  0  0  0  0  0  0  0  0  0  0  0
   59.0170   29.9170   49.3400 C   0  0  0  0  0  0  0  0  0  0  0  0
   58.9960   29.2930   50.6320 N   0  0  0  0  0  0  0  0  0  0  0  0
   58.1280   29.8650   52.0200 S   0  0  0  0  0  0  0  0  0  0  0  0
   58.5800   28.9160   53.4580 C   0  0  0  0  0  0  0  0  0  0  0  0
   58.4930   31.3030   52.2580 O   0  0  0  0  0  0  0  0  0  0  0  0
   56.6490   29.7760   51.7750 O   0  0  0  0  0  0  0  0  0  0  0  0
   58.6110   31.2450   49.1410 C   0  0  0  0  0  0  0  0  0  0  0  0
   58.6540   31.8120   47.8660 C   0  0  0  0  0  0  0  0  0  0  0  0
   59.0970   31.0620   46.7650 C   0  0  0  0  0  0  0  0  0  0  0  0
   59.1810   31.6460   45.4590 N   0  0  0  0  0  0  0  0  0  0  0  0
   57.8430   32.2540   44.5420 S   0  0  0  0  0  0  0  0  0  0  0  0
   57.6120   33.9830   44.8940 C   0  0  0  0  0  0  0  0  0  0  0  0
   56.6010   31.5130   44.9520 O   0  0  0  0  0  0  0  0  0  0  0  0
   58.0790   32.0400   43.0740 O   0  0  0  0  0  0  0  0  0  0  0  0
   57.8060   27.3670   45.6740 C   0  0  0  0  0  0  0  0  0  0  0  0
   56.9490   28.5250   45.2230 C   0  0  0  0  0  0  0  0  0  0  0  0
   57.2190   26.1340   46.0080 C   0  0  0  0  0  0  0  0  0  0  0  0
   55.8950   25.7300   46.1550 C   0  0  0  0  0  0  0  0  0  0  0  0
   54.7680   26.5310   46.0080 O   0  0  0  0  0  0  0  0  0  0  0  0
   52.6472   23.5667   46.0541 H   0  0  0  0  0  0  0  0  0  0  0  0
   53.8081   24.5281   45.0770 H   0  0  0  0  0  0  0  0  0  0  0  0
   53.9038   22.7344   45.0770 H   0  0  0  0  0  0  0  0  0  0  0  0
   54.1380   24.1602   47.7235 H   0  0  0  0  0  0  0  0  0  0  0  0
   54.9280   22.6470   47.1456 H   0  0  0  0  0  0  0  0  0  0  0  0
   59.9477   24.1757   46.5825 H   0  0  0  0  0  0  0  0  0  0  0  0
   61.8235   26.3292   47.2097 H   0  0  0  0  0  0  0  0  0  0  0  0
   61.9188   25.4325   45.6561 H   0  0  0  0  0  0  0  0  0  0  0  0
   61.8890   27.2285   45.6561 H   0  0  0  0  0  0  0  0  0  0  0  0
   60.9989   28.7063   45.8245 H   0  0  0  0  0  0  0  0  0  0  0  0
   59.6114   29.3583   44.8545 H   0  0  0  0  0  0  0  0  0  0  0  0
   59.7925   28.1281   48.3990 H   0  0  0  0  0  0  0  0  0  0  0  0
   58.3130   29.4765   54.3660 H   0  0  0  0  0  0  0  0  0  0  0  0
   58.0422   27.9565   53.4480 H   0  0  0  0  0  0  0  0  0  0  0  0
   59.6639   28.7289   53.4480 H   0  0  0  0  0  0  0  0  0  0  0  0
   58.2570   31.8426   49.9939 H   0  0  0  0  0  0  0  0  0  0  0  0
   58.3379   32.8558   47.7228 H   0  0  0  0  0  0  0  0  0  0  0  0
   57.5916   34.1359   45.9831 H   0  0  0  0  0  0  0  0  0  0  0  0
   58.4411   34.5599   44.4582 H   0  0  0  0  0  0  0  0  0  0  0  0
   56.6606   34.3220   44.4582 H   0  0  0  0  0  0  0  0  0  0  0  0
   56.5565   29.0553   46.1032 H   0  0  0  0  0  0  0  0  0  0  0  0
   57.5549   29.2160   44.6186 H   0  0  0  0  0  0  0  0  0  0  0  0
   56.1111   28.1475   44.6186 H   0  0  0  0  0  0  0  0  0  0  0  0
  1  2  1  0
  2  3  1  0
  3  4  1  0
  4  5  1  0
  4  6  2  0
  6  7  1  0
  7  8  2  0
  8  9  1  0
  8 10  1  0
 10 11  1  0
 11 12  1  0
 12 13  2  0
 13 14  1  0
 14 15  1  0
 15 16  1  0
 16 17  1  0
 16 18  2  0
 16 19  2  0
 14 20  2  0
 20 21  1  0
 21 22  2  0
 22 23  1  0
 23 24  1  0
 24 25  1  0
 24 26  2  0
 24 27  2  0
 10 28  2  0
 28 29  1  0
 28 30  1  0
 30 31  2  0
 31 32  1  0
 31  3  1  0
 30  6  1  0
 22 12  1  0
  1 33  1  0
  1 34  1  0
  1 35  1  0
  2 36  1  0
  2 37  1  0
  7 38  1  0
  9 39  1  0
  9 40  1  0
  9 41  1  0
 11 42  1  0
 11 43  1  0
 13 44  1  0
 17 45  1  0
 17 46  1  0
 17 47  1  0
 20 48  1  0
 21 49  1  0
 25 50  1  0
 25 51  1  0
 25 52  1  0
 29 53  1  0
 29 54  1  0
 29 55  1  0
M  CHG  4   5  -1  15  -1  23  -1  32  -1
M  END
>  <UniqueID>  (45) 
43

>  <SMILES>  (45) 
CCn1c([O-])c2cc(C)c(Cc3cc([N-]S(C)(=O)=O)ccc3[N-]S(C)(=O)=O)c(C)c2c1[O-]

>  <Energy>  (45) 
92.90410966140168

>  <Genealogy>  (45) 
CCn1c([O-])c2cc(C)c(Cc3cc([N-]S(C)(=O)=O)ccc3[N-]S(C)(=O)=O)c(C)c2c1[O-] (protonated)
CCn1c([O-])c2cc(C)c(Cc3cc([N-]S(C)(=O)=O)ccc3[N-]S(C)(=O)=O)c(C)c2c1[O-] (3D coordinates assigned)
CCn1c([O-])c2cc(C)c(Cc3cc([N-]S(C)(=O)=O)ccc3[N-]S(C)(=O)=O)c(C)c2c1[O-] (optimized conformer: 92.90410966140168 kcal/mol)

>  <smiles>  (45) 
CCn1c(O)c2cc(C)c(Cc3cc(NS(C)(=O)=O)ccc3NS(C)(=O)=O)c(C)c2c1O

>  <score_type>  (45) 
oracle

>  <origin>  (45) 
adg

>  <m_score__min__energy>  (45) 
-15.880000000000001

>  <m_primary>  (45) 
energy

$$$$
45:0
     RDKit          3D

 41 43  0  0  0  0  0  0  0  0999 V2000
   54.2990   24.0750   45.1490 C   0  0  0  0  0  0  0  0  0  0  0  0
   55.6980   24.3550   45.5280 N   0  0  0  0  0  0  0  0  0  0  0  0
   56.0400   25.6330   45.9170 C   0  0  0  0  0  0  0  0  0  0  0  0
   55.0840   26.6540   46.0160 O   0  0  0  0  0  0  0  0  0  0  0  0
   57.3660   25.9430   46.2530 C   0  0  0  0  0  0  0  0  0  0  0  0
   57.7250   27.3200   46.6720 C   0  0  0  0  0  0  0  0  0  0  0  0
   58.6510   28.0300   46.0900 N   0  0  0  0  0  0  0  0  0  0  0  0
   58.5960   29.4450   45.8480 C   0  0  0  0  0  0  0  0  0  0  0  0
   57.5460   30.0140   45.1080 C   0  0  0  0  0  0  0  0  0  0  0  0
   57.4730   31.3990   44.9430 C   0  0  0  0  0  0  0  0  0  0  0  0
   58.4500   32.2270   45.5120 C   0  0  0  0  0  0  0  0  0  0  0  0
   58.2920   33.9790   45.4460 S   0  0  0  0  0  0  0  0  0  0  0  0
   56.8520   34.3890   45.3010 O   0  0  0  0  0  0  0  0  0  0  0  0
   59.0610   34.4910   44.2620 O   0  0  0  0  0  0  0  0  0  0  0  0
   58.9470   34.6750   46.8980 N   0  0  0  0  0  0  0  0  0  0  0  0
   60.0490   34.3260   47.4990 C   0  0  0  0  0  0  0  0  0  0  0  0
   60.1210   34.1080   48.8910 C   0  0  0  0  0  0  0  0  0  0  0  0
   61.3330   33.7130   49.4630 C   0  0  0  0  0  0  0  0  0  0  0  0
   62.4600   33.5480   48.6600 C   0  0  0  0  0  0  0  0  0  0  0  0
   62.3610   33.7840   47.2890 C   0  0  0  0  0  0  0  0  0  0  0  0
   61.1710   34.1620   46.7470 N   0  0  0  0  0  0  0  0  0  0  0  0
   59.5290   31.6550   46.1980 C   0  0  0  0  0  0  0  0  0  0  0  0
   59.6080   30.2670   46.3520 C   0  0  0  0  0  0  0  0  0  0  0  0
   58.3260   24.9290   46.1690 C   0  0  0  0  0  0  0  0  0  0  0  0
   59.5430   25.1670   46.4000 O   0  0  0  0  0  0  0  0  0  0  0  0
   57.9510   23.6770   45.8310 N   0  0  0  0  0  0  0  0  0  0  0  0
   56.6650   23.3700   45.5280 C   0  0  0  0  0  0  0  0  0  0  0  0
   56.3350   21.7970   45.1830 S   0  0  0  0  0  0  0  0  0  0  0  0
   53.6904   23.9532   46.0572 H   0  0  0  0  0  0  0  0  0  0  0  0
   53.9058   24.9123   44.5537 H   0  0  0  0  0  0  0  0  0  0  0  0
   54.2583   23.1509   44.5537 H   0  0  0  0  0  0  0  0  0  0  0  0
   55.1400   27.5330   45.5210 H   0  0  0  0  0  0  0  0  0  0  0  0
   57.1814   27.7656   47.5182 H   0  0  0  0  0  0  0  0  0  0  0  0
   56.7792   29.3668   44.6573 H   0  0  0  0  0  0  0  0  0  0  0  0
   56.6474   31.8405   44.3656 H   0  0  0  0  0  0  0  0  0  0  0  0
   59.2301   34.2479   49.5209 H   0  0  0  0  0  0  0  0  0  0  0  0
   61.3976   33.5324   50.5462 H   0  0  0  0  0  0  0  0  0  0  0  0
   63.4171   33.2351   49.1026 H   0  0  0  0  0  0  0  0  0  0  0  0
   63.2450   33.6646   46.6454 H   0  0  0  0  0  0  0  0  0  0  0  0
   60.3163   32.2991   46.6167 H   0  0  0  0  0  0  0  0  0  0  0  0
   60.4691   29.8210   46.8713 H   0  0  0  0  0  0  0  0  0  0  0  0
  1  2  1  0
  2  3  1  0
  3  4  1  0
  3  5  2  0
  5  6  1  0
  6  7  2  3
  7  8  1  0
  8  9  2  0
  9 10  1  0
 10 11  2  0
 11 12  1  0
 12 13  2  0
 12 14  2  0
 12 15  1  0
 15 16  2  3
 16 17  1  0
 17 18  2  0
 18 19  1  0
 19 20  2  0
 20 21  1  0
 11 22  1  0
 22 23  2  0
  5 24  1  0
 24 25  2  0
 24 26  1  0
 26 27  1  0
 27 28  2  0
 27  2  1  0
 23  8  1  0
 21 16  1  0
  1 29  1  0
  1 30  1  0
  1 31  1  0
  4 32  1  0
  6 33  1  0
  9 34  1  0
 10 35  1  0
 17 36  1  0
 18 37  1  0
 19 38  1  0
 20 39  1  0
 22 40  1  0
 23 41  1  0
M  CHG  2  21  -1  26  -1
M  END
>  <UniqueID>  (46) 
44

>  <SMILES>  (46) 
Cn1c(O)c(C=Nc2ccc(S(=O)(=O)N=c3cccc[n-]3)cc2)c(=O)[n-]c1=S

>  <Energy>  (46) 
70.53163286779372

>  <Genealogy>  (46) 
Cn1c(O)c(C=Nc2ccc(S(=O)(=O)N=c3cccc[n-]3)cc2)c(=O)[n-]c1=S (protonated)
Cn1c(O)c(C=Nc2ccc(S(=O)(=O)N=c3cccc[n-]3)cc2)c(=O)[n-]c1=S (3D coordinates assigned)
Cn1c(O)c(C=Nc2ccc(S(=O)(=O)N=c3cccc[n-]3)cc2)c(=O)[n-]c1=S (optimized conformer: 70.53163286779372 kcal/mol)

>  <smiles>  (46) 
Cn1c(O)c(C=Nc2ccc(S(=O)(=O)N=c3cccc[nH]3)cc2)c(=O)[nH]c1=S

>  <score_type>  (46) 
oracle

>  <origin>  (46) 
adg

>  <m_score__min__energy>  (46) 
-11.83

>  <m_primary>  (46) 
energy

$$$$
46:0
     RDKit          3D

 48 50  0  0  0  0  0  0  0  0999 V2000
   57.0880   23.2790   47.6100 N   0  0  0  0  0  0  0  0  0  0  0  0
   56.3740   24.3090   46.9320 C   0  0  0  0  0  0  0  0  0  0  0  0
   55.1240   24.2000   46.8040 O   0  0  0  0  0  0  0  0  0  0  0  0
   57.0750   25.5060   46.3930 C   0  0  0  0  0  0  0  0  0  0  0  0
   58.4800   25.5120   46.3310 C   0  0  0  0  0  0  0  0  0  0  0  0
   59.1710   26.6210   45.8350 C   0  0  0  0  0  0  0  0  0  0  0  0
   58.4750   27.7530   45.3970 C   0  0  0  0  0  0  0  0  0  0  0  0
   59.2300   28.9120   44.8820 C   0  0  0  0  0  0  0  0  0  0  0  0
   58.6660   29.7870   44.1060 N   0  0  0  0  0  0  0  0  0  0  0  0
   57.8270   30.8490   44.5800 C   0  0  0  0  0  0  0  0  0  0  0  0
   56.5670   30.7420   44.5440 O   0  0  0  0  0  0  0  0  0  0  0  0
   58.4610   32.0900   45.1500 C   0  0  1  0  0  0  0  0  0  0  0  0
   57.9470   33.3590   44.4550 C   0  0  0  0  0  0  0  0  0  0  0  0
   57.5510   34.3230   45.5730 C   0  0  0  0  0  0  0  0  0  0  0  0
   57.3780   33.4710   46.8180 C   0  0  0  0  0  0  0  0  0  0  0  0
   58.1220   32.2490   46.5580 N   0  0  0  0  0  0  0  0  0  0  0  0
   58.5170   31.3190   47.5830 C   0  0  0  0  0  0  0  0  0  0  0  0
   58.2500   30.0950   47.4510 O   0  0  0  0  0  0  0  0  0  0  0  0
   59.2140   31.7580   48.8080 C   0  0  0  0  0  0  0  0  0  0  0  0
   60.0460   32.8100   48.8730 C   0  0  0  0  0  0  0  0  0  0  0  0
   61.3140   32.9250   48.1190 C   0  0  0  0  0  0  0  0  0  0  0  0
   62.3840   32.0850   48.4640 C   0  0  0  0  0  0  0  0  0  0  0  0
   63.6060   32.1860   47.7920 C   0  0  0  0  0  0  0  0  0  0  0  0
   63.7620   33.1090   46.7550 C   0  0  0  0  0  0  0  0  0  0  0  0
   62.6880   33.9170   46.3710 C   0  0  0  0  0  0  0  0  0  0  0  0
   61.4600   33.8180   47.0350 C   0  0  0  0  0  0  0  0  0  0  0  0
   60.3920   34.5950   46.6000 O   0  0  0  0  0  0  0  0  0  0  0  0
   57.0710   27.7580   45.4560 C   0  0  0  0  0  0  0  0  0  0  0  0
   56.3720   26.6500   45.9500 C   0  0  0  0  0  0  0  0  0  0  0  0
   54.9850   26.7110   46.0020 O   0  0  0  0  0  0  0  0  0  0  0  0
   57.8420   23.5110   48.2950 H   0  0  0  0  0  0  0  0  0  0  0  0
   59.0424   24.6324   46.6774 H   0  0  0  0  0  0  0  0  0  0  0  0
   60.2699   26.6038   45.7886 H   0  0  0  0  0  0  0  0  0  0  0  0
   60.2870   29.0364   45.1599 H   0  0  0  0  0  0  0  0  0  0  0  0
   59.5441   31.9680   45.0019 H   0  0  0  0  0  0  0  0  0  0  0  0
   58.7390   33.8009   43.8325 H   0  0  0  0  0  0  0  0  0  0  0  0
   57.0960   33.1387   43.7938 H   0  0  0  0  0  0  0  0  0  0  0  0
   58.3410   35.0723   45.7293 H   0  0  0  0  0  0  0  0  0  0  0  0
   56.6282   34.8687   45.3266 H   0  0  0  0  0  0  0  0  0  0  0  0
   57.7855   33.9894   47.6984 H   0  0  0  0  0  0  0  0  0  0  0  0
   56.3179   33.2667   47.0290 H   0  0  0  0  0  0  0  0  0  0  0  0
   59.0400   31.1843   49.7303 H   0  0  0  0  0  0  0  0  0  0  0  0
   59.7654   33.6443   49.5327 H   0  0  0  0  0  0  0  0  0  0  0  0
   62.2607   31.3435   49.2671 H   0  0  0  0  0  0  0  0  0  0  0  0
   64.4463   31.5373   48.0805 H   0  0  0  0  0  0  0  0  0  0  0  0
   64.7301   33.1999   46.2406 H   0  0  0  0  0  0  0  0  0  0  0  0
   62.8083   34.6328   45.5445 H   0  0  0  0  0  0  0  0  0  0  0  0
   56.5151   28.6420   45.1103 H   0  0  0  0  0  0  0  0  0  0  0  0
  1  2  1  0
  2  3  2  0
  2  4  1  0
  4  5  2  0
  5  6  1  0
  6  7  2  0
  7  8  1  0
  8  9  2  3
  9 10  1  0
 10 11  2  0
 10 12  1  0
 12 13  1  0
 13 14  1  0
 14 15  1  0
 15 16  1  0
 16 17  1  0
 17 18  2  0
 17 19  1  0
 19 20  2  3
 20 21  1  0
 21 22  2  0
 22 23  1  0
 23 24  2  0
 24 25  1  0
 25 26  2  0
 26 27  1  0
  7 28  1  0
 28 29  2  0
 29 30  1  0
 29  4  1  0
 16 12  1  0
 26 21  1  0
  1 31  1  0
  5 32  1  0
  6 33  1  0
  8 34  1  0
 12 35  1  1
 13 36  1  0
 13 37  1  0
 14 38  1  0
 14 39  1  0
 15 40  1  0
 15 41  1  0
 19 42  1  0
 20 43  1  0
 22 44  1  0
 23 45  1  0
 24 46  1  0
 25 47  1  0
 28 48  1  0
M  CHG  3   1  -1  27  -1  30  -1
M  END
>  <UniqueID>  (47) 
45

>  <SMILES>  (47) 
[NH-]C(=O)c1ccc(C=NC(=O)[C@H]2CCCN2C(=O)C=Cc2ccccc2[O-])cc1[O-]

>  <Energy>  (47) 
63.560465225719135

>  <Genealogy>  (47) 
[NH-]C(=O)c1ccc(C=NC(=O)C2CCCN2C(=O)C=Cc2ccccc2[O-])cc1[O-] (protonated)
[NH-]C(=O)c1ccc(C=NC(=O)[C@H]2CCCN2C(=O)C=Cc2ccccc2[O-])cc1[O-] (chirality)
[NH-]C(=O)c1ccc(C=NC(=O)[C@H]2CCCN2C(=O)C=Cc2ccccc2[O-])cc1[O-] (3D coordinates assigned)
[NH-]C(=O)c1ccc(C=NC(=O)[C@H]2CCCN2C(=O)C=Cc2ccccc2[O-])cc1[O-] (nonaromatic ring conformer: 63.560465225719135 kcal/mol)

>  <smiles>  (47) 
NC(=O)c1ccc(C=NC(=O)C2CCCN2C(=O)C=Cc2ccccc2O)cc1O

>  <score_type>  (47) 
oracle

>  <origin>  (47) 
adg

>  <m_score__min__energy>  (47) 
-15.65

>  <m_primary>  (47) 
energy

$$$$
47:0
     RDKit          3D

 48 50  0  0  0  0  0  0  0  0999 V2000
   59.2950   29.0990   46.4620 H   0  0  0  0  0  0  0  0  0  0  0  0
   59.1520   29.9310   45.8500 N   0  0  0  0  0  0  0  0  0  0  0  0
   57.9920   30.2450   45.3670 C   0  0  0  0  0  0  0  0  0  0  0  0
   57.4770   31.5130   45.2270 C   0  0  0  0  0  0  0  0  0  0  0  0
   58.1060   32.7970   45.5820 C   0  0  0  0  0  0  0  0  0  0  0  0
   57.4690   33.8710   45.4110 O   0  0  0  0  0  0  0  0  0  0  0  0
   59.4370   32.8280   46.1200 N   0  0  0  0  0  0  0  0  0  0  0  0
   59.9540   31.9310   46.2620 H   0  0  0  0  0  0  0  0  0  0  0  0
   60.1000   34.0720   46.5020 C   0  0  0  0  0  0  0  0  0  0  0  0
   60.3806   34.6264   45.5943 H   0  0  0  0  0  0  0  0  0  0  0  0
   59.4087   34.6708   47.1131 H   0  0  0  0  0  0  0  0  0  0  0  0
   61.3370   33.7830   47.3080 C   0  0  0  0  0  0  0  0  0  0  0  0
   62.5580   33.5070   46.6710 C   0  0  0  0  0  0  0  0  0  0  0  0
   62.6154   33.5119   45.5725 H   0  0  0  0  0  0  0  0  0  0  0  0
   63.7010   33.2260   47.4260 C   0  0  0  0  0  0  0  0  0  0  0  0
   64.6545   33.0112   46.9212 H   0  0  0  0  0  0  0  0  0  0  0  0
   63.6320   33.2180   48.8220 C   0  0  0  0  0  0  0  0  0  0  0  0
   65.0650   32.8660   49.7690 Cl  0  0  0  0  0  0  0  0  0  0  0  0
   62.4190   33.4890   49.4630 C   0  0  0  0  0  0  0  0  0  0  0  0
   62.3646   33.4795   50.5616 H   0  0  0  0  0  0  0  0  0  0  0  0
   61.2750   33.7720   48.7100 C   0  0  0  0  0  0  0  0  0  0  0  0
   60.3234   33.9867   49.2183 H   0  0  0  0  0  0  0  0  0  0  0  0
   56.2510   31.3850   44.6750 N   0  0  0  0  0  0  0  0  0  0  0  0
   56.0360   30.0880   44.4880 N   0  0  0  0  0  0  0  0  0  0  0  0
   57.0730   29.3770   44.9060 N   0  0  0  0  0  0  0  0  0  0  0  0
   57.1620   27.9230   44.8050 C   0  0  0  0  0  0  0  0  0  0  0  0
   56.3705   27.5567   44.1346 H   0  0  0  0  0  0  0  0  0  0  0  0
   58.1501   27.6519   44.4049 H   0  0  0  0  0  0  0  0  0  0  0  0
   56.9950   27.2980   46.1530 C   0  0  0  0  0  0  0  0  0  0  0  0
   57.8000   27.5840   47.0780 O   0  0  0  0  0  0  0  0  0  0  0  0
   55.9500   26.3410   46.3630 N   0  0  0  0  0  0  0  0  0  0  0  0
   56.0200   24.9370   46.0810 C   0  0  0  0  0  0  0  0  0  0  0  0
   56.1410   24.5220   44.7510 C   0  0  0  0  0  0  0  0  0  0  0  0
   56.2119   25.2739   43.9512 H   0  0  0  0  0  0  0  0  0  0  0  0
   56.1730   23.1580   44.4250 C   0  0  0  0  0  0  0  0  0  0  0  0
   56.3510   22.7250   43.0000 C   0  0  0  0  0  0  0  0  0  0  0  0
   56.7691   21.7079   42.9754 H   0  0  0  0  0  0  0  0  0  0  0  0
   55.3765   22.7333   42.4898 H   0  0  0  0  0  0  0  0  0  0  0  0
   57.0379   23.4163   42.4898 H   0  0  0  0  0  0  0  0  0  0  0  0
   56.0990   22.2020   45.4480 C   0  0  0  0  0  0  0  0  0  0  0  0
   56.1440   21.1312   45.2001 H   0  0  0  0  0  0  0  0  0  0  0  0
   55.9680   22.6030   46.7850 C   0  0  0  0  0  0  0  0  0  0  0  0
   55.8150   21.5770   47.8660 C   0  0  0  0  0  0  0  0  0  0  0  0
   55.8879   22.0660   48.8486 H   0  0  0  0  0  0  0  0  0  0  0  0
   54.8340   21.0883   47.7715 H   0  0  0  0  0  0  0  0  0  0  0  0
   56.6107   20.8234   47.7715 H   0  0  0  0  0  0  0  0  0  0  0  0
   55.9050   23.9710   47.0950 C   0  0  0  0  0  0  0  0  0  0  0  0
   55.7647   24.2887   48.1387 H   0  0  0  0  0  0  0  0  0  0  0  0
  1  2  1  0
  2  3  2  0
  3  4  1  0
  4  5  1  0
  5  6  2  0
  5  7  1  0
  7  8  1  0
  7  9  1  0
  9 10  1  0
  9 11  1  0
  9 12  1  0
 12 13  2  0
 13 14  1  0
 13 15  1  0
 15 16  1  0
 15 17  2  0
 17 18  1  0
 17 19  1  0
 19 20  1  0
 19 21  2  0
 21 22  1  0
  4 23  2  0
 23 24  1  0
 24 25  1  0
 25 26  1  0
 26 27  1  0
 26 28  1  0
 26 29  1  0
 29 30  2  0
 29 31  1  0
 31 32  1  0
 32 33  2  0
 33 34  1  0
 33 35  1  0
 35 36  1  0
 36 37  1  0
 36 38  1  0
 36 39  1  0
 35 40  2  0
 40 41  1  0
 40 42  1  0
 42 43  1  0
 43 44  1  0
 43 45  1  0
 43 46  1  0
 42 47  2  0
 47 48  1  0
 25  3  1  0
 47 32  1  0
 21 12  1  0
M  CHG  2  24  -1  31  -1
M  END
>  <UniqueID>  (48) 
46

>  <SMILES>  (48) 
[H]/N=c1/c(C(=O)NCc2ccc(Cl)cc2)n[n-]n1CC(=O)[N-]c1cc(C)cc(C)c1

>  <Energy>  (48) 
85.51745886026771

>  <Genealogy>  (48) 
Cc1cc(C)cc([N-]C(=O)Cn2[n-]nc(C(=O)NCc3ccc(Cl)cc3)c2=N)c1 (protonated)
[H]/N=c1/c(C(=O)NCc2ccc(Cl)cc2)n[n-]n1CC(=O)[N-]c1cc(C)cc(C)c1 (cis-trans isomerization)
[H]/N=c1/c(C(=O)NCc2ccc(Cl)cc2)n[n-]n1CC(=O)[N-]c1cc(C)cc(C)c1 (3D coordinates assigned)
[H]/N=c1/c(C(=O)NCc2ccc(Cl)cc2)n[n-]n1CC(=O)[N-]c1cc(C)cc(C)c1 (optimized conformer: 85.51745886026771 kcal/mol)

>  <smiles>  (48) 
Cc1cc(C)cc(NC(=O)Cn2[nH]nc(C(=O)NCc3ccc(Cl)cc3)c2=N)c1

>  <score_type>  (48) 
oracle

>  <origin>  (48) 
adg

>  <m_score__min__energy>  (48) 
-11.43

>  <m_primary>  (48) 
energy

$$$$
48:0
     RDKit          3D

 65 67  0  0  0  0  0  0  0  0999 V2000
   58.4860   32.9854   47.7106 H   0  0  0  0  0  0  0  0  0  0  0  0
   58.3130   32.8960   46.6280 C   0  0  0  0  0  0  0  0  0  0  0  0
   57.5320   31.8970   46.1450 N   0  0  0  0  0  0  0  0  0  0  0  0
   57.2860   31.7210   44.8180 C   0  0  0  0  0  0  0  0  0  0  0  0
   56.4440   30.7720   44.4990 N   0  0  0  0  0  0  0  0  0  0  0  0
   56.6340   29.5850   43.7210 C   0  0  0  0  0  0  0  0  0  0  0  0
   55.8790   29.3500   42.7390 O   0  0  0  0  0  0  0  0  0  0  0  0
   57.5560   28.5120   44.2370 C   0  0  0  0  0  0  0  0  0  0  0  0
   58.3276   28.3169   43.4777 H   0  0  0  0  0  0  0  0  0  0  0  0
   56.9452   27.6195   44.4376 H   0  0  0  0  0  0  0  0  0  0  0  0
   58.2250   28.8890   45.5060 N   0  0  2  0  0  0  0  0  0  0  0  0
   57.7780   29.7700   45.8570 H   0  0  0  0  0  0  0  0  0  0  0  0
   59.6430   29.2170   45.2450 C   0  0  0  0  0  0  0  0  0  0  0  0
   60.1657   28.3217   44.8774 H   0  0  0  0  0  0  0  0  0  0  0  0
   59.7042   30.0116   44.4868 H   0  0  0  0  0  0  0  0  0  0  0  0
   60.2860   29.6860   46.5190 C   0  0  0  0  0  0  0  0  0  0  0  0
   61.0460   30.8590   46.5850 C   0  0  0  0  0  0  0  0  0  0  0  0
   61.2170   31.4545   45.6761 H   0  0  0  0  0  0  0  0  0  0  0  0
   61.5920   31.2780   47.8130 C   0  0  0  0  0  0  0  0  0  0  0  0
   62.3330   32.4630   47.9300 O   0  0  0  0  0  0  0  0  0  0  0  0
   63.6960   32.5250   48.3450 C   0  0  0  0  0  0  0  0  0  0  0  0
   64.2874   33.0464   47.5780 H   0  0  0  0  0  0  0  0  0  0  0  0
   64.0802   31.5032   48.4800 H   0  0  0  0  0  0  0  0  0  0  0  0
   63.8030   33.2820   49.6690 C   0  0  0  0  0  0  0  0  0  0  0  0
   64.8019   33.7361   49.7464 H   0  0  0  0  0  0  0  0  0  0  0  0
   63.6420   32.5752   50.4963 H   0  0  0  0  0  0  0  0  0  0  0  0
   62.8220   34.3000   49.7400 O   0  0  0  0  0  0  0  0  0  0  0  0
   61.6890   33.8860   50.4850 C   0  0  0  0  0  0  0  0  0  0  0  0
   61.5754   34.5399   51.3622 H   0  0  0  0  0  0  0  0  0  0  0  0
   61.8368   32.8431   50.8020 H   0  0  0  0  0  0  0  0  0  0  0  0
   60.4200   33.9650   49.6320 C   0  0  0  0  0  0  0  0  0  0  0  0
   60.5386   33.3186   48.7499 H   0  0  0  0  0  0  0  0  0  0  0  0
   60.2680   35.0105   49.3257 H   0  0  0  0  0  0  0  0  0  0  0  0
   59.2870   33.5410   50.3680 O   0  0  0  0  0  0  0  0  0  0  0  0
   58.7180   32.3670   49.8160 C   0  0  0  0  0  0  0  0  0  0  0  0
   59.4831   31.8360   49.2306 H   0  0  0  0  0  0  0  0  0  0  0  0
   57.8738   32.6532   49.1715 H   0  0  0  0  0  0  0  0  0  0  0  0
   58.2030   31.4470   50.9170 C   0  0  0  0  0  0  0  0  0  0  0  0
   58.4450   31.8793   51.8991 H   0  0  0  0  0  0  0  0  0  0  0  0
   57.1125   31.3376   50.8232 H   0  0  0  0  0  0  0  0  0  0  0  0
   58.6799   30.4602   50.8232 H   0  0  0  0  0  0  0  0  0  0  0  0
   61.3900   30.5020   48.9650 C   0  0  0  0  0  0  0  0  0  0  0  0
   61.9510   30.9460   50.1720 O   0  0  0  0  0  0  0  0  0  0  0  0
   62.3830   30.0870   51.2230 C   0  0  0  0  0  0  0  0  0  0  0  0
   62.1504   30.5495   52.1936 H   0  0  0  0  0  0  0  0  0  0  0  0
   61.8637   29.1206   51.1435 H   0  0  0  0  0  0  0  0  0  0  0  0
   63.4685   29.9276   51.1435 H   0  0  0  0  0  0  0  0  0  0  0  0
   60.6230   29.3250   48.8860 C   0  0  0  0  0  0  0  0  0  0  0  0
   60.4739   28.7072   49.7838 H   0  0  0  0  0  0  0  0  0  0  0  0
   60.0490   28.9370   47.6700 C   0  0  0  0  0  0  0  0  0  0  0  0
   59.2350   27.6800   47.5480 C   0  0  0  0  0  0  0  0  0  0  0  0
   59.8895   26.8688   47.1966 H   0  0  0  0  0  0  0  0  0  0  0  0
   58.8122   27.4585   48.5391 H   0  0  0  0  0  0  0  0  0  0  0  0
   58.0520   27.8310   46.5540 C   0  0  0  0  0  0  0  0  0  0  0  0
   57.9124   26.8668   46.0433 H   0  0  0  0  0  0  0  0  0  0  0  0
   57.1860   28.1404   47.1576 H   0  0  0  0  0  0  0  0  0  0  0  0
   57.9510   32.5720   43.8810 C   0  0  0  0  0  0  0  0  0  0  0  0
   57.9930   32.3390   42.3960 C   0  0  0  0  0  0  0  0  0  0  0  0
   58.1849   31.2743   42.1972 H   0  0  0  0  0  0  0  0  0  0  0  0
   57.0285   32.6268   41.9523 H   0  0  0  0  0  0  0  0  0  0  0  0
   58.7963   32.9455   41.9523 H   0  0  0  0  0  0  0  0  0  0  0  0
   58.7170   33.6380   44.3830 C   0  0  0  0  0  0  0  0  0  0  0  0
   59.1825   34.3485   43.6841 H   0  0  0  0  0  0  0  0  0  0  0  0
   58.8940   33.8060   45.7530 C   0  0  0  0  0  0  0  0  0  0  0  0
   59.4865   34.6487   46.1386 H   0  0  0  0  0  0  0  0  0  0  0  0
  1  2  1  0
  2  3  1  0
  3  4  1  0
  4  5  2  0
  5  6  1  0
  6  7  2  0
  6  8  1  0
  8  9  1  0
  8 10  1  0
  8 11  1  0
 11 12  1  1
 11 13  1  0
 13 14  1  0
 13 15  1  0
 13 16  1  0
 16 17  2  0
 17 18  1  0
 17 19  1  0
 19 20  1  0
 20 21  1  0
 21 22  1  0
 21 23  1  0
 21 24  1  0
 24 25  1  0
 24 26  1  0
 24 27  1  0
 27 28  1  0
 28 29  1  0
 28 30  1  0
 28 31  1  0
 31 32  1  0
 31 33  1  0
 31 34  1  0
 34 35  1  0
 35 36  1  0
 35 37  1  0
 35 38  1  0
 38 39  1  0
 38 40  1  0
 38 41  1  0
 19 42  2  0
 42 43  1  0
 43 44  1  0
 44 45  1  0
 44 46  1  0
 44 47  1  0
 42 48  1  0
 48 49  1  0
 48 50  2  0
 50 51  1  0
 51 52  1  0
 51 53  1  0
 51 54  1  0
 54 55  1  0
 54 56  1  0
  4 57  1  0
 57 58  1  0
 58 59  1  0
 58 60  1  0
 58 61  1  0
 57 62  2  0
 62 63  1  0
 62 64  1  0
 64 65  1  0
 64  2  2  0
 54 11  1  0
 50 16  1  0
M  CHG  2   3  -1  11   1
M  END
>  <UniqueID>  (49) 
47

>  <SMILES>  (49) 
CCOCCOCCOc1cc2c(cc1OC)CC[N@H+](CC(=O)/N=c1/[n-]cccc1C)C2

>  <Energy>  (49) 
94.61688423537873

>  <Genealogy>  (49) 
CCOCCOCCOc1cc2c(cc1OC)CC[NH+](CC(=O)N=c1[n-]cccc1C)C2 (protonated)
CCOCCOCCOc1cc2c(cc1OC)CC[N@H+](CC(=O)N=c1[n-]cccc1C)C2 (chirality)
CCOCCOCCOc1cc2c(cc1OC)CC[N@H+](CC(=O)/N=c1/[n-]cccc1C)C2 (cis-trans isomerization)
CCOCCOCCOc1cc2c(cc1OC)CC[N@H+](CC(=O)/N=c1/[n-]cccc1C)C2 (3D coordinates assigned)
CCOCCOCCOc1cc2c(cc1OC)CC[N@H+](CC(=O)/N=c1/[n-]cccc1C)C2 (nonaromatic ring conformer: 94.61688423537873 kcal/mol)

>  <smiles>  (49) 
CCOCCOCCOc1cc2c(cc1OC)CCN(CC(=O)N=c1[nH]cccc1C)C2

>  <score_type>  (49) 
oracle

>  <origin>  (49) 
adg

>  <m_score__min__energy>  (49) 
-6.5700000000000003

>  <m_primary>  (49) 
energy

$$$$
49:0
     RDKit          3D

 38 39  0  0  0  0  0  0  0  0999 V2000
   59.8720   27.5610   46.0160 C   0  0  0  0  0  0  0  0  0  0  0  0
   58.6740   26.8280   46.6110 C   0  0  0  0  0  0  0  0  0  0  0  0
   57.5770   26.7360   45.6390 N   0  0  0  0  0  0  0  0  0  0  0  0
   57.4460   27.7580   44.5880 C   0  0  0  0  0  0  0  0  0  0  0  0
   56.7080   28.9630   45.1090 C   0  0  0  0  0  0  0  0  0  0  0  0
   55.4730   29.0620   44.8880 O   0  0  0  0  0  0  0  0  0  0  0  0
   57.3340   29.9380   45.9530 N   0  0  0  0  0  0  0  0  0  0  0  0
   57.7740   31.2470   45.5690 C   0  0  0  0  0  0  0  0  0  0  0  0
   57.6830   31.6940   44.2400 C   0  0  0  0  0  0  0  0  0  0  0  0
   58.1140   32.9800   43.9000 C   0  0  0  0  0  0  0  0  0  0  0  0
   58.6130   33.8370   44.8850 C   0  0  0  0  0  0  0  0  0  0  0  0
   59.0310   35.0820   44.5440 F   0  0  0  0  0  0  0  0  0  0  0  0
   58.6660   33.4120   46.2180 C   0  0  0  0  0  0  0  0  0  0  0  0
   59.2750   34.4840   47.4680 Cl  0  0  0  0  0  0  0  0  0  0  0  0
   58.2340   32.1260   46.5580 C   0  0  0  0  0  0  0  0  0  0  0  0
   56.7250   25.5720   45.6460 C   0  0  0  0  0  0  0  0  0  0  0  0
   55.5190   25.6930   45.9950 O   0  0  0  0  0  0  0  0  0  0  0  0
   57.2250   24.2390   45.2450 C   0  0  0  0  0  0  0  0  0  0  0  0
   58.4890   23.7880   45.6580 C   0  0  0  0  0  0  0  0  0  0  0  0
   58.9390   22.5290   45.2570 C   0  0  0  0  0  0  0  0  0  0  0  0
   58.1670   21.7490   44.4520 N   0  0  0  0  0  0  0  0  0  0  0  0
   56.9500   22.1710   44.0160 C   0  0  0  0  0  0  0  0  0  0  0  0
   56.4590   23.4210   44.4010 C   0  0  0  0  0  0  0  0  0  0  0  0
   60.5051   27.9483   46.8279 H   0  0  0  0  0  0  0  0  0  0  0  0
   60.4562   26.8655   45.3955 H   0  0  0  0  0  0  0  0  0  0  0  0
   59.5187   28.3978   45.3955 H   0  0  0  0  0  0  0  0  0  0  0  0
   58.9820   25.8131   46.9028 H   0  0  0  0  0  0  0  0  0  0  0  0
   58.3193   27.3903   47.4874 H   0  0  0  0  0  0  0  0  0  0  0  0
   58.4485   28.0643   44.2548 H   0  0  0  0  0  0  0  0  0  0  0  0
   56.8793   27.3313   43.7473 H   0  0  0  0  0  0  0  0  0  0  0  0
   57.2716   31.0305   43.4650 H   0  0  0  0  0  0  0  0  0  0  0  0
   58.0602   33.3181   42.8546 H   0  0  0  0  0  0  0  0  0  0  0  0
   58.2556   31.8026   47.6092 H   0  0  0  0  0  0  0  0  0  0  0  0
   59.1217   24.4239   46.2946 H   0  0  0  0  0  0  0  0  0  0  0  0
   59.9215   22.1658   45.5929 H   0  0  0  0  0  0  0  0  0  0  0  0
   58.5170   20.8090   44.1620 H   0  0  0  0  0  0  0  0  0  0  0  0
   56.3499   21.5257   43.3577 H   0  0  0  0  0  0  0  0  0  0  0  0
   55.4761   23.7623   44.0440 H   0  0  0  0  0  0  0  0  0  0  0  0
  1  2  1  0
  2  3  1  0
  3  4  1  0
  4  5  1  0
  5  6  2  0
  5  7  1  0
  7  8  1  0
  8  9  2  0
  9 10  1  0
 10 11  2  0
 11 12  1  0
 11 13  1  0
 13 14  1  0
 13 15  2  0
  3 16  1  0
 16 17  2  0
 16 18  1  0
 18 19  2  0
 19 20  1  0
 20 21  2  0
 21 22  1  0
 22 23  2  0
 15  8  1  0
 23 18  1  0
  1 24  1  0
  1 25  1  0
  1 26  1  0
  2 27  1  0
  2 28  1  0
  4 29  1  0
  4 30  1  0
  9 31  1  0
 10 32  1  0
 15 33  1  0
 19 34  1  0
 20 35  1  0
 21 36  1  0
 22 37  1  0
 23 38  1  0
M  CHG  2   7  -1  21   1
M  END
>  <UniqueID>  (50) 
48

>  <SMILES>  (50) 
CCN(CC(=O)[N-]c1ccc(F)c(Cl)c1)C(=O)c1cc[nH+]cc1

>  <Energy>  (50) 
40.53394461506452

>  <Genealogy>  (50) 
CCN(CC(=O)[N-]c1ccc(F)c(Cl)c1)C(=O)c1cc[nH+]cc1 (protonated)
CCN(CC(=O)[N-]c1ccc(F)c(Cl)c1)C(=O)c1cc[nH+]cc1 (3D coordinates assigned)
CCN(CC(=O)[N-]c1ccc(F)c(Cl)c1)C(=O)c1cc[nH+]cc1 (optimized conformer: 40.53394461506452 kcal/mol)

>  <smiles>  (50) 
CCN(CC(=O)Nc1ccc(F)c(Cl)c1)C(=O)c1ccncc1

>  <score_type>  (50) 
oracle

>  <origin>  (50) 
adg

>  <m_score__min__energy>  (50) 
-8.2400000000000002

>  <m_primary>  (50) 
energy

$$$$
50:0
     RDKit          3D

 43 45  0  0  0  0  0  0  0  0999 V2000
   60.9594   33.6835   49.8804 H   0  0  0  0  0  0  0  0  0  0  0  0
   59.9450   33.6260   49.4590 C   0  0  0  0  0  0  0  0  0  0  0  0
   59.0950   32.5040   49.9000 C   0  0  0  0  0  0  0  0  0  0  0  0
   58.3780   32.5940   50.9330 O   0  0  0  0  0  0  0  0  0  0  0  0
   59.1440   31.3080   49.1880 O   0  0  0  0  0  0  0  0  0  0  0  0
   60.2930   30.5480   49.1520 N   0  0  0  0  0  0  0  0  0  0  0  0
   61.0710   30.4970   48.1140 C   0  0  0  0  0  0  0  0  0  0  0  0
   61.0491   29.5912   47.4902 H   0  0  0  0  0  0  0  0  0  0  0  0
   61.9860   31.5940   47.7260 C   0  0  0  0  0  0  0  0  0  0  0  0
   61.5570   32.5420   46.7860 C   0  0  0  0  0  0  0  0  0  0  0  0
   60.5446   32.4742   46.3613 H   0  0  0  0  0  0  0  0  0  0  0  0
   62.4110   33.5710   46.3880 C   0  0  0  0  0  0  0  0  0  0  0  0
   62.0724   34.3242   45.6614 H   0  0  0  0  0  0  0  0  0  0  0  0
   63.6990   33.6350   46.9210 C   0  0  0  0  0  0  0  0  0  0  0  0
   64.3778   34.4466   46.6200 H   0  0  0  0  0  0  0  0  0  0  0  0
   64.1170   32.6960   47.8120 N   0  0  0  0  0  0  0  0  0  0  0  0
   65.0900   32.7460   48.1870 H   0  0  0  0  0  0  0  0  0  0  0  0
   63.3010   31.6830   48.2150 C   0  0  0  0  0  0  0  0  0  0  0  0
   63.6726   30.9309   48.9265 H   0  0  0  0  0  0  0  0  0  0  0  0
   59.5880   34.5830   48.5880 C   0  0  0  0  0  0  0  0  0  0  0  0
   59.6796   35.6276   48.9205 H   0  0  0  0  0  0  0  0  0  0  0  0
   59.0820   34.3490   47.2190 C   0  0  0  0  0  0  0  0  0  0  0  0
   59.4480   35.2300   46.1920 C   0  0  0  0  0  0  0  0  0  0  0  0
   60.0857   36.0979   46.4160 H   0  0  0  0  0  0  0  0  0  0  0  0
   59.0060   35.0100   44.8850 C   0  0  0  0  0  0  0  0  0  0  0  0
   59.2767   35.7180   44.0878 H   0  0  0  0  0  0  0  0  0  0  0  0
   58.2210   33.8930   44.5880 C   0  0  0  0  0  0  0  0  0  0  0  0
   57.8602   33.7357   43.5608 H   0  0  0  0  0  0  0  0  0  0  0  0
   57.8910   32.9730   45.5900 C   0  0  0  0  0  0  0  0  0  0  0  0
   57.1000   31.8650   45.2520 O   0  0  0  0  0  0  0  0  0  0  0  0
   57.5850   30.6100   44.8570 C   0  0  0  0  0  0  0  0  0  0  0  0
   58.7830   30.1450   45.4120 C   0  0  0  0  0  0  0  0  0  0  0  0
   59.3287   30.7681   46.1358 H   0  0  0  0  0  0  0  0  0  0  0  0
   59.2900   28.8920   45.0510 C   0  0  0  0  0  0  0  0  0  0  0  0
   60.2371   28.5372   45.4836 H   0  0  0  0  0  0  0  0  0  0  0  0
   58.5950   28.0910   44.1420 C   0  0  0  0  0  0  0  0  0  0  0  0
   58.9980   27.1090   43.8536 H   0  0  0  0  0  0  0  0  0  0  0  0
   57.3870   28.5380   43.5990 C   0  0  0  0  0  0  0  0  0  0  0  0
   56.8361   27.9042   42.8885 H   0  0  0  0  0  0  0  0  0  0  0  0
   56.8780   29.7900   43.9580 C   0  0  0  0  0  0  0  0  0  0  0  0
   55.9223   30.1349   43.5365 H   0  0  0  0  0  0  0  0  0  0  0  0
   58.3200   33.2080   46.9090 C   0  0  0  0  0  0  0  0  0  0  0  0
   58.0576   32.4942   47.7038 H   0  0  0  0  0  0  0  0  0  0  0  0
  1  2  1  0
  2  3  1  0
  3  4  2  0
  3  5  1  0
  5  6  1  0
  6  7  2  0
  7  8  1  0
  7  9  1  0
  9 10  2  0
 10 11  1  0
 10 12  1  0
 12 13  1  0
 12 14  2  0
 14 15  1  0
 14 16  1  0
 16 17  1  0
 16 18  2  0
 18 19  1  0
  2 20  2  3
 20 21  1  0
 20 22  1  0
 22 23  2  0
 23 24  1  0
 23 25  1  0
 25 26  1  0
 25 27  2  0
 27 28  1  0
 27 29  1  0
 29 30  1  0
 30 31  1  0
 31 32  2  0
 32 33  1  0
 32 34  1  0
 34 35  1  0
 34 36  2  0
 36 37  1  0
 36 38  1  0
 38 39  1  0
 38 40  2  0
 40 41  1  0
 29 42  2  0
 42 43  1  0
 18  9  1  0
 42 22  1  0
 40 31  1  0
M  CHG  1  16   1
M  END
>  <UniqueID>  (51) 
49

>  <SMILES>  (51) 
O=C(C=Cc1cccc(Oc2ccccc2)c1)O/N=C\c1ccc[nH+]c1

>  <Energy>  (51) 
61.7188430277043

>  <Genealogy>  (51) 
O=C(C=Cc1cccc(Oc2ccccc2)c1)ON=Cc1ccc[nH+]c1 (protonated)
O=C(C=Cc1cccc(Oc2ccccc2)c1)O/N=C\c1ccc[nH+]c1 (cis-trans isomerization)
O=C(C=Cc1cccc(Oc2ccccc2)c1)O/N=C\c1ccc[nH+]c1 (3D coordinates assigned)
O=C(C=Cc1cccc(Oc2ccccc2)c1)O/N=C\c1ccc[nH+]c1 (optimized conformer: 61.7188430277043 kcal/mol)

>  <smiles>  (51) 
O=C(C=Cc1cccc(Oc2ccccc2)c1)ON=Cc1cccnc1

>  <score_type>  (51) 
oracle

>  <origin>  (51) 
adg

>  <m_score__min__energy>  (51) 
-8

>  <m_primary>  (51) 
energy

$$$$
51:0
     RDKit          3D

 45 47  0  0  0  0  0  0  0  0999 V2000
   61.4170   33.5710   51.1370 N   0  0  0  0  0  0  0  0  0  0  0  0
   60.0100   33.2270   50.9250 C   0  0  0  0  0  0  0  0  0  0  0  0
   59.6270   33.3880   49.4770 C   0  0  0  0  0  0  0  0  0  0  0  0
   60.3390   34.2730   48.6530 C   0  0  0  0  0  0  0  0  0  0  0  0
   59.9540   34.4620   47.3200 C   0  0  0  0  0  0  0  0  0  0  0  0
   58.8570   33.7680   46.7970 C   0  0  0  0  0  0  0  0  0  0  0  0
   58.3620   34.0570   45.1330 S   0  0  0  0  0  0  0  0  0  0  0  0
   59.2470   35.0930   44.4930 O   0  0  0  0  0  0  0  0  0  0  0  0
   56.9420   34.5520   45.1370 O   0  0  0  0  0  0  0  0  0  0  0  0
   58.4830   32.5580   44.2660 N   0  0  0  0  0  0  0  0  0  0  0  0
   57.7500   31.3640   44.5790 C   0  0  0  0  0  0  0  0  0  0  0  0
   56.5100   31.1580   43.9630 C   0  0  0  0  0  0  0  0  0  0  0  0
   55.7780   29.9910   44.2090 C   0  0  0  0  0  0  0  0  0  0  0  0
   56.2800   29.0070   45.0670 C   0  0  0  0  0  0  0  0  0  0  0  0
   55.5220   27.8530   45.2700 O   0  0  0  0  0  0  0  0  0  0  0  0
   57.5360   29.1890   45.7020 C   0  0  0  0  0  0  0  0  0  0  0  0
   58.1190   28.1490   46.5920 C   0  0  0  0  0  0  0  0  0  0  0  0
   57.3680   27.2640   47.0930 O   0  0  0  0  0  0  0  0  0  0  0  0
   59.5250   28.1300   46.8580 N   0  0  0  0  0  0  0  0  0  0  0  0
   60.2560   28.9660   47.7750 C   0  0  0  0  0  0  0  0  0  0  0  0
   60.9620   30.1100   47.3560 C   0  0  0  0  0  0  0  0  0  0  0  0
   61.6780   30.8770   48.2830 C   0  0  0  0  0  0  0  0  0  0  0  0
   61.7080   30.5060   49.6310 C   0  0  0  0  0  0  0  0  0  0  0  0
   62.4180   31.2820   50.5400 O   0  0  0  0  0  0  0  0  0  0  0  0
   61.0370   29.3490   50.0490 C   0  0  0  0  0  0  0  0  0  0  0  0
   60.3200   28.5800   49.1220 C   0  0  0  0  0  0  0  0  0  0  0  0
   58.2520   30.3850   45.4610 C   0  0  0  0  0  0  0  0  0  0  0  0
   58.1340   32.8940   47.6190 C   0  0  0  0  0  0  0  0  0  0  0  0
   58.5160   32.7050   48.9530 C   0  0  0  0  0  0  0  0  0  0  0  0
   61.9400   33.4070   50.2390 H   0  0  0  0  0  0  0  0  0  0  0  0
   61.8160   32.9170   51.8600 H   0  0  0  0  0  0  0  0  0  0  0  0
   59.8459   32.1819   51.2264 H   0  0  0  0  0  0  0  0  0  0  0  0
   59.3888   33.9045   51.5292 H   0  0  0  0  0  0  0  0  0  0  0  0
   61.2036   34.8208   49.0561 H   0  0  0  0  0  0  0  0  0  0  0  0
   60.5162   35.1590   46.6812 H   0  0  0  0  0  0  0  0  0  0  0  0
   56.1075   31.9202   43.2796 H   0  0  0  0  0  0  0  0  0  0  0  0
   54.8012   29.8465   43.7243 H   0  0  0  0  0  0  0  0  0  0  0  0
   60.9509   30.4024   46.2956 H   0  0  0  0  0  0  0  0  0  0  0  0
   62.2190   31.7749   47.9497 H   0  0  0  0  0  0  0  0  0  0  0  0
   62.0100   31.5530   51.4280 H   0  0  0  0  0  0  0  0  0  0  0  0
   61.0730   29.0441   51.1053 H   0  0  0  0  0  0  0  0  0  0  0  0
   59.8037   27.6670   49.4533 H   0  0  0  0  0  0  0  0  0  0  0  0
   59.2133   30.5536   45.9685 H   0  0  0  0  0  0  0  0  0  0  0  0
   57.2641   32.3549   47.2157 H   0  0  0  0  0  0  0  0  0  0  0  0
   57.9436   32.0184   49.5940 H   0  0  0  0  0  0  0  0  0  0  0  0
  1  2  1  0
  2  3  1  0
  3  4  2  0
  4  5  1  0
  5  6  2  0
  6  7  1  0
  7  8  2  0
  7  9  2  0
  7 10  1  0
 10 11  1  0
 11 12  2  0
 12 13  1  0
 13 14  2  0
 14 15  1  0
 14 16  1  0
 16 17  1  0
 17 18  2  0
 17 19  1  0
 19 20  1  0
 20 21  2  0
 21 22  1  0
 22 23  2  0
 23 24  1  0
 23 25  1  0
 25 26  2  0
 16 27  2  0
  6 28  1  0
 28 29  2  0
 29  3  1  0
 27 11  1  0
 26 20  1  0
  1 30  1  0
  1 31  1  0
  2 32  1  0
  2 33  1  0
  4 34  1  0
  5 35  1  0
 12 36  1  0
 13 37  1  0
 21 38  1  0
 22 39  1  0
 24 40  1  0
 25 41  1  0
 26 42  1  0
 27 43  1  0
 28 44  1  0
 29 45  1  0
M  CHG  3  10  -1  15  -1  19  -1
M  END
>  <UniqueID>  (52) 
50

>  <SMILES>  (52) 
NCc1ccc(S(=O)(=O)[N-]c2ccc([O-])c(C(=O)[N-]c3ccc(O)cc3)c2)cc1

>  <Energy>  (52) 
58.72019847984217

>  <Genealogy>  (52) 
NCc1ccc(S(=O)(=O)[N-]c2ccc([O-])c(C(=O)[N-]c3ccc(O)cc3)c2)cc1 (protonated)
NCc1ccc(S(=O)(=O)[N-]c2ccc([O-])c(C(=O)[N-]c3ccc(O)cc3)c2)cc1 (3D coordinates assigned)
NCc1ccc(S(=O)(=O)[N-]c2ccc([O-])c(C(=O)[N-]c3ccc(O)cc3)c2)cc1 (optimized conformer: 58.72019847984217 kcal/mol)

>  <smiles>  (52) 
NCc1ccc(S(=O)(=O)Nc2ccc(O)c(C(=O)Nc3ccc(O)cc3)c2)cc1

>  <score_type>  (52) 
oracle

>  <origin>  (52) 
adg

>  <m_score__min__energy>  (52) 
-14.380000000000001

>  <m_primary>  (52) 
energy

$$$$
52:0
     RDKit          3D

 56 59  0  0  0  0  0  0  0  0999 V2000
   58.8452   23.5668   46.0209 H   0  0  0  0  0  0  0  0  0  0  0  0
   57.9070   24.1410   46.0120 C   0  0  0  0  0  0  0  0  0  0  0  0
   57.9380   25.4950   46.1200 N   0  0  0  0  0  0  0  0  0  0  0  0
   56.8100   26.2590   46.1160 C   0  0  0  0  0  0  0  0  0  0  0  0
   56.9520   27.5510   46.2340 N   0  0  0  0  0  0  0  0  0  0  0  0
   58.1660   28.3150   46.1840 C   0  0  0  0  0  0  0  0  0  0  0  0
   58.5810   28.7140   45.0650 O   0  0  0  0  0  0  0  0  0  0  0  0
   58.9760   28.5590   47.4050 C   0  0  0  0  0  0  0  0  0  0  0  0
   59.0610   29.8520   47.9500 C   0  0  0  0  0  0  0  0  0  0  0  0
   58.5315   30.6850   47.4646 H   0  0  0  0  0  0  0  0  0  0  0  0
   59.8140   30.0870   49.1050 C   0  0  0  0  0  0  0  0  0  0  0  0
   59.8579   31.0992   49.5334 H   0  0  0  0  0  0  0  0  0  0  0  0
   60.5140   29.0370   49.7200 C   0  0  0  0  0  0  0  0  0  0  0  0
   61.2700   29.2330   50.8840 O   0  0  0  0  0  0  0  0  0  0  0  0
   62.5790   29.6800   50.8800 N   0  0  0  0  0  0  0  0  0  0  0  0
   62.9470   31.0630   50.9430 C   0  0  0  0  0  0  0  0  0  0  0  0
   63.7060   31.4750   51.8640 O   0  0  0  0  0  0  0  0  0  0  0  0
   62.3770   32.0310   49.9430 C   0  0  2  0  0  0  0  0  0  0  0  0
   61.5904   31.5090   49.3784 H   0  0  0  0  0  0  0  0  0  0  0  0
   63.4490   32.5020   49.0540 N   0  0  0  0  0  0  0  0  0  0  0  0
   62.9040   32.5850   47.3910 S   0  0  0  0  0  0  0  0  0  0  0  0
   63.0460   31.2280   46.7600 O   0  0  0  0  0  0  0  0  0  0  0  0
   63.7710   33.5450   46.6250 O   0  0  0  0  0  0  0  0  0  0  0  0
   61.2190   33.1050   47.2800 C   0  0  0  0  0  0  0  0  0  0  0  0
   60.7920   34.2620   47.9470 C   0  0  0  0  0  0  0  0  0  0  0  0
   61.5016   34.8321   48.5646 H   0  0  0  0  0  0  0  0  0  0  0  0
   59.4690   34.6930   47.8300 C   0  0  0  0  0  0  0  0  0  0  0  0
   59.1409   35.6047   48.3508 H   0  0  0  0  0  0  0  0  0  0  0  0
   58.5620   33.9700   47.0540 C   0  0  0  0  0  0  0  0  0  0  0  0
   57.5243   34.3211   46.9540 H   0  0  0  0  0  0  0  0  0  0  0  0
   58.9690   32.7970   46.4010 C   0  0  0  0  0  0  0  0  0  0  0  0
   58.0060   32.0400   45.5340 C   0  0  0  0  0  0  0  0  0  0  0  0
   57.2997   31.4848   46.1687 H   0  0  0  0  0  0  0  0  0  0  0  0
   57.4512   32.7463   44.8989 H   0  0  0  0  0  0  0  0  0  0  0  0
   58.5613   31.3341   44.8989 H   0  0  0  0  0  0  0  0  0  0  0  0
   60.3030   32.3730   46.5090 C   0  0  0  0  0  0  0  0  0  0  0  0
   60.6318   31.4625   45.9867 H   0  0  0  0  0  0  0  0  0  0  0  0
   63.8690   33.8260   49.5450 C   0  0  0  0  0  0  0  0  0  0  0  0
   64.8733   33.7543   49.9880 H   0  0  0  0  0  0  0  0  0  0  0  0
   63.8948   34.5426   48.7108 H   0  0  0  0  0  0  0  0  0  0  0  0
   62.8760   34.2970   50.6010 C   0  0  0  0  0  0  0  0  0  0  0  0
   63.3676   34.3720   51.5822 H   0  0  0  0  0  0  0  0  0  0  0  0
   62.4740   35.2927   50.3622 H   0  0  0  0  0  0  0  0  0  0  0  0
   61.7840   33.2510   50.6380 C   0  0  0  0  0  0  0  0  0  0  0  0
   61.5151   33.0104   51.6771 H   0  0  0  0  0  0  0  0  0  0  0  0
   60.8641   33.5988   50.1452 H   0  0  0  0  0  0  0  0  0  0  0  0
   60.4240   27.7480   49.1850 C   0  0  0  0  0  0  0  0  0  0  0  0
   60.9535   26.9162   49.6726 H   0  0  0  0  0  0  0  0  0  0  0  0
   59.6660   27.5090   48.0350 C   0  0  0  0  0  0  0  0  0  0  0  0
   59.6091   26.4918   47.6201 H   0  0  0  0  0  0  0  0  0  0  0  0
   55.5530   25.6160   45.9620 C   0  0  0  0  0  0  0  0  0  0  0  0
   54.3600   26.3240   45.8710 O   0  0  0  0  0  0  0  0  0  0  0  0
   55.5090   24.2230   45.8640 C   0  0  0  0  0  0  0  0  0  0  0  0
   54.5404   23.7110   45.7659 H   0  0  0  0  0  0  0  0  0  0  0  0
   56.6870   23.4800   45.8900 C   0  0  0  0  0  0  0  0  0  0  0  0
   56.6541   22.3831   45.8150 H   0  0  0  0  0  0  0  0  0  0  0  0
  1  2  1  0
  2  3  1  0
  3  4  1  0
  4  5  2  0
  5  6  1  0
  6  7  2  0
  6  8  1  0
  8  9  2  0
  9 10  1  0
  9 11  1  0
 11 12  1  0
 11 13  2  0
 13 14  1  0
 14 15  1  0
 15 16  1  0
 16 17  2  0
 16 18  1  0
 18 19  1  6
 18 20  1  0
 20 21  1  0
 21 22  2  0
 21 23  2  0
 21 24  1  0
 24 25  2  0
 25 26  1  0
 25 27  1  0
 27 28  1  0
 27 29  2  0
 29 30  1  0
 29 31  1  0
 31 32  1  0
 32 33  1  0
 32 34  1  0
 32 35  1  0
 31 36  2  0
 36 37  1  0
 20 38  1  0
 38 39  1  0
 38 40  1  0
 38 41  1  0
 41 42  1  0
 41 43  1  0
 41 44  1  0
 44 45  1  0
 44 46  1  0
 13 47  1  0
 47 48  1  0
 47 49  2  0
 49 50  1  0
  4 51  1  0
 51 52  1  0
 51 53  2  0
 53 54  1  0
 53 55  1  0
 55 56  1  0
 55  2  2  0
 49  8  1  0
 44 18  1  0
 36 24  1  0
M  CHG  3   3  -1  15  -1  52  -1
M  END
>  <UniqueID>  (53) 
51

>  <SMILES>  (53) 
Cc1cccc(S(=O)(=O)N2CCC[C@@H]2C(=O)[N-]Oc2ccc(C(=O)/N=c3/[n-]cccc3[O-])cc2)c1

>  <Energy>  (53) 
80.61982779513632

>  <Genealogy>  (53) 
Cc1cccc(S(=O)(=O)N2CCCC2C(=O)[N-]Oc2ccc(C(=O)N=c3[n-]cccc3[O-])cc2)c1 (protonated)
Cc1cccc(S(=O)(=O)N2CCC[C@@H]2C(=O)[N-]Oc2ccc(C(=O)N=c3[n-]cccc3[O-])cc2)c1 (chirality)
Cc1cccc(S(=O)(=O)N2CCC[C@@H]2C(=O)[N-]Oc2ccc(C(=O)/N=c3/[n-]cccc3[O-])cc2)c1 (cis-trans isomerization)
Cc1cccc(S(=O)(=O)N2CCC[C@@H]2C(=O)[N-]Oc2ccc(C(=O)/N=c3/[n-]cccc3[O-])cc2)c1 (3D coordinates assigned)
Cc1cccc(S(=O)(=O)N2CCC[C@@H]2C(=O)[N-]Oc2ccc(C(=O)/N=c3/[n-]cccc3[O-])cc2)c1 (nonaromatic ring conformer: 80.61982779513632 kcal/mol)

>  <smiles>  (53) 
Cc1cccc(S(=O)(=O)N2CCCC2C(=O)NOc2ccc(C(=O)N=c3[nH]cccc3O)cc2)c1

>  <score_type>  (53) 
oracle

>  <origin>  (53) 
adg

>  <m_score__min__energy>  (53) 
-15.85

>  <m_primary>  (53) 
energy

$$$$
53:0
     RDKit          3D

 42 44  0  0  0  0  0  0  0  0999 V2000
   55.1440   28.7500   45.6000 H   0  0  0  0  0  0  0  0  0  0  0  0
   55.2120   29.4490   44.8260 N   0  0  0  0  0  0  0  0  0  0  0  0
   56.8930   29.7230   44.5390 S   0  0  0  0  0  0  0  0  0  0  0  0
   57.1280   29.9090   43.0660 O   0  0  0  0  0  0  0  0  0  0  0  0
   57.3260   30.9700   45.2570 O   0  0  0  0  0  0  0  0  0  0  0  0
   57.8220   28.3460   45.1230 C   0  0  0  0  0  0  0  0  0  0  0  0
   59.2200   28.4180   45.1900 C   0  0  0  0  0  0  0  0  0  0  0  0
   59.7369   29.3427   44.8939 H   0  0  0  0  0  0  0  0  0  0  0  0
   59.9580   27.3180   45.6320 C   0  0  0  0  0  0  0  0  0  0  0  0
   61.0553   27.3775   45.6806 H   0  0  0  0  0  0  0  0  0  0  0  0
   59.3060   26.1410   46.0130 C   0  0  0  0  0  0  0  0  0  0  0  0
   59.8932   25.2754   46.3534 H   0  0  0  0  0  0  0  0  0  0  0  0
   57.9030   26.0590   45.9630 C   0  0  0  0  0  0  0  0  0  0  0  0
   57.2090   24.8510   46.3210 N   0  0  0  0  0  0  0  0  0  0  0  0
   57.7710   23.9800   46.4460 H   0  0  0  0  0  0  0  0  0  0  0  0
   55.7780   24.7340   46.3560 C   0  0  0  0  0  0  0  0  0  0  0  0
   55.0670   25.4950   45.6470 O   0  0  0  0  0  0  0  0  0  0  0  0
   55.1320   23.7020   47.1160 N   0  0  0  0  0  0  0  0  0  0  0  0
   55.7090   22.8880   47.9480 C   0  0  0  0  0  0  0  0  0  0  0  0
   57.0070   22.5170   47.8810 N   0  0  0  0  0  0  0  0  0  0  0  0
   57.3650   21.6990   48.8690 N   0  0  0  0  0  0  0  0  0  0  0  0
   56.3610   21.4330   49.7360 C   0  0  0  0  0  0  0  0  0  0  0  0
   56.5000   20.4900   50.8920 C   0  0  1  0  0  0  0  0  0  0  0  0
   55.4866   20.1803   51.1870 H   0  0  0  0  0  0  0  0  0  0  0  0
   57.2560   19.3580   50.5150 O   0  0  0  0  0  0  0  0  0  0  0  0
   58.1040   19.0200   51.5950 C   0  0  1  0  0  0  0  0  0  0  0  0
   57.8999   18.0134   51.9888 H   0  0  0  0  0  0  0  0  0  0  0  0
   59.5590   18.9880   51.0970 C   0  0  0  0  0  0  0  0  0  0  0  0
   60.2334   18.8721   51.9582 H   0  0  0  0  0  0  0  0  0  0  0  0
   59.6781   18.1422   50.4039 H   0  0  0  0  0  0  0  0  0  0  0  0
   59.8750   20.1740   50.4210 O   0  0  0  0  0  0  0  0  0  0  0  0
   59.0190   20.5190   50.0570 H   0  0  0  0  0  0  0  0  0  0  0  0
   57.8370   19.9930   52.7550 C   0  0  1  0  0  0  0  0  0  0  0  0
   57.2090   19.5379   53.5351 H   0  0  0  0  0  0  0  0  0  0  0  0
   58.9790   20.3430   53.5040 O   0  0  0  0  0  0  0  0  0  0  0  0
   59.7290   20.5260   52.8810 H   0  0  0  0  0  0  0  0  0  0  0  0
   57.1700   21.1620   52.0800 C   0  0  0  0  0  0  0  0  0  0  0  0
   57.9069   21.9109   51.7541 H   0  0  0  0  0  0  0  0  0  0  0  0
   56.4765   21.7166   52.7292 H   0  0  0  0  0  0  0  0  0  0  0  0
   54.9330   22.2120   49.2770 S   0  0  0  0  0  0  0  0  0  0  0  0
   57.1700   27.1630   45.4960 C   0  0  0  0  0  0  0  0  0  0  0  0
   56.0744   27.0981   45.4225 H   0  0  0  0  0  0  0  0  0  0  0  0
  1  2  1  0
  2  3  1  0
  3  4  2  0
  3  5  2  0
  3  6  1  0
  6  7  2  0
  7  8  1  0
  7  9  1  0
  9 10  1  0
  9 11  2  0
 11 12  1  0
 11 13  1  0
 13 14  1  0
 14 15  1  0
 14 16  1  0
 16 17  2  0
 16 18  1  0
 18 19  2  0
 19 20  1  0
 20 21  1  0
 21 22  2  0
 22 23  1  0
 23 24  1  1
 23 25  1  0
 25 26  1  0
 26 27  1  1
 26 28  1  0
 28 29  1  0
 28 30  1  0
 28 31  1  0
 31 32  1  0
 26 33  1  0
 33 34  1  1
 33 35  1  0
 35 36  1  0
 33 37  1  0
 37 38  1  0
 37 39  1  0
 22 40  1  0
 13 41  2  0
 41 42  1  0
 41  6  1  0
 40 19  1  0
 37 23  1  0
M  CHG  2   2  -1  20  -1
M  END
>  <UniqueID>  (54) 
52

>  <SMILES>  (54) 
[NH-]S(=O)(=O)c1cccc(NC(=O)/N=c2\[n-]nc([C@@H]3C[C@H](O)C(CO)O3)s2)c1

>  <Energy>  (54) 
86.47996842711731

>  <Genealogy>  (54) 
[NH-]S(=O)(=O)c1cccc(NC(=O)N=c2[n-]nc(C3CC(O)C(CO)O3)s2)c1 (protonated)
[NH-]S(=O)(=O)c1cccc(NC(=O)N=c2[n-]nc([C@@H]3C[C@H](O)C(CO)O3)s2)c1 (chirality)
[NH-]S(=O)(=O)c1cccc(NC(=O)/N=c2\[n-]nc([C@@H]3C[C@H](O)C(CO)O3)s2)c1 (cis-trans isomerization)
[NH-]S(=O)(=O)c1cccc(NC(=O)/N=c2\[n-]nc([C@@H]3C[C@H](O)C(CO)O3)s2)c1 (3D coordinates assigned)
[NH-]S(=O)(=O)c1cccc(NC(=O)/N=c2\[n-]nc([C@@H]3C[C@H](O)C(CO)O3)s2)c1 (nonaromatic ring conformer: 86.47996842711731 kcal/mol)

>  <smiles>  (54) 
NS(=O)(=O)c1cccc(NC(=O)N=c2[nH]nc(C3CC(O)C(CO)O3)s2)c1

>  <score_type>  (54) 
oracle

>  <origin>  (54) 
adg

>  <m_score__min__energy>  (54) 
-11.960000000000001

>  <m_primary>  (54) 
energy

$$$$
54:0
     RDKit          3D

 46 49  0  0  1  0  0  0  0  0999 V2000
   56.3290   31.3560   51.6660 N   0  0  0  0  0  0  0  0  0  0  0  0
   57.4210   32.2440   51.4980 C   0  0  0  0  0  0  0  0  0  0  0  0
   57.4690   33.3020   52.2350 O   0  0  0  0  0  0  0  0  0  0  0  0
   58.4900   32.0260   50.5360 C   0  0  0  0  0  0  0  0  0  0  0  0
   59.4140   32.9330   50.0230 C   0  0  0  0  0  0  0  0  0  0  0  0
   60.2560   32.2910   49.1460 C   0  0  0  0  0  0  0  0  0  0  0  0
   61.3820   32.7190   48.3560 C   0  0  0  0  0  0  0  0  0  0  0  0
   62.5660   31.9950   48.4470 C   0  0  0  0  0  0  0  0  0  0  0  0
   62.6880   30.8660   49.3320 N   0  0  0  0  0  0  0  0  0  0  0  0
   63.6790   32.3060   47.7130 C   0  0  0  0  0  0  0  0  0  0  0  0
   63.6970   33.3590   46.8340 C   0  0  0  0  0  0  0  0  0  0  0  0
   62.5080   34.0950   46.7350 C   0  0  0  0  0  0  0  0  0  0  0  0
   61.3820   33.7790   47.4780 C   0  0  0  0  0  0  0  0  0  0  0  0
   59.8990   34.7830   47.1990 S   0  0  0  0  0  0  0  0  0  0  0  0
   58.9320   33.9130   46.0080 C   0  0  0  0  0  0  0  0  0  0  0  0
   58.7840   33.9210   44.6830 C   0  0  0  0  0  0  0  0  0  0  0  0
   57.9490   33.1050   44.1000 N   0  0  0  0  0  0  0  0  0  0  0  0
   57.2400   32.2560   44.8580 C   0  0  0  0  0  0  0  0  0  0  0  0
   56.4070   31.3310   44.5480 N   0  0  0  0  0  0  0  0  0  0  0  0
   56.5490   29.9720   44.8110 C   0  0  0  0  0  0  0  0  0  0  0  0
   55.3780   29.3480   44.8540 O   0  0  0  0  0  0  0  0  0  0  0  0
   57.6560   29.1240   45.0280 C   0  0  0  0  0  0  0  0  0  0  0  0
   58.7400   29.6300   45.7480 C   0  0  0  0  0  0  0  0  0  0  0  0
   59.8610   28.9160   46.0460 C   0  0  0  0  0  0  0  0  0  0  0  0
   59.9570   27.6160   45.6240 C   0  0  0  0  0  0  0  0  0  0  0  0
   58.9060   27.0900   44.9120 C   0  0  0  0  0  0  0  0  0  0  0  0
   57.7840   27.8100   44.6160 C   0  0  0  0  0  0  0  0  0  0  0  0
   57.7830   32.6210   46.5680 S   0  0  0  0  0  0  0  0  0  0  0  0
   59.8170   31.0050   49.1510 N   0  0  0  0  0  0  0  0  0  0  0  0
   58.7970   30.8360   49.9490 N   0  0  0  0  0  0  0  0  0  0  0  0
   55.4320   31.6300   51.1780 H   0  0  0  0  0  0  0  0  0  0  0  0
   56.3640   30.4790   52.2370 H   0  0  0  0  0  0  0  0  0  0  0  0
   59.4628   34.0013   50.2805 H   0  0  0  0  0  0  0  0  0  0  0  0
   61.8480   30.3340   49.5930 H   0  0  0  0  0  0  0  0  0  0  0  0
   63.5970   30.5630   49.7230 H   0  0  0  0  0  0  0  0  0  0  0  0
   64.5851   31.6937   47.8315 H   0  0  0  0  0  0  0  0  0  0  0  0
   64.5899   33.6105   46.2429 H   0  0  0  0  0  0  0  0  0  0  0  0
   62.4677   34.9509   46.0453 H   0  0  0  0  0  0  0  0  0  0  0  0
   59.3724   34.6234   44.0744 H   0  0  0  0  0  0  0  0  0  0  0  0
   57.7850   33.0650   43.0310 H   0  0  0  0  0  0  0  0  0  0  0  0
   58.6852   30.6718   46.0968 H   0  0  0  0  0  0  0  0  0  0  0  0
   60.6792   29.3774   46.6184 H   0  0  0  0  0  0  0  0  0  0  0  0
   60.8484   27.0117   45.8484 H   0  0  0  0  0  0  0  0  0  0  0  0
   58.9710   26.0476   44.5668 H   0  0  0  0  0  0  0  0  0  0  0  0
   56.9719   27.3390   44.0427 H   0  0  0  0  0  0  0  0  0  0  0  0
   58.2870   29.9210   50.1120 H   0  0  0  0  0  0  0  0  0  0  0  0
  1  2  1  0
  2  3  2  0
  2  4  1  0
  4  5  2  0
  5  6  1  0
  6  7  1  0
  7  8  2  0
  8  9  1  0
  8 10  1  0
 10 11  2  0
 11 12  1  0
 12 13  2  0
 13 14  1  0
 14 15  1  0
 15 16  2  0
 16 17  1  0
 17 18  1  0
 18 19  2  0
 19 20  1  0
 20 21  2  0
 20 22  1  0
 22 23  2  0
 23 24  1  0
 24 25  2  0
 25 26  1  0
 26 27  2  0
 18 28  1  0
  6 29  2  0
 29 30  1  0
 30  4  1  0
 13  7  1  0
 28 15  1  0
 27 22  1  0
  1 31  1  0
  1 32  1  0
  5 33  1  0
  9 34  1  0
  9 35  1  0
 10 36  1  0
 11 37  1  0
 12 38  1  0
 16 39  1  0
 17 40  1  0
 23 41  1  0
 24 42  1  0
 25 43  1  0
 26 44  1  0
 27 45  1  0
 30 46  1  0
M  END
>  <smiles>  (55) 
NC(=O)c1cc(-c2c(N)cccc2Sc2c[nH]c(=NC(=O)c3ccccc3)s2)n[nH]1

>  <score_type>  (55) 
oracle

>  <origin>  (55) 
adg

>  <m_score__min__energy>  (55) 
-9.7899999999999991

>  <m_primary>  (55) 
energy

$$$$
55:0
     RDKit          3D

 47 49  0  0  0  0  0  0  0  0999 V2000
   60.7954   28.9102   43.8823 H   0  0  0  0  0  0  0  0  0  0  0  0
   60.4050   28.6380   44.8740 C   0  0  0  0  0  0  0  0  0  0  0  0
   59.6690   27.4590   45.0350 C   0  0  0  0  0  0  0  0  0  0  0  0
   59.4928   26.8017   44.1708 H   0  0  0  0  0  0  0  0  0  0  0  0
   59.1550   27.1110   46.2920 C   0  0  0  0  0  0  0  0  0  0  0  0
   58.4030   25.8960   46.4230 N   0  0  0  0  0  0  0  0  0  0  0  0
   57.0370   25.7840   46.8440 C   0  0  0  0  0  0  0  0  0  0  0  0
   56.7890   25.1140   47.8770 O   0  0  0  0  0  0  0  0  0  0  0  0
   55.9310   26.3540   46.0370 C   0  0  0  0  0  0  0  0  0  0  0  0
   54.9590   25.6150   45.7320 O   0  0  0  0  0  0  0  0  0  0  0  0
   55.9070   27.7160   45.5820 N   0  0  0  0  0  0  0  0  0  0  0  0
   56.8880   28.7610   45.8610 C   0  0  0  0  0  0  0  0  0  0  0  0
   56.5835   29.3089   46.7649 H   0  0  0  0  0  0  0  0  0  0  0  0
   57.8707   28.2899   46.0103 H   0  0  0  0  0  0  0  0  0  0  0  0
   56.9870   29.7280   44.7070 C   0  0  0  0  0  0  0  0  0  0  0  0
   56.5190   29.3640   43.4330 C   0  0  0  0  0  0  0  0  0  0  0  0
   56.0500   28.3804   43.2831 H   0  0  0  0  0  0  0  0  0  0  0  0
   56.6460   30.2440   42.3560 C   0  0  0  0  0  0  0  0  0  0  0  0
   56.2672   29.9543   41.3647 H   0  0  0  0  0  0  0  0  0  0  0  0
   57.2530   31.4930   42.5320 C   0  0  0  0  0  0  0  0  0  0  0  0
   57.4110   32.5650   41.1450 Cl  0  0  0  0  0  0  0  0  0  0  0  0
   57.7400   31.8590   43.7990 C   0  0  0  0  0  0  0  0  0  0  0  0
   58.5190   33.4140   44.0600 Cl  0  0  0  0  0  0  0  0  0  0  0  0
   57.6130   30.9750   44.8770 C   0  0  0  0  0  0  0  0  0  0  0  0
   58.0060   31.2584   45.8645 H   0  0  0  0  0  0  0  0  0  0  0  0
   59.4350   27.9270   47.4020 C   0  0  0  0  0  0  0  0  0  0  0  0
   59.0762   27.6358   48.4002 H   0  0  0  0  0  0  0  0  0  0  0  0
   60.1700   29.1110   47.2420 C   0  0  0  0  0  0  0  0  0  0  0  0
   60.4950   30.1260   48.6440 S   0  0  0  0  0  0  0  0  0  0  0  0
   59.2300   30.4280   49.3980 O   0  0  0  0  0  0  0  0  0  0  0  0
   61.4260   29.3870   49.5650 O   0  0  0  0  0  0  0  0  0  0  0  0
   61.2490   31.6060   48.1420 N   0  0  0  0  0  0  0  0  0  0  0  0
   62.2930   31.6430   48.1790 H   0  0  0  0  0  0  0  0  0  0  0  0
   60.5950   32.6500   47.7260 C   0  0  0  0  0  0  0  0  0  0  0  0
   59.2480   32.9250   48.0480 N   0  0  0  0  0  0  0  0  0  0  0  0
   58.6230   32.3510   48.6490 H   0  0  0  0  0  0  0  0  0  0  0  0
   58.8390   34.1850   47.4590 C   0  0  0  0  0  0  0  0  0  0  0  0
   58.5350   34.8921   48.2448 H   0  0  0  0  0  0  0  0  0  0  0  0
   57.9794   34.0518   46.7857 H   0  0  0  0  0  0  0  0  0  0  0  0
   60.0660   34.7250   46.7010 C   0  0  0  0  0  0  0  0  0  0  0  0
   60.3732   35.6930   47.1236 H   0  0  0  0  0  0  0  0  0  0  0  0
   59.8305   34.8760   45.6372 H   0  0  0  0  0  0  0  0  0  0  0  0
   61.1980   33.6950   46.8670 C   0  0  0  0  0  0  0  0  0  0  0  0
   62.0730   34.1484   47.3557 H   0  0  0  0  0  0  0  0  0  0  0  0
   61.5617   33.3012   45.9065 H   0  0  0  0  0  0  0  0  0  0  0  0
   60.6450   29.4700   45.9700 C   0  0  0  0  0  0  0  0  0  0  0  0
   61.2062   30.4067   45.8368 H   0  0  0  0  0  0  0  0  0  0  0  0
  1  2  1  0
  2  3  2  0
  3  4  1  0
  3  5  1  0
  5  6  1  0
  6  7  1  0
  7  8  2  0
  7  9  1  0
  9 10  2  0
  9 11  1  0
 11 12  1  0
 12 13  1  0
 12 14  1  0
 12 15  1  0
 15 16  2  0
 16 17  1  0
 16 18  1  0
 18 19  1  0
 18 20  2  0
 20 21  1  0
 20 22  1  0
 22 23  1  0
 22 24  2  0
 24 25  1  0
  5 26  2  0
 26 27  1  0
 26 28  1  0
 28 29  1  0
 29 30  2  0
 29 31  2  0
 29 32  1  0
 32 33  1  0
 32 34  2  0
 34 35  1  0
 35 36  1  0
 35 37  1  0
 37 38  1  0
 37 39  1  0
 37 40  1  0
 40 41  1  0
 40 42  1  0
 40 43  1  0
 43 44  1  0
 43 45  1  0
 28 46  2  0
 46 47  1  0
 46  2  1  0
 24 15  1  0
 43 34  1  0
M  CHG  3   6  -1  11  -1  32   1
M  END
>  <UniqueID>  (56) 
53

>  <SMILES>  (56) 
O=C([N-]Cc1ccc(Cl)c(Cl)c1)C(=O)[N-]c1cccc(S(=O)(=O)/[NH+]=C2/CCCN2)c1

>  <Energy>  (56) 
63.34190366081643

>  <Genealogy>  (56) 
O=C([N-]Cc1ccc(Cl)c(Cl)c1)C(=O)[N-]c1cccc(S(=O)(=O)[NH+]=C2CCCN2)c1 (protonated)
O=C([N-]Cc1ccc(Cl)c(Cl)c1)C(=O)[N-]c1cccc(S(=O)(=O)/[NH+]=C2/CCCN2)c1 (cis-trans isomerization)
O=C([N-]Cc1ccc(Cl)c(Cl)c1)C(=O)[N-]c1cccc(S(=O)(=O)/[NH+]=C2/CCCN2)c1 (3D coordinates assigned)
O=C([N-]Cc1ccc(Cl)c(Cl)c1)C(=O)[N-]c1cccc(S(=O)(=O)/[NH+]=C2/CCCN2)c1 (nonaromatic ring conformer: 63.34190366081643 kcal/mol)

>  <smiles>  (56) 
O=C(NCc1ccc(Cl)c(Cl)c1)C(=O)Nc1cccc(S(=O)(=O)N=C2CCCN2)c1

>  <score_type>  (56) 
oracle

>  <origin>  (56) 
adg

>  <m_score__min__energy>  (56) 
-11.470000000000001

>  <m_primary>  (56) 
energy

$$$$
56:0
     RDKit          3D

 47 50  0  0  0  0  0  0  0  0999 V2000
   56.2720   24.7440   47.8510 O   0  0  0  0  0  0  0  0  0  0  0  0
   56.4050   25.2570   46.7080 C   0  0  0  0  0  0  0  0  0  0  0  0
   55.5430   24.8090   45.6530 N   0  0  0  0  0  0  0  0  0  0  0  0
   55.9150   24.1430   44.5990 C   0  0  0  0  0  0  0  0  0  0  0  0
   55.6600   22.8260   44.4440 N   0  0  0  0  0  0  0  0  0  0  0  0
   56.2500   22.5970   43.2520 C   0  0  0  0  0  0  0  0  0  0  0  0
   56.2630   21.4720   42.6890 O   0  0  0  0  0  0  0  0  0  0  0  0
   56.8140   23.6690   42.7510 O   0  0  0  0  0  0  0  0  0  0  0  0
   56.6240   24.6540   43.5700 N   0  0  0  0  0  0  0  0  0  0  0  0
   57.3870   26.3530   46.5100 C   0  0  0  0  0  0  0  0  0  0  0  0
   58.5780   26.3740   47.2550 C   0  0  0  0  0  0  0  0  0  0  0  0
   59.5090   27.3990   47.0690 C   0  0  0  0  0  0  0  0  0  0  0  0
   59.2540   28.4210   46.1520 C   0  0  0  0  0  0  0  0  0  0  0  0
   58.0520   28.4340   45.4260 C   0  0  0  0  0  0  0  0  0  0  0  0
   57.7610   29.4650   44.4700 N   0  0  0  0  0  0  0  0  0  0  0  0
   57.0730   30.6950   44.7370 C   0  0  0  0  0  0  0  0  0  0  0  0
   55.8350   30.7540   44.5080 O   0  0  0  0  0  0  0  0  0  0  0  0
   57.7630   31.8710   45.3180 C   0  0  0  0  0  0  0  0  0  0  0  0
   57.1130   33.1140   45.4050 C   0  0  0  0  0  0  0  0  0  0  0  0
   57.7740   34.2190   45.9470 C   0  0  0  0  0  0  0  0  0  0  0  0
   59.0890   34.0990   46.3990 C   0  0  0  0  0  0  0  0  0  0  0  0
   59.7590   32.8670   46.3120 C   0  0  0  0  0  0  0  0  0  0  0  0
   61.1180   32.7370   46.7710 N   0  0  0  0  0  0  0  0  0  0  0  0
   61.6310   31.4370   47.2140 C   0  0  0  0  0  0  0  0  0  0  0  0
   62.7500   31.6470   48.2390 C   0  0  0  0  0  0  0  0  0  0  0  0
   63.7370   32.5260   47.7320 O   0  0  0  0  0  0  0  0  0  0  0  0
   63.1810   33.8130   47.5410 C   0  0  0  0  0  0  0  0  0  0  0  0
   62.0990   33.7820   46.4580 C   0  0  0  0  0  0  0  0  0  0  0  0
   59.0920   31.7610   45.7610 C   0  0  0  0  0  0  0  0  0  0  0  0
   57.1320   27.3930   45.5980 C   0  0  0  0  0  0  0  0  0  0  0  0
   56.9890   25.6230   43.4390 H   0  0  0  0  0  0  0  0  0  0  0  0
   58.7785   25.5792   47.9886 H   0  0  0  0  0  0  0  0  0  0  0  0
   60.4453   27.4010   47.6463 H   0  0  0  0  0  0  0  0  0  0  0  0
   59.9966   29.2178   45.9980 H   0  0  0  0  0  0  0  0  0  0  0  0
   56.0789   33.2173   45.0446 H   0  0  0  0  0  0  0  0  0  0  0  0
   57.2563   35.1870   46.0178 H   0  0  0  0  0  0  0  0  0  0  0  0
   59.6033   34.9729   46.8253 H   0  0  0  0  0  0  0  0  0  0  0  0
   60.8160   30.8599   47.6752 H   0  0  0  0  0  0  0  0  0  0  0  0
   62.0280   30.8871   46.3480 H   0  0  0  0  0  0  0  0  0  0  0  0
   62.3223   32.0759   49.1572 H   0  0  0  0  0  0  0  0  0  0  0  0
   63.2192   30.6754   48.4531 H   0  0  0  0  0  0  0  0  0  0  0  0
   62.7357   34.1575   48.4860 H   0  0  0  0  0  0  0  0  0  0  0  0
   63.9798   34.4987   47.2221 H   0  0  0  0  0  0  0  0  0  0  0  0
   61.5935   34.7582   46.4177 H   0  0  0  0  0  0  0  0  0  0  0  0
   62.5633   33.5668   45.4843 H   0  0  0  0  0  0  0  0  0  0  0  0
   59.6158   30.7975   45.6752 H   0  0  0  0  0  0  0  0  0  0  0  0
   56.1999   27.3883   45.0138 H   0  0  0  0  0  0  0  0  0  0  0  0
  1  2  2  0
  2  3  1  0
  3  4  2  3
  4  5  1  0
  5  6  1  0
  6  7  2  0
  6  8  1  0
  8  9  1  0
  2 10  1  0
 10 11  2  0
 11 12  1  0
 12 13  2  0
 13 14  1  0
 14 15  1  0
 15 16  1  0
 16 17  2  0
 16 18  1  0
 18 19  2  0
 19 20  1  0
 20 21  2  0
 21 22  1  0
 22 23  1  0
 23 24  1  0
 24 25  1  0
 25 26  1  0
 26 27  1  0
 27 28  1  0
 22 29  2  0
 14 30  2  0
  9  4  1  0
 30 10  1  0
 29 18  1  0
 28 23  1  0
  9 31  1  0
 11 32  1  0
 12 33  1  0
 13 34  1  0
 19 35  1  0
 20 36  1  0
 21 37  1  0
 24 38  1  0
 24 39  1  0
 25 40  1  0
 25 41  1  0
 27 42  1  0
 27 43  1  0
 28 44  1  0
 28 45  1  0
 29 46  1  0
 30 47  1  0
M  CHG  2   5  -1  15  -1
M  END
>  <UniqueID>  (57) 
54

>  <SMILES>  (57) 
O=C(N=c1[n-]c(=O)o[nH]1)c1cccc([N-]C(=O)c2cccc(N3CCOCC3)c2)c1

>  <Energy>  (57) 
106.84891616430758

>  <Genealogy>  (57) 
O=C(N=c1[n-]c(=O)o[nH]1)c1cccc([N-]C(=O)c2cccc(N3CCOCC3)c2)c1 (protonated)
O=C(N=c1[n-]c(=O)o[nH]1)c1cccc([N-]C(=O)c2cccc(N3CCOCC3)c2)c1 (3D coordinates assigned)
O=C(N=c1[n-]c(=O)o[nH]1)c1cccc([N-]C(=O)c2cccc(N3CCOCC3)c2)c1 (nonaromatic ring conformer: 106.84891616430758 kcal/mol)

>  <smiles>  (57) 
O=C(N=c1[nH]oc(=O)[nH]1)c1cccc(NC(=O)c2cccc(N3CCOCC3)c2)c1

>  <score_type>  (57) 
oracle

>  <origin>  (57) 
adg

>  <m_score__min__energy>  (57) 
-12.800000000000001

>  <m_primary>  (57) 
energy

$$$$
57:0
     RDKit          3D

 42 44  0  0  0  0  0  0  0  0999 V2000
   59.7515   25.0805   46.5348 H   0  0  0  0  0  0  0  0  0  0  0  0
   58.7150   25.4400   46.4540 C   0  0  0  0  0  0  0  0  0  0  0  0
   58.4330   26.5350   45.7010 N   0  0  0  0  0  0  0  0  0  0  0  0
   57.1710   27.0300   45.5660 C   0  0  0  0  0  0  0  0  0  0  0  0
   57.0150   28.0910   44.8230 N   0  0  0  0  0  0  0  0  0  0  0  0
   57.1390   29.4720   45.1930 C   0  0  0  0  0  0  0  0  0  0  0  0
   56.2410   30.2920   44.8580 O   0  0  0  0  0  0  0  0  0  0  0  0
   58.2710   29.9170   46.0380 C   0  0  0  0  0  0  0  0  0  0  0  0
   59.2090   30.8390   45.5430 C   0  0  0  0  0  0  0  0  0  0  0  0
   59.0749   31.2676   44.5389 H   0  0  0  0  0  0  0  0  0  0  0  0
   60.3110   31.2160   46.3160 C   0  0  0  0  0  0  0  0  0  0  0  0
   61.0343   31.9433   45.9188 H   0  0  0  0  0  0  0  0  0  0  0  0
   60.5000   30.6720   47.5960 C   0  0  0  0  0  0  0  0  0  0  0  0
   61.6580   30.9880   48.3860 N   0  0  0  0  0  0  0  0  0  0  0  0
   62.2100   30.2000   48.7930 H   0  0  0  0  0  0  0  0  0  0  0  0
   62.4320   32.5440   48.3720 S   0  0  0  0  0  0  0  0  0  0  0  0
   63.6230   32.5480   49.2890 O   0  0  0  0  0  0  0  0  0  0  0  0
   62.9170   32.8170   46.9750 O   0  0  0  0  0  0  0  0  0  0  0  0
   61.2880   33.8460   48.8210 C   0  0  0  0  0  0  0  0  0  0  0  0
   60.8553   33.6156   49.8057 H   0  0  0  0  0  0  0  0  0  0  0  0
   61.8433   34.7953   48.8449 H   0  0  0  0  0  0  0  0  0  0  0  0
   60.1720   33.9820   47.8180 C   0  0  0  0  0  0  0  0  0  0  0  0
   60.4100   34.6100   46.5830 C   0  0  0  0  0  0  0  0  0  0  0  0
   61.4029   35.0304   46.3652 H   0  0  0  0  0  0  0  0  0  0  0  0
   59.3910   34.7030   45.6300 C   0  0  0  0  0  0  0  0  0  0  0  0
   59.5853   35.1929   44.6644 H   0  0  0  0  0  0  0  0  0  0  0  0
   58.1270   34.1750   45.9020 C   0  0  0  0  0  0  0  0  0  0  0  0
   57.3279   34.2450   45.1494 H   0  0  0  0  0  0  0  0  0  0  0  0
   57.8780   33.5580   47.1300 C   0  0  0  0  0  0  0  0  0  0  0  0
   56.8800   33.1483   47.3449 H   0  0  0  0  0  0  0  0  0  0  0  0
   58.8930   33.4590   48.0880 C   0  0  0  0  0  0  0  0  0  0  0  0
   58.6310   32.8500   49.2720 F   0  0  0  0  0  0  0  0  0  0  0  0
   59.5400   29.7890   48.1100 C   0  0  0  0  0  0  0  0  0  0  0  0
   59.6523   29.3947   49.1307 H   0  0  0  0  0  0  0  0  0  0  0  0
   58.4420   29.4060   47.3360 C   0  0  0  0  0  0  0  0  0  0  0  0
   57.7055   28.6990   47.7456 H   0  0  0  0  0  0  0  0  0  0  0  0
   56.1020   26.3460   46.2000 C   0  0  0  0  0  0  0  0  0  0  0  0
   54.7720   26.7140   46.0290 O   0  0  0  0  0  0  0  0  0  0  0  0
   56.3820   25.2280   46.9920 C   0  0  0  0  0  0  0  0  0  0  0  0
   55.5652   24.7067   47.5126 H   0  0  0  0  0  0  0  0  0  0  0  0
   57.6920   24.7720   47.1240 C   0  0  0  0  0  0  0  0  0  0  0  0
   57.9159   23.8953   47.7495 H   0  0  0  0  0  0  0  0  0  0  0  0
  1  2  1  0
  2  3  1  0
  3  4  1  0
  4  5  2  0
  5  6  1  0
  6  7  2  0
  6  8  1  0
  8  9  2  0
  9 10  1  0
  9 11  1  0
 11 12  1  0
 11 13  2  0
 13 14  1  0
 14 15  1  0
 14 16  1  0
 16 17  2  0
 16 18  2  0
 16 19  1  0
 19 20  1  0
 19 21  1  0
 19 22  1  0
 22 23  2  0
 23 24  1  0
 23 25  1  0
 25 26  1  0
 25 27  2  0
 27 28  1  0
 27 29  1  0
 29 30  1  0
 29 31  2  0
 31 32  1  0
 13 33  1  0
 33 34  1  0
 33 35  2  0
 35 36  1  0
  4 37  1  0
 37 38  1  0
 37 39  2  0
 39 40  1  0
 39 41  1  0
 41 42  1  0
 41  2  2  0
 35  8  1  0
 31 22  1  0
M  CHG  2   3  -1  38  -1
M  END
>  <UniqueID>  (58) 
55

>  <SMILES>  (58) 
O=C(/N=c1/[n-]cccc1[O-])c1ccc(NS(=O)(=O)Cc2ccccc2F)cc1

>  <Energy>  (58) 
54.95654668551339

>  <Genealogy>  (58) 
O=C(N=c1[n-]cccc1[O-])c1ccc(NS(=O)(=O)Cc2ccccc2F)cc1 (protonated)
O=C(/N=c1/[n-]cccc1[O-])c1ccc(NS(=O)(=O)Cc2ccccc2F)cc1 (cis-trans isomerization)
O=C(/N=c1/[n-]cccc1[O-])c1ccc(NS(=O)(=O)Cc2ccccc2F)cc1 (3D coordinates assigned)
O=C(/N=c1/[n-]cccc1[O-])c1ccc(NS(=O)(=O)Cc2ccccc2F)cc1 (optimized conformer: 54.95654668551339 kcal/mol)

>  <smiles>  (58) 
O=C(N=c1[nH]cccc1O)c1ccc(NS(=O)(=O)Cc2ccccc2F)cc1

>  <score_type>  (58) 
oracle

>  <origin>  (58) 
adg

>  <m_score__min__energy>  (58) 
-13.77

>  <m_primary>  (58) 
energy

$$$$
58:0
     RDKit          3D

 54 57  0  0  0  0  0  0  0  0999 V2000
   53.5030   23.8960   45.8360 C   0  0  0  0  0  0  0  0  0  0  0  0
   54.8730   24.0740   45.2370 C   0  0  0  0  0  0  0  0  0  0  0  0
   55.4030   23.0690   44.4150 C   0  0  0  0  0  0  0  0  0  0  0  0
   56.6670   23.2170   43.8430 C   0  0  0  0  0  0  0  0  0  0  0  0
   57.4240   24.3570   44.1010 C   0  0  0  0  0  0  0  0  0  0  0  0
   56.9260   25.3700   44.9320 C   0  0  0  0  0  0  0  0  0  0  0  0
   57.7730   26.5500   45.2190 C   0  0  0  0  0  0  0  0  0  0  0  0
   58.6360   26.9060   44.3690 O   0  0  0  0  0  0  0  0  0  0  0  0
   57.6240   27.3160   46.4260 N   0  0  0  0  0  0  0  0  0  0  0  0
   58.5730   28.2650   46.9310 C   0  0  0  0  0  0  0  0  0  0  0  0
   59.8760   27.8830   47.2830 C   0  0  0  0  0  0  0  0  0  0  0  0
   60.7670   28.8210   47.8060 C   0  0  0  0  0  0  0  0  0  0  0  0
   60.3710   30.1550   47.9900 C   0  0  0  0  0  0  0  0  0  0  0  0
   61.3390   31.1090   48.4610 N   0  0  0  0  0  0  0  0  0  0  0  0
   62.1610   31.8260   47.4800 C   0  0  0  0  0  0  0  0  0  0  0  0
   63.3030   32.5540   48.1710 C   0  0  0  0  0  0  0  0  0  0  0  0
   63.8850   31.6900   49.1170 O   0  0  0  0  0  0  0  0  0  0  0  0
   63.0420   31.5660   50.2470 C   0  0  0  0  0  0  0  0  0  0  0  0
   61.5650   31.2660   49.9060 C   0  0  0  0  0  0  0  0  0  0  0  0
   59.0590   30.5470   47.6310 C   0  0  0  0  0  0  0  0  0  0  0  0
   58.5570   31.9160   47.8840 C   0  0  0  0  0  0  0  0  0  0  0  0
   58.0600   32.1870   49.0130 O   0  0  0  0  0  0  0  0  0  0  0  0
   58.6890   32.9810   46.8640 C   0  0  0  0  0  0  0  0  0  0  0  0
   58.0350   32.8440   45.6260 C   0  0  0  0  0  0  0  0  0  0  0  0
   58.1680   33.8180   44.6320 C   0  0  0  0  0  0  0  0  0  0  0  0
   58.9700   34.9330   44.8510 C   0  0  0  0  0  0  0  0  0  0  0  0
   59.6270   35.0900   46.0730 C   0  0  0  0  0  0  0  0  0  0  0  0
   59.4860   34.1310   47.0860 C   0  0  0  0  0  0  0  0  0  0  0  0
   60.2450   34.4560   48.6350 Cl  0  0  0  0  0  0  0  0  0  0  0  0
   58.1850   29.6010   47.0730 C   0  0  0  0  0  0  0  0  0  0  0  0
   55.6240   25.2480   45.4710 C   0  0  0  0  0  0  0  0  0  0  0  0
   55.0900   26.3070   46.2120 O   0  0  0  0  0  0  0  0  0  0  0  0
   53.5785   23.9058   46.9334 H   0  0  0  0  0  0  0  0  0  0  0  0
   52.8491   24.7167   45.5061 H   0  0  0  0  0  0  0  0  0  0  0  0
   53.0806   22.9354   45.5061 H   0  0  0  0  0  0  0  0  0  0  0  0
   54.8183   22.1579   44.2199 H   0  0  0  0  0  0  0  0  0  0  0  0
   57.0669   22.4305   43.1860 H   0  0  0  0  0  0  0  0  0  0  0  0
   58.4211   24.4634   43.6489 H   0  0  0  0  0  0  0  0  0  0  0  0
   60.1968   26.8397   47.1462 H   0  0  0  0  0  0  0  0  0  0  0  0
   61.7877   28.5126   48.0762 H   0  0  0  0  0  0  0  0  0  0  0  0
   62.5748   31.1055   46.7591 H   0  0  0  0  0  0  0  0  0  0  0  0
   61.5318   32.5639   46.9608 H   0  0  0  0  0  0  0  0  0  0  0  0
   64.0573   32.8494   47.4268 H   0  0  0  0  0  0  0  0  0  0  0  0
   62.9221   33.4557   48.6729 H   0  0  0  0  0  0  0  0  0  0  0  0
   63.4243   30.7473   50.8743 H   0  0  0  0  0  0  0  0  0  0  0  0
   63.0564   32.5388   50.7602 H   0  0  0  0  0  0  0  0  0  0  0  0
   61.2685   30.3355   50.4122 H   0  0  0  0  0  0  0  0  0  0  0  0
   60.9639   32.1221   50.2463 H   0  0  0  0  0  0  0  0  0  0  0  0
   57.4104   31.9584   45.4375 H   0  0  0  0  0  0  0  0  0  0  0  0
   57.6376   33.7024   43.6753 H   0  0  0  0  0  0  0  0  0  0  0  0
   59.0866   35.6906   44.0621 H   0  0  0  0  0  0  0  0  0  0  0  0
   60.2604   35.9733   46.2423 H   0  0  0  0  0  0  0  0  0  0  0  0
   57.1833   29.9141   46.7436 H   0  0  0  0  0  0  0  0  0  0  0  0
   55.6170   26.8250   46.9070 H   0  0  0  0  0  0  0  0  0  0  0  0
  1  2  1  0
  2  3  2  0
  3  4  1  0
  4  5  2  0
  5  6  1  0
  6  7  1  0
  7  8  2  0
  7  9  1  0
  9 10  1  0
 10 11  2  0
 11 12  1  0
 12 13  2  0
 13 14  1  0
 14 15  1  0
 15 16  1  0
 16 17  1  0
 17 18  1  0
 18 19  1  0
 13 20  1  0
 20 21  1  0
 21 22  2  0
 21 23  1  0
 23 24  2  0
 24 25  1  0
 25 26  2  0
 26 27  1  0
 27 28  2  0
 28 29  1  0
 20 30  2  0
  6 31  2  0
 31 32  1  0
 31  2  1  0
 30 10  1  0
 19 14  1  0
 28 23  1  0
  1 33  1  0
  1 34  1  0
  1 35  1  0
  3 36  1  0
  4 37  1  0
  5 38  1  0
 11 39  1  0
 12 40  1  0
 15 41  1  0
 15 42  1  0
 16 43  1  0
 16 44  1  0
 18 45  1  0
 18 46  1  0
 19 47  1  0
 19 48  1  0
 24 49  1  0
 25 50  1  0
 26 51  1  0
 27 52  1  0
 30 53  1  0
 32 54  1  0
M  CHG  1   9  -1
M  END
>  <UniqueID>  (59) 
56

>  <SMILES>  (59) 
Cc1cccc(C(=O)[N-]c2ccc(N3CCOCC3)c(C(=O)c3ccccc3Cl)c2)c1O

>  <Energy>  (59) 
86.29557919283684

>  <Genealogy>  (59) 
Cc1cccc(C(=O)[N-]c2ccc(N3CCOCC3)c(C(=O)c3ccccc3Cl)c2)c1O (protonated)
Cc1cccc(C(=O)[N-]c2ccc(N3CCOCC3)c(C(=O)c3ccccc3Cl)c2)c1O (3D coordinates assigned)
Cc1cccc(C(=O)[N-]c2ccc(N3CCOCC3)c(C(=O)c3ccccc3Cl)c2)c1O (nonaromatic ring conformer: 86.29557919283684 kcal/mol)

>  <smiles>  (59) 
Cc1cccc(C(=O)Nc2ccc(N3CCOCC3)c(C(=O)c3ccccc3Cl)c2)c1O

>  <score_type>  (59) 
oracle

>  <origin>  (59) 
adg

>  <m_score__min__energy>  (59) 
-11.66

>  <m_primary>  (59) 
energy

$$$$
59:0
     RDKit          3D

 57 60  0  0  0  0  0  0  0  0999 V2000
   57.8890   32.9000   44.7590 C   0  0  0  0  0  0  0  0  0  0  0  0
   58.2800   31.8120   45.7180 C   0  0  0  0  0  0  0  0  0  0  0  0
   57.7480   30.5270   45.7460 C   0  0  0  0  0  0  0  0  0  0  0  0
   56.6800   29.9640   44.8980 C   0  0  0  0  0  0  0  0  0  0  0  0
   55.7990   30.7130   44.4010 O   0  0  0  0  0  0  0  0  0  0  0  0
   56.6980   28.5670   44.5720 N   0  0  0  0  0  0  0  0  0  0  0  0
   57.1950   27.5790   45.2610 C   0  0  0  0  0  0  0  0  0  0  0  0
   58.5500   27.4950   45.3570 N   0  0  0  0  0  0  0  0  0  0  0  0
   59.1750   26.5160   46.0610 C   0  0  0  0  0  0  0  0  0  0  0  0
   58.4280   25.5500   46.7270 C   0  0  0  0  0  0  0  0  0  0  0  0
   57.0380   25.6090   46.6710 C   0  0  0  0  0  0  0  0  0  0  0  0
   56.4050   26.6270   45.9560 C   0  0  0  0  0  0  0  0  0  0  0  0
   55.0190   26.6950   45.9940 O   0  0  0  0  0  0  0  0  0  0  0  0
   58.3740   29.8600   46.7830 C   0  0  0  0  0  0  0  0  0  0  0  0
   59.2770   30.7480   47.3290 C   0  0  0  0  0  0  0  0  0  0  0  0
   60.0680   30.4770   48.5330 C   0  0  0  0  0  0  0  0  0  0  0  0
   60.6090   29.3460   48.6400 O   0  0  0  0  0  0  0  0  0  0  0  0
   60.2710   31.4310   49.5870 N   0  0  0  0  0  0  0  0  0  0  0  0
   59.4000   31.9720   50.5960 C   0  0  0  0  0  0  0  0  0  0  0  0
   59.4370   33.3110   51.0350 C   0  0  0  0  0  0  0  0  0  0  0  0
   58.5140   33.7690   51.9790 C   0  0  0  0  0  0  0  0  0  0  0  0
   57.5550   32.9020   52.5080 C   0  0  0  0  0  0  0  0  0  0  0  0
   57.5210   31.5620   52.1040 C   0  0  0  0  0  0  0  0  0  0  0  0
   56.3380   30.4490   52.8060 S   0  0  0  0  0  0  0  0  0  0  0  0
   56.5830   30.3390   54.2870 O   0  0  0  0  0  0  0  0  0  0  0  0
   56.5380   29.0870   52.2020 O   0  0  0  0  0  0  0  0  0  0  0  0
   54.6920   30.9880   52.5650 N   0  0  0  0  0  0  0  0  0  0  0  0
   54.1810   30.5710   51.2530 C   0  0  0  0  0  0  0  0  0  0  0  0
   52.7590   31.1330   51.0400 C   0  0  0  0  0  0  0  0  0  0  0  0
   52.2030   31.6640   52.2310 O   0  0  0  0  0  0  0  0  0  0  0  0
   52.3300   30.7270   53.2820 C   0  0  0  0  0  0  0  0  0  0  0  0
   53.8120   30.5060   53.6430 C   0  0  0  0  0  0  0  0  0  0  0  0
   58.4400   31.1100   51.1430 C   0  0  0  0  0  0  0  0  0  0  0  0
   59.2130   31.9390   46.6920 N   0  0  0  0  0  0  0  0  0  0  0  0
   59.9940   33.1400   46.9980 C   0  0  0  0  0  0  0  0  0  0  0  0
   57.5696   33.7887   45.3231 H   0  0  0  0  0  0  0  0  0  0  0  0
   58.7507   33.1578   44.1258 H   0  0  0  0  0  0  0  0  0  0  0  0
   57.0603   32.5503   44.1258 H   0  0  0  0  0  0  0  0  0  0  0  0
   60.2738   26.4870   46.1046 H   0  0  0  0  0  0  0  0  0  0  0  0
   58.9291   24.7494   47.2909 H   0  0  0  0  0  0  0  0  0  0  0  0
   56.4362   24.8501   47.1925 H   0  0  0  0  0  0  0  0  0  0  0  0
   58.1884   28.8257   47.1081 H   0  0  0  0  0  0  0  0  0  0  0  0
   60.1957   33.9984   50.6327 H   0  0  0  0  0  0  0  0  0  0  0  0
   58.5428   34.8184   52.3074 H   0  0  0  0  0  0  0  0  0  0  0  0
   56.8254   33.2727   53.2431 H   0  0  0  0  0  0  0  0  0  0  0  0
   54.8460   30.9529   50.4644 H   0  0  0  0  0  0  0  0  0  0  0  0
   54.1463   29.4724   51.2104 H   0  0  0  0  0  0  0  0  0  0  0  0
   52.8044   31.9316   50.2849 H   0  0  0  0  0  0  0  0  0  0  0  0
   52.1164   30.3029   50.7113 H   0  0  0  0  0  0  0  0  0  0  0  0
   51.7956   31.1031   54.1669 H   0  0  0  0  0  0  0  0  0  0  0  0
   51.9007   29.7689   52.9536 H   0  0  0  0  0  0  0  0  0  0  0  0
   54.0429   31.0536   54.5686 H   0  0  0  0  0  0  0  0  0  0  0  0
   53.9834   29.4283   53.7818 H   0  0  0  0  0  0  0  0  0  0  0  0
   58.4057   30.0609   50.8139 H   0  0  0  0  0  0  0  0  0  0  0  0
   60.0714   33.2590   48.0888 H   0  0  0  0  0  0  0  0  0  0  0  0
   61.0015   33.0418   46.5675 H   0  0  0  0  0  0  0  0  0  0  0  0
   59.4956   34.0210   46.5675 H   0  0  0  0  0  0  0  0  0  0  0  0
  1  2  1  0
  2  3  2  0
  3  4  1  0
  4  5  2  0
  4  6  1  0
  6  7  2  3
  7  8  1  0
  8  9  1  0
  9 10  2  0
 10 11  1  0
 11 12  2  0
 12 13  1  0
  3 14  1  0
 14 15  2  0
 15 16  1  0
 16 17  2  0
 16 18  1  0
 18 19  1  0
 19 20  2  0
 20 21  1  0
 21 22  2  0
 22 23  1  0
 23 24  1  0
 24 25  2  0
 24 26  2  0
 24 27  1  0
 27 28  1  0
 28 29  1  0
 29 30  1  0
 30 31  1  0
 31 32  1  0
 23 33  2  0
 15 34  1  0
 34 35  1  0
 34  2  1  0
 12  7  1  0
 33 19  1  0
 32 27  1  0
  1 36  1  0
  1 37  1  0
  1 38  1  0
  9 39  1  0
 10 40  1  0
 11 41  1  0
 14 42  1  0
 20 43  1  0
 21 44  1  0
 22 45  1  0
 28 46  1  0
 28 47  1  0
 29 48  1  0
 29 49  1  0
 31 50  1  0
 31 51  1  0
 32 52  1  0
 32 53  1  0
 33 54  1  0
 35 55  1  0
 35 56  1  0
 35 57  1  0
M  CHG  3   8  -1  13  -1  18  -1
M  END
>  <UniqueID>  (60) 
57

>  <SMILES>  (60) 
Cc1c(C(=O)N=c2[n-]cccc2[O-])cc(C(=O)[N-]c2cccc(S(=O)(=O)N3CCOCC3)c2)n1C

>  <Energy>  (60) 
122.1068986141844

>  <Genealogy>  (60) 
Cc1c(C(=O)N=c2[n-]cccc2[O-])cc(C(=O)[N-]c2cccc(S(=O)(=O)N3CCOCC3)c2)n1C (protonated)
Cc1c(C(=O)N=c2[n-]cccc2[O-])cc(C(=O)[N-]c2cccc(S(=O)(=O)N3CCOCC3)c2)n1C (3D coordinates assigned)
Cc1c(C(=O)N=c2[n-]cccc2[O-])cc(C(=O)[N-]c2cccc(S(=O)(=O)N3CCOCC3)c2)n1C (nonaromatic ring conformer: 122.1068986141844 kcal/mol)

>  <smiles>  (60) 
Cc1c(C(=O)N=c2[nH]cccc2O)cc(C(=O)Nc2cccc(S(=O)(=O)N3CCOCC3)c2)n1C

>  <score_type>  (60) 
oracle

>  <origin>  (60) 
adg

>  <m_score__min__energy>  (60) 
-16.109999999999999

>  <m_primary>  (60) 
energy

$$$$
60:0
     RDKit          3D

 49 51  0  0  0  0  0  0  0  0999 V2000
   59.0480   22.3980   44.7870 C   0  0  0  0  0  0  0  0  0  0  0  0
   57.7480   22.0630   45.5300 C   0  0  2  0  0  0  0  0  0  0  0  0
   56.6760   21.4560   44.6070 C   0  0  0  0  0  0  0  0  0  0  0  0
   55.3920   21.8410   45.0240 O   0  0  0  0  0  0  0  0  0  0  0  0
   57.2620   23.2020   46.3290 N   0  0  0  0  0  0  0  0  0  0  0  0
   56.6120   24.5520   45.4300 S   0  0  0  0  0  0  0  0  0  0  0  0
   55.2620   24.8890   45.9970 O   0  0  0  0  0  0  0  0  0  0  0  0
   56.4220   24.1680   43.9900 O   0  0  0  0  0  0  0  0  0  0  0  0
   57.6210   25.9910   45.5540 C   0  0  0  0  0  0  0  0  0  0  0  0
   57.8270   26.7890   44.4250 C   0  0  0  0  0  0  0  0  0  0  0  0
   58.6160   27.9350   44.5120 C   0  0  0  0  0  0  0  0  0  0  0  0
   59.2130   28.3050   45.7220 C   0  0  0  0  0  0  0  0  0  0  0  0
   60.0010   29.4600   45.7220 O   0  0  0  0  0  0  0  0  0  0  0  0
   59.0040   27.5070   46.8770 C   0  0  0  0  0  0  0  0  0  0  0  0
   59.6050   27.8220   48.2290 C   0  0  0  0  0  0  0  0  0  0  0  0
   58.9280   28.9630   48.8360 N   0  0  0  0  0  0  0  0  0  0  0  0
   59.3820   30.3150   48.7330 C   0  0  0  0  0  0  0  0  0  0  0  0
   60.5310   30.6300   49.1480 O   0  0  0  0  0  0  0  0  0  0  0  0
   58.5120   31.2960   48.1510 N   0  0  0  0  0  0  0  0  0  0  0  0
   58.2980   31.4780   46.8810 C   0  0  0  0  0  0  0  0  0  0  0  0
   58.9070   32.4770   46.1940 N   0  0  0  0  0  0  0  0  0  0  0  0
   58.4200   32.3100   44.9540 C   0  0  0  0  0  0  0  0  0  0  0  0
   58.7110   33.0660   43.8250 C   0  0  0  0  0  0  0  0  0  0  0  0
   58.0840   32.7090   42.6200 C   0  0  0  0  0  0  0  0  0  0  0  0
   57.1890   31.6160   42.5730 C   0  0  0  0  0  0  0  0  0  0  0  0
   56.9090   30.8590   43.7370 C   0  0  0  0  0  0  0  0  0  0  0  0
   55.9730   29.7110   43.6950 C   0  0  0  0  0  0  0  0  0  0  0  0
   55.2450   29.3290   44.8620 N   0  0  0  0  0  0  0  0  0  0  0  0
   55.8080   29.0570   42.6300 O   0  0  0  0  0  0  0  0  0  0  0  0
   57.5580   31.2520   44.9180 C   0  0  0  0  0  0  0  0  0  0  0  0
   57.4630   30.7030   46.1390 N   0  0  0  0  0  0  0  0  0  0  0  0
   58.2140   26.3480   46.7710 C   0  0  0  0  0  0  0  0  0  0  0  0
   59.8450   22.6034   45.5168 H   0  0  0  0  0  0  0  0  0  0  0  0
   59.3396   21.5457   44.1557 H   0  0  0  0  0  0  0  0  0  0  0  0
   58.8914   23.2851   44.1557 H   0  0  0  0  0  0  0  0  0  0  0  0
   57.9864   21.2678   46.2517 H   0  0  0  0  0  0  0  0  0  0  0  0
   56.8430   21.8078   43.5782 H   0  0  0  0  0  0  0  0  0  0  0  0
   56.7497   20.3593   44.6498 H   0  0  0  0  0  0  0  0  0  0  0  0
   55.4660   22.7730   45.3590 H   0  0  0  0  0  0  0  0  0  0  0  0
   57.3655   26.5121   43.4657 H   0  0  0  0  0  0  0  0  0  0  0  0
   58.7712   28.5564   43.6177 H   0  0  0  0  0  0  0  0  0  0  0  0
   59.6660   30.3810   45.9650 H   0  0  0  0  0  0  0  0  0  0  0  0
   59.4977   26.9461   48.8858 H   0  0  0  0  0  0  0  0  0  0  0  0
   60.6688   28.0688   48.0966 H   0  0  0  0  0  0  0  0  0  0  0  0
   59.4086   33.9151   43.8734 H   0  0  0  0  0  0  0  0  0  0  0  0
   58.2911   33.2845   41.7057 H   0  0  0  0  0  0  0  0  0  0  0  0
   56.7045   31.3503   41.6219 H   0  0  0  0  0  0  0  0  0  0  0  0
   55.6920   29.3540   45.8050 H   0  0  0  0  0  0  0  0  0  0  0  0
   58.0600   25.7135   47.6563 H   0  0  0  0  0  0  0  0  0  0  0  0
  1  2  1  0
  2  3  1  0
  3  4  1  0
  2  5  1  0
  5  6  1  0
  6  7  2  0
  6  8  2  0
  6  9  1  0
  9 10  2  0
 10 11  1  0
 11 12  2  0
 12 13  1  0
 12 14  1  0
 14 15  1  0
 15 16  1  0
 16 17  1  0
 17 18  2  0
 17 19  1  0
 19 20  2  3
 20 21  1  0
 21 22  1  0
 22 23  2  0
 23 24  1  0
 24 25  2  0
 25 26  1  0
 26 27  1  0
 27 28  1  0
 27 29  2  0
 26 30  2  0
 30 31  1  0
 14 32  2  0
 32  9  1  0
 31 20  1  0
 30 22  1  0
  1 33  1  0
  1 34  1  0
  1 35  1  0
  2 36  1  1
  3 37  1  0
  3 38  1  0
  4 39  1  0
 10 40  1  0
 11 41  1  0
 13 42  1  0
 15 43  1  0
 15 44  1  0
 23 45  1  0
 24 46  1  0
 25 47  1  0
 28 48  1  0
 32 49  1  0
M  CHG  5   5  -1  16  -1  21  -1  28  -1  31  -1
M  END
>  <UniqueID>  (61) 
58

>  <SMILES>  (61) 
C[C@H](CO)[N-]S(=O)(=O)c1ccc(O)c(C[N-]C(=O)N=c2[n-]c3cccc(C([NH-])=O)c3[n-]2)c1

>  <Energy>  (61) 
90.59168314280971

>  <Genealogy>  (61) 
CC(CO)[N-]S(=O)(=O)c1ccc(O)c(C[N-]C(=O)N=c2[n-]c3cccc(C([NH-])=O)c3[n-]2)c1 (protonated)
C[C@H](CO)[N-]S(=O)(=O)c1ccc(O)c(C[N-]C(=O)N=c2[n-]c3cccc(C([NH-])=O)c3[n-]2)c1 (chirality)
C[C@H](CO)[N-]S(=O)(=O)c1ccc(O)c(C[N-]C(=O)N=c2[n-]c3cccc(C([NH-])=O)c3[n-]2)c1 (3D coordinates assigned)
C[C@H](CO)[N-]S(=O)(=O)c1ccc(O)c(C[N-]C(=O)N=c2[n-]c3cccc(C([NH-])=O)c3[n-]2)c1 (optimized conformer: 90.59168314280971 kcal/mol)

>  <smiles>  (61) 
CC(CO)NS(=O)(=O)c1ccc(O)c(CNC(=O)N=c2[nH]c3cccc(C(N)=O)c3[nH]2)c1

>  <score_type>  (61) 
oracle

>  <origin>  (61) 
adg

>  <m_score__min__energy>  (61) 
-16.030000000000001

>  <m_primary>  (61) 
energy

$$$$
61:0
     RDKit          3D

 57 59  0  0  0  0  0  0  0  0999 V2000
   60.3007   28.2792   52.1334 H   0  0  0  0  0  0  0  0  0  0  0  0
   59.7390   29.1510   52.5000 C   0  0  0  0  0  0  0  0  0  0  0  0
   60.3870   30.3160   52.7600 N   0  0  0  0  0  0  0  0  0  0  0  0
   59.7330   31.4150   53.2330 C   0  0  0  0  0  0  0  0  0  0  0  0
   60.4890   32.6950   53.4330 C   0  0  0  0  0  0  0  0  0  0  0  0
   61.3973   32.6817   52.8126 H   0  0  0  0  0  0  0  0  0  0  0  0
   60.7617   32.7896   54.4945 H   0  0  0  0  0  0  0  0  0  0  0  0
   59.6380   33.8630   53.0400 C   0  0  0  0  0  0  0  0  0  0  0  0
   59.3220   34.7220   53.9100 O   0  0  0  0  0  0  0  0  0  0  0  0
   59.1930   33.9820   51.6790 N   0  0  0  0  0  0  0  0  0  0  0  0
   59.9270   33.8400   50.6150 C   0  0  0  0  0  0  0  0  0  0  0  0
   61.2800   33.8270   50.6140 N   0  0  0  0  0  0  0  0  0  0  0  0
   61.7760   33.6850   49.3550 C   0  0  0  0  0  0  0  0  0  0  0  0
   62.8545   33.6431   49.1426 H   0  0  0  0  0  0  0  0  0  0  0  0
   60.8100   33.5970   48.3580 C   0  0  0  0  0  0  0  0  0  0  0  0
   61.0690   33.3910   46.8980 C   0  0  0  0  0  0  0  0  0  0  0  0
   61.6732   32.4820   46.7611 H   0  0  0  0  0  0  0  0  0  0  0  0
   61.6086   34.2644   46.5031 H   0  0  0  0  0  0  0  0  0  0  0  0
   59.7670   33.2400   46.1530 C   0  0  0  0  0  0  0  0  0  0  0  0
   59.2380   34.3370   45.4580 C   0  0  0  0  0  0  0  0  0  0  0  0
   59.7876   35.2897   45.4412 H   0  0  0  0  0  0  0  0  0  0  0  0
   58.0180   34.2280   44.7870 C   0  0  0  0  0  0  0  0  0  0  0  0
   57.6121   35.0935   44.2428 H   0  0  0  0  0  0  0  0  0  0  0  0
   57.3130   33.0250   44.8050 C   0  0  0  0  0  0  0  0  0  0  0  0
   56.3560   32.9425   44.2689 H   0  0  0  0  0  0  0  0  0  0  0  0
   57.8210   31.9170   45.5060 C   0  0  0  0  0  0  0  0  0  0  0  0
   57.1280   30.6620   45.5400 N   0  0  0  0  0  0  0  0  0  0  0  0
   56.5100   29.8180   44.1560 S   0  0  0  0  0  0  0  0  0  0  0  0
   55.1450   29.2700   44.4620 O   0  0  0  0  0  0  0  0  0  0  0  0
   56.4400   30.7480   42.9790 O   0  0  0  0  0  0  0  0  0  0  0  0
   57.6110   28.4760   43.7640 C   0  0  0  0  0  0  0  0  0  0  0  0
   57.9828   28.0229   44.6948 H   0  0  0  0  0  0  0  0  0  0  0  0
   57.0710   27.7181   43.1774 H   0  0  0  0  0  0  0  0  0  0  0  0
   58.4598   28.8575   43.1774 H   0  0  0  0  0  0  0  0  0  0  0  0
   59.0420   32.0330   46.1880 C   0  0  0  0  0  0  0  0  0  0  0  0
   59.5280   30.9440   46.9040 O   0  0  0  0  0  0  0  0  0  0  0  0
   59.2870   33.6740   49.0700 S   0  0  0  0  0  0  0  0  0  0  0  0
   58.3470   31.3620   53.4420 C   0  0  0  0  0  0  0  0  0  0  0  0
   57.8094   32.2440   53.8203 H   0  0  0  0  0  0  0  0  0  0  0  0
   57.6520   30.1760   53.1650 C   0  0  0  0  0  0  0  0  0  0  0  0
   56.1640   30.1060   53.3830 C   0  0  0  0  0  0  0  0  0  0  0  0
   55.9316   29.2366   54.0156 H   0  0  0  0  0  0  0  0  0  0  0  0
   55.8331   31.0328   53.8745 H   0  0  0  0  0  0  0  0  0  0  0  0
   55.4810   29.9760   52.1380 O   0  0  0  0  0  0  0  0  0  0  0  0
   54.0880   29.9490   52.0250 C   0  0  0  0  0  0  0  0  0  0  0  0
   53.4440   28.8910   52.2610 O   0  0  0  0  0  0  0  0  0  0  0  0
   53.3550   31.1840   51.6060 C   0  0  0  0  0  0  0  0  0  0  0  0
   52.9243   31.6675   52.4952 H   0  0  0  0  0  0  0  0  0  0  0  0
   54.0622   31.8631   51.1073 H   0  0  0  0  0  0  0  0  0  0  0  0
   52.2290   30.8390   50.6260 C   0  0  0  0  0  0  0  0  0  0  0  0
   52.6606   30.6322   49.6356 H   0  0  0  0  0  0  0  0  0  0  0  0
   51.6920   29.9529   50.9955 H   0  0  0  0  0  0  0  0  0  0  0  0
   51.2680   31.9800   50.5170 C   0  0  0  0  0  0  0  0  0  0  0  0
   50.6640   32.1990   49.4320 O   0  0  0  0  0  0  0  0  0  0  0  0
   51.0050   32.7770   51.6250 O   0  0  0  0  0  0  0  0  0  0  0  0
   58.3600   29.0600   52.6980 C   0  0  0  0  0  0  0  0  0  0  0  0
   57.8321   28.1179   52.4887 H   0  0  0  0  0  0  0  0  0  0  0  0
  1  2  1  0
  2  3  2  0
  3  4  1  0
  4  5  1  0
  5  6  1  0
  5  7  1  0
  5  8  1  0
  8  9  2  0
  8 10  1  0
 10 11  2  0
 11 12  1  0
 12 13  1  0
 13 14  1  0
 13 15  2  0
 15 16  1  0
 16 17  1  0
 16 18  1  0
 16 19  1  0
 19 20  2  0
 20 21  1  0
 20 22  1  0
 22 23  1  0
 22 24  2  0
 24 25  1  0
 24 26  1  0
 26 27  1  0
 27 28  1  0
 28 29  2  0
 28 30  2  0
 28 31  1  0
 31 32  1  0
 31 33  1  0
 31 34  1  0
 26 35  2  0
 35 36  1  0
 15 37  1  0
  4 38  2  0
 38 39  1  0
 38 40  1  0
 40 41  1  0
 41 42  1  0
 41 43  1  0
 41 44  1  0
 44 45  1  0
 45 46  2  0
 45 47  1  0
 47 48  1  0
 47 49  1  0
 47 50  1  0
 50 51  1  0
 50 52  1  0
 50 53  1  0
 53 54  2  0
 53 55  1  0
 40 56  2  0
 56 57  1  0
 56  2  1  0
 37 11  1  0
 35 19  1  0
M  CHG  4  12  -1  27  -1  36  -1  55  -1
M  END
>  <UniqueID>  (62) 
59

>  <SMILES>  (62) 
CS(=O)(=O)[N-]c1cccc(Cc2c[n-]/c(=N\C(=O)Cc3cc(COC(=O)CCC(=O)[O-])ccn3)s2)c1[O-]

>  <Energy>  (62) 
81.60344330070353

>  <Genealogy>  (62) 
CS(=O)(=O)[N-]c1cccc(Cc2c[n-]c(=NC(=O)Cc3cc(COC(=O)CCC(=O)[O-])ccn3)s2)c1[O-] (protonated)
CS(=O)(=O)[N-]c1cccc(Cc2c[n-]/c(=N\C(=O)Cc3cc(COC(=O)CCC(=O)[O-])ccn3)s2)c1[O-] (cis-trans isomerization)
CS(=O)(=O)[N-]c1cccc(Cc2c[n-]/c(=N\C(=O)Cc3cc(COC(=O)CCC(=O)[O-])ccn3)s2)c1[O-] (3D coordinates assigned)
CS(=O)(=O)[N-]c1cccc(Cc2c[n-]/c(=N\C(=O)Cc3cc(COC(=O)CCC(=O)[O-])ccn3)s2)c1[O-] (optimized conformer: 81.60344330070353 kcal/mol)

>  <smiles>  (62) 
CS(=O)(=O)Nc1cccc(Cc2c[nH]c(=NC(=O)Cc3cc(COC(=O)CCC(=O)O)ccn3)s2)c1O

>  <score_type>  (62) 
oracle

>  <origin>  (62) 
adg

>  <m_score__min__energy>  (62) 
-21.989999999999998

>  <m_primary>  (62) 
energy

$$$$
62:0
     RDKit          3D

 46 48  0  0  0  0  0  0  0  0999 V2000
   59.1610   34.5140   48.1250 O   0  0  0  0  0  0  0  0  0  0  0  0
   58.7560   33.3760   47.7710 C   0  0  0  0  0  0  0  0  0  0  0  0
   58.4940   32.3950   48.7820 N   0  0  0  0  0  0  0  0  0  0  0  0
   59.2590   30.8380   48.9110 S   0  0  0  0  0  0  0  0  0  0  0  0
   58.9270   30.2640   50.2590 O   0  0  0  0  0  0  0  0  0  0  0  0
   58.7430   29.8930   47.8620 O   0  0  0  0  0  0  0  0  0  0  0  0
   60.9960   30.9900   48.7720 N   0  0  0  0  0  0  0  0  0  0  0  0
   61.5040   32.0860   49.6430 C   0  0  0  0  0  0  0  0  0  0  0  0
   61.8590   33.3600   48.8610 C   0  0  0  0  0  0  0  0  0  0  0  0
   62.9190   33.0760   47.7840 C   0  0  0  0  0  0  0  0  0  0  0  0
   62.8050   31.6590   47.1950 C   0  0  0  0  0  0  0  0  0  0  0  0
   61.3820   31.1090   47.3460 C   0  0  0  0  0  0  0  0  0  0  0  0
   58.5410   33.1080   46.3360 C   0  0  0  0  0  0  0  0  0  0  0  0
   59.0620   33.9850   45.3770 C   0  0  0  0  0  0  0  0  0  0  0  0
   58.8470   33.7470   44.0200 C   0  0  0  0  0  0  0  0  0  0  0  0
   58.0950   32.6450   43.6000 C   0  0  0  0  0  0  0  0  0  0  0  0
   57.9420   32.3840   41.8630 Cl  0  0  0  0  0  0  0  0  0  0  0  0
   57.5290   31.7690   44.5590 C   0  0  0  0  0  0  0  0  0  0  0  0
   56.7160   30.5880   44.1730 C   0  0  0  0  0  0  0  0  0  0  0  0
   56.2700   30.4790   42.9990 O   0  0  0  0  0  0  0  0  0  0  0  0
   56.3310   29.6310   45.1710 N   0  0  0  0  0  0  0  0  0  0  0  0
   56.8000   28.4290   45.3690 C   0  0  0  0  0  0  0  0  0  0  0  0
   55.9070   27.4330   45.6250 N   0  0  0  0  0  0  0  0  0  0  0  0
   56.2860   26.1460   45.8430 C   0  0  0  0  0  0  0  0  0  0  0  0
   57.6370   25.8050   45.8190 C   0  0  0  0  0  0  0  0  0  0  0  0
   58.5860   26.7990   45.5880 C   0  0  0  0  0  0  0  0  0  0  0  0
   58.1830   28.1190   45.3690 C   0  0  0  0  0  0  0  0  0  0  0  0
   59.1440   29.0670   45.2520 F   0  0  0  0  0  0  0  0  0  0  0  0
   57.7580   32.0220   45.9250 C   0  0  0  0  0  0  0  0  0  0  0  0
   61.3950   30.0900   49.1310 H   0  0  0  0  0  0  0  0  0  0  0  0
   60.7285   32.3336   50.3827 H   0  0  0  0  0  0  0  0  0  0  0  0
   62.4272   31.7254   50.1202 H   0  0  0  0  0  0  0  0  0  0  0  0
   60.9508   33.7481   48.3767 H   0  0  0  0  0  0  0  0  0  0  0  0
   62.2690   34.0979   49.5663 H   0  0  0  0  0  0  0  0  0  0  0  0
   62.7975   33.8059   46.9701 H   0  0  0  0  0  0  0  0  0  0  0  0
   63.9067   33.1581   48.2612 H   0  0  0  0  0  0  0  0  0  0  0  0
   63.0653   31.6924   46.1268 H   0  0  0  0  0  0  0  0  0  0  0  0
   63.4938   30.9980   47.7415 H   0  0  0  0  0  0  0  0  0  0  0  0
   60.6802   31.7889   46.8409 H   0  0  0  0  0  0  0  0  0  0  0  0
   61.3487   30.1068   46.8939 H   0  0  0  0  0  0  0  0  0  0  0  0
   59.6423   34.8638   45.6948 H   0  0  0  0  0  0  0  0  0  0  0  0
   59.2729   34.4325   43.2726 H   0  0  0  0  0  0  0  0  0  0  0  0
   55.5269   25.3742   46.0382 H   0  0  0  0  0  0  0  0  0  0  0  0
   57.9507   24.7631   45.9805 H   0  0  0  0  0  0  0  0  0  0  0  0
   59.6559   26.5437   45.5780 H   0  0  0  0  0  0  0  0  0  0  0  0
   57.3152   31.3566   46.6808 H   0  0  0  0  0  0  0  0  0  0  0  0
  1  2  2  0
  2  3  1  0
  3  4  1  0
  4  5  2  0
  4  6  2  0
  4  7  1  0
  7  8  1  0
  8  9  1  0
  9 10  1  0
 10 11  1  0
 11 12  1  0
  2 13  1  0
 13 14  2  0
 14 15  1  0
 15 16  2  0
 16 17  1  0
 16 18  1  0
 18 19  1  0
 19 20  2  0
 19 21  1  0
 21 22  2  3
 22 23  1  0
 23 24  1  0
 24 25  2  0
 25 26  1  0
 26 27  2  0
 27 28  1  0
 18 29  2  0
 12  7  1  0
 29 13  1  0
 27 22  1  0
  7 30  1  0
  8 31  1  0
  8 32  1  0
  9 33  1  0
  9 34  1  0
 10 35  1  0
 10 36  1  0
 11 37  1  0
 11 38  1  0
 12 39  1  0
 12 40  1  0
 14 41  1  0
 15 42  1  0
 24 43  1  0
 25 44  1  0
 26 45  1  0
 29 46  1  0
M  CHG  3   3  -1   7   1  23  -1
M  END
>  <UniqueID>  (63) 
60

>  <SMILES>  (63) 
O=C([N-]S(=O)(=O)[NH+]1CCCCC1)c1ccc(Cl)c(C(=O)N=c2[n-]cccc2F)c1

>  <Energy>  (63) 
75.28015938813189

>  <Genealogy>  (63) 
O=C([N-]S(=O)(=O)[NH+]1CCCCC1)c1ccc(Cl)c(C(=O)N=c2[n-]cccc2F)c1 (protonated)
O=C([N-]S(=O)(=O)[NH+]1CCCCC1)c1ccc(Cl)c(C(=O)N=c2[n-]cccc2F)c1 (3D coordinates assigned)
O=C([N-]S(=O)(=O)[NH+]1CCCCC1)c1ccc(Cl)c(C(=O)N=c2[n-]cccc2F)c1 (nonaromatic ring conformer: 75.28015938813189 kcal/mol)

>  <smiles>  (63) 
O=C(NS(=O)(=O)N1CCCCC1)c1ccc(Cl)c(C(=O)N=c2[nH]cccc2F)c1

>  <score_type>  (63) 
oracle

>  <origin>  (63) 
adg

>  <m_score__min__energy>  (63) 
-10.369999999999999

>  <m_primary>  (63) 
energy

$$$$
63:0
     RDKit          3D

 43 45  0  0  0  0  0  0  0  0999 V2000
   56.2760   30.0820   42.5010 C   0  0  0  0  0  0  0  0  0  0  0  0
   56.7600   30.2470   43.8660 N   0  0  0  0  0  0  0  0  0  0  0  0
   56.5250   29.4140   44.8640 N   0  0  0  0  0  0  0  0  0  0  0  0
   57.0640   29.9120   45.9670 N   0  0  0  0  0  0  0  0  0  0  0  0
   57.6430   31.0790   45.7050 N   0  0  0  0  0  0  0  0  0  0  0  0
   57.4370   31.2800   44.3910 C   0  0  0  0  0  0  0  0  0  0  0  0
   58.0130   32.7180   43.4810 S   0  0  0  0  0  0  0  0  0  0  0  0
   57.7980   33.8790   44.8790 C   0  0  0  0  0  0  0  0  0  0  0  0
   59.0220   33.9880   45.7440 C   0  0  0  0  0  0  0  0  0  0  0  0
   59.3220   35.0810   46.2970 O   0  0  0  0  0  0  0  0  0  0  0  0
   59.8200   32.8180   45.9760 N   0  0  0  0  0  0  0  0  0  0  0  0
   61.0380   32.8300   46.7420 C   0  0  0  0  0  0  0  0  0  0  0  0
   62.0020   33.8300   46.5180 C   0  0  0  0  0  0  0  0  0  0  0  0
   63.2170   33.8100   47.2070 C   0  0  0  0  0  0  0  0  0  0  0  0
   63.4910   32.7860   48.1130 C   0  0  0  0  0  0  0  0  0  0  0  0
   62.5520   31.7770   48.3340 C   0  0  0  0  0  0  0  0  0  0  0  0
   61.3190   31.7940   47.6640 C   0  0  0  0  0  0  0  0  0  0  0  0
   60.3350   30.7280   47.9530 C   0  0  0  0  0  0  0  0  0  0  0  0
   59.5190   30.8950   48.8990 O   0  0  0  0  0  0  0  0  0  0  0  0
   60.2720   29.5260   47.1600 N   0  0  0  0  0  0  0  0  0  0  0  0
   59.9330   28.2430   47.7830 C   0  0  0  0  0  0  0  0  0  0  0  0
   59.1010   27.4010   46.8110 C   0  0  0  0  0  0  0  0  0  0  0  0
   59.7440   27.3000   45.5550 O   0  0  0  0  0  0  0  0  0  0  0  0
   59.8130   28.5780   44.9480 C   0  0  0  0  0  0  0  0  0  0  0  0
   60.7130   29.5150   45.7600 C   0  0  0  0  0  0  0  0  0  0  0  0
   55.2350   29.7271   42.5215 H   0  0  0  0  0  0  0  0  0  0  0  0
   56.3241   31.0473   41.9757 H   0  0  0  0  0  0  0  0  0  0  0  0
   56.9037   29.3471   41.9757 H   0  0  0  0  0  0  0  0  0  0  0  0
   57.5643   34.8750   44.4749 H   0  0  0  0  0  0  0  0  0  0  0  0
   56.9836   33.4901   45.5080 H   0  0  0  0  0  0  0  0  0  0  0  0
   59.4440   31.8980   45.6540 H   0  0  0  0  0  0  0  0  0  0  0  0
   61.7974   34.6334   45.7951 H   0  0  0  0  0  0  0  0  0  0  0  0
   63.9590   34.6035   47.0345 H   0  0  0  0  0  0  0  0  0  0  0  0
   64.4485   32.7733   48.6543 H   0  0  0  0  0  0  0  0  0  0  0  0
   62.7800   30.9631   49.0380 H   0  0  0  0  0  0  0  0  0  0  0  0
   60.8577   27.7033   48.0352 H   0  0  0  0  0  0  0  0  0  0  0  0
   59.3503   28.4251   48.6981 H   0  0  0  0  0  0  0  0  0  0  0  0
   58.9683   26.3927   47.2301 H   0  0  0  0  0  0  0  0  0  0  0  0
   58.1253   27.8886   46.6689 H   0  0  0  0  0  0  0  0  0  0  0  0
   60.2228   28.4738   43.9325 H   0  0  0  0  0  0  0  0  0  0  0  0
   58.8005   29.0061   44.9087 H   0  0  0  0  0  0  0  0  0  0  0  0
   61.7534   29.1618   45.7061 H   0  0  0  0  0  0  0  0  0  0  0  0
   60.6493   30.5328   45.3477 H   0  0  0  0  0  0  0  0  0  0  0  0
  1  2  1  0
  2  3  1  0
  3  4  2  0
  4  5  1  0
  5  6  2  0
  6  7  1  0
  7  8  1  0
  8  9  1  0
  9 10  2  0
  9 11  1  0
 11 12  1  0
 12 13  2  0
 13 14  1  0
 14 15  2  0
 15 16  1  0
 16 17  2  0
 17 18  1  0
 18 19  2  0
 18 20  1  0
 20 21  1  0
 21 22  1  0
 22 23  1  0
 23 24  1  0
 24 25  1  0
  6  2  1  0
 17 12  1  0
 25 20  1  0
  1 26  1  0
  1 27  1  0
  1 28  1  0
  8 29  1  0
  8 30  1  0
 11 31  1  0
 13 32  1  0
 14 33  1  0
 15 34  1  0
 16 35  1  0
 21 36  1  0
 21 37  1  0
 22 38  1  0
 22 39  1  0
 24 40  1  0
 24 41  1  0
 25 42  1  0
 25 43  1  0
M  END
>  <UniqueID>  (64) 
61

>  <SMILES>  (64) 
Cn1nnnc1SCC(=O)Nc1ccccc1C(=O)N1CCOCC1

>  <Energy>  (64) 
91.31729316012022

>  <Genealogy>  (64) 
Cn1nnnc1SCC(=O)Nc1ccccc1C(=O)N1CCOCC1 (3D coordinates assigned)
Cn1nnnc1SCC(=O)Nc1ccccc1C(=O)N1CCOCC1 (nonaromatic ring conformer: 91.31729316012022 kcal/mol)

>  <smiles>  (64) 
Cn1nnnc1SCC(=O)Nc1ccccc1C(=O)N1CCOCC1

>  <score_type>  (64) 
oracle

>  <origin>  (64) 
adg

>  <m_score__min__energy>  (64) 
-8.1999999999999993

>  <m_primary>  (64) 
energy

$$$$
64:0
     RDKit          3D

 29 29  0  0  0  0  0  0  0  0999 V2000
   54.7840   21.6250   45.3310 O   0  0  0  0  0  0  0  0  0  0  0  0
   55.8840   21.6270   44.7170 C   0  0  0  0  0  0  0  0  0  0  0  0
   55.9030   21.4730   43.3370 O   0  0  0  0  0  0  0  0  0  0  0  0
   57.1650   21.7600   45.4750 C   0  0  0  0  0  0  0  0  0  0  0  0
   56.8940   22.0070   46.8860 N   0  0  0  0  0  0  0  0  0  0  0  0
   56.7350   23.3140   47.4450 C   0  0  0  0  0  0  0  0  0  0  0  0
   57.3590   23.6430   48.4900 O   0  0  0  0  0  0  0  0  0  0  0  0
   55.8650   24.3120   46.7550 C   0  0  0  0  0  0  0  0  0  0  0  0
   56.2790   25.6550   47.1360 N   0  0  0  0  0  0  0  0  0  0  0  0
   57.3100   26.4150   46.4920 C   0  0  0  0  0  0  0  0  0  0  0  0
   58.3500   26.6950   47.1450 O   0  0  0  0  0  0  0  0  0  0  0  0
   57.1830   26.9110   45.0760 C   0  0  0  0  0  0  0  0  0  0  0  0
   57.5160   28.3800   44.9970 C   0  0  0  0  0  0  0  0  0  0  0  0
   58.8600   28.7930   44.9780 C   0  0  0  0  0  0  0  0  0  0  0  0
   59.1830   30.1490   44.8780 C   0  0  0  0  0  0  0  0  0  0  0  0
   58.1690   31.1040   44.7860 C   0  0  0  0  0  0  0  0  0  0  0  0
   56.8300   30.7060   44.7910 C   0  0  0  0  0  0  0  0  0  0  0  0
   56.4980   29.3500   44.8910 C   0  0  0  0  0  0  0  0  0  0  0  0
   55.1600   28.9760   44.8840 O   0  0  0  0  0  0  0  0  0  0  0  0
   57.7447   20.8306   45.3740 H   0  0  0  0  0  0  0  0  0  0  0  0
   57.7365   22.6065   45.0666 H   0  0  0  0  0  0  0  0  0  0  0  0
   55.9613   24.1928   45.6657 H   0  0  0  0  0  0  0  0  0  0  0  0
   54.8167   24.1522   47.0476 H   0  0  0  0  0  0  0  0  0  0  0  0
   57.8750   26.3482   44.4322 H   0  0  0  0  0  0  0  0  0  0  0  0
   56.1460   26.7635   44.7399 H   0  0  0  0  0  0  0  0  0  0  0  0
   59.6627   28.0436   45.0423 H   0  0  0  0  0  0  0  0  0  0  0  0
   60.2369   30.4640   44.8718 H   0  0  0  0  0  0  0  0  0  0  0  0
   58.4247   32.1711   44.7095 H   0  0  0  0  0  0  0  0  0  0  0  0
   56.0336   31.4611   44.7161 H   0  0  0  0  0  0  0  0  0  0  0  0
  1  2  2  0
  2  3  1  0
  2  4  1  0
  4  5  1  0
  5  6  1  0
  6  7  2  0
  6  8  1  0
  8  9  1  0
  9 10  1  0
 10 11  2  0
 10 12  1  0
 12 13  1  0
 13 14  2  0
 14 15  1  0
 15 16  2  0
 16 17  1  0
 17 18  2  0
 18 19  1  0
 18 13  1  0
  4 20  1  0
  4 21  1  0
  8 22  1  0
  8 23  1  0
 12 24  1  0
 12 25  1  0
 14 26  1  0
 15 27  1  0
 16 28  1  0
 17 29  1  0
M  CHG  4   3  -1   5  -1   9  -1  19  -1
M  END
>  <UniqueID>  (65) 
62

>  <SMILES>  (65) 
O=C([O-])C[N-]C(=O)C[N-]C(=O)Cc1ccccc1[O-]

>  <Energy>  (65) 
21.07289145196602

>  <Genealogy>  (65) 
O=C([O-])C[N-]C(=O)C[N-]C(=O)Cc1ccccc1[O-] (protonated)
O=C([O-])C[N-]C(=O)C[N-]C(=O)Cc1ccccc1[O-] (3D coordinates assigned)
O=C([O-])C[N-]C(=O)C[N-]C(=O)Cc1ccccc1[O-] (optimized conformer: 21.07289145196602 kcal/mol)

>  <smiles>  (65) 
O=C(O)CNC(=O)CNC(=O)Cc1ccccc1O

>  <score_type>  (65) 
oracle

>  <origin>  (65) 
adg

>  <m_score__min__energy>  (65) 
-14.1

>  <m_primary>  (65) 
energy

$$$$
65:0
     RDKit          3D

 50 52  0  0  0  0  0  0  0  0999 V2000
   56.6090   29.4250   42.7240 N   0  0  0  0  0  0  0  0  0  0  0  0
   56.5580   29.6020   44.4430 S   0  0  0  0  0  0  0  0  0  0  0  0
   55.1640   29.3380   44.9390 O   0  0  0  0  0  0  0  0  0  0  0  0
   56.9430   31.0070   44.8120 O   0  0  0  0  0  0  0  0  0  0  0  0
   57.6760   28.4600   45.1810 C   0  0  0  0  0  0  0  0  0  0  0  0
   57.7680   27.1490   44.6980 C   0  0  0  0  0  0  0  0  0  0  0  0
   58.6530   26.2440   45.2910 C   0  0  0  0  0  0  0  0  0  0  0  0
   59.4400   26.6390   46.3750 C   0  0  0  0  0  0  0  0  0  0  0  0
   59.3400   27.9440   46.8860 C   0  0  0  0  0  0  0  0  0  0  0  0
   60.1760   28.3740   48.0310 C   0  0  0  0  0  0  0  0  0  0  0  0
   60.4580   27.5360   48.9310 O   0  0  0  0  0  0  0  0  0  0  0  0
   60.6680   29.7230   48.1440 N   0  0  0  0  0  0  0  0  0  0  0  0
   60.8760   30.2960   49.4820 C   0  0  0  0  0  0  0  0  0  0  0  0
   61.1160   31.8080   49.4040 C   0  0  0  0  0  0  0  0  0  0  0  0
   62.2950   32.1560   48.4670 C   0  0  0  0  0  0  0  0  0  0  0  0
   62.1950   33.6100   48.0510 C   0  0  0  0  0  0  0  0  0  0  0  0
   62.7180   33.9790   46.9660 O   0  0  0  0  0  0  0  0  0  0  0  0
   61.4610   34.5740   48.8170 N   0  0  0  0  0  0  0  0  0  0  0  0
   60.0120   34.5920   48.9700 C   0  0  0  0  0  0  0  0  0  0  0  0
   59.3690   34.3980   47.6280 C   0  0  0  0  0  0  0  0  0  0  0  0
   58.3480   33.4470   47.4620 C   0  0  0  0  0  0  0  0  0  0  0  0
   57.7720   33.2430   46.2030 C   0  0  0  0  0  0  0  0  0  0  0  0
   58.2200   33.9770   45.1020 C   0  0  0  0  0  0  0  0  0  0  0  0
   59.2470   34.9140   45.2550 C   0  0  0  0  0  0  0  0  0  0  0  0
   59.8240   35.1200   46.5120 C   0  0  0  0  0  0  0  0  0  0  0  0
   62.3950   31.2170   47.2330 C   0  0  0  0  0  0  0  0  0  0  0  0
   61.0830   30.4780   46.9500 C   0  0  0  0  0  0  0  0  0  0  0  0
   58.4620   28.8540   46.2740 C   0  0  0  0  0  0  0  0  0  0  0  0
   56.3120   28.4460   42.5090 H   0  0  0  0  0  0  0  0  0  0  0  0
   57.6120   29.5050   42.4390 H   0  0  0  0  0  0  0  0  0  0  0  0
   57.1429   26.8308   43.8507 H   0  0  0  0  0  0  0  0  0  0  0  0
   58.7298   25.2177   44.9027 H   0  0  0  0  0  0  0  0  0  0  0  0
   60.1416   25.9249   46.8310 H   0  0  0  0  0  0  0  0  0  0  0  0
   59.9842   30.1051   50.0971 H   0  0  0  0  0  0  0  0  0  0  0  0
   61.7630   29.8242   49.9299 H   0  0  0  0  0  0  0  0  0  0  0  0
   60.2048   32.2938   49.0248 H   0  0  0  0  0  0  0  0  0  0  0  0
   61.3652   32.1665   50.4136 H   0  0  0  0  0  0  0  0  0  0  0  0
   63.2264   31.9977   49.0304 H   0  0  0  0  0  0  0  0  0  0  0  0
   59.7038   33.7807   49.6458 H   0  0  0  0  0  0  0  0  0  0  0  0
   59.6981   35.5578   49.3928 H   0  0  0  0  0  0  0  0  0  0  0  0
   58.0001   32.8605   48.3251 H   0  0  0  0  0  0  0  0  0  0  0  0
   56.9662   32.5044   46.0803 H   0  0  0  0  0  0  0  0  0  0  0  0
   57.7644   33.8178   44.1135 H   0  0  0  0  0  0  0  0  0  0  0  0
   59.6009   35.4889   44.3865 H   0  0  0  0  0  0  0  0  0  0  0  0
   60.6380   35.8508   46.6276 H   0  0  0  0  0  0  0  0  0  0  0  0
   62.6575   31.8200   46.3513 H   0  0  0  0  0  0  0  0  0  0  0  0
   63.1642   30.4612   47.4497 H   0  0  0  0  0  0  0  0  0  0  0  0
   60.3019   31.2074   46.6895 H   0  0  0  0  0  0  0  0  0  0  0  0
   61.2326   29.7801   46.1130 H   0  0  0  0  0  0  0  0  0  0  0  0
   58.3903   29.8835   46.6548 H   0  0  0  0  0  0  0  0  0  0  0  0
  1  2  1  0
  2  3  2  0
  2  4  2  0
  2  5  1  0
  5  6  2  0
  6  7  1  0
  7  8  2  0
  8  9  1  0
  9 10  1  0
 10 11  2  0
 10 12  1  0
 12 13  1  0
 13 14  1  0
 14 15  1  0
 15 16  1  0
 16 17  2  0
 16 18  1  0
 18 19  1  0
 19 20  1  0
 20 21  2  0
 21 22  1  0
 22 23  2  0
 23 24  1  0
 24 25  2  0
 15 26  1  0
 26 27  1  0
  9 28  2  0
 28  5  1  0
 27 12  1  0
 25 20  1  0
  1 29  1  0
  1 30  1  0
  6 31  1  0
  7 32  1  0
  8 33  1  0
 13 34  1  0
 13 35  1  0
 14 36  1  0
 14 37  1  0
 15 38  1  0
 19 39  1  0
 19 40  1  0
 21 41  1  0
 22 42  1  0
 23 43  1  0
 24 44  1  0
 25 45  1  0
 26 46  1  0
 26 47  1  0
 27 48  1  0
 27 49  1  0
 28 50  1  0
M  CHG  1  18  -1
M  END
>  <UniqueID>  (66) 
63

>  <SMILES>  (66) 
NS(=O)(=O)c1cccc(C(=O)N2CCC(C(=O)[N-]Cc3ccccc3)CC2)c1

>  <Energy>  (66) 
54.5232277285018

>  <Genealogy>  (66) 
NS(=O)(=O)c1cccc(C(=O)N2CCC(C(=O)[N-]Cc3ccccc3)CC2)c1 (protonated)
NS(=O)(=O)c1cccc(C(=O)N2CCC(C(=O)[N-]Cc3ccccc3)CC2)c1 (3D coordinates assigned)
NS(=O)(=O)c1cccc(C(=O)N2CCC(C(=O)[N-]Cc3ccccc3)CC2)c1 (nonaromatic ring conformer: 54.5232277285018 kcal/mol)

>  <smiles>  (66) 
NS(=O)(=O)c1cccc(C(=O)N2CCC(C(=O)NCc3ccccc3)CC2)c1

>  <score_type>  (66) 
oracle

>  <origin>  (66) 
adg

>  <m_score__min__energy>  (66) 
-11.449999999999999

>  <m_primary>  (66) 
energy

$$$$
66:0
     RDKit          3D

 59 62  0  0  0  0  0  0  0  0999 V2000
   58.0920   21.8150   44.1800 C   0  0  0  0  0  0  0  0  0  0  0  0
   57.0640   21.9580   45.2600 C   0  0  0  0  0  0  0  0  0  0  0  0
   55.8520   21.7570   44.9870 O   0  0  0  0  0  0  0  0  0  0  0  0
   57.4240   22.3090   46.5990 N   0  0  0  0  0  0  0  0  0  0  0  0
   56.7030   23.6050   47.4960 S   0  0  0  0  0  0  0  0  0  0  0  0
   55.2630   23.7810   47.1010 O   0  0  0  0  0  0  0  0  0  0  0  0
   56.7850   23.2990   48.9650 O   0  0  0  0  0  0  0  0  0  0  0  0
   57.5690   25.0740   47.1800 N   0  0  0  0  0  0  0  0  0  0  0  0
   57.7550   25.6340   45.8660 C   0  0  0  0  0  0  0  0  0  0  0  0
   57.2210   25.0170   44.7190 C   0  0  0  0  0  0  0  0  0  0  0  0
   57.4140   25.5820   43.4560 C   0  0  0  0  0  0  0  0  0  0  0  0
   58.1370   26.7670   43.3200 C   0  0  0  0  0  0  0  0  0  0  0  0
   58.6770   27.4010   44.4480 C   0  0  0  0  0  0  0  0  0  0  0  0
   59.4310   28.6980   44.2940 C   0  0  0  0  0  0  0  0  0  0  0  0
   58.5730   29.8620   44.7020 C   0  0  0  0  0  0  0  0  0  0  0  0
   57.3520   30.2630   44.1750 C   0  0  0  0  0  0  0  0  0  0  0  0
   56.6020   29.6060   43.0630 C   0  0  0  0  0  0  0  0  0  0  0  0
   56.8830   31.3280   44.8620 N   0  0  0  0  0  0  0  0  0  0  0  0
   57.7650   31.6160   45.8070 N   0  0  0  0  0  0  0  0  0  0  0  0
   57.6410   32.7530   46.7150 C   0  0  0  0  0  0  0  0  0  0  0  0
   58.9380   32.9640   47.4470 C   0  0  0  0  0  0  0  0  0  0  0  0
   60.0020   33.6260   46.8180 C   0  0  0  0  0  0  0  0  0  0  0  0
   61.2230   33.7840   47.4790 C   0  0  0  0  0  0  0  0  0  0  0  0
   61.4050   33.2740   48.7780 C   0  0  0  0  0  0  0  0  0  0  0  0
   62.7040   33.4390   49.4790 C   0  0  0  0  0  0  0  0  0  0  0  0
   62.7840   34.1780   50.6760 C   0  0  0  0  0  0  0  0  0  0  0  0
   64.0090   34.3320   51.3310 C   0  0  0  0  0  0  0  0  0  0  0  0
   65.1650   33.7520   50.8050 C   0  0  0  0  0  0  0  0  0  0  0  0
   65.0990   33.0160   49.6200 C   0  0  0  0  0  0  0  0  0  0  0  0
   63.8770   32.8600   48.9570 C   0  0  0  0  0  0  0  0  0  0  0  0
   60.3380   32.6000   49.3980 C   0  0  0  0  0  0  0  0  0  0  0  0
   59.1180   32.4420   48.7350 C   0  0  0  0  0  0  0  0  0  0  0  0
   58.7950   30.7530   45.7290 C   0  0  0  0  0  0  0  0  0  0  0  0
   59.8030   30.7750   46.4860 O   0  0  0  0  0  0  0  0  0  0  0  0
   58.4810   26.8320   45.7200 C   0  0  0  0  0  0  0  0  0  0  0  0
   59.0010   27.4420   46.8160 F   0  0  0  0  0  0  0  0  0  0  0  0
   59.0843   21.6770   44.6342 H   0  0  0  0  0  0  0  0  0  0  0  0
   57.8496   20.9419   43.5563 H   0  0  0  0  0  0  0  0  0  0  0  0
   58.0971   22.7211   43.5563 H   0  0  0  0  0  0  0  0  0  0  0  0
   57.9940   25.5510   48.0070 H   0  0  0  0  0  0  0  0  0  0  0  0
   56.6477   24.0834   44.8179 H   0  0  0  0  0  0  0  0  0  0  0  0
   56.9944   25.0907   42.5658 H   0  0  0  0  0  0  0  0  0  0  0  0
   58.2843   27.2065   42.3224 H   0  0  0  0  0  0  0  0  0  0  0  0
   60.3291   28.6713   44.9286 H   0  0  0  0  0  0  0  0  0  0  0  0
   59.7138   28.8198   43.2380 H   0  0  0  0  0  0  0  0  0  0  0  0
   55.8371   28.9359   43.4824 H   0  0  0  0  0  0  0  0  0  0  0  0
   56.1165   30.3747   42.4438 H   0  0  0  0  0  0  0  0  0  0  0  0
   57.3001   29.0235   42.4438 H   0  0  0  0  0  0  0  0  0  0  0  0
   57.3964   33.6566   46.1374 H   0  0  0  0  0  0  0  0  0  0  0  0
   56.8416   32.5510   47.4431 H   0  0  0  0  0  0  0  0  0  0  0  0
   59.8750   34.0227   45.7999 H   0  0  0  0  0  0  0  0  0  0  0  0
   62.0490   34.3116   46.9797 H   0  0  0  0  0  0  0  0  0  0  0  0
   61.8772   34.6363   51.0974 H   0  0  0  0  0  0  0  0  0  0  0  0
   64.0626   34.9121   52.2641 H   0  0  0  0  0  0  0  0  0  0  0  0
   66.1272   33.8747   51.3237 H   0  0  0  0  0  0  0  0  0  0  0  0
   66.0098   32.5579   49.2070 H   0  0  0  0  0  0  0  0  0  0  0  0
   63.8320   32.2817   48.0224 H   0  0  0  0  0  0  0  0  0  0  0  0
   60.4645   32.1941   50.4125 H   0  0  0  0  0  0  0  0  0  0  0  0
   58.2940   31.9046   49.2271 H   0  0  0  0  0  0  0  0  0  0  0  0
  1  2  1  0
  2  3  2  0
  2  4  1  0
  4  5  1  0
  5  6  2  0
  5  7  2  0
  5  8  1  0
  8  9  1  0
  9 10  2  0
 10 11  1  0
 11 12  2  0
 12 13  1  0
 13 14  1  0
 14 15  1  0
 15 16  2  0
 16 17  1  0
 16 18  1  0
 18 19  1  0
 19 20  1  0
 20 21  1  0
 21 22  2  0
 22 23  1  0
 23 24  2  0
 24 25  1  0
 25 26  2  0
 26 27  1  0
 27 28  2  0
 28 29  1  0
 29 30  2  0
 24 31  1  0
 31 32  2  0
 19 33  1  0
 33 34  2  0
 13 35  2  0
 35 36  1  0
 35  9  1  0
 33 15  1  0
 32 21  1  0
 30 25  1  0
  1 37  1  0
  1 38  1  0
  1 39  1  0
  8 40  1  0
 10 41  1  0
 11 42  1  0
 12 43  1  0
 14 44  1  0
 14 45  1  0
 17 46  1  0
 17 47  1  0
 17 48  1  0
 20 49  1  0
 20 50  1  0
 22 51  1  0
 23 52  1  0
 26 53  1  0
 27 54  1  0
 28 55  1  0
 29 56  1  0
 30 57  1  0
 31 58  1  0
 32 59  1  0
M  CHG  2   4  -1  18  -1
M  END
>  <UniqueID>  (67) 
64

>  <SMILES>  (67) 
CC(=O)[N-]S(=O)(=O)Nc1cccc(Cc2c(C)[n-]n(Cc3ccc(-c4ccccc4)cc3)c2=O)c1F

>  <Energy>  (67) 
99.52172286056731

>  <Genealogy>  (67) 
CC(=O)[N-]S(=O)(=O)Nc1cccc(Cc2c(C)[n-]n(Cc3ccc(-c4ccccc4)cc3)c2=O)c1F (protonated)
CC(=O)[N-]S(=O)(=O)Nc1cccc(Cc2c(C)[n-]n(Cc3ccc(-c4ccccc4)cc3)c2=O)c1F (3D coordinates assigned)
CC(=O)[N-]S(=O)(=O)Nc1cccc(Cc2c(C)[n-]n(Cc3ccc(-c4ccccc4)cc3)c2=O)c1F (optimized conformer: 99.52172286056731 kcal/mol)

>  <smiles>  (67) 
CC(=O)NS(=O)(=O)Nc1cccc(Cc2c(C)[nH]n(Cc3ccc(-c4ccccc4)cc3)c2=O)c1F

>  <score_type>  (67) 
oracle

>  <origin>  (67) 
adg

>  <m_score__min__energy>  (67) 
-13.51

>  <m_primary>  (67) 
energy

$$$$
67:0
     RDKit          3D

 66 69  0  0  0  0  0  0  0  0999 V2000
   59.2790   34.7490   47.0260 C   0  0  0  0  0  0  0  0  0  0  0  0
   59.2780   34.2210   48.4570 C   0  0  0  0  0  0  0  0  0  0  0  0
   59.0680   32.7600   48.4670 N   0  0  0  0  0  0  0  0  0  0  0  0
   58.7230   32.1590   47.2870 C   0  0  0  0  0  0  0  0  0  0  0  0
   58.5710   30.7670   47.1900 C   0  0  0  0  0  0  0  0  0  0  0  0
   58.1880   30.1660   45.8870 C   0  0  0  0  0  0  0  0  0  0  0  0
   57.3490   30.7610   45.1560 O   0  0  0  0  0  0  0  0  0  0  0  0
   58.7350   28.9050   45.4640 N   0  0  0  0  0  0  0  0  0  0  0  0
   58.4420   28.3250   44.1550 C   0  0  0  0  0  0  0  0  0  0  0  0
   57.7650   26.9930   44.3280 C   0  0  0  0  0  0  0  0  0  0  0  0
   57.0750   26.7030   45.5150 C   0  0  0  0  0  0  0  0  0  0  0  0
   56.4210   25.4770   45.6690 C   0  0  0  0  0  0  0  0  0  0  0  0
   56.4450   24.5300   44.6380 C   0  0  0  0  0  0  0  0  0  0  0  0
   55.6080   22.9930   44.8430 S   0  0  0  0  0  0  0  0  0  0  0  0
   56.1520   22.2300   46.2950 N   0  0  0  0  0  0  0  0  0  0  0  0
   55.8940   22.1020   43.6660 O   0  0  0  0  0  0  0  0  0  0  0  0
   54.1250   23.2190   44.9290 O   0  0  0  0  0  0  0  0  0  0  0  0
   57.1140   24.8250   43.4420 C   0  0  0  0  0  0  0  0  0  0  0  0
   57.7690   26.0520   43.2860 C   0  0  0  0  0  0  0  0  0  0  0  0
   58.8260   29.9850   48.3280 C   0  0  0  0  0  0  0  0  0  0  0  0
   58.7730   28.7270   48.2730 O   0  0  0  0  0  0  0  0  0  0  0  0
   59.1750   30.6010   49.5310 C   0  0  0  0  0  0  0  0  0  0  0  0
   59.4100   29.8230   50.6620 O   0  0  0  0  0  0  0  0  0  0  0  0
   59.2890   32.0000   49.5950 C   0  0  0  0  0  0  0  0  0  0  0  0
   59.6630   32.6180   50.8880 C   0  0  0  0  0  0  0  0  0  0  0  0
   58.6750   32.9330   51.8310 C   0  0  0  0  0  0  0  0  0  0  0  0
   59.0280   33.5220   53.0470 C   0  0  0  0  0  0  0  0  0  0  0  0
   60.3710   33.7840   53.3360 C   0  0  0  0  0  0  0  0  0  0  0  0
   61.3720   33.4410   52.4140 C   0  0  0  0  0  0  0  0  0  0  0  0
   62.8130   33.7340   52.7090 C   0  0  0  0  0  0  0  0  0  0  0  0
   63.5030   34.0750   51.4690 N   0  0  0  0  0  0  0  0  0  0  0  0
   64.7100   33.4500   51.0200 C   0  0  0  0  0  0  0  0  0  0  0  0
   65.6400   33.2520   51.8450 O   0  0  0  0  0  0  0  0  0  0  0  0
   64.9080   33.0980   49.6460 N   0  0  0  0  0  0  0  0  0  0  0  0
   63.8610   32.8810   48.6950 C   0  0  0  0  0  0  0  0  0  0  0  0
   63.6070   33.8570   47.7230 C   0  0  0  0  0  0  0  0  0  0  0  0
   62.5960   33.6640   46.7760 C   0  0  0  0  0  0  0  0  0  0  0  0
   61.8480   32.4830   46.7810 C   0  0  0  0  0  0  0  0  0  0  0  0
   62.1110   31.4940   47.7320 C   0  0  0  0  0  0  0  0  0  0  0  0
   63.1180   31.6850   48.6820 C   0  0  0  0  0  0  0  0  0  0  0  0
   61.0110   32.8630   51.1870 C   0  0  0  0  0  0  0  0  0  0  0  0
   59.2811   35.8489   47.0410 H   0  0  0  0  0  0  0  0  0  0  0  0
   60.1765   34.3877   46.5025 H   0  0  0  0  0  0  0  0  0  0  0  0
   58.3802   34.3911   46.5025 H   0  0  0  0  0  0  0  0  0  0  0  0
   60.2446   34.4513   48.9289 H   0  0  0  0  0  0  0  0  0  0  0  0
   58.4608   34.7025   49.0141 H   0  0  0  0  0  0  0  0  0  0  0  0
   58.5611   32.7809   46.3942 H   0  0  0  0  0  0  0  0  0  0  0  0
   59.2180   28.2970   46.1640 H   0  0  0  0  0  0  0  0  0  0  0  0
   57.7791   29.0017   43.5958 H   0  0  0  0  0  0  0  0  0  0  0  0
   59.3820   28.1855   43.6009 H   0  0  0  0  0  0  0  0  0  0  0  0
   57.0486   27.4436   46.3279 H   0  0  0  0  0  0  0  0  0  0  0  0
   55.8854   25.2555   46.6039 H   0  0  0  0  0  0  0  0  0  0  0  0
   55.8130   21.2410   46.2700 H   0  0  0  0  0  0  0  0  0  0  0  0
   57.1242   24.0900   42.6237 H   0  0  0  0  0  0  0  0  0  0  0  0
   58.2888   26.2799   42.3437 H   0  0  0  0  0  0  0  0  0  0  0  0
   57.6190   32.7157   51.6127 H   0  0  0  0  0  0  0  0  0  0  0  0
   58.2484   33.7803   53.7788 H   0  0  0  0  0  0  0  0  0  0  0  0
   60.6437   34.2605   54.2892 H   0  0  0  0  0  0  0  0  0  0  0  0
   62.8794   34.5790   53.4101 H   0  0  0  0  0  0  0  0  0  0  0  0
   63.2833   32.8471   53.1588 H   0  0  0  0  0  0  0  0  0  0  0  0
   64.2055   34.7797   47.7044 H   0  0  0  0  0  0  0  0  0  0  0  0
   62.3892   34.4422   46.0266 H   0  0  0  0  0  0  0  0  0  0  0  0
   61.0525   32.3325   46.0363 H   0  0  0  0  0  0  0  0  0  0  0  0
   61.5245   30.5634   47.7330 H   0  0  0  0  0  0  0  0  0  0  0  0
   63.3307   30.8990   49.4215 H   0  0  0  0  0  0  0  0  0  0  0  0
   61.7898   32.6007   50.4558 H   0  0  0  0  0  0  0  0  0  0  0  0
  1  2  1  0
  2  3  1  0
  3  4  1  0
  4  5  2  0
  5  6  1  0
  6  7  2  0
  6  8  1  0
  8  9  1  0
  9 10  1  0
 10 11  2  0
 11 12  1  0
 12 13  2  0
 13 14  1  0
 14 15  1  0
 14 16  2  0
 14 17  2  0
 13 18  1  0
 18 19  2  0
  5 20  1  0
 20 21  2  0
 20 22  1  0
 22 23  1  0
 22 24  2  0
 24 25  1  0
 25 26  2  0
 26 27  1  0
 27 28  2  0
 28 29  1  0
 29 30  1  0
 30 31  1  0
 31 32  1  0
 32 33  2  0
 32 34  1  0
 34 35  1  0
 35 36  2  0
 36 37  1  0
 37 38  2  0
 38 39  1  0
 39 40  2  0
 29 41  2  0
 24  3  1  0
 41 25  1  0
 19 10  1  0
 40 35  1  0
  1 42  1  0
  1 43  1  0
  1 44  1  0
  2 45  1  0
  2 46  1  0
  4 47  1  0
  8 48  1  0
  9 49  1  0
  9 50  1  0
 11 51  1  0
 12 52  1  0
 15 53  1  0
 18 54  1  0
 19 55  1  0
 26 56  1  0
 27 57  1  0
 28 58  1  0
 30 59  1  0
 30 60  1  0
 36 61  1  0
 37 62  1  0
 38 63  1  0
 39 64  1  0
 40 65  1  0
 41 66  1  0
M  CHG  4  15  -1  23  -1  31  -1  34  -1
M  END
>  <UniqueID>  (68) 
65

>  <SMILES>  (68) 
CCn1cc(C(=O)NCc2ccc(S([NH-])(=O)=O)cc2)c(=O)c([O-])c1-c1cccc(C[N-]C(=O)[N-]c2ccccc2)c1

>  <Energy>  (68) 
85.14417017139714

>  <Genealogy>  (68) 
CCn1cc(C(=O)NCc2ccc(S([NH-])(=O)=O)cc2)c(=O)c([O-])c1-c1cccc(C[N-]C(=O)[N-]c2ccccc2)c1 (protonated)
CCn1cc(C(=O)NCc2ccc(S([NH-])(=O)=O)cc2)c(=O)c([O-])c1-c1cccc(C[N-]C(=O)[N-]c2ccccc2)c1 (3D coordinates assigned)
CCn1cc(C(=O)NCc2ccc(S([NH-])(=O)=O)cc2)c(=O)c([O-])c1-c1cccc(C[N-]C(=O)[N-]c2ccccc2)c1 (optimized conformer: 85.14417017139714 kcal/mol)

>  <smiles>  (68) 
CCn1cc(C(=O)NCc2ccc(S(N)(=O)=O)cc2)c(=O)c(O)c1-c1cccc(CNC(=O)Nc2ccccc2)c1

>  <score_type>  (68) 
oracle

>  <origin>  (68) 
adg

>  <m_score__min__energy>  (68) 
-15.6

>  <m_primary>  (68) 
energy

$$$$
68:0
     RDKit          3D

 55 59  0  0  0  0  0  0  0  0999 V2000
   53.2190   28.3590   52.5550 O   0  0  0  0  0  0  0  0  0  0  0  0
   53.5200   29.5790   52.6280 C   0  0  0  0  0  0  0  0  0  0  0  0
   54.7470   29.9510   53.2760 N   0  0  0  0  0  0  0  0  0  0  0  0
   55.7800   30.4930   52.7030 C   0  0  0  0  0  0  0  0  0  0  0  0
   55.9700   31.8420   52.7200 N   0  0  0  0  0  0  0  0  0  0  0  0
   57.0590   32.4080   52.1400 C   0  0  0  0  0  0  0  0  0  0  0  0
   58.0260   31.6020   51.5170 C   0  0  0  0  0  0  0  0  0  0  0  0
   59.2290   32.1980   50.8800 C   0  0  0  0  0  0  0  0  0  0  0  0
   59.1410   33.4160   50.1810 C   0  0  0  0  0  0  0  0  0  0  0  0
   60.2740   33.9710   49.5780 C   0  0  0  0  0  0  0  0  0  0  0  0
   61.5100   33.3110   49.6490 C   0  0  0  0  0  0  0  0  0  0  0  0
   62.7340   33.9280   49.0380 C   0  0  0  0  0  0  0  0  0  0  0  0
   62.7750   33.6020   47.6540 O   0  0  0  0  0  0  0  0  0  0  0  0
   62.4470   32.3340   47.1630 C   0  0  0  0  0  0  0  0  0  0  0  0
   63.3580   31.5590   46.7570 O   0  0  0  0  0  0  0  0  0  0  0  0
   61.0680   31.9290   47.0730 N   0  0  0  0  0  0  0  0  0  0  0  0
   60.7490   30.5390   47.4510 C   0  0  0  0  0  0  0  0  0  0  0  0
   59.2520   30.2220   47.3390 C   0  0  0  0  0  0  0  0  0  0  0  0
   58.7030   30.7030   45.9960 C   0  0  0  0  0  0  0  0  0  0  0  0
   58.9210   32.1830   45.8650 C   0  0  0  0  0  0  0  0  0  0  0  0
   57.9810   32.9790   45.1950 C   0  0  0  0  0  0  0  0  0  0  0  0
   58.1610   34.3620   45.1130 C   0  0  0  0  0  0  0  0  0  0  0  0
   59.2760   34.9560   45.7070 C   0  0  0  0  0  0  0  0  0  0  0  0
   60.2280   34.1690   46.3600 C   0  0  0  0  0  0  0  0  0  0  0  0
   60.0840   32.7670   46.4120 C   0  0  0  0  0  0  0  0  0  0  0  0
   61.6080   32.1070   50.3610 C   0  0  0  0  0  0  0  0  0  0  0  0
   60.4770   31.5520   50.9670 C   0  0  0  0  0  0  0  0  0  0  0  0
   57.8130   30.2140   51.5240 C   0  0  0  0  0  0  0  0  0  0  0  0
   56.7060   29.6950   52.1140 N   0  0  0  0  0  0  0  0  0  0  0  0
   52.6440   30.5780   51.9830 C   0  0  0  0  0  0  0  0  0  0  0  0
   52.6210   30.8590   50.6280 C   0  0  0  0  0  0  0  0  0  0  0  0
   51.6950   31.8630   50.4590 C   0  0  0  0  0  0  0  0  0  0  0  0
   51.2160   32.1430   51.7180 C   0  0  0  0  0  0  0  0  0  0  0  0
   50.2570   33.1060   52.0020 O   0  0  0  0  0  0  0  0  0  0  0  0
   51.7880   31.3720   52.6610 N   0  0  0  0  0  0  0  0  0  0  0  0
   57.1845   33.5007   52.1579 H   0  0  0  0  0  0  0  0  0  0  0  0
   58.1740   33.9353   50.1084 H   0  0  0  0  0  0  0  0  0  0  0  0
   60.1958   34.9301   49.0452 H   0  0  0  0  0  0  0  0  0  0  0  0
   62.6956   35.0207   49.1586 H   0  0  0  0  0  0  0  0  0  0  0  0
   63.6343   33.5412   49.5379 H   0  0  0  0  0  0  0  0  0  0  0  0
   61.3031   29.8583   46.7880 H   0  0  0  0  0  0  0  0  0  0  0  0
   61.0380   30.4071   48.5041 H   0  0  0  0  0  0  0  0  0  0  0  0
   59.1047   29.1351   47.4221 H   0  0  0  0  0  0  0  0  0  0  0  0
   58.7167   30.7397   48.1486 H   0  0  0  0  0  0  0  0  0  0  0  0
   59.2245   30.1822   45.1794 H   0  0  0  0  0  0  0  0  0  0  0  0
   57.6260   30.4857   45.9420 H   0  0  0  0  0  0  0  0  0  0  0  0
   57.0986   32.5128   44.7323 H   0  0  0  0  0  0  0  0  0  0  0  0
   57.4248   34.9823   44.5809 H   0  0  0  0  0  0  0  0  0  0  0  0
   59.4055   36.0474   45.6608 H   0  0  0  0  0  0  0  0  0  0  0  0
   61.0965   34.6465   46.8372 H   0  0  0  0  0  0  0  0  0  0  0  0
   62.5791   31.5969   50.4431 H   0  0  0  0  0  0  0  0  0  0  0  0
   60.5628   30.6028   51.5163 H   0  0  0  0  0  0  0  0  0  0  0  0
   58.5459   29.5448   51.0496 H   0  0  0  0  0  0  0  0  0  0  0  0
   53.2223   30.3765   49.8434 H   0  0  0  0  0  0  0  0  0  0  0  0
   51.3993   32.3420   49.5139 H   0  0  0  0  0  0  0  0  0  0  0  0
  1  2  2  0
  2  3  1  0
  3  4  2  3
  4  5  1  0
  5  6  2  0
  6  7  1  0
  7  8  1  0
  8  9  2  0
  9 10  1  0
 10 11  2  0
 11 12  1  0
 12 13  1  0
 13 14  1  0
 14 15  2  0
 14 16  1  0
 16 17  1  0
 17 18  1  0
 18 19  1  0
 19 20  1  0
 20 21  2  0
 21 22  1  0
 22 23  2  0
 23 24  1  0
 24 25  2  0
 11 26  1  0
 26 27  2  0
  7 28  2  0
 28 29  1  0
  2 30  1  0
 30 31  2  0
 31 32  1  0
 32 33  2  0
 33 34  1  0
 33 35  1  0
 29  4  1  0
 35 30  1  0
 27  8  1  0
 25 16  1  0
 25 20  1  0
  6 36  1  0
  9 37  1  0
 10 38  1  0
 12 39  1  0
 12 40  1  0
 17 41  1  0
 17 42  1  0
 18 43  1  0
 18 44  1  0
 19 45  1  0
 19 46  1  0
 21 47  1  0
 22 48  1  0
 23 49  1  0
 24 50  1  0
 26 51  1  0
 27 52  1  0
 28 53  1  0
 31 54  1  0
 32 55  1  0
M  CHG  3  29  -1  34  -1  35  -1
M  END
>  <UniqueID>  (69) 
66

>  <SMILES>  (69) 
O=C(N=c1ncc(-c2ccc(COC(=O)N3CCCc4ccccc43)cc2)c[n-]1)c1ccc([O-])[n-]1

>  <Energy>  (69) 
100.74873525862034

>  <Genealogy>  (69) 
O=C(N=c1ncc(-c2ccc(COC(=O)N3CCCc4ccccc43)cc2)c[n-]1)c1ccc([O-])[n-]1 (protonated)
O=C(N=c1ncc(-c2ccc(COC(=O)N3CCCc4ccccc43)cc2)c[n-]1)c1ccc([O-])[n-]1 (3D coordinates assigned)
O=C(N=c1ncc(-c2ccc(COC(=O)N3CCCc4ccccc43)cc2)c[n-]1)c1ccc([O-])[n-]1 (nonaromatic ring conformer: 100.74873525862034 kcal/mol)

>  <smiles>  (69) 
O=C(N=c1ncc(-c2ccc(COC(=O)N3CCCc4ccccc43)cc2)c[nH]1)c1ccc(O)[nH]1

>  <score_type>  (69) 
oracle

>  <origin>  (69) 
adg

>  <m_score__min__energy>  (69) 
-16.949999999999999

>  <m_primary>  (69) 
energy

$$$$
69:0
     RDKit          3D

 48 50  0  0  1  0  0  0  0  0999 V2000
   57.7260   30.3740   46.1670 O   0  0  0  0  0  0  0  0  0  0  0  0
   58.6750   30.0460   45.3970 C   0  0  0  0  0  0  0  0  0  0  0  0
   59.7990   29.2930   45.9770 C   0  0  0  0  0  0  0  0  0  0  0  0
   59.6170   27.5150   45.6720 S   0  0  0  0  0  0  0  0  0  0  0  0
   57.9240   27.0140   45.8730 C   0  0  0  0  0  0  0  0  0  0  0  0
   57.5900   25.7480   46.2400 N   0  0  0  0  0  0  0  0  0  0  0  0
   56.2580   25.6650   46.3130 C   0  0  0  0  0  0  0  0  0  0  0  0
   55.6650   24.5500   46.6490 N   0  0  0  0  0  0  0  0  0  0  0  0
   56.5040   23.3450   46.6350 C   0  0  0  0  0  0  0  0  0  0  0  0
   56.6290   22.8140   45.2680 C   0  0  0  0  0  0  0  0  0  0  0  0
   55.8410   23.3430   44.2800 C   0  0  0  0  0  0  0  0  0  0  0  0
   55.8560   22.9270   42.9630 C   0  0  0  0  0  0  0  0  0  0  0  0
   56.7330   21.9000   42.6200 C   0  0  0  0  0  0  0  0  0  0  0  0
   57.5280   21.3670   43.6120 C   0  0  0  0  0  0  0  0  0  0  0  0
   57.4970   21.7970   44.9240 C   0  0  0  0  0  0  0  0  0  0  0  0
   58.3120   21.2430   45.9170 O   0  0  0  0  0  0  0  0  0  0  0  0
   55.7520   26.8550   45.9970 N   0  0  0  0  0  0  0  0  0  0  0  0
   56.7750   27.6810   45.7270 N   0  0  0  0  0  0  0  0  0  0  0  0
   58.5950   30.4200   44.0190 N   0  0  0  0  0  0  0  0  0  0  0  0
   57.3980   31.1570   43.6280 C   0  0  0  0  0  0  0  0  0  0  0  0
   57.6480   32.5740   43.2380 C   0  0  0  0  0  0  0  0  0  0  0  0
   58.1060   33.3200   44.4660 C   0  0  0  0  0  0  0  0  0  0  0  0
   59.2050   34.1380   44.4700 C   0  0  0  0  0  0  0  0  0  0  0  0
   59.5200   34.7820   45.6590 C   0  0  0  0  0  0  0  0  0  0  0  0
   58.7320   34.5880   46.8000 C   0  0  0  0  0  0  0  0  0  0  0  0
   57.6250   33.7600   46.7850 C   0  0  0  0  0  0  0  0  0  0  0  0
   57.3110   33.1170   45.5930 C   0  0  0  0  0  0  0  0  0  0  0  0
   60.7381   29.6416   45.5224 H   0  0  0  0  0  0  0  0  0  0  0  0
   59.8104   29.4625   47.0638 H   0  0  0  0  0  0  0  0  0  0  0  0
   57.5042   23.5969   47.0174 H   0  0  0  0  0  0  0  0  0  0  0  0
   56.0342   22.5796   47.2702 H   0  0  0  0  0  0  0  0  0  0  0  0
   55.1498   24.1536   44.5540 H   0  0  0  0  0  0  0  0  0  0  0  0
   55.1991   23.3899   42.2118 H   0  0  0  0  0  0  0  0  0  0  0  0
   56.7893   21.5253   41.5873 H   0  0  0  0  0  0  0  0  0  0  0  0
   58.2230   20.5573   43.3448 H   0  0  0  0  0  0  0  0  0  0  0  0
   58.8280   20.3750   45.7920 H   0  0  0  0  0  0  0  0  0  0  0  0
   54.7450   27.0890   45.9680 H   0  0  0  0  0  0  0  0  0  0  0  0
   56.7230   28.6810   45.4460 H   0  0  0  0  0  0  0  0  0  0  0  0
   59.3580   30.1640   43.3560 H   0  0  0  0  0  0  0  0  0  0  0  0
   56.9399   30.6401   42.7719 H   0  0  0  0  0  0  0  0  0  0  0  0
   56.7436   31.1851   44.5117 H   0  0  0  0  0  0  0  0  0  0  0  0
   58.4274   32.6162   42.4629 H   0  0  0  0  0  0  0  0  0  0  0  0
   56.7306   33.0275   42.8347 H   0  0  0  0  0  0  0  0  0  0  0  0
   59.8148   34.2792   43.5654 H   0  0  0  0  0  0  0  0  0  0  0  0
   60.3938   35.4486   45.7049 H   0  0  0  0  0  0  0  0  0  0  0  0
   59.0005   35.1074   47.7317 H   0  0  0  0  0  0  0  0  0  0  0  0
   57.0124   33.6146   47.6870 H   0  0  0  0  0  0  0  0  0  0  0  0
   56.4379   32.4501   45.5393 H   0  0  0  0  0  0  0  0  0  0  0  0
  1  2  2  0
  2  3  1  0
  3  4  1  0
  4  5  1  0
  5  6  2  0
  6  7  1  0
  7  8  2  0
  8  9  1  0
  9 10  1  0
 10 11  2  0
 11 12  1  0
 12 13  2  0
 13 14  1  0
 14 15  2  0
 15 16  1  0
  7 17  1  0
 17 18  1  0
  2 19  1  0
 19 20  1  0
 20 21  1  0
 21 22  1  0
 22 23  2  0
 23 24  1  0
 24 25  2  0
 25 26  1  0
 26 27  2  0
 18  5  1  0
 27 22  1  0
 15 10  1  0
  3 28  1  0
  3 29  1  0
  9 30  1  0
  9 31  1  0
 11 32  1  0
 12 33  1  0
 13 34  1  0
 14 35  1  0
 16 36  1  0
 17 37  1  0
 18 38  1  0
 19 39  1  0
 20 40  1  0
 20 41  1  0
 21 42  1  0
 21 43  1  0
 23 44  1  0
 24 45  1  0
 25 46  1  0
 26 47  1  0
 27 48  1  0
M  END
>  <smiles>  (70) 
O=C(CSc1nc(=NCc2ccccc2O)[nH][nH]1)NCCc1ccccc1

>  <score_type>  (70) 
oracle

>  <origin>  (70) 
adg

>  <m_score__min__energy>  (70) 
-9.3599999999999994

>  <m_primary>  (70) 
energy

$$$$
70:0
     RDKit          3D

 52 55  0  0  0  0  0  0  0  0999 V2000
   58.5576   23.1493   45.0186 H   0  0  0  0  0  0  0  0  0  0  0  0
   57.7630   23.8800   45.2300 C   0  0  0  0  0  0  0  0  0  0  0  0
   58.0840   25.1280   45.6640 N   0  0  0  0  0  0  0  0  0  0  0  0
   57.1330   26.0640   45.9460 C   0  0  0  0  0  0  0  0  0  0  0  0
   57.4630   27.2530   46.3600 N   0  0  0  0  0  0  0  0  0  0  0  0
   58.5380   28.0600   45.8540 C   0  0  0  0  0  0  0  0  0  0  0  0
   59.1410   27.6790   44.8160 O   0  0  0  0  0  0  0  0  0  0  0  0
   58.9340   29.3380   46.4850 C   0  0  0  0  0  0  0  0  0  0  0  0
   58.4900   30.6070   46.0940 C   0  0  0  0  0  0  0  0  0  0  0  0
   57.6920   30.9140   44.9420 N   0  0  0  0  0  0  0  0  0  0  0  0
   57.3850   29.8500   43.9730 C   0  0  0  0  0  0  0  0  0  0  0  0
   58.3262   29.3968   43.6286 H   0  0  0  0  0  0  0  0  0  0  0  0
   56.7507   29.1010   44.4697 H   0  0  0  0  0  0  0  0  0  0  0  0
   56.6240   30.4010   42.7620 C   0  0  0  0  0  0  0  0  0  0  0  0
   56.5428   29.6114   42.0004 H   0  0  0  0  0  0  0  0  0  0  0  0
   55.6270   30.7237   43.0964 H   0  0  0  0  0  0  0  0  0  0  0  0
   57.3470   31.6140   42.1510 C   0  0  0  0  0  0  0  0  0  0  0  0
   58.2119   31.2494   41.5774 H   0  0  0  0  0  0  0  0  0  0  0  0
   56.6146   32.1392   41.5203 H   0  0  0  0  0  0  0  0  0  0  0  0
   57.8520   32.6340   43.2000 C   0  0  0  0  0  0  0  0  0  0  0  0
   58.9519   32.6360   43.1857 H   0  0  0  0  0  0  0  0  0  0  0  0
   57.4360   33.6161   42.9308 H   0  0  0  0  0  0  0  0  0  0  0  0
   57.3830   32.3120   44.6220 C   0  0  0  0  0  0  0  0  0  0  0  0
   57.8983   32.9724   45.3349 H   0  0  0  0  0  0  0  0  0  0  0  0
   56.2964   32.4689   44.6906 H   0  0  0  0  0  0  0  0  0  0  0  0
   59.1470   31.7700   47.1170 S   0  0  0  0  0  0  0  0  0  0  0  0
   60.0120   30.6780   48.0590 C   0  0  0  0  0  0  0  0  0  0  0  0
   61.0280   31.1120   49.4240 S   0  0  0  0  0  0  0  0  0  0  0  0
   60.1670   31.7020   50.5060 O   0  0  0  0  0  0  0  0  0  0  0  0
   61.6760   29.8670   49.9640 O   0  0  0  0  0  0  0  0  0  0  0  0
   62.2650   32.2610   48.9740 N   0  0  0  0  0  0  0  0  0  0  0  0
   62.4680   32.2490   47.5150 C   0  0  0  0  0  0  0  0  0  0  0  0
   62.5873   31.2094   47.1757 H   0  0  0  0  0  0  0  0  0  0  0  0
   61.5935   32.7104   47.0329 H   0  0  0  0  0  0  0  0  0  0  0  0
   63.7270   33.0540   47.1320 C   0  0  0  0  0  0  0  0  0  0  0  0
   64.5242   32.3559   46.8369 H   0  0  0  0  0  0  0  0  0  0  0  0
   63.4735   33.7247   46.2978 H   0  0  0  0  0  0  0  0  0  0  0  0
   64.1780   33.8380   48.2190 O   0  0  0  0  0  0  0  0  0  0  0  0
   64.5980   32.9960   49.2800 C   0  0  0  0  0  0  0  0  0  0  0  0
   65.5093   32.4640   48.9693 H   0  0  0  0  0  0  0  0  0  0  0  0
   64.7820   33.6308   50.1593 H   0  0  0  0  0  0  0  0  0  0  0  0
   63.5250   31.9570   49.6660 C   0  0  0  0  0  0  0  0  0  0  0  0
   63.8679   30.9530   49.3756 H   0  0  0  0  0  0  0  0  0  0  0  0
   63.3598   31.9927   50.7529 H   0  0  0  0  0  0  0  0  0  0  0  0
   59.8000   29.3890   47.5880 C   0  0  0  0  0  0  0  0  0  0  0  0
   60.2643   28.4974   48.0347 H   0  0  0  0  0  0  0  0  0  0  0  0
   55.7790   25.7450   45.7640 C   0  0  0  0  0  0  0  0  0  0  0  0
   54.7860   26.6820   46.0310 O   0  0  0  0  0  0  0  0  0  0  0  0
   55.4280   24.4680   45.3200 C   0  0  0  0  0  0  0  0  0  0  0  0
   54.3691   24.2044   45.1810 H   0  0  0  0  0  0  0  0  0  0  0  0
   56.4240   23.5270   45.0530 C   0  0  0  0  0  0  0  0  0  0  0  0
   56.1565   22.5178   44.7067 H   0  0  0  0  0  0  0  0  0  0  0  0
  1  2  1  0
  2  3  1  0
  3  4  1  0
  4  5  2  0
  5  6  1  0
  6  7  2  0
  6  8  1  0
  8  9  2  0
  9 10  1  0
 10 11  1  0
 11 12  1  0
 11 13  1  0
 11 14  1  0
 14 15  1  0
 14 16  1  0
 14 17  1  0
 17 18  1  0
 17 19  1  0
 17 20  1  0
 20 21  1  0
 20 22  1  0
 20 23  1  0
 23 24  1  0
 23 25  1  0
  9 26  1  0
 26 27  1  0
 27 28  1  0
 28 29  2  0
 28 30  2  0
 28 31  1  0
 31 32  1  0
 32 33  1  0
 32 34  1  0
 32 35  1  0
 35 36  1  0
 35 37  1  0
 35 38  1  0
 38 39  1  0
 39 40  1  0
 39 41  1  0
 39 42  1  0
 42 43  1  0
 42 44  1  0
 27 45  2  0
 45 46  1  0
  4 47  1  0
 47 48  1  0
 47 49  2  0
 49 50  1  0
 49 51  1  0
 51 52  1  0
 51  2  2  0
 45  8  1  0
 23 10  1  0
 42 31  1  0
M  CHG  2   3  -1  48  -1
M  END
>  <UniqueID>  (71) 
67

>  <SMILES>  (71) 
O=C(/N=c1\[n-]cccc1[O-])c1cc(S(=O)(=O)N2CCOCC2)sc1N1CCCCC1

>  <Energy>  (71) 
99.4009804190966

>  <Genealogy>  (71) 
O=C(N=c1[n-]cccc1[O-])c1cc(S(=O)(=O)N2CCOCC2)sc1N1CCCCC1 (protonated)
O=C(/N=c1\[n-]cccc1[O-])c1cc(S(=O)(=O)N2CCOCC2)sc1N1CCCCC1 (cis-trans isomerization)
O=C(/N=c1\[n-]cccc1[O-])c1cc(S(=O)(=O)N2CCOCC2)sc1N1CCCCC1 (3D coordinates assigned)
O=C(/N=c1\[n-]cccc1[O-])c1cc(S(=O)(=O)N2CCOCC2)sc1N1CCCCC1 (nonaromatic ring conformer: 99.4009804190966 kcal/mol)

>  <smiles>  (71) 
O=C(N=c1[nH]cccc1O)c1cc(S(=O)(=O)N2CCOCC2)sc1N1CCCCC1

>  <score_type>  (71) 
oracle

>  <origin>  (71) 
adg

>  <m_score__min__energy>  (71) 
-13.67

>  <m_primary>  (71) 
energy

$$$$
71:0
     RDKit          3D

 37 40  0  0  0  0  0  0  0  0999 V2000
   56.0580   31.2560   44.8390 O   0  0  0  0  0  0  0  0  0  0  0  0
   57.0280   30.5340   44.4750 C   0  0  0  0  0  0  0  0  0  0  0  0
   56.8400   29.1800   43.8750 C   0  0  0  0  0  0  0  0  0  0  0  0
   57.0970   28.1830   44.9580 C   0  0  0  0  0  0  0  0  0  0  0  0
   56.1810   27.4390   45.6150 N   0  0  0  0  0  0  0  0  0  0  0  0
   56.7870   26.6700   46.5060 N   0  0  0  0  0  0  0  0  0  0  0  0
   58.1270   26.8890   46.4560 C   0  0  0  0  0  0  0  0  0  0  0  0
   59.1660   26.3390   47.1750 C   0  0  0  0  0  0  0  0  0  0  0  0
   60.4790   26.7390   46.9340 C   0  0  0  0  0  0  0  0  0  0  0  0
   60.6540   27.6920   45.9550 C   0  0  0  0  0  0  0  0  0  0  0  0
   59.6160   28.2450   45.2340 C   0  0  0  0  0  0  0  0  0  0  0  0
   58.3120   27.8330   45.4900 C   0  0  0  0  0  0  0  0  0  0  0  0
   58.3900   30.9700   44.6140 N   0  0  0  0  0  0  0  0  0  0  0  0
   58.6950   32.2440   45.1750 C   0  0  0  0  0  0  0  0  0  0  0  0
   58.1530   33.4240   44.6590 C   0  0  0  0  0  0  0  0  0  0  0  0
   58.4700   34.6270   45.2260 C   0  0  0  0  0  0  0  0  0  0  0  0
   59.3220   34.7010   46.3060 C   0  0  0  0  0  0  0  0  0  0  0  0
   59.8710   33.5500   46.8360 C   0  0  0  0  0  0  0  0  0  0  0  0
   60.7100   33.6250   47.9010 N   0  0  0  0  0  0  0  0  0  0  0  0
   61.2730   32.5360   48.4550 C   0  0  0  0  0  0  0  0  0  0  0  0
   60.9870   31.2960   47.9220 C   0  0  0  0  0  0  0  0  0  0  0  0
   60.1280   31.2020   46.8300 C   0  0  0  0  0  0  0  0  0  0  0  0
   59.5540   32.3310   46.2670 C   0  0  0  0  0  0  0  0  0  0  0  0
   55.8118   29.0728   43.4990 H   0  0  0  0  0  0  0  0  0  0  0  0
   57.5263   29.0266   43.0291 H   0  0  0  0  0  0  0  0  0  0  0  0
   55.1440   27.5060   45.4050 H   0  0  0  0  0  0  0  0  0  0  0  0
   58.9578   25.5800   47.9435 H   0  0  0  0  0  0  0  0  0  0  0  0
   61.3272   26.3177   47.4936 H   0  0  0  0  0  0  0  0  0  0  0  0
   61.6774   28.0306   45.7361 H   0  0  0  0  0  0  0  0  0  0  0  0
   59.8174   29.0044   44.4641 H   0  0  0  0  0  0  0  0  0  0  0  0
   59.1980   30.3560   44.3060 H   0  0  0  0  0  0  0  0  0  0  0  0
   57.4713   33.3850   43.7966 H   0  0  0  0  0  0  0  0  0  0  0  0
   58.0379   35.5505   44.8133 H   0  0  0  0  0  0  0  0  0  0  0  0
   59.5655   35.6788   46.7471 H   0  0  0  0  0  0  0  0  0  0  0  0
   61.9491   32.6325   49.3173 H   0  0  0  0  0  0  0  0  0  0  0  0
   61.4337   30.3893   48.3560 H   0  0  0  0  0  0  0  0  0  0  0  0
   59.9006   30.2128   46.4061 H   0  0  0  0  0  0  0  0  0  0  0  0
  1  2  2  0
  2  3  1  0
  3  4  1  0
  4  5  1  0
  5  6  1  0
  6  7  2  0
  7  8  1  0
  8  9  2  0
  9 10  1  0
 10 11  2  0
 11 12  1  0
  2 13  1  0
 13 14  1  0
 14 15  2  0
 15 16  1  0
 16 17  2  0
 17 18  1  0
 18 19  2  0
 19 20  1  0
 20 21  2  0
 21 22  1  0
 22 23  2  0
 12  4  2  0
 23 14  1  0
 12  7  1  0
 23 18  1  0
  3 24  1  0
  3 25  1  0
  5 26  1  0
  8 27  1  0
  9 28  1  0
 10 29  1  0
 11 30  1  0
 13 31  1  0
 15 32  1  0
 16 33  1  0
 17 34  1  0
 20 35  1  0
 21 36  1  0
 22 37  1  0
M  END
>  <smiles>  (72) 
O=C(Cc1[nH]nc2ccccc12)Nc1cccc2ncccc12

>  <score_type>  (72) 
oracle

>  <origin>  (72) 
adg

>  <m_score__min__energy>  (72) 
-8.8699999999999992

>  <m_primary>  (72) 
energy

$$$$
72:0
     RDKit          3D

 34 36  0  0  0  0  0  0  0  0999 V2000
   55.3290   21.6300   45.9720 C   0  0  0  0  0  0  0  0  0  0  0  0
   55.0150   23.3670   46.1860 S   0  0  0  0  0  0  0  0  0  0  0  0
   53.8030   23.5430   47.0570 O   0  0  0  0  0  0  0  0  0  0  0  0
   54.7770   23.9930   44.8400 O   0  0  0  0  0  0  0  0  0  0  0  0
   56.3950   24.0970   46.9400 N   0  0  0  0  0  0  0  0  0  0  0  0
   57.0760   25.2700   46.4710 C   0  0  0  0  0  0  0  0  0  0  0  0
   58.4800   25.3390   46.4340 C   0  0  0  0  0  0  0  0  0  0  0  0
   59.1180   26.4880   45.9670 C   0  0  0  0  0  0  0  0  0  0  0  0
   58.3680   27.5820   45.5370 C   0  0  0  0  0  0  0  0  0  0  0  0
   56.9640   27.5430   45.5840 C   0  0  0  0  0  0  0  0  0  0  0  0
   56.1850   28.6590   45.1180 N   0  0  0  0  0  0  0  0  0  0  0  0
   56.7340   29.7880   44.4180 C   0  0  0  0  0  0  0  0  0  0  0  0
   56.4940   29.9540   43.0370 C   0  0  0  0  0  0  0  0  0  0  0  0
   57.0100   31.0730   42.3470 C   0  0  0  0  0  0  0  0  0  0  0  0
   57.7550   32.0500   43.0300 C   0  0  0  0  0  0  0  0  0  0  0  0
   57.9560   31.8750   44.3960 C   0  0  0  0  0  0  0  0  0  0  0  0
   58.5950   32.6990   45.2400 N   0  0  0  0  0  0  0  0  0  0  0  0
   58.4510   32.0580   46.4260 C   0  0  0  0  0  0  0  0  0  0  0  0
   58.9200   32.5150   47.5000 O   0  0  0  0  0  0  0  0  0  0  0  0
   57.7610   30.8910   46.3730 N   0  0  0  0  0  0  0  0  0  0  0  0
   57.4650   30.7930   45.0680 C   0  0  0  0  0  0  0  0  0  0  0  0
   56.3180   26.3780   46.0380 C   0  0  0  0  0  0  0  0  0  0  0  0
   54.9220   26.3440   46.0620 O   0  0  0  0  0  0  0  0  0  0  0  0
   55.4160   21.1490   46.9574 H   0  0  0  0  0  0  0  0  0  0  0  0
   54.4988   21.1734   45.4131 H   0  0  0  0  0  0  0  0  0  0  0  0
   56.2665   21.4930   45.4131 H   0  0  0  0  0  0  0  0  0  0  0  0
   59.0787   24.4817   46.7754 H   0  0  0  0  0  0  0  0  0  0  0  0
   60.2168   26.5313   45.9378 H   0  0  0  0  0  0  0  0  0  0  0  0
   58.8780   28.4803   45.1590 H   0  0  0  0  0  0  0  0  0  0  0  0
   55.1480   28.6260   45.2470 H   0  0  0  0  0  0  0  0  0  0  0  0
   55.8996   29.2050   42.4932 H   0  0  0  0  0  0  0  0  0  0  0  0
   56.8277   31.1808   41.2676 H   0  0  0  0  0  0  0  0  0  0  0  0
   58.1654   32.9236   42.5024 H   0  0  0  0  0  0  0  0  0  0  0  0
   54.4010   25.5260   46.3570 H   0  0  0  0  0  0  0  0  0  0  0  0
  1  2  1  0
  2  3  2  0
  2  4  2  0
  2  5  1  0
  5  6  1  0
  6  7  2  0
  7  8  1  0
  8  9  2  0
  9 10  1  0
 10 11  1  0
 11 12  1  0
 12 13  2  0
 13 14  1  0
 14 15  2  0
 15 16  1  0
 16 17  1  0
 17 18  1  0
 18 19  2  0
 18 20  1  0
 20 21  1  0
 10 22  2  0
 22 23  1  0
 22  6  1  0
 21 12  1  0
 21 16  2  0
  1 24  1  0
  1 25  1  0
  1 26  1  0
  7 27  1  0
  8 28  1  0
  9 29  1  0
 11 30  1  0
 13 31  1  0
 14 32  1  0
 15 33  1  0
 23 34  1  0
M  CHG  3   5  -1  17  -1  20  -1
M  END
>  <UniqueID>  (73) 
68

>  <SMILES>  (73) 
CS(=O)(=O)[N-]c1cccc(Nc2cccc3[n-]c(=O)[n-]c23)c1O

>  <Energy>  (73) 
77.42297344760838

>  <Genealogy>  (73) 
CS(=O)(=O)[N-]c1cccc(Nc2cccc3[n-]c(=O)[n-]c23)c1O (protonated)
CS(=O)(=O)[N-]c1cccc(Nc2cccc3[n-]c(=O)[n-]c23)c1O (3D coordinates assigned)
CS(=O)(=O)[N-]c1cccc(Nc2cccc3[n-]c(=O)[n-]c23)c1O (optimized conformer: 77.42297344760838 kcal/mol)

>  <smiles>  (73) 
CS(=O)(=O)Nc1cccc(Nc2cccc3[nH]c(=O)[nH]c23)c1O

>  <score_type>  (73) 
oracle

>  <origin>  (73) 
adg

>  <m_score__min__energy>  (73) 
-12.58

>  <m_primary>  (73) 
energy

$$$$
73:0
     RDKit          3D

 44 46  0  0  0  0  0  0  0  0999 V2000
   57.0660   32.4030   41.6900 H   0  0  0  0  0  0  0  0  0  0  0  0
   57.6230   32.7590   42.4980 N   0  0  0  0  0  0  0  0  0  0  0  0
   57.7490   32.1390   43.6350 C   0  0  0  0  0  0  0  0  0  0  0  0
   58.4530   32.7180   44.7180 C   0  0  0  0  0  0  0  0  0  0  0  0
   58.9830   34.0630   44.6190 C   0  0  0  0  0  0  0  0  0  0  0  0
   59.4060   35.1380   44.5400 N   0  0  0  0  0  0  0  0  0  0  0  0
   58.5750   31.9900   45.9220 C   0  0  0  0  0  0  0  0  0  0  0  0
   59.3150   32.5020   47.1010 C   0  0  0  0  0  0  0  0  0  0  0  0
   58.6370   33.0650   48.1980 C   0  0  0  0  0  0  0  0  0  0  0  0
   57.5378   33.1063   48.1993 H   0  0  0  0  0  0  0  0  0  0  0  0
   59.3530   33.5720   49.2860 C   0  0  0  0  0  0  0  0  0  0  0  0
   58.8159   33.9969   50.1468 H   0  0  0  0  0  0  0  0  0  0  0  0
   60.7500   33.5400   49.2820 C   0  0  0  0  0  0  0  0  0  0  0  0
   61.4420   34.0380   50.3360 F   0  0  0  0  0  0  0  0  0  0  0  0
   61.4330   33.0060   48.1860 C   0  0  0  0  0  0  0  0  0  0  0  0
   62.5328   32.9883   48.1797 H   0  0  0  0  0  0  0  0  0  0  0  0
   60.7200   32.4940   47.0970 C   0  0  0  0  0  0  0  0  0  0  0  0
   61.2622   32.0828   46.2327 H   0  0  0  0  0  0  0  0  0  0  0  0
   57.9840   30.7700   46.0250 N   0  0  0  0  0  0  0  0  0  0  0  0
   57.2920   30.1870   45.0130 C   0  0  0  0  0  0  0  0  0  0  0  0
   56.7030   28.8520   45.2530 C   0  0  0  0  0  0  0  0  0  0  0  0
   55.5240   28.5880   44.8940 O   0  0  0  0  0  0  0  0  0  0  0  0
   57.4900   27.8470   45.9030 N   0  0  0  0  0  0  0  0  0  0  0  0
   56.9220   26.7590   46.6930 C   0  0  0  0  0  0  0  0  0  0  0  0
   57.5400   26.5993   47.5889 H   0  0  0  0  0  0  0  0  0  0  0  0
   55.8964   27.0263   46.9874 H   0  0  0  0  0  0  0  0  0  0  0  0
   56.8860   25.4930   45.8820 C   0  0  0  0  0  0  0  0  0  0  0  0
   57.4330   25.4720   44.5890 C   0  0  0  0  0  0  0  0  0  0  0  0
   57.9097   26.3759   44.1819 H   0  0  0  0  0  0  0  0  0  0  0  0
   57.3750   24.3080   43.8160 C   0  0  0  0  0  0  0  0  0  0  0  0
   57.8122   24.2976   42.8067 H   0  0  0  0  0  0  0  0  0  0  0  0
   56.7610   23.1540   44.3240 C   0  0  0  0  0  0  0  0  0  0  0  0
   56.6960   21.6870   43.3560 S   0  0  0  0  0  0  0  0  0  0  0  0
   58.0890   21.2670   42.9740 O   0  0  0  0  0  0  0  0  0  0  0  0
   55.9070   21.9390   42.1020 O   0  0  0  0  0  0  0  0  0  0  0  0
   55.9440   20.4290   44.2710 N   0  0  0  0  0  0  0  0  0  0  0  0
   56.5170   19.5680   44.1360 H   0  0  0  0  0  0  0  0  0  0  0  0
   56.2190   23.1710   45.6170 C   0  0  0  0  0  0  0  0  0  0  0  0
   55.7477   22.2648   46.0251 H   0  0  0  0  0  0  0  0  0  0  0  0
   56.2750   24.3350   46.3900 C   0  0  0  0  0  0  0  0  0  0  0  0
   55.8388   24.3436   47.3998 H   0  0  0  0  0  0  0  0  0  0  0  0
   57.1670   30.8640   43.7840 C   0  0  0  0  0  0  0  0  0  0  0  0
   56.4640   30.2720   42.7300 O   0  0  0  0  0  0  0  0  0  0  0  0
   55.8820   29.4530   42.8490 H   0  0  0  0  0  0  0  0  0  0  0  0
  1  2  1  0
  2  3  2  0
  3  4  1  0
  4  5  1  0
  5  6  3  0
  4  7  2  0
  7  8  1  0
  8  9  2  0
  9 10  1  0
  9 11  1  0
 11 12  1  0
 11 13  2  0
 13 14  1  0
 13 15  1  0
 15 16  1  0
 15 17  2  0
 17 18  1  0
  7 19  1  0
 19 20  1  0
 20 21  1  0
 21 22  2  0
 21 23  1  0
 23 24  1  0
 24 25  1  0
 24 26  1  0
 24 27  1  0
 27 28  2  0
 28 29  1  0
 28 30  1  0
 30 31  1  0
 30 32  2  0
 32 33  1  0
 33 34  2  0
 33 35  2  0
 33 36  1  0
 36 37  1  0
 32 38  1  0
 38 39  1  0
 38 40  2  0
 40 41  1  0
 20 42  2  0
 42 43  1  0
 43 44  1  0
 42  3  1  0
 17  8  1  0
 40 27  1  0
M  CHG  3  19  -1  23  -1  36  -1
M  END
>  <UniqueID>  (74) 
69

>  <SMILES>  (74) 
[H]/N=c1/c(O)c(C(=O)[N-]Cc2ccc(S([NH-])(=O)=O)cc2)[n-]c(-c2ccc(F)cc2)c1C#N

>  <Energy>  (74) 
56.238928563267216

>  <Genealogy>  (74) 
N#Cc1c(-c2ccc(F)cc2)[n-]c(C(=O)[N-]Cc2ccc(S([NH-])(=O)=O)cc2)c(O)c1=N (protonated)
[H]/N=c1/c(O)c(C(=O)[N-]Cc2ccc(S([NH-])(=O)=O)cc2)[n-]c(-c2ccc(F)cc2)c1C#N (cis-trans isomerization)
[H]/N=c1/c(O)c(C(=O)[N-]Cc2ccc(S([NH-])(=O)=O)cc2)[n-]c(-c2ccc(F)cc2)c1C#N (3D coordinates assigned)
[H]/N=c1/c(O)c(C(=O)[N-]Cc2ccc(S([NH-])(=O)=O)cc2)[n-]c(-c2ccc(F)cc2)c1C#N (optimized conformer: 56.238928563267216 kcal/mol)

>  <smiles>  (74) 
N#Cc1c(-c2ccc(F)cc2)[nH]c(C(=O)NCc2ccc(S(N)(=O)=O)cc2)c(O)c1=N

>  <score_type>  (74) 
oracle

>  <origin>  (74) 
adg

>  <m_score__min__energy>  (74) 
-11.880000000000001

>  <m_primary>  (74) 
energy

$$$$
74:0
     RDKit          3D

 40 42  0  0  0  0  0  0  0  0999 V2000
   58.7887   27.2049   48.0714 H   0  0  0  0  0  0  0  0  0  0  0  0
   58.4710   27.9020   47.2820 C   0  0  0  0  0  0  0  0  0  0  0  0
   57.4650   27.5090   46.4910 C   0  0  0  0  0  0  0  0  0  0  0  0
   56.8394   28.2924   46.0382 H   0  0  0  0  0  0  0  0  0  0  0  0
   57.1310   26.1070   46.1800 C   0  0  0  0  0  0  0  0  0  0  0  0
   58.1530   25.1600   46.0070 C   0  0  0  0  0  0  0  0  0  0  0  0
   59.1946   25.4285   46.2372 H   0  0  0  0  0  0  0  0  0  0  0  0
   57.8500   23.8770   45.5430 C   0  0  0  0  0  0  0  0  0  0  0  0
   58.6571   23.1474   45.3806 H   0  0  0  0  0  0  0  0  0  0  0  0
   56.5250   23.5190   45.2850 C   0  0  0  0  0  0  0  0  0  0  0  0
   56.2878   22.5024   44.9383 H   0  0  0  0  0  0  0  0  0  0  0  0
   55.5010   24.4510   45.4670 C   0  0  0  0  0  0  0  0  0  0  0  0
   54.4565   24.1629   45.2773 H   0  0  0  0  0  0  0  0  0  0  0  0
   55.8010   25.7500   45.8900 C   0  0  0  0  0  0  0  0  0  0  0  0
   54.7740   26.6790   46.0200 O   0  0  0  0  0  0  0  0  0  0  0  0
   59.1930   29.1880   47.1900 C   0  0  0  0  0  0  0  0  0  0  0  0
   60.1341   29.2012   46.6206 H   0  0  0  0  0  0  0  0  0  0  0  0
   58.8020   30.3090   47.7310 N   0  0  0  0  0  0  0  0  0  0  0  0
   59.5260   31.1070   48.6420 N   0  0  0  0  0  0  0  0  0  0  0  0
   60.3200   32.1430   48.2990 C   0  0  0  0  0  0  0  0  0  0  0  0
   60.4930   32.6570   46.9010 C   0  0  0  0  0  0  0  0  0  0  0  0
   61.0639   31.9166   46.3215 H   0  0  0  0  0  0  0  0  0  0  0  0
   61.0222   33.6193   46.9629 H   0  0  0  0  0  0  0  0  0  0  0  0
   59.1890   32.9010   46.2130 C   0  0  0  0  0  0  0  0  0  0  0  0
   58.5240   31.9040   45.5700 N   0  0  0  0  0  0  0  0  0  0  0  0
   57.3150   32.3170   45.1340 C   0  0  0  0  0  0  0  0  0  0  0  0
   56.4670   31.5720   44.4860 N   0  0  0  0  0  0  0  0  0  0  0  0
   56.4120   30.1360   44.4310 C   0  0  0  0  0  0  0  0  0  0  0  0
   55.4000   29.5570   44.9050 O   0  0  0  0  0  0  0  0  0  0  0  0
   57.4990   29.2990   43.8240 C   0  0  0  0  0  0  0  0  0  0  0  0
   58.0972   28.8384   44.6241 H   0  0  0  0  0  0  0  0  0  0  0  0
   57.0505   28.5108   43.2014 H   0  0  0  0  0  0  0  0  0  0  0  0
   58.1464   29.9341   43.2014 H   0  0  0  0  0  0  0  0  0  0  0  0
   57.0180   33.9210   45.5300 S   0  0  0  0  0  0  0  0  0  0  0  0
   58.5110   34.1170   46.2810 C   0  0  0  0  0  0  0  0  0  0  0  0
   58.8859   35.0417   46.7440 H   0  0  0  0  0  0  0  0  0  0  0  0
   60.6820   32.8570   49.3830 N   0  0  0  0  0  0  0  0  0  0  0  0
   60.0760   32.3160   50.4290 N   0  0  0  0  0  0  0  0  0  0  0  0
   59.3530   31.2770   49.9750 C   0  0  0  0  0  0  0  0  0  0  0  0
   58.1550   30.6110   50.8710 S   0  0  0  0  0  0  0  0  0  0  0  0
  1  2  1  0
  2  3  2  0
  3  4  1  0
  3  5  1  0
  5  6  2  0
  6  7  1  0
  6  8  1  0
  8  9  1  0
  8 10  2  0
 10 11  1  0
 10 12  1  0
 12 13  1  0
 12 14  2  0
 14 15  1  0
  2 16  1  0
 16 17  1  0
 16 18  2  0
 18 19  1  0
 19 20  1  0
 20 21  1  0
 21 22  1  0
 21 23  1  0
 21 24  1  0
 24 25  1  0
 25 26  1  0
 26 27  2  3
 27 28  1  0
 28 29  2  0
 28 30  1  0
 30 31  1  0
 30 32  1  0
 30 33  1  0
 26 34  1  0
 34 35  1  0
 35 36  1  0
 20 37  2  0
 37 38  1  0
 38 39  1  0
 39 40  2  0
 14  5  1  0
 39 19  1  0
 35 24  2  0
M  CHG  3  15  -1  25  -1  38  -1
M  END
>  <UniqueID>  (75) 
70

>  <SMILES>  (75) 
CC(=O)N=c1[n-]c(Cc2n[n-]c(=S)n2/N=C\C=Cc2ccccc2[O-])cs1

>  <Energy>  (75) 
126.82364812998588

>  <Genealogy>  (75) 
CC(=O)N=c1[n-]c(Cc2n[n-]c(=S)n2N=CC=Cc2ccccc2[O-])cs1 (protonated)
CC(=O)N=c1[n-]c(Cc2n[n-]c(=S)n2/N=C\C=Cc2ccccc2[O-])cs1 (cis-trans isomerization)
CC(=O)N=c1[n-]c(Cc2n[n-]c(=S)n2/N=C\C=Cc2ccccc2[O-])cs1 (3D coordinates assigned)
CC(=O)N=c1[n-]c(Cc2n[n-]c(=S)n2/N=C\C=Cc2ccccc2[O-])cs1 (optimized conformer: 126.82364812998588 kcal/mol)

>  <smiles>  (75) 
CC(=O)N=c1[nH]c(Cc2n[nH]c(=S)n2N=CC=Cc2ccccc2O)cs1

>  <score_type>  (75) 
oracle

>  <origin>  (75) 
adg

>  <m_score__min__energy>  (75) 
-13.77

>  <m_primary>  (75) 
energy

$$$$
75:0
     RDKit          3D

 32 34  0  0  0  0  0  0  0  0999 V2000
   55.1381   28.4846   54.0140 H   0  0  0  0  0  0  0  0  0  0  0  0
   54.8070   29.3880   53.4810 C   0  0  0  0  0  0  0  0  0  0  0  0
   53.5000   29.6950   53.5390 C   0  0  0  0  0  0  0  0  0  0  0  0
   52.9564   29.4264   54.4568 H   0  0  0  0  0  0  0  0  0  0  0  0
   52.7350   30.3660   52.4650 C   0  0  0  0  0  0  0  0  0  0  0  0
   52.8930   29.9760   51.1230 C   0  0  0  0  0  0  0  0  0  0  0  0
   53.5755   29.1515   50.8694 H   0  0  0  0  0  0  0  0  0  0  0  0
   52.1870   30.6310   50.1100 C   0  0  0  0  0  0  0  0  0  0  0  0
   52.3005   30.3087   49.0644 H   0  0  0  0  0  0  0  0  0  0  0  0
   51.3370   31.6950   50.4240 C   0  0  0  0  0  0  0  0  0  0  0  0
   50.6380   32.3410   49.4110 O   0  0  0  0  0  0  0  0  0  0  0  0
   51.1960   32.1110   51.7530 C   0  0  0  0  0  0  0  0  0  0  0  0
   50.3580   33.1770   52.0610 O   0  0  0  0  0  0  0  0  0  0  0  0
   51.8990   31.4540   52.7730 C   0  0  0  0  0  0  0  0  0  0  0  0
   51.7540   31.8790   54.0900 O   0  0  0  0  0  0  0  0  0  0  0  0
   55.8370   30.1670   52.7580 C   0  0  0  0  0  0  0  0  0  0  0  0
   56.7840   29.5470   52.0100 N   0  0  0  0  0  0  0  0  0  0  0  0
   57.7550   30.2370   51.3600 C   0  0  0  0  0  0  0  0  0  0  0  0
   58.8040   29.3850   50.4250 S   0  0  0  0  0  0  0  0  0  0  0  0
   57.8090   31.6080   51.4620 N   0  0  0  0  0  0  0  0  0  0  0  0
   58.8330   32.3690   50.7870 C   0  0  0  0  0  0  0  0  0  0  0  0
   59.9850   32.8770   51.3490 C   0  0  0  0  0  0  0  0  0  0  0  0
   60.3360   32.7750   52.6890 O   0  0  0  0  0  0  0  0  0  0  0  0
   60.7430   33.5060   50.4290 N   0  0  0  0  0  0  0  0  0  0  0  0
   60.0500   33.3790   49.2780 C   0  0  0  0  0  0  0  0  0  0  0  0
   60.4920   33.8930   48.0660 O   0  0  0  0  0  0  0  0  0  0  0  0
   58.8670   32.6840   49.4460 C   0  0  0  0  0  0  0  0  0  0  0  0
   58.1183   32.4370   48.6789 H   0  0  0  0  0  0  0  0  0  0  0  0
   56.8810   32.2650   52.2290 C   0  0  0  0  0  0  0  0  0  0  0  0
   56.9230   33.5210   52.3590 O   0  0  0  0  0  0  0  0  0  0  0  0
   55.8820   31.5530   52.8930 C   0  0  0  0  0  0  0  0  0  0  0  0
   55.1410   32.0778   53.5138 H   0  0  0  0  0  0  0  0  0  0  0  0
  1  2  1  0
  2  3  2  0
  3  4  1  0
  3  5  1  0
  5  6  2  0
  6  7  1  0
  6  8  1  0
  8  9  1  0
  8 10  2  0
 10 11  1  0
 10 12  1  0
 12 13  1  0
 12 14  2  0
 14 15  1  0
  2 16  1  0
 16 17  1  0
 17 18  1  0
 18 19  2  0
 18 20  1  0
 20 21  1  0
 21 22  2  0
 22 23  1  0
 22 24  1  0
 24 25  1  0
 25 26  1  0
 25 27  2  0
 27 28  1  0
 20 29  1  0
 29 30  2  0
 29 31  1  0
 31 32  1  0
 14  5  1  0
 31 16  2  0
 27 21  1  0
M  CHG  7  11  -1  13  -1  15  -1  17  -1  23  -1  24  -1  26  -1
M  END
>  <UniqueID>  (76) 
71

>  <SMILES>  (76) 
O=c1cc(/C=C\c2ccc([O-])c([O-])c2[O-])[n-]c(=S)n1-c1cc([O-])[n-]c1[O-]

>  <Energy>  (76) 
83.36107151038674

>  <Genealogy>  (76) 
O=c1cc(C=Cc2ccc([O-])c([O-])c2[O-])[n-]c(=S)n1-c1cc([O-])[n-]c1[O-] (protonated)
O=c1cc(/C=C\c2ccc([O-])c([O-])c2[O-])[n-]c(=S)n1-c1cc([O-])[n-]c1[O-] (cis-trans isomerization)
O=c1cc(/C=C\c2ccc([O-])c([O-])c2[O-])[n-]c(=S)n1-c1cc([O-])[n-]c1[O-] (3D coordinates assigned)
O=c1cc(/C=C\c2ccc([O-])c([O-])c2[O-])[n-]c(=S)n1-c1cc([O-])[n-]c1[O-] (optimized conformer: 83.36107151038674 kcal/mol)

>  <smiles>  (76) 
O=c1cc(C=Cc2ccc(O)c(O)c2O)[nH]c(=S)n1-c1cc(O)[nH]c1O

>  <score_type>  (76) 
oracle

>  <origin>  (76) 
adg

>  <m_score__min__energy>  (76) 
-19.91

>  <m_primary>  (76) 
energy

$$$$
76:0
     RDKit          3D

 33 34  0  0  0  0  0  0  0  0999 V2000
   59.0520   24.7720   46.0090 C   0  0  0  0  0  0  0  0  0  0  0  0
   57.8500   25.5280   46.4850 C   0  0  0  0  0  0  0  0  0  0  0  0
   57.1210   25.0030   47.3700 O   0  0  0  0  0  0  0  0  0  0  0  0
   57.5080   26.8760   45.9540 C   0  0  0  0  0  0  0  0  0  0  0  0
   56.1760   27.2630   45.7360 C   0  0  0  0  0  0  0  0  0  0  0  0
   55.1240   26.3840   45.9800 O   0  0  0  0  0  0  0  0  0  0  0  0
   55.9040   28.5010   45.2590 N   0  0  0  0  0  0  0  0  0  0  0  0
   56.8850   29.3900   44.9740 C   0  0  0  0  0  0  0  0  0  0  0  0
   56.5640   30.5300   44.5430 O   0  0  0  0  0  0  0  0  0  0  0  0
   58.2030   29.0500   45.1550 N   0  0  0  0  0  0  0  0  0  0  0  0
   59.2740   30.0310   44.8750 C   0  0  0  0  0  0  0  0  0  0  0  0
   59.7650   30.7070   46.1620 C   0  0  0  0  0  0  0  0  0  0  0  0
   59.6070   32.2030   46.1030 C   0  0  0  0  0  0  0  0  0  0  0  0
   60.5160   33.0410   46.7720 C   0  0  0  0  0  0  0  0  0  0  0  0
   60.3390   34.4280   46.7550 C   0  0  0  0  0  0  0  0  0  0  0  0
   59.2560   34.9880   46.0730 C   0  0  0  0  0  0  0  0  0  0  0  0
   58.3420   34.1610   45.4120 C   0  0  0  0  0  0  0  0  0  0  0  0
   58.5140   32.7730   45.4290 C   0  0  0  0  0  0  0  0  0  0  0  0
   58.5220   27.8060   45.6430 C   0  0  0  0  0  0  0  0  0  0  0  0
   59.7310   27.4950   45.8330 O   0  0  0  0  0  0  0  0  0  0  0  0
   59.6253   24.4114   46.8758 H   0  0  0  0  0  0  0  0  0  0  0  0
   58.7286   23.9144   45.4008 H   0  0  0  0  0  0  0  0  0  0  0  0
   59.6849   25.4349   45.4008 H   0  0  0  0  0  0  0  0  0  0  0  0
   55.1430   25.7590   46.7770 H   0  0  0  0  0  0  0  0  0  0  0  0
   60.1189   29.5121   44.3986 H   0  0  0  0  0  0  0  0  0  0  0  0
   58.8672   30.8071   44.2100 H   0  0  0  0  0  0  0  0  0  0  0  0
   59.1828   30.3207   47.0116 H   0  0  0  0  0  0  0  0  0  0  0  0
   60.8349   30.4806   46.2804 H   0  0  0  0  0  0  0  0  0  0  0  0
   61.3697   32.6041   47.3108 H   0  0  0  0  0  0  0  0  0  0  0  0
   61.0537   35.0792   47.2795 H   0  0  0  0  0  0  0  0  0  0  0  0
   59.1220   36.0797   46.0558 H   0  0  0  0  0  0  0  0  0  0  0  0
   57.4873   34.6024   44.8784 H   0  0  0  0  0  0  0  0  0  0  0  0
   57.7905   32.1251   44.9125 H   0  0  0  0  0  0  0  0  0  0  0  0
  1  2  1  0
  2  3  2  0
  2  4  1  0
  4  5  2  0
  5  6  1  0
  5  7  1  0
  7  8  1  0
  8  9  2  0
  8 10  1  0
 10 11  1  0
 11 12  1  0
 12 13  1  0
 13 14  2  0
 14 15  1  0
 15 16  2  0
 16 17  1  0
 17 18  2  0
 10 19  1  0
 19 20  2  0
 19  4  1  0
 18 13  1  0
  1 21  1  0
  1 22  1  0
  1 23  1  0
  6 24  1  0
 11 25  1  0
 11 26  1  0
 12 27  1  0
 12 28  1  0
 14 29  1  0
 15 30  1  0
 16 31  1  0
 17 32  1  0
 18 33  1  0
M  CHG  1   7  -1
M  END
>  <UniqueID>  (77) 
72

>  <SMILES>  (77) 
CC(=O)c1c(O)[n-]c(=O)n(CCc2ccccc2)c1=O

>  <Energy>  (77) 
38.29096374308275

>  <Genealogy>  (77) 
CC(=O)c1c(O)[n-]c(=O)n(CCc2ccccc2)c1=O (protonated)
CC(=O)c1c(O)[n-]c(=O)n(CCc2ccccc2)c1=O (3D coordinates assigned)
CC(=O)c1c(O)[n-]c(=O)n(CCc2ccccc2)c1=O (optimized conformer: 38.29096374308275 kcal/mol)

>  <smiles>  (77) 
CC(=O)c1c(O)[nH]c(=O)n(CCc2ccccc2)c1=O

>  <score_type>  (77) 
oracle

>  <origin>  (77) 
adg

>  <m_score__min__energy>  (77) 
-9.4199999999999999

>  <m_primary>  (77) 
energy

$$$$
77:0
     RDKit          3D

 58 61  0  0  0  0  0  0  0  0999 V2000
   59.1600   34.9680   47.7230 C   0  0  0  0  0  0  0  0  0  0  0  0
   58.8000   34.1640   46.5100 C   0  0  0  0  0  0  0  0  0  0  0  0
   58.0070   33.0450   46.5780 C   0  0  0  0  0  0  0  0  0  0  0  0
   57.6970   32.3260   45.4200 C   0  0  0  0  0  0  0  0  0  0  0  0
   58.1620   32.7040   44.1920 C   0  0  0  0  0  0  0  0  0  0  0  0
   57.8330   31.8580   42.6690 S   0  0  0  0  0  0  0  0  0  0  0  0
   56.3810   30.8210   42.7450 C   0  0  0  0  0  0  0  0  0  0  0  0
   56.6300   29.3760   42.9960 C   0  0  0  0  0  0  0  0  0  0  0  0
   57.3680   29.1390   44.2700 C   0  0  0  0  0  0  0  0  0  0  0  0
   56.7970   29.1660   45.3940 O   0  0  0  0  0  0  0  0  0  0  0  0
   58.7650   28.8690   44.2750 N   0  0  0  0  0  0  0  0  0  0  0  0
   59.3540   28.6590   45.5710 C   0  0  0  0  0  0  0  0  0  0  0  0
   59.7910   27.3780   45.8840 C   0  0  0  0  0  0  0  0  0  0  0  0
   60.3480   27.1800   47.1230 C   0  0  0  0  0  0  0  0  0  0  0  0
   60.4720   28.2310   48.0380 C   0  0  0  0  0  0  0  0  0  0  0  0
   60.0500   29.4850   47.7440 C   0  0  0  0  0  0  0  0  0  0  0  0
   60.1210   30.6750   48.6150 C   0  0  0  0  0  0  0  0  0  0  0  0
   61.1370   31.6310   48.1200 C   0  0  0  0  0  0  0  0  0  0  0  0
   60.8990   32.2360   46.9400 N   0  0  0  0  0  0  0  0  0  0  0  0
   61.7650   33.0810   46.3910 N   0  0  0  0  0  0  0  0  0  0  0  0
   62.9440   33.3940   46.9690 C   0  0  0  0  0  0  0  0  0  0  0  0
   63.7790   34.1800   46.4830 O   0  0  0  0  0  0  0  0  0  0  0  0
   63.2430   32.8020   48.1820 C   0  0  0  0  0  0  0  0  0  0  0  0
   62.3170   31.9180   48.7460 C   0  0  0  0  0  0  0  0  0  0  0  0
   62.6940   31.3510   50.0660 C   0  0  0  0  0  0  0  0  0  0  0  0
   63.0450   32.5910   50.9160 C   0  0  0  0  0  0  0  0  0  0  0  0
   64.2200   33.3480   50.3630 C   0  0  0  0  0  0  0  0  0  0  0  0
   64.5080   33.0570   48.9210 C   0  0  0  0  0  0  0  0  0  0  0  0
   59.4820   29.6830   46.4800 C   0  0  0  0  0  0  0  0  0  0  0  0
   58.9590   33.8350   44.1360 C   0  0  0  0  0  0  0  0  0  0  0  0
   59.2700   34.5480   45.2730 C   0  0  0  0  0  0  0  0  0  0  0  0
   58.9051   34.3988   48.6291 H   0  0  0  0  0  0  0  0  0  0  0  0
   60.2392   35.1805   47.7150 H   0  0  0  0  0  0  0  0  0  0  0  0
   58.5998   35.9146   47.7150 H   0  0  0  0  0  0  0  0  0  0  0  0
   57.6133   32.7123   47.5498 H   0  0  0  0  0  0  0  0  0  0  0  0
   57.0615   31.4317   45.4995 H   0  0  0  0  0  0  0  0  0  0  0  0
   55.7387   31.1984   43.5543 H   0  0  0  0  0  0  0  0  0  0  0  0
   55.9219   30.8761   41.7469 H   0  0  0  0  0  0  0  0  0  0  0  0
   55.6628   28.8543   43.0458 H   0  0  0  0  0  0  0  0  0  0  0  0
   57.2517   28.9949   42.1725 H   0  0  0  0  0  0  0  0  0  0  0  0
   59.2970   28.8310   43.3950 H   0  0  0  0  0  0  0  0  0  0  0  0
   59.6941   26.5516   45.1645 H   0  0  0  0  0  0  0  0  0  0  0  0
   60.7032   26.1768   47.4014 H   0  0  0  0  0  0  0  0  0  0  0  0
   60.9237   28.0346   49.0216 H   0  0  0  0  0  0  0  0  0  0  0  0
   59.1384   31.1693   48.6305 H   0  0  0  0  0  0  0  0  0  0  0  0
   60.4047   30.3532   49.6279 H   0  0  0  0  0  0  0  0  0  0  0  0
   61.5240   33.5140   45.4820 H   0  0  0  0  0  0  0  0  0  0  0  0
   61.8526   30.7981   50.5092 H   0  0  0  0  0  0  0  0  0  0  0  0
   63.5255   30.6341   49.9980 H   0  0  0  0  0  0  0  0  0  0  0  0
   62.1729   33.2609   50.9413 H   0  0  0  0  0  0  0  0  0  0  0  0
   63.3136   32.2427   51.9242 H   0  0  0  0  0  0  0  0  0  0  0  0
   64.0172   34.4243   50.4650 H   0  0  0  0  0  0  0  0  0  0  0  0
   65.1032   33.0276   50.9352 H   0  0  0  0  0  0  0  0  0  0  0  0
   65.0223   33.9198   48.4726 H   0  0  0  0  0  0  0  0  0  0  0  0
   65.1454   32.1628   48.8574 H   0  0  0  0  0  0  0  0  0  0  0  0
   59.1275   30.6875   46.2057 H   0  0  0  0  0  0  0  0  0  0  0  0
   59.3514   34.1707   43.1647 H   0  0  0  0  0  0  0  0  0  0  0  0
   59.9062   35.4417   45.1917 H   0  0  0  0  0  0  0  0  0  0  0  0
  1  2  1  0
  2  3  2  0
  3  4  1  0
  4  5  2  0
  5  6  1  0
  6  7  1  0
  7  8  1  0
  8  9  1  0
  9 10  2  0
  9 11  1  0
 11 12  1  0
 12 13  2  0
 13 14  1  0
 14 15  2  0
 15 16  1  0
 16 17  1  0
 17 18  1  0
 18 19  2  0
 19 20  1  0
 20 21  1  0
 21 22  2  0
 21 23  1  0
 23 24  2  0
 24 25  1  0
 25 26  1  0
 26 27  1  0
 27 28  1  0
 16 29  2  0
  5 30  1  0
 30 31  2  0
 31  2  1  0
 29 12  1  0
 24 18  1  0
 28 23  1  0
  1 32  1  0
  1 33  1  0
  1 34  1  0
  3 35  1  0
  4 36  1  0
  7 37  1  0
  7 38  1  0
  8 39  1  0
  8 40  1  0
 11 41  1  0
 13 42  1  0
 14 43  1  0
 15 44  1  0
 17 45  1  0
 17 46  1  0
 20 47  1  0
 25 48  1  0
 25 49  1  0
 26 50  1  0
 26 51  1  0
 27 52  1  0
 27 53  1  0
 28 54  1  0
 28 55  1  0
 29 56  1  0
 30 57  1  0
 31 58  1  0
M  END
>  <smiles>  (78) 
Cc1ccc(SCCC(=O)Nc2cccc(Cc3n[nH]c(=O)c4c3CCCC4)c2)cc1

>  <score_type>  (78) 
oracle

>  <origin>  (78) 
adg

>  <m_score__min__energy>  (78) 
-10.369999999999999

>  <m_primary>  (78) 
energy

$$$$
78:0
     RDKit          3D

 53 56  0  0  0  0  0  0  0  0999 V2000
   57.7700   23.8650   44.1790 C   0  0  0  0  0  0  0  0  0  0  0  0
   57.2540   23.2890   45.4610 C   0  0  0  0  0  0  0  0  0  0  0  0
   57.6370   22.0870   45.9370 N   0  0  0  0  0  0  0  0  0  0  0  0
   57.0270   21.9120   47.0760 O   0  0  0  0  0  0  0  0  0  0  0  0
   56.2560   22.9360   47.3660 C   0  0  0  0  0  0  0  0  0  0  0  0
   55.4400   23.0460   48.6150 C   0  0  0  0  0  0  0  0  0  0  0  0
   56.3540   23.8660   46.3460 C   0  0  0  0  0  0  0  0  0  0  0  0
   55.6650   25.1710   46.2550 C   0  0  0  0  0  0  0  0  0  0  0  0
   54.4910   25.2140   45.8020 O   0  0  0  0  0  0  0  0  0  0  0  0
   56.2740   26.3900   46.7000 N   0  0  0  0  0  0  0  0  0  0  0  0
   57.6400   26.7890   46.5030 C   0  0  0  0  0  0  0  0  0  0  0  0
   58.7040   25.9230   46.8170 C   0  0  0  0  0  0  0  0  0  0  0  0
   60.0260   26.3100   46.5900 C   0  0  0  0  0  0  0  0  0  0  0  0
   60.3030   27.5520   46.0220 C   0  0  0  0  0  0  0  0  0  0  0  0
   59.2580   28.4080   45.6720 C   0  0  0  0  0  0  0  0  0  0  0  0
   57.9220   28.0350   45.9000 C   0  0  0  0  0  0  0  0  0  0  0  0
   56.8370   28.9600   45.5010 C   0  0  0  0  0  0  0  0  0  0  0  0
   55.6970   28.5000   45.2200 O   0  0  0  0  0  0  0  0  0  0  0  0
   57.0370   30.3790   45.4860 N   0  0  0  0  0  0  0  0  0  0  0  0
   57.3600   31.1560   44.3200 C   0  0  0  0  0  0  0  0  0  0  0  0
   56.8690   30.7980   43.0500 C   0  0  0  0  0  0  0  0  0  0  0  0
   57.1930   31.5660   41.9260 C   0  0  0  0  0  0  0  0  0  0  0  0
   57.9970   32.7020   42.0600 C   0  0  0  0  0  0  0  0  0  0  0  0
   58.4720   33.0780   43.3200 C   0  0  0  0  0  0  0  0  0  0  0  0
   58.1500   32.3130   44.4530 C   0  0  0  0  0  0  0  0  0  0  0  0
   58.6570   32.7010   45.7380 N   0  0  0  0  0  0  0  0  0  0  0  0
   59.4020   31.7000   46.5150 C   0  0  0  0  0  0  0  0  0  0  0  0
   60.0160   32.3000   47.7810 C   0  0  0  0  0  0  0  0  0  0  0  0
   59.1070   33.1740   48.4210 O   0  0  0  0  0  0  0  0  0  0  0  0
   58.9110   34.3110   47.6060 C   0  0  0  0  0  0  0  0  0  0  0  0
   58.1510   33.9430   46.3330 C   0  0  0  0  0  0  0  0  0  0  0  0
   58.4889   24.6675   44.4007 H   0  0  0  0  0  0  0  0  0  0  0  0
   58.2691   23.0761   43.5972 H   0  0  0  0  0  0  0  0  0  0  0  0
   56.9311   24.2746   43.5972 H   0  0  0  0  0  0  0  0  0  0  0  0
   56.0981   22.9573   49.4919 H   0  0  0  0  0  0  0  0  0  0  0  0
   54.9309   24.0209   48.6357 H   0  0  0  0  0  0  0  0  0  0  0  0
   54.6910   22.2407   48.6357 H   0  0  0  0  0  0  0  0  0  0  0  0
   58.4921   24.9322   47.2452 H   0  0  0  0  0  0  0  0  0  0  0  0
   60.8503   25.6335   46.8599 H   0  0  0  0  0  0  0  0  0  0  0  0
   61.3455   27.8577   45.8495 H   0  0  0  0  0  0  0  0  0  0  0  0
   59.4816   29.3828   45.2139 H   0  0  0  0  0  0  0  0  0  0  0  0
   56.2279   29.9108   42.9408 H   0  0  0  0  0  0  0  0  0  0  0  0
   56.8144   31.2754   40.9350 H   0  0  0  0  0  0  0  0  0  0  0  0
   58.2559   33.3001   41.1738 H   0  0  0  0  0  0  0  0  0  0  0  0
   59.0996   33.9754   43.4243 H   0  0  0  0  0  0  0  0  0  0  0  0
   58.7153   30.8902   46.8025 H   0  0  0  0  0  0  0  0  0  0  0  0
   60.2212   31.3216   45.8859 H   0  0  0  0  0  0  0  0  0  0  0  0
   60.2803   31.4866   48.4727 H   0  0  0  0  0  0  0  0  0  0  0  0
   60.9118   32.8724   47.4982 H   0  0  0  0  0  0  0  0  0  0  0  0
   58.3335   35.0609   48.1664 H   0  0  0  0  0  0  0  0  0  0  0  0
   59.8942   34.7160   47.3244 H   0  0  0  0  0  0  0  0  0  0  0  0
   57.0867   33.8128   46.5784 H   0  0  0  0  0  0  0  0  0  0  0  0
   58.2913   34.7543   45.6036 H   0  0  0  0  0  0  0  0  0  0  0  0
  1  2  1  0
  2  3  2  0
  3  4  1  0
  4  5  1  0
  5  6  1  0
  5  7  2  0
  7  8  1  0
  8  9  2  0
  8 10  1  0
 10 11  1  0
 11 12  2  0
 12 13  1  0
 13 14  2  0
 14 15  1  0
 15 16  2  0
 16 17  1  0
 17 18  2  0
 17 19  1  0
 19 20  1  0
 20 21  2  0
 21 22  1  0
 22 23  2  0
 23 24  1  0
 24 25  2  0
 25 26  1  0
 26 27  1  0
 27 28  1  0
 28 29  1  0
 29 30  1  0
 30 31  1  0
  7  2  1  0
 16 11  1  0
 25 20  1  0
 31 26  1  0
  1 32  1  0
  1 33  1  0
  1 34  1  0
  6 35  1  0
  6 36  1  0
  6 37  1  0
 12 38  1  0
 13 39  1  0
 14 40  1  0
 15 41  1  0
 21 42  1  0
 22 43  1  0
 23 44  1  0
 24 45  1  0
 27 46  1  0
 27 47  1  0
 28 48  1  0
 28 49  1  0
 30 50  1  0
 30 51  1  0
 31 52  1  0
 31 53  1  0
M  CHG  2  10  -1  19  -1
M  END
>  <UniqueID>  (79) 
73

>  <SMILES>  (79) 
Cc1noc(C)c1C(=O)[N-]c1ccccc1C(=O)[N-]c1ccccc1N1CCOCC1

>  <Energy>  (79) 
107.53813820368693

>  <Genealogy>  (79) 
Cc1noc(C)c1C(=O)[N-]c1ccccc1C(=O)[N-]c1ccccc1N1CCOCC1 (protonated)
Cc1noc(C)c1C(=O)[N-]c1ccccc1C(=O)[N-]c1ccccc1N1CCOCC1 (3D coordinates assigned)
Cc1noc(C)c1C(=O)[N-]c1ccccc1C(=O)[N-]c1ccccc1N1CCOCC1 (nonaromatic ring conformer: 107.53813820368693 kcal/mol)

>  <smiles>  (79) 
Cc1noc(C)c1C(=O)Nc1ccccc1C(=O)Nc1ccccc1N1CCOCC1

>  <score_type>  (79) 
oracle

>  <origin>  (79) 
adg

>  <m_score__min__energy>  (79) 
-12.74

>  <m_primary>  (79) 
energy

$$$$
79:0
     RDKit          3D

 46 48  0  0  0  0  0  0  0  0999 V2000
   61.7747   26.2765   47.1069 H   0  0  0  0  0  0  0  0  0  0  0  0
   60.7120   26.4610   47.3230 C   0  0  0  0  0  0  0  0  0  0  0  0
   59.6980   25.9600   46.3710 C   0  0  0  0  0  0  0  0  0  0  0  0
   59.8660   24.8160   45.8700 O   0  0  0  0  0  0  0  0  0  0  0  0
   58.4980   26.7370   45.9880 C   0  0  0  0  0  0  0  0  0  0  0  0
   58.6570   27.9550   45.3060 C   0  0  0  0  0  0  0  0  0  0  0  0
   59.6666   28.3175   45.0625 H   0  0  0  0  0  0  0  0  0  0  0  0
   57.5400   28.7090   44.9350 C   0  0  0  0  0  0  0  0  0  0  0  0
   57.6735   29.6565   44.3925 H   0  0  0  0  0  0  0  0  0  0  0  0
   56.2560   28.2630   45.2510 C   0  0  0  0  0  0  0  0  0  0  0  0
   55.1510   29.0170   44.8740 O   0  0  0  0  0  0  0  0  0  0  0  0
   56.0840   27.0630   45.9510 C   0  0  0  0  0  0  0  0  0  0  0  0
   54.8040   26.6280   46.2760 O   0  0  0  0  0  0  0  0  0  0  0  0
   57.2000   26.3030   46.3280 C   0  0  0  0  0  0  0  0  0  0  0  0
   57.0120   25.1330   47.0580 O   0  0  0  0  0  0  0  0  0  0  0  0
   60.3900   27.1310   48.4390 C   0  0  0  0  0  0  0  0  0  0  0  0
   60.3676   26.5750   49.3879 H   0  0  0  0  0  0  0  0  0  0  0  0
   60.0620   28.5780   48.4700 C   0  0  0  0  0  0  0  0  0  0  0  0
   59.0440   29.1050   49.2850 C   0  0  0  0  0  0  0  0  0  0  0  0
   58.4645   28.4350   49.9371 H   0  0  0  0  0  0  0  0  0  0  0  0
   58.7640   30.4730   49.2720 C   0  0  0  0  0  0  0  0  0  0  0  0
   57.9719   30.8741   49.9214 H   0  0  0  0  0  0  0  0  0  0  0  0
   59.4870   31.3420   48.4350 C   0  0  0  0  0  0  0  0  0  0  0  0
   59.2350   32.7240   48.3890 O   0  0  0  0  0  0  0  0  0  0  0  0
   58.1080   33.3440   47.7660 C   0  0  0  0  0  0  0  0  0  0  0  0
   57.1847   32.9186   48.1863 H   0  0  0  0  0  0  0  0  0  0  0  0
   58.1527   34.4266   47.9555 H   0  0  0  0  0  0  0  0  0  0  0  0
   58.1240   33.1140   46.2750 C   0  0  0  0  0  0  0  0  0  0  0  0
   57.4120   32.0320   45.7300 C   0  0  0  0  0  0  0  0  0  0  0  0
   56.8438   31.3632   46.3932 H   0  0  0  0  0  0  0  0  0  0  0  0
   57.4200   31.7990   44.3530 C   0  0  0  0  0  0  0  0  0  0  0  0
   56.8645   30.9452   43.9376 H   0  0  0  0  0  0  0  0  0  0  0  0
   58.1320   32.6480   43.5020 C   0  0  0  0  0  0  0  0  0  0  0  0
   58.1390   32.3520   41.7720 Cl  0  0  0  0  0  0  0  0  0  0  0  0
   58.8330   33.7350   44.0290 C   0  0  0  0  0  0  0  0  0  0  0  0
   59.3891   34.4049   43.3567 H   0  0  0  0  0  0  0  0  0  0  0  0
   58.8320   33.9770   45.4080 C   0  0  0  0  0  0  0  0  0  0  0  0
   59.7170   35.3740   46.0110 Cl  0  0  0  0  0  0  0  0  0  0  0  0
   60.4980   30.8270   47.6110 C   0  0  0  0  0  0  0  0  0  0  0  0
   61.2000   31.7180   46.7850 O   0  0  0  0  0  0  0  0  0  0  0  0
   62.2210   32.6040   47.2340 C   0  0  0  0  0  0  0  0  0  0  0  0
   62.2369   32.6178   48.3338 H   0  0  0  0  0  0  0  0  0  0  0  0
   63.1959   32.2608   46.8575 H   0  0  0  0  0  0  0  0  0  0  0  0
   62.0186   33.6175   46.8575 H   0  0  0  0  0  0  0  0  0  0  0  0
   60.7760   29.4460   47.6280 C   0  0  0  0  0  0  0  0  0  0  0  0
   61.5625   29.0424   46.9733 H   0  0  0  0  0  0  0  0  0  0  0  0
  1  2  1  0
  2  3  1  0
  3  4  2  0
  3  5  1  0
  5  6  2  0
  6  7  1  0
  6  8  1  0
  8  9  1  0
  8 10  2  0
 10 11  1  0
 10 12  1  0
 12 13  1  0
 12 14  2  0
 14 15  1  0
  2 16  2  0
 16 17  1  0
 16 18  1  0
 18 19  2  0
 19 20  1  0
 19 21  1  0
 21 22  1  0
 21 23  2  0
 23 24  1  0
 24 25  1  0
 25 26  1  0
 25 27  1  0
 25 28  1  0
 28 29  2  0
 29 30  1  0
 29 31  1  0
 31 32  1  0
 31 33  2  0
 33 34  1  0
 33 35  1  0
 35 36  1  0
 35 37  2  0
 37 38  1  0
 23 39  1  0
 39 40  1  0
 40 41  1  0
 41 42  1  0
 41 43  1  0
 41 44  1  0
 39 45  2  0
 45 46  1  0
 14  5  1  0
 45 18  1  0
 37 28  1  0
M  CHG  3  11  -1  13  -1  15  -1
M  END
>  <UniqueID>  (80) 
74

>  <SMILES>  (80) 
COc1cc(/C=C/C(=O)c2ccc([O-])c([O-])c2[O-])ccc1OCc1ccc(Cl)cc1Cl

>  <Energy>  (80) 
58.35154393011202

>  <Genealogy>  (80) 
COc1cc(C=CC(=O)c2ccc([O-])c([O-])c2[O-])ccc1OCc1ccc(Cl)cc1Cl (protonated)
COc1cc(/C=C/C(=O)c2ccc([O-])c([O-])c2[O-])ccc1OCc1ccc(Cl)cc1Cl (cis-trans isomerization)
COc1cc(/C=C/C(=O)c2ccc([O-])c([O-])c2[O-])ccc1OCc1ccc(Cl)cc1Cl (3D coordinates assigned)
COc1cc(/C=C/C(=O)c2ccc([O-])c([O-])c2[O-])ccc1OCc1ccc(Cl)cc1Cl (optimized conformer: 58.35154393011202 kcal/mol)

>  <smiles>  (80) 
COc1cc(C=CC(=O)c2ccc(O)c(O)c2O)ccc1OCc1ccc(Cl)cc1Cl

>  <score_type>  (80) 
oracle

>  <origin>  (80) 
adg

>  <m_score__min__energy>  (80) 
-18.25

>  <m_primary>  (80) 
energy

$$$$
80:0
     RDKit          3D

 44 46  0  0  0  0  0  0  0  0999 V2000
   54.8180   22.0700   47.3870 O   0  0  0  0  0  0  0  0  0  0  0  0
   55.5050   22.8820   46.7070 C   0  0  0  0  0  0  0  0  0  0  0  0
   55.8920   24.1510   47.2620 N   0  0  0  0  0  0  0  0  0  0  0  0
   56.2770   25.1970   46.5930 C   0  0  0  0  0  0  0  0  0  0  0  0
   55.4980   26.2700   46.3330 N   0  0  0  0  0  0  0  0  0  0  0  0
   56.1280   27.2110   45.6320 N   0  0  0  0  0  0  0  0  0  0  0  0
   57.4050   26.8850   45.3270 C   0  0  0  0  0  0  0  0  0  0  0  0
   58.3340   27.7910   44.5820 C   0  0  0  0  0  0  0  0  0  0  0  0
   57.5780   28.8890   43.8260 C   0  0  0  0  0  0  0  0  0  0  0  0
   56.5860   29.9120   44.9120 S   0  0  0  0  0  0  0  0  0  0  0  0
   57.0320   29.7030   46.3340 O   0  0  0  0  0  0  0  0  0  0  0  0
   55.1450   29.5020   44.7930 O   0  0  0  0  0  0  0  0  0  0  0  0
   56.7300   31.5900   44.4870 N   0  0  0  0  0  0  0  0  0  0  0  0
   58.1220   31.9160   44.1930 C   0  0  0  0  0  0  0  0  0  0  0  0
   58.5570   33.0540   45.0750 C   0  0  0  0  0  0  0  0  0  0  0  0
   59.1160   34.2060   44.4980 C   0  0  0  0  0  0  0  0  0  0  0  0
   59.4930   35.2870   45.3020 C   0  0  0  0  0  0  0  0  0  0  0  0
   59.3040   35.2300   46.6840 C   0  0  0  0  0  0  0  0  0  0  0  0
   58.7330   34.0960   47.2660 C   0  0  0  0  0  0  0  0  0  0  0  0
   58.3510   33.0070   46.4690 C   0  0  0  0  0  0  0  0  0  0  0  0
   57.7670   31.8850   47.0550 O   0  0  0  0  0  0  0  0  0  0  0  0
   57.8210   25.3720   45.9480 S   0  0  0  0  0  0  0  0  0  0  0  0
   55.9140   22.5240   45.3280 C   0  0  0  0  0  0  0  0  0  0  0  0
   56.7730   21.4330   45.0950 C   0  0  0  0  0  0  0  0  0  0  0  0
   57.1580   21.1000   43.7930 C   0  0  0  0  0  0  0  0  0  0  0  0
   56.6900   21.8490   42.7100 C   0  0  0  0  0  0  0  0  0  0  0  0
   55.8370   22.9330   42.9270 C   0  0  0  0  0  0  0  0  0  0  0  0
   55.4490   23.2710   44.2280 C   0  0  0  0  0  0  0  0  0  0  0  0
   59.0221   28.2623   45.2992 H   0  0  0  0  0  0  0  0  0  0  0  0
   58.8823   27.1856   43.8452 H   0  0  0  0  0  0  0  0  0  0  0  0
   58.3087   29.5285   43.3092 H   0  0  0  0  0  0  0  0  0  0  0  0
   56.8969   28.3973   43.1158 H   0  0  0  0  0  0  0  0  0  0  0  0
   58.7550   31.0373   44.3862 H   0  0  0  0  0  0  0  0  0  0  0  0
   58.2197   32.2071   43.1367 H   0  0  0  0  0  0  0  0  0  0  0  0
   59.2581   34.2585   43.4085 H   0  0  0  0  0  0  0  0  0  0  0  0
   59.9388   36.1827   44.8448 H   0  0  0  0  0  0  0  0  0  0  0  0
   59.6051   36.0791   47.3152 H   0  0  0  0  0  0  0  0  0  0  0  0
   58.5821   34.0568   48.3549 H   0  0  0  0  0  0  0  0  0  0  0  0
   57.0320   31.3640   46.5900 H   0  0  0  0  0  0  0  0  0  0  0  0
   57.1437   20.8387   45.9432 H   0  0  0  0  0  0  0  0  0  0  0  0
   57.8306   20.2468   43.6207 H   0  0  0  0  0  0  0  0  0  0  0  0
   56.9937   21.5846   41.6863 H   0  0  0  0  0  0  0  0  0  0  0  0
   55.4695   23.5221   42.0738 H   0  0  0  0  0  0  0  0  0  0  0  0
   54.7764   24.1257   44.3930 H   0  0  0  0  0  0  0  0  0  0  0  0
  1  2  2  0
  2  3  1  0
  3  4  2  3
  4  5  1  0
  5  6  1  0
  6  7  2  0
  7  8  1  0
  8  9  1  0
  9 10  1  0
 10 11  2  0
 10 12  2  0
 10 13  1  0
 13 14  1  0
 14 15  1  0
 15 16  2  0
 16 17  1  0
 17 18  2  0
 18 19  1  0
 19 20  2  0
 20 21  1  0
  7 22  1  0
  2 23  1  0
 23 24  2  0
 24 25  1  0
 25 26  2  0
 26 27  1  0
 27 28  2  0
 22  4  1  0
 28 23  1  0
 20 15  1  0
  8 29  1  0
  8 30  1  0
  9 31  1  0
  9 32  1  0
 14 33  1  0
 14 34  1  0
 16 35  1  0
 17 36  1  0
 18 37  1  0
 19 38  1  0
 21 39  1  0
 24 40  1  0
 25 41  1  0
 26 42  1  0
 27 43  1  0
 28 44  1  0
M  CHG  2   5  -1  13  -1
M  END
>  <UniqueID>  (81) 
75

>  <SMILES>  (81) 
O=C(N=c1[n-]nc(CCS(=O)(=O)[N-]Cc2ccccc2O)s1)c1ccccc1

>  <Energy>  (81) 
73.64514310154311

>  <Genealogy>  (81) 
O=C(N=c1[n-]nc(CCS(=O)(=O)[N-]Cc2ccccc2O)s1)c1ccccc1 (protonated)
O=C(N=c1[n-]nc(CCS(=O)(=O)[N-]Cc2ccccc2O)s1)c1ccccc1 (3D coordinates assigned)
O=C(N=c1[n-]nc(CCS(=O)(=O)[N-]Cc2ccccc2O)s1)c1ccccc1 (optimized conformer: 73.64514310154311 kcal/mol)

>  <smiles>  (81) 
O=C(N=c1[nH]nc(CCS(=O)(=O)NCc2ccccc2O)s1)c1ccccc1

>  <score_type>  (81) 
oracle

>  <origin>  (81) 
adg

>  <m_score__min__energy>  (81) 
-12.109999999999999

>  <m_primary>  (81) 
energy

$$$$
81:0
     RDKit          3D

 50 51  0  0  0  0  0  0  0  0999 V2000
   54.3870   23.5820   45.4680 C   0  0  0  0  0  0  0  0  0  0  0  0
   54.7700   24.4060   46.5460 O   0  0  0  0  0  0  0  0  0  0  0  0
   55.8300   23.7940   47.2470 C   0  0  0  0  0  0  0  0  0  0  0  0
   56.8690   24.8540   47.6020 C   0  0  0  0  0  0  0  0  0  0  0  0
   57.4400   25.4670   46.3880 N   0  0  0  0  0  0  0  0  0  0  0  0
   58.4710   24.7130   45.6560 C   0  0  0  0  0  0  0  0  0  0  0  0
   57.8340   23.6560   44.7790 C   0  0  0  0  0  0  0  0  0  0  0  0
   57.9200   22.3160   45.2030 C   0  0  0  0  0  0  0  0  0  0  0  0
   57.3610   21.2890   44.4410 C   0  0  0  0  0  0  0  0  0  0  0  0
   56.7130   21.5810   43.2430 C   0  0  0  0  0  0  0  0  0  0  0  0
   56.6240   22.9010   42.8020 C   0  0  0  0  0  0  0  0  0  0  0  0
   57.1810   23.9460   43.5500 C   0  0  0  0  0  0  0  0  0  0  0  0
   57.0590   25.2390   43.0330 O   0  0  0  0  0  0  0  0  0  0  0  0
   56.7510   26.5870   45.7790 C   0  0  0  0  0  0  0  0  0  0  0  0
   55.5180   26.7430   45.9820 O   0  0  0  0  0  0  0  0  0  0  0  0
   57.4060   27.5080   44.8920 N   0  0  0  0  0  0  0  0  0  0  0  0
   57.5470   28.9290   45.0540 C   0  0  0  0  0  0  0  0  0  0  0  0
   56.9870   29.8460   44.1300 C   0  0  0  0  0  0  0  0  0  0  0  0
   56.2700   29.3970   42.8880 C   0  0  0  0  0  0  0  0  0  0  0  0
   57.0950   31.2240   44.3720 C   0  0  0  0  0  0  0  0  0  0  0  0
   57.8090   31.7050   45.4750 C   0  0  0  0  0  0  0  0  0  0  0  0
   57.8840   33.1800   45.7420 C   0  0  0  0  0  0  0  0  0  0  0  0
   58.4040   30.7980   46.3590 C   0  0  0  0  0  0  0  0  0  0  0  0
   58.3060   29.4170   46.1410 C   0  0  0  0  0  0  0  0  0  0  0  0
   58.9240   28.4740   47.1390 C   0  0  0  0  0  0  0  0  0  0  0  0
   53.9532   22.6486   45.8560 H   0  0  0  0  0  0  0  0  0  0  0  0
   53.6400   24.1058   44.8534 H   0  0  0  0  0  0  0  0  0  0  0  0
   55.2690   23.3487   44.8534 H   0  0  0  0  0  0  0  0  0  0  0  0
   55.4449   23.3322   48.1681 H   0  0  0  0  0  0  0  0  0  0  0  0
   56.2912   23.0175   46.6191 H   0  0  0  0  0  0  0  0  0  0  0  0
   56.3904   25.6370   48.2085 H   0  0  0  0  0  0  0  0  0  0  0  0
   57.6818   24.3713   48.1644 H   0  0  0  0  0  0  0  0  0  0  0  0
   59.0475   25.4064   45.0261 H   0  0  0  0  0  0  0  0  0  0  0  0
   59.1335   24.2198   46.3825 H   0  0  0  0  0  0  0  0  0  0  0  0
   58.4336   22.0759   46.1456 H   0  0  0  0  0  0  0  0  0  0  0  0
   57.4322   20.2473   44.7870 H   0  0  0  0  0  0  0  0  0  0  0  0
   56.2715   20.7703   42.6448 H   0  0  0  0  0  0  0  0  0  0  0  0
   56.1102   23.1242   41.8553 H   0  0  0  0  0  0  0  0  0  0  0  0
   56.6660   26.0220   43.5340 H   0  0  0  0  0  0  0  0  0  0  0  0
   55.3686   28.8325   43.1688 H   0  0  0  0  0  0  0  0  0  0  0  0
   55.9816   30.2761   42.2930 H   0  0  0  0  0  0  0  0  0  0  0  0
   56.9350   28.7537   42.2930 H   0  0  0  0  0  0  0  0  0  0  0  0
   56.6121   31.9352   43.6857 H   0  0  0  0  0  0  0  0  0  0  0  0
   57.8930   33.3561   46.8278 H   0  0  0  0  0  0  0  0  0  0  0  0
   58.8040   33.5869   45.2970 H   0  0  0  0  0  0  0  0  0  0  0  0
   57.0100   33.6781   45.2970 H   0  0  0  0  0  0  0  0  0  0  0  0
   58.9545   31.1729   47.2344 H   0  0  0  0  0  0  0  0  0  0  0  0
   58.6977   28.8193   48.1586 H   0  0  0  0  0  0  0  0  0  0  0  0
   58.5117   27.4646   46.9938 H   0  0  0  0  0  0  0  0  0  0  0  0
   60.0141   28.4492   46.9938 H   0  0  0  0  0  0  0  0  0  0  0  0
  1  2  1  0
  2  3  1  0
  3  4  1  0
  4  5  1  0
  5  6  1  0
  6  7  1  0
  7  8  2  0
  8  9  1  0
  9 10  2  0
 10 11  1  0
 11 12  2  0
 12 13  1  0
  5 14  1  0
 14 15  2  0
 14 16  1  0
 16 17  1  0
 17 18  2  0
 18 19  1  0
 18 20  1  0
 20 21  2  0
 21 22  1  0
 21 23  1  0
 23 24  2  0
 24 25  1  0
 12  7  1  0
 24 17  1  0
  1 26  1  0
  1 27  1  0
  1 28  1  0
  3 29  1  0
  3 30  1  0
  4 31  1  0
  4 32  1  0
  6 33  1  0
  6 34  1  0
  8 35  1  0
  9 36  1  0
 10 37  1  0
 11 38  1  0
 13 39  1  0
 19 40  1  0
 19 41  1  0
 19 42  1  0
 20 43  1  0
 22 44  1  0
 22 45  1  0
 22 46  1  0
 23 47  1  0
 25 48  1  0
 25 49  1  0
 25 50  1  0
M  CHG  1  16  -1
M  END
>  <UniqueID>  (82) 
76

>  <SMILES>  (82) 
COCCN(Cc1ccccc1O)C(=O)[N-]c1c(C)cc(C)cc1C

>  <Energy>  (82) 
58.06379296036008

>  <Genealogy>  (82) 
COCCN(Cc1ccccc1O)C(=O)[N-]c1c(C)cc(C)cc1C (protonated)
COCCN(Cc1ccccc1O)C(=O)[N-]c1c(C)cc(C)cc1C (3D coordinates assigned)
COCCN(Cc1ccccc1O)C(=O)[N-]c1c(C)cc(C)cc1C (optimized conformer: 58.06379296036008 kcal/mol)

>  <smiles>  (82) 
COCCN(Cc1ccccc1O)C(=O)Nc1c(C)cc(C)cc1C

>  <score_type>  (82) 
oracle

>  <origin>  (82) 
adg

>  <m_score__min__energy>  (82) 
-9.8900000000000006

>  <m_primary>  (82) 
energy

$$$$
82:0
     RDKit          3D

 32 33  0  0  0  0  0  0  0  0999 V2000
   61.1410   26.8550   49.0400 O   0  0  0  0  0  0  0  0  0  0  0  0
   60.3470   27.4410   48.2570 C   0  0  0  0  0  0  0  0  0  0  0  0
   59.8240   26.7220   47.1320 N   0  0  0  0  0  0  0  0  0  0  0  0
   58.4400   26.6490   46.7600 C   0  0  0  0  0  0  0  0  0  0  0  0
   57.6930   25.5270   47.1400 C   0  0  0  0  0  0  0  0  0  0  0  0
   56.3450   25.4200   46.7790 C   0  0  0  0  0  0  0  0  0  0  0  0
   55.7410   26.4270   46.0200 C   0  0  0  0  0  0  0  0  0  0  0  0
   54.4020   26.3210   45.6630 O   0  0  0  0  0  0  0  0  0  0  0  0
   56.4860   27.5380   45.6140 C   0  0  0  0  0  0  0  0  0  0  0  0
   57.8330   27.6460   45.9720 C   0  0  0  0  0  0  0  0  0  0  0  0
   59.9440   28.8310   48.5340 C   0  0  0  0  0  0  0  0  0  0  0  0
   59.8300   29.2160   49.7300 O   0  0  0  0  0  0  0  0  0  0  0  0
   59.6600   29.7340   47.4580 N   0  0  0  0  0  0  0  0  0  0  0  0
   58.8990   30.9650   47.6630 C   0  0  0  0  0  0  0  0  0  0  0  0
   58.4850   31.5520   46.3340 C   0  0  0  0  0  0  0  0  0  0  0  0
   58.0170   30.7000   45.3180 C   0  0  0  0  0  0  0  0  0  0  0  0
   57.6870   31.2100   44.0600 C   0  0  0  0  0  0  0  0  0  0  0  0
   57.8210   32.5750   43.8020 C   0  0  0  0  0  0  0  0  0  0  0  0
   58.2850   33.4330   44.8000 C   0  0  0  0  0  0  0  0  0  0  0  0
   58.6210   32.9330   46.0650 C   0  0  0  0  0  0  0  0  0  0  0  0
   59.2660   34.1710   47.3810 Br  0  0  0  0  0  0  0  0  0  0  0  0
   58.1681   24.7258   47.7251 H   0  0  0  0  0  0  0  0  0  0  0  0
   55.7601   24.5428   47.0927 H   0  0  0  0  0  0  0  0  0  0  0  0
   56.0121   28.3277   45.0125 H   0  0  0  0  0  0  0  0  0  0  0  0
   58.4211   28.5131   45.6369 H   0  0  0  0  0  0  0  0  0  0  0  0
   59.9130   29.4640   46.4810 H   0  0  0  0  0  0  0  0  0  0  0  0
   58.0004   30.7417   48.2569 H   0  0  0  0  0  0  0  0  0  0  0  0
   59.5305   31.6921   48.1946 H   0  0  0  0  0  0  0  0  0  0  0  0
   57.9099   29.6232   45.5154 H   0  0  0  0  0  0  0  0  0  0  0  0
   57.3212   30.5351   43.2721 H   0  0  0  0  0  0  0  0  0  0  0  0
   57.5606   32.9750   42.8109 H   0  0  0  0  0  0  0  0  0  0  0  0
   58.3876   34.5083   44.5923 H   0  0  0  0  0  0  0  0  0  0  0  0
  1  2  2  0
  2  3  1  0
  3  4  1  0
  4  5  2  0
  5  6  1  0
  6  7  2  0
  7  8  1  0
  7  9  1  0
  9 10  2  0
  2 11  1  0
 11 12  2  0
 11 13  1  0
 13 14  1  0
 14 15  1  0
 15 16  2  0
 16 17  1  0
 17 18  2  0
 18 19  1  0
 19 20  2  0
 20 21  1  0
 10  4  1  0
 20 15  1  0
  5 22  1  0
  6 23  1  0
  9 24  1  0
 10 25  1  0
 13 26  1  0
 14 27  1  0
 14 28  1  0
 16 29  1  0
 17 30  1  0
 18 31  1  0
 19 32  1  0
M  CHG  2   3  -1   8  -1
M  END
>  <UniqueID>  (83) 
77

>  <SMILES>  (83) 
O=C([N-]c1ccc([O-])cc1)C(=O)NCc1ccccc1Br

>  <Energy>  (83) 
34.918093932124826

>  <Genealogy>  (83) 
O=C([N-]c1ccc([O-])cc1)C(=O)NCc1ccccc1Br (protonated)
O=C([N-]c1ccc([O-])cc1)C(=O)NCc1ccccc1Br (3D coordinates assigned)
O=C([N-]c1ccc([O-])cc1)C(=O)NCc1ccccc1Br (optimized conformer: 34.918093932124826 kcal/mol)

>  <smiles>  (83) 
O=C(NCc1ccccc1Br)C(=O)Nc1ccc(O)cc1

>  <score_type>  (83) 
oracle

>  <origin>  (83) 
adg

>  <m_score__min__energy>  (83) 
-11.15

>  <m_primary>  (83) 
energy

$$$$
83:0
     RDKit          3D

 56 59  0  0  0  0  0  0  0  0999 V2000
   58.4820   25.9170   48.1950 O   0  0  0  0  0  0  0  0  0  0  0  0
   59.6620   26.3360   48.0510 C   0  0  0  0  0  0  0  0  0  0  0  0
   60.3090   26.2400   46.7000 C   0  0  0  0  0  0  0  0  0  0  0  0
   59.0630   25.7710   45.4480 S   0  0  0  0  0  0  0  0  0  0  0  0
   58.3940   27.4220   45.2890 C   0  0  0  0  0  0  0  0  0  0  0  0
   59.2180   28.5000   45.3510 N   0  0  0  0  0  0  0  0  0  0  0  0
   58.7210   29.7630   45.2930 C   0  0  0  0  0  0  0  0  0  0  0  0
   59.5090   30.7440   45.3590 O   0  0  0  0  0  0  0  0  0  0  0  0
   57.3400   29.9680   45.1840 C   0  0  0  0  0  0  0  0  0  0  0  0
   56.8140   31.3050   45.1710 N   0  0  0  0  0  0  0  0  0  0  0  0
   57.4450   32.4540   44.5870 C   0  0  0  0  0  0  0  0  0  0  0  0
   57.3910   32.5960   43.3360 O   0  0  0  0  0  0  0  0  0  0  0  0
   58.1880   33.4510   45.4000 C   0  0  0  0  0  0  0  0  0  0  0  0
   58.1190   33.4040   46.8050 C   0  0  0  0  0  0  0  0  0  0  0  0
   58.8180   34.3350   47.5800 C   0  0  0  0  0  0  0  0  0  0  0  0
   59.5820   35.3270   46.9640 C   0  0  0  0  0  0  0  0  0  0  0  0
   59.6400   35.3980   45.5700 C   0  0  0  0  0  0  0  0  0  0  0  0
   58.9440   34.4700   44.7890 C   0  0  0  0  0  0  0  0  0  0  0  0
   56.5140   28.8370   45.0600 C   0  0  0  0  0  0  0  0  0  0  0  0
   55.1490   28.9680   44.8430 O   0  0  0  0  0  0  0  0  0  0  0  0
   57.0580   27.5950   45.1300 N   0  0  0  0  0  0  0  0  0  0  0  0
   60.3090   26.9740   49.1590 N   0  0  0  0  0  0  0  0  0  0  0  0
   60.4030   28.3870   49.3780 C   0  0  0  0  0  0  0  0  0  0  0  0
   61.3680   28.8770   50.2660 C   0  0  0  0  0  0  0  0  0  0  0  0
   61.4990   30.2510   50.4770 C   0  0  0  0  0  0  0  0  0  0  0  0
   60.6840   31.1540   49.7820 C   0  0  0  0  0  0  0  0  0  0  0  0
   60.8690   32.8910   50.0320 S   0  0  0  0  0  0  0  0  0  0  0  0
   61.6280   33.1170   51.3090 O   0  0  0  0  0  0  0  0  0  0  0  0
   59.5130   33.5170   50.1880 O   0  0  0  0  0  0  0  0  0  0  0  0
   61.7160   33.6750   48.7130 N   0  0  0  0  0  0  0  0  0  0  0  0
   63.0640   34.1470   49.1000 C   0  0  0  0  0  0  0  0  0  0  0  0
   64.1870   33.2290   48.5930 C   0  0  0  0  0  0  0  0  0  0  0  0
   63.7340   31.9000   48.5050 O   0  0  0  0  0  0  0  0  0  0  0  0
   62.8020   31.7820   47.4480 C   0  0  0  0  0  0  0  0  0  0  0  0
   61.7040   32.8720   47.4760 C   0  0  0  0  0  0  0  0  0  0  0  0
   59.7320   30.6680   48.8760 C   0  0  0  0  0  0  0  0  0  0  0  0
   59.6000   29.2920   48.6640 C   0  0  0  0  0  0  0  0  0  0  0  0
   60.7450   27.2142   46.4340 H   0  0  0  0  0  0  0  0  0  0  0  0
   61.0994   25.4755   46.7296 H   0  0  0  0  0  0  0  0  0  0  0  0
   57.5114   32.6300   47.2967 H   0  0  0  0  0  0  0  0  0  0  0  0
   58.7654   34.2852   48.6776 H   0  0  0  0  0  0  0  0  0  0  0  0
   60.1382   36.0526   47.5756 H   0  0  0  0  0  0  0  0  0  0  0  0
   60.2349   36.1862   45.0853 H   0  0  0  0  0  0  0  0  0  0  0  0
   58.9873   34.5363   43.6919 H   0  0  0  0  0  0  0  0  0  0  0  0
   62.0263   28.1761   50.8002 H   0  0  0  0  0  0  0  0  0  0  0  0
   62.2457   30.6262   51.1923 H   0  0  0  0  0  0  0  0  0  0  0  0
   63.2172   35.1529   48.6819 H   0  0  0  0  0  0  0  0  0  0  0  0
   63.1102   34.1493   50.1990 H   0  0  0  0  0  0  0  0  0  0  0  0
   64.5103   33.5680   47.5978 H   0  0  0  0  0  0  0  0  0  0  0  0
   65.0287   33.2723   49.2999 H   0  0  0  0  0  0  0  0  0  0  0  0
   63.3445   31.8573   46.4941 H   0  0  0  0  0  0  0  0  0  0  0  0
   62.2996   30.8103   47.5634 H   0  0  0  0  0  0  0  0  0  0  0  0
   61.8578   33.5456   46.6201 H   0  0  0  0  0  0  0  0  0  0  0  0
   60.7320   32.3592   47.4278 H   0  0  0  0  0  0  0  0  0  0  0  0
   59.0862   31.3712   48.3296 H   0  0  0  0  0  0  0  0  0  0  0  0
   58.8653   28.9172   47.9361 H   0  0  0  0  0  0  0  0  0  0  0  0
  1  2  2  0
  2  3  1  0
  3  4  1  0
  4  5  1  0
  5  6  2  0
  6  7  1  0
  7  8  2  0
  7  9  1  0
  9 10  1  0
 10 11  1  0
 11 12  2  0
 11 13  1  0
 13 14  2  0
 14 15  1  0
 15 16  2  0
 16 17  1  0
 17 18  2  0
  9 19  2  0
 19 20  1  0
 19 21  1  0
  2 22  1  0
 22 23  1  0
 23 24  2  0
 24 25  1  0
 25 26  2  0
 26 27  1  0
 27 28  2  0
 27 29  2  0
 27 30  1  0
 30 31  1  0
 31 32  1  0
 32 33  1  0
 33 34  1  0
 34 35  1  0
 26 36  1  0
 36 37  2  0
 21  5  1  0
 37 23  1  0
 18 13  1  0
 35 30  1  0
  3 38  1  0
  3 39  1  0
 14 40  1  0
 15 41  1  0
 16 42  1  0
 17 43  1  0
 18 44  1  0
 24 45  1  0
 25 46  1  0
 31 47  1  0
 31 48  1  0
 32 49  1  0
 32 50  1  0
 34 51  1  0
 34 52  1  0
 35 53  1  0
 35 54  1  0
 36 55  1  0
 37 56  1  0
M  CHG  4  10  -1  20  -1  21  -1  22  -1
M  END
>  <UniqueID>  (84) 
78

>  <SMILES>  (84) 
O=C(CSc1nc(=O)c([N-]C(=O)c2ccccc2)c([O-])[n-]1)[N-]c1ccc(S(=O)(=O)N2CCOCC2)cc1

>  <Energy>  (84) 
76.46825267479434

>  <Genealogy>  (84) 
O=C(CSc1nc(=O)c([N-]C(=O)c2ccccc2)c([O-])[n-]1)[N-]c1ccc(S(=O)(=O)N2CCOCC2)cc1 (protonated)
O=C(CSc1nc(=O)c([N-]C(=O)c2ccccc2)c([O-])[n-]1)[N-]c1ccc(S(=O)(=O)N2CCOCC2)cc1 (3D coordinates assigned)
O=C(CSc1nc(=O)c([N-]C(=O)c2ccccc2)c([O-])[n-]1)[N-]c1ccc(S(=O)(=O)N2CCOCC2)cc1 (nonaromatic ring conformer: 76.46825267479434 kcal/mol)

>  <smiles>  (84) 
O=C(CSc1nc(=O)c(NC(=O)c2ccccc2)c(O)[nH]1)Nc1ccc(S(=O)(=O)N2CCOCC2)cc1

>  <score_type>  (84) 
oracle

>  <origin>  (84) 
adg

>  <m_score__min__energy>  (84) 
-19.239999999999998

>  <m_primary>  (84) 
energy

$$$$
84:0
     RDKit          3D

 71 74  0  0  0  0  0  0  0  0999 V2000
   63.3130   33.8380   46.2880 C   0  0  0  0  0  0  0  0  0  0  0  0
   63.3470   33.1880   47.6410 C   0  0  0  0  0  0  0  0  0  0  0  0
   63.0710   33.8340   48.7800 C   0  0  0  0  0  0  0  0  0  0  0  0
   62.1680   33.2880   49.8220 C   0  0  0  0  0  0  0  0  0  0  0  0
   60.8620   33.5690   49.9360 C   0  0  0  0  0  0  0  0  0  0  0  0
   59.7870   33.1730   48.9960 C   0  0  0  0  0  0  0  0  0  0  0  0
   58.6500   32.8210   49.4150 O   0  0  0  0  0  0  0  0  0  0  0  0
   60.0630   33.1810   47.5880 N   0  0  0  0  0  0  0  0  0  0  0  0
   59.3220   32.4030   46.6270 C   0  0  0  0  0  0  0  0  0  0  0  0
   59.4590   31.0000   46.6060 C   0  0  0  0  0  0  0  0  0  0  0  0
   58.8180   30.2350   45.6250 C   0  0  0  0  0  0  0  0  0  0  0  0
   58.9560   28.8460   45.5730 C   0  0  0  0  0  0  0  0  0  0  0  0
   58.3380   28.1140   44.5500 C   0  0  0  0  0  0  0  0  0  0  0  0
   58.6010   26.6180   44.4510 C   0  0  0  0  0  0  0  0  0  0  0  0
   57.3520   25.7720   44.5570 C   0  0  0  0  0  0  0  0  0  0  0  0
   57.0310   24.8840   43.5180 C   0  0  0  0  0  0  0  0  0  0  0  0
   55.8880   24.0890   43.5920 C   0  0  0  0  0  0  0  0  0  0  0  0
   55.0400   24.1580   44.7070 C   0  0  0  0  0  0  0  0  0  0  0  0
   53.8230   23.3120   44.7690 C   0  0  0  0  0  0  0  0  0  0  0  0
   52.8390   23.5610   44.0160 O   0  0  0  0  0  0  0  0  0  0  0  0
   53.7760   22.1970   45.6690 N   0  0  0  0  0  0  0  0  0  0  0  0
   55.1270   21.5440   46.5420 S   0  0  0  0  0  0  0  0  0  0  0  0
   55.3010   22.3160   47.8180 O   0  0  0  0  0  0  0  0  0  0  0  0
   54.8370   20.1080   46.8900 O   0  0  0  0  0  0  0  0  0  0  0  0
   56.6290   21.6450   45.6170 C   0  0  0  0  0  0  0  0  0  0  0  0
   56.7200   21.0400   44.3530 C   0  0  0  0  0  0  0  0  0  0  0  0
   57.9030   21.1410   43.6150 C   0  0  0  0  0  0  0  0  0  0  0  0
   58.9970   21.8430   44.1280 C   0  0  0  0  0  0  0  0  0  0  0  0
   60.1400   21.9360   43.4070 F   0  0  0  0  0  0  0  0  0  0  0  0
   58.9120   22.4440   45.3890 C   0  0  0  0  0  0  0  0  0  0  0  0
   57.7310   22.3470   46.1330 C   0  0  0  0  0  0  0  0  0  0  0  0
   55.3640   25.0380   45.7550 C   0  0  0  0  0  0  0  0  0  0  0  0
   56.5190   25.8500   45.6890 C   0  0  0  0  0  0  0  0  0  0  0  0
   56.8640   26.7380   46.7250 O   0  0  0  0  0  0  0  0  0  0  0  0
   58.0370   26.6320   47.5280 C   0  0  0  0  0  0  0  0  0  0  0  0
   57.6060   28.8350   43.5790 C   0  0  0  0  0  0  0  0  0  0  0  0
   57.0750   28.2480   42.6030 O   0  0  0  0  0  0  0  0  0  0  0  0
   57.4690   30.1530   43.6790 O   0  0  0  0  0  0  0  0  0  0  0  0
   58.0340   30.8670   44.6450 C   0  0  0  0  0  0  0  0  0  0  0  0
   57.8640   32.2520   44.6760 C   0  0  0  0  0  0  0  0  0  0  0  0
   58.5130   33.0370   45.6470 C   0  0  0  0  0  0  0  0  0  0  0  0
   58.2890   34.5360   45.6370 C   0  0  0  0  0  0  0  0  0  0  0  0
   59.6190   35.2870   45.5450 C   0  0  0  0  0  0  0  0  0  0  0  0
   63.2559   34.9300   46.4072 H   0  0  0  0  0  0  0  0  0  0  0  0
   64.2260   33.5770   45.7328 H   0  0  0  0  0  0  0  0  0  0  0  0
   62.4322   33.4832   45.7328 H   0  0  0  0  0  0  0  0  0  0  0  0
   63.6134   32.1223   47.6992 H   0  0  0  0  0  0  0  0  0  0  0  0
   63.5358   34.8161   48.9514 H   0  0  0  0  0  0  0  0  0  0  0  0
   62.6041   32.5981   50.5595 H   0  0  0  0  0  0  0  0  0  0  0  0
   60.5574   34.1530   50.8170 H   0  0  0  0  0  0  0  0  0  0  0  0
   60.8240   33.8100   47.2560 H   0  0  0  0  0  0  0  0  0  0  0  0
   60.0759   30.5017   47.3683 H   0  0  0  0  0  0  0  0  0  0  0  0
   59.5515   28.3251   46.3372 H   0  0  0  0  0  0  0  0  0  0  0  0
   59.0779   26.4128   43.4812 H   0  0  0  0  0  0  0  0  0  0  0  0
   59.2447   26.3482   45.3012 H   0  0  0  0  0  0  0  0  0  0  0  0
   57.6871   24.8149   42.6378 H   0  0  0  0  0  0  0  0  0  0  0  0
   55.6490   23.4009   42.7678 H   0  0  0  0  0  0  0  0  0  0  0  0
   55.8614   20.4872   43.9440 H   0  0  0  0  0  0  0  0  0  0  0  0
   57.9730   20.6655   42.6256 H   0  0  0  0  0  0  0  0  0  0  0  0
   59.7742   22.9930   45.7955 H   0  0  0  0  0  0  0  0  0  0  0  0
   57.6653   22.8211   47.1234 H   0  0  0  0  0  0  0  0  0  0  0  0
   54.7100   25.0951   46.6376 H   0  0  0  0  0  0  0  0  0  0  0  0
   57.7569   26.6573   48.5914 H   0  0  0  0  0  0  0  0  0  0  0  0
   58.5488   25.6839   47.3061 H   0  0  0  0  0  0  0  0  0  0  0  0
   58.7105   27.4729   47.3061 H   0  0  0  0  0  0  0  0  0  0  0  0
   57.2144   32.7361   43.9319 H   0  0  0  0  0  0  0  0  0  0  0  0
   57.6652   34.8010   44.7706 H   0  0  0  0  0  0  0  0  0  0  0  0
   57.7881   34.8224   46.5735 H   0  0  0  0  0  0  0  0  0  0  0  0
   59.9920   35.4976   46.5582 H   0  0  0  0  0  0  0  0  0  0  0  0
   60.3522   34.6696   45.0053 H   0  0  0  0  0  0  0  0  0  0  0  0
   59.4689   36.2337   45.0053 H   0  0  0  0  0  0  0  0  0  0  0  0
  1  2  1  0
  2  3  2  3
  3  4  1  0
  4  5  2  3
  5  6  1  0
  6  7  2  0
  6  8  1  0
  8  9  1  0
  9 10  2  0
 10 11  1  0
 11 12  1  0
 12 13  2  0
 13 14  1  0
 14 15  1  0
 15 16  2  0
 16 17  1  0
 17 18  2  0
 18 19  1  0
 19 20  2  0
 19 21  1  0
 21 22  1  0
 22 23  2  0
 22 24  2  0
 22 25  1  0
 25 26  2  0
 26 27  1  0
 27 28  2  0
 28 29  1  0
 28 30  1  0
 30 31  2  0
 18 32  1  0
 32 33  2  0
 33 34  1  0
 34 35  1  0
 13 36  1  0
 36 37  2  0
 36 38  1  0
 38 39  1  0
 39 40  1  0
 40 41  2  0
 41 42  1  0
 42 43  1  0
 41  9  1  0
 39 11  2  0
 33 15  1  0
 31 25  1  0
  1 44  1  0
  1 45  1  0
  1 46  1  0
  2 47  1  0
  3 48  1  0
  4 49  1  0
  5 50  1  0
  8 51  1  0
 10 52  1  0
 12 53  1  0
 14 54  1  0
 14 55  1  0
 16 56  1  0
 17 57  1  0
 26 58  1  0
 27 59  1  0
 30 60  1  0
 31 61  1  0
 32 62  1  0
 35 63  1  0
 35 64  1  0
 35 65  1  0
 40 66  1  0
 42 67  1  0
 42 68  1  0
 43 69  1  0
 43 70  1  0
 43 71  1  0
M  CHG  1  21  -1
M  END
>  <UniqueID>  (85) 
79

>  <SMILES>  (85) 
CC=CC=CC(=O)Nc1cc2cc(Cc3ccc(C(=O)[N-]S(=O)(=O)c4ccc(F)cc4)cc3OC)c(=O)oc2cc1CC

>  <Energy>  (85) 
90.29699828368781

>  <Genealogy>  (85) 
CC=CC=CC(=O)Nc1cc2cc(Cc3ccc(C(=O)[N-]S(=O)(=O)c4ccc(F)cc4)cc3OC)c(=O)oc2cc1CC (protonated)
CC=CC=CC(=O)Nc1cc2cc(Cc3ccc(C(=O)[N-]S(=O)(=O)c4ccc(F)cc4)cc3OC)c(=O)oc2cc1CC (3D coordinates assigned)
CC=CC=CC(=O)Nc1cc2cc(Cc3ccc(C(=O)[N-]S(=O)(=O)c4ccc(F)cc4)cc3OC)c(=O)oc2cc1CC (optimized conformer: 90.29699828368781 kcal/mol)

>  <smiles>  (85) 
CC=CC=CC(=O)Nc1cc2cc(Cc3ccc(C(=O)NS(=O)(=O)c4ccc(F)cc4)cc3OC)c(=O)oc2cc1CC

>  <score_type>  (85) 
oracle

>  <origin>  (85) 
adg

>  <m_score__min__energy>  (85) 
-11.98

>  <m_primary>  (85) 
energy

$$$$
85:0
     RDKit          3D

 50 52  0  0  1  0  0  0  0  0999 V2000
   53.0570   31.1740   51.6020 C   0  0  0  0  0  0  0  0  0  0  0  0
   54.4990   30.9680   51.6230 N   0  0  0  0  0  0  0  0  0  0  0  0
   55.0550   30.1830   52.6970 C   0  0  0  0  0  0  0  0  0  0  0  0
   54.2970   29.6990   53.5790 O   0  0  0  0  0  0  0  0  0  0  0  0
   56.5420   29.9700   52.7180 C   0  0  0  0  0  0  0  0  0  0  0  0
   57.1270   30.4530   51.4650 N   0  0  0  0  0  0  0  0  0  0  0  0
   57.8290   31.5170   51.4570 C   0  0  0  0  0  0  0  0  0  0  0  0
   58.5590   31.7580   50.2860 C   0  0  0  0  0  0  0  0  0  0  0  0
   59.3280   32.9150   50.2110 C   0  0  0  0  0  0  0  0  0  0  0  0
   60.1280   33.2130   49.0300 C   0  0  0  0  0  0  0  0  0  0  0  0
   61.5020   33.2370   49.0710 C   0  0  0  0  0  0  0  0  0  0  0  0
   62.2940   33.5340   47.9650 C   0  0  0  0  0  0  0  0  0  0  0  0
   61.6800   33.8190   46.7630 C   0  0  0  0  0  0  0  0  0  0  0  0
   60.3100   33.7910   46.7330 C   0  0  0  0  0  0  0  0  0  0  0  0
   59.7540   34.0600   45.5830 N   0  0  0  0  0  0  0  0  0  0  0  0
   58.4070   33.7650   45.3600 C   0  0  0  0  0  0  0  0  0  0  0  0
   57.5520   34.5090   45.9650 O   0  0  0  0  0  0  0  0  0  0  0  0
   57.8660   32.7220   44.5310 C   0  0  0  0  0  0  0  0  0  0  0  0
   58.1530   32.6240   43.1870 C   0  0  0  0  0  0  0  0  0  0  0  0
   57.6130   31.5950   42.4390 C   0  0  0  0  0  0  0  0  0  0  0  0
   56.7910   30.6690   43.0360 C   0  0  0  0  0  0  0  0  0  0  0  0
   56.4800   30.7310   44.3730 C   0  0  0  0  0  0  0  0  0  0  0  0
   55.6460   29.7950   44.9800 O   0  0  0  0  0  0  0  0  0  0  0  0
   57.0230   31.7600   45.1080 C   0  0  0  0  0  0  0  0  0  0  0  0
   59.5690   33.4990   47.8240 N   0  0  0  0  0  0  0  0  0  0  0  0
   59.3210   33.7210   51.2580 N   0  0  0  0  0  0  0  0  0  0  0  0
   58.6080   33.4850   52.4060 C   0  0  0  0  0  0  0  0  0  0  0  0
   58.7320   34.4350   53.3850 O   0  0  0  0  0  0  0  0  0  0  0  0
   59.3670   34.2230   54.6020 C   0  0  0  0  0  0  0  0  0  0  0  0
   57.8580   32.3710   52.4980 N   0  0  0  0  0  0  0  0  0  0  0  0
   52.6793   31.2280   52.6337 H   0  0  0  0  0  0  0  0  0  0  0  0
   52.8285   32.1139   51.0782 H   0  0  0  0  0  0  0  0  0  0  0  0
   52.5744   30.3357   51.0782 H   0  0  0  0  0  0  0  0  0  0  0  0
   55.1020   31.3770   50.8860 H   0  0  0  0  0  0  0  0  0  0  0  0
   56.9788   30.5229   53.5627 H   0  0  0  0  0  0  0  0  0  0  0  0
   56.7550   28.8966   52.8299 H   0  0  0  0  0  0  0  0  0  0  0  0
   58.5250   31.0492   49.4455 H   0  0  0  0  0  0  0  0  0  0  0  0
   62.0004   33.0103   50.0250 H   0  0  0  0  0  0  0  0  0  0  0  0
   63.3908   33.5413   48.0483 H   0  0  0  0  0  0  0  0  0  0  0  0
   62.2667   34.0592   45.8641 H   0  0  0  0  0  0  0  0  0  0  0  0
   58.8116   33.3644   42.7096 H   0  0  0  0  0  0  0  0  0  0  0  0
   57.8410   31.5170   41.3657 H   0  0  0  0  0  0  0  0  0  0  0  0
   56.3704   29.8557   42.4264 H   0  0  0  0  0  0  0  0  0  0  0  0
   55.6570   29.7260   46.0010 H   0  0  0  0  0  0  0  0  0  0  0  0
   56.7890   31.8305   46.1805 H   0  0  0  0  0  0  0  0  0  0  0  0
   58.5360   33.5130   47.6790 H   0  0  0  0  0  0  0  0  0  0  0  0
   59.8690   34.5950   51.2650 H   0  0  0  0  0  0  0  0  0  0  0  0
   58.6727   34.4548   55.4231 H   0  0  0  0  0  0  0  0  0  0  0  0
   59.6812   33.1712   54.6733 H   0  0  0  0  0  0  0  0  0  0  0  0
   60.2500   34.8751   54.6733 H   0  0  0  0  0  0  0  0  0  0  0  0
  1  2  1  0
  2  3  1  0
  3  4  2  0
  3  5  1  0
  5  6  1  0
  6  7  2  0
  7  8  1  0
  8  9  2  0
  9 10  1  0
 10 11  2  0
 11 12  1  0
 12 13  2  0
 13 14  1  0
 14 15  2  0
 15 16  1  0
 16 17  2  0
 16 18  1  0
 18 19  2  0
 19 20  1  0
 20 21  2  0
 21 22  1  0
 22 23  1  0
 22 24  2  0
 14 25  1  0
  9 26  1  0
 26 27  1  0
 27 28  1  0
 28 29  1  0
 27 30  2  0
 30  7  1  0
 25 10  1  0
 24 18  1  0
  1 31  1  0
  1 32  1  0
  1 33  1  0
  2 34  1  0
  5 35  1  0
  5 36  1  0
  8 37  1  0
 11 38  1  0
 12 39  1  0
 13 40  1  0
 19 41  1  0
 20 42  1  0
 21 43  1  0
 23 44  1  0
 24 45  1  0
 25 46  1  0
 26 47  1  0
 29 48  1  0
 29 49  1  0
 29 50  1  0
M  END
>  <smiles>  (86) 
CNC(=O)CN=c1cc(-c2cccc(=NC(=O)c3cccc(O)c3)[nH]2)[nH]c(OC)n1

>  <score_type>  (86) 
oracle

>  <origin>  (86) 
adg

>  <m_score__min__energy>  (86) 
-8.9000000000000004

>  <m_primary>  (86) 
energy

$$$$
86:0
     RDKit          3D

 46 49  0  0  0  0  0  0  0  0999 V2000
   56.4690   29.9010   45.1290 O   0  0  0  0  0  0  0  0  0  0  0  0
   57.6940   30.1800   45.0900 C   0  0  0  0  0  0  0  0  0  0  0  0
   58.6490   29.1360   45.2430 N   0  0  0  0  0  0  0  0  0  0  0  0
   58.1260   27.8190   45.4330 C   0  0  0  0  0  0  0  0  0  0  0  0
   58.1260   26.8590   44.4530 C   0  0  0  0  0  0  0  0  0  0  0  0
   57.6030   25.5860   44.6890 C   0  0  0  0  0  0  0  0  0  0  0  0
   57.0810   25.3010   45.9330 C   0  0  0  0  0  0  0  0  0  0  0  0
   56.3980   23.7580   46.3620 S   0  0  0  0  0  0  0  0  0  0  0  0
   57.4110   23.0660   47.2300 O   0  0  0  0  0  0  0  0  0  0  0  0
   55.1730   24.0130   47.2020 O   0  0  0  0  0  0  0  0  0  0  0  0
   55.9720   22.7590   45.0890 N   0  0  0  0  0  0  0  0  0  0  0  0
   55.6260   23.3490   43.8660 C   0  0  0  0  0  0  0  0  0  0  0  0
   55.8890   22.6090   42.6130 C   0  0  0  0  0  0  0  0  0  0  0  0
   56.2770   21.2890   42.7880 O   0  0  0  0  0  0  0  0  0  0  0  0
   57.2030   21.1530   43.8290 C   0  0  0  0  0  0  0  0  0  0  0  0
   56.4300   21.4200   45.1040 C   0  0  0  0  0  0  0  0  0  0  0  0
   57.0960   26.2940   46.9060 C   0  0  0  0  0  0  0  0  0  0  0  0
   57.6060   27.5330   46.6710 C   0  0  0  0  0  0  0  0  0  0  0  0
   58.0740   31.5730   44.8880 C   0  0  0  0  0  0  0  0  0  0  0  0
   58.5850   32.3600   45.8980 C   0  0  0  0  0  0  0  0  0  0  0  0
   58.8350   33.6180   45.3590 C   0  0  0  0  0  0  0  0  0  0  0  0
   59.3850   34.8190   46.0300 C   0  0  0  0  0  0  0  0  0  0  0  0
   59.2680   34.9900   47.4910 C   0  0  0  0  0  0  0  0  0  0  0  0
   60.6100   34.5840   46.9460 C   0  0  0  0  0  0  0  0  0  0  0  0
   58.4730   33.5520   44.0630 N   0  0  0  0  0  0  0  0  0  0  0  0
   58.0190   32.3270   43.7830 N   0  0  0  0  0  0  0  0  0  0  0  0
   59.6650   29.3510   45.2130 H   0  0  0  0  0  0  0  0  0  0  0  0
   58.5453   27.0962   43.4641 H   0  0  0  0  0  0  0  0  0  0  0  0
   57.6074   24.8236   43.8961 H   0  0  0  0  0  0  0  0  0  0  0  0
   54.5453   23.5513   43.9001 H   0  0  0  0  0  0  0  0  0  0  0  0
   56.2882   24.2248   43.7990 H   0  0  0  0  0  0  0  0  0  0  0  0
   54.9688   22.6182   42.0104 H   0  0  0  0  0  0  0  0  0  0  0  0
   56.7328   23.1177   42.1240 H   0  0  0  0  0  0  0  0  0  0  0  0
   57.6208   20.1355   43.8399 H   0  0  0  0  0  0  0  0  0  0  0  0
   58.0478   21.8480   43.7138 H   0  0  0  0  0  0  0  0  0  0  0  0
   55.5706   20.7362   45.1651 H   0  0  0  0  0  0  0  0  0  0  0  0
   57.0807   21.2578   45.9759 H   0  0  0  0  0  0  0  0  0  0  0  0
   56.6813   26.0701   47.8999 H   0  0  0  0  0  0  0  0  0  0  0  0
   57.6018   28.2963   47.4631 H   0  0  0  0  0  0  0  0  0  0  0  0
   58.7624   32.0503   46.9385 H   0  0  0  0  0  0  0  0  0  0  0  0
   59.1266   35.4604   45.1745 H   0  0  0  0  0  0  0  0  0  0  0  0
   59.1350   35.9981   47.9105 H   0  0  0  0  0  0  0  0  0  0  0  0
   58.5977   34.5717   48.2563 H   0  0  0  0  0  0  0  0  0  0  0  0
   61.4487   35.2958   46.9463 H   0  0  0  0  0  0  0  0  0  0  0  0
   61.3189   33.7616   47.1224 H   0  0  0  0  0  0  0  0  0  0  0  0
   58.5520   34.3700   43.3950 H   0  0  0  0  0  0  0  0  0  0  0  0
  1  2  2  0
  2  3  1  0
  3  4  1  0
  4  5  2  0
  5  6  1  0
  6  7  2  0
  7  8  1  0
  8  9  2  0
  8 10  2  0
  8 11  1  0
 11 12  1  0
 12 13  1  0
 13 14  1  0
 14 15  1  0
 15 16  1  0
  7 17  1  0
 17 18  2  0
  2 19  1  0
 19 20  1  0
 20 21  2  0
 21 22  1  0
 22 23  1  0
 23 24  1  0
 21 25  1  0
 25 26  1  0
 18  4  1  0
 26 19  2  0
 16 11  1  0
 24 22  1  0
  3 27  1  0
  5 28  1  0
  6 29  1  0
 12 30  1  0
 12 31  1  0
 13 32  1  0
 13 33  1  0
 15 34  1  0
 15 35  1  0
 16 36  1  0
 16 37  1  0
 17 38  1  0
 18 39  1  0
 20 40  1  0
 22 41  1  0
 23 42  1  0
 23 43  1  0
 24 44  1  0
 24 45  1  0
 25 46  1  0
M  END
>  <smiles>  (87) 
O=C(Nc1ccc(S(=O)(=O)N2CCOCC2)cc1)c1cc(C2CC2)[nH]n1

>  <score_type>  (87) 
oracle

>  <origin>  (87) 
adg

>  <m_score__min__energy>  (87) 
-9.0399999999999991

>  <m_primary>  (87) 
energy

$$$$
87:0
     RDKit          3D

 74 78  0  0  0  0  0  0  0  0999 V2000
   62.4858   31.6777   46.3376 H   0  0  0  0  0  0  0  0  0  0  0  0
   62.0670   32.3240   47.1230 C   0  0  0  0  0  0  0  0  0  0  0  0
   62.9000   32.8380   48.1230 C   0  0  0  0  0  0  0  0  0  0  0  0
   63.9751   32.6056   48.1137 H   0  0  0  0  0  0  0  0  0  0  0  0
   62.3680   33.6500   49.1390 C   0  0  0  0  0  0  0  0  0  0  0  0
   63.2640   34.2230   50.2050 C   0  0  0  0  0  0  0  0  0  0  0  0
   62.6878   34.3521   51.1331 H   0  0  0  0  0  0  0  0  0  0  0  0
   63.6506   35.1949   49.8644 H   0  0  0  0  0  0  0  0  0  0  0  0
   64.4230   33.2970   50.4640 C   0  0  0  0  0  0  0  0  0  0  0  0
   65.5030   33.4870   49.8390 O   0  0  0  0  0  0  0  0  0  0  0  0
   64.2970   32.1490   51.3220 N   0  0  0  0  0  0  0  0  0  0  0  0
   63.6640   32.2450   52.6380 C   0  0  0  0  0  0  0  0  0  0  0  0
   63.2282   33.2466   52.7682 H   0  0  0  0  0  0  0  0  0  0  0  0
   64.4101   32.0775   53.4288 H   0  0  0  0  0  0  0  0  0  0  0  0
   62.5690   31.1940   52.7230 C   0  0  0  0  0  0  0  0  0  0  0  0
   61.8479   31.3540   51.9079 H   0  0  0  0  0  0  0  0  0  0  0  0
   62.0626   31.2817   53.6956 H   0  0  0  0  0  0  0  0  0  0  0  0
   63.1750   29.7800   52.5970 C   0  0  0  0  0  0  0  0  0  0  0  0
   63.5055   29.5485   53.6203 H   0  0  0  0  0  0  0  0  0  0  0  0
   56.2830   26.6640   46.4040 N   0  0  0  0  0  0  0  0  0  0  0  0
   57.2170   27.5740   46.3940 C   0  0  0  0  0  0  0  0  0  0  0  0
   57.4650   28.3990   45.2790 C   0  0  0  0  0  0  0  0  0  0  0  0
   56.8403   28.3135   44.3777 H   0  0  0  0  0  0  0  0  0  0  0  0
   60.3610   27.4470   49.3540 C   0  0  0  0  0  0  0  0  0  0  0  0
   60.1308   26.4867   48.8693 H   0  0  0  0  0  0  0  0  0  0  0  0
   59.8500   28.6370   48.8160 C   0  0  0  0  0  0  0  0  0  0  0  0
   59.0250   28.5980   47.5810 C   0  0  0  0  0  0  0  0  0  0  0  0
   58.0100   27.6930   47.4910 N   0  0  0  0  0  0  0  0  0  0  0  0
   61.4340   28.6920   51.1310 C   0  0  0  0  0  0  0  0  0  0  0  0
   62.1720   28.7790   52.2060 N   0  0  0  0  0  0  0  0  0  0  0  0
   56.2200   25.4610   45.6220 C   0  0  0  0  0  0  0  0  0  0  0  0
   57.3450   24.9780   44.9380 C   0  0  0  0  0  0  0  0  0  0  0  0
   58.3052   25.5085   45.0193 H   0  0  0  0  0  0  0  0  0  0  0  0
   57.2510   23.8260   44.1540 C   0  0  0  0  0  0  0  0  0  0  0  0
   58.1430   23.4418   43.6375 H   0  0  0  0  0  0  0  0  0  0  0  0
   56.0220   23.1540   44.0210 C   0  0  0  0  0  0  0  0  0  0  0  0
   55.8920   21.9840   43.2550 O   0  0  0  0  0  0  0  0  0  0  0  0
   56.9590   21.0870   42.9690 C   0  0  0  0  0  0  0  0  0  0  0  0
   57.3935   20.7217   43.9112 H   0  0  0  0  0  0  0  0  0  0  0  0
   56.5762   20.2354   42.3873 H   0  0  0  0  0  0  0  0  0  0  0  0
   57.7321   21.6104   42.3873 H   0  0  0  0  0  0  0  0  0  0  0  0
   54.8820   23.6600   44.6650 C   0  0  0  0  0  0  0  0  0  0  0  0
   53.6640   22.9810   44.4970 O   0  0  0  0  0  0  0  0  0  0  0  0
   52.3880   23.5180   44.8320 C   0  0  0  0  0  0  0  0  0  0  0  0
   52.2843   23.5616   45.9262 H   0  0  0  0  0  0  0  0  0  0  0  0
   52.2955   24.5314   44.4142 H   0  0  0  0  0  0  0  0  0  0  0  0
   51.5987   22.8757   44.4142 H   0  0  0  0  0  0  0  0  0  0  0  0
   54.9870   24.8210   45.4550 C   0  0  0  0  0  0  0  0  0  0  0  0
   54.0909   25.2288   45.9456 H   0  0  0  0  0  0  0  0  0  0  0  0
   61.1570   27.4700   50.4960 C   0  0  0  0  0  0  0  0  0  0  0  0
   61.5682   26.5332   50.9002 H   0  0  0  0  0  0  0  0  0  0  0  0
   58.5110   29.3280   45.3250 C   0  0  0  0  0  0  0  0  0  0  0  0
   58.7680   30.2360   44.1570 C   0  0  0  0  0  0  0  0  0  0  0  0
   59.0505   31.2339   44.5236 H   0  0  0  0  0  0  0  0  0  0  0  0
   59.5851   29.8250   43.5459 H   0  0  0  0  0  0  0  0  0  0  0  0
   57.8567   30.3142   43.5459 H   0  0  0  0  0  0  0  0  0  0  0  0
   59.2860   29.4380   46.4860 C   0  0  0  0  0  0  0  0  0  0  0  0
   60.0965   30.1797   46.5403 H   0  0  0  0  0  0  0  0  0  0  0  0
   60.1350   29.8390   49.4890 C   0  0  0  0  0  0  0  0  0  0  0  0
   59.7288   30.7874   49.1075 H   0  0  0  0  0  0  0  0  0  0  0  0
   60.9090   29.8380   50.6080 N   0  0  0  0  0  0  0  0  0  0  0  0
   61.0970   30.7520   51.0790 H   0  0  0  0  0  0  0  0  0  0  0  0
   64.4910   29.6660   51.7670 C   0  0  0  0  0  0  0  0  0  0  0  0
   64.3997   28.7815   51.1194 H   0  0  0  0  0  0  0  0  0  0  0  0
   65.2968   29.6116   52.5138 H   0  0  0  0  0  0  0  0  0  0  0  0
   64.8580   30.8700   50.8650 C   0  0  0  0  0  0  0  0  0  0  0  0
   64.4827   30.6699   49.8506 H   0  0  0  0  0  0  0  0  0  0  0  0
   65.9528   30.9716   50.8978 H   0  0  0  0  0  0  0  0  0  0  0  0
   60.9970   33.9580   49.1260 C   0  0  0  0  0  0  0  0  0  0  0  0
   60.5733   34.6026   49.9102 H   0  0  0  0  0  0  0  0  0  0  0  0
   60.1690   33.4490   48.1210 C   0  0  0  0  0  0  0  0  0  0  0  0
   59.0963   33.6924   48.1171 H   0  0  0  0  0  0  0  0  0  0  0  0
   60.7030   32.6310   47.1210 C   0  0  0  0  0  0  0  0  0  0  0  0
   59.9000   32.1380   46.1450 F   0  0  0  0  0  0  0  0  0  0  0  0
  1  2  1  0
  2  3  2  0
  3  4  1  0
  3  5  1  0
  5  6  1  0
  6  7  1  0
  6  8  1  0
  6  9  1  0
  9 10  2  0
  9 11  1  0
 11 12  1  0
 12 13  1  0
 12 14  1  0
 12 15  1  0
 15 16  1  0
 15 17  1  0
 15 18  1  0
 18 19  1  0
 18 20  1  0
 20 21  2  0
 21 22  1  0
 22 23  1  0
 22 24  2  0
 24 25  1  0
 24 26  1  0
 26 27  1  0
 27 28  1  0
 28 29  1  0
 29 30  2  0
 30 31  1  0
 31 32  2  0
 32 33  1  0
 32 34  1  0
 34 35  1  0
 34 36  2  0
 36 37  1  0
 37 38  1  0
 38 39  1  0
 38 40  1  0
 38 41  1  0
 36 42  1  0
 42 43  1  0
 43 44  1  0
 44 45  1  0
 44 46  1  0
 44 47  1  0
 42 48  2  0
 48 49  1  0
 29 50  1  0
 50 51  1  0
 50 52  2  0
 52 53  1  0
 53 54  1  0
 53 55  1  0
 53 56  1  0
 52 57  1  0
 57 58  1  0
 26 59  2  0
 59 60  1  0
 59 61  1  0
 61 62  1  0
 18 63  1  0
 63 64  1  0
 63 65  1  0
 63 66  1  0
 66 67  1  0
 66 68  1  0
  5 69  2  0
 69 70  1  0
 69 71  1  0
 71 72  1  0
 71 73  2  0
 73 74  1  0
 73  2  1  0
 66 11  1  0
 61 21  1  0
 57 27  2  0
 48 31  1  0
M  CHG  1  28  -1
M  END
>  <UniqueID>  (88) 
80

>  <SMILES>  (88) 
COc1ccc(/N=c2\cc(C)cc(-c3cc/c(=N\C4CCN(C(=O)Cc5ccc(F)cc5)CC4)[nH]c3)[n-]2)cc1OC

>  <Energy>  (88) 
102.44306438071901

>  <Genealogy>  (88) 
COc1ccc(N=c2cc(C)cc(-c3ccc(=NC4CCN(C(=O)Cc5ccc(F)cc5)CC4)[nH]c3)[n-]2)cc1OC (protonated)
COc1ccc(/N=c2\cc(C)cc(-c3cc/c(=N\C4CCN(C(=O)Cc5ccc(F)cc5)CC4)[nH]c3)[n-]2)cc1OC (cis-trans isomerization)
COc1ccc(/N=c2\cc(C)cc(-c3cc/c(=N\C4CCN(C(=O)Cc5ccc(F)cc5)CC4)[nH]c3)[n-]2)cc1OC (3D coordinates assigned)
COc1ccc(/N=c2\cc(C)cc(-c3cc/c(=N\C4CCN(C(=O)Cc5ccc(F)cc5)CC4)[nH]c3)[n-]2)cc1OC (nonaromatic ring conformer: 102.44306438071901 kcal/mol)

>  <smiles>  (88) 
COc1ccc(N=c2cc(C)cc(-c3ccc(=NC4CCN(C(=O)Cc5ccc(F)cc5)CC4)[nH]c3)[nH]2)cc1OC

>  <score_type>  (88) 
oracle

>  <origin>  (88) 
adg

>  <m_score__min__energy>  (88) 
-10.390000000000001

>  <m_primary>  (88) 
energy

$$$$
88:0
     RDKit          3D

 36 38  0  0  0  0  0  0  0  0999 V2000
   58.1820   33.8300   46.5120 C   0  0  0  0  0  0  0  0  0  0  0  0
   58.7130   33.4670   47.7810 O   0  0  0  0  0  0  0  0  0  0  0  0
   60.0830   33.4290   48.0890 C   0  0  0  0  0  0  0  0  0  0  0  0
   60.6490   34.2550   49.0790 C   0  0  0  0  0  0  0  0  0  0  0  0
   62.0170   34.1880   49.3560 C   0  0  0  0  0  0  0  0  0  0  0  0
   62.8420   33.3080   48.6420 C   0  0  0  0  0  0  0  0  0  0  0  0
   64.3020   33.2090   48.9700 C   0  0  0  0  0  0  0  0  0  0  0  0
   62.2780   32.4710   47.6700 C   0  0  0  0  0  0  0  0  0  0  0  0
   60.9070   32.5290   47.3940 C   0  0  0  0  0  0  0  0  0  0  0  0
   60.3490   31.6420   46.4250 N   0  0  0  0  0  0  0  0  0  0  0  0
   60.5890   29.9320   46.5500 S   0  0  0  0  0  0  0  0  0  0  0  0
   61.5570   29.4920   45.4890 O   0  0  0  0  0  0  0  0  0  0  0  0
   61.1650   29.5990   47.8970 O   0  0  0  0  0  0  0  0  0  0  0  0
   59.0540   29.0980   46.3290 C   0  0  0  0  0  0  0  0  0  0  0  0
   58.0510   29.6830   45.5230 C   0  0  0  0  0  0  0  0  0  0  0  0
   56.8530   28.9960   45.2560 C   0  0  0  0  0  0  0  0  0  0  0  0
   55.5200   29.7760   44.1310 Br  0  0  0  0  0  0  0  0  0  0  0  0
   56.6780   27.7290   45.8140 C   0  0  0  0  0  0  0  0  0  0  0  0
   57.6580   27.1630   46.6080 C   0  0  0  0  0  0  0  0  0  0  0  0
   58.8570   27.8180   46.8820 C   0  0  0  0  0  0  0  0  0  0  0  0
   57.1960   25.8490   46.9980 C   0  0  0  0  0  0  0  0  0  0  0  0
   57.7990   25.0060   47.7110 O   0  0  0  0  0  0  0  0  0  0  0  0
   55.8890   25.7070   46.3780 C   0  0  0  0  0  0  0  0  0  0  0  0
   55.1450   24.6960   46.4730 O   0  0  0  0  0  0  0  0  0  0  0  0
   55.5430   26.8750   45.6320 N   0  0  0  0  0  0  0  0  0  0  0  0
   57.2815   34.4456   46.6538 H   0  0  0  0  0  0  0  0  0  0  0  0
   58.9338   34.4040   45.9505 H   0  0  0  0  0  0  0  0  0  0  0  0
   57.9201   32.9211   45.9505 H   0  0  0  0  0  0  0  0  0  0  0  0
   60.0112   34.9564   49.6370 H   0  0  0  0  0  0  0  0  0  0  0  0
   62.4488   34.8293   50.1385 H   0  0  0  0  0  0  0  0  0  0  0  0
   64.4327   33.2001   50.0622 H   0  0  0  0  0  0  0  0  0  0  0  0
   64.7114   32.2810   48.5442 H   0  0  0  0  0  0  0  0  0  0  0  0
   64.8329   34.0732   48.5442 H   0  0  0  0  0  0  0  0  0  0  0  0
   62.9167   31.7639   47.1204 H   0  0  0  0  0  0  0  0  0  0  0  0
   58.2090   30.6861   45.1001 H   0  0  0  0  0  0  0  0  0  0  0  0
   59.6272   27.3489   47.5119 H   0  0  0  0  0  0  0  0  0  0  0  0
  1  2  1  0
  2  3  1  0
  3  4  2  0
  4  5  1  0
  5  6  2  0
  6  7  1  0
  6  8  1  0
  8  9  2  0
  9 10  1  0
 10 11  1  0
 11 12  2  0
 11 13  2  0
 11 14  1  0
 14 15  2  0
 15 16  1  0
 16 17  1  0
 16 18  2  0
 18 19  1  0
 19 20  2  0
 19 21  1  0
 21 22  2  0
 21 23  1  0
 23 24  2  0
 23 25  1  0
  9  3  1  0
 20 14  1  0
 25 18  1  0
  1 26  1  0
  1 27  1  0
  1 28  1  0
  4 29  1  0
  5 30  1  0
  7 31  1  0
  7 32  1  0
  7 33  1  0
  8 34  1  0
 15 35  1  0
 20 36  1  0
M  CHG  2  10  -1  25  -1
M  END
>  <UniqueID>  (89) 
81

>  <SMILES>  (89) 
COc1ccc(C)cc1[N-]S(=O)(=O)c1cc(Br)c2c(c1)C(=O)C(=O)[N-]2

>  <Energy>  (89) 
74.6896347514893

>  <Genealogy>  (89) 
COc1ccc(C)cc1[N-]S(=O)(=O)c1cc(Br)c2c(c1)C(=O)C(=O)[N-]2 (protonated)
COc1ccc(C)cc1[N-]S(=O)(=O)c1cc(Br)c2c(c1)C(=O)C(=O)[N-]2 (3D coordinates assigned)
COc1ccc(C)cc1[N-]S(=O)(=O)c1cc(Br)c2c(c1)C(=O)C(=O)[N-]2 (nonaromatic ring conformer: 74.6896347514893 kcal/mol)

>  <smiles>  (89) 
COc1ccc(C)cc1NS(=O)(=O)c1cc(Br)c2c(c1)C(=O)C(=O)N2

>  <score_type>  (89) 
oracle

>  <origin>  (89) 
adg

>  <m_score__min__energy>  (89) 
-11.91

>  <m_primary>  (89) 
energy

$$$$
89:0
     RDKit          3D

 75 79  0  0  0  0  0  0  0  0999 V2000
   56.6290   20.9410   48.0370 C   0  0  0  0  0  0  0  0  0  0  0  0
   57.3820   21.8390   47.2270 O   0  0  0  0  0  0  0  0  0  0  0  0
   57.1250   22.0980   45.8710 C   0  0  0  0  0  0  0  0  0  0  0  0
   57.8210   21.4260   44.8470 C   0  0  0  0  0  0  0  0  0  0  0  0
   57.5440   21.6950   43.5050 C   0  0  0  0  0  0  0  0  0  0  0  0
   56.5850   22.6480   43.1680 C   0  0  0  0  0  0  0  0  0  0  0  0
   55.8970   23.3340   44.1690 C   0  0  0  0  0  0  0  0  0  0  0  0
   56.1400   23.0510   45.5260 C   0  0  0  0  0  0  0  0  0  0  0  0
   55.3940   23.8230   46.5930 C   0  0  0  0  0  0  0  0  0  0  0  0
   56.2270   24.8840   47.1490 N   0  0  0  0  0  0  0  0  0  0  0  0
   56.3280   26.1930   46.5790 C   0  0  0  0  0  0  0  0  0  0  0  0
   55.3290   26.7100   46.0100 O   0  0  0  0  0  0  0  0  0  0  0  0
   57.6090   26.9300   46.6720 C   0  0  0  0  0  0  0  0  0  0  0  0
   58.4580   26.6440   47.7570 C   0  0  0  0  0  0  0  0  0  0  0  0
   59.6810   27.3000   47.8980 C   0  0  0  0  0  0  0  0  0  0  0  0
   60.0810   28.2430   46.9560 C   0  0  0  0  0  0  0  0  0  0  0  0
   59.2640   28.5300   45.8640 C   0  0  0  0  0  0  0  0  0  0  0  0
   58.0260   27.8790   45.6970 C   0  0  0  0  0  0  0  0  0  0  0  0
   57.2020   28.2060   44.4680 C   0  0  0  0  0  0  0  0  0  0  0  0
   56.6140   29.5960   44.5320 C   0  0  0  0  0  0  0  0  0  0  0  0
   55.5660   29.7970   45.1990 O   0  0  0  0  0  0  0  0  0  0  0  0
   57.2380   30.7030   43.8670 N   0  0  0  0  0  0  0  0  0  0  0  0
   57.7320   31.8760   44.5230 C   0  0  0  0  0  0  0  0  0  0  0  0
   57.7780   33.1130   43.8590 C   0  0  0  0  0  0  0  0  0  0  0  0
   58.3190   34.2300   44.4960 C   0  0  0  0  0  0  0  0  0  0  0  0
   58.8130   34.1240   45.8000 C   0  0  0  0  0  0  0  0  0  0  0  0
   59.6410   35.5240   46.5480 S   0  0  0  0  0  0  0  0  0  0  0  0
   60.3450   34.4960   47.8320 C   0  0  0  0  0  0  0  0  0  0  0  0
   59.7010   34.3580   49.0160 N   0  0  0  0  0  0  0  0  0  0  0  0
   60.2480   33.6100   50.0110 C   0  0  0  0  0  0  0  0  0  0  0  0
   59.6530   33.4820   51.1590 N   0  0  0  0  0  0  0  0  0  0  0  0
   58.7190   32.4480   51.5090 C   0  0  0  0  0  0  0  0  0  0  0  0
   58.9010   31.1200   51.0790 C   0  0  0  0  0  0  0  0  0  0  0  0
   57.9540   30.1410   51.3950 C   0  0  0  0  0  0  0  0  0  0  0  0
   56.8130   30.4820   52.1270 C   0  0  0  0  0  0  0  0  0  0  0  0
   56.6110   31.8060   52.5300 C   0  0  0  0  0  0  0  0  0  0  0  0
   57.5550   32.7880   52.2120 C   0  0  0  0  0  0  0  0  0  0  0  0
   61.4260   32.9750   49.7970 N   0  0  0  0  0  0  0  0  0  0  0  0
   62.0850   33.1140   48.6140 C   0  0  0  0  0  0  0  0  0  0  0  0
   63.3530   32.4600   48.4000 N   0  0  0  0  0  0  0  0  0  0  0  0
   63.6730   31.8160   47.1230 C   0  0  0  0  0  0  0  0  0  0  0  0
   64.3870   32.5330   49.4360 C   0  0  0  0  0  0  0  0  0  0  0  0
   61.5400   33.8860   47.6360 N   0  0  0  0  0  0  0  0  0  0  0  0
   58.7140   32.9080   46.4880 C   0  0  0  0  0  0  0  0  0  0  0  0
   58.1660   31.7920   45.8510 C   0  0  0  0  0  0  0  0  0  0  0  0
   56.8141   21.1617   49.0986 H   0  0  0  0  0  0  0  0  0  0  0  0
   55.5575   21.0610   47.8189 H   0  0  0  0  0  0  0  0  0  0  0  0
   56.9340   19.9069   47.8189 H   0  0  0  0  0  0  0  0  0  0  0  0
   58.5893   20.6829   45.1068 H   0  0  0  0  0  0  0  0  0  0  0  0
   58.0833   21.1542   42.7134 H   0  0  0  0  0  0  0  0  0  0  0  0
   56.3699   22.8599   42.1102 H   0  0  0  0  0  0  0  0  0  0  0  0
   55.1587   24.1022   43.8955 H   0  0  0  0  0  0  0  0  0  0  0  0
   54.4916   24.2691   46.1496 H   0  0  0  0  0  0  0  0  0  0  0  0
   55.1229   23.1294   47.4026 H   0  0  0  0  0  0  0  0  0  0  0  0
   58.1539   25.8946   48.5026 H   0  0  0  0  0  0  0  0  0  0  0  0
   60.3307   27.0714   48.7557 H   0  0  0  0  0  0  0  0  0  0  0  0
   61.0434   28.7626   47.0735 H   0  0  0  0  0  0  0  0  0  0  0  0
   59.5901   29.2746   45.1229 H   0  0  0  0  0  0  0  0  0  0  0  0
   57.8463   28.1339   43.5794 H   0  0  0  0  0  0  0  0  0  0  0  0
   56.3701   27.4881   44.4168 H   0  0  0  0  0  0  0  0  0  0  0  0
   57.3867   33.2011   42.8347 H   0  0  0  0  0  0  0  0  0  0  0  0
   58.3571   35.1961   43.9715 H   0  0  0  0  0  0  0  0  0  0  0  0
   59.7917   30.8514   50.4921 H   0  0  0  0  0  0  0  0  0  0  0  0
   58.1069   29.1021   51.0674 H   0  0  0  0  0  0  0  0  0  0  0  0
   56.0742   29.7093   52.3860 H   0  0  0  0  0  0  0  0  0  0  0  0
   55.7083   32.0755   53.0979 H   0  0  0  0  0  0  0  0  0  0  0  0
   57.3832   33.8314   52.5149 H   0  0  0  0  0  0  0  0  0  0  0  0
   64.1552   30.8456   47.3124 H   0  0  0  0  0  0  0  0  0  0  0  0
   62.7477   31.6598   46.5491 H   0  0  0  0  0  0  0  0  0  0  0  0
   64.3563   32.4592   46.5491 H   0  0  0  0  0  0  0  0  0  0  0  0
   63.9144   32.4996   50.4287 H   0  0  0  0  0  0  0  0  0  0  0  0
   65.0746   31.6812   49.3284 H   0  0  0  0  0  0  0  0  0  0  0  0
   64.9481   33.4730   49.3284 H   0  0  0  0  0  0  0  0  0  0  0  0
   59.0668   32.8320   47.5271 H   0  0  0  0  0  0  0  0  0  0  0  0
   58.0750   30.8412   46.3966 H   0  0  0  0  0  0  0  0  0  0  0  0
  1  2  1  0
  2  3  1  0
  3  4  2  0
  4  5  1  0
  5  6  2  0
  6  7  1  0
  7  8  2  0
  8  9  1  0
  9 10  1  0
 10 11  1  0
 11 12  2  0
 11 13  1  0
 13 14  2  0
 14 15  1  0
 15 16  2  0
 16 17  1  0
 17 18  2  0
 18 19  1  0
 19 20  1  0
 20 21  2  0
 20 22  1  0
 22 23  1  0
 23 24  2  0
 24 25  1  0
 25 26  2  0
 26 27  1  0
 27 28  1  0
 28 29  2  0
 29 30  1  0
 30 31  2  3
 31 32  1  0
 32 33  2  0
 33 34  1  0
 34 35  2  0
 35 36  1  0
 36 37  2  0
 30 38  1  0
 38 39  2  0
 39 40  1  0
 40 41  1  0
 40 42  1  0
 39 43  1  0
 26 44  1  0
 44 45  2  0
  8  3  1  0
 18 13  1  0
 45 23  1  0
 43 28  1  0
 37 32  1  0
  1 46  1  0
  1 47  1  0
  1 48  1  0
  4 49  1  0
  5 50  1  0
  6 51  1  0
  7 52  1  0
  9 53  1  0
  9 54  1  0
 14 55  1  0
 15 56  1  0
 16 57  1  0
 17 58  1  0
 19 59  1  0
 19 60  1  0
 24 61  1  0
 25 62  1  0
 33 63  1  0
 34 64  1  0
 35 65  1  0
 36 66  1  0
 37 67  1  0
 41 68  1  0
 41 69  1  0
 41 70  1  0
 42 71  1  0
 42 72  1  0
 42 73  1  0
 44 74  1  0
 45 75  1  0
M  CHG  3  10  -1  22  -1  43  -1
M  END
>  <UniqueID>  (90) 
82

>  <SMILES>  (90) 
COc1ccccc1C[N-]C(=O)c1ccccc1CC(=O)[N-]c1ccc(Sc2nc(=Nc3ccccc3)nc(N(C)C)[n-]2)cc1

>  <Energy>  (90) 
85.16640970693078

>  <Genealogy>  (90) 
COc1ccccc1C[N-]C(=O)c1ccccc1CC(=O)[N-]c1ccc(Sc2nc(=Nc3ccccc3)nc(N(C)C)[n-]2)cc1 (protonated)
COc1ccccc1C[N-]C(=O)c1ccccc1CC(=O)[N-]c1ccc(Sc2nc(=Nc3ccccc3)nc(N(C)C)[n-]2)cc1 (3D coordinates assigned)
COc1ccccc1C[N-]C(=O)c1ccccc1CC(=O)[N-]c1ccc(Sc2nc(=Nc3ccccc3)nc(N(C)C)[n-]2)cc1 (optimized conformer: 85.16640970693078 kcal/mol)

>  <smiles>  (90) 
COc1ccccc1CNC(=O)c1ccccc1CC(=O)Nc1ccc(Sc2nc(=Nc3ccccc3)nc(N(C)C)[nH]2)cc1

>  <score_type>  (90) 
oracle

>  <origin>  (90) 
adg

>  <m_score__min__energy>  (90) 
-15.83

>  <m_primary>  (90) 
energy

$$$$
90:0
     RDKit          3D

 75 77  0  0  1  0  0  0  0  0999 V2000
   56.8970   22.6380   45.2290 C   0  0  0  0  0  0  0  0  0  0  0  0
   56.0590   23.7000   44.5720 C   0  0  0  0  0  0  0  0  0  0  0  0
   55.6170   23.3360   43.1720 C   0  0  0  0  0  0  0  0  0  0  0  0
   54.8840   24.1300   45.4540 C   0  0  0  0  0  0  0  0  0  0  0  0
   59.6160   26.0240   47.0680 N   0  0  0  0  0  0  0  0  0  0  0  0
   58.4570   26.3710   46.6140 C   0  0  0  0  0  0  0  0  0  0  0  0
   56.0810   27.2170   45.6210 N   0  0  0  0  0  0  0  0  0  0  0  0
   57.1220   28.0590   45.5020 C   0  0  0  0  0  0  0  0  0  0  0  0
   57.0280   29.3730   44.8770 C   0  0  0  0  0  0  0  0  0  0  0  0
   55.9090   29.9050   44.8160 O   0  0  0  0  0  0  0  0  0  0  0  0
   58.1360   30.0700   44.3400 N   0  0  0  0  0  0  0  0  0  0  0  0
   58.0740   31.3700   43.7170 C   0  0  0  0  0  0  0  0  0  0  0  0
   58.1710   32.4250   44.7250 C   0  0  0  0  0  0  0  0  0  0  0  0
   57.4550   33.6000   44.7300 C   0  0  0  0  0  0  0  0  0  0  0  0
   57.6000   34.5470   45.7230 C   0  0  0  0  0  0  0  0  0  0  0  0
   58.4710   34.3630   46.7630 C   0  0  0  0  0  0  0  0  0  0  0  0
   59.2060   33.1820   46.7790 C   0  0  0  0  0  0  0  0  0  0  0  0
   60.1040   33.0220   47.8730 N   0  0  0  0  0  0  0  0  0  0  0  0
   61.4050   33.5900   47.7520 C   0  0  0  0  0  0  0  0  0  0  0  0
   61.6610   34.1930   46.6760 O   0  0  0  0  0  0  0  0  0  0  0  0
   62.3160   33.4690   48.7740 O   0  0  0  0  0  0  0  0  0  0  0  0
   63.3140   32.4490   48.7250 C   0  0  0  0  0  0  0  0  0  0  0  0
   63.0330   31.3740   49.7350 C   0  0  0  0  0  0  0  0  0  0  0  0
   63.3290   31.7800   47.3620 C   0  0  0  0  0  0  0  0  0  0  0  0
   64.6550   33.0790   49.0330 C   0  0  0  0  0  0  0  0  0  0  0  0
   59.0550   32.2410   45.7820 C   0  0  0  0  0  0  0  0  0  0  0  0
   58.3310   27.6050   46.0190 C   0  0  0  0  0  0  0  0  0  0  0  0
   56.2040   26.0040   46.2060 C   0  0  0  0  0  0  0  0  0  0  0  0
   55.1910   25.2400   46.2970 N   0  0  0  0  0  0  0  0  0  0  0  0
   60.2260   26.7900   48.0950 C   0  0  0  0  0  0  0  0  0  0  0  0
   60.4270   26.3570   49.2620 O   0  0  0  0  0  0  0  0  0  0  0  0
   60.6740   28.2010   47.8360 C   0  0  0  0  0  0  0  0  0  0  0  0
   60.0700   29.1340   48.8100 C   0  0  0  0  0  0  0  0  0  0  0  0
   60.6190   29.1630   50.0820 C   0  0  0  0  0  0  0  0  0  0  0  0
   60.1290   29.9910   51.0520 C   0  0  0  0  0  0  0  0  0  0  0  0
   59.0720   30.8220   50.7860 C   0  0  0  0  0  0  0  0  0  0  0  0
   58.5310   30.7870   49.5170 C   0  0  0  0  0  0  0  0  0  0  0  0
   59.0060   29.9620   48.5220 C   0  0  0  0  0  0  0  0  0  0  0  0
   57.3690   25.5820   46.6970 N   0  0  0  0  0  0  0  0  0  0  0  0
   56.8207   22.7348   46.3221 H   0  0  0  0  0  0  0  0  0  0  0  0
   56.5366   21.6449   44.9227 H   0  0  0  0  0  0  0  0  0  0  0  0
   57.9467   22.7576   44.9227 H   0  0  0  0  0  0  0  0  0  0  0  0
   56.7180   24.5732   44.4573 H   0  0  0  0  0  0  0  0  0  0  0  0
   54.7689   22.6375   43.2252 H   0  0  0  0  0  0  0  0  0  0  0  0
   55.3094   24.2462   42.6363 H   0  0  0  0  0  0  0  0  0  0  0  0
   56.4513   22.8596   42.6363 H   0  0  0  0  0  0  0  0  0  0  0  0
   54.0416   24.4075   44.8034 H   0  0  0  0  0  0  0  0  0  0  0  0
   54.6381   23.2806   46.1082 H   0  0  0  0  0  0  0  0  0  0  0  0
   55.1420   27.4720   45.2640 H   0  0  0  0  0  0  0  0  0  0  0  0
   59.0690   29.5810   44.4130 H   0  0  0  0  0  0  0  0  0  0  0  0
   58.9071   31.4709   43.0058 H   0  0  0  0  0  0  0  0  0  0  0  0
   57.1129   31.4674   43.1908 H   0  0  0  0  0  0  0  0  0  0  0  0
   56.7423   33.7910   43.9141 H   0  0  0  0  0  0  0  0  0  0  0  0
   57.0028   35.4697   45.6780 H   0  0  0  0  0  0  0  0  0  0  0  0
   58.5851   35.1186   47.5542 H   0  0  0  0  0  0  0  0  0  0  0  0
   59.8190   32.5090   48.7310 H   0  0  0  0  0  0  0  0  0  0  0  0
   63.1408   31.7864   50.7491 H   0  0  0  0  0  0  0  0  0  0  0  0
   62.0072   31.0012   49.5979 H   0  0  0  0  0  0  0  0  0  0  0  0
   63.7451   30.5469   49.5979 H   0  0  0  0  0  0  0  0  0  0  0  0
   63.3535   30.6877   47.4899 H   0  0  0  0  0  0  0  0  0  0  0  0
   62.4243   32.0637   46.8043 H   0  0  0  0  0  0  0  0  0  0  0  0
   64.2201   32.1039   46.8043 H   0  0  0  0  0  0  0  0  0  0  0  0
   64.7889   33.1419   50.1230 H   0  0  0  0  0  0  0  0  0  0  0  0
   65.4573   32.4636   48.5999 H   0  0  0  0  0  0  0  0  0  0  0  0
   64.6935   34.0894   48.5999 H   0  0  0  0  0  0  0  0  0  0  0  0
   59.6516   31.3178   45.8245 H   0  0  0  0  0  0  0  0  0  0  0  0
   59.2161   28.2545   45.9498 H   0  0  0  0  0  0  0  0  0  0  0  0
   61.7696   28.2521   47.9202 H   0  0  0  0  0  0  0  0  0  0  0  0
   60.3520   28.4917   46.8251 H   0  0  0  0  0  0  0  0  0  0  0  0
   61.4685   28.5045   50.3160 H   0  0  0  0  0  0  0  0  0  0  0  0
   60.5857   29.9907   52.0527 H   0  0  0  0  0  0  0  0  0  0  0  0
   58.6686   31.4940   51.5578 H   0  0  0  0  0  0  0  0  0  0  0  0
   57.6817   31.4482   49.2899 H   0  0  0  0  0  0  0  0  0  0  0  0
   58.5478   29.9636   47.5220 H   0  0  0  0  0  0  0  0  0  0  0  0
   57.4550   24.6600   47.1390 H   0  0  0  0  0  0  0  0  0  0  0  0
  1  2  1  0
  2  3  1  0
  2  4  1  0
  4  5  1  0
  5  6  2  0
  6  7  1  0
  7  8  1  0
  8  9  1  0
  9 10  2  0
  9 11  1  0
 11 12  1  0
 12 13  1  0
 13 14  2  0
 14 15  1  0
 15 16  2  0
 16 17  1  0
 17 18  1  0
 18 19  1  0
 19 20  2  0
 19 21  1  0
 21 22  1  0
 22 23  1  0
 22 24  1  0
 22 25  1  0
 17 26  2  0
  8 27  2  0
 27 28  1  0
 28 29  2  0
 29 30  1  0
 30 31  2  0
 30 32  1  0
 32 33  1  0
 33 34  2  0
 34 35  1  0
 35 36  2  0
 36 37  1  0
 37 38  2  0
 28 39  1  0
 39  6  1  0
 26 13  1  0
 38 33  1  0
  1 40  1  0
  1 41  1  0
  1 42  1  0
  2 43  1  0
  3 44  1  0
  3 45  1  0
  3 46  1  0
  4 47  1  0
  4 48  1  0
  7 49  1  0
 11 50  1  0
 12 51  1  0
 12 52  1  0
 14 53  1  0
 15 54  1  0
 16 55  1  0
 18 56  1  0
 23 57  1  0
 23 58  1  0
 23 59  1  0
 24 60  1  0
 24 61  1  0
 24 62  1  0
 25 63  1  0
 25 64  1  0
 25 65  1  0
 26 66  1  0
 27 67  1  0
 32 68  1  0
 32 69  1  0
 34 70  1  0
 35 71  1  0
 36 72  1  0
 37 73  1  0
 38 74  1  0
 39 75  1  0
M  END
>  <smiles>  (91) 
CC(C)CN=c1[nH]c(C(=O)NCc2cccc(NC(=O)OC(C)(C)C)c2)cc(=NC(=O)Cc2ccccc2)[nH]1

>  <score_type>  (91) 
oracle

>  <origin>  (91) 
adg

>  <m_score__min__energy>  (91) 
-10.4

>  <m_primary>  (91) 
energy

$$$$
91:0
     RDKit          3D

 37 40  0  0  1  0  0  0  0  0999 V2000
   56.3980   29.6440   45.3630 O   0  0  0  0  0  0  0  0  0  0  0  0
   57.4790   29.0210   45.3730 C   0  0  0  0  0  0  0  0  0  0  0  0
   58.7830   29.6110   45.1360 C   0  0  0  0  0  0  0  0  0  0  0  0
   59.0640   30.8560   44.8710 C   0  0  0  0  0  0  0  0  0  0  0  0
   58.6050   32.0100   45.6220 C   0  0  0  0  0  0  0  0  0  0  0  0
   59.3620   32.8030   46.4250 C   0  0  0  0  0  0  0  0  0  0  0  0
   60.7550   32.7390   46.8310 C   0  0  0  0  0  0  0  0  0  0  0  0
   61.2550   31.5510   47.3450 C   0  0  0  0  0  0  0  0  0  0  0  0
   62.5950   31.4370   47.7370 C   0  0  0  0  0  0  0  0  0  0  0  0
   63.4720   32.4950   47.6290 C   0  0  0  0  0  0  0  0  0  0  0  0
   62.9790   33.6760   47.1180 C   0  0  0  0  0  0  0  0  0  0  0  0
   61.6450   33.7810   46.7310 C   0  0  0  0  0  0  0  0  0  0  0  0
   58.5360   33.7890   46.8520 N   0  0  0  0  0  0  0  0  0  0  0  0
   57.3250   33.6270   46.3480 N   0  0  0  0  0  0  0  0  0  0  0  0
   57.3280   32.5290   45.5740 C   0  0  0  0  0  0  0  0  0  0  0  0
   56.3020   32.1370   44.9650 O   0  0  0  0  0  0  0  0  0  0  0  0
   59.7020   28.5700   45.2440 O   0  0  0  0  0  0  0  0  0  0  0  0
   59.0430   27.3840   45.5310 C   0  0  0  0  0  0  0  0  0  0  0  0
   59.5230   26.0980   45.7270 C   0  0  0  0  0  0  0  0  0  0  0  0
   58.6120   25.0860   46.0060 C   0  0  0  0  0  0  0  0  0  0  0  0
   59.0250   23.7740   46.2140 O   0  0  0  0  0  0  0  0  0  0  0  0
   57.2520   25.3380   46.0900 C   0  0  0  0  0  0  0  0  0  0  0  0
   56.7700   26.6170   45.8950 C   0  0  0  0  0  0  0  0  0  0  0  0
   55.4030   26.8800   45.9770 O   0  0  0  0  0  0  0  0  0  0  0  0
   57.6880   27.6080   45.6190 C   0  0  0  0  0  0  0  0  0  0  0  0
   59.7069   31.0494   43.9997 H   0  0  0  0  0  0  0  0  0  0  0  0
   60.5870   30.6830   47.4465 H   0  0  0  0  0  0  0  0  0  0  0  0
   62.9563   30.4797   48.1409 H   0  0  0  0  0  0  0  0  0  0  0  0
   64.5233   32.4003   47.9384 H   0  0  0  0  0  0  0  0  0  0  0  0
   63.6458   34.5448   47.0146 H   0  0  0  0  0  0  0  0  0  0  0  0
   61.2884   34.7402   46.3276 H   0  0  0  0  0  0  0  0  0  0  0  0
   58.7500   34.5980   47.4900 H   0  0  0  0  0  0  0  0  0  0  0  0
   56.4870   34.2600   46.5220 H   0  0  0  0  0  0  0  0  0  0  0  0
   60.6000   25.8836   45.6632 H   0  0  0  0  0  0  0  0  0  0  0  0
   59.2730   23.1390   45.4910 H   0  0  0  0  0  0  0  0  0  0  0  0
   56.5546   24.5169   46.3126 H   0  0  0  0  0  0  0  0  0  0  0  0
   55.1400   27.8610   45.9780 H   0  0  0  0  0  0  0  0  0  0  0  0
  1  2  2  0
  2  3  1  0
  3  4  2  0
  4  5  1  0
  5  6  2  0
  6  7  1  0
  7  8  2  0
  8  9  1  0
  9 10  2  0
 10 11  1  0
 11 12  2  0
  6 13  1  0
 13 14  1  0
 14 15  1  0
 15 16  2  0
  3 17  1  0
 17 18  1  0
 18 19  2  0
 19 20  1  0
 20 21  1  0
 20 22  2  0
 22 23  1  0
 23 24  1  0
 23 25  2  0
 25  2  1  0
 15  5  1  0
 25 18  1  0
 12  7  1  0
  4 26  1  0
  8 27  1  0
  9 28  1  0
 10 29  1  0
 11 30  1  0
 12 31  1  0
 13 32  1  0
 14 33  1  0
 19 34  1  0
 21 35  1  0
 22 36  1  0
 24 37  1  0
M  END
>  <smiles>  (92) 
O=C1C(=Cc2c(-c3ccccc3)[nH][nH]c2=O)Oc2cc(O)cc(O)c21

>  <score_type>  (92) 
oracle

>  <origin>  (92) 
adg

>  <m_score__min__energy>  (92) 
-9.4499999999999993

>  <m_primary>  (92) 
energy

$$$$
92:0
     RDKit          3D

 66 70  0  0  0  0  0  0  0  0999 V2000
   67.1710   29.3000   51.4910 C   0  0  0  0  0  0  0  0  0  0  0  0
   67.3240   30.1910   52.6320 N   0  0  0  0  0  0  0  0  0  0  0  0
   66.8660   31.5490   52.6790 C   0  0  0  0  0  0  0  0  0  0  0  0
   67.2220   32.2760   53.6430 O   0  0  0  0  0  0  0  0  0  0  0  0
   65.9370   32.0990   51.6720 C   0  0  0  0  0  0  0  0  0  0  0  0
   66.3850   32.3460   50.3720 C   0  0  0  0  0  0  0  0  0  0  0  0
   65.5110   32.8820   49.4260 C   0  0  0  0  0  0  0  0  0  0  0  0
   64.2060   33.1590   49.7500 N   0  0  0  0  0  0  0  0  0  0  0  0
   63.3540   33.7030   48.8210 C   0  0  0  0  0  0  0  0  0  0  0  0
   63.7650   33.9620   47.6540 O   0  0  0  0  0  0  0  0  0  0  0  0
   62.0110   33.9780   49.1540 C   0  0  0  0  0  0  0  0  0  0  0  0
   61.0870   34.5860   48.1100 C   0  0  0  0  0  0  0  0  0  0  0  0
   60.2170   33.5540   47.4280 C   0  0  0  0  0  0  0  0  0  0  0  0
   60.5530   32.1860   47.4290 C   0  0  0  0  0  0  0  0  0  0  0  0
   59.7100   31.2470   46.8290 C   0  0  0  0  0  0  0  0  0  0  0  0
   58.4960   31.6490   46.2480 C   0  0  0  0  0  0  0  0  0  0  0  0
   57.6020   30.6500   45.6240 C   0  0  0  0  0  0  0  0  0  0  0  0
   56.6750   31.0440   44.8630 O   0  0  0  0  0  0  0  0  0  0  0  0
   57.8060   29.2440   45.8520 N   0  0  0  0  0  0  0  0  0  0  0  0
   56.8430   28.2320   45.5150 C   0  0  0  0  0  0  0  0  0  0  0  0
   55.7550   28.5520   44.9610 O   0  0  0  0  0  0  0  0  0  0  0  0
   57.1210   26.8010   45.7790 C   0  0  0  0  0  0  0  0  0  0  0  0
   58.4560   26.3570   45.7950 C   0  0  0  0  0  0  0  0  0  0  0  0
   58.7570   25.0150   46.0430 C   0  0  0  0  0  0  0  0  0  0  0  0
   57.7300   24.0980   46.2690 C   0  0  0  0  0  0  0  0  0  0  0  0
   56.3990   24.5200   46.2410 C   0  0  0  0  0  0  0  0  0  0  0  0
   56.0850   25.8650   45.9860 C   0  0  0  0  0  0  0  0  0  0  0  0
   54.7480   26.2590   45.9110 O   0  0  0  0  0  0  0  0  0  0  0  0
   58.1500   33.0100   46.2640 C   0  0  0  0  0  0  0  0  0  0  0  0
   59.0000   33.9520   46.8510 C   0  0  0  0  0  0  0  0  0  0  0  0
   61.5610   33.6350   50.4480 C   0  0  0  0  0  0  0  0  0  0  0  0
   60.1290   33.8640   50.8870 C   0  0  0  0  0  0  0  0  0  0  0  0
   59.3570   32.5770   51.0370 C   0  0  0  0  0  0  0  0  0  0  0  0
   58.1040   32.5780   51.6720 C   0  0  0  0  0  0  0  0  0  0  0  0
   57.3730   31.3910   51.7890 C   0  0  0  0  0  0  0  0  0  0  0  0
   57.8840   30.1980   51.2680 C   0  0  0  0  0  0  0  0  0  0  0  0
   59.1240   30.1930   50.6220 C   0  0  0  0  0  0  0  0  0  0  0  0
   59.8570   31.3770   50.5010 C   0  0  0  0  0  0  0  0  0  0  0  0
   62.4500   33.1230   51.3380 N   0  0  0  0  0  0  0  0  0  0  0  0
   63.7450   32.8870   51.0160 C   0  0  0  0  0  0  0  0  0  0  0  0
   64.5990   32.3540   51.9880 C   0  0  0  0  0  0  0  0  0  0  0  0
   66.9949   28.2744   51.8477 H   0  0  0  0  0  0  0  0  0  0  0  0
   66.3161   29.6281   50.8816 H   0  0  0  0  0  0  0  0  0  0  0  0
   68.0864   29.3241   50.8816 H   0  0  0  0  0  0  0  0  0  0  0  0
   67.4249   32.1183   50.0949 H   0  0  0  0  0  0  0  0  0  0  0  0
   65.8722   33.0854   48.4071 H   0  0  0  0  0  0  0  0  0  0  0  0
   60.4369   35.3240   48.6026 H   0  0  0  0  0  0  0  0  0  0  0  0
   61.7182   35.0505   47.3381 H   0  0  0  0  0  0  0  0  0  0  0  0
   61.4869   31.8542   47.9062 H   0  0  0  0  0  0  0  0  0  0  0  0
   59.9990   30.1858   46.8115 H   0  0  0  0  0  0  0  0  0  0  0  0
   58.7410   28.9410   46.2100 H   0  0  0  0  0  0  0  0  0  0  0  0
   59.2705   27.0729   45.6106 H   0  0  0  0  0  0  0  0  0  0  0  0
   59.8050   24.6812   46.0600 H   0  0  0  0  0  0  0  0  0  0  0  0
   57.9686   23.0430   46.4692 H   0  0  0  0  0  0  0  0  0  0  0  0
   55.5917   23.7946   46.4198 H   0  0  0  0  0  0  0  0  0  0  0  0
   54.3740   26.7160   45.0870 H   0  0  0  0  0  0  0  0  0  0  0  0
   57.2026   33.3374   45.8110 H   0  0  0  0  0  0  0  0  0  0  0  0
   58.7132   35.0139   46.8610 H   0  0  0  0  0  0  0  0  0  0  0  0
   60.1362   34.3857   51.8554 H   0  0  0  0  0  0  0  0  0  0  0  0
   59.6328   34.4621   50.1085 H   0  0  0  0  0  0  0  0  0  0  0  0
   57.6963   33.5152   52.0786 H   0  0  0  0  0  0  0  0  0  0  0  0
   56.3946   31.3960   52.2917 H   0  0  0  0  0  0  0  0  0  0  0  0
   57.3108   29.2643   51.3664 H   0  0  0  0  0  0  0  0  0  0  0  0
   59.5235   29.2554   50.2082 H   0  0  0  0  0  0  0  0  0  0  0  0
   60.8283   31.3700   49.9847 H   0  0  0  0  0  0  0  0  0  0  0  0
   64.2191   32.1364   52.9971 H   0  0  0  0  0  0  0  0  0  0  0  0
  1  2  1  0
  2  3  1  0
  3  4  2  0
  3  5  1  0
  5  6  1  0
  6  7  2  0
  7  8  1  0
  8  9  1  0
  9 10  2  0
  9 11  1  0
 11 12  1  0
 12 13  1  0
 13 14  2  0
 14 15  1  0
 15 16  2  0
 16 17  1  0
 17 18  2  0
 17 19  1  0
 19 20  1  0
 20 21  2  0
 20 22  1  0
 22 23  2  0
 23 24  1  0
 24 25  2  0
 25 26  1  0
 26 27  2  0
 27 28  1  0
 16 29  1  0
 29 30  2  0
 11 31  2  0
 31 32  1  0
 32 33  1  0
 33 34  2  0
 34 35  1  0
 35 36  2  0
 36 37  1  0
 37 38  2  0
 31 39  1  0
 39 40  2  0
 40 41  1  0
 41  5  2  0
 40  8  1  0
 30 13  1  0
 38 33  1  0
 27 22  1  0
  1 42  1  0
  1 43  1  0
  1 44  1  0
  6 45  1  0
  7 46  1  0
 12 47  1  0
 12 48  1  0
 14 49  1  0
 15 50  1  0
 19 51  1  0
 23 52  1  0
 24 53  1  0
 25 54  1  0
 26 55  1  0
 28 56  1  0
 29 57  1  0
 30 58  1  0
 32 59  1  0
 32 60  1  0
 34 61  1  0
 35 62  1  0
 36 63  1  0
 37 64  1  0
 38 65  1  0
 41 66  1  0
M  CHG  1   2  -1
M  END
>  <UniqueID>  (93) 
83

>  <SMILES>  (93) 
C[N-]C(=O)c1ccn2c(=O)c(Cc3ccc(C(=O)NC(=O)c4ccccc4O)cc3)c(Cc3ccccc3)nc2c1

>  <Energy>  (93) 
92.32691411172486

>  <Genealogy>  (93) 
C[N-]C(=O)c1ccn2c(=O)c(Cc3ccc(C(=O)NC(=O)c4ccccc4O)cc3)c(Cc3ccccc3)nc2c1 (protonated)
C[N-]C(=O)c1ccn2c(=O)c(Cc3ccc(C(=O)NC(=O)c4ccccc4O)cc3)c(Cc3ccccc3)nc2c1 (3D coordinates assigned)
C[N-]C(=O)c1ccn2c(=O)c(Cc3ccc(C(=O)NC(=O)c4ccccc4O)cc3)c(Cc3ccccc3)nc2c1 (optimized conformer: 92.32691411172486 kcal/mol)

>  <smiles>  (93) 
CNC(=O)c1ccn2c(=O)c(Cc3ccc(C(=O)NC(=O)c4ccccc4O)cc3)c(Cc3ccccc3)nc2c1

>  <score_type>  (93) 
oracle

>  <origin>  (93) 
adg

>  <m_score__min__energy>  (93) 
-11.789999999999999

>  <m_primary>  (93) 
energy

$$$$
93:0
     RDKit          3D

 53 56  0  0  0  0  0  0  0  0999 V2000
   57.3577   35.4309   45.1711 H   0  0  0  0  0  0  0  0  0  0  0  0
   57.7630   34.4320   45.3900 C   0  0  0  0  0  0  0  0  0  0  0  0
   57.0180   33.3280   45.1370 N   0  0  0  0  0  0  0  0  0  0  0  0
   57.4610   32.0640   45.3840 C   0  0  0  0  0  0  0  0  0  0  0  0
   56.6500   31.0810   45.1020 N   0  0  0  0  0  0  0  0  0  0  0  0
   56.9090   29.8780   44.3680 C   0  0  0  0  0  0  0  0  0  0  0  0
   57.7170   29.9180   43.4020 O   0  0  0  0  0  0  0  0  0  0  0  0
   56.3500   28.6300   44.8120 N   0  0  0  0  0  0  0  0  0  0  0  0
   56.9680   27.6850   45.4600 C   0  0  0  0  0  0  0  0  0  0  0  0
   58.3310   27.6570   45.5390 N   0  0  0  0  0  0  0  0  0  0  0  0
   58.9950   26.6700   46.1970 C   0  0  0  0  0  0  0  0  0  0  0  0
   60.0940   26.6815   46.2416 H   0  0  0  0  0  0  0  0  0  0  0  0
   58.2820   25.6420   46.8160 C   0  0  0  0  0  0  0  0  0  0  0  0
   58.8135   24.8408   47.3504 H   0  0  0  0  0  0  0  0  0  0  0  0
   56.8880   25.6410   46.7500 C   0  0  0  0  0  0  0  0  0  0  0  0
   56.3139   24.8366   47.2331 H   0  0  0  0  0  0  0  0  0  0  0  0
   56.2230   26.6640   46.0690 C   0  0  0  0  0  0  0  0  0  0  0  0
   54.8340   26.6590   45.9990 O   0  0  0  0  0  0  0  0  0  0  0  0
   58.7410   31.8890   45.9830 C   0  0  0  0  0  0  0  0  0  0  0  0
   59.1910   30.6100   46.3470 O   0  0  0  0  0  0  0  0  0  0  0  0
   59.0320   30.0010   47.6290 C   0  0  0  0  0  0  0  0  0  0  0  0
   57.9767   29.7270   47.7748 H   0  0  0  0  0  0  0  0  0  0  0  0
   59.6599   29.0994   47.6832 H   0  0  0  0  0  0  0  0  0  0  0  0
   59.4510   30.9630   48.7050 C   0  0  0  0  0  0  0  0  0  0  0  0
   58.4950   31.7970   49.3040 C   0  0  0  0  0  0  0  0  0  0  0  0
   57.4378   31.7183   49.0104 H   0  0  0  0  0  0  0  0  0  0  0  0
   58.8810   32.7260   50.2710 C   0  0  0  0  0  0  0  0  0  0  0  0
   58.1238   33.3602   50.7552 H   0  0  0  0  0  0  0  0  0  0  0  0
   60.2260   32.8530   50.6260 C   0  0  0  0  0  0  0  0  0  0  0  0
   60.5217   33.5789   51.3978 H   0  0  0  0  0  0  0  0  0  0  0  0
   61.2030   32.0590   50.0030 C   0  0  0  0  0  0  0  0  0  0  0  0
   62.6730   32.2310   50.3430 C   0  0  0  0  0  0  0  0  0  0  0  0
   62.7458   32.5885   51.3807 H   0  0  0  0  0  0  0  0  0  0  0  0
   63.1456   31.2493   50.1914 H   0  0  0  0  0  0  0  0  0  0  0  0
   63.4000   33.1880   49.4710 N   0  0  0  0  0  0  0  0  0  0  0  0
   62.5410   34.2070   48.8560 C   0  0  0  0  0  0  0  0  0  0  0  0
   61.5786   34.2528   49.3868 H   0  0  0  0  0  0  0  0  0  0  0  0
   63.0212   35.1950   48.9141 H   0  0  0  0  0  0  0  0  0  0  0  0
   62.3100   33.8180   47.4010 C   0  0  0  0  0  0  0  0  0  0  0  0
   61.2808   33.4561   47.2602 H   0  0  0  0  0  0  0  0  0  0  0  0
   62.4474   34.6758   46.7263 H   0  0  0  0  0  0  0  0  0  0  0  0
   63.3050   32.7100   47.1050 C   0  0  0  0  0  0  0  0  0  0  0  0
   62.7779   31.7721   46.8759 H   0  0  0  0  0  0  0  0  0  0  0  0
   63.9317   32.9489   46.2331 H   0  0  0  0  0  0  0  0  0  0  0  0
   64.1370   32.5560   48.3700 C   0  0  0  0  0  0  0  0  0  0  0  0
   64.2930   31.4891   48.5878 H   0  0  0  0  0  0  0  0  0  0  0  0
   65.1209   33.0313   48.2432 H   0  0  0  0  0  0  0  0  0  0  0  0
   60.8010   31.0920   49.0650 C   0  0  0  0  0  0  0  0  0  0  0  0
   61.5520   30.4302   48.6089 H   0  0  0  0  0  0  0  0  0  0  0  0
   59.5280   33.0320   46.2210 C   0  0  0  0  0  0  0  0  0  0  0  0
   60.5375   32.9208   46.6435 H   0  0  0  0  0  0  0  0  0  0  0  0
   59.0390   34.3020   45.9260 C   0  0  0  0  0  0  0  0  0  0  0  0
   59.6559   35.1929   46.1151 H   0  0  0  0  0  0  0  0  0  0  0  0
  1  2  1  0
  2  3  1  0
  3  4  1  0
  4  5  2  3
  5  6  1  0
  6  7  2  0
  6  8  1  0
  8  9  2  0
  9 10  1  0
 10 11  1  0
 11 12  1  0
 11 13  2  0
 13 14  1  0
 13 15  1  0
 15 16  1  0
 15 17  2  0
 17 18  1  0
  4 19  1  0
 19 20  1  0
 20 21  1  0
 21 22  1  0
 21 23  1  0
 21 24  1  0
 24 25  2  0
 25 26  1  0
 25 27  1  0
 27 28  1  0
 27 29  2  0
 29 30  1  0
 29 31  1  0
 31 32  1  0
 32 33  1  0
 32 34  1  0
 32 35  1  0
 35 36  1  0
 36 37  1  0
 36 38  1  0
 36 39  1  0
 39 40  1  0
 39 41  1  0
 39 42  1  0
 42 43  1  0
 42 44  1  0
 42 45  1  0
 45 46  1  0
 45 47  1  0
 31 48  2  0
 48 49  1  0
 19 50  2  0
 50 51  1  0
 50 52  1  0
 52 53  1  0
 52  2  2  0
 17  9  1  0
 48 24  1  0
 45 35  1  0
M  CHG  3   3  -1  10  -1  18  -1
M  END
>  <UniqueID>  (94) 
84

>  <SMILES>  (94) 
O=C(N=c1[n-]cccc1OCc1cccc(CN2CCCC2)c1)/N=c1\[n-]cccc1[O-]

>  <Energy>  (94) 
74.83619926984869

>  <Genealogy>  (94) 
O=C(N=c1[n-]cccc1[O-])N=c1[n-]cccc1OCc1cccc(CN2CCCC2)c1 (protonated)
O=C(N=c1[n-]cccc1OCc1cccc(CN2CCCC2)c1)/N=c1\[n-]cccc1[O-] (cis-trans isomerization)
O=C(N=c1[n-]cccc1OCc1cccc(CN2CCCC2)c1)/N=c1\[n-]cccc1[O-] (3D coordinates assigned)
O=C(N=c1[n-]cccc1OCc1cccc(CN2CCCC2)c1)/N=c1\[n-]cccc1[O-] (nonaromatic ring conformer: 74.83619926984869 kcal/mol)

>  <smiles>  (94) 
O=C(N=c1[nH]cccc1O)N=c1[nH]cccc1OCc1cccc(CN2CCCC2)c1

>  <score_type>  (94) 
oracle

>  <origin>  (94) 
adg

>  <m_score__min__energy>  (94) 
-15.359999999999999

>  <m_primary>  (94) 
energy

$$$$
94:0
     RDKit          3D

 37 40  0  0  0  0  0  0  0  0999 V2000
   59.2481   28.2152   49.2442 H   0  0  0  0  0  0  0  0  0  0  0  0
   59.3150   29.3030   49.0950 C   0  0  0  0  0  0  0  0  0  0  0  0
   58.5330   30.1390   49.8280 N   0  0  0  0  0  0  0  0  0  0  0  0
   58.5730   31.4930   49.6910 C   0  0  0  0  0  0  0  0  0  0  0  0
   57.7850   32.2000   50.4550 N   0  0  0  0  0  0  0  0  0  0  0  0
   57.4740   32.0230   51.8450 C   0  0  0  0  0  0  0  0  0  0  0  0
   57.9560   32.8160   52.7000 O   0  0  0  0  0  0  0  0  0  0  0  0
   56.6870   30.8470   52.2880 C   0  0  0  0  0  0  0  0  0  0  0  0
   57.3250   29.7470   52.8840 C   0  0  0  0  0  0  0  0  0  0  0  0
   58.4137   29.7670   53.0398 H   0  0  0  0  0  0  0  0  0  0  0  0
   56.5910   28.6300   53.2800 C   0  0  0  0  0  0  0  0  0  0  0  0
   57.1062   27.7720   53.7365 H   0  0  0  0  0  0  0  0  0  0  0  0
   55.2030   28.5920   53.1010 C   0  0  0  0  0  0  0  0  0  0  0  0
   54.4820   27.4500   53.4770 C   0  0  0  0  0  0  0  0  0  0  0  0
   55.0074   26.5936   53.9248 H   0  0  0  0  0  0  0  0  0  0  0  0
   53.1030   27.3950   53.2860 C   0  0  0  0  0  0  0  0  0  0  0  0
   52.5460   26.4901   53.5705 H   0  0  0  0  0  0  0  0  0  0  0  0
   52.4270   28.4820   52.7360 C   0  0  0  0  0  0  0  0  0  0  0  0
   51.3382   28.4263   52.5896 H   0  0  0  0  0  0  0  0  0  0  0  0
   53.1170   29.6480   52.3660 C   0  0  0  0  0  0  0  0  0  0  0  0
   52.3240   30.7900   51.8540 C   0  0  0  0  0  0  0  0  0  0  0  0
   51.7230   30.8960   50.6150 C   0  0  0  0  0  0  0  0  0  0  0  0
   51.8280   29.9610   49.5920 O   0  0  0  0  0  0  0  0  0  0  0  0
   51.0130   32.0340   50.4980 N   0  0  0  0  0  0  0  0  0  0  0  0
   51.1620   32.6450   51.6900 C   0  0  0  0  0  0  0  0  0  0  0  0
   50.5740   33.8640   51.9990 O   0  0  0  0  0  0  0  0  0  0  0  0
   51.9500   31.9170   52.5560 C   0  0  0  0  0  0  0  0  0  0  0  0
   52.2229   32.1795   53.5888 H   0  0  0  0  0  0  0  0  0  0  0  0
   54.5290   29.7030   52.5290 C   0  0  0  0  0  0  0  0  0  0  0  0
   55.2920   30.8130   52.1070 C   0  0  0  0  0  0  0  0  0  0  0  0
   54.7877   31.6656   51.6287 H   0  0  0  0  0  0  0  0  0  0  0  0
   59.4320   32.0520   48.7080 C   0  0  0  0  0  0  0  0  0  0  0  0
   59.4520   33.4110   48.4180 O   0  0  0  0  0  0  0  0  0  0  0  0
   60.2540   31.2030   47.9610 C   0  0  0  0  0  0  0  0  0  0  0  0
   60.9455   31.6252   47.2170 H   0  0  0  0  0  0  0  0  0  0  0  0
   60.2010   29.8240   48.1550 C   0  0  0  0  0  0  0  0  0  0  0  0
   60.8513   29.1548   47.5726 H   0  0  0  0  0  0  0  0  0  0  0  0
  1  2  1  0
  2  3  1  0
  3  4  1  0
  4  5  2  0
  5  6  1  0
  6  7  2  0
  6  8  1  0
  8  9  2  0
  9 10  1  0
  9 11  1  0
 11 12  1  0
 11 13  2  0
 13 14  1  0
 14 15  1  0
 14 16  2  0
 16 17  1  0
 16 18  1  0
 18 19  1  0
 18 20  2  0
 20 21  1  0
 21 22  2  0
 22 23  1  0
 22 24  1  0
 24 25  1  0
 25 26  1  0
 25 27  2  0
 27 28  1  0
 20 29  1  0
 29 30  2  0
 30 31  1  0
  4 32  1  0
 32 33  1  0
 32 34  2  0
 34 35  1  0
 34 36  1  0
 36 37  1  0
 36  2  2  0
 30  8  1  0
 29 13  1  0
 27 21  1  0
M  CHG  5   3  -1  23  -1  24  -1  26  -1  33  -1
M  END
>  <UniqueID>  (95) 
85

>  <SMILES>  (95) 
O=C(/N=c1/[n-]cccc1[O-])c1ccc2cccc(-c3cc([O-])[n-]c3[O-])c2c1

>  <Energy>  (95) 
93.53398979818363

>  <Genealogy>  (95) 
O=C(N=c1[n-]cccc1[O-])c1ccc2cccc(-c3cc([O-])[n-]c3[O-])c2c1 (protonated)
O=C(/N=c1/[n-]cccc1[O-])c1ccc2cccc(-c3cc([O-])[n-]c3[O-])c2c1 (cis-trans isomerization)
O=C(/N=c1/[n-]cccc1[O-])c1ccc2cccc(-c3cc([O-])[n-]c3[O-])c2c1 (3D coordinates assigned)
O=C(/N=c1/[n-]cccc1[O-])c1ccc2cccc(-c3cc([O-])[n-]c3[O-])c2c1 (optimized conformer: 93.53398979818363 kcal/mol)

>  <smiles>  (95) 
O=C(N=c1[nH]cccc1O)c1ccc2cccc(-c3cc(O)[nH]c3O)c2c1

>  <score_type>  (95) 
oracle

>  <origin>  (95) 
adg

>  <m_score__min__energy>  (95) 
-18.530000000000001

>  <m_primary>  (95) 
energy

$$$$
95:0
     RDKit          3D

 36 38  0  0  0  0  0  0  0  0999 V2000
   51.0170   30.2590   48.2350 O   0  0  0  0  0  0  0  0  0  0  0  0
   51.3020   30.8390   49.3160 C   0  0  0  0  0  0  0  0  0  0  0  0
   50.7200   31.9970   49.6940 N   0  0  0  0  0  0  0  0  0  0  0  0
   51.3060   32.2480   50.8750 C   0  0  0  0  0  0  0  0  0  0  0  0
   51.0350   33.3680   51.6520 O   0  0  0  0  0  0  0  0  0  0  0  0
   52.2040   31.2530   51.1820 C   0  0  0  0  0  0  0  0  0  0  0  0
   53.1090   31.1970   52.3760 C   0  0  0  0  0  0  0  0  0  0  0  0
   54.5830   31.0830   51.9690 C   0  0  0  0  0  0  0  0  0  0  0  0
   55.3400   30.1260   52.8610 C   0  0  0  0  0  0  0  0  0  0  0  0
   54.7700   29.7290   54.0830 C   0  0  0  0  0  0  0  0  0  0  0  0
   55.4630   28.8730   54.9420 C   0  0  0  0  0  0  0  0  0  0  0  0
   56.7360   28.4180   54.5990 C   0  0  0  0  0  0  0  0  0  0  0  0
   57.3190   28.8140   53.3940 C   0  0  0  0  0  0  0  0  0  0  0  0
   56.6250   29.6600   52.5090 C   0  0  0  0  0  0  0  0  0  0  0  0
   57.2100   30.0940   51.3090 O   0  0  0  0  0  0  0  0  0  0  0  0
   57.9650   31.2640   51.1450 C   0  0  0  0  0  0  0  0  0  0  0  0
   58.9300   31.3060   50.1320 C   0  0  0  0  0  0  0  0  0  0  0  0
   59.7110   32.4500   49.9460 C   0  0  0  0  0  0  0  0  0  0  0  0
   59.5420   33.5570   50.7820 C   0  0  0  0  0  0  0  0  0  0  0  0
   58.5920   33.5200   51.8130 C   0  0  0  0  0  0  0  0  0  0  0  0
   58.4240   34.6110   52.6610 O   0  0  0  0  0  0  0  0  0  0  0  0
   57.8100   32.3730   51.9960 C   0  0  0  0  0  0  0  0  0  0  0  0
   52.2160   30.3530   50.1830 N   0  0  0  0  0  0  0  0  0  0  0  0
   52.9733   32.1136   52.9689 H   0  0  0  0  0  0  0  0  0  0  0  0
   52.8463   30.3041   52.9623 H   0  0  0  0  0  0  0  0  0  0  0  0
   54.6388   30.7221   50.9314 H   0  0  0  0  0  0  0  0  0  0  0  0
   55.0424   32.0776   52.0674 H   0  0  0  0  0  0  0  0  0  0  0  0
   53.7716   30.0949   54.3646 H   0  0  0  0  0  0  0  0  0  0  0  0
   55.0041   28.5572   55.8905 H   0  0  0  0  0  0  0  0  0  0  0  0
   57.2811   27.7465   55.2786 H   0  0  0  0  0  0  0  0  0  0  0  0
   58.3283   28.4622   53.1343 H   0  0  0  0  0  0  0  0  0  0  0  0
   59.0746   30.4332   49.4783 H   0  0  0  0  0  0  0  0  0  0  0  0
   60.4596   32.4791   49.1406 H   0  0  0  0  0  0  0  0  0  0  0  0
   60.1546   34.4581   50.6313 H   0  0  0  0  0  0  0  0  0  0  0  0
   58.0460   35.4890   52.3270 H   0  0  0  0  0  0  0  0  0  0  0  0
   57.0705   32.3391   52.8096 H   0  0  0  0  0  0  0  0  0  0  0  0
  1  2  2  0
  2  3  1  0
  3  4  1  0
  4  5  1  0
  4  6  2  0
  6  7  1  0
  7  8  1  0
  8  9  1  0
  9 10  2  0
 10 11  1  0
 11 12  2  0
 12 13  1  0
 13 14  2  0
 14 15  1  0
 15 16  1  0
 16 17  2  0
 17 18  1  0
 18 19  2  0
 19 20  1  0
 20 21  1  0
 20 22  2  0
  6 23  1  0
 23  2  1  0
 14  9  1  0
 22 16  1  0
  7 24  1  0
  7 25  1  0
  8 26  1  0
  8 27  1  0
 10 28  1  0
 11 29  1  0
 12 30  1  0
 13 31  1  0
 17 32  1  0
 18 33  1  0
 19 34  1  0
 21 35  1  0
 22 36  1  0
M  CHG  3   3  -1   5  -1  23  -1
M  END
>  <UniqueID>  (96) 
86

>  <SMILES>  (96) 
O=c1[n-]c([O-])c(CCc2ccccc2Oc2cccc(O)c2)[n-]1

>  <Energy>  (96) 
69.34303199442662

>  <Genealogy>  (96) 
O=c1[n-]c([O-])c(CCc2ccccc2Oc2cccc(O)c2)[n-]1 (protonated)
O=c1[n-]c([O-])c(CCc2ccccc2Oc2cccc(O)c2)[n-]1 (3D coordinates assigned)
O=c1[n-]c([O-])c(CCc2ccccc2Oc2cccc(O)c2)[n-]1 (optimized conformer: 69.34303199442662 kcal/mol)

>  <smiles>  (96) 
O=c1[nH]c(O)c(CCc2ccccc2Oc2cccc(O)c2)[nH]1

>  <score_type>  (96) 
oracle

>  <origin>  (96) 
adg

>  <m_score__min__energy>  (96) 
-16.390000000000001

>  <m_primary>  (96) 
energy

$$$$
96:0
     RDKit          3D

 15 15  0  0  0  0  0  0  0  0999 V2000
   54.5690   26.0900   45.8840 N   0  0  0  0  0  0  0  0  0  0  0  0
   55.9680   26.1270   46.1570 C   0  0  0  0  0  0  0  0  0  0  0  0
   56.4990   25.1640   46.7720 O   0  0  0  0  0  0  0  0  0  0  0  0
   56.7870   27.2820   45.7220 C   0  0  0  0  0  0  0  0  0  0  0  0
   58.1900   27.2140   45.7670 C   0  0  0  0  0  0  0  0  0  0  0  0
   58.9490   28.3090   45.3560 C   0  0  0  0  0  0  0  0  0  0  0  0
   58.3130   29.4630   44.9030 C   0  0  0  0  0  0  0  0  0  0  0  0
   56.9170   29.5070   44.8670 C   0  0  0  0  0  0  0  0  0  0  0  0
   56.3330   30.5450   44.4590 O   0  0  0  0  0  0  0  0  0  0  0  0
   56.1880   28.4280   45.2730 N   0  0  0  0  0  0  0  0  0  0  0  0
   53.9080   26.7250   46.3830 H   0  0  0  0  0  0  0  0  0  0  0  0
   58.6874   26.3005   46.1250 H   0  0  0  0  0  0  0  0  0  0  0  0
   60.0475   28.2619   45.3893 H   0  0  0  0  0  0  0  0  0  0  0  0
   58.9044   30.3312   44.5768 H   0  0  0  0  0  0  0  0  0  0  0  0
   55.1450   28.4930   45.2340 H   0  0  0  0  0  0  0  0  0  0  0  0
  1  2  1  0
  2  3  2  0
  2  4  1  0
  4  5  2  0
  5  6  1  0
  6  7  2  0
  7  8  1  0
  8  9  2  0
  8 10  1  0
 10  4  1  0
  1 11  1  0
  5 12  1  0
  6 13  1  0
  7 14  1  0
 10 15  1  0
M  CHG  1   1  -1
M  END
>  <UniqueID>  (97) 
87

>  <SMILES>  (97) 
[NH-]C(=O)c1cccc(=O)[nH]1

>  <Energy>  (97) 
14.238239453425681

>  <Genealogy>  (97) 
[NH-]C(=O)c1cccc(=O)[nH]1 (protonated)
[NH-]C(=O)c1cccc(=O)[nH]1 (3D coordinates assigned)
[NH-]C(=O)c1cccc(=O)[nH]1 (optimized conformer: 14.238239453425681 kcal/mol)

>  <smiles>  (97) 
NC(=O)c1cccc(=O)[nH]1

>  <score_type>  (97) 
oracle

>  <origin>  (97) 
adg

>  <m_score__min__energy>  (97) 
-9.0700000000000003

>  <m_primary>  (97) 
energy

$$$$
