0:0
     RDKit          3D

 36 38  0  0  1  0  0  0  0  0999 V2000
   63.0380   32.8740   47.3260 C   0  0  0  0  0  0  0  0  0  0  0  0
   61.5900   33.1370   47.1070 C   0  0  0  0  0  0  0  0  0  0  0  0
   60.6470   32.2980   47.6540 C   0  0  0  0  0  0  0  0  0  0  0  0
   59.2870   32.5290   47.4600 C   0  0  0  0  0  0  0  0  0  0  0  0
   58.8860   33.6220   46.7020 C   0  0  0  0  0  0  0  0  0  0  0  0
   57.4070   33.8330   46.5160 C   0  0  0  0  0  0  0  0  0  0  0  0
   57.1630   33.5840   45.1090 N   0  0  0  0  0  0  0  0  0  0  0  0
   57.3640   32.3970   44.6440 C   0  0  0  0  0  0  0  0  0  0  0  0
   57.3600   31.2110   45.2950 N   0  0  0  0  0  0  0  0  0  0  0  0
   57.6180   30.2150   44.4230 C   0  0  0  0  0  0  0  0  0  0  0  0
   57.7150   28.7810   44.6550 C   0  0  0  0  0  0  0  0  0  0  0  0
   57.4750   28.3280   45.9380 C   0  0  0  0  0  0  0  0  0  0  0  0
   57.5540   26.9640   46.2200 C   0  0  0  0  0  0  0  0  0  0  0  0
   57.8760   26.0990   45.1940 C   0  0  0  0  0  0  0  0  0  0  0  0
   58.1200   26.5360   43.8990 C   0  0  0  0  0  0  0  0  0  0  0  0
   58.0350   27.9050   43.6390 C   0  0  0  0  0  0  0  0  0  0  0  0
   57.7830   30.7970   43.2220 N   0  0  0  0  0  0  0  0  0  0  0  0
   57.6320   32.1240   43.3440 N   0  0  0  0  0  0  0  0  0  0  0  0
   59.8140   34.4800   46.1400 C   0  0  0  0  0  0  0  0  0  0  0  0
   61.1610   34.2140   46.3590 C   0  0  0  0  0  0  0  0  0  0  0  0
   63.2446   32.8365   48.4058 H   0  0  0  0  0  0  0  0  0  0  0  0
   63.3094   31.9119   46.8671 H   0  0  0  0  0  0  0  0  0  0  0  0
   63.6304   33.6792   46.8671 H   0  0  0  0  0  0  0  0  0  0  0  0
   60.9710   31.4336   48.2522 H   0  0  0  0  0  0  0  0  0  0  0  0
   58.5393   31.8539   47.9018 H   0  0  0  0  0  0  0  0  0  0  0  0
   56.8354   33.1281   47.1375 H   0  0  0  0  0  0  0  0  0  0  0  0
   57.0945   34.8443   46.8154 H   0  0  0  0  0  0  0  0  0  0  0  0
   57.2220   29.0417   46.7359 H   0  0  0  0  0  0  0  0  0  0  0  0
   57.3642   26.5870   47.2358 H   0  0  0  0  0  0  0  0  0  0  0  0
   57.9418   25.0225   45.4104 H   0  0  0  0  0  0  0  0  0  0  0  0
   58.3732   25.8235   43.1001 H   0  0  0  0  0  0  0  0  0  0  0  0
   58.2232   28.2849   42.6240 H   0  0  0  0  0  0  0  0  0  0  0  0
   57.9970   30.3740   42.2900 H   0  0  0  0  0  0  0  0  0  0  0  0
   57.7040   32.8410   42.5770 H   0  0  0  0  0  0  0  0  0  0  0  0
   59.4965   35.3450   45.5391 H   0  0  0  0  0  0  0  0  0  0  0  0
   61.9122   34.8869   45.9198 H   0  0  0  0  0  0  0  0  0  0  0  0
  1  2  1  0
  2  3  2  0
  3  4  1  0
  4  5  2  0
  5  6  1  0
  6  7  1  0
  7  8  2  0
  8  9  1  0
  9 10  2  0
 10 11  1  0
 11 12  2  0
 12 13  1  0
 13 14  2  0
 14 15  1  0
 15 16  2  0
 10 17  1  0
 17 18  1  0
  5 19  1  0
 19 20  2  0
 20  2  1  0
 18  8  1  0
 16 11  1  0
  1 21  1  0
  1 22  1  0
  1 23  1  0
  3 24  1  0
  4 25  1  0
  6 26  1  0
  6 27  1  0
 12 28  1  0
 13 29  1  0
 14 30  1  0
 15 31  1  0
 16 32  1  0
 17 33  1  0
 18 34  1  0
 19 35  1  0
 20 36  1  0
M  END
>  <smiles>  (1) 
Cc1ccc(CN=c2nc(-c3ccccc3)[nH][nH]2)cc1

>  <score_type>  (1) 
oracle

>  <origin>  (1) 
adg

>  <m_score__min__energy>  (1) 
-7.6100000000000003

>  <m_primary>  (1) 
energy

$$$$
1:0
     RDKit          3D

 38 40  0  0  0  0  0  0  0  0999 V2000
   59.0950   25.7610   47.0850 O   0  0  0  0  0  0  0  0  0  0  0  0
   57.9350   25.6580   46.6080 C   0  0  0  0  0  0  0  0  0  0  0  0
   57.2180   24.4340   46.8290 N   0  0  0  0  0  0  0  0  0  0  0  0
   56.0750   23.9470   46.0690 C   0  0  0  0  0  0  0  0  0  0  0  0
   56.5600   23.0380   44.9780 C   0  0  0  0  0  0  0  0  0  0  0  0
   56.1480   23.2320   43.6520 C   0  0  0  0  0  0  0  0  0  0  0  0
   56.5790   22.3580   42.6530 C   0  0  0  0  0  0  0  0  0  0  0  0
   57.4090   21.2870   42.9910 C   0  0  0  0  0  0  0  0  0  0  0  0
   57.7900   21.0990   44.2830 N   0  0  0  0  0  0  0  0  0  0  0  0
   57.3820   21.9390   45.2740 C   0  0  0  0  0  0  0  0  0  0  0  0
   57.3670   26.8200   45.8920 C   0  0  0  0  0  0  0  0  0  0  0  0
   58.0430   27.7950   45.1790 C   0  0  0  0  0  0  0  0  0  0  0  0
   57.0440   28.6590   44.7870 C   0  0  0  0  0  0  0  0  0  0  0  0
   57.2120   29.9060   43.9780 C   0  0  0  0  0  0  0  0  0  0  0  0
   56.6780   31.0300   44.6760 O   0  0  0  0  0  0  0  0  0  0  0  0
   57.4350   32.0780   45.2240 C   0  0  0  0  0  0  0  0  0  0  0  0
   57.3850   33.3300   44.5970 C   0  0  0  0  0  0  0  0  0  0  0  0
   58.1160   34.4080   45.1040 C   0  0  0  0  0  0  0  0  0  0  0  0
   58.9080   34.2430   46.2440 C   0  0  0  0  0  0  0  0  0  0  0  0
   58.9700   32.9990   46.8760 C   0  0  0  0  0  0  0  0  0  0  0  0
   59.7410   32.8380   47.9800 F   0  0  0  0  0  0  0  0  0  0  0  0
   58.2390   31.9170   46.3710 C   0  0  0  0  0  0  0  0  0  0  0  0
   55.8950   28.2180   45.2400 O   0  0  0  0  0  0  0  0  0  0  0  0
   56.0520   27.1190   45.9170 N   0  0  0  0  0  0  0  0  0  0  0  0
   55.3985   23.3928   46.7362 H   0  0  0  0  0  0  0  0  0  0  0  0
   55.5341   24.7976   45.6286 H   0  0  0  0  0  0  0  0  0  0  0  0
   55.4853   24.0728   43.3992 H   0  0  0  0  0  0  0  0  0  0  0  0
   56.2678   22.5113   41.6091 H   0  0  0  0  0  0  0  0  0  0  0  0
   57.7555   20.5938   42.2104 H   0  0  0  0  0  0  0  0  0  0  0  0
   58.4060   20.2900   44.5210 H   0  0  0  0  0  0  0  0  0  0  0  0
   57.6980   21.7556   46.3116 H   0  0  0  0  0  0  0  0  0  0  0  0
   59.1216   27.8637   44.9741 H   0  0  0  0  0  0  0  0  0  0  0  0
   58.2826   30.0729   43.7882 H   0  0  0  0  0  0  0  0  0  0  0  0
   56.6722   29.7885   43.0268 H   0  0  0  0  0  0  0  0  0  0  0  0
   56.7653   33.4656   43.6983 H   0  0  0  0  0  0  0  0  0  0  0  0
   58.0680   35.3873   44.6054 H   0  0  0  0  0  0  0  0  0  0  0  0
   59.4820   35.0923   46.6430 H   0  0  0  0  0  0  0  0  0  0  0  0
   58.2921   30.9384   46.8705 H   0  0  0  0  0  0  0  0  0  0  0  0
  1  2  2  0
  2  3  1  0
  3  4  1  0
  4  5  1  0
  5  6  2  0
  6  7  1  0
  7  8  2  0
  8  9  1  0
  9 10  2  0
  2 11  1  0
 11 12  1  0
 12 13  2  0
 13 14  1  0
 14 15  1  0
 15 16  1  0
 16 17  2  0
 17 18  1  0
 18 19  2  0
 19 20  1  0
 20 21  1  0
 20 22  2  0
 13 23  1  0
 23 24  1  0
 10  5  1  0
 24 11  2  0
 22 16  1  0
  4 25  1  0
  4 26  1  0
  6 27  1  0
  7 28  1  0
  8 29  1  0
  9 30  1  0
 10 31  1  0
 12 32  1  0
 14 33  1  0
 14 34  1  0
 17 35  1  0
 18 36  1  0
 19 37  1  0
 22 38  1  0
M  CHG  2   3  -1   9   1
M  END
>  <UniqueID>  (2) 
1

>  <SMILES>  (2) 
O=C([N-]Cc1ccc[nH+]c1)c1cc(COc2cccc(F)c2)on1

>  <Energy>  (2) 
71.24796305925

>  <Genealogy>  (2) 
O=C([N-]Cc1ccc[nH+]c1)c1cc(COc2cccc(F)c2)on1 (protonated)
O=C([N-]Cc1ccc[nH+]c1)c1cc(COc2cccc(F)c2)on1 (3D coordinates assigned)
O=C([N-]Cc1ccc[nH+]c1)c1cc(COc2cccc(F)c2)on1 (optimized conformer: 71.24796305925 kcal/mol)

>  <smiles>  (2) 
O=C(NCc1cccnc1)c1cc(COc2cccc(F)c2)on1

>  <score_type>  (2) 
oracle

>  <origin>  (2) 
adg

>  <m_score__min__energy>  (2) 
-8.8200000000000003

>  <m_primary>  (2) 
energy

$$$$
2:0
     RDKit          3D

 54 57  0  0  0  0  0  0  0  0999 V2000
   51.7960   28.0840   53.0910 C   0  0  0  0  0  0  0  0  0  0  0  0
   52.4650   29.2370   52.5870 O   0  0  0  0  0  0  0  0  0  0  0  0
   53.8350   29.4940   52.7500 C   0  0  0  0  0  0  0  0  0  0  0  0
   54.6890   28.6000   53.4260 C   0  0  0  0  0  0  0  0  0  0  0  0
   56.0480   28.8890   53.5600 C   0  0  0  0  0  0  0  0  0  0  0  0
   56.5710   30.0690   53.0240 C   0  0  0  0  0  0  0  0  0  0  0  0
   58.3210   30.4260   53.1840 S   0  0  0  0  0  0  0  0  0  0  0  0
   58.5630   30.4290   51.4130 C   0  0  0  0  0  0  0  0  0  0  0  0
   58.9930   29.3030   50.7870 N   0  0  0  0  0  0  0  0  0  0  0  0
   59.2020   29.2790   49.4450 C   0  0  0  0  0  0  0  0  0  0  0  0
   59.6030   28.2130   48.9030 O   0  0  0  0  0  0  0  0  0  0  0  0
   58.9700   30.4360   48.6820 C   0  0  0  0  0  0  0  0  0  0  0  0
   59.1740   30.4780   47.2910 C   0  0  0  0  0  0  0  0  0  0  0  0
   58.9260   31.6650   46.5740 C   0  0  0  0  0  0  0  0  0  0  0  0
   59.1300   31.7570   45.1890 O   0  0  0  0  0  0  0  0  0  0  0  0
   58.1240   31.6870   44.2160 C   0  0  0  0  0  0  0  0  0  0  0  0
   57.4320   32.7080   43.9410 O   0  0  0  0  0  0  0  0  0  0  0  0
   57.9570   30.4620   43.4650 N   0  0  0  0  0  0  0  0  0  0  0  0
   56.6090   30.3970   42.8630 C   0  0  0  0  0  0  0  0  0  0  0  0
   55.5130   30.0720   43.9090 C   0  0  0  0  0  0  0  0  0  0  0  0
   56.0250   29.5580   45.1250 O   0  0  0  0  0  0  0  0  0  0  0  0
   57.0180   28.5910   44.8640 C   0  0  0  0  0  0  0  0  0  0  0  0
   58.2740   29.2550   44.2700 C   0  0  0  0  0  0  0  0  0  0  0  0
   58.5050   32.8090   47.2620 C   0  0  0  0  0  0  0  0  0  0  0  0
   58.2990   32.7730   48.6440 C   0  0  0  0  0  0  0  0  0  0  0  0
   58.5270   31.5940   49.3560 C   0  0  0  0  0  0  0  0  0  0  0  0
   58.3340   31.5620   50.7000 N   0  0  0  0  0  0  0  0  0  0  0  0
   55.7310   30.9660   52.3580 C   0  0  0  0  0  0  0  0  0  0  0  0
   54.3580   30.6820   52.2140 C   0  0  0  0  0  0  0  0  0  0  0  0
   53.4830   31.5540   51.5460 O   0  0  0  0  0  0  0  0  0  0  0  0
   52.3950   31.1350   50.7270 C   0  0  0  0  0  0  0  0  0  0  0  0
   51.3970   32.2390   50.6290 C   0  0  0  0  0  0  0  0  0  0  0  0
   50.9010   32.7370   51.6740 O   0  0  0  0  0  0  0  0  0  0  0  0
   51.0020   32.7160   49.3850 O   0  0  0  0  0  0  0  0  0  0  0  0
   51.8079   28.1046   54.1907 H   0  0  0  0  0  0  0  0  0  0  0  0
   50.7550   28.0795   52.7356 H   0  0  0  0  0  0  0  0  0  0  0  0
   52.3087   27.1780   52.7356 H   0  0  0  0  0  0  0  0  0  0  0  0
   54.2828   27.6699   53.8501 H   0  0  0  0  0  0  0  0  0  0  0  0
   56.7089   28.1864   54.0887 H   0  0  0  0  0  0  0  0  0  0  0  0
   59.5282   29.5813   46.7614 H   0  0  0  0  0  0  0  0  0  0  0  0
   58.6450   30.4990   42.6760 H   0  0  0  0  0  0  0  0  0  0  0  0
   56.3804   31.3690   42.4015 H   0  0  0  0  0  0  0  0  0  0  0  0
   56.6123   29.5888   42.1168 H   0  0  0  0  0  0  0  0  0  0  0  0
   54.9569   30.9953   44.1284 H   0  0  0  0  0  0  0  0  0  0  0  0
   54.8721   29.2914   43.4731 H   0  0  0  0  0  0  0  0  0  0  0  0
   57.2859   28.0846   45.8030 H   0  0  0  0  0  0  0  0  0  0  0  0
   56.6241   27.8628   44.1397 H   0  0  0  0  0  0  0  0  0  0  0  0
   58.9412   29.5469   45.0944 H   0  0  0  0  0  0  0  0  0  0  0  0
   58.7512   28.5245   43.6002 H   0  0  0  0  0  0  0  0  0  0  0  0
   58.3347   33.7451   46.7099 H   0  0  0  0  0  0  0  0  0  0  0  0
   57.9566   33.6754   49.1716 H   0  0  0  0  0  0  0  0  0  0  0  0
   56.1435   31.8980   51.9443 H   0  0  0  0  0  0  0  0  0  0  0  0
   52.7665   30.8855   49.7222 H   0  0  0  0  0  0  0  0  0  0  0  0
   51.9201   30.2478   51.1713 H   0  0  0  0  0  0  0  0  0  0  0  0
  1  2  1  0
  2  3  1  0
  3  4  2  0
  4  5  1  0
  5  6  2  0
  6  7  1  0
  7  8  1  0
  8  9  2  0
  9 10  1  0
 10 11  2  0
 10 12  1  0
 12 13  2  0
 13 14  1  0
 14 15  1  0
 15 16  1  0
 16 17  2  0
 16 18  1  0
 18 19  1  0
 19 20  1  0
 20 21  1  0
 21 22  1  0
 22 23  1  0
 14 24  2  0
 24 25  1  0
 25 26  2  0
 26 27  1  0
  6 28  1  0
 28 29  2  0
 29 30  1  0
 30 31  1  0
 31 32  1  0
 32 33  2  0
 32 34  1  0
 29  3  1  0
 27  8  1  0
 26 12  1  0
 23 18  1  0
  1 35  1  0
  1 36  1  0
  1 37  1  0
  4 38  1  0
  5 39  1  0
 13 40  1  0
 18 41  1  0
 19 42  1  0
 19 43  1  0
 20 44  1  0
 20 45  1  0
 22 46  1  0
 22 47  1  0
 23 48  1  0
 23 49  1  0
 24 50  1  0
 25 51  1  0
 28 52  1  0
 31 53  1  0
 31 54  1  0
M  CHG  3  18   1  27  -1  34  -1
M  END
>  <UniqueID>  (3) 
2

>  <SMILES>  (3) 
COc1ccc(Sc2nc(=O)c3cc(OC(=O)[NH+]4CCOCC4)ccc3[n-]2)cc1OCC(=O)[O-]

>  <Energy>  (3) 
73.27657639742407

>  <Genealogy>  (3) 
COc1ccc(Sc2nc(=O)c3cc(OC(=O)[NH+]4CCOCC4)ccc3[n-]2)cc1OCC(=O)[O-] (protonated)
COc1ccc(Sc2nc(=O)c3cc(OC(=O)[NH+]4CCOCC4)ccc3[n-]2)cc1OCC(=O)[O-] (3D coordinates assigned)
COc1ccc(Sc2nc(=O)c3cc(OC(=O)[NH+]4CCOCC4)ccc3[n-]2)cc1OCC(=O)[O-] (nonaromatic ring conformer: 73.27657639742407 kcal/mol)

>  <smiles>  (3) 
COc1ccc(Sc2nc(=O)c3cc(OC(=O)N4CCOCC4)ccc3[nH]2)cc1OCC(=O)O

>  <score_type>  (3) 
oracle

>  <origin>  (3) 
adg

>  <m_score__min__energy>  (3) 
-11.970000000000001

>  <m_primary>  (3) 
energy

$$$$
3:0
     RDKit          3D

 27 30  0  0  0  0  0  0  0  0999 V2000
   58.9988   27.3376   46.9680 H   0  0  0  0  0  0  0  0  0  0  0  0
   58.1050   27.1430   46.3570 C   0  0  0  0  0  0  0  0  0  0  0  0
   57.3460   25.9060   46.6290 C   0  0  0  0  0  0  0  0  0  0  0  0
   57.8550   24.7750   47.1470 N   0  0  0  0  0  0  0  0  0  0  0  0
   56.7760   23.9710   47.2690 C   0  0  0  0  0  0  0  0  0  0  0  0
   56.8510   22.7990   47.7190 O   0  0  0  0  0  0  0  0  0  0  0  0
   55.6100   24.5250   46.8740 N   0  0  0  0  0  0  0  0  0  0  0  0
   55.9880   25.7520   46.4790 C   0  0  0  0  0  0  0  0  0  0  0  0
   55.1080   26.7110   45.9930 O   0  0  0  0  0  0  0  0  0  0  0  0
   57.7840   28.0470   45.4190 C   0  0  0  0  0  0  0  0  0  0  0  0
   57.8210   27.8380   44.0270 C   0  0  0  0  0  0  0  0  0  0  0  0
   58.0105   26.8723   43.5356 H   0  0  0  0  0  0  0  0  0  0  0  0
   57.5870   29.0110   43.3840 N   0  0  0  0  0  0  0  0  0  0  0  0
   57.7110   29.2090   42.3660 H   0  0  0  0  0  0  0  0  0  0  0  0
   57.3470   29.9040   44.3200 N   0  0  0  0  0  0  0  0  0  0  0  0
   57.4910   29.3970   45.5300 C   0  0  0  0  0  0  0  0  0  0  0  0
   57.8360   30.3070   46.4790 N   0  0  0  0  0  0  0  0  0  0  0  0
   57.8580   31.4560   45.7490 C   0  0  0  0  0  0  0  0  0  0  0  0
   58.2480   32.7220   46.1800 C   0  0  0  0  0  0  0  0  0  0  0  0
   58.4509   32.9230   47.2423 H   0  0  0  0  0  0  0  0  0  0  0  0
   58.3740   33.7370   45.2100 C   0  0  0  0  0  0  0  0  0  0  0  0
   58.6543   34.7546   45.5196 H   0  0  0  0  0  0  0  0  0  0  0  0
   58.1430   33.4590   43.8400 C   0  0  0  0  0  0  0  0  0  0  0  0
   58.2545   34.2601   43.0945 H   0  0  0  0  0  0  0  0  0  0  0  0
   57.7720   32.1660   43.4250 C   0  0  0  0  0  0  0  0  0  0  0  0
   57.6180   31.9256   42.3627 H   0  0  0  0  0  0  0  0  0  0  0  0
   57.6090   31.2070   44.4170 C   0  0  0  0  0  0  0  0  0  0  0  0
  1  2  1  0
  2  3  1  0
  3  4  1  0
  4  5  1  0
  5  6  2  0
  5  7  1  0
  7  8  1  0
  8  9  1  0
  2 10  2  0
 10 11  1  0
 11 12  1  0
 11 13  2  0
 13 14  1  0
 13 15  1  0
 15 16  1  0
 16 17  2  0
 17 18  1  0
 18 19  2  0
 19 20  1  0
 19 21  1  0
 21 22  1  0
 21 23  2  0
 23 24  1  0
 23 25  1  0
 25 26  1  0
 25 27  2  0
  8  3  2  0
 16 10  1  0
 27 18  1  0
 27 15  1  0
M  CHG  4   4  -1   7  -1   9  -1  13   1
M  END
>  <UniqueID>  (4) 
3

>  <SMILES>  (4) 
O=c1[n-]c([O-])c(/C=c2/c[nH+]n3c2nc2ccccc23)[n-]1

>  <Energy>  (4) 
164.03238941338827

>  <Genealogy>  (4) 
O=c1[n-]c([O-])c(C=c2c[nH+]n3c2nc2ccccc23)[n-]1 (protonated)
O=c1[n-]c([O-])c(/C=c2/c[nH+]n3c2nc2ccccc23)[n-]1 (cis-trans isomerization)
O=c1[n-]c([O-])c(/C=c2/c[nH+]n3c2nc2ccccc23)[n-]1 (3D coordinates assigned)
O=c1[n-]c([O-])c(/C=c2/c[nH+]n3c2nc2ccccc23)[n-]1 (optimized conformer: 164.03238941338827 kcal/mol)

>  <smiles>  (4) 
O=c1[nH]c(O)c(C=c2cnn3c2nc2ccccc23)[nH]1

>  <score_type>  (4) 
oracle

>  <origin>  (4) 
adg

>  <m_score__min__energy>  (4) 
-14.81

>  <m_primary>  (4) 
energy

$$$$
4:0
     RDKit          3D

 49 52  0  0  0  0  0  0  0  0999 V2000
   60.1780   20.7950   45.4120 H   0  0  0  0  0  0  0  0  0  0  0  0
   59.7640   21.7050   45.5750 O   0  0  0  0  0  0  0  0  0  0  0  0
   58.5380   22.0600   45.0150 C   0  0  0  0  0  0  0  0  0  0  0  0
   58.1600   21.5700   43.7570 C   0  0  0  0  0  0  0  0  0  0  0  0
   58.8372   20.9065   43.1991 H   0  0  0  0  0  0  0  0  0  0  0  0
   56.9240   21.9240   43.2120 C   0  0  0  0  0  0  0  0  0  0  0  0
   56.6256   21.5325   42.2283 H   0  0  0  0  0  0  0  0  0  0  0  0
   56.0650   22.7750   43.9140 C   0  0  0  0  0  0  0  0  0  0  0  0
   55.0862   23.0403   43.4878 H   0  0  0  0  0  0  0  0  0  0  0  0
   56.4500   23.2930   45.1650 C   0  0  0  0  0  0  0  0  0  0  0  0
   55.5980   24.1790   45.9070 N   0  0  0  0  0  0  0  0  0  0  0  0
   55.7840   25.5930   46.0630 C   0  0  0  0  0  0  0  0  0  0  0  0
   54.7750   26.3460   46.0040 O   0  0  0  0  0  0  0  0  0  0  0  0
   57.1090   26.1880   46.3350 C   0  0  0  0  0  0  0  0  0  0  0  0
   57.9600   25.5570   47.1880 N   0  0  0  0  0  0  0  0  0  0  0  0
   59.1810   26.0660   47.4950 C   0  0  0  0  0  0  0  0  0  0  0  0
   59.8413   25.5258   48.1894 H   0  0  0  0  0  0  0  0  0  0  0  0
   59.6010   27.2730   46.9320 C   0  0  0  0  0  0  0  0  0  0  0  0
   60.5826   27.6955   47.1929 H   0  0  0  0  0  0  0  0  0  0  0  0
   58.7550   27.9450   46.0260 C   0  0  0  0  0  0  0  0  0  0  0  0
   59.0780   29.0810   45.4720 N   0  0  0  0  0  0  0  0  0  0  0  0
   60.0600   30.0520   45.9580 C   0  0  0  0  0  0  0  0  0  0  0  0
   60.2637   30.7848   45.1633 H   0  0  0  0  0  0  0  0  0  0  0  0
   60.9782   29.5117   46.2319 H   0  0  0  0  0  0  0  0  0  0  0  0
   59.5490   30.7810   47.1830 C   0  0  0  0  0  0  0  0  0  0  0  0
   59.5750   30.1240   48.4360 C   0  0  0  0  0  0  0  0  0  0  0  0
   59.9697   29.1014   48.5282 H   0  0  0  0  0  0  0  0  0  0  0  0
   59.0900   30.8020   49.5460 C   0  0  0  0  0  0  0  0  0  0  0  0
   58.5800   32.0520   49.4570 C   0  0  0  0  0  0  0  0  0  0  0  0
   58.5110   32.7370   48.2490 C   0  0  0  0  0  0  0  0  0  0  0  0
   58.0911   33.7525   48.1996 H   0  0  0  0  0  0  0  0  0  0  0  0
   58.9950   32.0940   47.0840 C   0  0  0  0  0  0  0  0  0  0  0  0
   58.9310   32.7360   45.8010 N   0  0  0  0  0  0  0  0  0  0  0  0
   57.5720   32.7360   44.7240 S   0  0  0  0  0  0  0  0  0  0  0  0
   56.7120   31.5440   45.0360 O   0  0  0  0  0  0  0  0  0  0  0  0
   56.7580   33.9840   44.9210 O   0  0  0  0  0  0  0  0  0  0  0  0
   58.1310   32.6100   43.0390 C   0  0  0  0  0  0  0  0  0  0  0  0
   59.2040   32.3681   43.0258 H   0  0  0  0  0  0  0  0  0  0  0  0
   57.5698   31.8158   42.5249 H   0  0  0  0  0  0  0  0  0  0  0  0
   57.9647   33.5682   42.5249 H   0  0  0  0  0  0  0  0  0  0  0  0
   58.1720   32.4720   50.7080 O   0  0  0  0  0  0  0  0  0  0  0  0
   58.4520   31.4220   51.6430 C   0  0  0  0  0  0  0  0  0  0  0  0
   57.5259   31.0775   52.1263 H   0  0  0  0  0  0  0  0  0  0  0  0
   59.1230   31.7543   52.4488 H   0  0  0  0  0  0  0  0  0  0  0  0
   59.0320   30.3710   50.8580 O   0  0  0  0  0  0  0  0  0  0  0  0
   57.5130   27.3830   45.7170 C   0  0  0  0  0  0  0  0  0  0  0  0
   56.8518   27.8767   44.9896 H   0  0  0  0  0  0  0  0  0  0  0  0
   57.6800   22.9130   45.7160 C   0  0  0  0  0  0  0  0  0  0  0  0
   57.9734   23.2883   46.7075 H   0  0  0  0  0  0  0  0  0  0  0  0
  1  2  1  0
  2  3  1  0
  3  4  2  0
  4  5  1  0
  4  6  1  0
  6  7  1  0
  6  8  2  0
  8  9  1  0
  8 10  1  0
 10 11  1  0
 11 12  1  0
 12 13  2  0
 12 14  1  0
 14 15  1  0
 15 16  1  0
 16 17  1  0
 16 18  2  0
 18 19  1  0
 18 20  1  0
 20 21  2  0
 21 22  1  0
 22 23  1  0
 22 24  1  0
 22 25  1  0
 25 26  2  0
 26 27  1  0
 26 28  1  0
 28 29  2  0
 29 30  1  0
 30 31  1  0
 30 32  2  0
 32 33  1  0
 33 34  1  0
 34 35  2  0
 34 36  2  0
 34 37  1  0
 37 38  1  0
 37 39  1  0
 37 40  1  0
 29 41  1  0
 41 42  1  0
 42 43  1  0
 42 44  1  0
 42 45  1  0
 20 46  1  0
 46 47  1  0
 10 48  2  0
 48 49  1  0
 48  3  1  0
 46 14  2  0
 32 25  1  0
 45 28  1  0
M  CHG  3  11  -1  15  -1  33  -1
M  END
>  <UniqueID>  (5) 
4

>  <SMILES>  (5) 
CS(=O)(=O)[N-]c1cc2c(cc1C/N=c1\cc[n-]c(C(=O)[N-]c3cccc(O)c3)c1)OCO2

>  <Energy>  (5) 
88.55048969196068

>  <Genealogy>  (5) 
CS(=O)(=O)[N-]c1cc2c(cc1CN=c1cc[n-]c(C(=O)[N-]c3cccc(O)c3)c1)OCO2 (protonated)
CS(=O)(=O)[N-]c1cc2c(cc1C/N=c1\cc[n-]c(C(=O)[N-]c3cccc(O)c3)c1)OCO2 (cis-trans isomerization)
CS(=O)(=O)[N-]c1cc2c(cc1C/N=c1\cc[n-]c(C(=O)[N-]c3cccc(O)c3)c1)OCO2 (3D coordinates assigned)
CS(=O)(=O)[N-]c1cc2c(cc1C/N=c1\cc[n-]c(C(=O)[N-]c3cccc(O)c3)c1)OCO2 (nonaromatic ring conformer: 88.55048969196068 kcal/mol)

>  <smiles>  (5) 
CS(=O)(=O)Nc1cc2c(cc1CN=c1cc[nH]c(C(=O)Nc3cccc(O)c3)c1)OCO2

>  <score_type>  (5) 
oracle

>  <origin>  (5) 
adg

>  <m_score__min__energy>  (5) 
-13.9

>  <m_primary>  (5) 
energy

$$$$
5:0
     RDKit          3D

 46 49  0  0  0  0  0  0  0  0999 V2000
   58.0610   34.6080   44.8700 C   0  0  0  0  0  0  0  0  0  0  0  0
   57.9900   33.1180   44.9600 C   0  0  0  0  0  0  0  0  0  0  0  0
   57.4400   32.3680   43.9160 C   0  0  0  0  0  0  0  0  0  0  0  0
   57.3680   30.9810   44.0310 C   0  0  0  0  0  0  0  0  0  0  0  0
   57.8410   30.3430   45.1920 C   0  0  0  0  0  0  0  0  0  0  0  0
   57.7950   28.9460   45.3400 C   0  0  0  0  0  0  0  0  0  0  0  0
   57.3200   28.2330   44.4130 O   0  0  0  0  0  0  0  0  0  0  0  0
   58.2890   28.3490   46.5190 C   0  0  0  0  0  0  0  0  0  0  0  0
   58.2730   26.8730   46.7250 C   0  0  0  0  0  0  0  0  0  0  0  0
   59.3440   26.2110   46.6650 O   0  0  0  0  0  0  0  0  0  0  0  0
   57.0270   26.1940   46.9380 N   0  0  0  0  0  0  0  0  0  0  0  0
   56.4900   25.1200   46.1500 C   0  0  0  0  0  0  0  0  0  0  0  0
   57.2350   23.9590   45.8720 C   0  0  0  0  0  0  0  0  0  0  0  0
   56.6690   22.9230   45.1210 C   0  0  0  0  0  0  0  0  0  0  0  0
   55.3550   23.0290   44.6580 C   0  0  0  0  0  0  0  0  0  0  0  0
   54.6020   24.1680   44.9510 C   0  0  0  0  0  0  0  0  0  0  0  0
   55.1630   25.2070   45.7010 C   0  0  0  0  0  0  0  0  0  0  0  0
   54.3980   26.3320   45.9930 O   0  0  0  0  0  0  0  0  0  0  0  0
   58.8150   29.1840   47.5210 C   0  0  0  0  0  0  0  0  0  0  0  0
   58.8490   30.5440   47.3760 N   0  0  0  0  0  0  0  0  0  0  0  0
   59.4430   31.3550   48.4540 C   0  0  0  0  0  0  0  0  0  0  0  0
   60.7490   31.9520   48.0010 C   0  0  0  0  0  0  0  0  0  0  0  0
   60.8260   33.3040   47.6280 C   0  0  0  0  0  0  0  0  0  0  0  0
   62.0350   33.8440   47.1780 C   0  0  0  0  0  0  0  0  0  0  0  0
   63.1740   33.0380   47.0950 C   0  0  0  0  0  0  0  0  0  0  0  0
   63.1040   31.6910   47.4600 C   0  0  0  0  0  0  0  0  0  0  0  0
   61.8970   31.1480   47.9090 C   0  0  0  0  0  0  0  0  0  0  0  0
   58.3800   31.1330   46.2310 C   0  0  0  0  0  0  0  0  0  0  0  0
   58.4320   32.4880   46.0800 N   0  0  0  0  0  0  0  0  0  0  0  0
   58.0814   35.0360   45.8831 H   0  0  0  0  0  0  0  0  0  0  0  0
   58.9741   34.8996   44.3303 H   0  0  0  0  0  0  0  0  0  0  0  0
   57.1798   34.9851   44.3303 H   0  0  0  0  0  0  0  0  0  0  0  0
   57.0669   32.8690   43.0106 H   0  0  0  0  0  0  0  0  0  0  0  0
   56.9404   30.3839   43.2121 H   0  0  0  0  0  0  0  0  0  0  0  0
   58.2652   23.8657   46.2462 H   0  0  0  0  0  0  0  0  0  0  0  0
   57.2598   22.0231   44.8946 H   0  0  0  0  0  0  0  0  0  0  0  0
   54.9139   22.2157   44.0630 H   0  0  0  0  0  0  0  0  0  0  0  0
   53.5656   24.2483   44.5913 H   0  0  0  0  0  0  0  0  0  0  0  0
   59.2086   28.7327   48.4437 H   0  0  0  0  0  0  0  0  0  0  0  0
   58.7485   32.1642   48.7238 H   0  0  0  0  0  0  0  0  0  0  0  0
   59.6280   30.7103   49.3258 H   0  0  0  0  0  0  0  0  0  0  0  0
   59.9313   33.9409   47.6901 H   0  0  0  0  0  0  0  0  0  0  0  0
   62.0897   34.9040   46.8891 H   0  0  0  0  0  0  0  0  0  0  0  0
   64.1250   33.4639   46.7425 H   0  0  0  0  0  0  0  0  0  0  0  0
   64.0004   31.0569   47.3938 H   0  0  0  0  0  0  0  0  0  0  0  0
   61.8459   30.0862   48.1916 H   0  0  0  0  0  0  0  0  0  0  0  0
  1  2  1  0
  2  3  2  0
  3  4  1  0
  4  5  2  0
  5  6  1  0
  6  7  2  0
  6  8  1  0
  8  9  1  0
  9 10  2  0
  9 11  1  0
 11 12  1  0
 12 13  2  0
 13 14  1  0
 14 15  2  0
 15 16  1  0
 16 17  2  0
 17 18  1  0
  8 19  2  0
 19 20  1  0
 20 21  1  0
 21 22  1  0
 22 23  2  0
 23 24  1  0
 24 25  2  0
 25 26  1  0
 26 27  2  0
 20 28  1  0
 28 29  2  0
 29  2  1  0
 28  5  1  0
 17 12  1  0
 27 22  1  0
  1 30  1  0
  1 31  1  0
  1 32  1  0
  3 33  1  0
  4 34  1  0
 13 35  1  0
 14 36  1  0
 15 37  1  0
 16 38  1  0
 19 39  1  0
 21 40  1  0
 21 41  1  0
 23 42  1  0
 24 43  1  0
 25 44  1  0
 26 45  1  0
 27 46  1  0
M  CHG  2  11  -1  18  -1
M  END
>  <UniqueID>  (6) 
5

>  <SMILES>  (6) 
Cc1ccc2c(=O)c(C(=O)[N-]c3ccccc3[O-])cn(Cc3ccccc3)c2n1

>  <Energy>  (6) 
61.730281333708135

>  <Genealogy>  (6) 
Cc1ccc2c(=O)c(C(=O)[N-]c3ccccc3[O-])cn(Cc3ccccc3)c2n1 (protonated)
Cc1ccc2c(=O)c(C(=O)[N-]c3ccccc3[O-])cn(Cc3ccccc3)c2n1 (3D coordinates assigned)
Cc1ccc2c(=O)c(C(=O)[N-]c3ccccc3[O-])cn(Cc3ccccc3)c2n1 (optimized conformer: 61.730281333708135 kcal/mol)

>  <smiles>  (6) 
Cc1ccc2c(=O)c(C(=O)Nc3ccccc3O)cn(Cc3ccccc3)c2n1

>  <score_type>  (6) 
oracle

>  <origin>  (6) 
adg

>  <m_score__min__energy>  (6) 
-14.34

>  <m_primary>  (6) 
energy

$$$$
6:0
     RDKit          3D

 32 33  0  0  0  0  0  0  0  0999 V2000
   56.9020   33.3640   45.1880 O   0  0  0  0  0  0  0  0  0  0  0  0
   57.7960   32.5220   45.4730 C   0  0  0  0  0  0  0  0  0  0  0  0
   57.4670   31.1370   45.5970 N   0  0  0  0  0  0  0  0  0  0  0  0
   57.7580   30.1680   44.5460 C   0  0  0  0  0  0  0  0  0  0  0  0
   57.5550   28.7700   45.0760 C   0  0  0  0  0  0  0  0  0  0  0  0
   58.6590   28.0100   45.4950 C   0  0  0  0  0  0  0  0  0  0  0  0
   58.4740   26.7550   46.0770 C   0  0  0  0  0  0  0  0  0  0  0  0
   57.1860   26.2420   46.2550 C   0  0  0  0  0  0  0  0  0  0  0  0
   57.0310   24.9890   46.8490 O   0  0  0  0  0  0  0  0  0  0  0  0
   56.0740   26.9930   45.8410 C   0  0  0  0  0  0  0  0  0  0  0  0
   54.7880   26.4950   46.0150 O   0  0  0  0  0  0  0  0  0  0  0  0
   56.2560   28.2540   45.2570 C   0  0  0  0  0  0  0  0  0  0  0  0
   55.1450   28.9960   44.8700 O   0  0  0  0  0  0  0  0  0  0  0  0
   59.1310   32.9160   45.5920 O   0  0  0  0  0  0  0  0  0  0  0  0
   59.5080   34.2040   46.0760 C   0  0  0  0  0  0  0  0  0  0  0  0
   60.7440   34.0900   46.9320 C   0  0  0  0  0  0  0  0  0  0  0  0
   61.9930   33.7880   46.3680 C   0  0  0  0  0  0  0  0  0  0  0  0
   63.0610   33.6210   47.1450 O   0  0  0  0  0  0  0  0  0  0  0  0
   63.0070   33.7230   48.4690 C   0  0  0  0  0  0  0  0  0  0  0  0
   64.0530   33.5480   49.1490 O   0  0  0  0  0  0  0  0  0  0  0  0
   61.7960   34.0200   49.1040 C   0  0  0  0  0  0  0  0  0  0  0  0
   61.7230   34.1230   50.4890 O   0  0  0  0  0  0  0  0  0  0  0  0
   60.6560   34.2070   48.3230 C   0  0  0  0  0  0  0  0  0  0  0  0
   57.0831   30.3381   43.6942 H   0  0  0  0  0  0  0  0  0  0  0  0
   58.8014   30.2866   44.2186 H   0  0  0  0  0  0  0  0  0  0  0  0
   59.6766   28.4065   45.3636 H   0  0  0  0  0  0  0  0  0  0  0  0
   59.3464   26.1665   46.3973 H   0  0  0  0  0  0  0  0  0  0  0  0
   56.1180   24.5750   46.9970 H   0  0  0  0  0  0  0  0  0  0  0  0
   59.7149   34.8676   45.2235 H   0  0  0  0  0  0  0  0  0  0  0  0
   58.6869   34.6182   46.6795 H   0  0  0  0  0  0  0  0  0  0  0  0
   62.0902   33.6886   45.2768 H   0  0  0  0  0  0  0  0  0  0  0  0
   59.6930   34.4452   48.7982 H   0  0  0  0  0  0  0  0  0  0  0  0
  1  2  2  0
  2  3  1  0
  3  4  1  0
  4  5  1  0
  5  6  2  0
  6  7  1  0
  7  8  2  0
  8  9  1  0
  8 10  1  0
 10 11  1  0
 10 12  2  0
 12 13  1  0
  2 14  1  0
 14 15  1  0
 15 16  1  0
 16 17  2  0
 17 18  1  0
 18 19  1  0
 19 20  2  0
 19 21  1  0
 21 22  1  0
 21 23  2  0
 12  5  1  0
 23 16  1  0
  4 24  1  0
  4 25  1  0
  6 26  1  0
  7 27  1  0
  9 28  1  0
 15 29  1  0
 15 30  1  0
 17 31  1  0
 23 32  1  0
M  CHG  4   3  -1  11  -1  13  -1  22  -1
M  END
>  <UniqueID>  (7) 
6

>  <SMILES>  (7) 
O=C([N-]Cc1ccc(O)c([O-])c1[O-])OCc1coc(=O)c([O-])c1

>  <Energy>  (7) 
30.999371613286772

>  <Genealogy>  (7) 
O=C([N-]Cc1ccc(O)c([O-])c1[O-])OCc1coc(=O)c([O-])c1 (protonated)
O=C([N-]Cc1ccc(O)c([O-])c1[O-])OCc1coc(=O)c([O-])c1 (3D coordinates assigned)
O=C([N-]Cc1ccc(O)c([O-])c1[O-])OCc1coc(=O)c([O-])c1 (optimized conformer: 30.999371613286772 kcal/mol)

>  <smiles>  (7) 
O=C(NCc1ccc(O)c(O)c1O)OCc1coc(=O)c(O)c1

>  <score_type>  (7) 
oracle

>  <origin>  (7) 
adg

>  <m_score__min__energy>  (7) 
-15.9

>  <m_primary>  (7) 
energy

$$$$
7:0
     RDKit          3D

 40 42  0  0  0  0  0  0  0  0999 V2000
   58.6324   35.0286   47.4148 H   0  0  0  0  0  0  0  0  0  0  0  0
   59.3050   34.2120   47.7160 C   0  0  0  0  0  0  0  0  0  0  0  0
   60.5040   33.9830   46.8900 C   0  0  0  0  0  0  0  0  0  0  0  0
   60.3770   33.9700   45.6370 O   0  0  0  0  0  0  0  0  0  0  0  0
   61.8260   33.6980   47.4810 C   0  0  0  0  0  0  0  0  0  0  0  0
   62.1990   33.8510   49.1170 S   0  0  0  0  0  0  0  0  0  0  0  0
   63.7990   33.3540   48.9760 C   0  0  0  0  0  0  0  0  0  0  0  0
   64.7890   33.3190   50.0910 C   0  0  0  0  0  0  0  0  0  0  0  0
   64.2576   33.3378   51.0539 H   0  0  0  0  0  0  0  0  0  0  0  0
   65.3881   32.3991   50.0207 H   0  0  0  0  0  0  0  0  0  0  0  0
   65.4515   34.1943   50.0207 H   0  0  0  0  0  0  0  0  0  0  0  0
   64.0740   33.0930   47.6400 C   0  0  0  0  0  0  0  0  0  0  0  0
   65.0613   32.7715   47.2769 H   0  0  0  0  0  0  0  0  0  0  0  0
   62.9690   33.2800   46.8020 C   0  0  0  0  0  0  0  0  0  0  0  0
   62.9995   33.1136   45.7151 H   0  0  0  0  0  0  0  0  0  0  0  0
   58.9670   33.5050   48.8060 C   0  0  0  0  0  0  0  0  0  0  0  0
   58.2994   33.9908   49.5328 H   0  0  0  0  0  0  0  0  0  0  0  0
   59.4140   32.1310   49.1140 C   0  0  0  0  0  0  0  0  0  0  0  0
   59.6790   30.8770   48.0190 S   0  0  0  0  0  0  0  0  0  0  0  0
   60.2660   29.7690   49.1420 C   0  0  0  0  0  0  0  0  0  0  0  0
   60.6490   28.3700   48.8670 C   0  0  0  0  0  0  0  0  0  0  0  0
   61.2270   27.7020   49.7650 O   0  0  0  0  0  0  0  0  0  0  0  0
   60.3170   27.7220   47.6320 N   0  0  0  0  0  0  0  0  0  0  0  0
   58.9940   27.5050   47.1230 C   0  0  0  0  0  0  0  0  0  0  0  0
   58.3890   26.2620   47.3210 C   0  0  0  0  0  0  0  0  0  0  0  0
   58.9258   25.4727   47.8677 H   0  0  0  0  0  0  0  0  0  0  0  0
   57.1080   26.0170   46.8290 C   0  0  0  0  0  0  0  0  0  0  0  0
   56.6356   25.0384   46.9997 H   0  0  0  0  0  0  0  0  0  0  0  0
   56.4190   27.0060   46.1200 C   0  0  0  0  0  0  0  0  0  0  0  0
   55.1400   26.7220   45.6550 O   0  0  0  0  0  0  0  0  0  0  0  0
   57.0230   28.2620   45.8870 C   0  0  0  0  0  0  0  0  0  0  0  0
   56.3250   29.3350   45.1320 C   0  0  0  0  0  0  0  0  0  0  0  0
   55.1520   29.1550   44.7080 O   0  0  0  0  0  0  0  0  0  0  0  0
   56.9460   30.5530   44.8770 O   0  0  0  0  0  0  0  0  0  0  0  0
   58.3200   28.4930   46.3860 C   0  0  0  0  0  0  0  0  0  0  0  0
   58.8110   29.4589   46.1962 H   0  0  0  0  0  0  0  0  0  0  0  0
   60.2670   30.3760   50.3940 C   0  0  0  0  0  0  0  0  0  0  0  0
   60.5947   29.8651   51.3114 H   0  0  0  0  0  0  0  0  0  0  0  0
   59.8110   31.6990   50.3740 C   0  0  0  0  0  0  0  0  0  0  0  0
   59.7706   32.3361   51.2698 H   0  0  0  0  0  0  0  0  0  0  0  0
  1  2  1  0
  2  3  1  0
  3  4  2  0
  3  5  1  0
  5  6  1  0
  6  7  1  0
  7  8  1  0
  8  9  1  0
  8 10  1  0
  8 11  1  0
  7 12  2  0
 12 13  1  0
 12 14  1  0
 14 15  1  0
  2 16  2  0
 16 17  1  0
 16 18  1  0
 18 19  1  0
 19 20  1  0
 20 21  1  0
 21 22  2  0
 21 23  1  0
 23 24  1  0
 24 25  2  0
 25 26  1  0
 25 27  1  0
 27 28  1  0
 27 29  2  0
 29 30  1  0
 29 31  1  0
 31 32  1  0
 32 33  2  0
 32 34  1  0
 31 35  2  0
 35 36  1  0
 20 37  2  0
 37 38  1  0
 37 39  1  0
 39 40  1  0
 14  5  2  0
 39 18  2  0
 35 24  1  0
M  CHG  3  23  -1  30  -1  34  -1
M  END
>  <UniqueID>  (8) 
7

>  <SMILES>  (8) 
Cc1ccc(C(=O)/C=C\c2ccc(C(=O)[N-]c3ccc([O-])c(C(=O)[O-])c3)s2)s1

>  <Energy>  (8) 
107.85881436838584

>  <Genealogy>  (8) 
Cc1ccc(C(=O)C=Cc2ccc(C(=O)[N-]c3ccc([O-])c(C(=O)[O-])c3)s2)s1 (protonated)
Cc1ccc(C(=O)/C=C\c2ccc(C(=O)[N-]c3ccc([O-])c(C(=O)[O-])c3)s2)s1 (cis-trans isomerization)
Cc1ccc(C(=O)/C=C\c2ccc(C(=O)[N-]c3ccc([O-])c(C(=O)[O-])c3)s2)s1 (3D coordinates assigned)
Cc1ccc(C(=O)/C=C\c2ccc(C(=O)[N-]c3ccc([O-])c(C(=O)[O-])c3)s2)s1 (optimized conformer: 107.85881436838584 kcal/mol)

>  <smiles>  (8) 
Cc1ccc(C(=O)C=Cc2ccc(C(=O)Nc3ccc(O)c(C(=O)O)c3)s2)s1

>  <score_type>  (8) 
oracle

>  <origin>  (8) 
adg

>  <m_score__min__energy>  (8) 
-17.510000000000002

>  <m_primary>  (8) 
energy

$$$$
8:0
     RDKit          3D

 37 38  0  0  1  0  0  0  0  0999 V2000
   56.6670   24.3920   44.2470 C   0  0  0  0  0  0  0  0  0  0  0  0
   55.5320   24.4040   45.2570 C   0  0  0  0  0  0  0  0  0  0  0  0
   55.7750   25.3470   46.3260 N   0  0  0  0  0  0  0  0  0  0  0  0
   56.5680   26.3560   46.2070 C   0  0  0  0  0  0  0  0  0  0  0  0
   57.8340   26.3130   46.6590 N   0  0  0  0  0  0  0  0  0  0  0  0
   58.6550   27.3800   46.5290 C   0  0  0  0  0  0  0  0  0  0  0  0
   58.2140   28.5420   45.9280 C   0  0  0  0  0  0  0  0  0  0  0  0
   56.9140   28.5810   45.4680 C   0  0  0  0  0  0  0  0  0  0  0  0
   56.3970   29.6160   44.8920 N   0  0  0  0  0  0  0  0  0  0  0  0
   57.0340   30.1660   43.7390 C   0  0  0  0  0  0  0  0  0  0  0  0
   57.6690   31.4920   44.0500 C   0  0  0  0  0  0  0  0  0  0  0  0
   58.0580   32.4370   43.1370 C   0  0  0  0  0  0  0  0  0  0  0  0
   57.9250   32.3290   41.6510 C   0  0  0  0  0  0  0  0  0  0  0  0
   58.5830   33.4830   43.8190 N   0  0  0  0  0  0  0  0  0  0  0  0
   58.5380   33.2280   45.1310 N   0  0  0  0  0  0  0  0  0  0  0  0
   58.9880   34.0650   46.2280 C   0  0  0  0  0  0  0  0  0  0  0  0
   57.9810   32.0120   45.2920 C   0  0  0  0  0  0  0  0  0  0  0  0
   57.7570   31.4000   46.3910 O   0  0  0  0  0  0  0  0  0  0  0  0
   56.1220   27.4800   45.6220 N   0  0  0  0  0  0  0  0  0  0  0  0
   57.6303   24.3818   44.7780 H   0  0  0  0  0  0  0  0  0  0  0  0
   56.5867   23.4947   43.6159 H   0  0  0  0  0  0  0  0  0  0  0  0
   56.6057   25.2908   43.6159 H   0  0  0  0  0  0  0  0  0  0  0  0
   54.6002   24.6814   44.7424 H   0  0  0  0  0  0  0  0  0  0  0  0
   55.4558   23.3991   45.6980 H   0  0  0  0  0  0  0  0  0  0  0  0
   58.2140   25.4570   47.1200 H   0  0  0  0  0  0  0  0  0  0  0  0
   59.6865   27.3212   46.9067 H   0  0  0  0  0  0  0  0  0  0  0  0
   58.8795   29.4111   45.8191 H   0  0  0  0  0  0  0  0  0  0  0  0
   57.8106   29.4689   43.3913 H   0  0  0  0  0  0  0  0  0  0  0  0
   56.2728   30.3184   42.9597 H   0  0  0  0  0  0  0  0  0  0  0  0
   57.0926   31.6531   41.4055 H   0  0  0  0  0  0  0  0  0  0  0  0
   57.7261   33.3245   41.2274 H   0  0  0  0  0  0  0  0  0  0  0  0
   58.8585   31.9300   41.2274 H   0  0  0  0  0  0  0  0  0  0  0  0
   58.9630   34.3500   43.3820 H   0  0  0  0  0  0  0  0  0  0  0  0
   58.7305   33.5860   47.1842 H   0  0  0  0  0  0  0  0  0  0  0  0
   60.0783   34.1964   46.1656 H   0  0  0  0  0  0  0  0  0  0  0  0
   58.4962   35.0470   46.1656 H   0  0  0  0  0  0  0  0  0  0  0  0
   55.1540   27.5100   45.2770 H   0  0  0  0  0  0  0  0  0  0  0  0
  1  2  1  0
  2  3  1  0
  3  4  2  0
  4  5  1  0
  5  6  1  0
  6  7  2  0
  7  8  1  0
  8  9  2  0
  9 10  1  0
 10 11  1  0
 11 12  2  0
 12 13  1  0
 12 14  1  0
 14 15  1  0
 15 16  1  0
 15 17  1  0
 17 18  2  0
  8 19  1  0
 19  4  1  0
 17 11  1  0
  1 20  1  0
  1 21  1  0
  1 22  1  0
  2 23  1  0
  2 24  1  0
  5 25  1  0
  6 26  1  0
  7 27  1  0
 10 28  1  0
 10 29  1  0
 13 30  1  0
 13 31  1  0
 13 32  1  0
 14 33  1  0
 16 34  1  0
 16 35  1  0
 16 36  1  0
 19 37  1  0
M  END
>  <smiles>  (9) 
CCN=c1[nH]ccc(=NCc2c(C)[nH]n(C)c2=O)[nH]1

>  <score_type>  (9) 
oracle

>  <origin>  (9) 
adg

>  <m_score__min__energy>  (9) 
-6.7599999999999998

>  <m_primary>  (9) 
energy

$$$$
9:0
     RDKit          3D

 48 50  0  0  0  0  0  0  0  0999 V2000
   56.7620   31.0790   42.5450 O   0  0  0  0  0  0  0  0  0  0  0  0
   56.8280   29.9350   43.0670 C   0  0  0  0  0  0  0  0  0  0  0  0
   56.2380   29.6680   44.3880 C   0  0  0  0  0  0  0  0  0  0  0  0
   55.0210   29.3510   44.4550 O   0  0  0  0  0  0  0  0  0  0  0  0
   56.9820   29.8240   45.6030 N   0  0  0  0  0  0  0  0  0  0  0  0
   57.7960   30.9520   45.9630 C   0  0  0  0  0  0  0  0  0  0  0  0
   57.6030   32.1970   45.3390 C   0  0  0  0  0  0  0  0  0  0  0  0
   58.4320   33.2770   45.6410 C   0  0  0  0  0  0  0  0  0  0  0  0
   59.4760   33.1300   46.5580 C   0  0  0  0  0  0  0  0  0  0  0  0
   60.5030   34.5060   46.9490 S   0  0  0  0  0  0  0  0  0  0  0  0
   60.5380   34.6870   48.4400 O   0  0  0  0  0  0  0  0  0  0  0  0
   59.9630   35.7630   46.3280 O   0  0  0  0  0  0  0  0  0  0  0  0
   62.1080   34.2150   46.3720 N   0  0  0  0  0  0  0  0  0  0  0  0
   63.1000   33.5610   47.1640 C   0  0  0  0  0  0  0  0  0  0  0  0
   64.0610   32.9630   46.6060 O   0  0  0  0  0  0  0  0  0  0  0  0
   63.0140   33.6270   48.5930 N   0  0  0  0  0  0  0  0  0  0  0  0
   63.8090   32.8300   49.4890 C   0  0  0  0  0  0  0  0  0  0  0  0
   63.2230   31.7290   50.1340 C   0  0  0  0  0  0  0  0  0  0  0  0
   63.9810   30.9260   50.9920 C   0  0  0  0  0  0  0  0  0  0  0  0
   65.3320   31.2080   51.2030 C   0  0  0  0  0  0  0  0  0  0  0  0
   65.9310   32.2880   50.5490 C   0  0  0  0  0  0  0  0  0  0  0  0
   65.1770   33.0930   49.6900 C   0  0  0  0  0  0  0  0  0  0  0  0
   59.6840   31.8910   47.1750 C   0  0  0  0  0  0  0  0  0  0  0  0
   58.8660   30.7890   46.8720 C   0  0  0  0  0  0  0  0  0  0  0  0
   59.1220   29.4860   47.5350 C   0  0  0  0  0  0  0  0  0  0  0  0
   58.8790   29.3570   48.7650 O   0  0  0  0  0  0  0  0  0  0  0  0
   59.7110   28.3820   46.8340 N   0  0  0  0  0  0  0  0  0  0  0  0
   59.0060   27.3790   46.0870 C   0  0  0  0  0  0  0  0  0  0  0  0
   58.8020   27.4970   44.7000 C   0  0  0  0  0  0  0  0  0  0  0  0
   58.1100   26.5020   44.0040 C   0  0  0  0  0  0  0  0  0  0  0  0
   57.6010   25.3930   44.6880 C   0  0  0  0  0  0  0  0  0  0  0  0
   56.6550   24.0340   43.7350 Br  0  0  0  0  0  0  0  0  0  0  0  0
   57.7780   25.2840   46.0710 C   0  0  0  0  0  0  0  0  0  0  0  0
   58.4720   26.2780   46.7680 C   0  0  0  0  0  0  0  0  0  0  0  0
   57.3350   29.1221   42.5265 H   0  0  0  0  0  0  0  0  0  0  0  0
   56.7915   32.3202   44.6066 H   0  0  0  0  0  0  0  0  0  0  0  0
   58.2632   34.2493   45.1550 H   0  0  0  0  0  0  0  0  0  0  0  0
   62.3830   34.3530   49.0030 H   0  0  0  0  0  0  0  0  0  0  0  0
   62.1614   31.4968   49.9634 H   0  0  0  0  0  0  0  0  0  0  0  0
   63.5122   30.0711   51.5013 H   0  0  0  0  0  0  0  0  0  0  0  0
   65.9250   30.5800   51.8841 H   0  0  0  0  0  0  0  0  0  0  0  0
   66.9972   32.5050   50.7103 H   0  0  0  0  0  0  0  0  0  0  0  0
   65.6550   33.9356   49.1689 H   0  0  0  0  0  0  0  0  0  0  0  0
   60.4980   31.7783   47.9063 H   0  0  0  0  0  0  0  0  0  0  0  0
   59.1883   28.3751   44.1617 H   0  0  0  0  0  0  0  0  0  0  0  0
   57.9655   26.5910   42.9172 H   0  0  0  0  0  0  0  0  0  0  0  0
   57.3712   24.4161   46.6107 H   0  0  0  0  0  0  0  0  0  0  0  0
   58.5992   26.1946   47.8574 H   0  0  0  0  0  0  0  0  0  0  0  0
  1  2  2  0
  2  3  1  0
  3  4  2  0
  3  5  1  0
  5  6  1  0
  6  7  2  0
  7  8  1  0
  8  9  2  0
  9 10  1  0
 10 11  2  0
 10 12  2  0
 10 13  1  0
 13 14  1  0
 14 15  2  0
 14 16  1  0
 16 17  1  0
 17 18  2  0
 18 19  1  0
 19 20  2  0
 20 21  1  0
 21 22  2  0
  9 23  1  0
 23 24  2  0
 24 25  1  0
 25 26  2  0
 25 27  1  0
 27 28  1  0
 28 29  2  0
 29 30  1  0
 30 31  2  0
 31 32  1  0
 31 33  1  0
 33 34  2  0
 24  6  1  0
 34 28  1  0
 22 17  1  0
  2 35  1  0
  7 36  1  0
  8 37  1  0
 16 38  1  0
 18 39  1  0
 19 40  1  0
 20 41  1  0
 21 42  1  0
 22 43  1  0
 23 44  1  0
 29 45  1  0
 30 46  1  0
 33 47  1  0
 34 48  1  0
M  CHG  3   5  -1  13  -1  27  -1
M  END
>  <UniqueID>  (10) 
8

>  <SMILES>  (10) 
O=CC(=O)[N-]c1ccc(S(=O)(=O)[N-]C(=O)Nc2ccccc2)cc1C(=O)[N-]c1ccc(Br)cc1

>  <Energy>  (10) 
67.8324755031692

>  <Genealogy>  (10) 
O=CC(=O)[N-]c1ccc(S(=O)(=O)[N-]C(=O)Nc2ccccc2)cc1C(=O)[N-]c1ccc(Br)cc1 (protonated)
O=CC(=O)[N-]c1ccc(S(=O)(=O)[N-]C(=O)Nc2ccccc2)cc1C(=O)[N-]c1ccc(Br)cc1 (3D coordinates assigned)
O=CC(=O)[N-]c1ccc(S(=O)(=O)[N-]C(=O)Nc2ccccc2)cc1C(=O)[N-]c1ccc(Br)cc1 (optimized conformer: 67.8324755031692 kcal/mol)

>  <smiles>  (10) 
O=CC(=O)Nc1ccc(S(=O)(=O)NC(=O)Nc2ccccc2)cc1C(=O)Nc1ccc(Br)cc1

>  <score_type>  (10) 
oracle

>  <origin>  (10) 
adg

>  <m_score__min__energy>  (10) 
-12.69

>  <m_primary>  (10) 
energy

$$$$
10:0
     RDKit          3D

 34 36  0  0  0  0  0  0  0  0999 V2000
   60.4390   34.7290   46.2060 O   0  0  0  0  0  0  0  0  0  0  0  0
   59.4210   34.1060   45.8020 C   0  0  0  0  0  0  0  0  0  0  0  0
   58.4080   34.6530   44.9030 C   0  0  0  0  0  0  0  0  0  0  0  0
   57.4610   33.7320   44.7470 C   0  0  0  0  0  0  0  0  0  0  0  0
   57.8380   32.5630   45.5370 C   0  0  0  0  0  0  0  0  0  0  0  0
   57.1890   31.4850   45.5830 O   0  0  0  0  0  0  0  0  0  0  0  0
   59.0740   32.7860   46.2080 N   0  0  0  0  0  0  0  0  0  0  0  0
   59.7800   31.9030   47.0970 C   0  0  0  0  0  0  0  0  0  0  0  0
   60.9250   32.3480   47.7740 C   0  0  0  0  0  0  0  0  0  0  0  0
   61.5970   31.4800   48.6340 C   0  0  0  0  0  0  0  0  0  0  0  0
   61.1310   30.1800   48.8120 C   0  0  0  0  0  0  0  0  0  0  0  0
   59.9920   29.7540   48.1150 C   0  0  0  0  0  0  0  0  0  0  0  0
   59.4510   28.3660   48.3290 C   0  0  0  0  0  0  0  0  0  0  0  0
   59.4160   27.5950   47.0080 C   0  0  0  0  0  0  0  0  0  0  0  0
   58.0080   27.1670   46.6800 C   0  0  0  0  0  0  0  0  0  0  0  0
   57.5320   25.9180   47.1010 C   0  0  0  0  0  0  0  0  0  0  0  0
   56.2730   25.5220   46.7780 N   0  0  0  0  0  0  0  0  0  0  0  0
   55.4590   26.3190   46.0390 C   0  0  0  0  0  0  0  0  0  0  0  0
   54.2960   25.9350   45.7520 O   0  0  0  0  0  0  0  0  0  0  0  0
   55.9000   27.5270   45.6060 N   0  0  0  0  0  0  0  0  0  0  0  0
   57.1500   27.9660   45.9030 C   0  0  0  0  0  0  0  0  0  0  0  0
   57.5300   29.0900   45.4750 O   0  0  0  0  0  0  0  0  0  0  0  0
   59.3400   30.6230   47.2880 N   0  0  0  0  0  0  0  0  0  0  0  0
   58.4252   35.6496   44.4376 H   0  0  0  0  0  0  0  0  0  0  0  0
   56.5546   33.8330   44.1320 H   0  0  0  0  0  0  0  0  0  0  0  0
   61.2905   33.3751   47.6275 H   0  0  0  0  0  0  0  0  0  0  0  0
   62.4941   31.8218   49.1711 H   0  0  0  0  0  0  0  0  0  0  0  0
   61.6527   29.4927   49.4943 H   0  0  0  0  0  0  0  0  0  0  0  0
   60.0958   27.8322   49.0427 H   0  0  0  0  0  0  0  0  0  0  0  0
   58.4274   28.4403   48.7248 H   0  0  0  0  0  0  0  0  0  0  0  0
   59.7943   28.2412   46.2022 H   0  0  0  0  0  0  0  0  0  0  0  0
   60.0457   26.6982   47.1042 H   0  0  0  0  0  0  0  0  0  0  0  0
   58.1796   25.2561   47.6948 H   0  0  0  0  0  0  0  0  0  0  0  0
   58.4680   30.3050   46.8100 H   0  0  0  0  0  0  0  0  0  0  0  0
  1  2  2  0
  2  3  1  0
  3  4  2  0
  4  5  1  0
  5  6  2  0
  5  7  1  0
  7  8  1  0
  8  9  2  0
  9 10  1  0
 10 11  2  0
 11 12  1  0
 12 13  1  0
 13 14  1  0
 14 15  1  0
 15 16  2  0
 16 17  1  0
 17 18  1  0
 18 19  2  0
 18 20  1  0
 20 21  1  0
 21 22  2  0
 12 23  2  0
  7  2  1  0
 23  8  1  0
 21 15  1  0
  3 24  1  0
  4 25  1  0
  9 26  1  0
 10 27  1  0
 11 28  1  0
 13 29  1  0
 13 30  1  0
 14 31  1  0
 14 32  1  0
 16 33  1  0
 23 34  1  0
M  CHG  3  17  -1  20  -1  23   1
M  END
>  <UniqueID>  (11) 
9

>  <SMILES>  (11) 
O=C1C=CC(=O)N1c1cccc(CCc2c[n-]c(=O)[n-]c2=O)[nH+]1

>  <Energy>  (11) 
65.48810095325051

>  <Genealogy>  (11) 
O=C1C=CC(=O)N1c1cccc(CCc2c[n-]c(=O)[n-]c2=O)[nH+]1 (protonated)
O=C1C=CC(=O)N1c1cccc(CCc2c[n-]c(=O)[n-]c2=O)[nH+]1 (3D coordinates assigned)
O=C1C=CC(=O)N1c1cccc(CCc2c[n-]c(=O)[n-]c2=O)[nH+]1 (nonaromatic ring conformer: 65.48810095325051 kcal/mol)

>  <smiles>  (11) 
O=C1C=CC(=O)N1c1cccc(CCc2c[nH]c(=O)[nH]c2=O)n1

>  <score_type>  (11) 
oracle

>  <origin>  (11) 
adg

>  <m_score__min__energy>  (11) 
-10.279999999999999

>  <m_primary>  (11) 
energy

$$$$
11:0
     RDKit          3D

 48 50  0  0  0  0  0  0  0  0999 V2000
   64.5000   35.3740   52.4800 C   0  0  0  0  0  0  0  0  0  0  0  0
   65.6660   34.5740   51.8740 C   0  0  0  0  0  0  0  0  0  0  0  0
   65.5290   33.0910   51.9580 N   0  0  0  0  0  0  0  0  0  0  0  0
   66.6790   32.3390   51.3830 C   0  0  0  0  0  0  0  0  0  0  0  0
   67.6180   33.1490   50.4780 C   0  0  0  0  0  0  0  0  0  0  0  0
   64.2390   32.5940   51.5030 C   0  0  0  0  0  0  0  0  0  0  0  0
   63.5670   31.8280   52.2500 O   0  0  0  0  0  0  0  0  0  0  0  0
   63.6860   32.9280   50.1560 C   0  0  0  0  0  0  0  0  0  0  0  0
   64.5090   32.7630   49.0050 C   0  0  0  0  0  0  0  0  0  0  0  0
   64.0310   33.0760   47.7180 C   0  0  0  0  0  0  0  0  0  0  0  0
   62.7310   33.5510   47.6100 C   0  0  0  0  0  0  0  0  0  0  0  0
   62.0760   33.9160   46.4950 N   0  0  0  0  0  0  0  0  0  0  0  0
   60.8680   34.2930   46.9930 C   0  0  0  0  0  0  0  0  0  0  0  0
   59.7630   34.8230   46.1410 C   0  0  0  0  0  0  0  0  0  0  0  0
   58.8620   33.6980   45.7140 C   0  0  0  0  0  0  0  0  0  0  0  0
   58.2030   33.7490   44.4760 C   0  0  0  0  0  0  0  0  0  0  0  0
   57.3950   32.6860   44.0620 C   0  0  0  0  0  0  0  0  0  0  0  0
   57.2430   31.5490   44.8780 C   0  0  0  0  0  0  0  0  0  0  0  0
   56.4440   30.4570   44.5070 O   0  0  0  0  0  0  0  0  0  0  0  0
   56.5350   29.7830   43.2570 C   0  0  0  0  0  0  0  0  0  0  0  0
   57.9130   31.4960   46.1060 C   0  0  0  0  0  0  0  0  0  0  0  0
   58.7220   32.5590   46.5200 C   0  0  0  0  0  0  0  0  0  0  0  0
   60.7810   34.1810   48.3090 O   0  0  0  0  0  0  0  0  0  0  0  0
   61.9370   33.7180   48.6990 C   0  0  0  0  0  0  0  0  0  0  0  0
   62.3650   33.4220   49.9890 C   0  0  0  0  0  0  0  0  0  0  0  0
   64.5590   35.3336   53.5777 H   0  0  0  0  0  0  0  0  0  0  0  0
   64.5618   36.4208   52.1478 H   0  0  0  0  0  0  0  0  0  0  0  0
   63.5455   34.9396   52.1478 H   0  0  0  0  0  0  0  0  0  0  0  0
   65.7517   34.8484   50.8122 H   0  0  0  0  0  0  0  0  0  0  0  0
   66.5553   34.8329   52.4674 H   0  0  0  0  0  0  0  0  0  0  0  0
   65.5900   32.8570   52.9760 H   0  0  0  0  0  0  0  0  0  0  0  0
   67.2743   31.9413   52.2181 H   0  0  0  0  0  0  0  0  0  0  0  0
   66.2385   31.5628   50.7400 H   0  0  0  0  0  0  0  0  0  0  0  0
   68.3052   33.7418   51.0996 H   0  0  0  0  0  0  0  0  0  0  0  0
   68.1975   32.4627   49.8430 H   0  0  0  0  0  0  0  0  0  0  0  0
   67.0242   33.8229   49.8430 H   0  0  0  0  0  0  0  0  0  0  0  0
   65.5351   32.3847   49.1236 H   0  0  0  0  0  0  0  0  0  0  0  0
   64.6658   32.9485   46.8288 H   0  0  0  0  0  0  0  0  0  0  0  0
   59.1807   35.5589   46.7149 H   0  0  0  0  0  0  0  0  0  0  0  0
   60.1917   35.3025   45.2486 H   0  0  0  0  0  0  0  0  0  0  0  0
   58.3229   34.6299   43.8281 H   0  0  0  0  0  0  0  0  0  0  0  0
   56.8754   32.7383   43.0939 H   0  0  0  0  0  0  0  0  0  0  0  0
   56.6803   28.7065   43.4306 H   0  0  0  0  0  0  0  0  0  0  0  0
   55.6074   29.9406   42.6871 H   0  0  0  0  0  0  0  0  0  0  0  0
   57.3876   30.1809   42.6871 H   0  0  0  0  0  0  0  0  0  0  0  0
   57.8023   30.6114   46.7503 H   0  0  0  0  0  0  0  0  0  0  0  0
   59.2511   32.5014   47.4827 H   0  0  0  0  0  0  0  0  0  0  0  0
   61.7004   33.5662   50.8536 H   0  0  0  0  0  0  0  0  0  0  0  0
  1  2  1  0
  2  3  1  0
  3  4  1  0
  4  5  1  0
  3  6  1  0
  6  7  2  0
  6  8  1  0
  8  9  2  0
  9 10  1  0
 10 11  2  0
 11 12  1  0
 12 13  2  0
 13 14  1  0
 14 15  1  0
 15 16  2  0
 16 17  1  0
 17 18  2  0
 18 19  1  0
 19 20  1  0
 18 21  1  0
 21 22  2  0
 13 23  1  0
 23 24  1  0
 24 25  2  0
 25  8  1  0
 24 11  1  0
 22 15  1  0
  1 26  1  0
  1 27  1  0
  1 28  1  0
  2 29  1  0
  2 30  1  0
  3 31  1  0
  4 32  1  0
  4 33  1  0
  5 34  1  0
  5 35  1  0
  5 36  1  0
  9 37  1  0
 10 38  1  0
 14 39  1  0
 14 40  1  0
 16 41  1  0
 17 42  1  0
 20 43  1  0
 20 44  1  0
 20 45  1  0
 21 46  1  0
 22 47  1  0
 25 48  1  0
M  CHG  1   3   1
M  END
>  <UniqueID>  (12) 
10

>  <SMILES>  (12) 
CC[NH+](CC)C(=O)c1ccc2nc(Cc3ccc(OC)cc3)oc2c1

>  <Energy>  (12) 
96.22332907168864

>  <Genealogy>  (12) 
CC[NH+](CC)C(=O)c1ccc2nc(Cc3ccc(OC)cc3)oc2c1 (protonated)
CC[NH+](CC)C(=O)c1ccc2nc(Cc3ccc(OC)cc3)oc2c1 (3D coordinates assigned)
CC[NH+](CC)C(=O)c1ccc2nc(Cc3ccc(OC)cc3)oc2c1 (optimized conformer: 96.22332907168864 kcal/mol)

>  <smiles>  (12) 
CCN(CC)C(=O)c1ccc2nc(Cc3ccc(OC)cc3)oc2c1

>  <score_type>  (12) 
oracle

>  <origin>  (12) 
adg

>  <m_score__min__energy>  (12) 
-6.2300000000000004

>  <m_primary>  (12) 
energy

$$$$
12:0
     RDKit          3D

 44 46  0  0  0  0  0  0  0  0999 V2000
   60.9670   31.8120   47.0190 C   0  0  0  0  0  0  0  0  0  0  0  0
   60.2650   31.4930   48.3270 C   0  0  0  0  0  0  0  0  0  0  0  0
   59.6530   32.5360   49.0810 C   0  0  0  0  0  0  0  0  0  0  0  0
   59.6000   33.9790   48.5970 C   0  0  0  0  0  0  0  0  0  0  0  0
   58.9250   34.0840   47.2520 C   0  0  0  0  0  0  0  0  0  0  0  0
   59.5040   34.8420   46.2180 C   0  0  0  0  0  0  0  0  0  0  0  0
   58.8690   34.9420   44.9760 C   0  0  0  0  0  0  0  0  0  0  0  0
   57.6490   34.2980   44.7590 C   0  0  0  0  0  0  0  0  0  0  0  0
   57.0570   33.5560   45.7850 C   0  0  0  0  0  0  0  0  0  0  0  0
   57.6890   33.4520   47.0280 C   0  0  0  0  0  0  0  0  0  0  0  0
   59.0400   32.1930   50.2990 C   0  0  0  0  0  0  0  0  0  0  0  0
   58.4890   33.0680   51.0180 O   0  0  0  0  0  0  0  0  0  0  0  0
   59.0320   30.9100   50.7160 N   0  0  0  0  0  0  0  0  0  0  0  0
   59.5780   29.9150   49.9810 C   0  0  0  0  0  0  0  0  0  0  0  0
   59.5300   28.7370   50.4270 O   0  0  0  0  0  0  0  0  0  0  0  0
   60.1690   30.1850   48.7700 N   0  0  0  0  0  0  0  0  0  0  0  0
   60.6850   29.0420   47.9800 C   0  0  0  0  0  0  0  0  0  0  0  0
   59.5720   28.1310   47.5120 C   0  0  0  0  0  0  0  0  0  0  0  0
   58.4990   28.6160   46.7410 C   0  0  0  0  0  0  0  0  0  0  0  0
   57.4650   27.7620   46.3510 C   0  0  0  0  0  0  0  0  0  0  0  0
   57.4810   26.4140   46.7290 C   0  0  0  0  0  0  0  0  0  0  0  0
   56.1690   25.3420   46.2490 S   0  0  0  0  0  0  0  0  0  0  0  0
   54.7590   26.2790   45.9110 N   0  0  0  0  0  0  0  0  0  0  0  0
   55.8750   24.3700   47.3570 O   0  0  0  0  0  0  0  0  0  0  0  0
   56.5670   24.5700   45.0220 O   0  0  0  0  0  0  0  0  0  0  0  0
   58.5330   25.9310   47.5180 C   0  0  0  0  0  0  0  0  0  0  0  0
   59.5690   26.7830   47.9090 C   0  0  0  0  0  0  0  0  0  0  0  0
   61.9499   32.2586   47.2298 H   0  0  0  0  0  0  0  0  0  0  0  0
   61.1014   30.8866   46.4398 H   0  0  0  0  0  0  0  0  0  0  0  0
   60.3583   32.5219   46.4398 H   0  0  0  0  0  0  0  0  0  0  0  0
   59.0389   34.5809   49.3270 H   0  0  0  0  0  0  0  0  0  0  0  0
   60.6312   34.3486   48.4966 H   0  0  0  0  0  0  0  0  0  0  0  0
   60.4604   35.3583   46.3871 H   0  0  0  0  0  0  0  0  0  0  0  0
   59.3313   35.5289   44.1687 H   0  0  0  0  0  0  0  0  0  0  0  0
   57.1535   34.3747   43.7799 H   0  0  0  0  0  0  0  0  0  0  0  0
   56.0934   33.0536   45.6145 H   0  0  0  0  0  0  0  0  0  0  0  0
   57.2167   32.8726   47.8350 H   0  0  0  0  0  0  0  0  0  0  0  0
   61.2201   29.4302   47.1008 H   0  0  0  0  0  0  0  0  0  0  0  0
   61.3556   28.4564   48.6261 H   0  0  0  0  0  0  0  0  0  0  0  0
   58.4746   29.6748   46.4436 H   0  0  0  0  0  0  0  0  0  0  0  0
   56.6340   28.1504   45.7439 H   0  0  0  0  0  0  0  0  0  0  0  0
   54.7640   27.0880   46.5730 H   0  0  0  0  0  0  0  0  0  0  0  0
   58.5434   24.8765   47.8310 H   0  0  0  0  0  0  0  0  0  0  0  0
   60.3885   26.3957   48.5323 H   0  0  0  0  0  0  0  0  0  0  0  0
  1  2  1  0
  2  3  2  0
  3  4  1  0
  4  5  1  0
  5  6  2  0
  6  7  1  0
  7  8  2  0
  8  9  1  0
  9 10  2  0
  3 11  1  0
 11 12  2  0
 11 13  1  0
 13 14  1  0
 14 15  2  0
 14 16  1  0
 16 17  1  0
 17 18  1  0
 18 19  2  0
 19 20  1  0
 20 21  2  0
 21 22  1  0
 22 23  1  0
 22 24  2  0
 22 25  2  0
 21 26  1  0
 26 27  2  0
 16  2  1  0
 27 18  1  0
 10  5  1  0
  1 28  1  0
  1 29  1  0
  1 30  1  0
  4 31  1  0
  4 32  1  0
  6 33  1  0
  7 34  1  0
  8 35  1  0
  9 36  1  0
 10 37  1  0
 17 38  1  0
 17 39  1  0
 19 40  1  0
 20 41  1  0
 23 42  1  0
 26 43  1  0
 27 44  1  0
M  CHG  2  13  -1  23  -1
M  END
>  <UniqueID>  (13) 
11

>  <SMILES>  (13) 
Cc1c(Cc2ccccc2)c(=O)[n-]c(=O)n1Cc1ccc(S([NH-])(=O)=O)cc1

>  <Energy>  (13) 
57.1130113111982

>  <Genealogy>  (13) 
Cc1c(Cc2ccccc2)c(=O)[n-]c(=O)n1Cc1ccc(S([NH-])(=O)=O)cc1 (protonated)
Cc1c(Cc2ccccc2)c(=O)[n-]c(=O)n1Cc1ccc(S([NH-])(=O)=O)cc1 (3D coordinates assigned)
Cc1c(Cc2ccccc2)c(=O)[n-]c(=O)n1Cc1ccc(S([NH-])(=O)=O)cc1 (optimized conformer: 57.1130113111982 kcal/mol)

>  <smiles>  (13) 
Cc1c(Cc2ccccc2)c(=O)[nH]c(=O)n1Cc1ccc(S(N)(=O)=O)cc1

>  <score_type>  (13) 
oracle

>  <origin>  (13) 
adg

>  <m_score__min__energy>  (13) 
-12.369999999999999

>  <m_primary>  (13) 
energy

$$$$
13:0
     RDKit          3D

 28 30  0  0  0  0  0  0  0  0999 V2000
   55.0260   30.1480   43.9390 O   0  0  0  0  0  0  0  0  0  0  0  0
   56.0630   29.5860   44.3790 C   0  0  0  0  0  0  0  0  0  0  0  0
   57.4070   30.0740   43.9830 C   0  0  0  0  0  0  0  0  0  0  0  0
   58.1490   30.4750   45.2250 C   0  0  0  0  0  0  0  0  0  0  0  0
   58.3050   31.9050   45.5890 C   0  0  0  0  0  0  0  0  0  0  0  0
   58.1400   32.9080   44.6170 C   0  0  0  0  0  0  0  0  0  0  0  0
   58.2780   34.2530   44.9640 C   0  0  0  0  0  0  0  0  0  0  0  0
   58.5700   34.5920   46.2840 C   0  0  0  0  0  0  0  0  0  0  0  0
   58.7130   33.6180   47.2210 N   0  0  0  0  0  0  0  0  0  0  0  0
   58.5860   32.3000   46.9100 C   0  0  0  0  0  0  0  0  0  0  0  0
   58.6460   29.5710   46.0190 N   0  0  0  0  0  0  0  0  0  0  0  0
   58.2880   28.1810   46.1240 C   0  0  0  0  0  0  0  0  0  0  0  0
   59.3020   27.2900   46.5070 C   0  0  0  0  0  0  0  0  0  0  0  0
   59.0730   25.9140   46.5390 C   0  0  0  0  0  0  0  0  0  0  0  0
   57.8330   25.4050   46.1610 C   0  0  0  0  0  0  0  0  0  0  0  0
   56.8180   26.2720   45.7520 C   0  0  0  0  0  0  0  0  0  0  0  0
   57.0210   27.6590   45.7380 C   0  0  0  0  0  0  0  0  0  0  0  0
   55.9390   28.4750   45.2650 N   0  0  0  0  0  0  0  0  0  0  0  0
   57.9552   29.2736   43.4645 H   0  0  0  0  0  0  0  0  0  0  0  0
   57.3124   30.9344   43.3042 H   0  0  0  0  0  0  0  0  0  0  0  0
   57.9013   32.6315   43.5794 H   0  0  0  0  0  0  0  0  0  0  0  0
   58.1574   35.0379   44.2029 H   0  0  0  0  0  0  0  0  0  0  0  0
   58.6848   35.6486   46.5676 H   0  0  0  0  0  0  0  0  0  0  0  0
   58.7036   31.5388   47.6953 H   0  0  0  0  0  0  0  0  0  0  0  0
   60.2913   27.6818   46.7859 H   0  0  0  0  0  0  0  0  0  0  0  0
   59.8721   25.2310   46.8629 H   0  0  0  0  0  0  0  0  0  0  0  0
   57.6533   24.3200   46.1847 H   0  0  0  0  0  0  0  0  0  0  0  0
   55.8472   25.8618   45.4369 H   0  0  0  0  0  0  0  0  0  0  0  0
  1  2  2  0
  2  3  1  0
  3  4  1  0
  4  5  1  0
  5  6  2  0
  6  7  1  0
  7  8  2  0
  8  9  1  0
  9 10  2  0
  4 11  2  0
 11 12  1  0
 12 13  2  0
 13 14  1  0
 14 15  2  0
 15 16  1  0
 16 17  2  0
 17 18  1  0
 18  2  1  0
 10  5  1  0
 17 12  1  0
  3 19  1  0
  3 20  1  0
  6 21  1  0
  7 22  1  0
  8 23  1  0
 10 24  1  0
 13 25  1  0
 14 26  1  0
 15 27  1  0
 16 28  1  0
M  CHG  1  18  -1
M  END
>  <UniqueID>  (14) 
12

>  <SMILES>  (14) 
O=C1CC(c2cccnc2)=Nc2ccccc2[N-]1

>  <Energy>  (14) 
45.1914032911032

>  <Genealogy>  (14) 
O=C1CC(c2cccnc2)=Nc2ccccc2[N-]1 (protonated)
O=C1CC(c2cccnc2)=Nc2ccccc2[N-]1 (3D coordinates assigned)
O=C1CC(c2cccnc2)=Nc2ccccc2[N-]1 (nonaromatic ring conformer: 45.1914032911032 kcal/mol)

>  <smiles>  (14) 
O=C1CC(c2cccnc2)=Nc2ccccc2N1

>  <score_type>  (14) 
oracle

>  <origin>  (14) 
adg

>  <m_score__min__energy>  (14) 
-7.04

>  <m_primary>  (14) 
energy

$$$$
14:0
     RDKit          3D

 27 27  0  0  0  0  0  0  0  0999 V2000
   54.7740   26.2790   45.8230 N   0  0  0  0  0  0  0  0  0  0  0  0
   56.0280   25.9430   46.4150 C   0  0  0  0  0  0  0  0  0  0  0  0
   56.1380   24.8520   47.0390 O   0  0  0  0  0  0  0  0  0  0  0  0
   57.1870   26.8580   46.3000 C   0  0  0  0  0  0  0  0  0  0  0  0
   58.3830   26.5910   46.9920 C   0  0  0  0  0  0  0  0  0  0  0  0
   59.4790   27.4470   46.8670 C   0  0  0  0  0  0  0  0  0  0  0  0
   59.3920   28.5850   46.0630 C   0  0  0  0  0  0  0  0  0  0  0  0
   58.2020   28.8880   45.3950 C   0  0  0  0  0  0  0  0  0  0  0  0
   58.1540   30.0450   44.5490 N   0  0  0  0  0  0  0  0  0  0  0  0
   57.1470   31.0670   44.5580 C   0  0  0  0  0  0  0  0  0  0  0  0
   55.9380   30.7190   44.4950 O   0  0  0  0  0  0  0  0  0  0  0  0
   57.5010   32.5290   44.4480 C   0  0  0  0  0  0  0  0  0  0  0  0
   57.0990   33.2970   45.6760 C   0  0  0  0  0  0  0  0  0  0  0  0
   57.8880   33.3610   46.7530 C   0  0  0  0  0  0  0  0  0  0  0  0
   59.1810   34.0630   46.7430 C   0  0  0  0  0  0  0  0  0  0  0  0
   59.2610   35.2870   46.4530 O   0  0  0  0  0  0  0  0  0  0  0  0
   57.1120   28.0080   45.4920 C   0  0  0  0  0  0  0  0  0  0  0  0
   54.0190   26.7320   46.3840 H   0  0  0  0  0  0  0  0  0  0  0  0
   58.4549   25.7019   47.6357 H   0  0  0  0  0  0  0  0  0  0  0  0
   60.4132   27.2242   47.4033 H   0  0  0  0  0  0  0  0  0  0  0  0
   60.2642   29.2465   45.9546 H   0  0  0  0  0  0  0  0  0  0  0  0
   58.5884   32.6222   44.3104 H   0  0  0  0  0  0  0  0  0  0  0  0
   56.9553   32.9483   43.5899 H   0  0  0  0  0  0  0  0  0  0  0  0
   56.1311   33.8195   45.6886 H   0  0  0  0  0  0  0  0  0  0  0  0
   57.5585   32.8708   47.6810 H   0  0  0  0  0  0  0  0  0  0  0  0
   60.0970   33.5080   46.9939 H   0  0  0  0  0  0  0  0  0  0  0  0
   56.1900   28.2196   44.9307 H   0  0  0  0  0  0  0  0  0  0  0  0
  1  2  1  0
  2  3  2  0
  2  4  1  0
  4  5  2  0
  5  6  1  0
  6  7  2  0
  7  8  1  0
  8  9  1  0
  9 10  1  0
 10 11  2  0
 10 12  1  0
 12 13  1  0
 13 14  2  3
 14 15  1  0
 15 16  2  0
  8 17  2  0
 17  4  1  0
  1 18  1  0
  5 19  1  0
  6 20  1  0
  7 21  1  0
 12 22  1  0
 12 23  1  0
 13 24  1  0
 14 25  1  0
 15 26  1  0
 17 27  1  0
M  CHG  2   1  -1   9  -1
M  END
>  <UniqueID>  (15) 
13

>  <SMILES>  (15) 
[NH-]C(=O)c1cccc([N-]C(=O)CC=CC=O)c1

>  <Energy>  (15) 
27.84162263098621

>  <Genealogy>  (15) 
[NH-]C(=O)c1cccc([N-]C(=O)CC=CC=O)c1 (protonated)
[NH-]C(=O)c1cccc([N-]C(=O)CC=CC=O)c1 (3D coordinates assigned)
[NH-]C(=O)c1cccc([N-]C(=O)CC=CC=O)c1 (optimized conformer: 27.84162263098621 kcal/mol)

>  <smiles>  (15) 
NC(=O)c1cccc(NC(=O)CC=CC=O)c1

>  <score_type>  (15) 
oracle

>  <origin>  (15) 
adg

>  <m_score__min__energy>  (15) 
-10.73

>  <m_primary>  (15) 
energy

$$$$
15:0
     RDKit          3D

 64 66  0  0  0  0  0  0  0  0999 V2000
   63.3640   33.6440   46.7290 C   0  0  0  0  0  0  0  0  0  0  0  0
   63.3740   32.6600   47.8930 C   0  0  0  0  0  0  0  0  0  0  0  0
   63.0350   33.4960   49.4370 S   0  0  0  0  0  0  0  0  0  0  0  0
   62.2640   34.7610   49.1830 O   0  0  0  0  0  0  0  0  0  0  0  0
   64.3370   33.8510   50.0990 O   0  0  0  0  0  0  0  0  0  0  0  0
   62.1340   32.4660   50.5030 N   0  0  0  0  0  0  0  0  0  0  0  0
   61.7500   31.1120   50.2280 C   0  0  0  0  0  0  0  0  0  0  0  0
   62.0930   30.1140   51.1710 C   0  0  0  0  0  0  0  0  0  0  0  0
   61.7310   28.7720   50.9620 C   0  0  0  0  0  0  0  0  0  0  0  0
   61.0290   28.4580   49.8030 C   0  0  0  0  0  0  0  0  0  0  0  0
   60.5820   27.2460   49.4290 N   0  0  0  0  0  0  0  0  0  0  0  0
   59.9550   27.4290   48.2440 C   0  0  0  0  0  0  0  0  0  0  0  0
   59.3490   26.3070   47.4600 C   0  0  0  0  0  0  0  0  0  0  0  0
   59.9930   28.7770   47.8710 C   0  0  0  0  0  0  0  0  0  0  0  0
   59.4530   29.3900   46.6400 C   0  0  0  0  0  0  0  0  0  0  0  0
   60.1110   29.3110   45.5680 O   0  0  0  0  0  0  0  0  0  0  0  0
   58.2040   30.0950   46.6680 N   0  0  0  0  0  0  0  0  0  0  0  0
   57.4110   30.3520   45.4620 C   0  0  2  0  0  0  0  0  0  0  0  0
   57.2990   29.0520   44.6520 C   0  0  0  0  0  0  0  0  0  0  0  0
   56.3360   28.2070   45.2550 O   0  0  0  0  0  0  0  0  0  0  0  0
   56.9460   27.0250   45.7270 C   0  0  0  0  0  0  0  0  0  0  0  0
   55.8950   26.1370   46.3040 C   0  0  0  0  0  0  0  0  0  0  0  0
   56.2090   25.2330   47.1220 O   0  0  0  0  0  0  0  0  0  0  0  0
   54.5580   26.3380   45.9810 O   0  0  0  0  0  0  0  0  0  0  0  0
   58.0850   31.5070   44.6820 C   0  0  0  0  0  0  0  0  0  0  0  0
   58.4900   32.8010   45.4450 C   0  0  0  0  0  0  0  0  0  0  0  0
   58.5720   34.0790   44.5710 C   0  0  0  0  0  0  0  0  0  0  0  0
   59.3440   35.2300   45.2520 C   0  0  0  0  0  0  0  0  0  0  0  0
   59.2930   35.1430   46.7820 C   0  0  0  0  0  0  0  0  0  0  0  0
   59.8970   33.8230   47.3060 C   0  0  0  0  0  0  0  0  0  0  0  0
   59.7480   32.6410   46.3230 C   0  0  0  0  0  0  0  0  0  0  0  0
   60.6960   29.4140   48.8790 C   0  0  0  0  0  0  0  0  0  0  0  0
   61.0370   30.7570   49.0600 C   0  0  0  0  0  0  0  0  0  0  0  0
   63.3535   34.6727   47.1185 H   0  0  0  0  0  0  0  0  0  0  0  0
   64.2637   33.4939   46.1142 H   0  0  0  0  0  0  0  0  0  0  0  0
   62.4675   33.4756   46.1142 H   0  0  0  0  0  0  0  0  0  0  0  0
   62.6048   31.8924   47.7225 H   0  0  0  0  0  0  0  0  0  0  0  0
   64.3704   32.1980   47.9545 H   0  0  0  0  0  0  0  0  0  0  0  0
   62.6495   30.3918   52.0783 H   0  0  0  0  0  0  0  0  0  0  0  0
   61.9949   27.9935   51.6930 H   0  0  0  0  0  0  0  0  0  0  0  0
   60.7080   26.3460   49.9420 H   0  0  0  0  0  0  0  0  0  0  0  0
   58.9424   25.5543   48.1514 H   0  0  0  0  0  0  0  0  0  0  0  0
   58.5394   26.6979   46.8262 H   0  0  0  0  0  0  0  0  0  0  0  0
   60.1199   25.8443   46.8262 H   0  0  0  0  0  0  0  0  0  0  0  0
   57.7950   30.3470   47.5970 H   0  0  0  0  0  0  0  0  0  0  0  0
   56.3837   30.6655   45.6993 H   0  0  0  0  0  0  0  0  0  0  0  0
   56.9897   29.2858   43.6226 H   0  0  0  0  0  0  0  0  0  0  0  0
   58.2746   28.5443   44.6328 H   0  0  0  0  0  0  0  0  0  0  0  0
   57.4480   26.5105   44.8944 H   0  0  0  0  0  0  0  0  0  0  0  0
   57.6905   27.2717   46.4982 H   0  0  0  0  0  0  0  0  0  0  0  0
   59.0018   31.0989   44.2314 H   0  0  0  0  0  0  0  0  0  0  0  0
   57.3025   31.8461   43.9872 H   0  0  0  0  0  0  0  0  0  0  0  0
   57.6386   32.9566   46.1238 H   0  0  0  0  0  0  0  0  0  0  0  0
   59.0797   33.8265   43.6284 H   0  0  0  0  0  0  0  0  0  0  0  0
   57.5425   34.4285   44.4035 H   0  0  0  0  0  0  0  0  0  0  0  0
   60.3952   35.1890   44.9307 H   0  0  0  0  0  0  0  0  0  0  0  0
   58.8680   36.1758   44.9537 H   0  0  0  0  0  0  0  0  0  0  0  0
   59.8599   35.9855   47.2048 H   0  0  0  0  0  0  0  0  0  0  0  0
   58.2375   35.1796   47.0896 H   0  0  0  0  0  0  0  0  0  0  0  0
   60.9683   33.9828   47.4977 H   0  0  0  0  0  0  0  0  0  0  0  0
   59.3439   33.5552   48.2183 H   0  0  0  0  0  0  0  0  0  0  0  0
   60.6354   32.5997   45.6743 H   0  0  0  0  0  0  0  0  0  0  0  0
   59.6503   31.7133   46.9060 H   0  0  0  0  0  0  0  0  0  0  0  0
   60.7585   31.5166   48.3147 H   0  0  0  0  0  0  0  0  0  0  0  0
  1  2  1  0
  2  3  1  0
  3  4  2  0
  3  5  2  0
  3  6  1  0
  6  7  1  0
  7  8  2  0
  8  9  1  0
  9 10  2  0
 10 11  1  0
 11 12  1  0
 12 13  1  0
 12 14  2  0
 14 15  1  0
 15 16  2  0
 15 17  1  0
 17 18  1  0
 18 19  1  0
 19 20  1  0
 20 21  1  0
 21 22  1  0
 22 23  2  0
 22 24  1  0
 18 25  1  0
 25 26  1  0
 26 27  1  0
 27 28  1  0
 28 29  1  0
 29 30  1  0
 30 31  1  0
 14 32  1  0
 32 33  2  0
 33  7  1  0
 32 10  1  0
 31 26  1  0
  1 34  1  0
  1 35  1  0
  1 36  1  0
  2 37  1  0
  2 38  1  0
  8 39  1  0
  9 40  1  0
 11 41  1  0
 13 42  1  0
 13 43  1  0
 13 44  1  0
 17 45  1  0
 18 46  1  1
 19 47  1  0
 19 48  1  0
 21 49  1  0
 21 50  1  0
 25 51  1  0
 25 52  1  0
 26 53  1  0
 27 54  1  0
 27 55  1  0
 28 56  1  0
 28 57  1  0
 29 58  1  0
 29 59  1  0
 30 60  1  0
 30 61  1  0
 31 62  1  0
 31 63  1  0
 33 64  1  0
M  CHG  2   6  -1  24  -1
M  END
>  <UniqueID>  (16) 
14

>  <SMILES>  (16) 
CCS(=O)(=O)[N-]c1ccc2[nH]c(C)c(C(=O)N[C@H](COCC(=O)[O-])CC3CCCCC3)c2c1

>  <Energy>  (16) 
99.09422685098923

>  <Genealogy>  (16) 
CCS(=O)(=O)[N-]c1ccc2[nH]c(C)c(C(=O)NC(COCC(=O)[O-])CC3CCCCC3)c2c1 (protonated)
CCS(=O)(=O)[N-]c1ccc2[nH]c(C)c(C(=O)N[C@H](COCC(=O)[O-])CC3CCCCC3)c2c1 (chirality)
CCS(=O)(=O)[N-]c1ccc2[nH]c(C)c(C(=O)N[C@H](COCC(=O)[O-])CC3CCCCC3)c2c1 (3D coordinates assigned)
CCS(=O)(=O)[N-]c1ccc2[nH]c(C)c(C(=O)N[C@H](COCC(=O)[O-])CC3CCCCC3)c2c1 (nonaromatic ring conformer: 99.09422685098923 kcal/mol)

>  <smiles>  (16) 
CCS(=O)(=O)Nc1ccc2[nH]c(C)c(C(=O)NC(COCC(=O)O)CC3CCCCC3)c2c1

>  <score_type>  (16) 
oracle

>  <origin>  (16) 
adg

>  <m_score__min__energy>  (16) 
-13.970000000000001

>  <m_primary>  (16) 
energy

$$$$
16:0
     RDKit          3D

 49 51  0  0  0  0  0  0  0  0999 V2000
   64.7520   33.0370   49.3730 C   0  0  0  0  0  0  0  0  0  0  0  0
   63.4780   33.3760   48.6580 C   0  0  0  0  0  0  0  0  0  0  0  0
   62.3340   33.7290   49.3920 C   0  0  0  0  0  0  0  0  0  0  0  0
   61.1560   34.0830   48.7300 C   0  0  0  0  0  0  0  0  0  0  0  0
   61.1100   34.1070   47.3290 C   0  0  0  0  0  0  0  0  0  0  0  0
   59.6350   34.5820   46.4920 S   0  0  0  0  0  0  0  0  0  0  0  0
   59.8570   35.8740   45.7530 O   0  0  0  0  0  0  0  0  0  0  0  0
   58.5400   34.7970   47.4990 O   0  0  0  0  0  0  0  0  0  0  0  0
   59.1520   33.3270   45.3920 N   0  0  0  0  0  0  0  0  0  0  0  0
   57.8180   32.8460   45.7400 C   0  0  0  0  0  0  0  0  0  0  0  0
   57.6370   31.4540   45.2130 C   0  0  0  0  0  0  0  0  0  0  0  0
   56.6260   31.2060   44.5030 O   0  0  0  0  0  0  0  0  0  0  0  0
   58.5840   30.4070   45.5150 N   0  0  0  0  0  0  0  0  0  0  0  0
   58.7610   29.2700   44.6030 C   0  0  0  0  0  0  0  0  0  0  0  0
   58.1390   28.0300   45.1870 C   0  0  0  0  0  0  0  0  0  0  0  0
   58.9340   26.9210   45.5220 C   0  0  0  0  0  0  0  0  0  0  0  0
   58.3460   25.7560   46.0220 C   0  0  0  0  0  0  0  0  0  0  0  0
   56.9600   25.6860   46.1870 C   0  0  0  0  0  0  0  0  0  0  0  0
   56.1590   26.7830   45.8530 C   0  0  0  0  0  0  0  0  0  0  0  0
   54.7800   26.7110   46.0140 O   0  0  0  0  0  0  0  0  0  0  0  0
   56.7450   27.9510   45.3550 C   0  0  0  0  0  0  0  0  0  0  0  0
   59.2740   30.3870   46.7750 C   0  0  0  0  0  0  0  0  0  0  0  0
   60.6500   30.6510   46.8280 C   0  0  0  0  0  0  0  0  0  0  0  0
   61.3240   30.6150   48.0520 C   0  0  0  0  0  0  0  0  0  0  0  0
   60.6320   30.3010   49.2250 C   0  0  0  0  0  0  0  0  0  0  0  0
   59.2580   30.0350   49.1770 C   0  0  0  0  0  0  0  0  0  0  0  0
   58.5700   29.7230   50.3420 O   0  0  0  0  0  0  0  0  0  0  0  0
   58.5800   30.0840   47.9550 C   0  0  0  0  0  0  0  0  0  0  0  0
   62.2580   33.7730   46.5950 C   0  0  0  0  0  0  0  0  0  0  0  0
   63.4350   33.4120   47.2560 C   0  0  0  0  0  0  0  0  0  0  0  0
   64.5857   33.0813   50.4595 H   0  0  0  0  0  0  0  0  0  0  0  0
   65.0714   32.0226   49.0920 H   0  0  0  0  0  0  0  0  0  0  0  0
   65.5333   33.7585   49.0920 H   0  0  0  0  0  0  0  0  0  0  0  0
   62.3656   33.7267   50.4915 H   0  0  0  0  0  0  0  0  0  0  0  0
   60.2594   34.3444   49.3112 H   0  0  0  0  0  0  0  0  0  0  0  0
   57.7032   32.8420   46.8340 H   0  0  0  0  0  0  0  0  0  0  0  0
   57.0610   33.5085   45.2950 H   0  0  0  0  0  0  0  0  0  0  0  0
   58.2799   29.4985   43.6406 H   0  0  0  0  0  0  0  0  0  0  0  0
   59.8367   29.0947   44.4544 H   0  0  0  0  0  0  0  0  0  0  0  0
   60.0249   26.9700   45.3900 H   0  0  0  0  0  0  0  0  0  0  0  0
   58.9749   24.8930   46.2860 H   0  0  0  0  0  0  0  0  0  0  0  0
   56.4988   24.7678   46.5797 H   0  0  0  0  0  0  0  0  0  0  0  0
   56.1125   28.8121   45.0934 H   0  0  0  0  0  0  0  0  0  0  0  0
   61.1999   30.8868   45.9050 H   0  0  0  0  0  0  0  0  0  0  0  0
   62.4012   30.8342   48.0921 H   0  0  0  0  0  0  0  0  0  0  0  0
   61.1665   30.2628   50.1856 H   0  0  0  0  0  0  0  0  0  0  0  0
   57.4989   29.8842   47.9194 H   0  0  0  0  0  0  0  0  0  0  0  0
   62.2315   33.7954   45.4955 H   0  0  0  0  0  0  0  0  0  0  0  0
   64.3324   33.1547   46.6742 H   0  0  0  0  0  0  0  0  0  0  0  0
  1  2  1  0
  2  3  2  0
  3  4  1  0
  4  5  2  0
  5  6  1  0
  6  7  2  0
  6  8  2  0
  6  9  1  0
  9 10  1  0
 10 11  1  0
 11 12  2  0
 11 13  1  0
 13 14  1  0
 14 15  1  0
 15 16  2  0
 16 17  1  0
 17 18  2  0
 18 19  1  0
 19 20  1  0
 19 21  2  0
 13 22  1  0
 22 23  2  0
 23 24  1  0
 24 25  2  0
 25 26  1  0
 26 27  1  0
 26 28  2  0
  5 29  1  0
 29 30  2  0
 30  2  1  0
 21 15  1  0
 28 22  1  0
  1 31  1  0
  1 32  1  0
  1 33  1  0
  3 34  1  0
  4 35  1  0
 10 36  1  0
 10 37  1  0
 14 38  1  0
 14 39  1  0
 16 40  1  0
 17 41  1  0
 18 42  1  0
 21 43  1  0
 23 44  1  0
 24 45  1  0
 25 46  1  0
 28 47  1  0
 29 48  1  0
 30 49  1  0
M  CHG  3   9  -1  20  -1  27  -1
M  END
>  <UniqueID>  (17) 
15

>  <SMILES>  (17) 
Cc1ccc(S(=O)(=O)[N-]CC(=O)N(Cc2cccc([O-])c2)c2cccc([O-])c2)cc1

>  <Energy>  (17) 
48.27736056122279

>  <Genealogy>  (17) 
Cc1ccc(S(=O)(=O)[N-]CC(=O)N(Cc2cccc([O-])c2)c2cccc([O-])c2)cc1 (protonated)
Cc1ccc(S(=O)(=O)[N-]CC(=O)N(Cc2cccc([O-])c2)c2cccc([O-])c2)cc1 (3D coordinates assigned)
Cc1ccc(S(=O)(=O)[N-]CC(=O)N(Cc2cccc([O-])c2)c2cccc([O-])c2)cc1 (optimized conformer: 48.27736056122279 kcal/mol)

>  <smiles>  (17) 
Cc1ccc(S(=O)(=O)NCC(=O)N(Cc2cccc(O)c2)c2cccc(O)c2)cc1

>  <score_type>  (17) 
oracle

>  <origin>  (17) 
adg

>  <m_score__min__energy>  (17) 
-15.289999999999999

>  <m_primary>  (17) 
energy

$$$$
17:0
     RDKit          3D

 40 41  0  0  0  0  0  0  0  0999 V2000
   54.8250   26.3300   46.0000 N   0  0  0  0  0  0  0  0  0  0  0  0
   56.5220   25.9950   45.9870 S   0  0  0  0  0  0  0  0  0  0  0  0
   56.9180   25.3620   47.2930 O   0  0  0  0  0  0  0  0  0  0  0  0
   56.8380   25.0380   44.8710 O   0  0  0  0  0  0  0  0  0  0  0  0
   57.4110   27.4980   45.7580 C   0  0  0  0  0  0  0  0  0  0  0  0
   58.7860   27.5500   46.0190 C   0  0  0  0  0  0  0  0  0  0  0  0
   59.4890   28.7460   45.8460 C   0  0  0  0  0  0  0  0  0  0  0  0
   58.8190   29.9000   45.4300 C   0  0  0  0  0  0  0  0  0  0  0  0
   57.4380   29.8720   45.1960 C   0  0  0  0  0  0  0  0  0  0  0  0
   56.7920   31.0770   44.7580 N   0  0  0  0  0  0  0  0  0  0  0  0
   57.4090   32.1870   44.0920 C   0  0  0  0  0  0  0  0  0  0  0  0
   57.7330   32.1140   42.8770 O   0  0  0  0  0  0  0  0  0  0  0  0
   57.6670   33.4510   44.8480 C   0  0  0  0  0  0  0  0  0  0  0  0
   57.9540   33.1460   46.2480 N   0  0  0  0  0  0  0  0  0  0  0  0
   58.7260   34.0160   47.0830 C   0  0  0  0  0  0  0  0  0  0  0  0
   59.2250   35.0760   46.6130 O   0  0  0  0  0  0  0  0  0  0  0  0
   58.9290   33.6740   48.4580 N   0  0  0  0  0  0  0  0  0  0  0  0
   60.1570   33.9640   49.1920 C   0  0  0  0  0  0  0  0  0  0  0  0
   61.3320   33.2880   48.5330 C   0  0  0  0  0  0  0  0  0  0  0  0
   61.1300   32.1040   47.8050 C   0  0  0  0  0  0  0  0  0  0  0  0
   62.2060   31.4710   47.1710 C   0  0  0  0  0  0  0  0  0  0  0  0
   63.4890   32.0170   47.2580 C   0  0  0  0  0  0  0  0  0  0  0  0
   63.6990   33.1960   47.9760 C   0  0  0  0  0  0  0  0  0  0  0  0
   62.6280   33.8340   48.6130 C   0  0  0  0  0  0  0  0  0  0  0  0
   62.8580   34.9790   49.3040 F   0  0  0  0  0  0  0  0  0  0  0  0
   56.7390   28.6580   45.3420 C   0  0  0  0  0  0  0  0  0  0  0  0
   54.6710   27.0930   46.6980 H   0  0  0  0  0  0  0  0  0  0  0  0
   59.3141   26.6477   46.3609 H   0  0  0  0  0  0  0  0  0  0  0  0
   60.5717   28.7789   46.0377 H   0  0  0  0  0  0  0  0  0  0  0  0
   59.3793   30.8355   45.2855 H   0  0  0  0  0  0  0  0  0  0  0  0
   58.5287   33.9714   44.4045 H   0  0  0  0  0  0  0  0  0  0  0  0
   56.7753   34.0928   44.7936 H   0  0  0  0  0  0  0  0  0  0  0  0
   57.5940   32.2520   46.6510 H   0  0  0  0  0  0  0  0  0  0  0  0
   60.3241   35.0512   49.2048 H   0  0  0  0  0  0  0  0  0  0  0  0
   60.0571   33.5862   50.2202 H   0  0  0  0  0  0  0  0  0  0  0  0
   60.1211   31.6717   47.7325 H   0  0  0  0  0  0  0  0  0  0  0  0
   62.0410   30.5430   46.6039 H   0  0  0  0  0  0  0  0  0  0  0  0
   64.3339   31.5180   46.7608 H   0  0  0  0  0  0  0  0  0  0  0  0
   64.7097   33.6251   48.0414 H   0  0  0  0  0  0  0  0  0  0  0  0
   55.6606   28.6187   45.1289 H   0  0  0  0  0  0  0  0  0  0  0  0
  1  2  1  0
  2  3  2  0
  2  4  2  0
  2  5  1  0
  5  6  2  0
  6  7  1  0
  7  8  2  0
  8  9  1  0
  9 10  1  0
 10 11  1  0
 11 12  2  0
 11 13  1  0
 13 14  1  0
 14 15  1  0
 15 16  2  0
 15 17  1  0
 17 18  1  0
 18 19  1  0
 19 20  2  0
 20 21  1  0
 21 22  2  0
 22 23  1  0
 23 24  2  0
 24 25  1  0
  9 26  2  0
 26  5  1  0
 24 19  1  0
  1 27  1  0
  6 28  1  0
  7 29  1  0
  8 30  1  0
 13 31  1  0
 13 32  1  0
 14 33  1  0
 18 34  1  0
 18 35  1  0
 20 36  1  0
 21 37  1  0
 22 38  1  0
 23 39  1  0
 26 40  1  0
M  CHG  3   1  -1  10  -1  17  -1
M  END
>  <UniqueID>  (18) 
16

>  <SMILES>  (18) 
[NH-]S(=O)(=O)c1cccc([N-]C(=O)CNC(=O)[N-]Cc2ccccc2F)c1

>  <Energy>  (18) 
37.99389985187993

>  <Genealogy>  (18) 
[NH-]S(=O)(=O)c1cccc([N-]C(=O)CNC(=O)[N-]Cc2ccccc2F)c1 (protonated)
[NH-]S(=O)(=O)c1cccc([N-]C(=O)CNC(=O)[N-]Cc2ccccc2F)c1 (3D coordinates assigned)
[NH-]S(=O)(=O)c1cccc([N-]C(=O)CNC(=O)[N-]Cc2ccccc2F)c1 (optimized conformer: 37.99389985187993 kcal/mol)

>  <smiles>  (18) 
NS(=O)(=O)c1cccc(NC(=O)CNC(=O)NCc2ccccc2F)c1

>  <score_type>  (18) 
oracle

>  <origin>  (18) 
adg

>  <m_score__min__energy>  (18) 
-13.49

>  <m_primary>  (18) 
energy

$$$$
18:0
     RDKit          3D

 42 44  0  0  1  0  0  0  0  0999 V2000
   54.5590   25.4530   45.7800 O   0  0  0  0  0  0  0  0  0  0  0  0
   55.7210   25.8860   45.6180 C   0  0  0  0  0  0  0  0  0  0  0  0
   55.9630   27.2120   45.6600 N   0  0  0  0  0  0  0  0  0  0  0  0
   57.1860   27.7430   45.4930 C   0  0  0  0  0  0  0  0  0  0  0  0
   57.4300   29.0080   45.5310 N   0  0  0  0  0  0  0  0  0  0  0  0
   56.8420   29.9960   44.2590 S   0  0  0  0  0  0  0  0  0  0  0  0
   56.6750   29.0600   43.0670 O   0  0  0  0  0  0  0  0  0  0  0  0
   55.4920   30.5670   44.4970 O   0  0  0  0  0  0  0  0  0  0  0  0
   58.0440   31.1940   43.7420 C   0  0  0  0  0  0  0  0  0  0  0  0
   58.1900   32.1920   44.8110 C   0  0  0  0  0  0  0  0  0  0  0  0
   58.4160   33.5120   44.4190 C   0  0  0  0  0  0  0  0  0  0  0  0
   58.5670   34.5240   45.3330 C   0  0  0  0  0  0  0  0  0  0  0  0
   58.4920   34.2270   46.6810 C   0  0  0  0  0  0  0  0  0  0  0  0
   58.2670   32.9220   47.1080 C   0  0  0  0  0  0  0  0  0  0  0  0
   58.1160   31.9100   46.1590 C   0  0  0  0  0  0  0  0  0  0  0  0
   58.2230   26.8420   45.2690 C   0  0  0  0  0  0  0  0  0  0  0  0
   57.9560   25.4720   45.2290 C   0  0  0  0  0  0  0  0  0  0  0  0
   56.7090   24.9970   45.4020 N   0  0  0  0  0  0  0  0  0  0  0  0
   56.4170   23.5570   45.3610 C   0  0  2  0  0  0  0  0  0  0  0  0
   57.9640   22.6700   45.8060 S   0  0  0  0  0  0  0  0  0  0  0  0
   58.3420   22.0840   44.1060 C   0  0  0  0  0  0  0  0  0  0  0  0
   56.9100   21.8710   43.6520 C   0  0  1  0  0  0  0  0  0  0  0  0
   56.4120   20.7180   44.2380 O   0  0  0  0  0  0  0  0  0  0  0  0
   56.1330   23.0970   43.9700 C   0  0  2  0  0  0  0  0  0  0  0  0
   56.3230   24.0860   43.0120 O   0  0  0  0  0  0  0  0  0  0  0  0
   55.1540   27.8330   45.8290 H   0  0  0  0  0  0  0  0  0  0  0  0
   59.0093   30.6984   43.5614 H   0  0  0  0  0  0  0  0  0  0  0  0
   57.7179   31.6807   42.8110 H   0  0  0  0  0  0  0  0  0  0  0  0
   58.4748   33.7480   43.3462 H   0  0  0  0  0  0  0  0  0  0  0  0
   58.7451   35.5565   44.9981 H   0  0  0  0  0  0  0  0  0  0  0  0
   58.6113   35.0301   47.4232 H   0  0  0  0  0  0  0  0  0  0  0  0
   58.2088   32.6905   48.1818 H   0  0  0  0  0  0  0  0  0  0  0  0
   57.9361   30.8764   46.4896 H   0  0  0  0  0  0  0  0  0  0  0  0
   59.2501   27.2082   45.1239 H   0  0  0  0  0  0  0  0  0  0  0  0
   58.7817   24.7669   45.0525 H   0  0  0  0  0  0  0  0  0  0  0  0
   55.5622   23.3671   46.0268 H   0  0  0  0  0  0  0  0  0  0  0  0
   58.8634   22.8446   43.5064 H   0  0  0  0  0  0  0  0  0  0  0  0
   59.0148   21.2175   44.0255 H   0  0  0  0  0  0  0  0  0  0  0  0
   56.8385   21.7160   42.5653 H   0  0  0  0  0  0  0  0  0  0  0  0
   57.0220   19.9500   44.1280 H   0  0  0  0  0  0  0  0  0  0  0  0
   55.0614   22.8515   43.9336 H   0  0  0  0  0  0  0  0  0  0  0  0
   55.9280   24.9480   43.3180 H   0  0  0  0  0  0  0  0  0  0  0  0
  1  2  2  0
  2  3  1  0
  3  4  1  0
  4  5  2  0
  5  6  1  0
  6  7  2  0
  6  8  2  0
  6  9  1  0
  9 10  1  0
 10 11  2  0
 11 12  1  0
 12 13  2  0
 13 14  1  0
 14 15  2  0
  4 16  1  0
 16 17  2  0
 17 18  1  0
 18 19  1  0
 19 20  1  0
 20 21  1  0
 21 22  1  0
 22 23  1  0
 22 24  1  0
 24 25  1  0
 18  2  1  0
 24 19  1  0
 15 10  1  0
  3 26  1  0
  9 27  1  0
  9 28  1  0
 11 29  1  0
 12 30  1  0
 13 31  1  0
 14 32  1  0
 15 33  1  0
 16 34  1  0
 17 35  1  0
 19 36  1  1
 21 37  1  0
 21 38  1  0
 22 39  1  6
 23 40  1  0
 24 41  1  1
 25 42  1  0
M  END
>  <smiles>  (19) 
O=c1[nH]c(=NS(=O)(=O)Cc2ccccc2)ccn1C1SCC(O)C1O

>  <score_type>  (19) 
oracle

>  <origin>  (19) 
adg

>  <m_score__min__energy>  (19) 
-9.8900000000000006

>  <m_primary>  (19) 
energy

$$$$
19:0
     RDKit          3D

 56 58  0  0  0  0  0  0  0  0999 V2000
   52.0680   28.4730   53.0170 C   0  0  0  0  0  0  0  0  0  0  0  0
   53.3190   29.2610   52.7290 C   0  0  0  0  0  0  0  0  0  0  0  0
   54.5330   28.8360   53.2940 C   0  0  0  0  0  0  0  0  0  0  0  0
   55.7170   29.5310   53.0440 C   0  0  0  0  0  0  0  0  0  0  0  0
   55.7160   30.6690   52.2250 C   0  0  0  0  0  0  0  0  0  0  0  0
   56.9820   31.4000   51.9700 C   0  0  0  0  0  0  0  0  0  0  0  0
   57.8310   31.5000   52.8980 O   0  0  0  0  0  0  0  0  0  0  0  0
   57.2390   32.0050   50.6890 N   0  0  0  0  0  0  0  0  0  0  0  0
   58.5170   32.5380   50.2980 C   0  0  0  0  0  0  0  0  0  0  0  0
   59.4350   32.6710   51.1530 O   0  0  0  0  0  0  0  0  0  0  0  0
   58.7700   32.9550   48.8970 C   0  0  0  0  0  0  0  0  0  0  0  0
   59.5910   34.0600   48.6050 C   0  0  0  0  0  0  0  0  0  0  0  0
   59.8120   34.4480   47.2820 C   0  0  0  0  0  0  0  0  0  0  0  0
   59.2160   33.7440   46.2340 C   0  0  0  0  0  0  0  0  0  0  0  0
   58.3890   32.6470   46.5070 C   0  0  0  0  0  0  0  0  0  0  0  0
   57.6080   31.7610   45.1970 S   0  0  0  0  0  0  0  0  0  0  0  0
   56.2850   32.3940   44.8630 O   0  0  0  0  0  0  0  0  0  0  0  0
   58.4910   31.8260   43.9810 O   0  0  0  0  0  0  0  0  0  0  0  0
   57.3690   30.0950   45.6700 N   0  0  0  0  0  0  0  0  0  0  0  0
   58.6230   29.5520   46.2430 C   0  0  0  0  0  0  0  0  0  0  0  0
   58.6450   28.0220   46.1660 C   0  0  0  0  0  0  0  0  0  0  0  0
   58.6370   27.5560   44.7610 N   0  0  0  0  0  0  0  0  0  0  0  0
   58.1120   26.1850   44.6750 C   0  0  0  0  0  0  0  0  0  0  0  0
   57.9240   28.4690   43.8330 C   0  0  0  0  0  0  0  0  0  0  0  0
   56.8320   29.2900   44.5420 C   0  0  0  0  0  0  0  0  0  0  0  0
   58.1630   32.2600   47.8350 C   0  0  0  0  0  0  0  0  0  0  0  0
   54.5090   31.0830   51.6360 C   0  0  0  0  0  0  0  0  0  0  0  0
   53.3120   30.3890   51.8740 C   0  0  0  0  0  0  0  0  0  0  0  0
   51.8250   30.9610   51.0970 S   0  0  0  0  0  0  0  0  0  0  0  0
   51.9110   32.6720   50.8660 N   0  0  0  0  0  0  0  0  0  0  0  0
   51.6450   30.3000   49.7600 O   0  0  0  0  0  0  0  0  0  0  0  0
   50.6370   30.6270   51.9570 O   0  0  0  0  0  0  0  0  0  0  0  0
   51.9313   28.3869   54.1051 H   0  0  0  0  0  0  0  0  0  0  0  0
   51.2009   28.9883   52.5781 H   0  0  0  0  0  0  0  0  0  0  0  0
   52.1583   27.4684   52.5781 H   0  0  0  0  0  0  0  0  0  0  0  0
   54.5504   27.9460   53.9403 H   0  0  0  0  0  0  0  0  0  0  0  0
   56.6589   29.1831   53.4932 H   0  0  0  0  0  0  0  0  0  0  0  0
   56.4340   32.1230   50.0340 H   0  0  0  0  0  0  0  0  0  0  0  0
   60.0620   34.6221   49.4249 H   0  0  0  0  0  0  0  0  0  0  0  0
   60.4580   35.3114   47.0647 H   0  0  0  0  0  0  0  0  0  0  0  0
   59.3960   34.0510   45.1932 H   0  0  0  0  0  0  0  0  0  0  0  0
   56.6470   30.1030   46.4290 H   0  0  0  0  0  0  0  0  0  0  0  0
   59.4788   29.9528   45.6799 H   0  0  0  0  0  0  0  0  0  0  0  0
   58.6831   29.8504   47.3000 H   0  0  0  0  0  0  0  0  0  0  0  0
   59.5541   27.6509   46.6618 H   0  0  0  0  0  0  0  0  0  0  0  0
   57.7448   27.6353   46.6661 H   0  0  0  0  0  0  0  0  0  0  0  0
   57.9594   25.7865   45.6889 H   0  0  0  0  0  0  0  0  0  0  0  0
   57.1532   26.1927   44.1359 H   0  0  0  0  0  0  0  0  0  0  0  0
   58.8307   25.5503   44.1359 H   0  0  0  0  0  0  0  0  0  0  0  0
   58.6539   29.1614   43.3883 H   0  0  0  0  0  0  0  0  0  0  0  0
   57.4345   27.8519   43.0652 H   0  0  0  0  0  0  0  0  0  0  0  0
   56.3712   29.9704   43.8107 H   0  0  0  0  0  0  0  0  0  0  0  0
   56.0971   28.5834   44.9551 H   0  0  0  0  0  0  0  0  0  0  0  0
   57.5049   31.4049   48.0489 H   0  0  0  0  0  0  0  0  0  0  0  0
   54.5020   31.9646   50.9782 H   0  0  0  0  0  0  0  0  0  0  0  0
   51.0290   33.0750   51.2560 H   0  0  0  0  0  0  0  0  0  0  0  0
  1  2  1  0
  2  3  2  0
  3  4  1  0
  4  5  2  0
  5  6  1  0
  6  7  2  0
  6  8  1  0
  8  9  1  0
  9 10  2  0
  9 11  1  0
 11 12  2  0
 12 13  1  0
 13 14  2  0
 14 15  1  0
 15 16  1  0
 16 17  2  0
 16 18  2  0
 16 19  1  0
 19 20  1  0
 20 21  1  0
 21 22  1  0
 22 23  1  0
 22 24  1  0
 24 25  1  0
 15 26  2  0
  5 27  1  0
 27 28  2  0
 28 29  1  0
 29 30  1  0
 29 31  2  0
 29 32  2  0
 28  2  1  0
 26 11  1  0
 25 19  1  0
  1 33  1  0
  1 34  1  0
  1 35  1  0
  3 36  1  0
  4 37  1  0
  8 38  1  0
 12 39  1  0
 13 40  1  0
 14 41  1  0
 19 42  1  0
 20 43  1  0
 20 44  1  0
 21 45  1  0
 21 46  1  0
 23 47  1  0
 23 48  1  0
 23 49  1  0
 24 50  1  0
 24 51  1  0
 25 52  1  0
 25 53  1  0
 26 54  1  0
 27 55  1  0
 30 56  1  0
M  CHG  2  19   1  30  -1
M  END
>  <UniqueID>  (20) 
17

>  <SMILES>  (20) 
Cc1ccc(C(=O)NC(=O)c2cccc(S(=O)(=O)[NH+]3CCN(C)CC3)c2)cc1S([NH-])(=O)=O

>  <Energy>  (20) 
74.0751721486448

>  <Genealogy>  (20) 
Cc1ccc(C(=O)NC(=O)c2cccc(S(=O)(=O)[NH+]3CCN(C)CC3)c2)cc1S([NH-])(=O)=O (protonated)
Cc1ccc(C(=O)NC(=O)c2cccc(S(=O)(=O)[NH+]3CCN(C)CC3)c2)cc1S([NH-])(=O)=O (3D coordinates assigned)
Cc1ccc(C(=O)NC(=O)c2cccc(S(=O)(=O)[NH+]3CCN(C)CC3)c2)cc1S([NH-])(=O)=O (nonaromatic ring conformer: 74.0751721486448 kcal/mol)

>  <smiles>  (20) 
Cc1ccc(C(=O)NC(=O)c2cccc(S(=O)(=O)N3CCN(C)CC3)c2)cc1S(N)(=O)=O

>  <score_type>  (20) 
oracle

>  <origin>  (20) 
adg

>  <m_score__min__energy>  (20) 
-11.949999999999999

>  <m_primary>  (20) 
energy

$$$$
20:0
     RDKit          3D

 25 26  0  0  0  0  0  0  0  0999 V2000
   56.5100   29.8990   42.4680 N   0  0  0  0  0  0  0  0  0  0  0  0
   56.4590   29.9660   44.1940 S   0  0  0  0  0  0  0  0  0  0  0  0
   55.1540   29.4020   44.6800 O   0  0  0  0  0  0  0  0  0  0  0  0
   56.5610   31.3970   44.6430 O   0  0  0  0  0  0  0  0  0  0  0  0
   57.7970   29.0360   44.8630 C   0  0  0  0  0  0  0  0  0  0  0  0
   59.0670   29.6140   44.9810 C   0  0  0  0  0  0  0  0  0  0  0  0
   60.1270   28.8760   45.5150 C   0  0  0  0  0  0  0  0  0  0  0  0
   59.9200   27.5630   45.9460 C   0  0  0  0  0  0  0  0  0  0  0  0
   58.6400   26.9860   45.8640 C   0  0  0  0  0  0  0  0  0  0  0  0
   58.4000   25.6330   46.2770 N   0  0  0  0  0  0  0  0  0  0  0  0
   57.2460   25.1580   46.9820 C   0  0  0  0  0  0  0  0  0  0  0  0
   57.4000   24.6440   48.1220 O   0  0  0  0  0  0  0  0  0  0  0  0
   55.9010   25.1850   46.3820 C   0  0  0  0  0  0  0  0  0  0  0  0
   55.1840   24.0840   46.0830 N   0  0  0  0  0  0  0  0  0  0  0  0
   54.0430   24.6150   45.6040 C   0  0  0  0  0  0  0  0  0  0  0  0
   54.0610   25.9600   45.6190 N   0  0  0  0  0  0  0  0  0  0  0  0
   55.2320   26.3200   46.1150 N   0  0  0  0  0  0  0  0  0  0  0  0
   57.5890   27.7220   45.3040 C   0  0  0  0  0  0  0  0  0  0  0  0
   57.3950   29.4070   42.2080 H   0  0  0  0  0  0  0  0  0  0  0  0
   55.7220   29.2830   42.1640 H   0  0  0  0  0  0  0  0  0  0  0  0
   59.2307   30.6510   44.6527 H   0  0  0  0  0  0  0  0  0  0  0  0
   61.1259   29.3295   45.5961 H   0  0  0  0  0  0  0  0  0  0  0  0
   60.7601   26.9793   46.3504 H   0  0  0  0  0  0  0  0  0  0  0  0
   53.1935   24.0174   45.2419 H   0  0  0  0  0  0  0  0  0  0  0  0
   56.5926   27.2657   45.2094 H   0  0  0  0  0  0  0  0  0  0  0  0
  1  2  1  0
  2  3  2  0
  2  4  2  0
  2  5  1  0
  5  6  2  0
  6  7  1  0
  7  8  2  0
  8  9  1  0
  9 10  1  0
 10 11  1  0
 11 12  2  0
 11 13  1  0
 13 14  1  0
 14 15  2  0
 15 16  1  0
 16 17  1  0
  9 18  2  0
 18  5  1  0
 17 13  2  0
  1 19  1  0
  1 20  1  0
  6 21  1  0
  7 22  1  0
  8 23  1  0
 15 24  1  0
 18 25  1  0
M  CHG  2  10  -1  16  -1
M  END
>  <UniqueID>  (21) 
18

>  <SMILES>  (21) 
NS(=O)(=O)c1cccc([N-]C(=O)c2nc[n-]n2)c1

>  <Energy>  (21) 
60.28683079238209

>  <Genealogy>  (21) 
NS(=O)(=O)c1cccc([N-]C(=O)c2nc[n-]n2)c1 (protonated)
NS(=O)(=O)c1cccc([N-]C(=O)c2nc[n-]n2)c1 (3D coordinates assigned)
NS(=O)(=O)c1cccc([N-]C(=O)c2nc[n-]n2)c1 (optimized conformer: 60.28683079238209 kcal/mol)

>  <smiles>  (21) 
NS(=O)(=O)c1cccc(NC(=O)c2nc[nH]n2)c1

>  <score_type>  (21) 
oracle

>  <origin>  (21) 
adg

>  <m_score__min__energy>  (21) 
-11.35

>  <m_primary>  (21) 
energy

$$$$
21:0
     RDKit          3D

 60 66  0  0  0  0  0  0  0  0999 V2000
   57.8381   24.6291   44.2879 H   0  0  0  0  0  0  0  0  0  0  0  0
   57.2930   25.0260   45.1570 C   0  0  0  0  0  0  0  0  0  0  0  0
   55.9130   24.5620   45.3800 C   0  0  0  0  0  0  0  0  0  0  0  0
   55.5140   23.3000   45.1450 N   0  0  0  0  0  0  0  0  0  0  0  0
   54.1890   23.3370   45.4070 C   0  0  0  0  0  0  0  0  0  0  0  0
   53.4510   22.3220   45.3100 O   0  0  0  0  0  0  0  0  0  0  0  0
   53.7160   24.5480   45.7700 N   0  0  0  0  0  0  0  0  0  0  0  0
   54.8170   25.3160   45.7380 C   0  0  0  0  0  0  0  0  0  0  0  0
   54.8050   26.6840   45.9800 O   0  0  0  0  0  0  0  0  0  0  0  0
   57.9240   25.9030   45.9500 C   0  0  0  0  0  0  0  0  0  0  0  0
   58.9620   25.6870   46.8620 C   0  0  0  0  0  0  0  0  0  0  0  0
   59.4080   24.7079   47.0909 H   0  0  0  0  0  0  0  0  0  0  0  0
   59.3370   26.8630   47.4220 N   0  0  0  0  0  0  0  0  0  0  0  0
   58.5710   27.8000   46.8860 N   0  0  0  0  0  0  0  0  0  0  0  0
   58.5880   29.1320   47.1340 C   0  0  0  0  0  0  0  0  0  0  0  0
   59.4260   29.6270   48.0000 N   0  0  0  0  0  0  0  0  0  0  0  0
   60.2840   30.8190   47.8870 C   0  0  2  0  0  0  0  0  0  0  0  0
   60.3460   31.2750   46.3560 C   0  0  0  0  0  0  0  0  0  0  0  0
   59.8405   30.4923   45.7714 H   0  0  0  0  0  0  0  0  0  0  0  0
   61.4218   31.4236   46.1810 H   0  0  0  0  0  0  0  0  0  0  0  0
   59.7060   32.6710   45.9080 C   0  0  1  0  0  0  0  0  0  0  0  0
   60.2471   32.6703   44.9503 H   0  0  0  0  0  0  0  0  0  0  0  0
   58.1710   32.6460   45.8350 C   0  0  0  0  0  0  0  0  0  0  0  0
   57.7730   31.8698   46.5051 H   0  0  0  0  0  0  0  0  0  0  0  0
   57.8291   32.4171   44.8149 H   0  0  0  0  0  0  0  0  0  0  0  0
   57.6830   34.0240   46.2790 C   0  0  0  0  0  0  0  0  0  0  0  0
   57.2871   33.9721   47.3040 H   0  0  0  0  0  0  0  0  0  0  0  0
   56.8770   34.3845   45.6230 H   0  0  0  0  0  0  0  0  0  0  0  0
   58.8840   34.9610   46.2290 C   0  0  0  0  0  0  0  0  0  0  0  0
   58.7861   35.7489   46.9903 H   0  0  0  0  0  0  0  0  0  0  0  0
   58.9655   35.4601   45.2521 H   0  0  0  0  0  0  0  0  0  0  0  0
   60.1080   34.0920   46.5180 C   0  0  1  0  0  0  0  0  0  0  0  0
   61.0573   34.3795   46.0424 H   0  0  0  0  0  0  0  0  0  0  0  0
   60.5720   34.2360   48.0440 C   0  0  0  0  0  0  0  0  0  0  0  0
   59.7356   34.6254   48.6430 H   0  0  0  0  0  0  0  0  0  0  0  0
   61.4252   34.9283   48.0963 H   0  0  0  0  0  0  0  0  0  0  0  0
   60.9960   32.8830   48.5930 C   0  0  2  0  0  0  0  0  0  0  0  0
   60.6729   33.1898   49.5987 H   0  0  0  0  0  0  0  0  0  0  0  0
   62.0730   31.9980   49.2090 C   0  0  0  0  0  0  0  0  0  0  0  0
   61.9888   31.9565   50.3050 H   0  0  0  0  0  0  0  0  0  0  0  0
   63.1048   32.3380   49.0364 H   0  0  0  0  0  0  0  0  0  0  0  0
   61.7120   30.6190   48.5440 C   0  0  0  0  0  0  0  0  0  0  0  0
   61.6764   29.8246   49.3040 H   0  0  0  0  0  0  0  0  0  0  0  0
   62.4631   30.3195   47.7982 H   0  0  0  0  0  0  0  0  0  0  0  0
   59.7730   31.9810   48.6870 C   0  0  0  0  0  0  0  0  0  0  0  0
   59.5456   31.6997   49.7258 H   0  0  0  0  0  0  0  0  0  0  0  0
   58.8288   32.4221   48.3349 H   0  0  0  0  0  0  0  0  0  0  0  0
   57.7050   29.9150   46.4500 N   0  0  0  0  0  0  0  0  0  0  0  0
   56.8380   29.3710   45.5440 C   0  0  0  0  0  0  0  0  0  0  0  0
   56.0130   30.1480   44.9120 N   0  0  0  0  0  0  0  0  0  0  0  0
   55.9180   30.2090   43.4570 C   0  0  0  0  0  0  0  0  0  0  0  0
   54.8256   30.3155   43.3841 H   0  0  0  0  0  0  0  0  0  0  0  0
   57.1040   30.8850   42.7950 C   0  0  0  0  0  0  0  0  0  0  0  0
   56.9610   31.4695   41.8742 H   0  0  0  0  0  0  0  0  0  0  0  0
   57.8800   31.5924   43.1228 H   0  0  0  0  0  0  0  0  0  0  0  0
   56.9720   29.3690   42.7630 C   0  0  0  0  0  0  0  0  0  0  0  0
   56.7339   28.8572   41.8189 H   0  0  0  0  0  0  0  0  0  0  0  0
   57.6135   28.5255   43.0581 H   0  0  0  0  0  0  0  0  0  0  0  0
   56.8460   28.0230   45.3130 N   0  0  0  0  0  0  0  0  0  0  0  0
   57.7280   27.2630   46.0040 C   0  0  0  0  0  0  0  0  0  0  0  0
  1  2  1  0
  2  3  1  0
  3  4  1  0
  4  5  1  0
  5  6  2  0
  5  7  1  0
  7  8  1  0
  8  9  1  0
  2 10  2  3
 10 11  1  0
 11 12  1  0
 11 13  2  0
 13 14  1  0
 14 15  1  0
 15 16  2  0
 17 16  1  6
 17 18  1  0
 18 19  1  0
 18 20  1  0
 18 21  1  0
 21 22  1  6
 21 23  1  0
 23 24  1  0
 23 25  1  0
 23 26  1  0
 26 27  1  0
 26 28  1  0
 26 29  1  0
 29 30  1  0
 29 31  1  0
 29 32  1  0
 32 33  1  6
 32 34  1  0
 34 35  1  0
 34 36  1  0
 34 37  1  0
 37 38  1  6
 37 39  1  0
 39 40  1  0
 39 41  1  0
 39 42  1  0
 42 43  1  0
 42 44  1  0
 37 45  1  0
 45 46  1  0
 45 47  1  0
 15 48  1  0
 48 49  1  0
 49 50  2  0
 50 51  1  0
 51 52  1  0
 51 53  1  0
 53 54  1  0
 53 55  1  0
 53 56  1  0
 56 57  1  0
 56 58  1  0
 49 59  1  0
 59 60  2  0
  8  3  2  0
 60 10  1  0
 60 14  1  0
 42 17  1  0
 56 51  1  0
 45 17  1  0
 32 21  1  0
M  CHG  4   4  -1   7  -1   9  -1  48  -1
M  END
>  <UniqueID>  (22) 
19

>  <SMILES>  (22) 
O=c1[n-]c([O-])c(C=c2cnn3/c(=N/[C@@]45CC[C@H](CC6CCCC6C4)C5)[n-]/c(=N/C4CC4)nc23)[n-]1

>  <Energy>  (22) 
532.0841513771309

>  <Genealogy>  (22) 
O=c1[n-]c([O-])c(C=c2cnn3c(=NC45CCC(CC6CCCC6C4)C5)[n-]c(=NC4CC4)nc23)[n-]1 (protonated)
O=c1[n-]c([O-])c(C=c2cnn3c(=N[C@@]45CC[C@H](CC6CCCC6C4)C5)[n-]c(=NC4CC4)nc23)[n-]1 (chirality)
O=c1[n-]c([O-])c(C=c2cnn3/c(=N/[C@@]45CC[C@H](CC6CCCC6C4)C5)[n-]/c(=N/C4CC4)nc23)[n-]1 (cis-trans isomerization)
O=c1[n-]c([O-])c(C=c2cnn3/c(=N/[C@@]45CC[C@H](CC6CCCC6C4)C5)[n-]/c(=N/C4CC4)nc23)[n-]1 (3D coordinates assigned)
O=c1[n-]c([O-])c(C=c2cnn3/c(=N/[C@@]45CC[C@H](CC6CCCC6C4)C5)[n-]/c(=N/C4CC4)nc23)[n-]1 (nonaromatic ring conformer: 532.0841513771309 kcal/mol)

>  <smiles>  (22) 
O=c1[nH]c(O)c(C=c2cnn3c(=NC45CCC(CC6CCCC6C4)C5)[nH]c(=NC4CC4)nc23)[nH]1

>  <score_type>  (22) 
oracle

>  <origin>  (22) 
adg

>  <m_score__min__energy>  (22) 
-17.960000000000001

>  <m_primary>  (22) 
energy

$$$$
22:0
     RDKit          3D

 54 56  0  0  0  0  0  0  0  0999 V2000
   55.1300   29.3640   44.7000 O   0  0  0  0  0  0  0  0  0  0  0  0
   56.3410   29.0630   44.8790 C   0  0  0  0  0  0  0  0  0  0  0  0
   57.4140   29.9390   44.3180 C   0  0  0  0  0  0  0  0  0  0  0  0
   57.1990   31.3210   44.7360 N   0  0  0  0  0  0  0  0  0  0  0  0
   57.7210   32.4380   43.9990 C   0  0  0  0  0  0  0  0  0  0  0  0
   58.3950   32.2500   42.9500 O   0  0  0  0  0  0  0  0  0  0  0  0
   57.5160   33.8370   44.5040 C   0  0  0  0  0  0  0  0  0  0  0  0
   58.8050   34.4180   45.0990 C   0  0  0  0  0  0  0  0  0  0  0  0
   58.9400   34.0910   46.5650 C   0  0  0  0  0  0  0  0  0  0  0  0
   58.1920   33.0420   47.1270 C   0  0  0  0  0  0  0  0  0  0  0  0
   58.3500   32.7080   48.4750 C   0  0  0  0  0  0  0  0  0  0  0  0
   59.2600   33.4120   49.2690 C   0  0  0  0  0  0  0  0  0  0  0  0
   60.0140   34.4500   48.7150 C   0  0  0  0  0  0  0  0  0  0  0  0
   59.8570   34.7890   47.3680 C   0  0  0  0  0  0  0  0  0  0  0  0
   56.7050   27.8770   45.5960 N   0  0  0  0  0  0  0  0  0  0  0  0
   57.9580   27.6420   46.2510 C   0  0  0  0  0  0  0  0  0  0  0  0
   58.7920   26.6260   45.7690 C   0  0  0  0  0  0  0  0  0  0  0  0
   60.0250   26.3760   46.3780 C   0  0  0  0  0  0  0  0  0  0  0  0
   60.4390   27.1480   47.4660 C   0  0  0  0  0  0  0  0  0  0  0  0
   59.6260   28.1850   47.9450 C   0  0  0  0  0  0  0  0  0  0  0  0
   60.1470   29.1640   49.3190 S   0  0  0  0  0  0  0  0  0  0  0  0
   61.2620   28.4550   50.0360 O   0  0  0  0  0  0  0  0  0  0  0  0
   59.0010   29.3190   50.2810 O   0  0  0  0  0  0  0  0  0  0  0  0
   60.6960   30.7450   48.8120 N   0  0  0  0  0  0  0  0  0  0  0  0
   61.2560   30.6820   47.4490 C   0  0  0  0  0  0  0  0  0  0  0  0
   62.1790   31.8830   47.1870 C   0  0  0  0  0  0  0  0  0  0  0  0
   63.2900   31.9650   48.0730 O   0  0  0  0  0  0  0  0  0  0  0  0
   63.0870   31.2970   49.3110 C   0  0  0  0  0  0  0  0  0  0  0  0
   61.6250   31.3440   49.7950 C   0  0  0  0  0  0  0  0  0  0  0  0
   58.3940   28.4400   47.3260 C   0  0  0  0  0  0  0  0  0  0  0  0
   58.3930   29.5958   44.6839 H   0  0  0  0  0  0  0  0  0  0  0  0
   57.3867   29.8854   43.2196 H   0  0  0  0  0  0  0  0  0  0  0  0
   56.6750   31.4980   45.6230 H   0  0  0  0  0  0  0  0  0  0  0  0
   57.1900   34.4738   43.6684 H   0  0  0  0  0  0  0  0  0  0  0  0
   56.7541   33.8080   45.2968 H   0  0  0  0  0  0  0  0  0  0  0  0
   59.6671   33.9988   44.5595 H   0  0  0  0  0  0  0  0  0  0  0  0
   58.7681   35.5123   44.9939 H   0  0  0  0  0  0  0  0  0  0  0  0
   57.4796   32.4818   46.5036 H   0  0  0  0  0  0  0  0  0  0  0  0
   57.7577   31.8903   48.9115 H   0  0  0  0  0  0  0  0  0  0  0  0
   59.3826   33.1489   50.3300 H   0  0  0  0  0  0  0  0  0  0  0  0
   60.7322   35.0011   49.3399 H   0  0  0  0  0  0  0  0  0  0  0  0
   60.4538   35.6054   46.9353 H   0  0  0  0  0  0  0  0  0  0  0  0
   58.4752   26.0213   44.9065 H   0  0  0  0  0  0  0  0  0  0  0  0
   60.6706   25.5697   45.9997 H   0  0  0  0  0  0  0  0  0  0  0  0
   61.4058   26.9417   47.9485 H   0  0  0  0  0  0  0  0  0  0  0  0
   61.8327   29.7519   47.3378 H   0  0  0  0  0  0  0  0  0  0  0  0
   60.4287   30.7059   46.7244 H   0  0  0  0  0  0  0  0  0  0  0  0
   62.5619   31.8068   46.1586 H   0  0  0  0  0  0  0  0  0  0  0  0
   61.5759   32.7885   47.3491 H   0  0  0  0  0  0  0  0  0  0  0  0
   63.3820   30.2440   49.1923 H   0  0  0  0  0  0  0  0  0  0  0  0
   63.6973   31.8153   50.0653 H   0  0  0  0  0  0  0  0  0  0  0  0
   61.5464   30.7893   50.7416 H   0  0  0  0  0  0  0  0  0  0  0  0
   61.3449   32.3994   49.9276 H   0  0  0  0  0  0  0  0  0  0  0  0
   57.7643   29.2685   47.6824 H   0  0  0  0  0  0  0  0  0  0  0  0
  1  2  2  0
  2  3  1  0
  3  4  1  0
  4  5  1  0
  5  6  2  0
  5  7  1  0
  7  8  1  0
  8  9  1  0
  9 10  2  0
 10 11  1  0
 11 12  2  0
 12 13  1  0
 13 14  2  0
  2 15  1  0
 15 16  1  0
 16 17  2  0
 17 18  1  0
 18 19  2  0
 19 20  1  0
 20 21  1  0
 21 22  2  0
 21 23  2  0
 21 24  1  0
 24 25  1  0
 25 26  1  0
 26 27  1  0
 27 28  1  0
 28 29  1  0
 20 30  2  0
 14  9  1  0
 30 16  1  0
 29 24  1  0
  3 31  1  0
  3 32  1  0
  4 33  1  0
  7 34  1  0
  7 35  1  0
  8 36  1  0
  8 37  1  0
 10 38  1  0
 11 39  1  0
 12 40  1  0
 13 41  1  0
 14 42  1  0
 17 43  1  0
 18 44  1  0
 19 45  1  0
 25 46  1  0
 25 47  1  0
 26 48  1  0
 26 49  1  0
 28 50  1  0
 28 51  1  0
 29 52  1  0
 29 53  1  0
 30 54  1  0
M  CHG  1  15  -1
M  END
>  <UniqueID>  (23) 
20

>  <SMILES>  (23) 
O=C(CNC(=O)CCc1ccccc1)[N-]c1cccc(S(=O)(=O)N2CCOCC2)c1

>  <Energy>  (23) 
61.63346798393688

>  <Genealogy>  (23) 
O=C(CNC(=O)CCc1ccccc1)[N-]c1cccc(S(=O)(=O)N2CCOCC2)c1 (protonated)
O=C(CNC(=O)CCc1ccccc1)[N-]c1cccc(S(=O)(=O)N2CCOCC2)c1 (3D coordinates assigned)
O=C(CNC(=O)CCc1ccccc1)[N-]c1cccc(S(=O)(=O)N2CCOCC2)c1 (nonaromatic ring conformer: 61.63346798393688 kcal/mol)

>  <smiles>  (23) 
O=C(CCc1ccccc1)NCC(=O)Nc1cccc(S(=O)(=O)N2CCOCC2)c1

>  <score_type>  (23) 
oracle

>  <origin>  (23) 
adg

>  <m_score__min__energy>  (23) 
-11.58

>  <m_primary>  (23) 
energy

$$$$
23:0
     RDKit          3D

 32 33  0  0  0  0  0  0  0  0999 V2000
   58.9290   31.5770   46.7290 C   0  0  0  0  0  0  0  0  0  0  0  0
   58.8130   31.7630   45.4110 C   0  0  0  0  0  0  0  0  0  0  0  0
   58.8670   30.6150   44.4400 C   0  0  0  0  0  0  0  0  0  0  0  0
   57.9140   29.5570   44.8340 N   0  0  0  0  0  0  0  0  0  0  0  0
   56.5670   29.8230   44.8410 C   0  0  0  0  0  0  0  0  0  0  0  0
   56.1310   30.9540   44.4940 O   0  0  0  0  0  0  0  0  0  0  0  0
   55.6820   28.8690   45.2210 N   0  0  0  0  0  0  0  0  0  0  0  0
   56.0880   27.6410   45.6200 C   0  0  0  0  0  0  0  0  0  0  0  0
   55.1350   26.6900   45.9700 O   0  0  0  0  0  0  0  0  0  0  0  0
   57.4540   27.3400   45.6610 C   0  0  0  0  0  0  0  0  0  0  0  0
   57.9400   26.0110   46.0990 C   0  0  0  0  0  0  0  0  0  0  0  0
   58.5300   25.1120   45.2950 C   0  0  0  0  0  0  0  0  0  0  0  0
   57.9710   23.7860   44.9460 C   0  0  0  0  0  0  0  0  0  0  0  0
   58.3740   22.6620   45.6820 C   0  0  0  0  0  0  0  0  0  0  0  0
   57.8480   21.3980   45.3880 C   0  0  0  0  0  0  0  0  0  0  0  0
   56.9050   21.2520   44.3690 C   0  0  0  0  0  0  0  0  0  0  0  0
   56.4730   22.3700   43.6500 C   0  0  0  0  0  0  0  0  0  0  0  0
   55.5210   22.2260   42.6480 O   0  0  0  0  0  0  0  0  0  0  0  0
   56.9970   23.6350   43.9400 C   0  0  0  0  0  0  0  0  0  0  0  0
   58.3630   28.3220   45.2360 C   0  0  0  0  0  0  0  0  0  0  0  0
   59.5990   28.0630   45.2430 O   0  0  0  0  0  0  0  0  0  0  0  0
   58.8852   32.4382   47.4119 H   0  0  0  0  0  0  0  0  0  0  0  0
   59.0683   30.5627   47.1311 H   0  0  0  0  0  0  0  0  0  0  0  0
   58.6742   32.7837   45.0251 H   0  0  0  0  0  0  0  0  0  0  0  0
   58.6081   30.9790   43.4348 H   0  0  0  0  0  0  0  0  0  0  0  0
   59.8839   30.1957   44.4420 H   0  0  0  0  0  0  0  0  0  0  0  0
   57.8083   25.7417   47.1574 H   0  0  0  0  0  0  0  0  0  0  0  0
   59.5045   25.3815   44.8618 H   0  0  0  0  0  0  0  0  0  0  0  0
   59.1071   22.7741   46.4944 H   0  0  0  0  0  0  0  0  0  0  0  0
   58.1783   20.5189   45.9608 H   0  0  0  0  0  0  0  0  0  0  0  0
   56.5017   20.2565   44.1318 H   0  0  0  0  0  0  0  0  0  0  0  0
   56.6468   24.5146   43.3800 H   0  0  0  0  0  0  0  0  0  0  0  0
  1  2  2  0
  2  3  1  0
  3  4  1  0
  4  5  1  0
  5  6  2  0
  5  7  1  0
  7  8  1  0
  8  9  1  0
  8 10  2  0
 10 11  1  0
 11 12  2  3
 12 13  1  0
 13 14  2  0
 14 15  1  0
 15 16  2  0
 16 17  1  0
 17 18  1  0
 17 19  2  0
 10 20  1  0
 20 21  2  0
 20  4  1  0
 19 13  1  0
  1 22  1  0
  1 23  1  0
  2 24  1  0
  3 25  1  0
  3 26  1  0
 11 27  1  0
 12 28  1  0
 14 29  1  0
 15 30  1  0
 16 31  1  0
 19 32  1  0
M  CHG  3   7  -1   9  -1  18  -1
M  END
>  <UniqueID>  (24) 
21

>  <SMILES>  (24) 
C=CCn1c(=O)[n-]c([O-])c(C=Cc2cccc([O-])c2)c1=O

>  <Energy>  (24) 
45.865556177868605

>  <Genealogy>  (24) 
C=CCn1c(=O)[n-]c([O-])c(C=Cc2cccc([O-])c2)c1=O (protonated)
C=CCn1c(=O)[n-]c([O-])c(C=Cc2cccc([O-])c2)c1=O (3D coordinates assigned)
C=CCn1c(=O)[n-]c([O-])c(C=Cc2cccc([O-])c2)c1=O (optimized conformer: 45.865556177868605 kcal/mol)

>  <smiles>  (24) 
C=CCn1c(=O)[nH]c(O)c(C=Cc2cccc(O)c2)c1=O

>  <score_type>  (24) 
oracle

>  <origin>  (24) 
adg

>  <m_score__min__energy>  (24) 
-13.99

>  <m_primary>  (24) 
energy

$$$$
24:0
     RDKit          3D

 61 64  0  0  0  0  0  0  0  0999 V2000
   57.0390   34.4150   45.2470 C   0  0  0  0  0  0  0  0  0  0  0  0
   58.4140   33.9300   45.2930 N   0  0  0  0  0  0  0  0  0  0  0  0
   59.4830   34.8790   45.6220 C   0  0  0  0  0  0  0  0  0  0  0  0
   60.2340   34.4210   46.8460 C   0  0  0  0  0  0  0  0  0  0  0  0
   59.6560   34.5410   48.1200 C   0  0  0  0  0  0  0  0  0  0  0  0
   60.3700   34.1600   49.2600 C   0  0  0  0  0  0  0  0  0  0  0  0
   61.6700   33.6640   49.1380 C   0  0  0  0  0  0  0  0  0  0  0  0
   62.2570   33.5490   47.8740 C   0  0  0  0  0  0  0  0  0  0  0  0
   61.5450   33.9270   46.7330 C   0  0  0  0  0  0  0  0  0  0  0  0
   58.6460   32.5070   45.2950 C   0  0  0  0  0  0  0  0  0  0  0  0
   59.5120   32.0160   46.0700 O   0  0  0  0  0  0  0  0  0  0  0  0
   57.7920   31.5900   44.5230 C   0  0  0  0  0  0  0  0  0  0  0  0
   57.7550   31.6390   43.1230 C   0  0  0  0  0  0  0  0  0  0  0  0
   56.9570   30.7410   42.4130 C   0  0  0  0  0  0  0  0  0  0  0  0
   56.2200   29.7680   43.0880 C   0  0  0  0  0  0  0  0  0  0  0  0
   56.2830   29.6790   44.4870 C   0  0  0  0  0  0  0  0  0  0  0  0
   55.6500   28.6100   45.2050 N   0  0  0  0  0  0  0  0  0  0  0  0
   56.3150   27.4150   45.6240 C   0  0  0  0  0  0  0  0  0  0  0  0
   55.8060   26.6930   46.5230 O   0  0  0  0  0  0  0  0  0  0  0  0
   57.5550   26.9680   44.9100 C   0  0  0  0  0  0  0  0  0  0  0  0
   58.7260   27.7940   45.3750 C   0  0  0  0  0  0  0  0  0  0  0  0
   59.8240   28.0120   44.5320 C   0  0  0  0  0  0  0  0  0  0  0  0
   60.8450   28.8830   44.9190 C   0  0  0  0  0  0  0  0  0  0  0  0
   60.7690   29.5570   46.1400 C   0  0  0  0  0  0  0  0  0  0  0  0
   59.6790   29.3520   47.0000 C   0  0  0  0  0  0  0  0  0  0  0  0
   59.5560   30.1570   48.1870 N   0  0  0  0  0  0  0  0  0  0  0  0
   59.3400   29.6260   49.5030 C   0  0  0  0  0  0  0  0  0  0  0  0
   59.8720   28.5290   49.8320 O   0  0  0  0  0  0  0  0  0  0  0  0
   58.5040   30.3610   50.4750 C   0  0  0  0  0  0  0  0  0  0  0  0
   58.5320   31.7650   50.5390 C   0  0  0  0  0  0  0  0  0  0  0  0
   57.7600   32.4230   51.5000 C   0  0  0  0  0  0  0  0  0  0  0  0
   56.9670   31.6870   52.3790 C   0  0  0  0  0  0  0  0  0  0  0  0
   56.9600   30.2960   52.2880 C   0  0  0  0  0  0  0  0  0  0  0  0
   57.7230   29.6700   51.3520 N   0  0  0  0  0  0  0  0  0  0  0  0
   58.6700   28.4520   46.6140 C   0  0  0  0  0  0  0  0  0  0  0  0
   57.0620   30.6000   45.1980 C   0  0  0  0  0  0  0  0  0  0  0  0
   56.6626   34.5478   46.2720 H   0  0  0  0  0  0  0  0  0  0  0  0
   57.0076   35.3785   44.7172 H   0  0  0  0  0  0  0  0  0  0  0  0
   56.4100   33.6845   44.7172 H   0  0  0  0  0  0  0  0  0  0  0  0
   60.1800   34.9481   44.7738 H   0  0  0  0  0  0  0  0  0  0  0  0
   59.0361   35.8634   45.8252 H   0  0  0  0  0  0  0  0  0  0  0  0
   58.6349   34.9373   48.2217 H   0  0  0  0  0  0  0  0  0  0  0  0
   59.9076   34.2509   50.2539 H   0  0  0  0  0  0  0  0  0  0  0  0
   62.2314   33.3642   50.0352 H   0  0  0  0  0  0  0  0  0  0  0  0
   63.2815   33.1601   47.7779 H   0  0  0  0  0  0  0  0  0  0  0  0
   62.0127   33.8376   45.7414 H   0  0  0  0  0  0  0  0  0  0  0  0
   58.3555   32.3860   42.5832 H   0  0  0  0  0  0  0  0  0  0  0  0
   56.9089   30.8008   41.3157 H   0  0  0  0  0  0  0  0  0  0  0  0
   55.5875   29.0683   42.5220 H   0  0  0  0  0  0  0  0  0  0  0  0
   57.7435   25.9071   45.1312 H   0  0  0  0  0  0  0  0  0  0  0  0
   57.4215   27.0978   43.8259 H   0  0  0  0  0  0  0  0  0  0  0  0
   59.8820   27.4956   43.5625 H   0  0  0  0  0  0  0  0  0  0  0  0
   61.7119   29.0387   44.2600 H   0  0  0  0  0  0  0  0  0  0  0  0
   61.5694   30.2537   46.4297 H   0  0  0  0  0  0  0  0  0  0  0  0
   59.5640   31.1950   48.0750 H   0  0  0  0  0  0  0  0  0  0  0  0
   59.1558   32.3403   49.8391 H   0  0  0  0  0  0  0  0  0  0  0  0
   57.7780   33.5211   51.5629 H   0  0  0  0  0  0  0  0  0  0  0  0
   56.3537   32.1980   53.1358 H   0  0  0  0  0  0  0  0  0  0  0  0
   56.3366   29.7038   52.9741 H   0  0  0  0  0  0  0  0  0  0  0  0
   57.8252   28.2608   47.2920 H   0  0  0  0  0  0  0  0  0  0  0  0
   57.1020   30.5469   46.2960 H   0  0  0  0  0  0  0  0  0  0  0  0
  1  2  1  0
  2  3  1  0
  3  4  1  0
  4  5  2  0
  5  6  1  0
  6  7  2  0
  7  8  1  0
  8  9  2  0
  2 10  1  0
 10 11  2  0
 10 12  1  0
 12 13  2  0
 13 14  1  0
 14 15  2  0
 15 16  1  0
 16 17  1  0
 17 18  1  0
 18 19  2  0
 18 20  1  0
 20 21  1  0
 21 22  2  0
 22 23  1  0
 23 24  2  0
 24 25  1  0
 25 26  1  0
 26 27  1  0
 27 28  2  0
 27 29  1  0
 29 30  2  0
 30 31  1  0
 31 32  2  0
 32 33  1  0
 33 34  2  0
 25 35  2  0
 16 36  2  0
  9  4  1  0
 36 12  1  0
 35 21  1  0
 34 29  1  0
  1 37  1  0
  1 38  1  0
  1 39  1  0
  3 40  1  0
  3 41  1  0
  5 42  1  0
  6 43  1  0
  7 44  1  0
  8 45  1  0
  9 46  1  0
 13 47  1  0
 14 48  1  0
 15 49  1  0
 20 50  1  0
 20 51  1  0
 22 52  1  0
 23 53  1  0
 24 54  1  0
 26 55  1  0
 30 56  1  0
 31 57  1  0
 32 58  1  0
 33 59  1  0
 35 60  1  0
 36 61  1  0
M  CHG  1  17  -1
M  END
>  <UniqueID>  (25) 
22

>  <SMILES>  (25) 
CN(Cc1ccccc1)C(=O)c1cccc([N-]C(=O)Cc2cccc(NC(=O)c3ccccn3)c2)c1

>  <Energy>  (25) 
79.53932641256527

>  <Genealogy>  (25) 
CN(Cc1ccccc1)C(=O)c1cccc([N-]C(=O)Cc2cccc(NC(=O)c3ccccn3)c2)c1 (protonated)
CN(Cc1ccccc1)C(=O)c1cccc([N-]C(=O)Cc2cccc(NC(=O)c3ccccn3)c2)c1 (3D coordinates assigned)
CN(Cc1ccccc1)C(=O)c1cccc([N-]C(=O)Cc2cccc(NC(=O)c3ccccn3)c2)c1 (optimized conformer: 79.53932641256527 kcal/mol)

>  <smiles>  (25) 
CN(Cc1ccccc1)C(=O)c1cccc(NC(=O)Cc2cccc(NC(=O)c3ccccn3)c2)c1

>  <score_type>  (25) 
oracle

>  <origin>  (25) 
adg

>  <m_score__min__energy>  (25) 
-12.369999999999999

>  <m_primary>  (25) 
energy

$$$$
25:0
     RDKit          3D

 46 48  0  0  0  0  0  0  0  0999 V2000
   59.1780   30.6350   53.1120 C   0  0  0  0  0  0  0  0  0  0  0  0
   58.4970   29.8670   51.6570 S   0  0  0  0  0  0  0  0  0  0  0  0
   57.2400   29.1170   51.9990 O   0  0  0  0  0  0  0  0  0  0  0  0
   59.5050   28.8980   51.1100 O   0  0  0  0  0  0  0  0  0  0  0  0
   58.1640   31.0660   50.4480 N   0  0  0  0  0  0  0  0  0  0  0  0
   58.7330   31.1150   49.1320 C   0  0  0  0  0  0  0  0  0  0  0  0
   58.9050   29.9580   48.3550 C   0  0  0  0  0  0  0  0  0  0  0  0
   59.4250   30.0410   47.0580 C   0  0  0  0  0  0  0  0  0  0  0  0
   59.5370   28.8020   46.2070 C   0  0  0  0  0  0  0  0  0  0  0  0
   58.2150   28.0720   46.1610 C   0  0  0  0  0  0  0  0  0  0  0  0
   58.1020   26.7540   46.6390 C   0  0  0  0  0  0  0  0  0  0  0  0
   59.2000   26.1090   47.2020 O   0  0  0  0  0  0  0  0  0  0  0  0
   56.9140   26.1000   46.5540 N   0  0  0  0  0  0  0  0  0  0  0  0
   55.8230   26.6940   46.0080 C   0  0  0  0  0  0  0  0  0  0  0  0
   54.7340   26.0670   45.9420 O   0  0  0  0  0  0  0  0  0  0  0  0
   55.9050   27.9620   45.5330 N   0  0  0  0  0  0  0  0  0  0  0  0
   57.0680   28.6600   45.5920 C   0  0  0  0  0  0  0  0  0  0  0  0
   57.1020   29.8350   45.1380 O   0  0  0  0  0  0  0  0  0  0  0  0
   59.7950   31.2910   46.5420 C   0  0  0  0  0  0  0  0  0  0  0  0
   59.6880   32.4530   47.3230 C   0  0  0  0  0  0  0  0  0  0  0  0
   60.1420   33.7910   46.7570 C   0  0  0  0  0  0  0  0  0  0  0  0
   59.1310   34.4940   45.9270 N   0  0  0  0  0  0  0  0  0  0  0  0
   57.7410   34.2140   46.3080 C   0  0  0  0  0  0  0  0  0  0  0  0
   57.1600   33.2340   45.2940 C   0  0  0  0  0  0  0  0  0  0  0  0
   58.1640   33.1680   44.1580 C   0  0  0  0  0  0  0  0  0  0  0  0
   59.2220   34.2080   44.4910 C   0  0  0  0  0  0  0  0  0  0  0  0
   59.1190   32.3590   48.6110 C   0  0  0  0  0  0  0  0  0  0  0  0
   58.9160   33.5040   49.3770 O   0  0  0  0  0  0  0  0  0  0  0  0
   58.7560   30.1591   54.0094 H   0  0  0  0  0  0  0  0  0  0  0  0
   60.2714   30.5143   53.1127 H   0  0  0  0  0  0  0  0  0  0  0  0
   58.9273   31.7061   53.1127 H   0  0  0  0  0  0  0  0  0  0  0  0
   58.6285   28.9773   48.7694 H   0  0  0  0  0  0  0  0  0  0  0  0
   59.8280   29.0891   45.1858 H   0  0  0  0  0  0  0  0  0  0  0  0
   60.2963   28.1369   46.6442 H   0  0  0  0  0  0  0  0  0  0  0  0
   59.7650   26.5630   47.9100 H   0  0  0  0  0  0  0  0  0  0  0  0
   60.1741   31.3624   45.5119 H   0  0  0  0  0  0  0  0  0  0  0  0
   60.4076   34.4461   47.5998 H   0  0  0  0  0  0  0  0  0  0  0  0
   60.9900   33.5727   46.0912 H   0  0  0  0  0  0  0  0  0  0  0  0
   57.7123   33.7702   47.3141 H   0  0  0  0  0  0  0  0  0  0  0  0
   57.1540   35.1442   46.3185 H   0  0  0  0  0  0  0  0  0  0  0  0
   57.0328   32.2413   45.7506 H   0  0  0  0  0  0  0  0  0  0  0  0
   56.1701   33.5580   44.9402 H   0  0  0  0  0  0  0  0  0  0  0  0
   58.6143   32.1661   44.1005 H   0  0  0  0  0  0  0  0  0  0  0  0
   57.6919   33.3632   43.1838 H   0  0  0  0  0  0  0  0  0  0  0  0
   60.2212   33.8163   44.2497 H   0  0  0  0  0  0  0  0  0  0  0  0
   59.0588   35.1244   43.9049 H   0  0  0  0  0  0  0  0  0  0  0  0
  1  2  1  0
  2  3  2  0
  2  4  2  0
  2  5  1  0
  5  6  1  0
  6  7  2  0
  7  8  1  0
  8  9  1  0
  9 10  1  0
 10 11  2  0
 11 12  1  0
 11 13  1  0
 13 14  1  0
 14 15  2  0
 14 16  1  0
 16 17  1  0
 17 18  2  0
  8 19  2  0
 19 20  1  0
 20 21  1  0
 21 22  1  0
 22 23  1  0
 23 24  1  0
 24 25  1  0
 25 26  1  0
 20 27  2  0
 27 28  1  0
 27  6  1  0
 17 10  1  0
 26 22  1  0
  1 29  1  0
  1 30  1  0
  1 31  1  0
  7 32  1  0
  9 33  1  0
  9 34  1  0
 12 35  1  0
 19 36  1  0
 21 37  1  0
 21 38  1  0
 23 39  1  0
 23 40  1  0
 24 41  1  0
 24 42  1  0
 25 43  1  0
 25 44  1  0
 26 45  1  0
 26 46  1  0
M  CHG  4   5  -1  13  -1  16  -1  28  -1
M  END
>  <UniqueID>  (26) 
23

>  <SMILES>  (26) 
CS(=O)(=O)[N-]c1cc(Cc2c(O)[n-]c(=O)[n-]c2=O)cc(CN2CCCC2)c1[O-]

>  <Energy>  (26) 
53.29391461220529

>  <Genealogy>  (26) 
CS(=O)(=O)[N-]c1cc(Cc2c(O)[n-]c(=O)[n-]c2=O)cc(CN2CCCC2)c1[O-] (protonated)
CS(=O)(=O)[N-]c1cc(Cc2c(O)[n-]c(=O)[n-]c2=O)cc(CN2CCCC2)c1[O-] (3D coordinates assigned)
CS(=O)(=O)[N-]c1cc(Cc2c(O)[n-]c(=O)[n-]c2=O)cc(CN2CCCC2)c1[O-] (nonaromatic ring conformer: 53.29391461220529 kcal/mol)

>  <smiles>  (26) 
CS(=O)(=O)Nc1cc(Cc2c(O)[nH]c(=O)[nH]c2=O)cc(CN2CCCC2)c1O

>  <score_type>  (26) 
oracle

>  <origin>  (26) 
adg

>  <m_score__min__energy>  (26) 
-14.99

>  <m_primary>  (26) 
energy

$$$$
26:0
     RDKit          3D

 65 69  0  0  0  0  0  0  0  0999 V2000
   64.5310   32.9660   49.0140 C   0  0  0  0  0  0  0  0  0  0  0  0
   63.8970   33.8660   49.9910 N   0  0  0  0  0  0  0  0  0  0  0  0
   64.0780   33.3220   51.3480 C   0  0  0  0  0  0  0  0  0  0  0  0
   62.4620   34.0270   49.6740 C   0  0  0  0  0  0  0  0  0  0  0  0
   61.8970   32.7480   49.1110 C   0  0  0  0  0  0  0  0  0  0  0  0
   61.6150   31.6720   49.9630 C   0  0  0  0  0  0  0  0  0  0  0  0
   61.1180   30.4730   49.4460 C   0  0  0  0  0  0  0  0  0  0  0  0
   60.9000   30.3270   48.0650 C   0  0  0  0  0  0  0  0  0  0  0  0
   60.3840   29.0470   47.5130 C   0  0  0  0  0  0  0  0  0  0  0  0
   60.7680   27.8220   48.0830 C   0  0  0  0  0  0  0  0  0  0  0  0
   60.2930   26.6200   47.5630 C   0  0  0  0  0  0  0  0  0  0  0  0
   59.4160   26.6180   46.4750 C   0  0  0  0  0  0  0  0  0  0  0  0
   58.9850   25.4350   45.9700 N   0  0  0  0  0  0  0  0  0  0  0  0
   58.1430   25.3550   44.9050 C   0  0  0  0  0  0  0  0  0  0  0  0
   57.7190   24.0180   44.4160 C   0  0  0  0  0  0  0  0  0  0  0  0
   56.6620   23.8750   43.4940 C   0  0  0  0  0  0  0  0  0  0  0  0
   56.2870   22.6090   43.0370 C   0  0  0  0  0  0  0  0  0  0  0  0
   56.9630   21.4720   43.4860 C   0  0  0  0  0  0  0  0  0  0  0  0
   58.0190   21.6000   44.3890 C   0  0  0  0  0  0  0  0  0  0  0  0
   58.3990   22.8640   44.8510 C   0  0  0  0  0  0  0  0  0  0  0  0
   57.6760   26.5390   44.3150 C   0  0  0  0  0  0  0  0  0  0  0  0
   58.0870   27.7890   44.8060 C   0  0  0  0  0  0  0  0  0  0  0  0
   57.5110   29.0030   44.1840 C   0  0  0  0  0  0  0  0  0  0  0  0
   57.1720   28.9860   42.9700 O   0  0  0  0  0  0  0  0  0  0  0  0
   57.3840   30.2130   44.9470 N   0  0  0  0  0  0  0  0  0  0  0  0
   56.9920   31.4830   44.3420 C   0  0  0  0  0  0  0  0  0  0  0  0
   57.7510   32.6170   44.9740 C   0  0  0  0  0  0  0  0  0  0  0  0
   57.7110   32.8020   46.3660 C   0  0  0  0  0  0  0  0  0  0  0  0
   58.4340   33.8410   46.9620 C   0  0  0  0  0  0  0  0  0  0  0  0
   59.2050   34.6990   46.1730 C   0  0  0  0  0  0  0  0  0  0  0  0
   59.9080   35.7040   46.7530 F   0  0  0  0  0  0  0  0  0  0  0  0
   59.2560   34.5180   44.7880 C   0  0  0  0  0  0  0  0  0  0  0  0
   58.5330   33.4810   44.1880 C   0  0  0  0  0  0  0  0  0  0  0  0
   58.9900   27.8380   45.8990 C   0  0  0  0  0  0  0  0  0  0  0  0
   59.5030   29.0470   46.4160 C   0  0  0  0  0  0  0  0  0  0  0  0
   61.1860   31.4100   47.2130 C   0  0  0  0  0  0  0  0  0  0  0  0
   61.6800   32.6090   47.7320 C   0  0  0  0  0  0  0  0  0  0  0  0
   65.0854   32.1790   49.5463 H   0  0  0  0  0  0  0  0  0  0  0  0
   63.7565   32.5059   48.3828 H   0  0  0  0  0  0  0  0  0  0  0  0
   65.2250   33.5404   48.3828 H   0  0  0  0  0  0  0  0  0  0  0  0
   63.8214   34.0931   52.0894 H   0  0  0  0  0  0  0  0  0  0  0  0
   63.4216   32.4498   51.4839 H   0  0  0  0  0  0  0  0  0  0  0  0
   65.1261   33.0169   51.4839 H   0  0  0  0  0  0  0  0  0  0  0  0
   61.9162   34.2902   50.5920 H   0  0  0  0  0  0  0  0  0  0  0  0
   62.3514   34.8242   48.9242 H   0  0  0  0  0  0  0  0  0  0  0  0
   61.7859   31.7718   51.0450 H   0  0  0  0  0  0  0  0  0  0  0  0
   60.8955   29.6366   50.1250 H   0  0  0  0  0  0  0  0  0  0  0  0
   61.4491   27.8117   48.9467 H   0  0  0  0  0  0  0  0  0  0  0  0
   60.6101   25.6669   48.0114 H   0  0  0  0  0  0  0  0  0  0  0  0
   56.1288   24.7664   43.1319 H   0  0  0  0  0  0  0  0  0  0  0  0
   55.4574   22.5074   42.3219 H   0  0  0  0  0  0  0  0  0  0  0  0
   56.6630   20.4762   43.1278 H   0  0  0  0  0  0  0  0  0  0  0  0
   58.5539   20.7045   44.7383 H   0  0  0  0  0  0  0  0  0  0  0  0
   59.2353   22.9576   45.5595 H   0  0  0  0  0  0  0  0  0  0  0  0
   56.9832   26.4880   43.4621 H   0  0  0  0  0  0  0  0  0  0  0  0
   57.5760   30.1910   45.9750 H   0  0  0  0  0  0  0  0  0  0  0  0
   57.2116   31.4550   43.2645 H   0  0  0  0  0  0  0  0  0  0  0  0
   55.9150   31.6391   44.5025 H   0  0  0  0  0  0  0  0  0  0  0  0
   57.1081   32.1265   46.9906 H   0  0  0  0  0  0  0  0  0  0  0  0
   58.3956   33.9826   48.0522 H   0  0  0  0  0  0  0  0  0  0  0  0
   59.8657   35.1921   44.1684 H   0  0  0  0  0  0  0  0  0  0  0  0
   58.5768   33.3415   43.0978 H   0  0  0  0  0  0  0  0  0  0  0  0
   59.2101   30.0019   45.9552 H   0  0  0  0  0  0  0  0  0  0  0  0
   61.0193   31.3115   46.1302 H   0  0  0  0  0  0  0  0  0  0  0  0
   61.9000   33.4485   47.0561 H   0  0  0  0  0  0  0  0  0  0  0  0
  1  2  1  0
  2  3  1  0
  2  4  1  0
  4  5  1  0
  5  6  2  0
  6  7  1  0
  7  8  2  0
  8  9  1  0
  9 10  2  0
 10 11  1  0
 11 12  2  0
 12 13  1  0
 13 14  2  0
 14 15  1  0
 15 16  2  0
 16 17  1  0
 17 18  2  0
 18 19  1  0
 19 20  2  0
 14 21  1  0
 21 22  2  0
 22 23  1  0
 23 24  2  0
 23 25  1  0
 25 26  1  0
 26 27  1  0
 27 28  2  0
 28 29  1  0
 29 30  2  0
 30 31  1  0
 30 32  1  0
 32 33  2  0
 22 34  1  0
 34 35  2  0
  8 36  1  0
 36 37  2  0
 37  5  1  0
 35  9  1  0
 34 12  1  0
 20 15  1  0
 33 27  1  0
  1 38  1  0
  1 39  1  0
  1 40  1  0
  3 41  1  0
  3 42  1  0
  3 43  1  0
  4 44  1  0
  4 45  1  0
  6 46  1  0
  7 47  1  0
 10 48  1  0
 11 49  1  0
 16 50  1  0
 17 51  1  0
 18 52  1  0
 19 53  1  0
 20 54  1  0
 21 55  1  0
 25 56  1  0
 26 57  1  0
 26 58  1  0
 28 59  1  0
 29 60  1  0
 32 61  1  0
 33 62  1  0
 35 63  1  0
 36 64  1  0
 37 65  1  0
M  END
>  <UniqueID>  (27) 
24

>  <SMILES>  (27) 
CN(C)Cc1ccc(-c2ccc3nc(-c4ccccc4)cc(C(=O)NCc4ccc(F)cc4)c3c2)cc1

>  <Energy>  (27) 
87.37294463406563

>  <Genealogy>  (27) 
CN(C)Cc1ccc(-c2ccc3nc(-c4ccccc4)cc(C(=O)NCc4ccc(F)cc4)c3c2)cc1 (3D coordinates assigned)
CN(C)Cc1ccc(-c2ccc3nc(-c4ccccc4)cc(C(=O)NCc4ccc(F)cc4)c3c2)cc1 (optimized conformer: 87.37294463406563 kcal/mol)

>  <smiles>  (27) 
CN(C)Cc1ccc(-c2ccc3nc(-c4ccccc4)cc(C(=O)NCc4ccc(F)cc4)c3c2)cc1

>  <score_type>  (27) 
oracle

>  <origin>  (27) 
adg

>  <m_score__min__energy>  (27) 
-10.09

>  <m_primary>  (27) 
energy

$$$$
27:0
     RDKit          3D

 56 59  0  0  0  0  0  0  0  0999 V2000
   60.0690   34.1370   47.9530 C   0  0  0  0  0  0  0  0  0  0  0  0
   59.2110   33.1060   48.6780 C   0  0  0  0  0  0  0  0  0  0  0  0
   59.9740   31.8700   48.8840 N   0  0  0  0  0  0  0  0  0  0  0  0
   59.6560   31.2330   50.1670 C   0  0  0  0  0  0  0  0  0  0  0  0
   58.7020   30.0850   50.0030 C   0  0  0  0  0  0  0  0  0  0  0  0
   58.0690   29.6530   50.9980 O   0  0  0  0  0  0  0  0  0  0  0  0
   58.5270   29.4830   48.7170 N   0  0  0  0  0  0  0  0  0  0  0  0
   59.3420   28.4360   48.1690 C   0  0  0  0  0  0  0  0  0  0  0  0
   60.2650   27.7430   48.9670 C   0  0  0  0  0  0  0  0  0  0  0  0
   61.0380   26.7160   48.4200 C   0  0  0  0  0  0  0  0  0  0  0  0
   60.9040   26.3820   47.0720 C   0  0  0  0  0  0  0  0  0  0  0  0
   60.0000   27.0790   46.2630 C   0  0  0  0  0  0  0  0  0  0  0  0
   59.2220   28.1080   46.8050 C   0  0  0  0  0  0  0  0  0  0  0  0
   58.2050   28.7660   45.9640 C   0  0  0  0  0  0  0  0  0  0  0  0
   58.2160   30.0920   45.5650 C   0  0  0  0  0  0  0  0  0  0  0  0
   59.1530   31.1120   45.7680 C   0  0  0  0  0  0  0  0  0  0  0  0
   58.8470   32.3940   45.2790 C   0  0  0  0  0  0  0  0  0  0  0  0
   57.6230   32.6370   44.6180 C   0  0  0  0  0  0  0  0  0  0  0  0
   56.6920   31.5970   44.4370 C   0  0  0  0  0  0  0  0  0  0  0  0
   57.0260   30.3350   44.9260 C   0  0  0  0  0  0  0  0  0  0  0  0
   56.3120   29.1550   44.9610 C   0  0  0  0  0  0  0  0  0  0  0  0
   55.0240   28.9770   44.4680 O   0  0  0  0  0  0  0  0  0  0  0  0
   57.0330   28.1920   45.5880 N   0  0  0  0  0  0  0  0  0  0  0  0
   56.5400   26.8770   45.9970 C   0  0  0  0  0  0  0  0  0  0  0  0
   57.2860   25.8100   45.2630 C   0  0  0  0  0  0  0  0  0  0  0  0
   57.7630   26.0550   44.1270 O   0  0  0  0  0  0  0  0  0  0  0  0
   57.5400   24.5670   45.9220 N   0  0  0  0  0  0  0  0  0  0  0  0
   57.0970   23.2540   45.5460 C   0  0  0  0  0  0  0  0  0  0  0  0
   57.1590   22.7740   44.2280 C   0  0  0  0  0  0  0  0  0  0  0  0
   56.6950   21.4930   43.9170 C   0  0  0  0  0  0  0  0  0  0  0  0
   56.1440   20.6830   44.9140 C   0  0  0  0  0  0  0  0  0  0  0  0
   55.5410   19.0820   44.5180 Cl  0  0  0  0  0  0  0  0  0  0  0  0
   56.0660   21.1550   46.2230 C   0  0  0  0  0  0  0  0  0  0  0  0
   56.5460   22.4320   46.5380 C   0  0  0  0  0  0  0  0  0  0  0  0
   60.5908   34.7640   48.6910 H   0  0  0  0  0  0  0  0  0  0  0  0
   60.8080   33.6209   47.3225 H   0  0  0  0  0  0  0  0  0  0  0  0
   59.4273   34.7699   47.3225 H   0  0  0  0  0  0  0  0  0  0  0  0
   58.9031   33.5103   49.6536 H   0  0  0  0  0  0  0  0  0  0  0  0
   58.3232   32.8835   48.0678 H   0  0  0  0  0  0  0  0  0  0  0  0
   59.7520   31.1940   48.1140 H   0  0  0  0  0  0  0  0  0  0  0  0
   60.5869   30.8596   50.6187 H   0  0  0  0  0  0  0  0  0  0  0  0
   59.1758   31.9850   50.8103 H   0  0  0  0  0  0  0  0  0  0  0  0
   60.3804   28.0096   50.0279 H   0  0  0  0  0  0  0  0  0  0  0  0
   61.7532   26.1700   49.0528 H   0  0  0  0  0  0  0  0  0  0  0  0
   61.5100   25.5695   46.6446 H   0  0  0  0  0  0  0  0  0  0  0  0
   59.9007   26.8176   45.1991 H   0  0  0  0  0  0  0  0  0  0  0  0
   60.0992   30.9165   46.2938 H   0  0  0  0  0  0  0  0  0  0  0  0
   59.5671   33.2148   45.4124 H   0  0  0  0  0  0  0  0  0  0  0  0
   57.3957   33.6455   44.2422 H   0  0  0  0  0  0  0  0  0  0  0  0
   55.7335   31.7740   43.9271 H   0  0  0  0  0  0  0  0  0  0  0  0
   56.6905   26.7502   47.0793 H   0  0  0  0  0  0  0  0  0  0  0  0
   55.4681   26.8001   45.7622 H   0  0  0  0  0  0  0  0  0  0  0  0
   57.5760   23.4111   43.4342 H   0  0  0  0  0  0  0  0  0  0  0  0
   56.7636   21.1209   42.8841 H   0  0  0  0  0  0  0  0  0  0  0  0
   55.6269   20.5236   47.0095 H   0  0  0  0  0  0  0  0  0  0  0  0
   56.4900   22.7938   47.5753 H   0  0  0  0  0  0  0  0  0  0  0  0
  1  2  1  0
  2  3  1  0
  3  4  1  0
  4  5  1  0
  5  6  2  0
  5  7  1  0
  7  8  1  0
  8  9  2  0
  9 10  1  0
 10 11  2  0
 11 12  1  0
 12 13  2  0
 13 14  1  0
 14 15  2  0
 15 16  1  0
 16 17  2  0
 17 18  1  0
 18 19  2  0
 19 20  1  0
 20 21  2  0
 21 22  1  0
 21 23  1  0
 23 24  1  0
 24 25  1  0
 25 26  2  0
 25 27  1  0
 27 28  1  0
 28 29  2  0
 29 30  1  0
 30 31  2  0
 31 32  1  0
 31 33  1  0
 33 34  2  0
 13  8  1  0
 23 14  1  0
 34 28  1  0
 20 15  1  0
  1 35  1  0
  1 36  1  0
  1 37  1  0
  2 38  1  0
  2 39  1  0
  3 40  1  0
  4 41  1  0
  4 42  1  0
  9 43  1  0
 10 44  1  0
 11 45  1  0
 12 46  1  0
 16 47  1  0
 17 48  1  0
 18 49  1  0
 19 50  1  0
 24 51  1  0
 24 52  1  0
 29 53  1  0
 30 54  1  0
 33 55  1  0
 34 56  1  0
M  CHG  3   7  -1  22  -1  27  -1
M  END
>  <UniqueID>  (28) 
25

>  <SMILES>  (28) 
CCNCC(=O)[N-]c1ccccc1-c1c2ccccc2c([O-])n1CC(=O)[N-]c1ccc(Cl)cc1

>  <Energy>  (28) 
100.74925914270452

>  <Genealogy>  (28) 
CCNCC(=O)[N-]c1ccccc1-c1c2ccccc2c([O-])n1CC(=O)[N-]c1ccc(Cl)cc1 (protonated)
CCNCC(=O)[N-]c1ccccc1-c1c2ccccc2c([O-])n1CC(=O)[N-]c1ccc(Cl)cc1 (3D coordinates assigned)
CCNCC(=O)[N-]c1ccccc1-c1c2ccccc2c([O-])n1CC(=O)[N-]c1ccc(Cl)cc1 (optimized conformer: 100.74925914270452 kcal/mol)

>  <smiles>  (28) 
CCNCC(=O)Nc1ccccc1-c1c2ccccc2c(O)n1CC(=O)Nc1ccc(Cl)cc1

>  <score_type>  (28) 
oracle

>  <origin>  (28) 
adg

>  <m_score__min__energy>  (28) 
-12.9

>  <m_primary>  (28) 
energy

$$$$
28:0
     RDKit          3D

 26 27  0  0  0  0  0  0  0  0999 V2000
   55.3600   28.9920   44.8590 N   0  0  0  0  0  0  0  0  0  0  0  0
   56.6060   29.6640   45.0300 C   0  0  0  0  0  0  0  0  0  0  0  0
   57.2670   29.4780   46.0860 O   0  0  0  0  0  0  0  0  0  0  0  0
   57.0920   30.5980   43.9930 C   0  0  0  0  0  0  0  0  0  0  0  0
   56.6300   30.5520   42.6650 C   0  0  0  0  0  0  0  0  0  0  0  0
   57.1150   31.5770   41.8630 C   0  0  0  0  0  0  0  0  0  0  0  0
   58.1270   32.5490   42.7890 S   0  0  0  0  0  0  0  0  0  0  0  0
   57.9700   31.6650   44.2090 C   0  0  0  0  0  0  0  0  0  0  0  0
   58.6590   31.9880   45.4220 N   0  0  0  0  0  0  0  0  0  0  0  0
   59.0490   33.3320   45.7510 C   0  0  0  0  0  0  0  0  0  0  0  0
   58.6010   34.2940   45.0690 O   0  0  0  0  0  0  0  0  0  0  0  0
   59.9490   33.6050   46.8960 C   0  0  0  0  0  0  0  0  0  0  0  0
   59.4120   33.9310   48.1560 C   0  0  0  0  0  0  0  0  0  0  0  0
   60.2550   34.1970   49.2390 C   0  0  0  0  0  0  0  0  0  0  0  0
   61.6420   34.1480   49.0770 C   0  0  0  0  0  0  0  0  0  0  0  0
   62.1880   33.8360   47.8300 C   0  0  0  0  0  0  0  0  0  0  0  0
   63.5340   33.8000   47.6710 F   0  0  0  0  0  0  0  0  0  0  0  0
   61.3490   33.5690   46.7430 C   0  0  0  0  0  0  0  0  0  0  0  0
   54.4930   29.3420   45.3220 H   0  0  0  0  0  0  0  0  0  0  0  0
   55.9460   29.7740   42.2950 H   0  0  0  0  0  0  0  0  0  0  0  0
   56.8768   31.7276   40.7997 H   0  0  0  0  0  0  0  0  0  0  0  0
   58.6440   31.2750   46.1840 H   0  0  0  0  0  0  0  0  0  0  0  0
   58.3211   33.9767   48.2892 H   0  0  0  0  0  0  0  0  0  0  0  0
   59.8255   34.4454   50.2208 H   0  0  0  0  0  0  0  0  0  0  0  0
   62.3035   34.3550   49.9312 H   0  0  0  0  0  0  0  0  0  0  0  0
   61.7853   33.3293   45.7621 H   0  0  0  0  0  0  0  0  0  0  0  0
  1  2  1  0
  2  3  2  0
  2  4  1  0
  4  5  1  0
  5  6  2  0
  6  7  1  0
  7  8  1  0
  8  9  1  0
  9 10  1  0
 10 11  2  0
 10 12  1  0
 12 13  2  0
 13 14  1  0
 14 15  2  0
 15 16  1  0
 16 17  1  0
 16 18  2  0
  8  4  2  0
 18 12  1  0
  1 19  1  0
  5 20  1  0
  6 21  1  0
  9 22  1  0
 13 23  1  0
 14 24  1  0
 15 25  1  0
 18 26  1  0
M  CHG  1   1  -1
M  END
>  <UniqueID>  (29) 
26

>  <SMILES>  (29) 
[NH-]C(=O)c1ccsc1NC(=O)c1cccc(F)c1

>  <Energy>  (29) 
60.56595869210528

>  <Genealogy>  (29) 
[NH-]C(=O)c1ccsc1NC(=O)c1cccc(F)c1 (protonated)
[NH-]C(=O)c1ccsc1NC(=O)c1cccc(F)c1 (3D coordinates assigned)
[NH-]C(=O)c1ccsc1NC(=O)c1cccc(F)c1 (optimized conformer: 60.56595869210528 kcal/mol)

>  <smiles>  (29) 
NC(=O)c1ccsc1NC(=O)c1cccc(F)c1

>  <score_type>  (29) 
oracle

>  <origin>  (29) 
adg

>  <m_score__min__energy>  (29) 
-9.7699999999999996

>  <m_primary>  (29) 
energy

$$$$
29:0
     RDKit          3D

 44 46  0  0  0  0  0  0  0  0999 V2000
   57.2683   26.0268   46.7201 H   0  0  0  0  0  0  0  0  0  0  0  0
   57.7680   27.0050   46.6620 C   0  0  0  0  0  0  0  0  0  0  0  0
   57.6090   27.7830   45.5620 N   0  0  0  0  0  0  0  0  0  0  0  0
   58.2030   29.0010   45.4290 C   0  0  0  0  0  0  0  0  0  0  0  0
   57.9540   29.6760   44.3400 N   0  0  0  0  0  0  0  0  0  0  0  0
   57.1690   30.8680   44.1900 C   0  0  0  0  0  0  0  0  0  0  0  0
   55.9630   30.8550   44.5510 O   0  0  0  0  0  0  0  0  0  0  0  0
   57.7690   32.1630   43.7020 C   0  0  0  0  0  0  0  0  0  0  0  0
   58.6254   31.9300   43.0522 H   0  0  0  0  0  0  0  0  0  0  0  0
   56.9813   32.7085   43.1617 H   0  0  0  0  0  0  0  0  0  0  0  0
   58.2450   33.0510   44.8260 C   0  0  0  0  0  0  0  0  0  0  0  0
   57.6880   32.9400   46.1110 C   0  0  0  0  0  0  0  0  0  0  0  0
   56.9201   32.1783   46.3114 H   0  0  0  0  0  0  0  0  0  0  0  0
   58.1060   33.7940   47.1360 C   0  0  0  0  0  0  0  0  0  0  0  0
   57.6632   33.7058   48.1391 H   0  0  0  0  0  0  0  0  0  0  0  0
   59.0860   34.7600   46.8880 C   0  0  0  0  0  0  0  0  0  0  0  0
   59.4131   35.4317   47.6954 H   0  0  0  0  0  0  0  0  0  0  0  0
   59.6500   34.8720   45.6140 C   0  0  0  0  0  0  0  0  0  0  0  0
   60.4231   35.6302   45.4203 H   0  0  0  0  0  0  0  0  0  0  0  0
   59.2330   34.0220   44.5860 C   0  0  0  0  0  0  0  0  0  0  0  0
   59.6797   34.1131   43.5849 H   0  0  0  0  0  0  0  0  0  0  0  0
   59.0630   29.4660   46.4620 C   0  0  0  0  0  0  0  0  0  0  0  0
   59.7610   30.6760   46.3130 O   0  0  0  0  0  0  0  0  0  0  0  0
   61.0990   30.9320   46.7350 C   0  0  0  0  0  0  0  0  0  0  0  0
   61.6847   31.2866   45.8741 H   0  0  0  0  0  0  0  0  0  0  0  0
   61.5217   29.9986   47.1350 H   0  0  0  0  0  0  0  0  0  0  0  0
   61.1400   31.9810   47.8250 C   0  0  0  0  0  0  0  0  0  0  0  0
   60.1740   31.9380   48.8460 C   0  0  0  0  0  0  0  0  0  0  0  0
   59.4054   31.1511   48.8351 H   0  0  0  0  0  0  0  0  0  0  0  0
   60.1800   32.8830   49.8730 C   0  0  0  0  0  0  0  0  0  0  0  0
   59.4219   32.8344   50.6686 H   0  0  0  0  0  0  0  0  0  0  0  0
   61.1450   33.8880   49.8920 C   0  0  0  0  0  0  0  0  0  0  0  0
   61.1515   34.6279   50.7059 H   0  0  0  0  0  0  0  0  0  0  0  0
   62.1030   33.9570   48.8800 C   0  0  0  0  0  0  0  0  0  0  0  0
   62.8658   34.7491   48.9061 H   0  0  0  0  0  0  0  0  0  0  0  0
   62.1040   33.0250   47.8270 C   0  0  0  0  0  0  0  0  0  0  0  0
   63.1680   33.1300   46.7670 C   0  0  0  0  0  0  0  0  0  0  0  0
   64.1538   33.2273   47.2453 H   0  0  0  0  0  0  0  0  0  0  0  0
   63.1520   32.2259   46.1406 H   0  0  0  0  0  0  0  0  0  0  0  0
   62.9756   34.0135   46.1406 H   0  0  0  0  0  0  0  0  0  0  0  0
   59.2080   28.6730   47.6170 C   0  0  0  0  0  0  0  0  0  0  0  0
   59.8363   29.0278   48.4473 H   0  0  0  0  0  0  0  0  0  0  0  0
   58.5620   27.4430   47.7160 C   0  0  0  0  0  0  0  0  0  0  0  0
   58.6787   26.8248   48.6183 H   0  0  0  0  0  0  0  0  0  0  0  0
  1  2  1  0
  2  3  1  0
  3  4  1  0
  4  5  2  0
  5  6  1  0
  6  7  2  0
  6  8  1  0
  8  9  1  0
  8 10  1  0
  8 11  1  0
 11 12  2  0
 12 13  1  0
 12 14  1  0
 14 15  1  0
 14 16  2  0
 16 17  1  0
 16 18  1  0
 18 19  1  0
 18 20  2  0
 20 21  1  0
  4 22  1  0
 22 23  1  0
 23 24  1  0
 24 25  1  0
 24 26  1  0
 24 27  1  0
 27 28  2  0
 28 29  1  0
 28 30  1  0
 30 31  1  0
 30 32  2  0
 32 33  1  0
 32 34  1  0
 34 35  1  0
 34 36  2  0
 36 37  1  0
 37 38  1  0
 37 39  1  0
 37 40  1  0
 22 41  2  0
 41 42  1  0
 41 43  1  0
 43 44  1  0
 43  2  2  0
 20 11  1  0
 36 27  1  0
M  CHG  1   3  -1
M  END
>  <UniqueID>  (30) 
27

>  <SMILES>  (30) 
Cc1ccccc1COc1ccc[n-]/c1=N/C(=O)Cc1ccccc1

>  <Energy>  (30) 
58.51940255719828

>  <Genealogy>  (30) 
Cc1ccccc1COc1ccc[n-]c1=NC(=O)Cc1ccccc1 (protonated)
Cc1ccccc1COc1ccc[n-]/c1=N/C(=O)Cc1ccccc1 (cis-trans isomerization)
Cc1ccccc1COc1ccc[n-]/c1=N/C(=O)Cc1ccccc1 (3D coordinates assigned)
Cc1ccccc1COc1ccc[n-]/c1=N/C(=O)Cc1ccccc1 (optimized conformer: 58.51940255719828 kcal/mol)

>  <smiles>  (30) 
Cc1ccccc1COc1ccc[nH]c1=NC(=O)Cc1ccccc1

>  <score_type>  (30) 
oracle

>  <origin>  (30) 
adg

>  <m_score__min__energy>  (30) 
-9.9299999999999997

>  <m_primary>  (30) 
energy

$$$$
30:0
     RDKit          3D

 49 51  0  0  0  0  0  0  0  0999 V2000
   60.7560   27.0850   47.7090 C   0  0  0  0  0  0  0  0  0  0  0  0
   60.3980   27.6260   46.4400 O   0  0  0  0  0  0  0  0  0  0  0  0
   59.0840   27.9320   46.0520 C   0  0  0  0  0  0  0  0  0  0  0  0
   58.0570   26.9710   46.0410 C   0  0  0  0  0  0  0  0  0  0  0  0
   56.7630   27.3280   45.6550 C   0  0  0  0  0  0  0  0  0  0  0  0
   56.4780   28.6420   45.2710 C   0  0  0  0  0  0  0  0  0  0  0  0
   55.1830   28.9650   44.8780 O   0  0  0  0  0  0  0  0  0  0  0  0
   57.4980   29.6150   45.2680 C   0  0  0  0  0  0  0  0  0  0  0  0
   57.2090   31.0180   44.8830 C   0  0  0  0  0  0  0  0  0  0  0  0
   56.2470   31.2490   44.0990 O   0  0  0  0  0  0  0  0  0  0  0  0
   58.0050   32.1580   45.4020 C   0  0  0  0  0  0  0  0  0  0  0  0
   58.4690   33.1660   44.5450 C   0  0  0  0  0  0  0  0  0  0  0  0
   59.1970   34.2360   45.0570 C   0  0  0  0  0  0  0  0  0  0  0  0
   59.4580   34.3050   46.4270 C   0  0  0  0  0  0  0  0  0  0  0  0
   60.1130   35.2850   46.8740 O   0  0  0  0  0  0  0  0  0  0  0  0
   59.0010   33.3200   47.2700 N   0  0  0  0  0  0  0  0  0  0  0  0
   59.2260   33.3940   48.7230 C   0  0  0  0  0  0  0  0  0  0  0  0
   60.6330   32.9900   49.0440 C   0  0  0  0  0  0  0  0  0  0  0  0
   60.8850   31.7890   49.3340 O   0  0  0  0  0  0  0  0  0  0  0  0
   61.6840   33.9650   49.0140 N   0  0  0  0  0  0  0  0  0  0  0  0
   62.9570   33.7680   49.6500 C   0  0  0  0  0  0  0  0  0  0  0  0
   63.1200   34.1740   50.9830 C   0  0  0  0  0  0  0  0  0  0  0  0
   64.3410   33.9920   51.6340 C   0  0  0  0  0  0  0  0  0  0  0  0
   65.4090   33.3970   50.9630 C   0  0  0  0  0  0  0  0  0  0  0  0
   65.2540   32.9610   49.6440 C   0  0  0  0  0  0  0  0  0  0  0  0
   64.0210   33.1240   48.9800 C   0  0  0  0  0  0  0  0  0  0  0  0
   63.8130   32.6370   47.6800 O   0  0  0  0  0  0  0  0  0  0  0  0
   63.3960   33.4300   46.5730 C   0  0  0  0  0  0  0  0  0  0  0  0
   58.2760   32.2690   46.7750 C   0  0  0  0  0  0  0  0  0  0  0  0
   58.7950   29.2450   45.6670 C   0  0  0  0  0  0  0  0  0  0  0  0
   60.3385   27.7159   48.5075 H   0  0  0  0  0  0  0  0  0  0  0  0
   60.3539   26.0651   47.7994 H   0  0  0  0  0  0  0  0  0  0  0  0
   61.8519   27.0564   47.7994 H   0  0  0  0  0  0  0  0  0  0  0  0
   58.2738   25.9342   46.3376 H   0  0  0  0  0  0  0  0  0  0  0  0
   55.9642   26.5718   45.6531 H   0  0  0  0  0  0  0  0  0  0  0  0
   58.2575   33.1111   43.4669 H   0  0  0  0  0  0  0  0  0  0  0  0
   59.5656   35.0247   44.3846 H   0  0  0  0  0  0  0  0  0  0  0  0
   59.0556   34.4251   49.0661 H   0  0  0  0  0  0  0  0  0  0  0  0
   58.5290   32.7120   49.2320 H   0  0  0  0  0  0  0  0  0  0  0  0
   61.5520   34.8180   48.4250 H   0  0  0  0  0  0  0  0  0  0  0  0
   62.2794   34.6391   51.5189 H   0  0  0  0  0  0  0  0  0  0  0  0
   64.4611   34.3183   52.6776 H   0  0  0  0  0  0  0  0  0  0  0  0
   66.3755   33.2705   51.4728 H   0  0  0  0  0  0  0  0  0  0  0  0
   66.0985   32.4882   49.1213 H   0  0  0  0  0  0  0  0  0  0  0  0
   62.9134   34.3477   46.9404 H   0  0  0  0  0  0  0  0  0  0  0  0
   64.2712   33.6954   45.9618 H   0  0  0  0  0  0  0  0  0  0  0  0
   62.6813   32.8594   45.9618 H   0  0  0  0  0  0  0  0  0  0  0  0
   57.8997   31.4990   47.4646 H   0  0  0  0  0  0  0  0  0  0  0  0
   59.5946   30.0003   45.6764 H   0  0  0  0  0  0  0  0  0  0  0  0
  1  2  1  0
  2  3  1  0
  3  4  2  0
  4  5  1  0
  5  6  2  0
  6  7  1  0
  6  8  1  0
  8  9  1  0
  9 10  2  0
  9 11  1  0
 11 12  1  0
 12 13  2  0
 13 14  1  0
 14 15  2  0
 14 16  1  0
 16 17  1  0
 17 18  1  0
 18 19  2  0
 18 20  1  0
 20 21  1  0
 21 22  2  0
 22 23  1  0
 23 24  2  0
 24 25  1  0
 25 26  2  0
 26 27  1  0
 27 28  1  0
 16 29  1  0
  8 30  2  0
 30  3  1  0
 29 11  2  0
 26 21  1  0
  1 31  1  0
  1 32  1  0
  1 33  1  0
  4 34  1  0
  5 35  1  0
 12 36  1  0
 13 37  1  0
 17 38  1  0
 17 39  1  0
 20 40  1  0
 22 41  1  0
 23 42  1  0
 24 43  1  0
 25 44  1  0
 28 45  1  0
 28 46  1  0
 28 47  1  0
 29 48  1  0
 30 49  1  0
M  CHG  1   7  -1
M  END
>  <UniqueID>  (31) 
28

>  <SMILES>  (31) 
COc1ccc([O-])c(C(=O)c2ccc(=O)n(CC(=O)Nc3ccccc3OC)c2)c1

>  <Energy>  (31) 
62.59337469771266

>  <Genealogy>  (31) 
COc1ccc([O-])c(C(=O)c2ccc(=O)n(CC(=O)Nc3ccccc3OC)c2)c1 (protonated)
COc1ccc([O-])c(C(=O)c2ccc(=O)n(CC(=O)Nc3ccccc3OC)c2)c1 (3D coordinates assigned)
COc1ccc([O-])c(C(=O)c2ccc(=O)n(CC(=O)Nc3ccccc3OC)c2)c1 (optimized conformer: 62.59337469771266 kcal/mol)

>  <smiles>  (31) 
COc1ccc(O)c(C(=O)c2ccc(=O)n(CC(=O)Nc3ccccc3OC)c2)c1

>  <score_type>  (31) 
oracle

>  <origin>  (31) 
adg

>  <m_score__min__energy>  (31) 
-11.76

>  <m_primary>  (31) 
energy

$$$$
31:0
     RDKit          3D

 49 52  0  0  1  0  0  0  0  0999 V2000
   57.1090   34.4300   44.8500 C   0  0  0  0  0  0  0  0  0  0  0  0
   58.5180   34.0890   45.2340 C   0  0  1  0  0  0  0  0  0  0  0  0
   59.3410   35.3350   45.2320 C   0  0  0  0  0  0  0  0  0  0  0  0
   59.4190   35.6720   46.6450 N   0  0  0  0  0  0  0  0  0  0  0  0
   59.1820   34.4910   47.4080 C   0  0  0  0  0  0  0  0  0  0  0  0
   59.3850   34.1880   48.7030 N   0  0  0  0  0  0  0  0  0  0  0  0
   59.0900   32.9930   49.2400 C   0  0  0  0  0  0  0  0  0  0  0  0
   59.3360   32.8380   50.4960 N   0  0  0  0  0  0  0  0  0  0  0  0
   58.5090   31.9470   51.2370 C   0  0  0  0  0  0  0  0  0  0  0  0
   58.8410   30.5890   51.2760 C   0  0  0  0  0  0  0  0  0  0  0  0
   58.0780   29.6760   51.9780 C   0  0  0  0  0  0  0  0  0  0  0  0
   56.9550   30.1400   52.6540 C   0  0  0  0  0  0  0  0  0  0  0  0
   56.2220   29.1780   53.3430 O   0  0  0  0  0  0  0  0  0  0  0  0
   56.5870   31.4720   52.6440 C   0  0  0  0  0  0  0  0  0  0  0  0
   57.3890   32.3570   51.9220 C   0  0  0  0  0  0  0  0  0  0  0  0
   58.5610   32.0310   48.4610 N   0  0  0  0  0  0  0  0  0  0  0  0
   58.3390   32.2940   47.1480 C   0  0  0  0  0  0  0  0  0  0  0  0
   57.8270   31.3710   46.3740 N   0  0  0  0  0  0  0  0  0  0  0  0
   58.6350   30.3050   45.8720 C   0  0  0  0  0  0  0  0  0  0  0  0
   59.9110   30.0550   46.3590 C   0  0  0  0  0  0  0  0  0  0  0  0
   60.6830   29.0280   45.8700 C   0  0  0  0  0  0  0  0  0  0  0  0
   60.2090   28.2020   44.8700 C   0  0  0  0  0  0  0  0  0  0  0  0
   58.9460   28.4430   44.3840 C   0  0  0  0  0  0  0  0  0  0  0  0
   58.1560   29.4690   44.8600 C   0  0  0  0  0  0  0  0  0  0  0  0
   56.5420   29.7710   44.2310 S   0  0  0  0  0  0  0  0  0  0  0  0
   56.4360   29.3390   42.5680 N   0  0  0  0  0  0  0  0  0  0  0  0
   56.2520   31.2460   44.4050 O   0  0  0  0  0  0  0  0  0  0  0  0
   55.5530   28.9700   45.0310 O   0  0  0  0  0  0  0  0  0  0  0  0
   58.6410   33.5140   46.6000 C   0  0  0  0  0  0  0  0  0  0  0  0
   56.5064   34.5758   45.7586 H   0  0  0  0  0  0  0  0  0  0  0  0
   57.1048   35.3551   44.2549 H   0  0  0  0  0  0  0  0  0  0  0  0
   56.6823   33.6092   44.2549 H   0  0  0  0  0  0  0  0  0  0  0  0
   58.8566   33.3412   44.5018 H   0  0  0  0  0  0  0  0  0  0  0  0
   60.3410   35.1487   44.8133 H   0  0  0  0  0  0  0  0  0  0  0  0
   58.9125   36.1390   44.6156 H   0  0  0  0  0  0  0  0  0  0  0  0
   59.6170   36.6310   47.0560 H   0  0  0  0  0  0  0  0  0  0  0  0
   59.7970   34.9500   49.2920 H   0  0  0  0  0  0  0  0  0  0  0  0
   59.7320   30.2391   50.7341 H   0  0  0  0  0  0  0  0  0  0  0  0
   58.3515   28.6108   52.0015 H   0  0  0  0  0  0  0  0  0  0  0  0
   56.3160   29.1140   54.3600 H   0  0  0  0  0  0  0  0  0  0  0  0
   55.6953   31.8216   53.1849 H   0  0  0  0  0  0  0  0  0  0  0  0
   57.1152   33.4221   51.8999 H   0  0  0  0  0  0  0  0  0  0  0  0
   58.3310   31.1050   48.8690 H   0  0  0  0  0  0  0  0  0  0  0  0
   60.3147   30.6955   47.1570 H   0  0  0  0  0  0  0  0  0  0  0  0
   61.6901   28.8622   46.2801 H   0  0  0  0  0  0  0  0  0  0  0  0
   60.8220   27.3783   44.4753 H   0  0  0  0  0  0  0  0  0  0  0  0
   58.5513   27.7950   43.5875 H   0  0  0  0  0  0  0  0  0  0  0  0
   56.5710   28.3030   42.5240 H   0  0  0  0  0  0  0  0  0  0  0  0
   55.4660   29.5730   42.2620 H   0  0  0  0  0  0  0  0  0  0  0  0
  1  2  1  0
  2  3  1  0
  3  4  1  0
  4  5  1  0
  5  6  1  0
  6  7  1  0
  7  8  2  0
  8  9  1  0
  9 10  2  0
 10 11  1  0
 11 12  2  0
 12 13  1  0
 12 14  1  0
 14 15  2  0
  7 16  1  0
 16 17  1  0
 17 18  2  0
 18 19  1  0
 19 20  2  0
 20 21  1  0
 21 22  2  0
 22 23  1  0
 23 24  2  0
 24 25  1  0
 25 26  1  0
 25 27  2  0
 25 28  2  0
 17 29  1  0
 29  2  1  0
 29  5  2  0
 15  9  1  0
 24 19  1  0
  1 30  1  0
  1 31  1  0
  1 32  1  0
  2 33  1  6
  3 34  1  0
  3 35  1  0
  4 36  1  0
  6 37  1  0
 10 38  1  0
 11 39  1  0
 13 40  1  0
 14 41  1  0
 15 42  1  0
 16 43  1  0
 20 44  1  0
 21 45  1  0
 22 46  1  0
 23 47  1  0
 26 48  1  0
 26 49  1  0
M  END
>  <smiles>  (32) 
CC1CNc2[nH]c(=Nc3ccc(O)cc3)[nH]c(=Nc3ccccc3S(N)(=O)=O)c21

>  <score_type>  (32) 
oracle

>  <origin>  (32) 
adg

>  <m_score__min__energy>  (32) 
-9.6799999999999997

>  <m_primary>  (32) 
energy

$$$$
32:0
     RDKit          3D

 53 56  0  0  0  0  0  0  0  0999 V2000
   57.7490   28.8990   44.3260 C   0  0  0  0  0  0  0  0  0  0  0  0
   56.2800   29.8560   44.0110 S   0  0  0  0  0  0  0  0  0  0  0  0
   55.1580   29.2950   44.8360 O   0  0  0  0  0  0  0  0  0  0  0  0
   55.9030   29.7780   42.5580 O   0  0  0  0  0  0  0  0  0  0  0  0
   56.5400   31.5080   44.4730 N   0  0  0  0  0  0  0  0  0  0  0  0
   57.6240   31.9900   45.2790 C   0  0  0  0  0  0  0  0  0  0  0  0
   57.9510   33.3490   45.2130 C   0  0  0  0  0  0  0  0  0  0  0  0
   58.9920   33.8680   45.9860 C   0  0  0  0  0  0  0  0  0  0  0  0
   59.7400   33.0280   46.8340 C   0  0  0  0  0  0  0  0  0  0  0  0
   60.8740   33.5530   47.7000 C   0  0  2  0  0  0  0  0  0  0  0  0
   62.2110   32.8240   47.4920 C   0  0  1  0  0  0  0  0  0  0  0  0
   63.3780   33.8020   47.2140 C   0  0  0  0  0  0  0  0  0  0  0  0
   64.4950   33.0980   46.7390 O   0  0  0  0  0  0  0  0  0  0  0  0
   62.1670   32.2250   48.8500 N   0  0  1  0  0  0  0  0  0  0  0  0
   63.3110   32.4480   49.7210 C   0  0  0  0  0  0  0  0  0  0  0  0
   64.3940   31.9740   49.4150 O   0  0  0  0  0  0  0  0  0  0  0  0
   63.1960   33.1490   51.0500 C   0  0  0  0  0  0  0  0  0  0  0  0
   61.8170   33.5420   51.3180 N   0  0  0  0  0  0  0  0  0  0  0  0
   61.2660   33.4420   52.6440 C   0  0  0  0  0  0  0  0  0  0  0  0
   61.9370   33.8710   53.6230 O   0  0  0  0  0  0  0  0  0  0  0  0
   59.9210   32.8670   52.8830 C   0  0  0  0  0  0  0  0  0  0  0  0
   59.7590   31.7220   53.6860 C   0  0  0  0  0  0  0  0  0  0  0  0
   58.4900   31.1740   53.8890 C   0  0  0  0  0  0  0  0  0  0  0  0
   57.3720   31.7550   53.2880 C   0  0  0  0  0  0  0  0  0  0  0  0
   57.5220   32.8850   52.4800 C   0  0  0  0  0  0  0  0  0  0  0  0
   58.7890   33.4370   52.2740 C   0  0  0  0  0  0  0  0  0  0  0  0
   61.0450   34.0690   50.2020 C   0  0  0  0  0  0  0  0  0  0  0  0
   60.9210   32.9780   49.1230 C   0  0  1  0  0  0  0  0  0  0  0  0
   59.4120   31.6640   46.8940 C   0  0  0  0  0  0  0  0  0  0  0  0
   58.3640   31.1480   46.1260 C   0  0  0  0  0  0  0  0  0  0  0  0
   57.8977   28.8021   45.4116 H   0  0  0  0  0  0  0  0  0  0  0  0
   57.6380   27.8994   43.8805 H   0  0  0  0  0  0  0  0  0  0  0  0
   58.6185   29.4045   43.8805 H   0  0  0  0  0  0  0  0  0  0  0  0
   57.3830   34.0145   44.5463 H   0  0  0  0  0  0  0  0  0  0  0  0
   59.2295   34.9407   45.9322 H   0  0  0  0  0  0  0  0  0  0  0  0
   60.7351   34.6258   47.5007 H   0  0  0  0  0  0  0  0  0  0  0  0
   62.3529   32.1387   46.6434 H   0  0  0  0  0  0  0  0  0  0  0  0
   63.0639   34.5379   46.4591 H   0  0  0  0  0  0  0  0  0  0  0  0
   63.6473   34.3158   48.1486 H   0  0  0  0  0  0  0  0  0  0  0  0
   64.8410   32.5570   47.4960 H   0  0  0  0  0  0  0  0  0  0  0  0
   61.9660   31.1980   48.7880 H   0  0  0  0  0  0  0  0  0  0  0  0
   63.5372   32.4699   51.8452 H   0  0  0  0  0  0  0  0  0  0  0  0
   63.8188   34.0553   51.0224 H   0  0  0  0  0  0  0  0  0  0  0  0
   60.6372   31.2559   54.1566 H   0  0  0  0  0  0  0  0  0  0  0  0
   58.3716   30.2832   54.5235 H   0  0  0  0  0  0  0  0  0  0  0  0
   56.3733   31.3234   53.4505 H   0  0  0  0  0  0  0  0  0  0  0  0
   56.6408   33.3410   52.0051 H   0  0  0  0  0  0  0  0  0  0  0  0
   58.9016   34.3228   51.6316 H   0  0  0  0  0  0  0  0  0  0  0  0
   60.0429   34.3594   50.5505 H   0  0  0  0  0  0  0  0  0  0  0  0
   61.5499   34.9520   49.7832 H   0  0  0  0  0  0  0  0  0  0  0  0
   60.0589   32.4219   49.5198 H   0  0  0  0  0  0  0  0  0  0  0  0
   59.9855   30.9946   47.5520 H   0  0  0  0  0  0  0  0  0  0  0  0
   58.1176   30.0776   46.1851 H   0  0  0  0  0  0  0  0  0  0  0  0
  1  2  1  0
  2  3  2  0
  2  4  2  0
  2  5  1  0
  5  6  1  0
  6  7  2  0
  7  8  1  0
  8  9  2  0
  9 10  1  0
 10 11  1  0
 11 12  1  0
 12 13  1  0
 11 14  1  0
 14 15  1  0
 15 16  2  0
 15 17  1  0
 17 18  1  0
 18 19  1  0
 19 20  2  0
 19 21  1  0
 21 22  2  0
 22 23  1  0
 23 24  2  0
 24 25  1  0
 25 26  2  0
 18 27  1  0
 27 28  1  0
  9 29  1  0
 29 30  2  0
 30  6  1  0
 28 10  1  0
 28 14  1  0
 26 21  1  0
  1 31  1  0
  1 32  1  0
  1 33  1  0
  7 34  1  0
  8 35  1  0
 10 36  1  1
 11 37  1  6
 12 38  1  0
 12 39  1  0
 13 40  1  0
 14 41  1  6
 17 42  1  0
 17 43  1  0
 22 44  1  0
 23 45  1  0
 24 46  1  0
 25 47  1  0
 26 48  1  0
 27 49  1  0
 27 50  1  0
 28 51  1  1
 29 52  1  0
 30 53  1  0
M  CHG  2   5  -1  14   1
M  END
>  <UniqueID>  (33) 
29

>  <SMILES>  (33) 
CS(=O)(=O)[N-]c1ccc([C@H]2C3CN(C(=O)c4ccccc4)CC(=O)[NH+]3[C@@H]2CO)cc1

>  <Energy>  (33) 
145.02555706312893

>  <Genealogy>  (33) 
CS(=O)(=O)[N-]c1ccc(C2C(CO)[NH+]3C(=O)CN(C(=O)c4ccccc4)CC23)cc1 (protonated)
CS(=O)(=O)[N-]c1ccc([C@H]2C3CN(C(=O)c4ccccc4)CC(=O)[NH+]3[C@@H]2CO)cc1 (chirality)
CS(=O)(=O)[N-]c1ccc([C@H]2C3CN(C(=O)c4ccccc4)CC(=O)[NH+]3[C@@H]2CO)cc1 (3D coordinates assigned)
CS(=O)(=O)[N-]c1ccc([C@H]2C3CN(C(=O)c4ccccc4)CC(=O)[NH+]3[C@@H]2CO)cc1 (nonaromatic ring conformer: 145.02555706312893 kcal/mol)

>  <smiles>  (33) 
CS(=O)(=O)Nc1ccc(C2C(CO)N3C(=O)CN(C(=O)c4ccccc4)CC23)cc1

>  <score_type>  (33) 
oracle

>  <origin>  (33) 
adg

>  <m_score__min__energy>  (33) 
-9.6099999999999994

>  <m_primary>  (33) 
energy

$$$$
33:0
     RDKit          3D

 30 31  0  0  0  0  0  0  0  0999 V2000
   55.1240   30.0900   43.3620 O   0  0  0  0  0  0  0  0  0  0  0  0
   56.0260   29.6250   44.1090 C   0  0  0  0  0  0  0  0  0  0  0  0
   57.4610   29.9330   43.8200 C   0  0  0  0  0  0  0  0  0  0  0  0
   57.8250   31.2780   44.3960 C   0  0  0  0  0  0  0  0  0  0  0  0
   58.0310   31.3970   45.7820 C   0  0  0  0  0  0  0  0  0  0  0  0
   58.4040   32.6220   46.3440 C   0  0  0  0  0  0  0  0  0  0  0  0
   58.6520   32.7550   48.0750 Cl  0  0  0  0  0  0  0  0  0  0  0  0
   58.5860   33.7390   45.5250 C   0  0  0  0  0  0  0  0  0  0  0  0
   58.3980   33.6320   44.1450 C   0  0  0  0  0  0  0  0  0  0  0  0
   58.0250   32.4100   43.5720 C   0  0  0  0  0  0  0  0  0  0  0  0
   57.8250   32.3380   41.8250 Cl  0  0  0  0  0  0  0  0  0  0  0  0
   55.6900   28.7980   45.2290 N   0  0  0  0  0  0  0  0  0  0  0  0
   56.4270   27.6430   45.6530 C   0  0  0  0  0  0  0  0  0  0  0  0
   57.8180   27.7480   45.7910 C   0  0  0  0  0  0  0  0  0  0  0  0
   58.5860   26.6490   46.2130 C   0  0  0  0  0  0  0  0  0  0  0  0
   60.0550   26.7590   46.3400 C   0  0  0  0  0  0  0  0  0  0  0  0
   60.6950   25.9790   47.0950 O   0  0  0  0  0  0  0  0  0  0  0  0
   60.7540   27.7270   45.6270 O   0  0  0  0  0  0  0  0  0  0  0  0
   57.9370   25.4400   46.5170 C   0  0  0  0  0  0  0  0  0  0  0  0
   56.5480   25.3400   46.4140 C   0  0  0  0  0  0  0  0  0  0  0  0
   55.7870   26.4370   46.0000 C   0  0  0  0  0  0  0  0  0  0  0  0
   54.4020   26.3270   45.9720 O   0  0  0  0  0  0  0  0  0  0  0  0
   58.0981   29.1585   44.2719 H   0  0  0  0  0  0  0  0  0  0  0  0
   57.6142   29.9528   42.7309 H   0  0  0  0  0  0  0  0  0  0  0  0
   57.8975   30.5183   46.4301 H   0  0  0  0  0  0  0  0  0  0  0  0
   58.8775   34.7032   45.9670 H   0  0  0  0  0  0  0  0  0  0  0  0
   58.5440   34.5139   43.5039 H   0  0  0  0  0  0  0  0  0  0  0  0
   58.3151   28.7031   45.5661 H   0  0  0  0  0  0  0  0  0  0  0  0
   58.5262   24.5682   46.8377 H   0  0  0  0  0  0  0  0  0  0  0  0
   56.0491   24.3911   46.6604 H   0  0  0  0  0  0  0  0  0  0  0  0
  1  2  2  0
  2  3  1  0
  3  4  1  0
  4  5  2  0
  5  6  1  0
  6  7  1  0
  6  8  2  0
  8  9  1  0
  9 10  2  0
 10 11  1  0
  2 12  1  0
 12 13  1  0
 13 14  2  0
 14 15  1  0
 15 16  1  0
 16 17  2  0
 16 18  1  0
 15 19  2  0
 19 20  1  0
 20 21  2  0
 21 22  1  0
 10  4  1  0
 21 13  1  0
  3 23  1  0
  3 24  1  0
  5 25  1  0
  8 26  1  0
  9 27  1  0
 14 28  1  0
 19 29  1  0
 20 30  1  0
M  CHG  3  12  -1  18  -1  22  -1
M  END
>  <UniqueID>  (34) 
30

>  <SMILES>  (34) 
O=C(Cc1cc(Cl)ccc1Cl)[N-]c1cc(C(=O)[O-])ccc1[O-]

>  <Energy>  (34) 
36.05834385326293

>  <Genealogy>  (34) 
O=C(Cc1cc(Cl)ccc1Cl)[N-]c1cc(C(=O)[O-])ccc1[O-] (protonated)
O=C(Cc1cc(Cl)ccc1Cl)[N-]c1cc(C(=O)[O-])ccc1[O-] (3D coordinates assigned)
O=C(Cc1cc(Cl)ccc1Cl)[N-]c1cc(C(=O)[O-])ccc1[O-] (optimized conformer: 36.05834385326293 kcal/mol)

>  <smiles>  (34) 
O=C(Cc1cc(Cl)ccc1Cl)Nc1cc(C(=O)O)ccc1O

>  <score_type>  (34) 
oracle

>  <origin>  (34) 
adg

>  <m_score__min__energy>  (34) 
-15.32

>  <m_primary>  (34) 
energy

$$$$
34:0
     RDKit          3D

 37 38  0  0  0  0  0  0  0  0999 V2000
   59.1160   35.2830   44.8750 O   0  0  0  0  0  0  0  0  0  0  0  0
   59.2720   34.1800   45.4580 C   0  0  0  0  0  0  0  0  0  0  0  0
   58.5990   33.0590   44.9040 N   0  0  0  0  0  0  0  0  0  0  0  0
   57.7800   33.1320   43.7500 C   0  0  0  0  0  0  0  0  0  0  0  0
   58.2020   32.3010   42.5760 C   0  0  0  0  0  0  0  0  0  0  0  0
   57.0090   31.6420   41.9420 C   0  0  0  0  0  0  0  0  0  0  0  0
   56.7770   30.3160   42.4210 N   0  0  0  0  0  0  0  0  0  0  0  0
   56.3400   30.2570   43.8020 C   0  0  0  0  0  0  0  0  0  0  0  0
   57.4980   30.0610   44.7090 C   0  0  0  0  0  0  0  0  0  0  0  0
   57.6300   30.3610   46.0130 N   0  0  0  0  0  0  0  0  0  0  0  0
   58.8660   30.0070   46.4400 C   0  0  0  0  0  0  0  0  0  0  0  0
   59.5580   30.1760   48.0400 Cl  0  0  0  0  0  0  0  0  0  0  0  0
   59.4990   29.4710   45.3390 C   0  0  0  0  0  0  0  0  0  0  0  0
   58.6680   29.5070   44.2970 N   0  0  0  0  0  0  0  0  0  0  0  0
   60.1150   34.1190   46.6410 C   0  0  0  0  0  0  0  0  0  0  0  0
   61.4570   33.8020   46.4370 C   0  0  0  0  0  0  0  0  0  0  0  0
   62.3170   33.7240   47.5060 C   0  0  0  0  0  0  0  0  0  0  0  0
   61.8630   33.9590   48.7900 C   0  0  0  0  0  0  0  0  0  0  0  0
   62.9590   33.8620   50.1560 Cl  0  0  0  0  0  0  0  0  0  0  0  0
   60.5420   34.2710   49.0000 C   0  0  0  0  0  0  0  0  0  0  0  0
   59.6750   34.3490   47.9160 C   0  0  0  0  0  0  0  0  0  0  0  0
   58.7420   32.1380   45.4090 H   0  0  0  0  0  0  0  0  0  0  0  0
   56.7674   32.8132   44.0382 H   0  0  0  0  0  0  0  0  0  0  0  0
   57.8510   34.1752   43.4085 H   0  0  0  0  0  0  0  0  0  0  0  0
   58.6958   32.9462   41.8345 H   0  0  0  0  0  0  0  0  0  0  0  0
   58.8966   31.5218   42.9228 H   0  0  0  0  0  0  0  0  0  0  0  0
   56.1185   32.2515   42.1555 H   0  0  0  0  0  0  0  0  0  0  0  0
   57.2112   31.5689   40.8632 H   0  0  0  0  0  0  0  0  0  0  0  0
   57.6180   29.7350   42.2920 H   0  0  0  0  0  0  0  0  0  0  0  0
   55.8332   31.1983   44.0612 H   0  0  0  0  0  0  0  0  0  0  0  0
   55.6503   29.4082   43.9194 H   0  0  0  0  0  0  0  0  0  0  0  0
   60.5257   29.0766   45.3227 H   0  0  0  0  0  0  0  0  0  0  0  0
   58.8690   29.1720   43.3310 H   0  0  0  0  0  0  0  0  0  0  0  0
   61.8282   33.6140   45.4187 H   0  0  0  0  0  0  0  0  0  0  0  0
   63.3747   33.4726   47.3385 H   0  0  0  0  0  0  0  0  0  0  0  0
   60.1725   34.4579   50.0191 H   0  0  0  0  0  0  0  0  0  0  0  0
   58.6176   34.5998   48.0862 H   0  0  0  0  0  0  0  0  0  0  0  0
  1  2  2  0
  2  3  1  0
  3  4  1  0
  4  5  1  0
  5  6  1  0
  6  7  1  0
  7  8  1  0
  8  9  1  0
  9 10  2  0
 10 11  1  0
 11 12  1  0
 11 13  2  0
 13 14  1  0
  2 15  1  0
 15 16  2  0
 16 17  1  0
 17 18  2  0
 18 19  1  0
 18 20  1  0
 20 21  2  0
 14  9  1  0
 21 15  1  0
  3 22  1  0
  4 23  1  0
  4 24  1  0
  5 25  1  0
  5 26  1  0
  6 27  1  0
  6 28  1  0
  7 29  1  0
  8 30  1  0
  8 31  1  0
 13 32  1  0
 14 33  1  0
 16 34  1  0
 17 35  1  0
 20 36  1  0
 21 37  1  0
M  END
>  <smiles>  (35) 
O=C(NCCCNCc1nc(Cl)c[nH]1)c1ccc(Cl)cc1

>  <score_type>  (35) 
oracle

>  <origin>  (35) 
adg

>  <m_score__min__energy>  (35) 
-7.1399999999999997

>  <m_primary>  (35) 
energy

$$$$
35:0
     RDKit          3D

 30 31  0  0  0  0  0  0  0  0999 V2000
   57.3677   29.0164   46.5631 H   0  0  0  0  0  0  0  0  0  0  0  0
   57.2800   28.2010   45.8300 C   0  0  0  0  0  0  0  0  0  0  0  0
   57.2600   28.5090   44.5290 C   0  0  0  0  0  0  0  0  0  0  0  0
   57.5915   27.7592   43.7956 H   0  0  0  0  0  0  0  0  0  0  0  0
   56.7960   29.8540   44.0430 C   0  0  0  0  0  0  0  0  0  0  0  0
   56.2455   29.7185   43.1004 H   0  0  0  0  0  0  0  0  0  0  0  0
   56.1561   30.2906   44.8240 H   0  0  0  0  0  0  0  0  0  0  0  0
   57.9630   30.8220   43.7980 C   0  0  0  0  0  0  0  0  0  0  0  0
   58.9070   30.2588   43.8382 H   0  0  0  0  0  0  0  0  0  0  0  0
   57.8207   31.2858   42.8108 H   0  0  0  0  0  0  0  0  0  0  0  0
   58.0060   31.9210   44.8300 C   0  0  0  0  0  0  0  0  0  0  0  0
   57.7670   33.2550   44.4580 C   0  0  0  0  0  0  0  0  0  0  0  0
   57.5194   33.4973   43.4140 H   0  0  0  0  0  0  0  0  0  0  0  0
   57.8430   34.2750   45.4110 C   0  0  0  0  0  0  0  0  0  0  0  0
   57.6507   35.3172   45.1162 H   0  0  0  0  0  0  0  0  0  0  0  0
   58.1630   33.9730   46.7380 C   0  0  0  0  0  0  0  0  0  0  0  0
   58.2203   34.7765   47.4870 H   0  0  0  0  0  0  0  0  0  0  0  0
   58.4100   32.6490   47.1120 C   0  0  0  0  0  0  0  0  0  0  0  0
   58.6625   32.4118   48.1560 H   0  0  0  0  0  0  0  0  0  0  0  0
   58.3370   31.6260   46.1630 C   0  0  0  0  0  0  0  0  0  0  0  0
   58.5393   30.5865   46.4606 H   0  0  0  0  0  0  0  0  0  0  0  0
   57.1890   26.8070   46.3260 C   0  0  0  0  0  0  0  0  0  0  0  0
   55.9650   26.1140   46.4100 C   0  0  0  0  0  0  0  0  0  0  0  0
   54.7750   26.7030   45.9980 O   0  0  0  0  0  0  0  0  0  0  0  0
   55.9390   24.8370   46.8710 N   0  0  0  0  0  0  0  0  0  0  0  0
   57.0780   24.2010   47.2430 C   0  0  0  0  0  0  0  0  0  0  0  0
   57.0280   23.0180   47.6710 O   0  0  0  0  0  0  0  0  0  0  0  0
   58.2730   24.8370   47.1490 N   0  0  0  0  0  0  0  0  0  0  0  0
   58.3550   26.1150   46.6970 C   0  0  0  0  0  0  0  0  0  0  0  0
   59.4830   26.6720   46.6260 O   0  0  0  0  0  0  0  0  0  0  0  0
  1  2  1  0
  2  3  2  0
  3  4  1  0
  3  5  1  0
  5  6  1  0
  5  7  1  0
  5  8  1  0
  8  9  1  0
  8 10  1  0
  8 11  1  0
 11 12  2  0
 12 13  1  0
 12 14  1  0
 14 15  1  0
 14 16  2  0
 16 17  1  0
 16 18  1  0
 18 19  1  0
 18 20  2  0
 20 21  1  0
  2 22  1  0
 22 23  2  0
 23 24  1  0
 23 25  1  0
 25 26  1  0
 26 27  2  0
 26 28  1  0
 28 29  1  0
 29 30  2  0
 20 11  1  0
 29 22  1  0
M  CHG  3  24  -1  25  -1  28  -1
M  END
>  <UniqueID>  (36) 
31

>  <SMILES>  (36) 
O=c1[n-]c([O-])c(/C=C/CCc2ccccc2)c(=O)[n-]1

>  <Energy>  (36) 
32.270840397126356

>  <Genealogy>  (36) 
O=c1[n-]c([O-])c(C=CCCc2ccccc2)c(=O)[n-]1 (protonated)
O=c1[n-]c([O-])c(/C=C/CCc2ccccc2)c(=O)[n-]1 (cis-trans isomerization)
O=c1[n-]c([O-])c(/C=C/CCc2ccccc2)c(=O)[n-]1 (3D coordinates assigned)
O=c1[n-]c([O-])c(/C=C/CCc2ccccc2)c(=O)[n-]1 (optimized conformer: 32.270840397126356 kcal/mol)

>  <smiles>  (36) 
O=c1[nH]c(O)c(C=CCCc2ccccc2)c(=O)[nH]1

>  <score_type>  (36) 
oracle

>  <origin>  (36) 
adg

>  <m_score__min__energy>  (36) 
-14.390000000000001

>  <m_primary>  (36) 
energy

$$$$
36:0
     RDKit          3D

 49 51  0  0  0  0  0  0  0  0999 V2000
   50.6500   31.7770   48.9050 C   0  0  0  0  0  0  0  0  0  0  0  0
   51.0240   32.2980   50.1760 O   0  0  0  0  0  0  0  0  0  0  0  0
   51.7560   31.5880   51.1390 C   0  0  0  0  0  0  0  0  0  0  0  0
   51.1180   31.2460   52.3360 C   0  0  0  0  0  0  0  0  0  0  0  0
   51.8010   30.5390   53.3280 C   0  0  0  0  0  0  0  0  0  0  0  0
   53.1340   30.1750   53.1340 C   0  0  0  0  0  0  0  0  0  0  0  0
   53.8030   30.5220   51.9500 C   0  0  0  0  0  0  0  0  0  0  0  0
   55.1730   30.1160   51.7730 N   0  0  0  0  0  0  0  0  0  0  0  0
   56.3090   30.9860   51.9410 C   0  0  0  0  0  0  0  0  0  0  0  0
   56.1450   32.1740   52.3330 O   0  0  0  0  0  0  0  0  0  0  0  0
   57.6780   30.4770   51.7070 C   0  0  0  0  0  0  0  0  0  0  0  0
   58.2370   29.4790   52.5120 C   0  0  0  0  0  0  0  0  0  0  0  0
   59.5220   29.0220   52.2310 C   0  0  0  0  0  0  0  0  0  0  0  0
   60.2200   29.5540   51.1460 C   0  0  0  0  0  0  0  0  0  0  0  0
   61.3840   29.1390   50.8970 O   0  0  0  0  0  0  0  0  0  0  0  0
   59.6310   30.5160   50.3660 N   0  0  0  0  0  0  0  0  0  0  0  0
   60.3130   31.1000   49.2020 C   0  0  0  0  0  0  0  0  0  0  0  0
   60.3670   30.0990   48.0890 C   0  0  0  0  0  0  0  0  0  0  0  0
   61.2590   30.1910   47.2040 O   0  0  0  0  0  0  0  0  0  0  0  0
   59.4480   29.0010   48.0820 N   0  0  0  0  0  0  0  0  0  0  0  0
   58.9530   28.3580   46.9030 C   0  0  0  0  0  0  0  0  0  0  0  0
   59.4510   28.6760   45.6270 C   0  0  0  0  0  0  0  0  0  0  0  0
   58.9890   27.9910   44.5020 C   0  0  0  0  0  0  0  0  0  0  0  0
   58.0260   26.9850   44.6400 C   0  0  0  0  0  0  0  0  0  0  0  0
   57.5230   26.6630   45.9070 C   0  0  0  0  0  0  0  0  0  0  0  0
   56.2780   25.4300   46.0970 S   0  0  0  0  0  0  0  0  0  0  0  0
   54.7140   26.1510   45.9540 N   0  0  0  0  0  0  0  0  0  0  0  0
   56.3980   24.7760   47.4450 O   0  0  0  0  0  0  0  0  0  0  0  0
   56.4550   24.3800   45.0360 O   0  0  0  0  0  0  0  0  0  0  0  0
   58.0050   27.3370   47.0370 C   0  0  0  0  0  0  0  0  0  0  0  0
   58.4090   30.9650   50.6690 N   0  0  0  0  0  0  0  0  0  0  0  0
   53.1010   31.2100   50.9410 C   0  0  0  0  0  0  0  0  0  0  0  0
   50.0137   30.8907   49.0448 H   0  0  0  0  0  0  0  0  0  0  0  0
   50.0940   32.5426   48.3440 H   0  0  0  0  0  0  0  0  0  0  0  0
   51.5533   31.4951   48.3440 H   0  0  0  0  0  0  0  0  0  0  0  0
   50.0694   31.5364   52.4973 H   0  0  0  0  0  0  0  0  0  0  0  0
   51.2879   30.2689   54.2628 H   0  0  0  0  0  0  0  0  0  0  0  0
   53.6649   29.6115   53.9154 H   0  0  0  0  0  0  0  0  0  0  0  0
   55.3500   29.0950   51.6460 H   0  0  0  0  0  0  0  0  0  0  0  0
   57.6690   29.0606   53.3560 H   0  0  0  0  0  0  0  0  0  0  0  0
   59.9838   28.2468   52.8601 H   0  0  0  0  0  0  0  0  0  0  0  0
   59.7623   31.9907   48.8653 H   0  0  0  0  0  0  0  0  0  0  0  0
   61.3376   31.3822   49.4859 H   0  0  0  0  0  0  0  0  0  0  0  0
   60.2071   29.4671   45.5150 H   0  0  0  0  0  0  0  0  0  0  0  0
   59.3823   28.2422   43.5059 H   0  0  0  0  0  0  0  0  0  0  0  0
   57.6635   26.4463   43.7521 H   0  0  0  0  0  0  0  0  0  0  0  0
   54.7730   27.1000   46.3880 H   0  0  0  0  0  0  0  0  0  0  0  0
   57.6359   27.0619   48.0360 H   0  0  0  0  0  0  0  0  0  0  0  0
   53.6040   31.4539   49.9936 H   0  0  0  0  0  0  0  0  0  0  0  0
  1  2  1  0
  2  3  1  0
  3  4  2  0
  4  5  1  0
  5  6  2  0
  6  7  1  0
  7  8  1  0
  8  9  1  0
  9 10  2  0
  9 11  1  0
 11 12  1  0
 12 13  2  0
 13 14  1  0
 14 15  2  0
 14 16  1  0
 16 17  1  0
 17 18  1  0
 18 19  2  0
 18 20  1  0
 20 21  1  0
 21 22  2  0
 22 23  1  0
 23 24  2  0
 24 25  1  0
 25 26  1  0
 26 27  1  0
 26 28  2  0
 26 29  2  0
 25 30  2  0
 16 31  1  0
  7 32  2  0
 32  3  1  0
 31 11  2  0
 30 21  1  0
  1 33  1  0
  1 34  1  0
  1 35  1  0
  4 36  1  0
  5 37  1  0
  6 38  1  0
  8 39  1  0
 12 40  1  0
 13 41  1  0
 17 42  1  0
 17 43  1  0
 22 44  1  0
 23 45  1  0
 24 46  1  0
 27 47  1  0
 30 48  1  0
 32 49  1  0
M  CHG  2  20  -1  27  -1
M  END
>  <UniqueID>  (37) 
32

>  <SMILES>  (37) 
COc1cccc(NC(=O)c2ccc(=O)n(CC(=O)[N-]c3cccc(S([NH-])(=O)=O)c3)n2)c1

>  <Energy>  (37) 
57.770067792792744

>  <Genealogy>  (37) 
COc1cccc(NC(=O)c2ccc(=O)n(CC(=O)[N-]c3cccc(S([NH-])(=O)=O)c3)n2)c1 (protonated)
COc1cccc(NC(=O)c2ccc(=O)n(CC(=O)[N-]c3cccc(S([NH-])(=O)=O)c3)n2)c1 (3D coordinates assigned)
COc1cccc(NC(=O)c2ccc(=O)n(CC(=O)[N-]c3cccc(S([NH-])(=O)=O)c3)n2)c1 (optimized conformer: 57.770067792792744 kcal/mol)

>  <smiles>  (37) 
COc1cccc(NC(=O)c2ccc(=O)n(CC(=O)Nc3cccc(S(N)(=O)=O)c3)n2)c1

>  <score_type>  (37) 
oracle

>  <origin>  (37) 
adg

>  <m_score__min__energy>  (37) 
-13.449999999999999

>  <m_primary>  (37) 
energy

$$$$
37:0
     RDKit          3D

 39 41  0  0  0  0  0  0  0  0999 V2000
   58.3752   22.9363   46.0478 H   0  0  0  0  0  0  0  0  0  0  0  0
   57.5290   23.6390   46.0330 C   0  0  0  0  0  0  0  0  0  0  0  0
   57.7560   24.9760   46.1160 N   0  0  0  0  0  0  0  0  0  0  0  0
   56.7380   25.8850   46.1020 C   0  0  0  0  0  0  0  0  0  0  0  0
   56.9720   27.1640   46.1800 N   0  0  0  0  0  0  0  0  0  0  0  0
   57.7600   27.9630   45.2800 C   0  0  0  0  0  0  0  0  0  0  0  0
   58.6690   27.4340   44.5830 O   0  0  0  0  0  0  0  0  0  0  0  0
   57.4900   29.4210   45.1600 C   0  0  0  0  0  0  0  0  0  0  0  0
   56.2010   29.8950   44.8690 C   0  0  0  0  0  0  0  0  0  0  0  0
   55.1430   29.0170   44.6590 O   0  0  0  0  0  0  0  0  0  0  0  0
   55.9660   31.2260   44.8120 N   0  0  0  0  0  0  0  0  0  0  0  0
   56.9480   32.1340   45.0330 C   0  0  0  0  0  0  0  0  0  0  0  0
   56.6610   33.3620   44.9850 O   0  0  0  0  0  0  0  0  0  0  0  0
   58.2250   31.7210   45.3090 N   0  0  0  0  0  0  0  0  0  0  0  0
   59.2720   32.7200   45.6120 C   0  0  0  0  0  0  0  0  0  0  0  0
   60.2582   32.2820   45.3983 H   0  0  0  0  0  0  0  0  0  0  0  0
   59.0974   33.6077   44.9862 H   0  0  0  0  0  0  0  0  0  0  0  0
   59.2230   33.1480   47.0870 C   0  0  0  0  0  0  0  0  0  0  0  0
   58.6517   34.0846   47.1678 H   0  0  0  0  0  0  0  0  0  0  0  0
   58.7426   32.3428   47.6622 H   0  0  0  0  0  0  0  0  0  0  0  0
   60.6040   33.3680   47.6490 C   0  0  0  0  0  0  0  0  0  0  0  0
   60.7670   33.9440   48.9200 C   0  0  0  0  0  0  0  0  0  0  0  0
   59.8839   34.1842   49.5302 H   0  0  0  0  0  0  0  0  0  0  0  0
   62.0480   34.2130   49.4120 C   0  0  0  0  0  0  0  0  0  0  0  0
   62.1703   34.6585   50.4103 H   0  0  0  0  0  0  0  0  0  0  0  0
   63.1730   33.9170   48.6380 C   0  0  0  0  0  0  0  0  0  0  0  0
   64.1797   34.1309   49.0264 H   0  0  0  0  0  0  0  0  0  0  0  0
   63.0190   33.3490   47.3700 C   0  0  0  0  0  0  0  0  0  0  0  0
   63.9051   33.1173   46.7608 H   0  0  0  0  0  0  0  0  0  0  0  0
   61.7410   33.0750   46.8750 C   0  0  0  0  0  0  0  0  0  0  0  0
   61.6241   32.6286   45.8765 H   0  0  0  0  0  0  0  0  0  0  0  0
   58.5080   30.3760   45.3620 C   0  0  0  0  0  0  0  0  0  0  0  0
   59.6900   29.9900   45.5860 O   0  0  0  0  0  0  0  0  0  0  0  0
   55.4130   25.4320   46.0010 C   0  0  0  0  0  0  0  0  0  0  0  0
   54.3530   26.3330   45.9860 O   0  0  0  0  0  0  0  0  0  0  0  0
   55.1620   24.0600   45.9140 C   0  0  0  0  0  0  0  0  0  0  0  0
   54.1280   23.6934   45.8338 H   0  0  0  0  0  0  0  0  0  0  0  0
   56.2240   23.1560   45.9290 C   0  0  0  0  0  0  0  0  0  0  0  0
   56.0350   22.0746   45.8596 H   0  0  0  0  0  0  0  0  0  0  0  0
  1  2  1  0
  2  3  1  0
  3  4  1  0
  4  5  2  0
  5  6  1  0
  6  7  2  0
  6  8  1  0
  8  9  2  0
  9 10  1  0
  9 11  1  0
 11 12  1  0
 12 13  2  0
 12 14  1  0
 14 15  1  0
 15 16  1  0
 15 17  1  0
 15 18  1  0
 18 19  1  0
 18 20  1  0
 18 21  1  0
 21 22  2  0
 22 23  1  0
 22 24  1  0
 24 25  1  0
 24 26  2  0
 26 27  1  0
 26 28  1  0
 28 29  1  0
 28 30  2  0
 30 31  1  0
 14 32  1  0
 32 33  2  0
  4 34  1  0
 34 35  1  0
 34 36  2  0
 36 37  1  0
 36 38  1  0
 38 39  1  0
 38  2  2  0
 32  8  1  0
 30 21  1  0
M  CHG  4   3  -1  10  -1  11  -1  35  -1
M  END
>  <UniqueID>  (38) 
33

>  <SMILES>  (38) 
O=C(/N=c1\[n-]cccc1[O-])c1c([O-])[n-]c(=O)n(CCc2ccccc2)c1=O

>  <Energy>  (38) 
50.311024027995344

>  <Genealogy>  (38) 
O=C(N=c1[n-]cccc1[O-])c1c([O-])[n-]c(=O)n(CCc2ccccc2)c1=O (protonated)
O=C(/N=c1\[n-]cccc1[O-])c1c([O-])[n-]c(=O)n(CCc2ccccc2)c1=O (cis-trans isomerization)
O=C(/N=c1\[n-]cccc1[O-])c1c([O-])[n-]c(=O)n(CCc2ccccc2)c1=O (3D coordinates assigned)
O=C(/N=c1\[n-]cccc1[O-])c1c([O-])[n-]c(=O)n(CCc2ccccc2)c1=O (optimized conformer: 50.311024027995344 kcal/mol)

>  <smiles>  (38) 
O=C(N=c1[nH]cccc1O)c1c(O)[nH]c(=O)n(CCc2ccccc2)c1=O

>  <score_type>  (38) 
oracle

>  <origin>  (38) 
adg

>  <m_score__min__energy>  (38) 
-17.989999999999998

>  <m_primary>  (38) 
energy

$$$$
38:0
     RDKit          3D

 47 49  0  0  0  0  0  0  0  0999 V2000
   56.6100   31.1430   42.5930 O   0  0  0  0  0  0  0  0  0  0  0  0
   56.7170   30.5530   43.7000 C   0  0  0  0  0  0  0  0  0  0  0  0
   56.7270   29.0540   43.7340 C   0  0  0  0  0  0  0  0  0  0  0  0
   55.9800   28.6060   44.9030 N   0  0  0  0  0  0  0  0  0  0  0  0
   56.2690   27.4240   45.6590 C   0  0  0  0  0  0  0  0  0  0  0  0
   55.3210   26.6650   45.9890 O   0  0  0  0  0  0  0  0  0  0  0  0
   57.6390   27.0890   46.0930 C   0  0  0  0  0  0  0  0  0  0  0  0
   58.0850   25.7640   45.9530 C   0  0  0  0  0  0  0  0  0  0  0  0
   59.3800   25.4100   46.3420 C   0  0  0  0  0  0  0  0  0  0  0  0
   60.2360   26.3720   46.8780 C   0  0  0  0  0  0  0  0  0  0  0  0
   59.8120   27.6960   47.0020 C   0  0  0  0  0  0  0  0  0  0  0  0
   58.5260   28.0700   46.5920 C   0  0  0  0  0  0  0  0  0  0  0  0
   58.1720   29.4190   46.6610 O   0  0  0  0  0  0  0  0  0  0  0  0
   56.6820   31.3250   44.9050 N   0  0  0  0  0  0  0  0  0  0  0  0
   57.6350   32.3410   45.2360 C   0  0  0  0  0  0  0  0  0  0  0  0
   57.4550   33.6410   44.7530 C   0  0  0  0  0  0  0  0  0  0  0  0
   58.3830   34.6390   45.0620 C   0  0  0  0  0  0  0  0  0  0  0  0
   59.5080   34.3350   45.8350 C   0  0  0  0  0  0  0  0  0  0  0  0
   59.7150   33.0260   46.2960 C   0  0  0  0  0  0  0  0  0  0  0  0
   61.1730   32.6260   47.2130 S   0  0  0  0  0  0  0  0  0  0  0  0
   61.5890   31.2200   46.8750 O   0  0  0  0  0  0  0  0  0  0  0  0
   62.2840   33.5500   46.7960 O   0  0  0  0  0  0  0  0  0  0  0  0
   60.9520   32.7590   48.9420 N   0  0  0  0  0  0  0  0  0  0  0  0
   60.0220   31.7580   49.4530 C   0  0  0  0  0  0  0  0  0  0  0  0
   59.4640   32.3190   50.7480 C   0  0  0  0  0  0  0  0  0  0  0  0
   59.6510   33.8270   50.6420 C   0  0  0  0  0  0  0  0  0  0  0  0
   60.3930   34.0520   49.3310 C   0  0  0  0  0  0  0  0  0  0  0  0
   58.7780   32.0310   45.9870 C   0  0  0  0  0  0  0  0  0  0  0  0
   56.2562   28.6603   42.8211 H   0  0  0  0  0  0  0  0  0  0  0  0
   57.7629   28.6881   43.7894 H   0  0  0  0  0  0  0  0  0  0  0  0
   57.4115   25.0013   45.5351 H   0  0  0  0  0  0  0  0  0  0  0  0
   59.7244   24.3718   46.2253 H   0  0  0  0  0  0  0  0  0  0  0  0
   61.2472   26.0867   47.2036 H   0  0  0  0  0  0  0  0  0  0  0  0
   60.4920   28.4504   47.4244 H   0  0  0  0  0  0  0  0  0  0  0  0
   57.4350   29.8220   46.0960 H   0  0  0  0  0  0  0  0  0  0  0  0
   56.5811   33.8784   44.1285 H   0  0  0  0  0  0  0  0  0  0  0  0
   58.2284   35.6650   44.6967 H   0  0  0  0  0  0  0  0  0  0  0  0
   60.2329   35.1245   46.0824 H   0  0  0  0  0  0  0  0  0  0  0  0
   59.2103   31.5878   48.7304 H   0  0  0  0  0  0  0  0  0  0  0  0
   60.5233   30.7929   49.6179 H   0  0  0  0  0  0  0  0  0  0  0  0
   58.3977   32.0685   50.8493 H   0  0  0  0  0  0  0  0  0  0  0  0
   59.9724   31.9022   51.6299 H   0  0  0  0  0  0  0  0  0  0  0  0
   58.6757   34.3353   50.6242 H   0  0  0  0  0  0  0  0  0  0  0  0
   60.2067   34.2314   51.5009 H   0  0  0  0  0  0  0  0  0  0  0  0
   59.6982   34.4133   48.5585 H   0  0  0  0  0  0  0  0  0  0  0  0
   61.1836   34.8080   49.4467 H   0  0  0  0  0  0  0  0  0  0  0  0
   58.9400   31.0004   46.3357 H   0  0  0  0  0  0  0  0  0  0  0  0
  1  2  2  0
  2  3  1  0
  3  4  1  0
  4  5  1  0
  5  6  2  0
  5  7  1  0
  7  8  2  0
  8  9  1  0
  9 10  2  0
 10 11  1  0
 11 12  2  0
 12 13  1  0
  2 14  1  0
 14 15  1  0
 15 16  2  0
 16 17  1  0
 17 18  2  0
 18 19  1  0
 19 20  1  0
 20 21  2  0
 20 22  2  0
 20 23  1  0
 23 24  1  0
 24 25  1  0
 25 26  1  0
 26 27  1  0
 19 28  2  0
 12  7  1  0
 28 15  1  0
 27 23  1  0
  3 29  1  0
  3 30  1  0
  8 31  1  0
  9 32  1  0
 10 33  1  0
 11 34  1  0
 13 35  1  0
 16 36  1  0
 17 37  1  0
 18 38  1  0
 24 39  1  0
 24 40  1  0
 25 41  1  0
 25 42  1  0
 26 43  1  0
 26 44  1  0
 27 45  1  0
 27 46  1  0
 28 47  1  0
M  CHG  2   4  -1  14  -1
M  END
>  <UniqueID>  (39) 
34

>  <SMILES>  (39) 
O=C(C[N-]C(=O)c1ccccc1O)[N-]c1cccc(S(=O)(=O)N2CCCC2)c1

>  <Energy>  (39) 
56.77556235941456

>  <Genealogy>  (39) 
O=C(C[N-]C(=O)c1ccccc1O)[N-]c1cccc(S(=O)(=O)N2CCCC2)c1 (protonated)
O=C(C[N-]C(=O)c1ccccc1O)[N-]c1cccc(S(=O)(=O)N2CCCC2)c1 (3D coordinates assigned)
O=C(C[N-]C(=O)c1ccccc1O)[N-]c1cccc(S(=O)(=O)N2CCCC2)c1 (nonaromatic ring conformer: 56.77556235941456 kcal/mol)

>  <smiles>  (39) 
O=C(CNC(=O)c1ccccc1O)Nc1cccc(S(=O)(=O)N2CCCC2)c1

>  <score_type>  (39) 
oracle

>  <origin>  (39) 
adg

>  <m_score__min__energy>  (39) 
-13.27

>  <m_primary>  (39) 
energy

$$$$
39:0
     RDKit          3D

 49 51  0  0  0  0  0  0  0  0999 V2000
   59.8640   34.6370   48.6990 C   0  0  0  0  0  0  0  0  0  0  0  0
   59.5620   34.9770   47.2430 C   0  0  0  0  0  0  0  0  0  0  0  0
   58.9370   33.8030   46.5400 C   0  0  0  0  0  0  0  0  0  0  0  0
   59.4330   32.5060   46.7470 C   0  0  0  0  0  0  0  0  0  0  0  0
   58.8710   31.4190   46.0720 C   0  0  0  0  0  0  0  0  0  0  0  0
   57.8120   31.6170   45.1760 C   0  0  0  0  0  0  0  0  0  0  0  0
   57.0840   30.2540   44.3320 S   0  0  0  0  0  0  0  0  0  0  0  0
   55.9240   30.7550   43.5190 O   0  0  0  0  0  0  0  0  0  0  0  0
   58.0790   29.6020   43.4120 O   0  0  0  0  0  0  0  0  0  0  0  0
   56.5170   29.0830   45.4800 N   0  0  0  0  0  0  0  0  0  0  0  0
   57.2110   27.8550   45.7730 C   0  0  0  0  0  0  0  0  0  0  0  0
   58.6170   27.8000   45.8030 C   0  0  0  0  0  0  0  0  0  0  0  0
   59.2730   26.6030   46.0930 C   0  0  0  0  0  0  0  0  0  0  0  0
   58.5400   25.4430   46.3490 C   0  0  0  0  0  0  0  0  0  0  0  0
   57.1400   25.4720   46.3140 C   0  0  0  0  0  0  0  0  0  0  0  0
   56.2160   24.0050   46.6390 S   0  0  0  0  0  0  0  0  0  0  0  0
   57.1480   22.8330   46.7840 O   0  0  0  0  0  0  0  0  0  0  0  0
   55.4370   24.1920   47.9100 O   0  0  0  0  0  0  0  0  0  0  0  0
   55.1350   23.7200   45.3090 N   0  0  0  0  0  0  0  0  0  0  0  0
   53.8540   23.4990   45.3840 C   0  0  0  0  0  0  0  0  0  0  0  0
   53.2510   22.9060   46.5120 C   0  0  0  0  0  0  0  0  0  0  0  0
   51.8710   22.6960   46.5190 C   0  0  0  0  0  0  0  0  0  0  0  0
   51.1000   23.0710   45.4190 C   0  0  0  0  0  0  0  0  0  0  0  0
   51.7250   23.6620   44.3160 C   0  0  0  0  0  0  0  0  0  0  0  0
   50.9250   24.0680   43.1200 C   0  0  0  0  0  0  0  0  0  0  0  0
   53.0740   23.8560   44.3280 N   0  0  0  0  0  0  0  0  0  0  0  0
   56.4760   26.6790   46.0280 C   0  0  0  0  0  0  0  0  0  0  0  0
   55.0840   26.7140   46.0070 O   0  0  0  0  0  0  0  0  0  0  0  0
   57.3270   32.9130   44.9530 C   0  0  0  0  0  0  0  0  0  0  0  0
   57.8870   34.0000   45.6270 C   0  0  0  0  0  0  0  0  0  0  0  0
   59.2792   35.2954   49.3582 H   0  0  0  0  0  0  0  0  0  0  0  0
   59.5938   33.5888   48.8944 H   0  0  0  0  0  0  0  0  0  0  0  0
   60.9368   34.7817   48.8944 H   0  0  0  0  0  0  0  0  0  0  0  0
   58.8680   35.8298   47.2080 H   0  0  0  0  0  0  0  0  0  0  0  0
   60.5051   35.2305   46.7367 H   0  0  0  0  0  0  0  0  0  0  0  0
   60.2684   32.3445   47.4442 H   0  0  0  0  0  0  0  0  0  0  0  0
   59.2611   30.4051   46.2446 H   0  0  0  0  0  0  0  0  0  0  0  0
   55.6800   29.3490   46.0420 H   0  0  0  0  0  0  0  0  0  0  0  0
   59.2033   28.7075   45.5963 H   0  0  0  0  0  0  0  0  0  0  0  0
   60.3723   26.5734   46.1200 H   0  0  0  0  0  0  0  0  0  0  0  0
   59.0634   24.5032   46.5789 H   0  0  0  0  0  0  0  0  0  0  0  0
   53.8620   22.6117   47.3781 H   0  0  0  0  0  0  0  0  0  0  0  0
   51.3906   22.2338   47.3940 H   0  0  0  0  0  0  0  0  0  0  0  0
   50.0128   22.9039   45.4188 H   0  0  0  0  0  0  0  0  0  0  0  0
   49.9890   24.5430   43.4490 H   0  0  0  0  0  0  0  0  0  0  0  0
   51.5052   24.7808   42.5155 H   0  0  0  0  0  0  0  0  0  0  0  0
   50.6922   23.1789   42.5155 H   0  0  0  0  0  0  0  0  0  0  0  0
   56.5017   33.0744   44.2440 H   0  0  0  0  0  0  0  0  0  0  0  0
   57.5047   35.0148   45.4426 H   0  0  0  0  0  0  0  0  0  0  0  0
  1  2  1  0
  2  3  1  0
  3  4  2  0
  4  5  1  0
  5  6  2  0
  6  7  1  0
  7  8  2  0
  7  9  2  0
  7 10  1  0
 10 11  1  0
 11 12  2  0
 12 13  1  0
 13 14  2  0
 14 15  1  0
 15 16  1  0
 16 17  2  0
 16 18  2  0
 16 19  1  0
 19 20  2  3
 20 21  1  0
 21 22  2  0
 22 23  1  0
 23 24  2  0
 24 25  1  0
 24 26  1  0
 15 27  2  0
 27 28  1  0
  6 29  1  0
 29 30  2  0
 30  3  1  0
 27 11  1  0
 26 20  1  0
  1 31  1  0
  1 32  1  0
  1 33  1  0
  2 34  1  0
  2 35  1  0
  4 36  1  0
  5 37  1  0
 10 38  1  0
 12 39  1  0
 13 40  1  0
 14 41  1  0
 21 42  1  0
 22 43  1  0
 23 44  1  0
 25 45  1  0
 25 46  1  0
 25 47  1  0
 29 48  1  0
 30 49  1  0
M  CHG  2  26  -1  28  -1
M  END
>  <UniqueID>  (40) 
35

>  <SMILES>  (40) 
CCc1ccc(S(=O)(=O)Nc2cccc(S(=O)(=O)N=c3cccc(C)[n-]3)c2[O-])cc1

>  <Energy>  (40) 
57.775322284359376

>  <Genealogy>  (40) 
CCc1ccc(S(=O)(=O)Nc2cccc(S(=O)(=O)N=c3cccc(C)[n-]3)c2[O-])cc1 (protonated)
CCc1ccc(S(=O)(=O)Nc2cccc(S(=O)(=O)N=c3cccc(C)[n-]3)c2[O-])cc1 (3D coordinates assigned)
CCc1ccc(S(=O)(=O)Nc2cccc(S(=O)(=O)N=c3cccc(C)[n-]3)c2[O-])cc1 (optimized conformer: 57.775322284359376 kcal/mol)

>  <smiles>  (40) 
CCc1ccc(S(=O)(=O)Nc2cccc(S(=O)(=O)N=c3cccc(C)[nH]3)c2O)cc1

>  <score_type>  (40) 
oracle

>  <origin>  (40) 
adg

>  <m_score__min__energy>  (40) 
-15.06

>  <m_primary>  (40) 
energy

$$$$
40:0
     RDKit          3D

 12 12  0  0  0  0  0  0  0  0999 V2000
   51.4370   29.2590   49.0050 O   0  0  0  0  0  0  0  0  0  0  0  0
   52.0890   30.0740   49.7110 C   0  0  0  0  0  0  0  0  0  0  0  0
   51.5040   30.6850   50.9290 C   0  0  0  0  0  0  0  0  0  0  0  0
   51.0030   31.9980   50.8860 C   0  0  0  0  0  0  0  0  0  0  0  0
   51.0470   32.7400   49.7100 O   0  0  0  0  0  0  0  0  0  0  0  0
   50.4680   32.5600   52.0000 N   0  0  0  0  0  0  0  0  0  0  0  0
   50.4020   31.8760   53.1690 C   0  0  0  0  0  0  0  0  0  0  0  0
   49.9010   32.4200   54.1870 O   0  0  0  0  0  0  0  0  0  0  0  0
   50.8770   30.6080   53.2410 N   0  0  0  0  0  0  0  0  0  0  0  0
   51.4230   29.9970   52.1580 C   0  0  0  0  0  0  0  0  0  0  0  0
   51.8510   28.8180   52.2740 O   0  0  0  0  0  0  0  0  0  0  0  0
   53.1155   30.3383   49.4171 H   0  0  0  0  0  0  0  0  0  0  0  0
  1  2  2  0
  2  3  1  0
  3  4  2  0
  4  5  1  0
  4  6  1  0
  6  7  1  0
  7  8  2  0
  7  9  1  0
  9 10  1  0
 10 11  2  0
 10  3  1  0
  2 12  1  0
M  CHG  3   5  -1   6  -1   9  -1
M  END
>  <UniqueID>  (41) 
36

>  <SMILES>  (41) 
O=Cc1c([O-])[n-]c(=O)[n-]c1=O

>  <Energy>  (41) 
14.408268008856332

>  <Genealogy>  (41) 
O=Cc1c([O-])[n-]c(=O)[n-]c1=O (protonated)
O=Cc1c([O-])[n-]c(=O)[n-]c1=O (3D coordinates assigned)
O=Cc1c([O-])[n-]c(=O)[n-]c1=O (optimized conformer: 14.408268008856332 kcal/mol)

>  <smiles>  (41) 
O=Cc1c(O)[nH]c(=O)[nH]c1=O

>  <score_type>  (41) 
oracle

>  <origin>  (41) 
adg

>  <m_score__min__energy>  (41) 
-14.16

>  <m_primary>  (41) 
energy

$$$$
41:0
     RDKit          3D

 39 41  0  0  0  0  0  0  0  0999 V2000
   58.0140   32.5370   43.0220 O   0  0  0  0  0  0  0  0  0  0  0  0
   57.3850   32.5410   44.1160 C   0  0  0  0  0  0  0  0  0  0  0  0
   57.2360   33.8130   44.8980 C   0  0  0  0  0  0  0  0  0  0  0  0
   58.2460   33.9100   46.0010 C   0  0  0  0  0  0  0  0  0  0  0  0
   58.2110   33.2060   47.1980 C   0  0  0  0  0  0  0  0  0  0  0  0
   59.2640   33.5370   48.0610 C   0  0  0  0  0  0  0  0  0  0  0  0
   60.1220   34.5060   47.5510 C   0  0  0  0  0  0  0  0  0  0  0  0
   59.5620   34.9580   46.0300 S   0  0  0  0  0  0  0  0  0  0  0  0
   56.7810   31.3410   44.6170 N   0  0  0  0  0  0  0  0  0  0  0  0
   57.4330   30.0890   44.8790 C   0  0  0  0  0  0  0  0  0  0  0  0
   58.8100   29.9090   44.6650 C   0  0  0  0  0  0  0  0  0  0  0  0
   59.4020   28.6700   44.9150 C   0  0  0  0  0  0  0  0  0  0  0  0
   58.6290   27.6000   45.3680 C   0  0  0  0  0  0  0  0  0  0  0  0
   57.2420   27.7480   45.5510 C   0  0  0  0  0  0  0  0  0  0  0  0
   56.4160   26.6000   45.9930 C   0  0  0  0  0  0  0  0  0  0  0  0
   55.1570   26.6870   45.9850 O   0  0  0  0  0  0  0  0  0  0  0  0
   57.0390   25.3830   46.4230 N   0  0  0  0  0  0  0  0  0  0  0  0
   56.7960   24.1030   45.8230 C   0  0  0  0  0  0  0  0  0  0  0  0
   57.8900   23.3450   45.3870 C   0  0  0  0  0  0  0  0  0  0  0  0
   57.6930   22.0970   44.7910 C   0  0  0  0  0  0  0  0  0  0  0  0
   56.4010   21.5940   44.6340 C   0  0  0  0  0  0  0  0  0  0  0  0
   55.3040   22.3310   45.0850 C   0  0  0  0  0  0  0  0  0  0  0  0
   55.4910   23.5730   45.7010 C   0  0  0  0  0  0  0  0  0  0  0  0
   54.3730   24.2330   46.2130 O   0  0  0  0  0  0  0  0  0  0  0  0
   56.6550   29.0000   45.2960 C   0  0  0  0  0  0  0  0  0  0  0  0
   57.3689   34.6669   44.2175 H   0  0  0  0  0  0  0  0  0  0  0  0
   56.2335   33.8205   45.3508 H   0  0  0  0  0  0  0  0  0  0  0  0
   57.4361   32.4647   47.4432 H   0  0  0  0  0  0  0  0  0  0  0  0
   59.3996   33.0739   49.0495 H   0  0  0  0  0  0  0  0  0  0  0  0
   61.0133   34.9077   48.0553 H   0  0  0  0  0  0  0  0  0  0  0  0
   59.4227   30.7463   44.2997 H   0  0  0  0  0  0  0  0  0  0  0  0
   60.4820   28.5364   44.7544 H   0  0  0  0  0  0  0  0  0  0  0  0
   59.1079   26.6335   45.5836 H   0  0  0  0  0  0  0  0  0  0  0  0
   58.9107   23.7348   45.5147 H   0  0  0  0  0  0  0  0  0  0  0  0
   58.5570   21.5105   44.4453 H   0  0  0  0  0  0  0  0  0  0  0  0
   56.2465   20.6161   44.1546 H   0  0  0  0  0  0  0  0  0  0  0  0
   54.2869   21.9326   44.9551 H   0  0  0  0  0  0  0  0  0  0  0  0
   54.3490   25.2340   46.3680 H   0  0  0  0  0  0  0  0  0  0  0  0
   55.5700   29.1267   45.4256 H   0  0  0  0  0  0  0  0  0  0  0  0
  1  2  2  0
  2  3  1  0
  3  4  1  0
  4  5  2  0
  5  6  1  0
  6  7  2  0
  7  8  1  0
  2  9  1  0
  9 10  1  0
 10 11  2  0
 11 12  1  0
 12 13  2  0
 13 14  1  0
 14 15  1  0
 15 16  2  0
 15 17  1  0
 17 18  1  0
 18 19  2  0
 19 20  1  0
 20 21  2  0
 21 22  1  0
 22 23  2  0
 23 24  1  0
 14 25  2  0
  8  4  1  0
 25 10  1  0
 23 18  1  0
  3 26  1  0
  3 27  1  0
  5 28  1  0
  6 29  1  0
  7 30  1  0
 11 31  1  0
 12 32  1  0
 13 33  1  0
 19 34  1  0
 20 35  1  0
 21 36  1  0
 22 37  1  0
 24 38  1  0
 25 39  1  0
M  CHG  2   9  -1  17  -1
M  END
>  <UniqueID>  (42) 
37

>  <SMILES>  (42) 
O=C(Cc1cccs1)[N-]c1cccc(C(=O)[N-]c2ccccc2O)c1

>  <Energy>  (42) 
77.64193001697359

>  <Genealogy>  (42) 
O=C(Cc1cccs1)[N-]c1cccc(C(=O)[N-]c2ccccc2O)c1 (protonated)
O=C(Cc1cccs1)[N-]c1cccc(C(=O)[N-]c2ccccc2O)c1 (3D coordinates assigned)
O=C(Cc1cccs1)[N-]c1cccc(C(=O)[N-]c2ccccc2O)c1 (optimized conformer: 77.64193001697359 kcal/mol)

>  <smiles>  (42) 
O=C(Cc1cccs1)Nc1cccc(C(=O)Nc2ccccc2O)c1

>  <score_type>  (42) 
oracle

>  <origin>  (42) 
adg

>  <m_score__min__energy>  (42) 
-12.449999999999999

>  <m_primary>  (42) 
energy

$$$$
42:0
     RDKit          3D

 42 46  0  0  0  0  0  0  0  0999 V2000
   55.1470   27.4920   45.3670 H   0  0  0  0  0  0  0  0  0  0  0  0
   54.9790   26.7150   45.9940 O   0  0  0  0  0  0  0  0  0  0  0  0
   55.9810   25.8040   46.3140 C   0  0  0  0  0  0  0  0  0  0  0  0
   55.7780   24.7370   47.1050 N   0  0  0  0  0  0  0  0  0  0  0  0
   57.0110   24.1940   47.2000 C   0  0  0  0  0  0  0  0  0  0  0  0
   57.2450   23.1580   47.8750 O   0  0  0  0  0  0  0  0  0  0  0  0
   57.9730   24.8510   46.5190 N   0  0  0  0  0  0  0  0  0  0  0  0
   57.3080   25.8650   45.9370 C   0  0  0  0  0  0  0  0  0  0  0  0
   57.9650   26.8840   45.1030 C   0  0  0  0  0  0  0  0  0  0  0  0
   58.6907   26.5502   44.3468 H   0  0  0  0  0  0  0  0  0  0  0  0
   57.7250   28.1980   45.2170 C   0  0  0  0  0  0  0  0  0  0  0  0
   56.9830   29.0360   44.3800 C   0  0  0  0  0  0  0  0  0  0  0  0
   56.4435   28.7112   43.4781 H   0  0  0  0  0  0  0  0  0  0  0  0
   57.0270   30.3090   44.8450 N   0  0  0  0  0  0  0  0  0  0  0  0
   57.7750   30.2880   45.9360 N   0  0  0  0  0  0  0  0  0  0  0  0
   58.1060   31.3240   46.7410 C   0  0  0  0  0  0  0  0  0  0  0  0
   57.6730   32.5230   46.4880 N   0  0  0  0  0  0  0  0  0  0  0  0
   58.5130   33.5770   45.9270 C   0  0  0  0  0  0  0  0  0  0  0  0
   57.9498   33.7351   44.9954 H   0  0  0  0  0  0  0  0  0  0  0  0
   59.9820   33.4370   46.2790 C   0  0  0  0  0  0  0  0  0  0  0  0
   60.3351   32.5493   46.8243 H   0  0  0  0  0  0  0  0  0  0  0  0
   60.9243   33.4630   45.7121 H   0  0  0  0  0  0  0  0  0  0  0  0
   59.1230   34.4730   46.9870 C   0  0  0  0  0  0  0  0  0  0  0  0
   58.8547   34.3351   48.0448 H   0  0  0  0  0  0  0  0  0  0  0  0
   59.1863   35.5598   47.1449 H   0  0  0  0  0  0  0  0  0  0  0  0
   58.9010   31.0700   47.8200 N   0  0  0  0  0  0  0  0  0  0  0  0
   59.3490   29.8010   48.0750 C   0  0  0  0  0  0  0  0  0  0  0  0
   60.1840   29.5500   49.2140 N   0  0  0  0  0  0  0  0  0  0  0  0
   60.7830   28.2580   49.4990 C   0  0  0  0  0  0  0  0  0  0  0  0
   60.0114   27.4745   49.5266 H   0  0  0  0  0  0  0  0  0  0  0  0
   61.5094   27.9663   48.7262 H   0  0  0  0  0  0  0  0  0  0  0  0
   61.4410   28.4050   50.8650 C   0  0  0  0  0  0  0  0  0  0  0  0
   60.8220   27.9316   51.6413 H   0  0  0  0  0  0  0  0  0  0  0  0
   62.4265   27.9172   50.8944 H   0  0  0  0  0  0  0  0  0  0  0  0
   61.5500   29.9100   51.1150 C   0  0  2  0  0  0  0  0  0  0  0  0
   62.5641   30.2792   50.9021 H   0  0  0  0  0  0  0  0  0  0  0  0
   61.2980   30.2120   52.4430 F   0  0  0  0  0  0  0  0  0  0  0  0
   60.5200   30.5620   50.2000 C   0  0  0  0  0  0  0  0  0  0  0  0
   59.6268   30.8534   50.7721 H   0  0  0  0  0  0  0  0  0  0  0  0
   60.9111   31.4766   49.7303 H   0  0  0  0  0  0  0  0  0  0  0  0
   58.9980   28.7720   47.2450 N   0  0  0  0  0  0  0  0  0  0  0  0
   58.2080   29.0500   46.1820 C   0  0  0  0  0  0  0  0  0  0  0  0
  1  2  1  0
  2  3  1  0
  3  4  1  0
  4  5  1  0
  5  6  2  0
  5  7  1  0
  7  8  1  0
  8  9  1  0
  9 10  1  0
  9 11  2  0
 11 12  1  0
 12 13  1  0
 12 14  2  0
 14 15  1  0
 15 16  1  0
 16 17  2  0
 17 18  1  0
 18 19  1  0
 18 20  1  0
 20 21  1  0
 20 22  1  0
 20 23  1  0
 23 24  1  0
 23 25  1  0
 16 26  1  0
 26 27  2  0
 27 28  1  0
 28 29  1  0
 29 30  1  0
 29 31  1  0
 29 32  1  0
 32 33  1  0
 32 34  1  0
 32 35  1  0
 35 36  1  6
 35 37  1  0
 35 38  1  0
 38 39  1  0
 38 40  1  0
 27 41  1  0
 41 42  2  0
  8  3  2  0
 42 11  1  0
 42 15  1  0
 23 18  1  0
 38 28  1  0
M  CHG  2   4  -1   7  -1
M  END
>  <UniqueID>  (43) 
38

>  <SMILES>  (43) 
O=c1[n-]c(O)c(/C=c2\cnn3/c(=N/C4CC4)nc(N4CC[C@H](F)C4)nc23)[n-]1

>  <Energy>  (43) 
382.7688652499379

>  <Genealogy>  (43) 
O=c1[n-]c(O)c(C=c2cnn3c(=NC4CC4)nc(N4CCC(F)C4)nc23)[n-]1 (protonated)
O=c1[n-]c(O)c(C=c2cnn3c(=NC4CC4)nc(N4CC[C@H](F)C4)nc23)[n-]1 (chirality)
O=c1[n-]c(O)c(/C=c2\cnn3/c(=N/C4CC4)nc(N4CC[C@H](F)C4)nc23)[n-]1 (cis-trans isomerization)
O=c1[n-]c(O)c(/C=c2\cnn3/c(=N/C4CC4)nc(N4CC[C@H](F)C4)nc23)[n-]1 (3D coordinates assigned)
O=c1[n-]c(O)c(/C=c2\cnn3/c(=N/C4CC4)nc(N4CC[C@H](F)C4)nc23)[n-]1 (nonaromatic ring conformer: 382.7688652499379 kcal/mol)

>  <smiles>  (43) 
O=c1[nH]c(O)c(C=c2cnn3c(=NC4CC4)nc(N4CCC(F)C4)nc23)[nH]1

>  <score_type>  (43) 
oracle

>  <origin>  (43) 
adg

>  <m_score__min__energy>  (43) 
-12.630000000000001

>  <m_primary>  (43) 
energy

$$$$
43:0
     RDKit          3D

 67 71  0  0  0  0  0  0  0  0999 V2000
   57.4250   32.4760   41.4590 C   0  0  0  0  0  0  0  0  0  0  0  0
   57.6210   31.8240   42.7490 N   0  0  0  0  0  0  0  0  0  0  0  0
   57.4380   30.5090   43.0210 C   0  0  0  0  0  0  0  0  0  0  0  0
   57.6770   30.2600   44.3680 C   0  0  0  0  0  0  0  0  0  0  0  0
   57.4930   28.9540   45.0830 C   0  0  0  0  0  0  0  0  0  0  0  0
   56.0480   28.5750   45.1730 C   0  0  0  0  0  0  0  0  0  0  0  0
   55.1560   29.4100   44.8590 O   0  0  0  0  0  0  0  0  0  0  0  0
   55.6900   27.2800   45.6650 N   0  0  0  0  0  0  0  0  0  0  0  0
   56.8460   26.1160   46.2220 S   0  0  0  0  0  0  0  0  0  0  0  0
   56.1330   24.9160   46.7800 O   0  0  0  0  0  0  0  0  0  0  0  0
   57.6600   26.7380   47.3200 O   0  0  0  0  0  0  0  0  0  0  0  0
   57.9390   25.6230   44.9000 C   0  0  0  0  0  0  0  0  0  0  0  0
   57.6340   24.2270   44.4370 C   0  0  0  0  0  0  0  0  0  0  0  0
   58.3260   23.1320   44.9790 C   0  0  0  0  0  0  0  0  0  0  0  0
   58.0440   21.8340   44.5440 C   0  0  0  0  0  0  0  0  0  0  0  0
   57.0730   21.6180   43.5630 C   0  0  0  0  0  0  0  0  0  0  0  0
   56.3790   22.7020   43.0200 C   0  0  0  0  0  0  0  0  0  0  0  0
   56.6550   24.0020   43.4560 C   0  0  0  0  0  0  0  0  0  0  0  0
   58.0060   31.4830   44.9220 C   0  0  0  0  0  0  0  0  0  0  0  0
   58.3130   31.8380   46.2330 C   0  0  0  0  0  0  0  0  0  0  0  0
   58.5730   33.2010   46.5160 C   0  0  0  0  0  0  0  0  0  0  0  0
   58.9310   33.6470   47.8000 O   0  0  0  0  0  0  0  0  0  0  0  0
   60.0590   33.2320   48.5220 C   0  0  0  0  0  0  0  0  0  0  0  0
   61.0990   34.1430   48.7280 C   0  0  0  0  0  0  0  0  0  0  0  0
   62.2580   33.7470   49.4000 C   0  0  0  0  0  0  0  0  0  0  0  0
   62.3820   32.4390   49.8750 C   0  0  0  0  0  0  0  0  0  0  0  0
   61.3330   31.5240   49.7040 C   0  0  0  0  0  0  0  0  0  0  0  0
   61.4460   30.1770   50.1740 N   0  0  0  0  0  0  0  0  0  0  0  0
   60.2650   28.9860   49.7430 S   0  0  0  0  0  0  0  0  0  0  0  0
   60.4740   27.7550   50.5770 O   0  0  0  0  0  0  0  0  0  0  0  0
   58.8960   29.5330   50.0360 O   0  0  0  0  0  0  0  0  0  0  0  0
   60.4080   28.5510   48.0450 C   0  0  0  0  0  0  0  0  0  0  0  0
   60.4500   27.2010   47.6750 C   0  0  0  0  0  0  0  0  0  0  0  0
   60.5730   26.8450   46.3280 C   0  0  0  0  0  0  0  0  0  0  0  0
   60.6540   27.8370   45.3460 C   0  0  0  0  0  0  0  0  0  0  0  0
   60.6130   29.1860   45.7100 C   0  0  0  0  0  0  0  0  0  0  0  0
   60.4910   29.5440   47.0570 C   0  0  0  0  0  0  0  0  0  0  0  0
   60.1600   31.9360   49.0570 C   0  0  0  0  0  0  0  0  0  0  0  0
   58.5260   34.1500   45.4700 C   0  0  0  0  0  0  0  0  0  0  0  0
   58.2190   33.7600   44.1530 C   0  0  0  0  0  0  0  0  0  0  0  0
   57.9620   32.4100   43.9130 C   0  0  0  0  0  0  0  0  0  0  0  0
   57.1117   33.5183   41.6188 H   0  0  0  0  0  0  0  0  0  0  0  0
   58.3679   32.4593   40.8927 H   0  0  0  0  0  0  0  0  0  0  0  0
   56.6476   31.9422   40.8927 H   0  0  0  0  0  0  0  0  0  0  0  0
   57.1430   29.7486   42.2829 H   0  0  0  0  0  0  0  0  0  0  0  0
   58.0350   28.1682   44.5364 H   0  0  0  0  0  0  0  0  0  0  0  0
   57.8849   29.0627   46.1051 H   0  0  0  0  0  0  0  0  0  0  0  0
   57.8161   26.3165   44.0550 H   0  0  0  0  0  0  0  0  0  0  0  0
   58.9730   25.6484   45.2744 H   0  0  0  0  0  0  0  0  0  0  0  0
   59.0936   23.2965   45.7495 H   0  0  0  0  0  0  0  0  0  0  0  0
   58.5879   20.9805   44.9751 H   0  0  0  0  0  0  0  0  0  0  0  0
   56.8553   20.5962   43.2188 H   0  0  0  0  0  0  0  0  0  0  0  0
   55.6139   22.5328   42.2480 H   0  0  0  0  0  0  0  0  0  0  0  0
   56.1027   24.8518   43.0285 H   0  0  0  0  0  0  0  0  0  0  0  0
   58.3525   31.0792   47.0284 H   0  0  0  0  0  0  0  0  0  0  0  0
   61.0045   35.1752   48.3597 H   0  0  0  0  0  0  0  0  0  0  0  0
   63.0750   34.4669   49.5555 H   0  0  0  0  0  0  0  0  0  0  0  0
   63.3052   32.1259   50.3846 H   0  0  0  0  0  0  0  0  0  0  0  0
   61.9870   29.9990   51.0480 H   0  0  0  0  0  0  0  0  0  0  0  0
   60.3861   26.4187   48.4456 H   0  0  0  0  0  0  0  0  0  0  0  0
   60.6060   25.7836   46.0409 H   0  0  0  0  0  0  0  0  0  0  0  0
   60.7500   27.5558   44.2869 H   0  0  0  0  0  0  0  0  0  0  0  0
   60.6767   29.9662   44.9372 H   0  0  0  0  0  0  0  0  0  0  0  0
   60.4601   30.6060   47.3421 H   0  0  0  0  0  0  0  0  0  0  0  0
   59.3126   31.2404   48.9672 H   0  0  0  0  0  0  0  0  0  0  0  0
   58.7322   35.2082   45.6881 H   0  0  0  0  0  0  0  0  0  0  0  0
   58.1828   34.4974   43.3376 H   0  0  0  0  0  0  0  0  0  0  0  0
  1  2  1  0
  2  3  1  0
  3  4  2  0
  4  5  1  0
  5  6  1  0
  6  7  2  0
  6  8  1  0
  8  9  1  0
  9 10  2  0
  9 11  2  0
  9 12  1  0
 12 13  1  0
 13 14  2  0
 14 15  1  0
 15 16  2  0
 16 17  1  0
 17 18  2  0
  4 19  1  0
 19 20  2  0
 20 21  1  0
 21 22  1  0
 22 23  1  0
 23 24  2  0
 24 25  1  0
 25 26  2  0
 26 27  1  0
 27 28  1  0
 28 29  1  0
 29 30  2  0
 29 31  2  0
 29 32  1  0
 32 33  2  0
 33 34  1  0
 34 35  2  0
 35 36  1  0
 36 37  2  0
 27 38  2  0
 21 39  2  0
 39 40  1  0
 40 41  2  0
 41  2  1  0
 18 13  1  0
 41 19  1  0
 38 23  1  0
 37 32  1  0
  1 42  1  0
  1 43  1  0
  1 44  1  0
  3 45  1  0
  5 46  1  0
  5 47  1  0
 12 48  1  0
 12 49  1  0
 14 50  1  0
 15 51  1  0
 16 52  1  0
 17 53  1  0
 18 54  1  0
 20 55  1  0
 24 56  1  0
 25 57  1  0
 26 58  1  0
 28 59  1  0
 33 60  1  0
 34 61  1  0
 35 62  1  0
 36 63  1  0
 37 64  1  0
 38 65  1  0
 39 66  1  0
 40 67  1  0
M  CHG  1   8  -1
M  END
>  <UniqueID>  (44) 
39

>  <SMILES>  (44) 
Cn1cc(CC(=O)[N-]S(=O)(=O)Cc2ccccc2)c2cc(Oc3cccc(NS(=O)(=O)c4ccccc4)c3)ccc21

>  <Energy>  (44) 
106.70807642344289

>  <Genealogy>  (44) 
Cn1cc(CC(=O)[N-]S(=O)(=O)Cc2ccccc2)c2cc(Oc3cccc(NS(=O)(=O)c4ccccc4)c3)ccc21 (protonated)
Cn1cc(CC(=O)[N-]S(=O)(=O)Cc2ccccc2)c2cc(Oc3cccc(NS(=O)(=O)c4ccccc4)c3)ccc21 (3D coordinates assigned)
Cn1cc(CC(=O)[N-]S(=O)(=O)Cc2ccccc2)c2cc(Oc3cccc(NS(=O)(=O)c4ccccc4)c3)ccc21 (optimized conformer: 106.70807642344289 kcal/mol)

>  <smiles>  (44) 
Cn1cc(CC(=O)NS(=O)(=O)Cc2ccccc2)c2cc(Oc3cccc(NS(=O)(=O)c4ccccc4)c3)ccc21

>  <score_type>  (44) 
oracle

>  <origin>  (44) 
adg

>  <m_score__min__energy>  (44) 
-12.94

>  <m_primary>  (44) 
energy

$$$$
44:0
     RDKit          3D

 39 40  0  0  0  0  0  0  0  0999 V2000
   58.2320   30.0600   50.2030 O   0  0  0  0  0  0  0  0  0  0  0  0
   58.7880   30.8970   49.4400 C   0  0  0  0  0  0  0  0  0  0  0  0
   59.5530   30.4340   48.3150 N   0  0  0  0  0  0  0  0  0  0  0  0
   59.9690   29.0410   48.1580 C   0  0  0  0  0  0  0  0  0  0  0  0
   60.2190   28.7000   46.6810 C   0  0  0  0  0  0  0  0  0  0  0  0
   60.3200   29.9470   45.7890 C   0  0  0  0  0  0  0  0  0  0  0  0
   59.0220   30.6000   45.6160 N   0  0  0  0  0  0  0  0  0  0  0  0
   57.8930   30.0430   45.2730 C   0  0  0  0  0  0  0  0  0  0  0  0
   57.5490   28.7260   45.6400 C   0  0  0  0  0  0  0  0  0  0  0  0
   56.3080   28.2080   45.2620 C   0  0  0  0  0  0  0  0  0  0  0  0
   55.4380   28.9700   44.5500 N   0  0  0  0  0  0  0  0  0  0  0  0
   55.7430   30.2410   44.1800 C   0  0  0  0  0  0  0  0  0  0  0  0
   56.9740   30.7980   44.5340 C   0  0  0  0  0  0  0  0  0  0  0  0
   58.6870   32.2950   49.7600 N   0  0  0  0  0  0  0  0  0  0  0  0
   59.2640   33.3500   48.9790 C   0  0  0  0  0  0  0  0  0  0  0  0
   59.9670   34.2180   49.5610 O   0  0  0  0  0  0  0  0  0  0  0  0
   58.9580   33.4970   47.5370 C   0  0  0  0  0  0  0  0  0  0  0  0
   57.6180   33.4550   47.1130 C   0  0  0  0  0  0  0  0  0  0  0  0
   57.2940   33.6150   45.7630 C   0  0  0  0  0  0  0  0  0  0  0  0
   58.3010   33.8070   44.8200 C   0  0  0  0  0  0  0  0  0  0  0  0
   59.6370   33.8410   45.2210 C   0  0  0  0  0  0  0  0  0  0  0  0
   59.9760   33.6880   46.5720 C   0  0  0  0  0  0  0  0  0  0  0  0
   61.6860   33.6890   46.9950 Cl  0  0  0  0  0  0  0  0  0  0  0  0
   59.9030   31.1090   47.6020 H   0  0  0  0  0  0  0  0  0  0  0  0
   60.8965   28.8771   48.7262 H   0  0  0  0  0  0  0  0  0  0  0  0
   59.1644   28.3922   48.5344 H   0  0  0  0  0  0  0  0  0  0  0  0
   61.1609   28.1369   46.6052 H   0  0  0  0  0  0  0  0  0  0  0  0
   59.3602   28.1101   46.3282 H   0  0  0  0  0  0  0  0  0  0  0  0
   61.0180   30.6600   46.2520 H   0  0  0  0  0  0  0  0  0  0  0  0
   60.6770   29.6297   44.7981 H   0  0  0  0  0  0  0  0  0  0  0  0
   58.2528   28.1108   46.2198 H   0  0  0  0  0  0  0  0  0  0  0  0
   56.0346   27.1799   45.5418 H   0  0  0  0  0  0  0  0  0  0  0  0
   55.0191   30.8327   43.6005 H   0  0  0  0  0  0  0  0  0  0  0  0
   57.2208   31.8269   44.2331 H   0  0  0  0  0  0  0  0  0  0  0  0
   58.3330   32.5440   50.7120 H   0  0  0  0  0  0  0  0  0  0  0  0
   56.8177   33.2948   47.8504 H   0  0  0  0  0  0  0  0  0  0  0  0
   56.2415   33.5893   45.4444 H   0  0  0  0  0  0  0  0  0  0  0  0
   58.0427   33.9319   43.7581 H   0  0  0  0  0  0  0  0  0  0  0  0
   60.4290   33.9888   44.4720 H   0  0  0  0  0  0  0  0  0  0  0  0
  1  2  2  0
  2  3  1  0
  3  4  1  0
  4  5  1  0
  5  6  1  0
  6  7  1  0
  7  8  2  3
  8  9  1  0
  9 10  2  0
 10 11  1  0
 11 12  1  0
 12 13  2  0
  2 14  1  0
 14 15  1  0
 15 16  2  0
 15 17  1  0
 17 18  2  0
 18 19  1  0
 19 20  2  0
 20 21  1  0
 21 22  2  0
 22 23  1  0
 13  8  1  0
 22 17  1  0
  3 24  1  0
  4 25  1  0
  4 26  1  0
  5 27  1  0
  5 28  1  0
  6 29  1  0
  6 30  1  0
  9 31  1  0
 10 32  1  0
 12 33  1  0
 13 34  1  0
 14 35  1  0
 18 36  1  0
 19 37  1  0
 20 38  1  0
 21 39  1  0
M  CHG  1  11  -1
M  END
>  <UniqueID>  (45) 
40

>  <SMILES>  (45) 
O=C(NCCCN=c1cc[n-]cc1)NC(=O)c1ccccc1Cl

>  <Energy>  (45) 
45.071357394850715

>  <Genealogy>  (45) 
O=C(NCCCN=c1cc[n-]cc1)NC(=O)c1ccccc1Cl (protonated)
O=C(NCCCN=c1cc[n-]cc1)NC(=O)c1ccccc1Cl (3D coordinates assigned)
O=C(NCCCN=c1cc[n-]cc1)NC(=O)c1ccccc1Cl (optimized conformer: 45.071357394850715 kcal/mol)

>  <smiles>  (45) 
O=C(NCCCN=c1cc[nH]cc1)NC(=O)c1ccccc1Cl

>  <score_type>  (45) 
oracle

>  <origin>  (45) 
adg

>  <m_score__min__energy>  (45) 
-9.5299999999999994

>  <m_primary>  (45) 
energy

$$$$
45:0
     RDKit          3D

 37 38  0  0  0  0  0  0  0  0999 V2000
   54.5600   26.7160   45.0330 H   0  0  0  0  0  0  0  0  0  0  0  0
   54.7650   26.2890   45.9630 N   0  0  0  0  0  0  0  0  0  0  0  0
   56.1030   26.1720   46.4360 C   0  0  0  0  0  0  0  0  0  0  0  0
   56.4340   25.1750   47.1340 O   0  0  0  0  0  0  0  0  0  0  0  0
   57.0540   27.1920   46.1100 N   0  0  0  0  0  0  0  0  0  0  0  0
   58.0160   27.0360   45.2520 C   0  0  0  0  0  0  0  0  0  0  0  0
   57.7949   26.6537   44.2446 H   0  0  0  0  0  0  0  0  0  0  0  0
   59.4230   27.3740   45.6280 C   0  0  0  0  0  0  0  0  0  0  0  0
   59.6199   27.0157   46.6492 H   0  0  0  0  0  0  0  0  0  0  0  0
   60.1059   26.8889   44.9150 H   0  0  0  0  0  0  0  0  0  0  0  0
   59.6450   28.8610   45.5750 C   0  0  0  0  0  0  0  0  0  0  0  0
   60.3010   29.3410   44.6120 O   0  0  0  0  0  0  0  0  0  0  0  0
   59.1510   29.7570   46.5810 N   0  0  0  0  0  0  0  0  0  0  0  0
   58.2370   30.8800   46.3690 C   0  0  2  0  0  0  0  0  0  0  0  0
   57.4101   30.7784   47.0873 H   0  0  0  0  0  0  0  0  0  0  0  0
   57.6670   30.8590   44.9660 C   0  0  0  0  0  0  0  0  0  0  0  0
   58.1680   31.7400   43.9920 C   0  0  0  0  0  0  0  0  0  0  0  0
   58.9562   32.4596   44.2583 H   0  0  0  0  0  0  0  0  0  0  0  0
   57.6690   31.7060   42.6860 C   0  0  0  0  0  0  0  0  0  0  0  0
   58.0581   32.4057   41.9317 H   0  0  0  0  0  0  0  0  0  0  0  0
   56.6780   30.7860   42.3370 C   0  0  0  0  0  0  0  0  0  0  0  0
   56.2871   30.7616   41.3091 H   0  0  0  0  0  0  0  0  0  0  0  0
   56.1830   29.8960   43.2950 C   0  0  0  0  0  0  0  0  0  0  0  0
   55.4056   29.1685   43.0186 H   0  0  0  0  0  0  0  0  0  0  0  0
   56.6740   29.9290   44.6030 C   0  0  0  0  0  0  0  0  0  0  0  0
   56.2829   29.2252   45.3525 H   0  0  0  0  0  0  0  0  0  0  0  0
   58.9450   32.1950   46.6100 C   0  0  0  0  0  0  0  0  0  0  0  0
   58.2250   33.3900   46.8110 C   0  0  0  0  0  0  0  0  0  0  0  0
   57.1263   33.3819   46.7582 H   0  0  0  0  0  0  0  0  0  0  0  0
   58.8990   34.5850   47.0770 C   0  0  0  0  0  0  0  0  0  0  0  0
   58.3304   35.5155   47.2213 H   0  0  0  0  0  0  0  0  0  0  0  0
   60.2940   34.6000   47.1600 C   0  0  0  0  0  0  0  0  0  0  0  0
   60.8222   35.5425   47.3664 H   0  0  0  0  0  0  0  0  0  0  0  0
   61.0180   33.4190   46.9810 C   0  0  0  0  0  0  0  0  0  0  0  0
   62.9240   33.4380   47.1110 Br  0  0  0  0  0  0  0  0  0  0  0  0
   60.3470   32.2210   46.7140 C   0  0  0  0  0  0  0  0  0  0  0  0
   60.9209   31.2916   46.5843 H   0  0  0  0  0  0  0  0  0  0  0  0
  1  2  1  0
  2  3  1  0
  3  4  2  0
  3  5  1  0
  5  6  2  0
  6  7  1  0
  6  8  1  0
  8  9  1  0
  8 10  1  0
  8 11  1  0
 11 12  2  0
 11 13  1  0
 13 14  1  0
 14 15  1  1
 14 16  1  0
 16 17  2  0
 17 18  1  0
 17 19  1  0
 19 20  1  0
 19 21  2  0
 21 22  1  0
 21 23  1  0
 23 24  1  0
 23 25  2  0
 25 26  1  0
 14 27  1  0
 27 28  2  0
 28 29  1  0
 28 30  1  0
 30 31  1  0
 30 32  2  0
 32 33  1  0
 32 34  1  0
 34 35  1  0
 34 36  2  0
 36 37  1  0
 25 16  1  0
 36 27  1  0
M  CHG  2   2  -1  13  -1
M  END
>  <UniqueID>  (46) 
41

>  <SMILES>  (46) 
[NH-]C(=O)/N=C/CC(=O)[N-][C@H](c1ccccc1)c1cccc(Br)c1

>  <Energy>  (46) 
31.274965290208662

>  <Genealogy>  (46) 
[NH-]C(=O)N=CCC(=O)[N-]C(c1ccccc1)c1cccc(Br)c1 (protonated)
[NH-]C(=O)N=CCC(=O)[N-][C@H](c1ccccc1)c1cccc(Br)c1 (chirality)
[NH-]C(=O)/N=C/CC(=O)[N-][C@H](c1ccccc1)c1cccc(Br)c1 (cis-trans isomerization)
[NH-]C(=O)/N=C/CC(=O)[N-][C@H](c1ccccc1)c1cccc(Br)c1 (3D coordinates assigned)
[NH-]C(=O)/N=C/CC(=O)[N-][C@H](c1ccccc1)c1cccc(Br)c1 (optimized conformer: 31.274965290208662 kcal/mol)

>  <smiles>  (46) 
NC(=O)N=CCC(=O)NC(c1ccccc1)c1cccc(Br)c1

>  <score_type>  (46) 
oracle

>  <origin>  (46) 
adg

>  <m_score__min__energy>  (46) 
-11.81

>  <m_primary>  (46) 
energy

$$$$
46:0
     RDKit          3D

 49 52  0  0  0  0  0  0  0  0999 V2000
   54.8340   29.6150   43.4510 O   0  0  0  0  0  0  0  0  0  0  0  0
   55.5710   29.7010   44.4710 C   0  0  0  0  0  0  0  0  0  0  0  0
   56.1360   30.9600   44.8470 N   0  0  0  0  0  0  0  0  0  0  0  0
   57.2380   31.5960   44.1340 C   0  0  0  0  0  0  0  0  0  0  0  0
   57.8380   32.6940   44.9710 C   0  0  0  0  0  0  0  0  0  0  0  0
   57.4720   32.8300   46.3180 C   0  0  0  0  0  0  0  0  0  0  0  0
   58.0510   33.8410   47.0890 C   0  0  0  0  0  0  0  0  0  0  0  0
   58.9650   34.6830   46.5350 N   0  0  0  0  0  0  0  0  0  0  0  0
   59.3400   34.5700   45.2340 C   0  0  0  0  0  0  0  0  0  0  0  0
   58.7850   33.5730   44.4280 C   0  0  0  0  0  0  0  0  0  0  0  0
   55.8940   28.5370   45.2390 N   0  0  0  0  0  0  0  0  0  0  0  0
   57.1940   28.1600   45.7170 C   0  0  0  0  0  0  0  0  0  0  0  0
   57.4940   26.8400   46.1020 C   0  0  0  0  0  0  0  0  0  0  0  0
   58.7640   26.5220   46.5900 C   0  0  0  0  0  0  0  0  0  0  0  0
   59.7410   27.5140   46.7080 C   0  0  0  0  0  0  0  0  0  0  0  0
   59.4520   28.8360   46.3370 C   0  0  0  0  0  0  0  0  0  0  0  0
   60.4900   29.9190   46.5100 C   0  0  0  0  0  0  0  0  0  0  0  0
   60.1630   30.8650   47.6450 C   0  0  0  0  0  0  0  0  0  0  0  0
   59.0930   30.6090   48.4500 N   0  0  0  0  0  0  0  0  0  0  0  0
   58.7530   31.4140   49.4560 N   0  0  0  0  0  0  0  0  0  0  0  0
   59.4570   32.5370   49.7380 C   0  0  0  0  0  0  0  0  0  0  0  0
   59.0860   33.2800   50.6840 O   0  0  0  0  0  0  0  0  0  0  0  0
   60.5870   32.8530   48.9690 C   0  0  0  0  0  0  0  0  0  0  0  0
   60.9550   32.0040   47.9130 C   0  0  0  0  0  0  0  0  0  0  0  0
   62.1610   32.3940   47.0880 C   0  0  0  0  0  0  0  0  0  0  0  0
   63.3100   32.8440   48.0010 C   0  0  0  0  0  0  0  0  0  0  0  0
   62.8940   33.8630   49.0930 C   0  0  0  0  0  0  0  0  0  0  0  0
   61.3790   34.1200   49.1890 C   0  0  0  0  0  0  0  0  0  0  0  0
   58.1710   29.1550   45.8610 C   0  0  0  0  0  0  0  0  0  0  0  0
   58.0102   30.8440   43.9145 H   0  0  0  0  0  0  0  0  0  0  0  0
   56.8558   32.0284   43.1975 H   0  0  0  0  0  0  0  0  0  0  0  0
   56.7349   32.1461   46.7639 H   0  0  0  0  0  0  0  0  0  0  0  0
   57.7675   33.9565   48.1456 H   0  0  0  0  0  0  0  0  0  0  0  0
   60.0822   35.2650   44.8144 H   0  0  0  0  0  0  0  0  0  0  0  0
   59.0890   33.4786   43.3751 H   0  0  0  0  0  0  0  0  0  0  0  0
   56.7265   26.0564   46.0185 H   0  0  0  0  0  0  0  0  0  0  0  0
   58.9955   25.4871   46.8823 H   0  0  0  0  0  0  0  0  0  0  0  0
   60.7392   27.2579   47.0927 H   0  0  0  0  0  0  0  0  0  0  0  0
   61.4616   29.4458   46.7151 H   0  0  0  0  0  0  0  0  0  0  0  0
   60.5128   30.5088   45.5818 H   0  0  0  0  0  0  0  0  0  0  0  0
   62.4884   31.5288   46.4928 H   0  0  0  0  0  0  0  0  0  0  0  0
   61.8854   33.2265   46.4240 H   0  0  0  0  0  0  0  0  0  0  0  0
   63.7232   31.9545   48.4990 H   0  0  0  0  0  0  0  0  0  0  0  0
   64.0434   33.3525   47.3579 H   0  0  0  0  0  0  0  0  0  0  0  0
   63.2395   33.4830   50.0658 H   0  0  0  0  0  0  0  0  0  0  0  0
   63.3550   34.8222   48.8148 H   0  0  0  0  0  0  0  0  0  0  0  0
   61.1466   34.5177   50.1879 H   0  0  0  0  0  0  0  0  0  0  0  0
   61.1012   34.8407   48.4058 H   0  0  0  0  0  0  0  0  0  0  0  0
   57.9312   30.1959   45.5983 H   0  0  0  0  0  0  0  0  0  0  0  0
  1  2  2  0
  2  3  1  0
  3  4  1  0
  4  5  1  0
  5  6  2  0
  6  7  1  0
  7  8  2  0
  8  9  1  0
  9 10  2  0
  2 11  1  0
 11 12  1  0
 12 13  2  0
 13 14  1  0
 14 15  2  0
 15 16  1  0
 16 17  1  0
 17 18  1  0
 18 19  2  0
 19 20  1  0
 20 21  1  0
 21 22  2  0
 21 23  1  0
 23 24  2  0
 24 25  1  0
 25 26  1  0
 26 27  1  0
 27 28  1  0
 16 29  2  0
 10  5  1  0
 29 12  1  0
 24 18  1  0
 28 23  1  0
  4 30  1  0
  4 31  1  0
  6 32  1  0
  7 33  1  0
  9 34  1  0
 10 35  1  0
 13 36  1  0
 14 37  1  0
 15 38  1  0
 17 39  1  0
 17 40  1  0
 25 41  1  0
 25 42  1  0
 26 43  1  0
 26 44  1  0
 27 45  1  0
 27 46  1  0
 28 47  1  0
 28 48  1  0
 29 49  1  0
M  CHG  3   3  -1  11  -1  20  -1
M  END
>  <UniqueID>  (47) 
42

>  <SMILES>  (47) 
O=C([N-]Cc1ccncc1)[N-]c1cccc(Cc2n[n-]c(=O)c3c2CCCC3)c1

>  <Energy>  (47) 
63.37676428107064

>  <Genealogy>  (47) 
O=C([N-]Cc1ccncc1)[N-]c1cccc(Cc2n[n-]c(=O)c3c2CCCC3)c1 (protonated)
O=C([N-]Cc1ccncc1)[N-]c1cccc(Cc2n[n-]c(=O)c3c2CCCC3)c1 (3D coordinates assigned)
O=C([N-]Cc1ccncc1)[N-]c1cccc(Cc2n[n-]c(=O)c3c2CCCC3)c1 (nonaromatic ring conformer: 63.37676428107064 kcal/mol)

>  <smiles>  (47) 
O=C(NCc1ccncc1)Nc1cccc(Cc2n[nH]c(=O)c3c2CCCC3)c1

>  <score_type>  (47) 
oracle

>  <origin>  (47) 
adg

>  <m_score__min__energy>  (47) 
-14.5

>  <m_primary>  (47) 
energy

$$$$
47:0
     RDKit          3D

 23 24  0  0  0  0  0  0  0  0999 V2000
   58.0060   27.1900   46.6780 O   0  0  0  0  0  0  0  0  0  0  0  0
   57.6150   26.8520   45.5310 C   0  0  0  0  0  0  0  0  0  0  0  0
   57.8730   27.7370   44.4310 N   0  0  0  0  0  0  0  0  0  0  0  0
   57.6150   29.1460   44.4060 C   0  0  0  0  0  0  0  0  0  0  0  0
   58.6200   30.0790   44.1290 C   0  0  0  0  0  0  0  0  0  0  0  0
   58.1700   31.3950   44.1260 C   0  0  0  0  0  0  0  0  0  0  0  0
   56.5160   31.3980   44.4420 S   0  0  0  0  0  0  0  0  0  0  0  0
   56.3640   29.7310   44.5860 C   0  0  0  0  0  0  0  0  0  0  0  0
   55.1690   29.0580   44.8080 O   0  0  0  0  0  0  0  0  0  0  0  0
   56.8410   25.5980   45.3610 C   0  0  0  0  0  0  0  0  0  0  0  0
   57.4830   24.4270   44.9160 C   0  0  0  0  0  0  0  0  0  0  0  0
   56.7620   23.2420   44.7490 C   0  0  0  0  0  0  0  0  0  0  0  0
   55.3930   23.2120   45.0150 C   0  0  0  0  0  0  0  0  0  0  0  0
   54.7390   24.3680   45.4470 C   0  0  0  0  0  0  0  0  0  0  0  0
   55.4540   25.5590   45.6200 C   0  0  0  0  0  0  0  0  0  0  0  0
   54.7790   26.6900   46.0670 O   0  0  0  0  0  0  0  0  0  0  0  0
   59.6654   29.7988   43.9325 H   0  0  0  0  0  0  0  0  0  0  0  0
   58.7909   32.2852   43.9471 H   0  0  0  0  0  0  0  0  0  0  0  0
   55.1510   28.0490   44.8860 H   0  0  0  0  0  0  0  0  0  0  0  0
   58.5610   24.4451   44.6980 H   0  0  0  0  0  0  0  0  0  0  0  0
   57.2749   22.3309   44.4071 H   0  0  0  0  0  0  0  0  0  0  0  0
   54.8281   22.2772   44.8844 H   0  0  0  0  0  0  0  0  0  0  0  0
   53.6586   24.3425   45.6520 H   0  0  0  0  0  0  0  0  0  0  0  0
  1  2  2  0
  2  3  1  0
  3  4  1  0
  4  5  1  0
  5  6  2  0
  6  7  1  0
  7  8  1  0
  8  9  1  0
  2 10  1  0
 10 11  2  0
 11 12  1  0
 12 13  2  0
 13 14  1  0
 14 15  2  0
 15 16  1  0
  8  4  2  0
 15 10  1  0
  5 17  1  0
  6 18  1  0
  9 19  1  0
 11 20  1  0
 12 21  1  0
 13 22  1  0
 14 23  1  0
M  CHG  2   3  -1  16  -1
M  END
>  <UniqueID>  (48) 
43

>  <SMILES>  (48) 
O=C([N-]c1ccsc1O)c1ccccc1[O-]

>  <Energy>  (48) 
58.3788674680616

>  <Genealogy>  (48) 
O=C([N-]c1ccsc1O)c1ccccc1[O-] (protonated)
O=C([N-]c1ccsc1O)c1ccccc1[O-] (3D coordinates assigned)
O=C([N-]c1ccsc1O)c1ccccc1[O-] (optimized conformer: 58.3788674680616 kcal/mol)

>  <smiles>  (48) 
O=C(Nc1ccsc1O)c1ccccc1O

>  <score_type>  (48) 
oracle

>  <origin>  (48) 
adg

>  <m_score__min__energy>  (48) 
-11.94

>  <m_primary>  (48) 
energy

$$$$
48:0
     RDKit          3D

 47 49  0  0  0  0  0  0  0  0999 V2000
   56.3590   21.3830   48.3170 C   0  0  0  0  0  0  0  0  0  0  0  0
   57.3160   21.9970   47.4610 O   0  0  0  0  0  0  0  0  0  0  0  0
   57.0940   22.3080   46.1100 C   0  0  0  0  0  0  0  0  0  0  0  0
   57.5380   21.4640   45.0710 C   0  0  0  0  0  0  0  0  0  0  0  0
   57.2880   21.7940   43.7360 C   0  0  0  0  0  0  0  0  0  0  0  0
   56.5940   22.9620   43.4220 C   0  0  0  0  0  0  0  0  0  0  0  0
   56.1500   23.8080   44.4390 C   0  0  0  0  0  0  0  0  0  0  0  0
   56.4070   23.4980   45.7860 C   0  0  0  0  0  0  0  0  0  0  0  0
   55.8960   24.4060   46.8700 C   0  0  0  0  0  0  0  0  0  0  0  0
   55.4690   25.6690   46.2820 N   0  0  0  0  0  0  0  0  0  0  0  0
   56.3680   26.7080   45.8790 C   0  0  0  0  0  0  0  0  0  0  0  0
   55.8990   27.8470   45.6120 O   0  0  0  0  0  0  0  0  0  0  0  0
   57.8440   26.4510   45.7570 C   0  0  0  0  0  0  0  0  0  0  0  0
   58.3750   27.0460   44.5340 N   0  0  0  0  0  0  0  0  0  0  0  0
   59.0000   28.3320   44.4830 C   0  0  0  0  0  0  0  0  0  0  0  0
   60.2310   28.4070   44.2330 O   0  0  0  0  0  0  0  0  0  0  0  0
   58.2310   29.5730   44.6840 C   0  0  0  0  0  0  0  0  0  0  0  0
   58.3150   30.4700   45.7390 C   0  0  0  0  0  0  0  0  0  0  0  0
   59.3060   30.4940   46.8400 C   0  0  0  0  0  0  0  0  0  0  0  0
   59.2270   29.5370   47.8660 C   0  0  0  0  0  0  0  0  0  0  0  0
   60.1480   29.5520   48.9190 C   0  0  0  0  0  0  0  0  0  0  0  0
   61.1460   30.5280   48.9640 C   0  0  0  0  0  0  0  0  0  0  0  0
   61.2220   31.4940   47.9590 C   0  0  0  0  0  0  0  0  0  0  0  0
   60.3050   31.4830   46.9030 C   0  0  0  0  0  0  0  0  0  0  0  0
   57.3160   31.3710   45.6240 N   0  0  0  0  0  0  0  0  0  0  0  0
   56.6300   31.0590   44.5630 O   0  0  0  0  0  0  0  0  0  0  0  0
   57.1200   29.9920   43.9760 C   0  0  0  0  0  0  0  0  0  0  0  0
   56.5180   29.3640   42.7600 C   0  0  0  0  0  0  0  0  0  0  0  0
   56.6374   21.5616   49.3661 H   0  0  0  0  0  0  0  0  0  0  0  0
   55.3650   21.8123   48.1233 H   0  0  0  0  0  0  0  0  0  0  0  0
   56.3350   20.3005   48.1233 H   0  0  0  0  0  0  0  0  0  0  0  0
   58.0844   20.5404   45.3127 H   0  0  0  0  0  0  0  0  0  0  0  0
   57.6394   21.1311   42.9316 H   0  0  0  0  0  0  0  0  0  0  0  0
   56.3961   23.2170   42.3704 H   0  0  0  0  0  0  0  0  0  0  0  0
   55.5953   24.7234   44.1851 H   0  0  0  0  0  0  0  0  0  0  0  0
   55.0432   23.9298   47.3759 H   0  0  0  0  0  0  0  0  0  0  0  0
   56.6968   24.5929   47.6006 H   0  0  0  0  0  0  0  0  0  0  0  0
   58.3592   26.8894   46.6244 H   0  0  0  0  0  0  0  0  0  0  0  0
   58.0107   25.3643   45.7213 H   0  0  0  0  0  0  0  0  0  0  0  0
   58.4369   28.7721   47.8411 H   0  0  0  0  0  0  0  0  0  0  0  0
   60.0860   28.7935   49.7132 H   0  0  0  0  0  0  0  0  0  0  0  0
   61.8716   30.5355   49.7907 H   0  0  0  0  0  0  0  0  0  0  0  0
   62.0050   32.2657   47.9977 H   0  0  0  0  0  0  0  0  0  0  0  0
   60.3650   32.2512   46.1179 H   0  0  0  0  0  0  0  0  0  0  0  0
   55.7867   28.6011   43.0652 H   0  0  0  0  0  0  0  0  0  0  0  0
   56.0138   30.1360   42.1601 H   0  0  0  0  0  0  0  0  0  0  0  0
   57.3106   28.8929   42.1601 H   0  0  0  0  0  0  0  0  0  0  0  0
  1  2  1  0
  2  3  1  0
  3  4  2  0
  4  5  1  0
  5  6  2  0
  6  7  1  0
  7  8  2  0
  8  9  1  0
  9 10  1  0
 10 11  1  0
 11 12  2  0
 11 13  1  0
 13 14  1  0
 14 15  1  0
 15 16  2  0
 15 17  1  0
 17 18  1  0
 18 19  1  0
 19 20  2  0
 20 21  1  0
 21 22  2  0
 22 23  1  0
 23 24  2  0
 18 25  2  0
 25 26  1  0
 26 27  1  0
 27 28  1  0
  8  3  1  0
 27 17  2  0
 24 19  1  0
  1 29  1  0
  1 30  1  0
  1 31  1  0
  4 32  1  0
  5 33  1  0
  6 34  1  0
  7 35  1  0
  9 36  1  0
  9 37  1  0
 13 38  1  0
 13 39  1  0
 20 40  1  0
 21 41  1  0
 22 42  1  0
 23 43  1  0
 24 44  1  0
 28 45  1  0
 28 46  1  0
 28 47  1  0
M  CHG  2  10  -1  14  -1
M  END
>  <UniqueID>  (49) 
44

>  <SMILES>  (49) 
COc1ccccc1C[N-]C(=O)C[N-]C(=O)c1c(-c2ccccc2)noc1C

>  <Energy>  (49) 
83.86102843038319

>  <Genealogy>  (49) 
COc1ccccc1C[N-]C(=O)C[N-]C(=O)c1c(-c2ccccc2)noc1C (protonated)
COc1ccccc1C[N-]C(=O)C[N-]C(=O)c1c(-c2ccccc2)noc1C (3D coordinates assigned)
COc1ccccc1C[N-]C(=O)C[N-]C(=O)c1c(-c2ccccc2)noc1C (optimized conformer: 83.86102843038319 kcal/mol)

>  <smiles>  (49) 
COc1ccccc1CNC(=O)CNC(=O)c1c(-c2ccccc2)noc1C

>  <score_type>  (49) 
oracle

>  <origin>  (49) 
adg

>  <m_score__min__energy>  (49) 
-12.630000000000001

>  <m_primary>  (49) 
energy

$$$$
49:0
     RDKit          3D

 51 53  0  0  0  0  0  0  0  0999 V2000
   57.7370   29.7700   51.1930 O   0  0  0  0  0  0  0  0  0  0  0  0
   58.9230   29.8800   50.7840 C   0  0  0  0  0  0  0  0  0  0  0  0
   59.7930   30.9750   51.3210 C   0  0  0  0  0  0  0  0  0  0  0  0
   60.2360   31.8220   50.2620 O   0  0  0  0  0  0  0  0  0  0  0  0
   59.3920   32.6940   49.5640 C   0  0  0  0  0  0  0  0  0  0  0  0
   58.1780   32.4080   49.3750 O   0  0  0  0  0  0  0  0  0  0  0  0
   59.9260   34.0100   49.0900 C   0  0  0  0  0  0  0  0  0  0  0  0
   61.2830   33.8250   48.4830 C   0  0  0  0  0  0  0  0  0  0  0  0
   61.4920   33.6660   47.1040 C   0  0  0  0  0  0  0  0  0  0  0  0
   62.8220   33.4560   46.7650 C   0  0  0  0  0  0  0  0  0  0  0  0
   63.7260   33.4530   48.1820 S   0  0  0  0  0  0  0  0  0  0  0  0
   62.4470   33.7210   49.2390 C   0  0  0  0  0  0  0  0  0  0  0  0
   59.4390   28.9970   49.7790 N   0  0  0  0  0  0  0  0  0  0  0  0
   59.4880   29.2430   48.3650 C   0  0  0  0  0  0  0  0  0  0  0  0
   60.6340   29.8420   47.8290 C   0  0  0  0  0  0  0  0  0  0  0  0
   60.7340   30.0760   46.4550 C   0  0  0  0  0  0  0  0  0  0  0  0
   59.6920   29.7040   45.6030 C   0  0  0  0  0  0  0  0  0  0  0  0
   58.5470   29.0850   46.1220 C   0  0  0  0  0  0  0  0  0  0  0  0
   57.2360   28.5910   45.0530 S   0  0  0  0  0  0  0  0  0  0  0  0
   56.5600   27.3820   45.6350 O   0  0  0  0  0  0  0  0  0  0  0  0
   57.7770   28.2430   43.6950 O   0  0  0  0  0  0  0  0  0  0  0  0
   56.0750   29.8790   44.9050 N   0  0  0  0  0  0  0  0  0  0  0  0
   56.2910   30.6460   43.6760 C   0  0  0  0  0  0  0  0  0  0  0  0
   57.7350   31.1450   43.6140 C   0  0  0  0  0  0  0  0  0  0  0  0
   57.9220   32.3470   44.5000 C   0  0  0  0  0  0  0  0  0  0  0  0
   58.6380   33.4640   44.0380 C   0  0  0  0  0  0  0  0  0  0  0  0
   58.8340   34.5690   44.8730 C   0  0  0  0  0  0  0  0  0  0  0  0
   58.3310   34.5610   46.1760 C   0  0  0  0  0  0  0  0  0  0  0  0
   57.6330   33.4470   46.6480 C   0  0  0  0  0  0  0  0  0  0  0  0
   57.4320   32.3410   45.8160 C   0  0  0  0  0  0  0  0  0  0  0  0
   58.4520   28.8440   47.4990 C   0  0  0  0  0  0  0  0  0  0  0  0
   59.2195   31.5710   52.0462 H   0  0  0  0  0  0  0  0  0  0  0  0
   60.6702   30.5266   51.8103 H   0  0  0  0  0  0  0  0  0  0  0  0
   59.2439   34.4293   48.3357 H   0  0  0  0  0  0  0  0  0  0  0  0
   60.0044   34.6966   49.9458 H   0  0  0  0  0  0  0  0  0  0  0  0
   60.6799   33.7041   46.3630 H   0  0  0  0  0  0  0  0  0  0  0  0
   63.2152   33.3161   45.7472 H   0  0  0  0  0  0  0  0  0  0  0  0
   62.5174   33.8002   50.3339 H   0  0  0  0  0  0  0  0  0  0  0  0
   61.4615   30.1305   48.4939 H   0  0  0  0  0  0  0  0  0  0  0  0
   61.6352   30.5541   46.0437 H   0  0  0  0  0  0  0  0  0  0  0  0
   59.7701   29.8972   44.5229 H   0  0  0  0  0  0  0  0  0  0  0  0
   56.0907   30.0031   42.8062 H   0  0  0  0  0  0  0  0  0  0  0  0
   55.6110   31.5106   43.6674 H   0  0  0  0  0  0  0  0  0  0  0  0
   58.4089   30.3422   43.9478 H   0  0  0  0  0  0  0  0  0  0  0  0
   57.9656   31.4311   42.5772 H   0  0  0  0  0  0  0  0  0  0  0  0
   59.0458   33.4696   43.0164 H   0  0  0  0  0  0  0  0  0  0  0  0
   59.3853   35.4459   44.5028 H   0  0  0  0  0  0  0  0  0  0  0  0
   58.4845   35.4318   46.8303 H   0  0  0  0  0  0  0  0  0  0  0  0
   57.2408   33.4396   47.6757 H   0  0  0  0  0  0  0  0  0  0  0  0
   56.8879   31.4629   46.1940 H   0  0  0  0  0  0  0  0  0  0  0  0
   57.5628   28.3401   47.9058 H   0  0  0  0  0  0  0  0  0  0  0  0
  1  2  2  0
  2  3  1  0
  3  4  1  0
  4  5  1  0
  5  6  2  0
  5  7  1  0
  7  8  1  0
  8  9  1  0
  9 10  2  0
 10 11  1  0
 11 12  1  0
  2 13  1  0
 13 14  1  0
 14 15  2  0
 15 16  1  0
 16 17  2  0
 17 18  1  0
 18 19  1  0
 19 20  2  0
 19 21  2  0
 19 22  1  0
 22 23  1  0
 23 24  1  0
 24 25  1  0
 25 26  2  0
 26 27  1  0
 27 28  2  0
 28 29  1  0
 29 30  2  0
 18 31  2  0
 12  8  2  0
 31 14  1  0
 30 25  1  0
  3 32  1  0
  3 33  1  0
  7 34  1  0
  7 35  1  0
  9 36  1  0
 10 37  1  0
 12 38  1  0
 15 39  1  0
 16 40  1  0
 17 41  1  0
 23 42  1  0
 23 43  1  0
 24 44  1  0
 24 45  1  0
 26 46  1  0
 27 47  1  0
 28 48  1  0
 29 49  1  0
 30 50  1  0
 31 51  1  0
M  CHG  2  13  -1  22  -1
M  END
>  <UniqueID>  (50) 
45

>  <SMILES>  (50) 
O=C(COC(=O)Cc1ccsc1)[N-]c1cccc(S(=O)(=O)[N-]CCc2ccccc2)c1

>  <Energy>  (50) 
74.39388314862649

>  <Genealogy>  (50) 
O=C(COC(=O)Cc1ccsc1)[N-]c1cccc(S(=O)(=O)[N-]CCc2ccccc2)c1 (protonated)
O=C(COC(=O)Cc1ccsc1)[N-]c1cccc(S(=O)(=O)[N-]CCc2ccccc2)c1 (3D coordinates assigned)
O=C(COC(=O)Cc1ccsc1)[N-]c1cccc(S(=O)(=O)[N-]CCc2ccccc2)c1 (optimized conformer: 74.39388314862649 kcal/mol)

>  <smiles>  (50) 
O=C(COC(=O)Cc1ccsc1)Nc1cccc(S(=O)(=O)NCCc2ccccc2)c1

>  <score_type>  (50) 
oracle

>  <origin>  (50) 
adg

>  <m_score__min__energy>  (50) 
-12.460000000000001

>  <m_primary>  (50) 
energy

$$$$
50:0
     RDKit          3D

 44 46  0  0  0  0  0  0  0  0999 V2000
   55.2450   29.7360   43.6660 C   0  0  0  0  0  0  0  0  0  0  0  0
   55.3850   28.9660   44.8570 O   0  0  0  0  0  0  0  0  0  0  0  0
   56.5960   28.4570   45.3500 C   0  0  0  0  0  0  0  0  0  0  0  0
   57.7840   29.2080   45.2610 C   0  0  0  0  0  0  0  0  0  0  0  0
   58.9930   28.7060   45.7530 C   0  0  0  0  0  0  0  0  0  0  0  0
   60.2410   29.5470   45.6800 C   0  0  0  0  0  0  0  0  0  0  0  0
   60.0360   30.8150   46.3830 N   0  0  0  0  0  0  0  0  0  0  0  0
   60.6300   31.1740   47.5430 C   0  0  0  0  0  0  0  0  0  0  0  0
   60.2800   32.4720   47.8890 C   0  0  0  0  0  0  0  0  0  0  0  0
   60.7730   33.1510   49.1010 C   0  0  0  0  0  0  0  0  0  0  0  0
   60.2440   34.2030   49.5400 O   0  0  0  0  0  0  0  0  0  0  0  0
   59.4340   32.9250   46.8750 C   0  0  0  0  0  0  0  0  0  0  0  0
   58.7740   34.1450   46.6510 C   0  0  0  0  0  0  0  0  0  0  0  0
   58.8780   35.2100   47.5400 O   0  0  0  0  0  0  0  0  0  0  0  0
   57.9900   34.2710   45.4860 C   0  0  0  0  0  0  0  0  0  0  0  0
   57.8780   33.2010   44.5770 C   0  0  0  0  0  0  0  0  0  0  0  0
   58.5440   31.9920   44.8180 C   0  0  0  0  0  0  0  0  0  0  0  0
   59.3180   31.8820   45.9770 C   0  0  0  0  0  0  0  0  0  0  0  0
   59.0220   27.4390   46.3430 C   0  0  0  0  0  0  0  0  0  0  0  0
   57.8510   26.6700   46.4450 C   0  0  0  0  0  0  0  0  0  0  0  0
   57.8500   25.3950   47.0360 O   0  0  0  0  0  0  0  0  0  0  0  0
   58.3110   24.2080   46.3980 C   0  0  0  0  0  0  0  0  0  0  0  0
   56.6340   27.1710   45.9490 C   0  0  0  0  0  0  0  0  0  0  0  0
   55.5070   26.3390   46.0870 O   0  0  0  0  0  0  0  0  0  0  0  0
   55.3680   25.0090   45.5990 C   0  0  0  0  0  0  0  0  0  0  0  0
   55.0539   30.7868   43.9291 H   0  0  0  0  0  0  0  0  0  0  0  0
   56.1702   29.6684   43.0748 H   0  0  0  0  0  0  0  0  0  0  0  0
   54.4028   29.3471   43.0748 H   0  0  0  0  0  0  0  0  0  0  0  0
   57.7606   30.2052   44.7972 H   0  0  0  0  0  0  0  0  0  0  0  0
   61.0744   29.0024   46.1478 H   0  0  0  0  0  0  0  0  0  0  0  0
   60.4740   29.7541   44.6251 H   0  0  0  0  0  0  0  0  0  0  0  0
   61.2979   30.5274   48.1311 H   0  0  0  0  0  0  0  0  0  0  0  0
   61.6319   32.7229   49.6386 H   0  0  0  0  0  0  0  0  0  0  0  0
   59.2740   35.0920   48.4660 H   0  0  0  0  0  0  0  0  0  0  0  0
   57.4607   35.2141   45.2850 H   0  0  0  0  0  0  0  0  0  0  0  0
   57.2636   33.3152   43.6718 H   0  0  0  0  0  0  0  0  0  0  0  0
   58.4600   31.1513   44.1136 H   0  0  0  0  0  0  0  0  0  0  0  0
   59.9710   27.0404   46.7311 H   0  0  0  0  0  0  0  0  0  0  0  0
   58.5979   23.4694   47.1610 H   0  0  0  0  0  0  0  0  0  0  0  0
   57.5084   23.7938   45.7701 H   0  0  0  0  0  0  0  0  0  0  0  0
   59.1828   24.4441   45.7701 H   0  0  0  0  0  0  0  0  0  0  0  0
   55.2952   24.3128   46.4475 H   0  0  0  0  0  0  0  0  0  0  0  0
   54.4574   24.9366   44.9862 H   0  0  0  0  0  0  0  0  0  0  0  0
   56.2440   24.7499   44.9862 H   0  0  0  0  0  0  0  0  0  0  0  0
  1  2  1  0
  2  3  1  0
  3  4  2  0
  4  5  1  0
  5  6  1  0
  6  7  1  0
  7  8  1  0
  8  9  2  0
  9 10  1  0
 10 11  2  0
  9 12  1  0
 12 13  2  0
 13 14  1  0
 13 15  1  0
 15 16  2  0
 16 17  1  0
 17 18  2  0
  5 19  2  0
 19 20  1  0
 20 21  1  0
 21 22  1  0
 20 23  2  0
 23 24  1  0
 24 25  1  0
 23  3  1  0
 18  7  1  0
 18 12  1  0
  1 26  1  0
  1 27  1  0
  1 28  1  0
  4 29  1  0
  6 30  1  0
  6 31  1  0
  8 32  1  0
 10 33  1  0
 14 34  1  0
 15 35  1  0
 16 36  1  0
 17 37  1  0
 19 38  1  0
 22 39  1  0
 22 40  1  0
 22 41  1  0
 25 42  1  0
 25 43  1  0
 25 44  1  0
M  END
>  <UniqueID>  (51) 
46

>  <SMILES>  (51) 
COc1cc(Cn2cc(C=O)c3c(O)cccc32)cc(OC)c1OC

>  <Energy>  (51) 
81.62356715386305

>  <Genealogy>  (51) 
COc1cc(Cn2cc(C=O)c3c(O)cccc32)cc(OC)c1OC (3D coordinates assigned)
COc1cc(Cn2cc(C=O)c3c(O)cccc32)cc(OC)c1OC (optimized conformer: 81.62356715386305 kcal/mol)

>  <smiles>  (51) 
COc1cc(Cn2cc(C=O)c3c(O)cccc32)cc(OC)c1OC

>  <score_type>  (51) 
oracle

>  <origin>  (51) 
adg

>  <m_score__min__energy>  (51) 
-7.0199999999999996

>  <m_primary>  (51) 
energy

$$$$
51:0
     RDKit          3D

 37 38  0  0  0  0  0  0  0  0999 V2000
   64.3800   32.9680   49.3640 N   0  0  0  0  0  0  0  0  0  0  0  0
   63.4360   33.0150   47.9180 S   0  0  0  0  0  0  0  0  0  0  0  0
   63.7580   31.8180   47.0690 O   0  0  0  0  0  0  0  0  0  0  0  0
   63.7680   34.2590   47.1440 O   0  0  0  0  0  0  0  0  0  0  0  0
   61.7240   33.0030   48.3340 C   0  0  0  0  0  0  0  0  0  0  0  0
   61.2930   33.5380   49.5540 C   0  0  0  0  0  0  0  0  0  0  0  0
   59.9330   33.5430   49.8760 C   0  0  0  0  0  0  0  0  0  0  0  0
   58.9950   33.0300   48.9760 C   0  0  0  0  0  0  0  0  0  0  0  0
   59.4150   32.5150   47.7370 C   0  0  0  0  0  0  0  0  0  0  0  0
   58.4740   31.9850   46.7900 N   0  0  0  0  0  0  0  0  0  0  0  0
   57.5340   32.7950   46.0650 C   0  0  0  0  0  0  0  0  0  0  0  0
   57.3500   34.0030   46.3770 O   0  0  0  0  0  0  0  0  0  0  0  0
   56.8260   32.2380   44.8660 C   0  0  0  0  0  0  0  0  0  0  0  0
   57.0110   30.7920   44.8000 N   0  0  0  0  0  0  0  0  0  0  0  0
   55.9840   29.8830   44.3960 C   0  0  0  0  0  0  0  0  0  0  0  0
   55.3840   30.0760   43.3060 O   0  0  0  0  0  0  0  0  0  0  0  0
   55.6190   28.7850   45.2420 N   0  0  0  0  0  0  0  0  0  0  0  0
   56.4630   27.6920   45.6300 C   0  0  0  0  0  0  0  0  0  0  0  0
   57.8610   27.8310   45.7120 C   0  0  0  0  0  0  0  0  0  0  0  0
   58.6500   26.7650   46.1540 C   0  0  0  0  0  0  0  0  0  0  0  0
   58.0520   25.5590   46.5290 C   0  0  0  0  0  0  0  0  0  0  0  0
   56.6640   25.4180   46.4680 C   0  0  0  0  0  0  0  0  0  0  0  0
   55.8700   26.4810   46.0260 C   0  0  0  0  0  0  0  0  0  0  0  0
   54.4880   26.3350   45.9850 O   0  0  0  0  0  0  0  0  0  0  0  0
   60.7830   32.4870   47.4340 C   0  0  0  0  0  0  0  0  0  0  0  0
   63.7540   33.2590   50.1460 H   0  0  0  0  0  0  0  0  0  0  0  0
   62.0260   33.9551   50.2602 H   0  0  0  0  0  0  0  0  0  0  0  0
   59.5998   33.9521   50.8412 H   0  0  0  0  0  0  0  0  0  0  0  0
   57.9265   33.0291   49.2374 H   0  0  0  0  0  0  0  0  0  0  0  0
   58.6270   31.0040   46.4600 H   0  0  0  0  0  0  0  0  0  0  0  0
   55.7521   32.4642   44.9403 H   0  0  0  0  0  0  0  0  0  0  0  0
   57.2435   32.6958   43.9571 H   0  0  0  0  0  0  0  0  0  0  0  0
   58.3347   28.7821   45.4272 H   0  0  0  0  0  0  0  0  0  0  0  0
   59.7431   26.8757   46.2067 H   0  0  0  0  0  0  0  0  0  0  0  0
   58.6751   24.7201   46.8725 H   0  0  0  0  0  0  0  0  0  0  0  0
   56.1946   24.4695   46.7680 H   0  0  0  0  0  0  0  0  0  0  0  0
   61.1210   32.0556   46.4802 H   0  0  0  0  0  0  0  0  0  0  0  0
  1  2  1  0
  2  3  2  0
  2  4  2  0
  2  5  1  0
  5  6  2  0
  6  7  1  0
  7  8  2  0
  8  9  1  0
  9 10  1  0
 10 11  1  0
 11 12  2  0
 11 13  1  0
 13 14  1  0
 14 15  1  0
 15 16  2  0
 15 17  1  0
 17 18  1  0
 18 19  2  0
 19 20  1  0
 20 21  2  0
 21 22  1  0
 22 23  2  0
 23 24  1  0
  9 25  2  0
 25  5  1  0
 23 18  1  0
  1 26  1  0
  6 27  1  0
  7 28  1  0
  8 29  1  0
 10 30  1  0
 13 31  1  0
 13 32  1  0
 19 33  1  0
 20 34  1  0
 21 35  1  0
 22 36  1  0
 25 37  1  0
M  CHG  4   1  -1  14  -1  17  -1  24  -1
M  END
>  <UniqueID>  (52) 
47

>  <SMILES>  (52) 
[NH-]S(=O)(=O)c1cccc(NC(=O)C[N-]C(=O)[N-]c2ccccc2[O-])c1

>  <Energy>  (52) 
38.215567130031246

>  <Genealogy>  (52) 
[NH-]S(=O)(=O)c1cccc(NC(=O)C[N-]C(=O)[N-]c2ccccc2[O-])c1 (protonated)
[NH-]S(=O)(=O)c1cccc(NC(=O)C[N-]C(=O)[N-]c2ccccc2[O-])c1 (3D coordinates assigned)
[NH-]S(=O)(=O)c1cccc(NC(=O)C[N-]C(=O)[N-]c2ccccc2[O-])c1 (optimized conformer: 38.215567130031246 kcal/mol)

>  <smiles>  (52) 
NS(=O)(=O)c1cccc(NC(=O)CNC(=O)Nc2ccccc2O)c1

>  <score_type>  (52) 
oracle

>  <origin>  (52) 
adg

>  <m_score__min__energy>  (52) 
-16.640000000000001

>  <m_primary>  (52) 
energy

$$$$
52:0
     RDKit          3D

 41 43  0  0  0  0  0  0  0  0999 V2000
   59.6520   29.4180   51.1080 C   0  0  0  0  0  0  0  0  0  0  0  0
   60.0080   29.4770   49.6510 C   0  0  0  0  0  0  0  0  0  0  0  0
   60.7830   30.5380   49.1580 C   0  0  0  0  0  0  0  0  0  0  0  0
   61.1370   30.5880   47.8020 C   0  0  0  0  0  0  0  0  0  0  0  0
   61.9890   31.7080   47.2820 C   0  0  0  0  0  0  0  0  0  0  0  0
   60.7510   29.5450   46.9480 C   0  0  0  0  0  0  0  0  0  0  0  0
   60.0180   28.4510   47.4420 C   0  0  0  0  0  0  0  0  0  0  0  0
   59.6320   27.3610   46.5860 N   0  0  0  0  0  0  0  0  0  0  0  0
   58.3080   26.8110   46.5280 C   0  0  0  0  0  0  0  0  0  0  0  0
   58.0430   25.5600   46.8360 O   0  0  0  0  0  0  0  0  0  0  0  0
   56.7510   25.3560   46.7030 C   0  0  0  0  0  0  0  0  0  0  0  0
   56.1550   26.5230   46.2800 C   0  0  0  0  0  0  0  0  0  0  0  0
   54.8050   26.6880   45.9930 O   0  0  0  0  0  0  0  0  0  0  0  0
   57.1450   27.4740   46.1520 C   0  0  0  0  0  0  0  0  0  0  0  0
   56.9960   28.8420   45.6220 C   0  0  0  0  0  0  0  0  0  0  0  0
   55.8600   29.2440   45.2520 O   0  0  0  0  0  0  0  0  0  0  0  0
   58.1450   29.6930   45.4870 N   0  0  0  0  0  0  0  0  0  0  0  0
   58.0710   31.0870   45.1430 C   0  0  0  0  0  0  0  0  0  0  0  0
   57.8880   31.5050   43.8130 C   0  0  0  0  0  0  0  0  0  0  0  0
   57.8020   32.8670   43.5060 C   0  0  0  0  0  0  0  0  0  0  0  0
   57.8840   33.8210   44.5240 C   0  0  0  0  0  0  0  0  0  0  0  0
   58.0440   33.4130   45.8510 C   0  0  0  0  0  0  0  0  0  0  0  0
   58.1300   32.0530   46.1610 C   0  0  0  0  0  0  0  0  0  0  0  0
   59.6360   28.4340   48.7900 C   0  0  0  0  0  0  0  0  0  0  0  0
   60.5582   29.5682   51.7132 H   0  0  0  0  0  0  0  0  0  0  0  0
   58.9216   30.2073   51.3393 H   0  0  0  0  0  0  0  0  0  0  0  0
   59.2153   28.4352   51.3393 H   0  0  0  0  0  0  0  0  0  0  0  0
   61.1148   31.3353   49.8394 H   0  0  0  0  0  0  0  0  0  0  0  0
   62.4149   32.2678   48.1277 H   0  0  0  0  0  0  0  0  0  0  0  0
   62.8032   31.2949   46.6685 H   0  0  0  0  0  0  0  0  0  0  0  0
   61.3736   32.3825   46.6685 H   0  0  0  0  0  0  0  0  0  0  0  0
   61.0237   29.5827   45.8830 H   0  0  0  0  0  0  0  0  0  0  0  0
   60.3760   26.8790   46.0320 H   0  0  0  0  0  0  0  0  0  0  0  0
   56.2305   24.4068   46.8980 H   0  0  0  0  0  0  0  0  0  0  0  0
   59.0880   29.2440   45.4970 H   0  0  0  0  0  0  0  0  0  0  0  0
   57.8121   30.7572   43.0099 H   0  0  0  0  0  0  0  0  0  0  0  0
   57.6697   33.1875   42.4621 H   0  0  0  0  0  0  0  0  0  0  0  0
   57.8227   34.8921   44.2810 H   0  0  0  0  0  0  0  0  0  0  0  0
   58.1023   34.1637   46.6529 H   0  0  0  0  0  0  0  0  0  0  0  0
   58.2446   31.7372   47.2084 H   0  0  0  0  0  0  0  0  0  0  0  0
   59.0389   27.5950   49.1766 H   0  0  0  0  0  0  0  0  0  0  0  0
  1  2  1  0
  2  3  2  0
  3  4  1  0
  4  5  1  0
  4  6  2  0
  6  7  1  0
  7  8  1  0
  8  9  1  0
  9 10  1  0
 10 11  1  0
 11 12  2  0
 12 13  1  0
 12 14  1  0
 14 15  1  0
 15 16  2  0
 15 17  1  0
 17 18  1  0
 18 19  2  0
 19 20  1  0
 20 21  2  0
 21 22  1  0
 22 23  2  0
  7 24  2  0
 24  2  1  0
 14  9  2  0
 23 18  1  0
  1 25  1  0
  1 26  1  0
  1 27  1  0
  3 28  1  0
  5 29  1  0
  5 30  1  0
  5 31  1  0
  6 32  1  0
  8 33  1  0
 11 34  1  0
 17 35  1  0
 19 36  1  0
 20 37  1  0
 21 38  1  0
 22 39  1  0
 23 40  1  0
 24 41  1  0
M  CHG  1  13  -1
M  END
>  <UniqueID>  (53) 
48

>  <SMILES>  (53) 
Cc1cc(C)cc(Nc2occ([O-])c2C(=O)Nc2ccccc2)c1

>  <Energy>  (53) 
80.82535856497088

>  <Genealogy>  (53) 
Cc1cc(C)cc(Nc2occ([O-])c2C(=O)Nc2ccccc2)c1 (protonated)
Cc1cc(C)cc(Nc2occ([O-])c2C(=O)Nc2ccccc2)c1 (3D coordinates assigned)
Cc1cc(C)cc(Nc2occ([O-])c2C(=O)Nc2ccccc2)c1 (optimized conformer: 80.82535856497088 kcal/mol)

>  <smiles>  (53) 
Cc1cc(C)cc(Nc2occ(O)c2C(=O)Nc2ccccc2)c1

>  <score_type>  (53) 
oracle

>  <origin>  (53) 
adg

>  <m_score__min__energy>  (53) 
-11.210000000000001

>  <m_primary>  (53) 
energy

$$$$
53:0
     RDKit          3D

 63 65  0  0  0  0  0  0  0  0999 V2000
   62.7540   30.6290   50.5730 C   0  0  0  0  0  0  0  0  0  0  0  0
   61.5320   30.2170   49.7590 C   0  0  0  0  0  0  0  0  0  0  0  0
   61.0100   28.9210   50.2250 N   0  0  0  0  0  0  0  0  0  0  0  0
   60.9590   28.6210   51.6600 C   0  0  0  0  0  0  0  0  0  0  0  0
   59.5500   28.7290   52.1550 C   0  0  0  0  0  0  0  0  0  0  0  0
   59.1710   28.0070   53.1160 O   0  0  0  0  0  0  0  0  0  0  0  0
   58.6660   29.6990   51.5690 N   0  0  0  0  0  0  0  0  0  0  0  0
   58.6550   31.1130   51.8260 C   0  0  0  0  0  0  0  0  0  0  0  0
   59.8460   31.8600   51.9030 C   0  0  0  0  0  0  0  0  0  0  0  0
   59.8010   33.2310   52.1870 C   0  0  0  0  0  0  0  0  0  0  0  0
   58.5760   33.8640   52.4130 C   0  0  0  0  0  0  0  0  0  0  0  0
   57.3920   33.1280   52.3600 C   0  0  0  0  0  0  0  0  0  0  0  0
   57.4260   31.7560   52.0730 C   0  0  0  0  0  0  0  0  0  0  0  0
   55.9110   30.8630   52.0030 Cl  0  0  0  0  0  0  0  0  0  0  0  0
   60.5760   27.9240   49.2820 C   0  0  0  0  0  0  0  0  0  0  0  0
   60.7310   26.7030   49.5530 O   0  0  0  0  0  0  0  0  0  0  0  0
   59.9400   28.3040   48.0030 C   0  0  0  0  0  0  0  0  0  0  0  0
   60.6870   28.9520   47.0060 C   0  0  0  0  0  0  0  0  0  0  0  0
   60.0890   29.3120   45.7950 C   0  0  0  0  0  0  0  0  0  0  0  0
   58.7320   29.0470   45.5660 C   0  0  0  0  0  0  0  0  0  0  0  0
   58.1010   29.3870   44.3240 N   0  0  0  0  0  0  0  0  0  0  0  0
   57.1150   30.7970   44.0960 S   0  0  0  0  0  0  0  0  0  0  0  0
   56.9450   31.0420   42.6240 O   0  0  0  0  0  0  0  0  0  0  0  0
   55.7590   30.5440   44.6940 O   0  0  0  0  0  0  0  0  0  0  0  0
   57.8490   32.2240   44.8260 C   0  0  0  0  0  0  0  0  0  0  0  0
   57.7710   33.4730   44.1880 C   0  0  0  0  0  0  0  0  0  0  0  0
   58.2790   34.6130   44.8160 C   0  0  0  0  0  0  0  0  0  0  0  0
   58.8580   34.5180   46.0840 C   0  0  0  0  0  0  0  0  0  0  0  0
   58.9410   33.2760   46.7300 C   0  0  0  0  0  0  0  0  0  0  0  0
   59.6060   33.1660   48.3620 S   0  0  0  0  0  0  0  0  0  0  0  0
   58.9400   32.0330   49.0930 O   0  0  0  0  0  0  0  0  0  0  0  0
   59.3040   34.4410   49.1020 O   0  0  0  0  0  0  0  0  0  0  0  0
   61.3330   32.8940   48.3330 N   0  0  0  0  0  0  0  0  0  0  0  0
   61.8290   33.0130   46.9540 C   0  0  0  0  0  0  0  0  0  0  0  0
   62.0140   33.8660   49.2030 C   0  0  0  0  0  0  0  0  0  0  0  0
   58.4490   32.1280   46.0900 C   0  0  0  0  0  0  0  0  0  0  0  0
   57.9870   28.3870   46.5550 C   0  0  0  0  0  0  0  0  0  0  0  0
   58.5820   28.0340   47.7740 C   0  0  0  0  0  0  0  0  0  0  0  0
   62.5233   30.5512   51.6457 H   0  0  0  0  0  0  0  0  0  0  0  0
   63.5970   29.9654   50.3302 H   0  0  0  0  0  0  0  0  0  0  0  0
   63.0232   31.6676   50.3302 H   0  0  0  0  0  0  0  0  0  0  0  0
   60.7496   30.9823   49.8693 H   0  0  0  0  0  0  0  0  0  0  0  0
   61.8256   30.1215   48.7032 H   0  0  0  0  0  0  0  0  0  0  0  0
   61.3284   27.5993   51.8321 H   0  0  0  0  0  0  0  0  0  0  0  0
   61.5890   29.3413   52.2025 H   0  0  0  0  0  0  0  0  0  0  0  0
   60.8149   31.3655   51.7396 H   0  0  0  0  0  0  0  0  0  0  0  0
   60.7341   33.8118   52.2323 H   0  0  0  0  0  0  0  0  0  0  0  0
   58.5452   34.9414   52.6325 H   0  0  0  0  0  0  0  0  0  0  0  0
   56.4285   33.6258   52.5440 H   0  0  0  0  0  0  0  0  0  0  0  0
   61.7496   29.1777   47.1792 H   0  0  0  0  0  0  0  0  0  0  0  0
   60.6878   29.8068   45.0161 H   0  0  0  0  0  0  0  0  0  0  0  0
   57.3094   33.5536   43.1928 H   0  0  0  0  0  0  0  0  0  0  0  0
   58.2229   35.5884   44.3106 H   0  0  0  0  0  0  0  0  0  0  0  0
   59.2498   35.4199   46.5770 H   0  0  0  0  0  0  0  0  0  0  0  0
   62.8985   33.2696   46.9699 H   0  0  0  0  0  0  0  0  0  0  0  0
   61.6893   32.0559   46.4302 H   0  0  0  0  0  0  0  0  0  0  0  0
   61.2702   33.8026   46.4302 H   0  0  0  0  0  0  0  0  0  0  0  0
   61.8319   33.6060   50.2562 H   0  0  0  0  0  0  0  0  0  0  0  0
   63.0952   33.8439   49.0016 H   0  0  0  0  0  0  0  0  0  0  0  0
   61.6240   34.8746   49.0016 H   0  0  0  0  0  0  0  0  0  0  0  0
   58.5344   31.1480   46.5822 H   0  0  0  0  0  0  0  0  0  0  0  0
   56.9295   28.1451   46.3726 H   0  0  0  0  0  0  0  0  0  0  0  0
   57.9820   27.5433   48.5545 H   0  0  0  0  0  0  0  0  0  0  0  0
  1  2  1  0
  2  3  1  0
  3  4  1  0
  4  5  1  0
  5  6  2  0
  5  7  1  0
  7  8  1  0
  8  9  2  0
  9 10  1  0
 10 11  2  0
 11 12  1  0
 12 13  2  0
 13 14  1  0
  3 15  1  0
 15 16  2  0
 15 17  1  0
 17 18  2  0
 18 19  1  0
 19 20  2  0
 20 21  1  0
 21 22  1  0
 22 23  2  0
 22 24  2  0
 22 25  1  0
 25 26  2  0
 26 27  1  0
 27 28  2  0
 28 29  1  0
 29 30  1  0
 30 31  2  0
 30 32  2  0
 30 33  1  0
 33 34  1  0
 33 35  1  0
 29 36  2  0
 20 37  1  0
 37 38  2  0
 13  8  1  0
 38 17  1  0
 36 25  1  0
  1 39  1  0
  1 40  1  0
  1 41  1  0
  2 42  1  0
  2 43  1  0
  4 44  1  0
  4 45  1  0
  9 46  1  0
 10 47  1  0
 11 48  1  0
 12 49  1  0
 18 50  1  0
 19 51  1  0
 26 52  1  0
 27 53  1  0
 28 54  1  0
 34 55  1  0
 34 56  1  0
 34 57  1  0
 35 58  1  0
 35 59  1  0
 35 60  1  0
 36 61  1  0
 37 62  1  0
 38 63  1  0
M  CHG  2   7  -1  21  -1
M  END
>  <UniqueID>  (54) 
49

>  <SMILES>  (54) 
CCN(CC(=O)[N-]c1ccccc1Cl)C(=O)c1ccc([N-]S(=O)(=O)c2cccc(S(=O)(=O)N(C)C)c2)cc1

>  <Energy>  (54) 
73.3321895818462

>  <Genealogy>  (54) 
CCN(CC(=O)[N-]c1ccccc1Cl)C(=O)c1ccc([N-]S(=O)(=O)c2cccc(S(=O)(=O)N(C)C)c2)cc1 (protonated)
CCN(CC(=O)[N-]c1ccccc1Cl)C(=O)c1ccc([N-]S(=O)(=O)c2cccc(S(=O)(=O)N(C)C)c2)cc1 (3D coordinates assigned)
CCN(CC(=O)[N-]c1ccccc1Cl)C(=O)c1ccc([N-]S(=O)(=O)c2cccc(S(=O)(=O)N(C)C)c2)cc1 (optimized conformer: 73.3321895818462 kcal/mol)

>  <smiles>  (54) 
CCN(CC(=O)Nc1ccccc1Cl)C(=O)c1ccc(NS(=O)(=O)c2cccc(S(=O)(=O)N(C)C)c2)cc1

>  <score_type>  (54) 
oracle

>  <origin>  (54) 
adg

>  <m_score__min__energy>  (54) 
-13.4

>  <m_primary>  (54) 
energy

$$$$
54:0
     RDKit          3D

 39 41  0  0  0  0  0  0  0  0999 V2000
   57.1230   30.2290   43.1150 O   0  0  0  0  0  0  0  0  0  0  0  0
   56.9660   30.3020   44.3610 C   0  0  0  0  0  0  0  0  0  0  0  0
   56.6390   31.5740   44.9400 N   0  0  0  0  0  0  0  0  0  0  0  0
   57.5800   32.5660   45.3730 C   0  0  0  0  0  0  0  0  0  0  0  0
   58.0460   33.5690   44.5050 C   0  0  0  0  0  0  0  0  0  0  0  0
   58.9630   34.5210   44.9600 C   0  0  0  0  0  0  0  0  0  0  0  0
   59.4100   34.4870   46.2830 C   0  0  0  0  0  0  0  0  0  0  0  0
   58.9300   33.5110   47.1640 C   0  0  0  0  0  0  0  0  0  0  0  0
   59.5250   33.4540   48.8210 S   0  0  0  0  0  0  0  0  0  0  0  0
   58.5520   32.7060   49.6900 O   0  0  0  0  0  0  0  0  0  0  0  0
   59.6470   34.8610   49.3400 O   0  0  0  0  0  0  0  0  0  0  0  0
   61.0880   32.6760   48.8650 N   0  0  0  0  0  0  0  0  0  0  0  0
   62.0240   33.3760   47.9630 C   0  0  0  0  0  0  0  0  0  0  0  0
   63.1980   32.4590   47.5840 C   0  0  0  0  0  0  0  0  0  0  0  0
   62.8130   31.2600   46.9210 O   0  0  0  0  0  0  0  0  0  0  0  0
   61.4640   30.8860   47.1510 C   0  0  0  0  0  0  0  0  0  0  0  0
   60.9730   31.2300   48.5690 C   0  0  0  0  0  0  0  0  0  0  0  0
   58.0120   32.5550   46.7060 C   0  0  0  0  0  0  0  0  0  0  0  0
   57.0810   29.0730   45.1730 C   0  0  0  0  0  0  0  0  0  0  0  0
   58.2360   28.7850   45.9140 C   0  0  0  0  0  0  0  0  0  0  0  0
   58.2740   27.6110   46.6680 C   0  0  0  0  0  0  0  0  0  0  0  0
   59.3000   27.3200   47.3360 O   0  0  0  0  0  0  0  0  0  0  0  0
   57.1980   26.7820   46.6840 N   0  0  0  0  0  0  0  0  0  0  0  0
   56.0780   27.0800   45.9760 C   0  0  0  0  0  0  0  0  0  0  0  0
   55.0890   26.3030   46.0090 O   0  0  0  0  0  0  0  0  0  0  0  0
   56.0240   28.2160   45.2340 N   0  0  0  0  0  0  0  0  0  0  0  0
   57.6882   33.6047   43.4654 H   0  0  0  0  0  0  0  0  0  0  0  0
   59.3332   35.2981   44.2751 H   0  0  0  0  0  0  0  0  0  0  0  0
   60.1417   35.2298   46.6336 H   0  0  0  0  0  0  0  0  0  0  0  0
   61.4897   33.6755   47.0493 H   0  0  0  0  0  0  0  0  0  0  0  0
   62.4192   34.2625   48.4807 H   0  0  0  0  0  0  0  0  0  0  0  0
   63.8723   33.0191   46.9194 H   0  0  0  0  0  0  0  0  0  0  0  0
   63.6799   32.1579   48.5259 H   0  0  0  0  0  0  0  0  0  0  0  0
   60.8269   31.4103   46.4236 H   0  0  0  0  0  0  0  0  0  0  0  0
   61.4042   29.7932   47.0403 H   0  0  0  0  0  0  0  0  0  0  0  0
   59.9180   30.9325   48.6605 H   0  0  0  0  0  0  0  0  0  0  0  0
   61.6057   30.6870   49.2865 H   0  0  0  0  0  0  0  0  0  0  0  0
   57.6283   31.7910   47.3981 H   0  0  0  0  0  0  0  0  0  0  0  0
   59.0957   29.4711   45.9013 H   0  0  0  0  0  0  0  0  0  0  0  0
  1  2  2  0
  2  3  1  0
  3  4  1  0
  4  5  2  0
  5  6  1  0
  6  7  2  0
  7  8  1  0
  8  9  1  0
  9 10  2  0
  9 11  2  0
  9 12  1  0
 12 13  1  0
 13 14  1  0
 14 15  1  0
 15 16  1  0
 16 17  1  0
  8 18  2  0
  2 19  1  0
 19 20  2  0
 20 21  1  0
 21 22  2  0
 21 23  1  0
 23 24  1  0
 24 25  2  0
 24 26  1  0
 18  4  1  0
 26 19  1  0
 17 12  1  0
  5 27  1  0
  6 28  1  0
  7 29  1  0
 13 30  1  0
 13 31  1  0
 14 32  1  0
 14 33  1  0
 16 34  1  0
 16 35  1  0
 17 36  1  0
 17 37  1  0
 18 38  1  0
 20 39  1  0
M  CHG  3   3  -1  23  -1  26  -1
M  END
>  <UniqueID>  (55) 
50

>  <SMILES>  (55) 
O=C([N-]c1cccc(S(=O)(=O)N2CCOCC2)c1)c1cc(=O)[n-]c(=O)[n-]1

>  <Energy>  (55) 
60.065088101371785

>  <Genealogy>  (55) 
O=C([N-]c1cccc(S(=O)(=O)N2CCOCC2)c1)c1cc(=O)[n-]c(=O)[n-]1 (protonated)
O=C([N-]c1cccc(S(=O)(=O)N2CCOCC2)c1)c1cc(=O)[n-]c(=O)[n-]1 (3D coordinates assigned)
O=C([N-]c1cccc(S(=O)(=O)N2CCOCC2)c1)c1cc(=O)[n-]c(=O)[n-]1 (nonaromatic ring conformer: 60.065088101371785 kcal/mol)

>  <smiles>  (55) 
O=C(Nc1cccc(S(=O)(=O)N2CCOCC2)c1)c1cc(=O)[nH]c(=O)[nH]1

>  <score_type>  (55) 
oracle

>  <origin>  (55) 
adg

>  <m_score__min__energy>  (55) 
-14.039999999999999

>  <m_primary>  (55) 
energy

$$$$
55:0
     RDKit          3D

 45 47  0  0  0  0  0  0  0  0999 V2000
   56.1330   21.6550   48.3830 C   0  0  0  0  0  0  0  0  0  0  0  0
   57.1120   22.1170   47.4590 O   0  0  0  0  0  0  0  0  0  0  0  0
   57.1670   23.4240   46.9500 C   0  0  0  0  0  0  0  0  0  0  0  0
   57.3630   24.5470   47.7750 C   0  0  0  0  0  0  0  0  0  0  0  0
   57.4110   25.8290   47.2210 C   0  0  0  0  0  0  0  0  0  0  0  0
   57.2650   26.0170   45.8330 C   0  0  0  0  0  0  0  0  0  0  0  0
   57.3160   27.3780   45.2450 C   0  0  0  0  0  0  0  0  0  0  0  0
   56.2100   28.1710   45.2460 N   0  0  0  0  0  0  0  0  0  0  0  0
   56.2310   29.4200   44.7140 C   0  0  0  0  0  0  0  0  0  0  0  0
   55.1820   30.1200   44.7430 O   0  0  0  0  0  0  0  0  0  0  0  0
   57.4120   29.9170   44.1390 C   0  0  0  0  0  0  0  0  0  0  0  0
   57.4990   31.3110   43.5710 C   0  0  0  0  0  0  0  0  0  0  0  0
   57.9510   32.2800   44.6300 C   0  0  0  0  0  0  0  0  0  0  0  0
   58.4110   33.5550   44.2690 C   0  0  0  0  0  0  0  0  0  0  0  0
   58.8650   34.4440   45.2450 C   0  0  0  0  0  0  0  0  0  0  0  0
   58.8750   34.0680   46.6020 C   0  0  0  0  0  0  0  0  0  0  0  0
   59.3250   34.9350   47.6110 O   0  0  0  0  0  0  0  0  0  0  0  0
   60.2850   34.5870   48.6030 C   0  0  0  0  0  0  0  0  0  0  0  0
   58.4270   32.7900   46.9710 C   0  0  0  0  0  0  0  0  0  0  0  0
   58.4540   32.4420   48.3310 O   0  0  0  0  0  0  0  0  0  0  0  0
   58.9350   31.2010   48.8360 C   0  0  0  0  0  0  0  0  0  0  0  0
   57.9680   31.9000   45.9800 C   0  0  0  0  0  0  0  0  0  0  0  0
   58.5430   29.0910   44.1580 C   0  0  0  0  0  0  0  0  0  0  0  0
   58.4710   27.8490   44.7020 N   0  0  0  0  0  0  0  0  0  0  0  0
   57.0700   24.8890   45.0150 C   0  0  0  0  0  0  0  0  0  0  0  0
   57.0230   23.6070   45.5720 C   0  0  0  0  0  0  0  0  0  0  0  0
   56.4897   21.8233   49.4099 H   0  0  0  0  0  0  0  0  0  0  0  0
   55.1930   22.2045   48.2266 H   0  0  0  0  0  0  0  0  0  0  0  0
   55.9596   20.5801   48.2266 H   0  0  0  0  0  0  0  0  0  0  0  0
   57.4789   24.4151   48.8609 H   0  0  0  0  0  0  0  0  0  0  0  0
   57.5643   26.6998   47.8754 H   0  0  0  0  0  0  0  0  0  0  0  0
   58.2196   31.3198   42.7399 H   0  0  0  0  0  0  0  0  0  0  0  0
   56.5044   31.6131   43.2110 H   0  0  0  0  0  0  0  0  0  0  0  0
   58.4140   33.8561   43.2110 H   0  0  0  0  0  0  0  0  0  0  0  0
   59.2170   35.4442   44.9522 H   0  0  0  0  0  0  0  0  0  0  0  0
   59.8529   34.7437   49.6024 H   0  0  0  0  0  0  0  0  0  0  0  0
   60.5659   33.5299   48.4866 H   0  0  0  0  0  0  0  0  0  0  0  0
   61.1780   35.2186   48.4866 H   0  0  0  0  0  0  0  0  0  0  0  0
   58.9259   31.2244   49.9357 H   0  0  0  0  0  0  0  0  0  0  0  0
   58.2879   30.3852   48.4813 H   0  0  0  0  0  0  0  0  0  0  0  0
   59.9628   31.0344   48.4813 H   0  0  0  0  0  0  0  0  0  0  0  0
   57.6195   30.8972   46.2679 H   0  0  0  0  0  0  0  0  0  0  0  0
   59.4915   29.4492   43.7313 H   0  0  0  0  0  0  0  0  0  0  0  0
   56.9536   25.0164   43.9286 H   0  0  0  0  0  0  0  0  0  0  0  0
   56.8713   22.7346   44.9194 H   0  0  0  0  0  0  0  0  0  0  0  0
  1  2  1  0
  2  3  1  0
  3  4  2  0
  4  5  1  0
  5  6  2  0
  6  7  1  0
  7  8  2  0
  8  9  1  0
  9 10  2  0
  9 11  1  0
 11 12  1  0
 12 13  1  0
 13 14  2  0
 14 15  1  0
 15 16  2  0
 16 17  1  0
 17 18  1  0
 16 19  1  0
 19 20  1  0
 20 21  1  0
 19 22  2  0
 11 23  2  0
 23 24  1  0
  6 25  1  0
 25 26  2  0
 26  3  1  0
 24  7  1  0
 22 13  1  0
  1 27  1  0
  1 28  1  0
  1 29  1  0
  4 30  1  0
  5 31  1  0
 12 32  1  0
 12 33  1  0
 14 34  1  0
 15 35  1  0
 18 36  1  0
 18 37  1  0
 18 38  1  0
 21 39  1  0
 21 40  1  0
 21 41  1  0
 22 42  1  0
 23 43  1  0
 25 44  1  0
 26 45  1  0
M  CHG  1  24  -1
M  END
>  <UniqueID>  (56) 
51

>  <SMILES>  (56) 
COc1ccc(-c2nc(=O)c(Cc3ccc(OC)c(OC)c3)c[n-]2)cc1

>  <Energy>  (56) 
47.75753974295992

>  <Genealogy>  (56) 
COc1ccc(-c2nc(=O)c(Cc3ccc(OC)c(OC)c3)c[n-]2)cc1 (protonated)
COc1ccc(-c2nc(=O)c(Cc3ccc(OC)c(OC)c3)c[n-]2)cc1 (3D coordinates assigned)
COc1ccc(-c2nc(=O)c(Cc3ccc(OC)c(OC)c3)c[n-]2)cc1 (optimized conformer: 47.75753974295992 kcal/mol)

>  <smiles>  (56) 
COc1ccc(-c2nc(=O)c(Cc3ccc(OC)c(OC)c3)c[nH]2)cc1

>  <score_type>  (56) 
oracle

>  <origin>  (56) 
adg

>  <m_score__min__energy>  (56) 
-8.9000000000000004

>  <m_primary>  (56) 
energy

$$$$
56:0
     RDKit          3D

 69 72  0  0  0  0  0  0  0  0999 V2000
   55.7480   29.7620   45.2020 O   0  0  0  0  0  0  0  0  0  0  0  0
   56.3360   30.6100   44.4850 C   0  0  0  0  0  0  0  0  0  0  0  0
   57.2050   30.1450   43.3330 C   0  0  0  0  0  0  0  0  0  0  0  0
   57.3750   28.6170   43.2870 C   0  0  0  0  0  0  0  0  0  0  0  0
   58.2810   28.1190   44.3780 C   0  0  0  0  0  0  0  0  0  0  0  0
   59.4160   27.6500   44.0800 O   0  0  0  0  0  0  0  0  0  0  0  0
   57.8850   28.2140   45.7490 N   0  0  0  0  0  0  0  0  0  0  0  0
   58.8270   28.1210   46.8320 C   0  0  0  0  0  0  0  0  0  0  0  0
   59.4740   29.2780   47.3050 C   0  0  0  0  0  0  0  0  0  0  0  0
   60.3560   29.2100   48.3830 C   0  0  0  0  0  0  0  0  0  0  0  0
   60.6060   27.9850   49.0030 C   0  0  0  0  0  0  0  0  0  0  0  0
   59.9720   26.8280   48.5470 C   0  0  0  0  0  0  0  0  0  0  0  0
   59.0790   26.8840   47.4650 C   0  0  0  0  0  0  0  0  0  0  0  0
   58.4960   25.6710   46.9640 N   0  0  0  0  0  0  0  0  0  0  0  0
   57.2260   25.2120   47.5500 C   0  0  0  0  0  0  0  0  0  0  0  0
   56.7640   23.8410   47.0150 C   0  0  0  0  0  0  0  0  0  0  0  0
   57.8520   23.0250   46.6350 O   0  0  0  0  0  0  0  0  0  0  0  0
   58.5250   23.6370   45.5610 C   0  0  0  0  0  0  0  0  0  0  0  0
   59.3090   24.8400   46.0650 C   0  0  0  0  0  0  0  0  0  0  0  0
   56.3110   31.9790   44.9070 N   0  0  0  0  0  0  0  0  0  0  0  0
   57.4320   32.7630   45.3260 C   0  0  0  0  0  0  0  0  0  0  0  0
   58.0390   33.6870   44.4620 C   0  0  0  0  0  0  0  0  0  0  0  0
   59.1250   34.4470   44.9040 C   0  0  0  0  0  0  0  0  0  0  0  0
   59.5960   34.3050   46.2110 C   0  0  0  0  0  0  0  0  0  0  0  0
   58.9770   33.4030   47.0880 C   0  0  0  0  0  0  0  0  0  0  0  0
   59.5610   33.2100   48.7410 S   0  0  0  0  0  0  0  0  0  0  0  0
   59.2640   34.4740   49.4970 O   0  0  0  0  0  0  0  0  0  0  0  0
   58.8310   32.0750   49.4020 O   0  0  0  0  0  0  0  0  0  0  0  0
   61.2850   32.9060   48.7370 N   0  0  0  0  0  0  0  0  0  0  0  0
   61.6720   32.1680   47.5200 C   0  0  0  0  0  0  0  0  0  0  0  0
   63.1420   32.3830   47.1070 C   0  0  0  0  0  0  0  0  0  0  0  0
   63.9980   33.2440   48.0720 C   0  0  0  0  0  0  0  0  0  0  0  0
   64.2920   32.6040   49.4390 C   0  0  0  0  0  0  0  0  0  0  0  0
   63.1620   32.7720   50.4800 C   0  0  0  0  0  0  0  0  0  0  0  0
   61.7460   32.3430   50.0280 C   0  0  0  0  0  0  0  0  0  0  0  0
   57.8800   32.6510   46.6470 C   0  0  0  0  0  0  0  0  0  0  0  0
   56.7436   30.4749   42.3905 H   0  0  0  0  0  0  0  0  0  0  0  0
   58.2038   30.5830   43.4766 H   0  0  0  0  0  0  0  0  0  0  0  0
   56.3877   28.1460   43.4025 H   0  0  0  0  0  0  0  0  0  0  0  0
   57.8301   28.3543   42.3206 H   0  0  0  0  0  0  0  0  0  0  0  0
   56.8640   28.2520   45.9690 H   0  0  0  0  0  0  0  0  0  0  0  0
   59.2819   30.2461   46.8192 H   0  0  0  0  0  0  0  0  0  0  0  0
   60.8545   30.1215   48.7445 H   0  0  0  0  0  0  0  0  0  0  0  0
   61.3034   27.9311   49.8519 H   0  0  0  0  0  0  0  0  0  0  0  0
   60.1736   25.8651   49.0391 H   0  0  0  0  0  0  0  0  0  0  0  0
   57.3523   25.1362   48.6401 H   0  0  0  0  0  0  0  0  0  0  0  0
   56.4557   25.9458   47.2704 H   0  0  0  0  0  0  0  0  0  0  0  0
   56.1932   23.3270   47.8024 H   0  0  0  0  0  0  0  0  0  0  0  0
   56.1446   24.0167   46.1231 H   0  0  0  0  0  0  0  0  0  0  0  0
   59.2175   22.9146   45.1042 H   0  0  0  0  0  0  0  0  0  0  0  0
   57.7903   23.9688   44.8126 H   0  0  0  0  0  0  0  0  0  0  0  0
   60.1967   24.4861   46.6097 H   0  0  0  0  0  0  0  0  0  0  0  0
   59.6011   25.4510   45.1982 H   0  0  0  0  0  0  0  0  0  0  0  0
   57.6601   33.8130   43.4371 H   0  0  0  0  0  0  0  0  0  0  0  0
   59.6104   35.1592   44.2205 H   0  0  0  0  0  0  0  0  0  0  0  0
   60.4543   34.9019   46.5531 H   0  0  0  0  0  0  0  0  0  0  0  0
   61.5152   31.0942   47.7002 H   0  0  0  0  0  0  0  0  0  0  0  0
   61.0478   32.5509   46.6992 H   0  0  0  0  0  0  0  0  0  0  0  0
   63.6173   31.3943   47.0259 H   0  0  0  0  0  0  0  0  0  0  0  0
   63.1064   32.9429   46.1608 H   0  0  0  0  0  0  0  0  0  0  0  0
   64.9598   33.4513   47.5800 H   0  0  0  0  0  0  0  0  0  0  0  0
   63.4056   34.1471   48.2803 H   0  0  0  0  0  0  0  0  0  0  0  0
   64.4611   31.5279   49.2857 H   0  0  0  0  0  0  0  0  0  0  0  0
   65.1724   33.1233   49.8454 H   0  0  0  0  0  0  0  0  0  0  0  0
   63.4280   32.1729   51.3633 H   0  0  0  0  0  0  0  0  0  0  0  0
   63.0950   33.8536   50.6690 H   0  0  0  0  0  0  0  0  0  0  0  0
   61.7368   31.2465   49.9409 H   0  0  0  0  0  0  0  0  0  0  0  0
   61.0564   32.7360   50.7896 H   0  0  0  0  0  0  0  0  0  0  0  0
   57.3685   31.9693   47.3425 H   0  0  0  0  0  0  0  0  0  0  0  0
  1  2  2  0
  2  3  1  0
  3  4  1  0
  4  5  1  0
  5  6  2  0
  5  7  1  0
  7  8  1  0
  8  9  2  0
  9 10  1  0
 10 11  2  0
 11 12  1  0
 12 13  2  0
 13 14  1  0
 14 15  1  0
 15 16  1  0
 16 17  1  0
 17 18  1  0
 18 19  1  0
  2 20  1  0
 20 21  1  0
 21 22  2  0
 22 23  1  0
 23 24  2  0
 24 25  1  0
 25 26  1  0
 26 27  2  0
 26 28  2  0
 26 29  1  0
 29 30  1  0
 30 31  1  0
 31 32  1  0
 32 33  1  0
 33 34  1  0
 34 35  1  0
 25 36  2  0
 13  8  1  0
 19 14  1  0
 36 21  1  0
 35 29  1  0
  3 37  1  0
  3 38  1  0
  4 39  1  0
  4 40  1  0
  7 41  1  0
  9 42  1  0
 10 43  1  0
 11 44  1  0
 12 45  1  0
 15 46  1  0
 15 47  1  0
 16 48  1  0
 16 49  1  0
 18 50  1  0
 18 51  1  0
 19 52  1  0
 19 53  1  0
 22 54  1  0
 23 55  1  0
 24 56  1  0
 30 57  1  0
 30 58  1  0
 31 59  1  0
 31 60  1  0
 32 61  1  0
 32 62  1  0
 33 63  1  0
 33 64  1  0
 34 65  1  0
 34 66  1  0
 35 67  1  0
 35 68  1  0
 36 69  1  0
M  CHG  1  20  -1
M  END
>  <UniqueID>  (57) 
52

>  <SMILES>  (57) 
O=C(CCC(=O)Nc1ccccc1N1CCOCC1)[N-]c1cccc(S(=O)(=O)N2CCCCCC2)c1

>  <Energy>  (57) 
100.9618341184275

>  <Genealogy>  (57) 
O=C(CCC(=O)Nc1ccccc1N1CCOCC1)[N-]c1cccc(S(=O)(=O)N2CCCCCC2)c1 (protonated)
O=C(CCC(=O)Nc1ccccc1N1CCOCC1)[N-]c1cccc(S(=O)(=O)N2CCCCCC2)c1 (3D coordinates assigned)
O=C(CCC(=O)Nc1ccccc1N1CCOCC1)[N-]c1cccc(S(=O)(=O)N2CCCCCC2)c1 (nonaromatic ring conformer: 100.9618341184275 kcal/mol)

>  <smiles>  (57) 
O=C(CCC(=O)Nc1ccccc1N1CCOCC1)Nc1cccc(S(=O)(=O)N2CCCCCC2)c1

>  <score_type>  (57) 
oracle

>  <origin>  (57) 
adg

>  <m_score__min__energy>  (57) 
-9.4900000000000002

>  <m_primary>  (57) 
energy

$$$$
57:0
     RDKit          3D

 56 60  0  0  1  0  0  0  0  0999 V2000
   61.5360   29.3090   51.9170 C   0  0  0  0  0  0  0  0  0  0  0  0
   60.9250   30.1850   50.9880 O   0  0  0  0  0  0  0  0  0  0  0  0
   60.3820   29.6780   49.8150 C   0  0  0  0  0  0  0  0  0  0  0  0
   61.0020   28.7130   49.0480 C   0  0  0  0  0  0  0  0  0  0  0  0
   60.4480   28.2150   47.8780 C   0  0  0  0  0  0  0  0  0  0  0  0
   59.2080   28.6980   47.4430 C   0  0  0  0  0  0  0  0  0  0  0  0
   58.6040   28.1740   46.1960 C   0  0  1  0  0  0  0  0  0  0  0  0
   57.8170   26.9510   46.3790 C   0  0  0  0  0  0  0  0  0  0  0  0
   58.4010   25.8900   47.0370 C   0  0  0  0  0  0  0  0  0  0  0  0
   57.7100   24.6920   47.2480 C   0  0  0  0  0  0  0  0  0  0  0  0
   56.4170   24.5720   46.7860 C   0  0  0  0  0  0  0  0  0  0  0  0
   55.7360   23.3630   47.0050 O   0  0  0  0  0  0  0  0  0  0  0  0
   55.8030   25.6160   46.1230 C   0  0  0  0  0  0  0  0  0  0  0  0
   56.5210   26.7770   45.9380 C   0  0  0  0  0  0  0  0  0  0  0  0
   55.9060   27.8290   45.2710 O   0  0  0  0  0  0  0  0  0  0  0  0
   56.5660   29.0200   45.0510 C   0  0  0  0  0  0  0  0  0  0  0  0
   55.9510   30.0140   44.4080 N   0  0  0  0  0  0  0  0  0  0  0  0
   56.5650   31.1870   44.1780 C   0  0  0  0  0  0  0  0  0  0  0  0
   57.8430   31.4280   44.5840 N   0  0  0  0  0  0  0  0  0  0  0  0
   58.4040   32.7100   44.2710 C   0  0  0  0  0  0  0  0  0  0  0  0
   58.7950   33.4360   45.4800 C   0  0  0  0  0  0  0  0  0  0  0  0
   59.5820   34.5780   45.3110 C   0  0  0  0  0  0  0  0  0  0  0  0
   60.0050   35.3400   46.3810 C   0  0  0  0  0  0  0  0  0  0  0  0
   59.6500   34.9810   47.6640 C   0  0  0  0  0  0  0  0  0  0  0  0
   58.8720   33.8570   47.8590 C   0  0  0  0  0  0  0  0  0  0  0  0
   58.4640   33.1120   46.7660 C   0  0  0  0  0  0  0  0  0  0  0  0
   58.4820   30.4430   45.2330 C   0  0  0  0  0  0  0  0  0  0  0  0
   59.6670   30.6000   45.6520 N   0  0  0  0  0  0  0  0  0  0  0  0
   57.8610   29.2320   45.4760 C   0  0  0  0  0  0  0  0  0  0  0  0
   58.5710   29.6760   48.2140 C   0  0  0  0  0  0  0  0  0  0  0  0
   59.1550   30.1470   49.3740 C   0  0  0  0  0  0  0  0  0  0  0  0
   58.5080   31.1130   50.1190 O   0  0  0  0  0  0  0  0  0  0  0  0
   57.9080   30.7680   51.3540 C   0  0  0  0  0  0  0  0  0  0  0  0
   61.3049   29.6403   52.9401 H   0  0  0  0  0  0  0  0  0  0  0  0
   61.1523   28.2892   51.7664 H   0  0  0  0  0  0  0  0  0  0  0  0
   62.6256   29.3168   51.7664 H   0  0  0  0  0  0  0  0  0  0  0  0
   61.9759   28.3225   49.3781 H   0  0  0  0  0  0  0  0  0  0  0  0
   60.9787   27.4467   47.2965 H   0  0  0  0  0  0  0  0  0  0  0  0
   59.4437   27.8623   45.5574 H   0  0  0  0  0  0  0  0  0  0  0  0
   59.4333   25.9874   47.4044 H   0  0  0  0  0  0  0  0  0  0  0  0
   58.1925   23.8563   47.7760 H   0  0  0  0  0  0  0  0  0  0  0  0
   54.8390   23.1860   46.5800 H   0  0  0  0  0  0  0  0  0  0  0  0
   54.7711   25.5234   45.7535 H   0  0  0  0  0  0  0  0  0  0  0  0
   56.0180   31.9783   43.6446 H   0  0  0  0  0  0  0  0  0  0  0  0
   59.2920   32.5663   43.6379 H   0  0  0  0  0  0  0  0  0  0  0  0
   57.6394   33.3016   43.7463 H   0  0  0  0  0  0  0  0  0  0  0  0
   59.8734   34.8789   44.2939 H   0  0  0  0  0  0  0  0  0  0  0  0
   60.6246   36.2327   46.2105 H   0  0  0  0  0  0  0  0  0  0  0  0
   59.9827   35.5831   48.5224 H   0  0  0  0  0  0  0  0  0  0  0  0
   58.5786   33.5558   48.8755 H   0  0  0  0  0  0  0  0  0  0  0  0
   57.8456   32.2191   46.9402 H   0  0  0  0  0  0  0  0  0  0  0  0
   60.5500   30.2480   45.2570 H   0  0  0  0  0  0  0  0  0  0  0  0
   57.5966   30.0735   47.8939 H   0  0  0  0  0  0  0  0  0  0  0  0
   58.5369   31.1296   52.1809 H   0  0  0  0  0  0  0  0  0  0  0  0
   56.9128   31.2318   51.4204 H   0  0  0  0  0  0  0  0  0  0  0  0
   57.8082   29.6746   51.4204 H   0  0  0  0  0  0  0  0  0  0  0  0
  1  2  1  0
  2  3  1  0
  3  4  2  0
  4  5  1  0
  5  6  2  0
  6  7  1  0
  7  8  1  0
  8  9  2  0
  9 10  1  0
 10 11  2  0
 11 12  1  0
 11 13  1  0
 13 14  2  0
 14 15  1  0
 15 16  1  0
 16 17  1  0
 17 18  2  0
 18 19  1  0
 19 20  1  0
 20 21  1  0
 21 22  2  0
 22 23  1  0
 23 24  2  0
 24 25  1  0
 25 26  2  0
 19 27  1  0
 27 28  2  3
 27 29  1  0
  6 30  1  0
 30 31  2  0
 31 32  1  0
 32 33  1  0
 31  3  1  0
 29  7  1  0
 14  8  1  0
 29 16  2  0
 26 21  1  0
  1 34  1  0
  1 35  1  0
  1 36  1  0
  4 37  1  0
  5 38  1  0
  7 39  1  6
  9 40  1  0
 10 41  1  0
 12 42  1  0
 13 43  1  0
 18 44  1  0
 20 45  1  0
 20 46  1  0
 22 47  1  0
 23 48  1  0
 24 49  1  0
 25 50  1  0
 26 51  1  0
 28 52  1  0
 30 53  1  0
 33 54  1  0
 33 55  1  0
 33 56  1  0
M  END
>  <smiles>  (58) 
COc1ccc(C2c3ccc(O)cc3Oc3ncn(Cc4ccccc4)c(=N)c32)cc1OC

>  <score_type>  (58) 
oracle

>  <origin>  (58) 
adg

>  <m_score__min__energy>  (58) 
-7.5800000000000001

>  <m_primary>  (58) 
energy

$$$$
58:0
     RDKit          3D

 45 47  0  0  1  0  0  0  0  0999 V2000
   64.4640   33.0670   50.2400 C   0  0  0  0  0  0  0  0  0  0  0  0
   63.3130   33.8540   49.9850 O   0  0  0  0  0  0  0  0  0  0  0  0
   62.7880   33.8420   48.7070 C   0  0  0  0  0  0  0  0  0  0  0  0
   61.4010   33.8460   48.6080 C   0  0  0  0  0  0  0  0  0  0  0  0
   60.8810   33.8340   47.3290 C   0  0  0  0  0  0  0  0  0  0  0  0
   59.6240   33.8350   47.1940 N   0  0  0  0  0  0  0  0  0  0  0  0
   58.7380   33.6130   45.7430 S   0  0  0  0  0  0  0  0  0  0  0  0
   59.3410   34.3830   44.5820 O   0  0  0  0  0  0  0  0  0  0  0  0
   57.3920   34.3070   45.9880 O   0  0  0  0  0  0  0  0  0  0  0  0
   58.4440   31.9630   45.3290 C   0  0  0  0  0  0  0  0  0  0  0  0
   59.1530   30.8840   45.8030 C   0  0  0  0  0  0  0  0  0  0  0  0
   58.8440   29.5860   45.4210 C   0  0  0  0  0  0  0  0  0  0  0  0
   57.8310   29.2840   44.5640 C   0  0  0  0  0  0  0  0  0  0  0  0
   57.4440   28.0090   44.1210 N   0  0  0  0  0  0  0  0  0  0  0  0
   57.6300   26.7810   44.7950 C   0  0  0  0  0  0  0  0  0  0  0  0
   58.1940   26.7620   45.8990 O   0  0  0  0  0  0  0  0  0  0  0  0
   57.1870   25.5710   44.2320 N   0  0  0  0  0  0  0  0  0  0  0  0
   57.3000   24.2800   44.7690 C   0  0  0  0  0  0  0  0  0  0  0  0
   57.7720   23.1650   44.1220 C   0  0  0  0  0  0  0  0  0  0  0  0
   57.8480   21.9140   44.7370 C   0  0  0  0  0  0  0  0  0  0  0  0
   57.4490   21.7350   46.0310 C   0  0  0  0  0  0  0  0  0  0  0  0
   57.5570   20.1590   46.7640 Cl  0  0  0  0  0  0  0  0  0  0  0  0
   56.9700   22.8430   46.7020 C   0  0  0  0  0  0  0  0  0  0  0  0
   56.8960   24.0750   46.0960 C   0  0  0  0  0  0  0  0  0  0  0  0
   57.1010   30.3830   44.0760 C   0  0  0  0  0  0  0  0  0  0  0  0
   57.4040   31.6750   44.4510 C   0  0  0  0  0  0  0  0  0  0  0  0
   61.6430   33.8170   46.2250 N   0  0  0  0  0  0  0  0  0  0  0  0
   62.9770   33.8140   46.3730 C   0  0  0  0  0  0  0  0  0  0  0  0
   63.5620   33.8250   47.5900 N   0  0  0  0  0  0  0  0  0  0  0  0
   64.6077   32.9687   51.3261 H   0  0  0  0  0  0  0  0  0  0  0  0
   64.3318   32.0694   49.7959 H   0  0  0  0  0  0  0  0  0  0  0  0
   65.3457   33.5522   49.7959 H   0  0  0  0  0  0  0  0  0  0  0  0
   60.7548   33.8580   49.4981 H   0  0  0  0  0  0  0  0  0  0  0  0
   59.9853   31.0539   46.5019 H   0  0  0  0  0  0  0  0  0  0  0  0
   59.4467   28.7620   45.8305 H   0  0  0  0  0  0  0  0  0  0  0  0
   56.9570   27.9460   43.1820 H   0  0  0  0  0  0  0  0  0  0  0  0
   56.7080   25.6490   43.2850 H   0  0  0  0  0  0  0  0  0  0  0  0
   58.1035   23.2611   43.0775 H   0  0  0  0  0  0  0  0  0  0  0  0
   58.2366   21.0561   44.1687 H   0  0  0  0  0  0  0  0  0  0  0  0
   56.6399   22.7374   47.7460 H   0  0  0  0  0  0  0  0  0  0  0  0
   56.5070   24.9281   46.6713 H   0  0  0  0  0  0  0  0  0  0  0  0
   56.2686   30.2076   43.3786 H   0  0  0  0  0  0  0  0  0  0  0  0
   56.8052   32.5029   44.0436 H   0  0  0  0  0  0  0  0  0  0  0  0
   61.1890   33.8100   45.2990 H   0  0  0  0  0  0  0  0  0  0  0  0
   63.6131   33.8022   45.4756 H   0  0  0  0  0  0  0  0  0  0  0  0
  1  2  1  0
  2  3  1  0
  3  4  2  0
  4  5  1  0
  5  6  2  0
  6  7  1  0
  7  8  2  0
  7  9  2  0
  7 10  1  0
 10 11  2  0
 11 12  1  0
 12 13  2  0
 13 14  1  0
 14 15  1  0
 15 16  2  0
 15 17  1  0
 17 18  1  0
 18 19  2  0
 19 20  1  0
 20 21  2  0
 21 22  1  0
 21 23  1  0
 23 24  2  0
 13 25  1  0
 25 26  2  0
  5 27  1  0
 27 28  1  0
 28 29  2  0
 29  3  1  0
 26 10  1  0
 24 18  1  0
  1 30  1  0
  1 31  1  0
  1 32  1  0
  4 33  1  0
 11 34  1  0
 12 35  1  0
 14 36  1  0
 17 37  1  0
 19 38  1  0
 20 39  1  0
 23 40  1  0
 24 41  1  0
 25 42  1  0
 26 43  1  0
 27 44  1  0
 28 45  1  0
M  END
>  <smiles>  (59) 
COc1cc(=NS(=O)(=O)c2ccc(NC(=O)Nc3ccc(Cl)cc3)cc2)[nH]cn1

>  <score_type>  (59) 
oracle

>  <origin>  (59) 
adg

>  <m_score__min__energy>  (59) 
-7.9699999999999998

>  <m_primary>  (59) 
energy

$$$$
59:0
     RDKit          3D

 41 43  0  0  0  0  0  0  0  0999 V2000
   55.9000   29.8230   44.0670 C   0  0  0  0  0  0  0  0  0  0  0  0
   56.1180   29.4690   45.4290 O   0  0  0  0  0  0  0  0  0  0  0  0
   56.9190   28.4130   45.9060 C   0  0  0  0  0  0  0  0  0  0  0  0
   56.4460   27.0770   46.0090 C   0  0  0  0  0  0  0  0  0  0  0  0
   55.1550   26.7260   45.6350 O   0  0  0  0  0  0  0  0  0  0  0  0
   57.2820   26.0720   46.4970 C   0  0  0  0  0  0  0  0  0  0  0  0
   58.5830   26.3640   46.8880 C   0  0  0  0  0  0  0  0  0  0  0  0
   59.0660   27.6660   46.7930 C   0  0  0  0  0  0  0  0  0  0  0  0
   58.2520   28.7050   46.3030 C   0  0  0  0  0  0  0  0  0  0  0  0
   58.8080   30.0840   46.2110 C   0  0  0  0  0  0  0  0  0  0  0  0
   58.2560   31.0780   45.4770 N   0  0  0  0  0  0  0  0  0  0  0  0
   58.9560   32.2440   45.5470 C   0  0  0  0  0  0  0  0  0  0  0  0
   58.5220   33.4410   44.7590 C   0  0  0  0  0  0  0  0  0  0  0  0
   60.0860   32.1960   46.3720 C   0  0  0  0  0  0  0  0  0  0  0  0
   61.0620   33.2650   46.6510 C   0  0  0  0  0  0  0  0  0  0  0  0
   60.6560   34.4540   46.7480 O   0  0  0  0  0  0  0  0  0  0  0  0
   62.4630   32.9770   46.7720 N   0  0  0  0  0  0  0  0  0  0  0  0
   63.4030   33.9190   47.3710 C   0  0  0  0  0  0  0  0  0  0  0  0
   63.5340   33.6480   48.8440 C   0  0  0  0  0  0  0  0  0  0  0  0
   64.5490   32.8020   49.3160 C   0  0  0  0  0  0  0  0  0  0  0  0
   64.6380   32.5320   50.6830 C   0  0  0  0  0  0  0  0  0  0  0  0
   63.7420   33.0810   51.5470 N   0  0  0  0  0  0  0  0  0  0  0  0
   62.7440   33.8970   51.1160 C   0  0  0  0  0  0  0  0  0  0  0  0
   62.6200   34.1940   49.7570 C   0  0  0  0  0  0  0  0  0  0  0  0
   60.2060   30.6320   46.9780 S   0  0  0  0  0  0  0  0  0  0  0  0
   55.3237   30.7588   44.0191 H   0  0  0  0  0  0  0  0  0  0  0  0
   56.8687   29.9628   43.5649 H   0  0  0  0  0  0  0  0  0  0  0  0
   55.3392   29.0209   43.5649 H   0  0  0  0  0  0  0  0  0  0  0  0
   56.9081   25.0403   46.5728 H   0  0  0  0  0  0  0  0  0  0  0  0
   59.2327   25.5644   47.2735 H   0  0  0  0  0  0  0  0  0  0  0  0
   60.0976   27.8861   47.1050 H   0  0  0  0  0  0  0  0  0  0  0  0
   58.2297   34.2472   45.4479 H   0  0  0  0  0  0  0  0  0  0  0  0
   59.3531   33.7837   44.1251 H   0  0  0  0  0  0  0  0  0  0  0  0
   57.6644   33.1714   44.1251 H   0  0  0  0  0  0  0  0  0  0  0  0
   62.8380   32.0810   46.3890 H   0  0  0  0  0  0  0  0  0  0  0  0
   64.3865   33.8071   46.8911 H   0  0  0  0  0  0  0  0  0  0  0  0
   63.0306   34.9436   47.2240 H   0  0  0  0  0  0  0  0  0  0  0  0
   65.2689   32.3550   48.6146 H   0  0  0  0  0  0  0  0  0  0  0  0
   65.4340   31.8742   51.0620 H   0  0  0  0  0  0  0  0  0  0  0  0
   62.0330   34.3240   51.8386 H   0  0  0  0  0  0  0  0  0  0  0  0
   61.8113   34.8514   49.4052 H   0  0  0  0  0  0  0  0  0  0  0  0
  1  2  1  0
  2  3  1  0
  3  4  2  0
  4  5  1  0
  4  6  1  0
  6  7  2  0
  7  8  1  0
  8  9  2  0
  9 10  1  0
 10 11  2  0
 11 12  1  0
 12 13  1  0
 12 14  2  0
 14 15  1  0
 15 16  2  0
 15 17  1  0
 17 18  1  0
 18 19  1  0
 19 20  2  0
 20 21  1  0
 21 22  2  0
 22 23  1  0
 23 24  2  0
 14 25  1  0
  9  3  1  0
 25 10  1  0
 24 19  1  0
  1 26  1  0
  1 27  1  0
  1 28  1  0
  6 29  1  0
  7 30  1  0
  8 31  1  0
 13 32  1  0
 13 33  1  0
 13 34  1  0
 17 35  1  0
 18 36  1  0
 18 37  1  0
 20 38  1  0
 21 39  1  0
 23 40  1  0
 24 41  1  0
M  CHG  1   5  -1
M  END
>  <UniqueID>  (60) 
53

>  <SMILES>  (60) 
COc1c([O-])cccc1-c1nc(C)c(C(=O)NCc2ccncc2)s1

>  <Energy>  (60) 
78.28196745969917

>  <Genealogy>  (60) 
COc1c([O-])cccc1-c1nc(C)c(C(=O)NCc2ccncc2)s1 (protonated)
COc1c([O-])cccc1-c1nc(C)c(C(=O)NCc2ccncc2)s1 (3D coordinates assigned)
COc1c([O-])cccc1-c1nc(C)c(C(=O)NCc2ccncc2)s1 (optimized conformer: 78.28196745969917 kcal/mol)

>  <smiles>  (60) 
COc1c(O)cccc1-c1nc(C)c(C(=O)NCc2ccncc2)s1

>  <score_type>  (60) 
oracle

>  <origin>  (60) 
adg

>  <m_score__min__energy>  (60) 
-10.57

>  <m_primary>  (60) 
energy

$$$$
60:0
     RDKit          3D

 23 24  0  0  0  0  0  0  0  0999 V2000
   54.7730   27.4770   46.3710 H   0  0  0  0  0  0  0  0  0  0  0  0
   55.2220   26.7710   45.8000 O   0  0  0  0  0  0  0  0  0  0  0  0
   56.1360   25.8840   46.3580 C   0  0  0  0  0  0  0  0  0  0  0  0
   55.7960   24.7090   46.9130 N   0  0  0  0  0  0  0  0  0  0  0  0
   56.9800   24.2360   47.3550 C   0  0  0  0  0  0  0  0  0  0  0  0
   57.0890   23.1340   47.9540 O   0  0  0  0  0  0  0  0  0  0  0  0
   58.0380   25.0410   47.1170 N   0  0  0  0  0  0  0  0  0  0  0  0
   57.4970   26.0790   46.4560 C   0  0  0  0  0  0  0  0  0  0  0  0
   58.2600   27.2800   46.0660 C   0  0  0  0  0  0  0  0  0  0  0  0
   59.2449   27.4168   46.5364 H   0  0  0  0  0  0  0  0  0  0  0  0
   57.8650   28.2330   45.1830 C   0  0  0  0  0  0  0  0  0  0  0  0
   57.6240   29.5220   45.7080 C   0  0  0  0  0  0  0  0  0  0  0  0
   57.8943   29.7394   46.7519 H   0  0  0  0  0  0  0  0  0  0  0  0
   57.0500   30.5230   44.9270 C   0  0  0  0  0  0  0  0  0  0  0  0
   56.8584   31.5151   45.3618 H   0  0  0  0  0  0  0  0  0  0  0  0
   56.7190   30.2730   43.6020 C   0  0  0  0  0  0  0  0  0  0  0  0
   56.2173   31.0488   43.0050 H   0  0  0  0  0  0  0  0  0  0  0  0
   57.0220   29.0400   43.0280 C   0  0  0  0  0  0  0  0  0  0  0  0
   56.7642   28.8545   41.9749 H   0  0  0  0  0  0  0  0  0  0  0  0
   57.6540   28.0270   43.7770 C   0  0  0  0  0  0  0  0  0  0  0  0
   58.1360   26.9700   43.0990 C   0  0  0  0  0  0  0  0  0  0  0  0
   58.6378   26.1530   43.6382 H   0  0  0  0  0  0  0  0  0  0  0  0
   58.0284   26.9226   42.0053 H   0  0  0  0  0  0  0  0  0  0  0  0
  1  2  1  0
  2  3  1  0
  3  4  1  0
  4  5  1  0
  5  6  2  0
  5  7  1  0
  7  8  1  0
  8  9  1  0
  9 10  1  0
  9 11  2  0
 11 12  1  0
 12 13  1  0
 12 14  2  0
 14 15  1  0
 14 16  1  0
 16 17  1  0
 16 18  2  0
 18 19  1  0
 18 20  1  0
 20 21  2  0
 21 22  1  0
 21 23  1  0
  8  3  2  0
 20 11  1  0
M  CHG  2   4  -1   7  -1
M  END
>  <UniqueID>  (61) 
54

>  <SMILES>  (61) 
C=c1cccc/c1=C/c1[n-]c(=O)[n-]c1O

>  <Energy>  (61) 
73.2168432736411

>  <Genealogy>  (61) 
C=c1ccccc1=Cc1[n-]c(=O)[n-]c1O (protonated)
C=c1cccc/c1=C/c1[n-]c(=O)[n-]c1O (cis-trans isomerization)
C=c1cccc/c1=C/c1[n-]c(=O)[n-]c1O (3D coordinates assigned)
C=c1cccc/c1=C/c1[n-]c(=O)[n-]c1O (optimized conformer: 73.2168432736411 kcal/mol)

>  <smiles>  (61) 
C=c1ccccc1=Cc1[nH]c(=O)[nH]c1O

>  <score_type>  (61) 
oracle

>  <origin>  (61) 
adg

>  <m_score__min__energy>  (61) 
-10.56

>  <m_primary>  (61) 
energy

$$$$
61:0
     RDKit          3D

 55 57  0  0  0  0  0  0  0  0999 V2000
   55.1140   29.2800   44.5240 N   0  0  0  0  0  0  0  0  0  0  0  0
   56.6180   30.1240   44.4120 S   0  0  0  0  0  0  0  0  0  0  0  0
   56.4080   31.5620   44.7970 O   0  0  0  0  0  0  0  0  0  0  0  0
   57.1220   30.0700   42.9980 O   0  0  0  0  0  0  0  0  0  0  0  0
   57.7960   29.3740   45.4830 C   0  0  0  0  0  0  0  0  0  0  0  0
   59.0450   29.9710   45.7060 C   0  0  0  0  0  0  0  0  0  0  0  0
   59.9640   29.3770   46.5760 C   0  0  0  0  0  0  0  0  0  0  0  0
   59.6480   28.1750   47.2270 C   0  0  0  0  0  0  0  0  0  0  0  0
   60.6060   27.5840   48.2230 C   0  0  0  0  0  0  0  0  0  0  0  0
   60.9020   28.5800   49.2480 N   0  0  0  0  0  0  0  0  0  0  0  0
   59.8930   29.2250   50.0360 C   0  0  0  0  0  0  0  0  0  0  0  0
   58.6810   29.1530   49.6930 O   0  0  0  0  0  0  0  0  0  0  0  0
   60.2370   29.9200   51.3240 C   0  0  0  0  0  0  0  0  0  0  0  0
   60.7200   31.2990   51.1100 N   0  0  0  0  0  0  0  0  0  0  0  0
   59.7870   32.4160   51.3530 C   0  0  0  0  0  0  0  0  0  0  0  0
   58.5870   32.3910   50.3880 C   0  0  0  0  0  0  0  0  0  0  0  0
   58.8920   32.9950   49.0390 C   0  0  0  0  0  0  0  0  0  0  0  0
   59.7750   34.0830   48.9250 C   0  0  0  0  0  0  0  0  0  0  0  0
   60.0410   34.6510   47.6770 C   0  0  0  0  0  0  0  0  0  0  0  0
   59.4470   34.1240   46.5270 C   0  0  0  0  0  0  0  0  0  0  0  0
   58.5960   33.0190   46.6240 C   0  0  0  0  0  0  0  0  0  0  0  0
   58.3260   32.4500   47.8720 C   0  0  0  0  0  0  0  0  0  0  0  0
   62.1030   31.5810   50.7650 C   0  0  0  0  0  0  0  0  0  0  0  0
   63.0270   31.2670   51.5620 O   0  0  0  0  0  0  0  0  0  0  0  0
   62.4860   32.2620   49.5120 C   0  0  0  0  0  0  0  0  0  0  0  0
   62.4530   31.5890   48.2830 C   0  0  0  0  0  0  0  0  0  0  0  0
   62.8570   32.2450   47.1180 C   0  0  0  0  0  0  0  0  0  0  0  0
   63.3240   33.5600   47.1980 C   0  0  0  0  0  0  0  0  0  0  0  0
   63.6900   34.1660   46.1580 O   0  0  0  0  0  0  0  0  0  0  0  0
   63.3910   34.1830   48.4040 N   0  0  0  0  0  0  0  0  0  0  0  0
   62.9960   33.5680   49.5510 C   0  0  0  0  0  0  0  0  0  0  0  0
   58.3900   27.5890   47.0180 C   0  0  0  0  0  0  0  0  0  0  0  0
   57.4720   28.1830   46.1470 C   0  0  0  0  0  0  0  0  0  0  0  0
   54.7910   29.3600   45.5140 H   0  0  0  0  0  0  0  0  0  0  0  0
   59.3026   30.9102   45.1945 H   0  0  0  0  0  0  0  0  0  0  0  0
   60.9395   29.8543   46.7510 H   0  0  0  0  0  0  0  0  0  0  0  0
   60.1517   26.6979   48.6904 H   0  0  0  0  0  0  0  0  0  0  0  0
   61.5350   27.2880   47.7138 H   0  0  0  0  0  0  0  0  0  0  0  0
   61.9050   28.7830   49.4390 H   0  0  0  0  0  0  0  0  0  0  0  0
   59.3381   29.9551   51.9571 H   0  0  0  0  0  0  0  0  0  0  0  0
   61.0475   29.3523   51.8044 H   0  0  0  0  0  0  0  0  0  0  0  0
   59.4132   32.3473   52.3852 H   0  0  0  0  0  0  0  0  0  0  0  0
   60.3343   33.3557   51.1876 H   0  0  0  0  0  0  0  0  0  0  0  0
   58.2794   31.3452   50.2406 H   0  0  0  0  0  0  0  0  0  0  0  0
   57.7904   32.9976   50.8435 H   0  0  0  0  0  0  0  0  0  0  0  0
   60.2597   34.4897   49.8248 H   0  0  0  0  0  0  0  0  0  0  0  0
   60.7187   35.5140   47.5992 H   0  0  0  0  0  0  0  0  0  0  0  0
   59.6489   34.5784   45.5458 H   0  0  0  0  0  0  0  0  0  0  0  0
   58.1383   32.5968   45.7172 H   0  0  0  0  0  0  0  0  0  0  0  0
   57.6676   31.5716   47.9419 H   0  0  0  0  0  0  0  0  0  0  0  0
   62.1092   30.5451   48.2360 H   0  0  0  0  0  0  0  0  0  0  0  0
   62.8081   31.7315   46.1464 H   0  0  0  0  0  0  0  0  0  0  0  0
   63.0768   34.0965   50.5123 H   0  0  0  0  0  0  0  0  0  0  0  0
   58.1253   26.6586   47.5417 H   0  0  0  0  0  0  0  0  0  0  0  0
   56.4910   27.7136   45.9820 H   0  0  0  0  0  0  0  0  0  0  0  0
  1  2  1  0
  2  3  2  0
  2  4  2  0
  2  5  1  0
  5  6  2  0
  6  7  1  0
  7  8  2  0
  8  9  1  0
  9 10  1  0
 10 11  1  0
 11 12  2  0
 11 13  1  0
 13 14  1  0
 14 15  1  0
 15 16  1  0
 16 17  1  0
 17 18  2  0
 18 19  1  0
 19 20  2  0
 20 21  1  0
 21 22  2  0
 14 23  1  0
 23 24  2  0
 23 25  1  0
 25 26  1  0
 26 27  2  0
 27 28  1  0
 28 29  2  0
 28 30  1  0
 30 31  1  0
  8 32  1  0
 32 33  2  0
 33  5  1  0
 22 17  1  0
 31 25  2  0
  1 34  1  0
  6 35  1  0
  7 36  1  0
  9 37  1  0
  9 38  1  0
 10 39  1  0
 13 40  1  0
 13 41  1  0
 15 42  1  0
 15 43  1  0
 16 44  1  0
 16 45  1  0
 18 46  1  0
 19 47  1  0
 20 48  1  0
 21 49  1  0
 22 50  1  0
 26 51  1  0
 27 52  1  0
 31 53  1  0
 32 54  1  0
 33 55  1  0
M  CHG  2   1  -1  30  -1
M  END
>  <UniqueID>  (62) 
55

>  <SMILES>  (62) 
[NH-]S(=O)(=O)c1ccc(CNC(=O)CN(CCc2ccccc2)C(=O)c2ccc(=O)[n-]c2)cc1

>  <Energy>  (62) 
56.53996578988597

>  <Genealogy>  (62) 
[NH-]S(=O)(=O)c1ccc(CNC(=O)CN(CCc2ccccc2)C(=O)c2ccc(=O)[n-]c2)cc1 (protonated)
[NH-]S(=O)(=O)c1ccc(CNC(=O)CN(CCc2ccccc2)C(=O)c2ccc(=O)[n-]c2)cc1 (3D coordinates assigned)
[NH-]S(=O)(=O)c1ccc(CNC(=O)CN(CCc2ccccc2)C(=O)c2ccc(=O)[n-]c2)cc1 (optimized conformer: 56.53996578988597 kcal/mol)

>  <smiles>  (62) 
NS(=O)(=O)c1ccc(CNC(=O)CN(CCc2ccccc2)C(=O)c2ccc(=O)[nH]c2)cc1

>  <score_type>  (62) 
oracle

>  <origin>  (62) 
adg

>  <m_score__min__energy>  (62) 
-13.59

>  <m_primary>  (62) 
energy

$$$$
62:0
     RDKit          3D

 55 58  0  0  0  0  0  0  0  0999 V2000
   60.9330   27.5990   49.9450 C   0  0  0  0  0  0  0  0  0  0  0  0
   60.1900   27.7570   48.6520 C   0  0  0  0  0  0  0  0  0  0  0  0
   60.4180   26.8670   47.5920 C   0  0  0  0  0  0  0  0  0  0  0  0
   59.7000   26.9900   46.3990 C   0  0  0  0  0  0  0  0  0  0  0  0
   58.7330   27.9980   46.2550 C   0  0  0  0  0  0  0  0  0  0  0  0
   57.9380   28.1240   44.9830 C   0  0  0  0  0  0  0  0  0  0  0  0
   57.3790   29.4730   44.8650 N   0  0  0  0  0  0  0  0  0  0  0  0
   58.0300   30.6500   44.9120 C   0  0  0  0  0  0  0  0  0  0  0  0
   59.3920   30.8130   45.1560 O   0  0  0  0  0  0  0  0  0  0  0  0
   57.1280   31.6670   44.6860 C   0  0  0  0  0  0  0  0  0  0  0  0
   57.4170   33.1360   44.7210 C   0  0  0  0  0  0  0  0  0  0  0  0
   58.4590   33.4320   45.7650 C   0  0  0  0  0  0  0  0  0  0  0  0
   59.5710   34.2280   45.4490 C   0  0  0  0  0  0  0  0  0  0  0  0
   60.5580   34.4740   46.4090 C   0  0  0  0  0  0  0  0  0  0  0  0
   60.4490   33.9200   47.6940 C   0  0  0  0  0  0  0  0  0  0  0  0
   61.4970   34.1970   48.7400 C   0  0  0  0  0  0  0  0  0  0  0  0
   62.8330   33.7600   48.2720 N   0  0  0  0  0  0  0  0  0  0  0  0
   63.7430   33.4250   49.3940 C   0  0  0  0  0  0  0  0  0  0  0  0
   63.7120   31.9270   49.7600 C   0  0  0  0  0  0  0  0  0  0  0  0
   62.4800   31.3490   49.3900 O   0  0  0  0  0  0  0  0  0  0  0  0
   62.3670   31.3120   47.9780 C   0  0  0  0  0  0  0  0  0  0  0  0
   62.7620   32.6470   47.3020 C   0  0  0  0  0  0  0  0  0  0  0  0
   59.3400   33.1180   48.0060 C   0  0  0  0  0  0  0  0  0  0  0  0
   58.3550   32.8710   47.0470 C   0  0  0  0  0  0  0  0  0  0  0  0
   55.8960   31.1460   44.5070 N   0  0  0  0  0  0  0  0  0  0  0  0
   56.0970   29.8140   44.6120 C   0  0  0  0  0  0  0  0  0  0  0  0
   55.1660   28.9740   44.4870 O   0  0  0  0  0  0  0  0  0  0  0  0
   58.4930   28.8770   47.3240 C   0  0  0  0  0  0  0  0  0  0  0  0
   59.2120   28.7540   48.5160 C   0  0  0  0  0  0  0  0  0  0  0  0
   60.2400   27.7464   50.7865 H   0  0  0  0  0  0  0  0  0  0  0  0
   61.3652   26.5889   49.9985 H   0  0  0  0  0  0  0  0  0  0  0  0
   61.7388   28.3459   49.9985 H   0  0  0  0  0  0  0  0  0  0  0  0
   61.1660   26.0678   47.7002 H   0  0  0  0  0  0  0  0  0  0  0  0
   59.8933   26.2941   45.5693 H   0  0  0  0  0  0  0  0  0  0  0  0
   58.5952   27.9269   44.1232 H   0  0  0  0  0  0  0  0  0  0  0  0
   57.1141   27.3954   45.0020 H   0  0  0  0  0  0  0  0  0  0  0  0
   60.0710   30.1250   44.8600 H   0  0  0  0  0  0  0  0  0  0  0  0
   57.7866   33.4579   43.7362 H   0  0  0  0  0  0  0  0  0  0  0  0
   56.4933   33.6793   44.9693 H   0  0  0  0  0  0  0  0  0  0  0  0
   59.6667   34.6602   44.4420 H   0  0  0  0  0  0  0  0  0  0  0  0
   61.4233   35.1043   46.1559 H   0  0  0  0  0  0  0  0  0  0  0  0
   61.5228   35.2768   48.9481 H   0  0  0  0  0  0  0  0  0  0  0  0
   61.2419   33.6382   49.6525 H   0  0  0  0  0  0  0  0  0  0  0  0
   64.7698   33.6957   49.1069 H   0  0  0  0  0  0  0  0  0  0  0  0
   63.4044   33.9890   50.2756 H   0  0  0  0  0  0  0  0  0  0  0  0
   64.5267   31.4094   49.2323 H   0  0  0  0  0  0  0  0  0  0  0  0
   63.8374   31.8261   50.8482 H   0  0  0  0  0  0  0  0  0  0  0  0
   63.0245   30.5177   47.5949 H   0  0  0  0  0  0  0  0  0  0  0  0
   61.3101   31.1232   47.7384 H   0  0  0  0  0  0  0  0  0  0  0  0
   63.7469   32.5266   46.8271 H   0  0  0  0  0  0  0  0  0  0  0  0
   61.9890   32.8930   46.5591 H   0  0  0  0  0  0  0  0  0  0  0  0
   59.2462   32.6816   49.0114 H   0  0  0  0  0  0  0  0  0  0  0  0
   57.4940   32.2340   47.2978 H   0  0  0  0  0  0  0  0  0  0  0  0
   57.7344   29.6671   47.2223 H   0  0  0  0  0  0  0  0  0  0  0  0
   59.0105   29.4414   49.3508 H   0  0  0  0  0  0  0  0  0  0  0  0
  1  2  1  0
  2  3  2  0
  3  4  1  0
  4  5  2  0
  5  6  1  0
  6  7  1  0
  7  8  1  0
  8  9  1  0
  8 10  2  0
 10 11  1  0
 11 12  1  0
 12 13  2  0
 13 14  1  0
 14 15  2  0
 15 16  1  0
 16 17  1  0
 17 18  1  0
 18 19  1  0
 19 20  1  0
 20 21  1  0
 21 22  1  0
 15 23  1  0
 23 24  2  0
 10 25  1  0
 25 26  1  0
 26 27  2  0
  5 28  1  0
 28 29  2  0
 29  2  1  0
 26  7  1  0
 24 12  1  0
 22 17  1  0
  1 30  1  0
  1 31  1  0
  1 32  1  0
  3 33  1  0
  4 34  1  0
  6 35  1  0
  6 36  1  0
  9 37  1  0
 11 38  1  0
 11 39  1  0
 13 40  1  0
 14 41  1  0
 16 42  1  0
 16 43  1  0
 18 44  1  0
 18 45  1  0
 19 46  1  0
 19 47  1  0
 21 48  1  0
 21 49  1  0
 22 50  1  0
 22 51  1  0
 23 52  1  0
 24 53  1  0
 28 54  1  0
 29 55  1  0
M  CHG  1  25  -1
M  END
>  <UniqueID>  (63) 
56

>  <SMILES>  (63) 
Cc1ccc(Cn2c(O)c(Cc3ccc(CN4CCOCC4)cc3)[n-]c2=O)cc1

>  <Energy>  (63) 
97.88098009654144

>  <Genealogy>  (63) 
Cc1ccc(Cn2c(O)c(Cc3ccc(CN4CCOCC4)cc3)[n-]c2=O)cc1 (protonated)
Cc1ccc(Cn2c(O)c(Cc3ccc(CN4CCOCC4)cc3)[n-]c2=O)cc1 (3D coordinates assigned)
Cc1ccc(Cn2c(O)c(Cc3ccc(CN4CCOCC4)cc3)[n-]c2=O)cc1 (nonaromatic ring conformer: 97.88098009654144 kcal/mol)

>  <smiles>  (63) 
Cc1ccc(Cn2c(O)c(Cc3ccc(CN4CCOCC4)cc3)[nH]c2=O)cc1

>  <score_type>  (63) 
oracle

>  <origin>  (63) 
adg

>  <m_score__min__energy>  (63) 
-9.9900000000000002

>  <m_primary>  (63) 
energy

$$$$
63:0
     RDKit          3D

 53 56  0  0  1  0  0  0  0  0999 V2000
   68.4460   33.5440   50.4990 C   0  0  0  0  0  0  0  0  0  0  0  0
   67.2440   33.5140   50.5720 C   0  0  0  0  0  0  0  0  0  0  0  0
   65.7870   33.4720   50.6770 C   0  0  0  0  0  0  0  0  0  0  0  0
   65.1680   32.7110   49.6870 O   0  0  0  0  0  0  0  0  0  0  0  0
   64.0820   33.0630   48.9390 C   0  0  0  0  0  0  0  0  0  0  0  0
   64.1400   33.1750   47.5760 C   0  0  0  0  0  0  0  0  0  0  0  0
   63.1030   33.5220   46.7600 C   0  0  0  0  0  0  0  0  0  0  0  0
   61.8780   33.7810   47.4140 C   0  0  0  0  0  0  0  0  0  0  0  0
   61.8070   33.6710   48.7640 C   0  0  0  0  0  0  0  0  0  0  0  0
   60.6320   33.9190   49.4280 C   0  0  0  0  0  0  0  0  0  0  0  0
   59.5870   34.1660   48.8460 N   0  0  0  0  0  0  0  0  0  0  0  0
   58.9360   33.6440   47.7720 C   0  0  0  0  0  0  0  0  0  0  0  0
   58.5650   34.4430   46.6680 C   0  0  0  0  0  0  0  0  0  0  0  0
   58.0080   33.8450   45.5830 C   0  0  0  0  0  0  0  0  0  0  0  0
   57.6520   34.6780   44.5070 O   0  0  0  0  0  0  0  0  0  0  0  0
   57.7770   32.4770   45.4860 C   0  0  0  0  0  0  0  0  0  0  0  0
   57.1930   31.9610   44.3100 N   0  0  0  0  0  0  0  0  0  0  0  0
   56.7740   30.3130   44.0580 S   0  0  0  0  0  0  0  0  0  0  0  0
   55.4540   29.9750   44.6850 O   0  0  0  0  0  0  0  0  0  0  0  0
   56.6980   30.0600   42.5790 O   0  0  0  0  0  0  0  0  0  0  0  0
   57.9960   29.2470   44.6950 C   0  0  0  0  0  0  0  0  0  0  0  0
   57.5680   28.1460   45.4430 C   0  0  0  0  0  0  0  0  0  0  0  0
   58.5040   27.2610   45.9660 C   0  0  0  0  0  0  0  0  0  0  0  0
   59.8670   27.4380   45.7670 C   0  0  0  0  0  0  0  0  0  0  0  0
   60.2900   28.5220   45.0320 C   0  0  0  0  0  0  0  0  0  0  0  0
   59.3380   29.3970   44.5160 C   0  0  0  0  0  0  0  0  0  0  0  0
   58.1490   31.7250   46.5750 C   0  0  0  0  0  0  0  0  0  0  0  0
   58.7180   32.2500   47.7120 C   0  0  0  0  0  0  0  0  0  0  0  0
   59.1200   31.4310   48.8820 C   0  0  0  0  0  0  0  0  0  0  0  0
   60.6080   33.8080   50.7870 N   0  0  0  0  0  0  0  0  0  0  0  0
   61.6790   33.4660   51.5090 C   0  0  0  0  0  0  0  0  0  0  0  0
   62.8380   33.2160   50.8880 N   0  0  0  0  0  0  0  0  0  0  0  0
   62.8820   33.3200   49.5500 C   0  0  0  0  0  0  0  0  0  0  0  0
   69.5436   33.5714   50.4323 H   0  0  0  0  0  0  0  0  0  0  0  0
   65.5231   33.0459   51.6562 H   0  0  0  0  0  0  0  0  0  0  0  0
   65.4296   34.5050   50.5537 H   0  0  0  0  0  0  0  0  0  0  0  0
   65.1078   32.9669   47.0963 H   0  0  0  0  0  0  0  0  0  0  0  0
   63.2133   33.5950   45.6680 H   0  0  0  0  0  0  0  0  0  0  0  0
   60.9893   34.0694   46.8334 H   0  0  0  0  0  0  0  0  0  0  0  0
   58.7244   35.5312   46.6865 H   0  0  0  0  0  0  0  0  0  0  0  0
   56.6750   34.7420   44.2270 H   0  0  0  0  0  0  0  0  0  0  0  0
   56.9950   32.6220   43.5220 H   0  0  0  0  0  0  0  0  0  0  0  0
   56.4945   27.9806   45.6171 H   0  0  0  0  0  0  0  0  0  0  0  0
   58.1559   26.3981   46.5527 H   0  0  0  0  0  0  0  0  0  0  0  0
   60.5931   26.7269   46.1879 H   0  0  0  0  0  0  0  0  0  0  0  0
   61.3620   28.6941   44.8553 H   0  0  0  0  0  0  0  0  0  0  0  0
   59.6897   30.2590   43.9301 H   0  0  0  0  0  0  0  0  0  0  0  0
   57.9816   30.6385   46.5348 H   0  0  0  0  0  0  0  0  0  0  0  0
   58.8590   31.9628   49.8089 H   0  0  0  0  0  0  0  0  0  0  0  0
   58.5933   30.4658   48.8523 H   0  0  0  0  0  0  0  0  0  0  0  0
   60.2058   31.2573   48.8523 H   0  0  0  0  0  0  0  0  0  0  0  0
   61.6088   33.3906   52.6042 H   0  0  0  0  0  0  0  0  0  0  0  0
   63.6810   32.9440   51.4590 H   0  0  0  0  0  0  0  0  0  0  0  0
  1  2  3  0
  2  3  1  0
  3  4  1  0
  4  5  1  0
  5  6  2  0
  6  7  1  0
  7  8  2  0
  8  9  1  0
  9 10  1  0
 10 11  2  0
 11 12  1  0
 12 13  2  0
 13 14  1  0
 14 15  1  0
 14 16  2  0
 16 17  1  0
 17 18  1  0
 18 19  2  0
 18 20  2  0
 18 21  1  0
 21 22  2  0
 22 23  1  0
 23 24  2  0
 24 25  1  0
 25 26  2  0
 16 27  1  0
 27 28  2  0
 28 29  1  0
 10 30  1  0
 30 31  2  0
 31 32  1  0
 32 33  1  0
 33  5  1  0
 33  9  2  0
 28 12  1  0
 26 21  1  0
  1 34  1  0
  3 35  1  0
  3 36  1  0
  6 37  1  0
  7 38  1  0
  8 39  1  0
 13 40  1  0
 15 41  1  0
 17 42  1  0
 22 43  1  0
 23 44  1  0
 24 45  1  0
 25 46  1  0
 26 47  1  0
 27 48  1  0
 29 49  1  0
 29 50  1  0
 29 51  1  0
 31 52  1  0
 32 53  1  0
M  END
>  <smiles>  (64) 
C#CCOc1cccc2c(=Nc3cc(O)c(NS(=O)(=O)c4ccccc4)cc3C)nc[nH]c12

>  <score_type>  (64) 
oracle

>  <origin>  (64) 
adg

>  <m_score__min__energy>  (64) 
-8.9900000000000002

>  <m_primary>  (64) 
energy

$$$$
64:0
     RDKit          3D

 70 74  0  0  0  0  0  0  0  0999 V2000
   61.4990   30.3030   49.4370 O   0  0  0  0  0  0  0  0  0  0  0  0
   60.5720   30.7250   48.6920 C   0  0  0  0  0  0  0  0  0  0  0  0
   59.3890   31.2890   49.2630 N   0  0  0  0  0  0  0  0  0  0  0  0
   59.4000   32.0640   50.4980 C   0  0  0  0  0  0  0  0  0  0  0  0
   59.7360   33.5240   50.1780 C   0  0  0  0  0  0  0  0  0  0  0  0
   61.2000   33.8510   50.4830 C   0  0  0  0  0  0  0  0  0  0  0  0
   62.0610   33.5150   49.2950 C   0  0  0  0  0  0  0  0  0  0  0  0
   63.3210   32.9210   49.4770 C   0  0  0  0  0  0  0  0  0  0  0  0
   64.1500   32.6750   48.3780 C   0  0  0  0  0  0  0  0  0  0  0  0
   63.7320   33.0280   47.0930 C   0  0  0  0  0  0  0  0  0  0  0  0
   62.4860   33.6320   46.9030 C   0  0  0  0  0  0  0  0  0  0  0  0
   61.6530   33.8790   48.0000 C   0  0  0  0  0  0  0  0  0  0  0  0
   60.6570   30.5990   47.3020 O   0  0  0  0  0  0  0  0  0  0  0  0
   60.5280   29.3620   46.5980 C   0  0  2  0  0  0  0  0  0  0  0  0
   59.9220   29.6660   45.2050 C   0  0  0  0  0  0  0  0  0  0  0  0
   59.0470   28.5200   44.6660 C   0  0  0  0  0  0  0  0  0  0  0  0
   57.8610   28.1140   45.6170 C   0  0  1  0  0  0  0  0  0  0  0  0
   56.5330   28.8180   45.1960 C   0  0  0  0  0  0  0  0  0  0  0  0
   56.5150   29.1510   43.7720 N   0  0  0  0  0  0  0  0  0  0  0  0
   56.7880   30.4400   43.2070 C   0  0  0  0  0  0  0  0  0  0  0  0
   56.6220   30.6020   41.9680 O   0  0  0  0  0  0  0  0  0  0  0  0
   57.3180   31.5580   44.0110 C   0  0  0  0  0  0  0  0  0  0  0  0
   58.1550   32.5640   43.5300 C   0  0  0  0  0  0  0  0  0  0  0  0
   58.4450   33.3260   44.6390 C   0  0  0  0  0  0  0  0  0  0  0  0
   59.2620   34.4430   44.7900 C   0  0  0  0  0  0  0  0  0  0  0  0
   59.3930   34.9880   46.0820 C   0  0  0  0  0  0  0  0  0  0  0  0
   58.7150   34.4030   47.1780 C   0  0  0  0  0  0  0  0  0  0  0  0
   57.8940   33.2750   46.9880 C   0  0  0  0  0  0  0  0  0  0  0  0
   57.7880   32.7590   45.6990 C   0  0  0  0  0  0  0  0  0  0  0  0
   57.1140   31.7070   45.3090 O   0  0  0  0  0  0  0  0  0  0  0  0
   57.6420   26.5850   45.4730 C   0  0  0  0  0  0  0  0  0  0  0  0
   57.7640   25.9970   44.1910 C   0  0  0  0  0  0  0  0  0  0  0  0
   57.5580   24.6280   44.0000 C   0  0  0  0  0  0  0  0  0  0  0  0
   57.2380   23.8100   45.0800 C   0  0  0  0  0  0  0  0  0  0  0  0
   57.1340   24.3570   46.3570 C   0  0  0  0  0  0  0  0  0  0  0  0
   57.3380   25.7260   46.5590 C   0  0  0  0  0  0  0  0  0  0  0  0
   58.1820   28.5570   47.0830 C   0  0  0  0  0  0  0  0  0  0  0  0
   59.6620   28.3640   47.4100 C   0  0  0  0  0  0  0  0  0  0  0  0
   58.4096   32.0109   50.9737 H   0  0  0  0  0  0  0  0  0  0  0  0
   60.1567   31.6539   51.1831 H   0  0  0  0  0  0  0  0  0  0  0  0
   59.5453   33.7074   49.1103 H   0  0  0  0  0  0  0  0  0  0  0  0
   59.1039   34.1662   50.8088 H   0  0  0  0  0  0  0  0  0  0  0  0
   61.2942   34.9233   50.7095 H   0  0  0  0  0  0  0  0  0  0  0  0
   61.5301   33.2566   51.3477 H   0  0  0  0  0  0  0  0  0  0  0  0
   63.6569   32.6482   50.4883 H   0  0  0  0  0  0  0  0  0  0  0  0
   65.1325   32.2029   48.5258 H   0  0  0  0  0  0  0  0  0  0  0  0
   64.3842   32.8304   46.2295 H   0  0  0  0  0  0  0  0  0  0  0  0
   62.1600   33.9133   45.8908 H   0  0  0  0  0  0  0  0  0  0  0  0
   60.6753   34.3598   47.8484 H   0  0  0  0  0  0  0  0  0  0  0  0
   61.5097   28.8841   46.4643 H   0  0  0  0  0  0  0  0  0  0  0  0
   59.3037   30.5725   45.2821 H   0  0  0  0  0  0  0  0  0  0  0  0
   60.7593   29.7981   44.5039 H   0  0  0  0  0  0  0  0  0  0  0  0
   58.6235   28.8337   43.7005 H   0  0  0  0  0  0  0  0  0  0  0  0
   59.6987   27.6382   44.5782 H   0  0  0  0  0  0  0  0  0  0  0  0
   55.6903   28.1453   45.4138 H   0  0  0  0  0  0  0  0  0  0  0  0
   56.4516   29.7561   45.7646 H   0  0  0  0  0  0  0  0  0  0  0  0
   58.5045   32.7146   42.4979 H   0  0  0  0  0  0  0  0  0  0  0  0
   59.7870   34.8846   43.9301 H   0  0  0  0  0  0  0  0  0  0  0  0
   60.0260   35.8736   46.2402 H   0  0  0  0  0  0  0  0  0  0  0  0
   58.8301   34.8321   48.1843 H   0  0  0  0  0  0  0  0  0  0  0  0
   57.3543   32.8166   47.8298 H   0  0  0  0  0  0  0  0  0  0  0  0
   58.0257   26.6291   43.3296 H   0  0  0  0  0  0  0  0  0  0  0  0
   57.6490   24.1953   42.9928 H   0  0  0  0  0  0  0  0  0  0  0  0
   57.0677   22.7343   44.9254 H   0  0  0  0  0  0  0  0  0  0  0  0
   56.8900   23.7086   47.2114 H   0  0  0  0  0  0  0  0  0  0  0  0
   57.2615   26.1418   47.5745 H   0  0  0  0  0  0  0  0  0  0  0  0
   57.9248   29.6200   47.2005 H   0  0  0  0  0  0  0  0  0  0  0  0
   57.5905   27.9350   47.7710 H   0  0  0  0  0  0  0  0  0  0  0  0
   59.8215   28.5363   48.4847 H   0  0  0  0  0  0  0  0  0  0  0  0
   59.9558   27.3377   47.1448 H   0  0  0  0  0  0  0  0  0  0  0  0
  1  2  2  0
  2  3  1  0
  3  4  1  0
  4  5  1  0
  5  6  1  0
  6  7  1  0
  7  8  2  0
  8  9  1  0
  9 10  2  0
 10 11  1  0
 11 12  2  0
  2 13  1  0
 13 14  1  0
 14 15  1  0
 15 16  1  0
 16 17  1  0
 17 18  1  6
 18 19  1  0
 19 20  1  0
 20 21  2  0
 20 22  1  0
 22 23  2  0
 23 24  1  0
 24 25  2  0
 25 26  1  0
 26 27  2  0
 27 28  1  0
 28 29  2  0
 29 30  1  0
 17 31  1  0
 31 32  2  0
 32 33  1  0
 33 34  2  0
 34 35  1  0
 35 36  2  0
 17 37  1  0
 37 38  1  0
 12  7  1  0
 38 14  1  0
 30 22  1  0
 36 31  1  0
 29 24  1  0
  4 39  1  0
  4 40  1  0
  5 41  1  0
  5 42  1  0
  6 43  1  0
  6 44  1  0
  8 45  1  0
  9 46  1  0
 10 47  1  0
 11 48  1  0
 12 49  1  0
 14 50  1  6
 15 51  1  0
 15 52  1  0
 16 53  1  0
 16 54  1  0
 18 55  1  0
 18 56  1  0
 23 57  1  0
 25 58  1  0
 26 59  1  0
 27 60  1  0
 28 61  1  0
 32 62  1  0
 33 63  1  0
 34 64  1  0
 35 65  1  0
 36 66  1  0
 37 67  1  0
 37 68  1  0
 38 69  1  0
 38 70  1  0
M  CHG  2   3  -1  19  -1
M  END
>  <UniqueID>  (65) 
57

>  <SMILES>  (65) 
O=C([N-]CCCc1ccccc1)OC1CCC(C[N-]C(=O)c2cc3ccccc3o2)(c2ccccc2)CC1

>  <Energy>  (65) 
116.85996604920481

>  <Genealogy>  (65) 
O=C([N-]CCCc1ccccc1)OC1CCC(C[N-]C(=O)c2cc3ccccc3o2)(c2ccccc2)CC1 (protonated)
O=C([N-]CCCc1ccccc1)OC1CCC(C[N-]C(=O)c2cc3ccccc3o2)(c2ccccc2)CC1 (3D coordinates assigned)
O=C([N-]CCCc1ccccc1)OC1CCC(C[N-]C(=O)c2cc3ccccc3o2)(c2ccccc2)CC1 (nonaromatic ring conformer: 116.85996604920481 kcal/mol)

>  <smiles>  (65) 
O=C(NCCCc1ccccc1)OC1CCC(CNC(=O)c2cc3ccccc3o2)(c2ccccc2)CC1

>  <score_type>  (65) 
oracle

>  <origin>  (65) 
adg

>  <m_score__min__energy>  (65) 
-12.58

>  <m_primary>  (65) 
energy

$$$$
65:0
     RDKit          3D

 28 29  0  0  0  0  0  0  0  0999 V2000
   54.7600   23.3680   42.7420 O   0  0  0  0  0  0  0  0  0  0  0  0
   55.8440   22.8100   43.0090 N   0  0  0  0  0  0  0  0  0  0  0  0
   56.2090   21.6770   42.3200 O   0  0  0  0  0  0  0  0  0  0  0  0
   56.7010   23.3480   44.0210 C   0  0  0  0  0  0  0  0  0  0  0  0
   57.0850   22.6870   45.1830 C   0  0  0  0  0  0  0  0  0  0  0  0
   57.9160   23.4620   45.9990 C   0  0  0  0  0  0  0  0  0  0  0  0
   58.1910   24.7160   45.4590 C   0  0  0  0  0  0  0  0  0  0  0  0
   58.9470   25.7600   46.0860 N   0  0  0  0  0  0  0  0  0  0  0  0
   58.9100   27.1300   45.6630 C   0  0  0  0  0  0  0  0  0  0  0  0
   60.2840   28.0220   45.7770 S   0  0  0  0  0  0  0  0  0  0  0  0
   57.6740   27.7190   45.2160 N   0  0  0  0  0  0  0  0  0  0  0  0
   57.5670   29.0550   44.7100 C   0  0  0  0  0  0  0  0  0  0  0  0
   58.7290   29.7400   44.3280 C   0  0  0  0  0  0  0  0  0  0  0  0
   58.6450   31.0380   43.8160 C   0  0  0  0  0  0  0  0  0  0  0  0
   57.4000   31.6540   43.6700 C   0  0  0  0  0  0  0  0  0  0  0  0
   56.2340   30.9690   44.0270 C   0  0  0  0  0  0  0  0  0  0  0  0
   56.3110   29.6650   44.5380 C   0  0  0  0  0  0  0  0  0  0  0  0
   55.1460   28.9690   44.8590 O   0  0  0  0  0  0  0  0  0  0  0  0
   57.3800   24.8900   43.9960 S   0  0  0  0  0  0  0  0  0  0  0  0
   56.7689   21.6637   45.4337 H   0  0  0  0  0  0  0  0  0  0  0  0
   58.3109   23.1171   46.9660 H   0  0  0  0  0  0  0  0  0  0  0  0
   59.5990   25.4950   46.8570 H   0  0  0  0  0  0  0  0  0  0  0  0
   56.8190   27.1230   45.1650 H   0  0  0  0  0  0  0  0  0  0  0  0
   59.7105   29.2543   44.4316 H   0  0  0  0  0  0  0  0  0  0  0  0
   59.5607   31.5750   43.5277 H   0  0  0  0  0  0  0  0  0  0  0  0
   57.3365   32.6783   43.2741 H   0  0  0  0  0  0  0  0  0  0  0  0
   55.2541   31.4541   43.9067 H   0  0  0  0  0  0  0  0  0  0  0  0
   55.1590   28.1780   45.4920 H   0  0  0  0  0  0  0  0  0  0  0  0
  1  2  2  0
  2  3  1  0
  2  4  1  0
  4  5  2  0
  5  6  1  0
  6  7  2  0
  7  8  1  0
  8  9  1  0
  9 10  2  0
  9 11  1  0
 11 12  1  0
 12 13  2  0
 13 14  1  0
 14 15  2  0
 15 16  1  0
 16 17  2  0
 17 18  1  0
  7 19  1  0
 19  4  1  0
 17 12  1  0
  5 20  1  0
  6 21  1  0
  8 22  1  0
 11 23  1  0
 13 24  1  0
 14 25  1  0
 15 26  1  0
 16 27  1  0
 18 28  1  0
M  CHG  2   2   1   3  -1
M  END
>  <UniqueID>  (66) 
58

>  <SMILES>  (66) 
O=[N+]([O-])c1ccc(NC(=S)Nc2ccccc2O)s1

>  <Energy>  (66) 
65.19721394818663

>  <Genealogy>  (66) 
O=[N+]([O-])c1ccc(NC(=S)Nc2ccccc2O)s1 (3D coordinates assigned)
O=[N+]([O-])c1ccc(NC(=S)Nc2ccccc2O)s1 (optimized conformer: 65.19721394818663 kcal/mol)

>  <smiles>  (66) 
O=[N+]([O-])c1ccc(NC(=S)Nc2ccccc2O)s1

>  <score_type>  (66) 
oracle

>  <origin>  (66) 
adg

>  <m_score__min__energy>  (66) 
-7.9199999999999999

>  <m_primary>  (66) 
energy

$$$$
66:0
     RDKit          3D

 53 56  0  0  0  0  0  0  0  0999 V2000
   59.9610   35.5190   45.9840 O   0  0  0  0  0  0  0  0  0  0  0  0
   59.3480   34.5980   46.5880 C   0  0  0  0  0  0  0  0  0  0  0  0
   59.2270   34.6440   48.0130 N   0  0  0  0  0  0  0  0  0  0  0  0
   59.9660   33.7380   48.8840 C   0  0  0  0  0  0  0  0  0  0  0  0
   61.2200   33.3060   48.1800 C   0  0  0  0  0  0  0  0  0  0  0  0
   61.4600   31.9520   47.8980 C   0  0  0  0  0  0  0  0  0  0  0  0
   62.7020   31.5700   47.3790 C   0  0  0  0  0  0  0  0  0  0  0  0
   63.6820   32.5360   47.1380 C   0  0  0  0  0  0  0  0  0  0  0  0
   63.4020   33.8760   47.4160 C   0  0  0  0  0  0  0  0  0  0  0  0
   62.1940   34.2270   47.9360 N   0  0  0  0  0  0  0  0  0  0  0  0
   58.8320   33.4310   45.8410 C   0  0  0  0  0  0  0  0  0  0  0  0
   58.4920   33.5570   44.4820 C   0  0  0  0  0  0  0  0  0  0  0  0
   57.8460   32.5150   43.8140 C   0  0  0  0  0  0  0  0  0  0  0  0
   57.5310   31.3310   44.4910 C   0  0  0  0  0  0  0  0  0  0  0  0
   56.4980   30.1200   43.7310 S   0  0  0  0  0  0  0  0  0  0  0  0
   56.3510   30.4710   42.2760 O   0  0  0  0  0  0  0  0  0  0  0  0
   55.1430   30.1150   44.3770 O   0  0  0  0  0  0  0  0  0  0  0  0
   57.1890   28.5220   43.8730 N   0  0  0  0  0  0  0  0  0  0  0  0
   58.0500   28.1280   44.9550 C   0  0  0  0  0  0  0  0  0  0  0  0
   57.5580   27.4340   46.0740 C   0  0  0  0  0  0  0  0  0  0  0  0
   58.3870   27.1890   47.1720 C   0  0  0  0  0  0  0  0  0  0  0  0
   59.7320   27.5850   47.1420 C   0  0  0  0  0  0  0  0  0  0  0  0
   60.5690   27.3880   48.2430 O   0  0  0  0  0  0  0  0  0  0  0  0
   60.5540   28.1830   49.4000 C   0  0  0  0  0  0  0  0  0  0  0  0
   59.8660   29.4020   49.3740 C   0  0  0  0  0  0  0  0  0  0  0  0
   59.8030   30.2050   50.5190 C   0  0  0  0  0  0  0  0  0  0  0  0
   60.4190   29.7880   51.6990 C   0  0  0  0  0  0  0  0  0  0  0  0
   61.1010   28.5710   51.7370 C   0  0  0  0  0  0  0  0  0  0  0  0
   61.1720   27.7680   50.5950 C   0  0  0  0  0  0  0  0  0  0  0  0
   60.2530   28.1710   45.9880 C   0  0  0  0  0  0  0  0  0  0  0  0
   59.4150   28.4540   44.9040 C   0  0  0  0  0  0  0  0  0  0  0  0
   57.9330   31.1710   45.8230 C   0  0  0  0  0  0  0  0  0  0  0  0
   58.5700   32.2170   46.4990 C   0  0  0  0  0  0  0  0  0  0  0  0
   60.2264   34.2547   49.8195 H   0  0  0  0  0  0  0  0  0  0  0  0
   59.3480   32.8591   49.1200 H   0  0  0  0  0  0  0  0  0  0  0  0
   60.6797   31.1991   48.0831 H   0  0  0  0  0  0  0  0  0  0  0  0
   62.9063   30.5113   47.1612 H   0  0  0  0  0  0  0  0  0  0  0  0
   64.6628   32.2448   46.7340 H   0  0  0  0  0  0  0  0  0  0  0  0
   64.1587   34.6485   47.2144 H   0  0  0  0  0  0  0  0  0  0  0  0
   58.7368   34.4833   43.9415 H   0  0  0  0  0  0  0  0  0  0  0  0
   57.5835   32.6249   42.7514 H   0  0  0  0  0  0  0  0  0  0  0  0
   57.1200   27.9060   43.0420 H   0  0  0  0  0  0  0  0  0  0  0  0
   56.5158   27.0822   46.0854 H   0  0  0  0  0  0  0  0  0  0  0  0
   57.9835   26.6842   48.0622 H   0  0  0  0  0  0  0  0  0  0  0  0
   59.3718   29.7309   48.4480 H   0  0  0  0  0  0  0  0  0  0  0  0
   59.2674   31.1653   50.4881 H   0  0  0  0  0  0  0  0  0  0  0  0
   60.3672   30.4181   52.5992 H   0  0  0  0  0  0  0  0  0  0  0  0
   61.5844   28.2425   52.6689 H   0  0  0  0  0  0  0  0  0  0  0  0
   61.7117   26.8101   50.6301 H   0  0  0  0  0  0  0  0  0  0  0  0
   61.3249   28.4110   45.9303 H   0  0  0  0  0  0  0  0  0  0  0  0
   59.8283   28.9353   44.0054 H   0  0  0  0  0  0  0  0  0  0  0  0
   57.7469   30.2181   46.3402 H   0  0  0  0  0  0  0  0  0  0  0  0
   58.8672   32.0888   47.5503 H   0  0  0  0  0  0  0  0  0  0  0  0
  1  2  2  0
  2  3  1  0
  3  4  1  0
  4  5  1  0
  5  6  2  0
  6  7  1  0
  7  8  2  0
  8  9  1  0
  9 10  2  0
  2 11  1  0
 11 12  2  0
 12 13  1  0
 13 14  2  0
 14 15  1  0
 15 16  2  0
 15 17  2  0
 15 18  1  0
 18 19  1  0
 19 20  2  0
 20 21  1  0
 21 22  2  0
 22 23  1  0
 23 24  1  0
 24 25  2  0
 25 26  1  0
 26 27  2  0
 27 28  1  0
 28 29  2  0
 22 30  1  0
 30 31  2  0
 14 32  1  0
 32 33  2  0
 10  5  1  0
 33 11  1  0
 31 19  1  0
 29 24  1  0
  4 34  1  0
  4 35  1  0
  6 36  1  0
  7 37  1  0
  8 38  1  0
  9 39  1  0
 12 40  1  0
 13 41  1  0
 18 42  1  0
 20 43  1  0
 21 44  1  0
 25 45  1  0
 26 46  1  0
 27 47  1  0
 28 48  1  0
 29 49  1  0
 30 50  1  0
 31 51  1  0
 32 52  1  0
 33 53  1  0
M  CHG  1   3  -1
M  END
>  <UniqueID>  (67) 
59

>  <SMILES>  (67) 
O=C([N-]Cc1ccccn1)c1ccc(S(=O)(=O)Nc2ccc(Oc3ccccc3)cc2)cc1

>  <Energy>  (67) 
68.1930424554734

>  <Genealogy>  (67) 
O=C([N-]Cc1ccccn1)c1ccc(S(=O)(=O)Nc2ccc(Oc3ccccc3)cc2)cc1 (protonated)
O=C([N-]Cc1ccccn1)c1ccc(S(=O)(=O)Nc2ccc(Oc3ccccc3)cc2)cc1 (3D coordinates assigned)
O=C([N-]Cc1ccccn1)c1ccc(S(=O)(=O)Nc2ccc(Oc3ccccc3)cc2)cc1 (optimized conformer: 68.1930424554734 kcal/mol)

>  <smiles>  (67) 
O=C(NCc1ccccn1)c1ccc(S(=O)(=O)Nc2ccc(Oc3ccccc3)cc2)cc1

>  <score_type>  (67) 
oracle

>  <origin>  (67) 
adg

>  <m_score__min__energy>  (67) 
-11.15

>  <m_primary>  (67) 
energy

$$$$
67:0
     RDKit          3D

 32 33  0  0  0  0  0  0  0  0999 V2000
   57.6930   22.7430   45.8340 C   0  0  0  0  0  0  0  0  0  0  0  0
   57.5190   24.2340   45.8440 C   0  0  0  0  0  0  0  0  0  0  0  0
   58.6350   25.0750   45.7260 C   0  0  0  0  0  0  0  0  0  0  0  0
   58.4700   26.4630   45.6970 C   0  0  0  0  0  0  0  0  0  0  0  0
   57.1880   27.0300   45.7560 C   0  0  0  0  0  0  0  0  0  0  0  0
   57.0520   28.4590   45.7320 N   0  0  0  0  0  0  0  0  0  0  0  0
   58.0970   29.3530   46.1510 C   0  0  0  0  0  0  0  0  0  0  0  0
   59.0470   28.9150   46.8560 O   0  0  0  0  0  0  0  0  0  0  0  0
   58.0510   30.7940   45.8020 C   0  0  0  0  0  0  0  0  0  0  0  0
   57.5400   31.2070   44.5630 C   0  0  0  0  0  0  0  0  0  0  0  0
   57.4880   32.5610   44.2450 C   0  0  0  0  0  0  0  0  0  0  0  0
   57.9440   33.5070   45.1670 C   0  0  0  0  0  0  0  0  0  0  0  0
   57.8830   34.7310   44.8690 O   0  0  0  0  0  0  0  0  0  0  0  0
   58.4450   33.1060   46.3780 N   0  0  0  0  0  0  0  0  0  0  0  0
   58.8970   34.1060   47.3530 C   0  0  0  0  0  0  0  0  0  0  0  0
   58.4900   31.7770   46.7060 C   0  0  0  0  0  0  0  0  0  0  0  0
   56.0680   26.1850   45.8880 C   0  0  0  0  0  0  0  0  0  0  0  0
   54.7890   26.7130   46.0210 O   0  0  0  0  0  0  0  0  0  0  0  0
   56.2360   24.7960   45.9130 C   0  0  0  0  0  0  0  0  0  0  0  0
   57.7363   22.3720   46.8686 H   0  0  0  0  0  0  0  0  0  0  0  0
   56.8430   22.2781   45.3130 H   0  0  0  0  0  0  0  0  0  0  0  0
   58.6272   22.4863   45.3130 H   0  0  0  0  0  0  0  0  0  0  0  0
   59.6434   24.6412   45.6560 H   0  0  0  0  0  0  0  0  0  0  0  0
   59.3525   27.1159   45.6273 H   0  0  0  0  0  0  0  0  0  0  0  0
   56.0970   28.8540   45.5820 H   0  0  0  0  0  0  0  0  0  0  0  0
   57.1796   30.4594   43.8411 H   0  0  0  0  0  0  0  0  0  0  0  0
   57.0897   32.8851   43.2722 H   0  0  0  0  0  0  0  0  0  0  0  0
   58.7262   33.7281   48.3718 H   0  0  0  0  0  0  0  0  0  0  0  0
   59.9702   34.2997   47.2089 H   0  0  0  0  0  0  0  0  0  0  0  0
   58.3333   35.0395   47.2089 H   0  0  0  0  0  0  0  0  0  0  0  0
   58.8752   31.4745   47.6909 H   0  0  0  0  0  0  0  0  0  0  0  0
   55.3558   24.1405   45.9873 H   0  0  0  0  0  0  0  0  0  0  0  0
  1  2  1  0
  2  3  2  0
  3  4  1  0
  4  5  2  0
  5  6  1  0
  6  7  1  0
  7  8  2  0
  7  9  1  0
  9 10  1  0
 10 11  2  0
 11 12  1  0
 12 13  2  0
 12 14  1  0
 14 15  1  0
 14 16  1  0
  5 17  1  0
 17 18  1  0
 17 19  2  0
 19  2  1  0
 16  9  2  0
  1 20  1  0
  1 21  1  0
  1 22  1  0
  3 23  1  0
  4 24  1  0
  6 25  1  0
 10 26  1  0
 11 27  1  0
 15 28  1  0
 15 29  1  0
 15 30  1  0
 16 31  1  0
 19 32  1  0
M  CHG  1  18  -1
M  END
>  <UniqueID>  (68) 
60

>  <SMILES>  (68) 
Cc1ccc(NC(=O)c2ccc(=O)n(C)c2)c([O-])c1

>  <Energy>  (68) 
40.92770133526854

>  <Genealogy>  (68) 
Cc1ccc(NC(=O)c2ccc(=O)n(C)c2)c([O-])c1 (protonated)
Cc1ccc(NC(=O)c2ccc(=O)n(C)c2)c([O-])c1 (3D coordinates assigned)
Cc1ccc(NC(=O)c2ccc(=O)n(C)c2)c([O-])c1 (optimized conformer: 40.92770133526854 kcal/mol)

>  <smiles>  (68) 
Cc1ccc(NC(=O)c2ccc(=O)n(C)c2)c(O)c1

>  <score_type>  (68) 
oracle

>  <origin>  (68) 
adg

>  <m_score__min__energy>  (68) 
-10.199999999999999

>  <m_primary>  (68) 
energy

$$$$
68:0
     RDKit          3D

 44 46  0  0  0  0  0  0  0  0999 V2000
   59.7060   35.3350   46.6380 C   0  0  0  0  0  0  0  0  0  0  0  0
   58.8900   34.9110   45.5510 O   0  0  0  0  0  0  0  0  0  0  0  0
   58.4680   33.5890   45.3450 C   0  0  0  0  0  0  0  0  0  0  0  0
   58.6090   32.5910   46.3280 C   0  0  0  0  0  0  0  0  0  0  0  0
   58.1490   31.2930   46.0840 C   0  0  0  0  0  0  0  0  0  0  0  0
   57.5580   30.9730   44.8560 C   0  0  0  0  0  0  0  0  0  0  0  0
   56.9460   29.3430   44.5860 S   0  0  0  0  0  0  0  0  0  0  0  0
   55.5420   29.1990   45.1030 O   0  0  0  0  0  0  0  0  0  0  0  0
   56.9490   29.0620   43.1100 O   0  0  0  0  0  0  0  0  0  0  0  0
   57.9770   28.2020   45.3860 N   0  0  0  0  0  0  0  0  0  0  0  0
   57.5350   26.9720   45.9780 C   0  0  0  0  0  0  0  0  0  0  0  0
   56.3150   26.3700   45.6230 C   0  0  0  0  0  0  0  0  0  0  0  0
   55.9090   25.1850   46.2420 C   0  0  0  0  0  0  0  0  0  0  0  0
   56.7070   24.5920   47.2290 C   0  0  0  0  0  0  0  0  0  0  0  0
   56.2400   23.3720   47.9100 C   0  0  0  0  0  0  0  0  0  0  0  0
   55.1540   23.4040   48.5470 O   0  0  0  0  0  0  0  0  0  0  0  0
   57.0140   22.1640   47.9210 N   0  0  0  0  0  0  0  0  0  0  0  0
   56.8440   21.0310   47.0130 C   0  0  0  0  0  0  0  0  0  0  0  0
   57.0180   21.4540   45.5860 C   0  0  0  0  0  0  0  0  0  0  0  0
   58.1840   21.9640   45.0450 C   0  0  0  0  0  0  0  0  0  0  0  0
   57.9140   22.2160   43.7200 C   0  0  0  0  0  0  0  0  0  0  0  0
   56.6000   21.8460   43.5300 C   0  0  0  0  0  0  0  0  0  0  0  0
   55.9150   21.9330   42.3220 O   0  0  0  0  0  0  0  0  0  0  0  0
   56.0370   21.3830   44.6620 N   0  0  0  0  0  0  0  0  0  0  0  0
   57.9400   25.1740   47.5580 C   0  0  0  0  0  0  0  0  0  0  0  0
   58.3480   26.3570   46.9350 C   0  0  0  0  0  0  0  0  0  0  0  0
   57.4340   31.9600   43.8700 C   0  0  0  0  0  0  0  0  0  0  0  0
   57.8840   33.2610   44.1170 C   0  0  0  0  0  0  0  0  0  0  0  0
   59.2136   35.0791   47.5878 H   0  0  0  0  0  0  0  0  0  0  0  0
   60.6816   34.8297   46.5830 H   0  0  0  0  0  0  0  0  0  0  0  0
   59.8533   36.4237   46.5830 H   0  0  0  0  0  0  0  0  0  0  0  0
   59.0825   32.8329   47.2910 H   0  0  0  0  0  0  0  0  0  0  0  0
   58.2520   30.5204   46.8602 H   0  0  0  0  0  0  0  0  0  0  0  0
   55.6780   26.8335   44.8553 H   0  0  0  0  0  0  0  0  0  0  0  0
   54.9574   24.7151   45.9527 H   0  0  0  0  0  0  0  0  0  0  0  0
   57.5926   20.2619   47.2538 H   0  0  0  0  0  0  0  0  0  0  0  0
   55.8266   20.6319   47.1381 H   0  0  0  0  0  0  0  0  0  0  0  0
   59.1361   22.1340   45.5690 H   0  0  0  0  0  0  0  0  0  0  0  0
   58.6036   22.6274   42.9682 H   0  0  0  0  0  0  0  0  0  0  0  0
   56.2440   22.5390   41.5810 H   0  0  0  0  0  0  0  0  0  0  0  0
   58.5880   24.6980   48.3087 H   0  0  0  0  0  0  0  0  0  0  0  0
   59.3160   26.8075   47.1997 H   0  0  0  0  0  0  0  0  0  0  0  0
   56.9815   31.7113   42.8987 H   0  0  0  0  0  0  0  0  0  0  0  0
   57.7779   34.0321   43.3397 H   0  0  0  0  0  0  0  0  0  0  0  0
  1  2  1  0
  2  3  1  0
  3  4  2  0
  4  5  1  0
  5  6  2  0
  6  7  1  0
  7  8  2  0
  7  9  2  0
  7 10  1  0
 10 11  1  0
 11 12  2  0
 12 13  1  0
 13 14  2  0
 14 15  1  0
 15 16  2  0
 15 17  1  0
 17 18  1  0
 18 19  1  0
 19 20  2  0
 20 21  1  0
 21 22  2  0
 22 23  1  0
 22 24  1  0
 14 25  1  0
 25 26  2  0
  6 27  1  0
 27 28  2  0
 28  3  1  0
 26 11  1  0
 24 19  1  0
  1 29  1  0
  1 30  1  0
  1 31  1  0
  4 32  1  0
  5 33  1  0
 12 34  1  0
 13 35  1  0
 18 36  1  0
 18 37  1  0
 20 38  1  0
 21 39  1  0
 23 40  1  0
 25 41  1  0
 26 42  1  0
 27 43  1  0
 28 44  1  0
M  CHG  3  10  -1  17  -1  24  -1
M  END
>  <UniqueID>  (69) 
61

>  <SMILES>  (69) 
COc1ccc(S(=O)(=O)[N-]c2ccc(C(=O)[N-]Cc3ccc(O)[n-]3)cc2)cc1

>  <Energy>  (69) 
72.4815161298502

>  <Genealogy>  (69) 
COc1ccc(S(=O)(=O)[N-]c2ccc(C(=O)[N-]Cc3ccc(O)[n-]3)cc2)cc1 (protonated)
COc1ccc(S(=O)(=O)[N-]c2ccc(C(=O)[N-]Cc3ccc(O)[n-]3)cc2)cc1 (3D coordinates assigned)
COc1ccc(S(=O)(=O)[N-]c2ccc(C(=O)[N-]Cc3ccc(O)[n-]3)cc2)cc1 (optimized conformer: 72.4815161298502 kcal/mol)

>  <smiles>  (69) 
COc1ccc(S(=O)(=O)Nc2ccc(C(=O)NCc3ccc(O)[nH]3)cc2)cc1

>  <score_type>  (69) 
oracle

>  <origin>  (69) 
adg

>  <m_score__min__energy>  (69) 
-13.359999999999999

>  <m_primary>  (69) 
energy

$$$$
69:0
     RDKit          3D

 34 35  0  0  0  0  0  0  0  0999 V2000
   60.0180   34.2300   48.4660 C   0  0  0  0  0  0  0  0  0  0  0  0
   58.7880   34.3450   47.7590 O   0  0  0  0  0  0  0  0  0  0  0  0
   58.5030   33.6900   46.5510 C   0  0  0  0  0  0  0  0  0  0  0  0
   58.8520   34.3250   45.3540 C   0  0  0  0  0  0  0  0  0  0  0  0
   58.5790   33.7180   44.1260 C   0  0  0  0  0  0  0  0  0  0  0  0
   57.9640   32.4650   44.0830 C   0  0  0  0  0  0  0  0  0  0  0  0
   57.6270   31.7990   45.2740 C   0  0  0  0  0  0  0  0  0  0  0  0
   56.9700   30.5210   45.2580 N   0  0  0  0  0  0  0  0  0  0  0  0
   57.6480   29.2640   45.4130 C   0  0  0  0  0  0  0  0  0  0  0  0
   58.8470   29.2340   45.8070 O   0  0  0  0  0  0  0  0  0  0  0  0
   56.9350   28.0420   45.1700 N   0  0  0  0  0  0  0  0  0  0  0  0
   57.5430   26.7390   45.2130 C   0  0  0  0  0  0  0  0  0  0  0  0
   58.7990   26.6280   45.1940 O   0  0  0  0  0  0  0  0  0  0  0  0
   56.7110   25.5140   45.2240 C   0  0  0  0  0  0  0  0  0  0  0  0
   57.2780   24.2880   44.8460 C   0  0  0  0  0  0  0  0  0  0  0  0
   56.5060   23.1240   44.8440 C   0  0  0  0  0  0  0  0  0  0  0  0
   57.2310   21.6000   44.3520 Cl  0  0  0  0  0  0  0  0  0  0  0  0
   55.1620   23.1950   45.2300 C   0  0  0  0  0  0  0  0  0  0  0  0
   54.4480   22.1570   45.2310 O   0  0  0  0  0  0  0  0  0  0  0  0
   54.6260   24.3870   45.6120 N   0  0  0  0  0  0  0  0  0  0  0  0
   55.3610   25.5330   45.6280 C   0  0  0  0  0  0  0  0  0  0  0  0
   54.7680   26.7100   46.0750 O   0  0  0  0  0  0  0  0  0  0  0  0
   57.8820   32.4260   46.5040 C   0  0  0  0  0  0  0  0  0  0  0  0
   59.8220   34.2483   49.5482 H   0  0  0  0  0  0  0  0  0  0  0  0
   60.5077   33.2822   48.1981 H   0  0  0  0  0  0  0  0  0  0  0  0
   60.6749   35.0706   48.1981 H   0  0  0  0  0  0  0  0  0  0  0  0
   59.3444   35.3083   45.3802 H   0  0  0  0  0  0  0  0  0  0  0  0
   58.8493   34.2285   43.1899 H   0  0  0  0  0  0  0  0  0  0  0  0
   57.7423   31.9970   43.1125 H   0  0  0  0  0  0  0  0  0  0  0  0
   55.9260   30.5050   45.2160 H   0  0  0  0  0  0  0  0  0  0  0  0
   55.9270   28.1120   44.9030 H   0  0  0  0  0  0  0  0  0  0  0  0
   58.3363   24.2430   44.5495 H   0  0  0  0  0  0  0  0  0  0  0  0
   53.6250   24.4240   45.9120 H   0  0  0  0  0  0  0  0  0  0  0  0
   57.5942   31.9256   47.4403 H   0  0  0  0  0  0  0  0  0  0  0  0
  1  2  1  0
  2  3  1  0
  3  4  2  0
  4  5  1  0
  5  6  2  0
  6  7  1  0
  7  8  1  0
  8  9  1  0
  9 10  2  0
  9 11  1  0
 11 12  1  0
 12 13  2  0
 12 14  1  0
 14 15  1  0
 15 16  2  0
 16 17  1  0
 16 18  1  0
 18 19  2  0
 18 20  1  0
 20 21  1  0
 21 22  1  0
  7 23  2  0
 23  3  1  0
 21 14  2  0
  1 24  1  0
  1 25  1  0
  1 26  1  0
  4 27  1  0
  5 28  1  0
  6 29  1  0
  8 30  1  0
 11 31  1  0
 15 32  1  0
 20 33  1  0
 23 34  1  0
M  CHG  1  22  -1
M  END
>  <UniqueID>  (70) 
62

>  <SMILES>  (70) 
COc1cccc(NC(=O)NC(=O)c2cc(Cl)c(=O)[nH]c2[O-])c1

>  <Energy>  (70) 
42.80078887973666

>  <Genealogy>  (70) 
COc1cccc(NC(=O)NC(=O)c2cc(Cl)c(=O)[nH]c2[O-])c1 (protonated)
COc1cccc(NC(=O)NC(=O)c2cc(Cl)c(=O)[nH]c2[O-])c1 (3D coordinates assigned)
COc1cccc(NC(=O)NC(=O)c2cc(Cl)c(=O)[nH]c2[O-])c1 (optimized conformer: 42.80078887973666 kcal/mol)

>  <smiles>  (70) 
COc1cccc(NC(=O)NC(=O)c2cc(Cl)c(=O)[nH]c2O)c1

>  <score_type>  (70) 
oracle

>  <origin>  (70) 
adg

>  <m_score__min__energy>  (70) 
-10.619999999999999

>  <m_primary>  (70) 
energy

$$$$
70:0
     RDKit          3D

 49 53  0  0  0  0  0  0  0  0999 V2000
   56.0580   28.9950   45.2420 O   0  0  0  0  0  0  0  0  0  0  0  0
   56.8490   29.7590   44.6280 C   0  0  0  0  0  0  0  0  0  0  0  0
   56.5270   31.1490   44.5180 N   0  0  0  0  0  0  0  0  0  0  0  0
   57.3920   32.2360   44.8760 C   0  0  0  0  0  0  0  0  0  0  0  0
   57.0290   33.5360   44.5130 C   0  0  0  0  0  0  0  0  0  0  0  0
   57.8310   34.6190   44.8790 C   0  0  0  0  0  0  0  0  0  0  0  0
   58.9890   34.4130   45.6320 C   0  0  0  0  0  0  0  0  0  0  0  0
   59.3580   33.1160   46.0340 C   0  0  0  0  0  0  0  0  0  0  0  0
   60.5690   32.8990   46.8680 C   0  0  0  0  0  0  0  0  0  0  0  0
   60.6170   31.8490   47.8020 C   0  0  0  0  0  0  0  0  0  0  0  0
   61.7550   31.6450   48.5860 C   0  0  0  0  0  0  0  0  0  0  0  0
   62.8710   32.4890   48.4570 C   0  0  0  0  0  0  0  0  0  0  0  0
   64.0760   32.2730   49.2880 C   0  0  0  0  0  0  0  0  0  0  0  0
   65.1450   33.1160   49.2730 N   0  0  0  0  0  0  0  0  0  0  0  0
   65.9820   32.5470   50.1530 C   0  0  0  0  0  0  0  0  0  0  0  0
   67.2450   32.9900   50.5380 C   0  0  0  0  0  0  0  0  0  0  0  0
   67.9450   32.2210   51.4870 C   0  0  0  0  0  0  0  0  0  0  0  0
   67.3670   31.0440   52.0190 C   0  0  0  0  0  0  0  0  0  0  0  0
   66.0870   30.6290   51.6050 C   0  0  0  0  0  0  0  0  0  0  0  0
   65.4270   31.4160   50.6640 C   0  0  0  0  0  0  0  0  0  0  0  0
   64.2130   31.2150   50.1330 N   0  0  0  0  0  0  0  0  0  0  0  0
   62.8240   33.5400   47.5270 C   0  0  0  0  0  0  0  0  0  0  0  0
   61.6860   33.7430   46.7420 C   0  0  0  0  0  0  0  0  0  0  0  0
   58.5480   32.0290   45.6490 C   0  0  0  0  0  0  0  0  0  0  0  0
   58.0190   29.2220   43.9910 N   0  0  0  0  0  0  0  0  0  0  0  0
   58.4270   27.8300   44.2250 C   0  0  0  0  0  0  0  0  0  0  0  0
   59.5960   27.6090   45.2150 C   0  0  0  0  0  0  0  0  0  0  0  0
   59.7490   28.5380   46.4100 C   0  0  0  0  0  0  0  0  0  0  0  0
   60.7200   28.6340   45.2360 C   0  0  0  0  0  0  0  0  0  0  0  0
   56.1078   33.7067   43.9366 H   0  0  0  0  0  0  0  0  0  0  0  0
   57.5498   35.6375   44.5733 H   0  0  0  0  0  0  0  0  0  0  0  0
   59.6173   35.2711   45.9129 H   0  0  0  0  0  0  0  0  0  0  0  0
   59.7500   31.1818   47.9164 H   0  0  0  0  0  0  0  0  0  0  0  0
   61.7777   30.8172   49.3100 H   0  0  0  0  0  0  0  0  0  0  0  0
   67.6800   33.9078   50.1157 H   0  0  0  0  0  0  0  0  0  0  0  0
   68.9459   32.5366   51.8165 H   0  0  0  0  0  0  0  0  0  0  0  0
   67.9211   30.4497   52.7605 H   0  0  0  0  0  0  0  0  0  0  0  0
   65.6249   29.7165   52.0098 H   0  0  0  0  0  0  0  0  0  0  0  0
   63.6901   34.2090   47.4155 H   0  0  0  0  0  0  0  0  0  0  0  0
   61.6640   34.5713   46.0185 H   0  0  0  0  0  0  0  0  0  0  0  0
   58.8227   31.0091   45.9561 H   0  0  0  0  0  0  0  0  0  0  0  0
   58.5320   29.8490   43.3370 H   0  0  0  0  0  0  0  0  0  0  0  0
   57.5530   27.2866   44.6135 H   0  0  0  0  0  0  0  0  0  0  0  0
   58.7961   27.4682   43.2540 H   0  0  0  0  0  0  0  0  0  0  0  0
   59.5317   26.5177   45.0929 H   0  0  0  0  0  0  0  0  0  0  0  0
   59.0139   29.3378   46.5830 H   0  0  0  0  0  0  0  0  0  0  0  0
   59.8522   28.3986   47.4962 H   0  0  0  0  0  0  0  0  0  0  0  0
   60.6850   29.5030   44.5625 H   0  0  0  0  0  0  0  0  0  0  0  0
   61.8136   28.5925   45.1248 H   0  0  0  0  0  0  0  0  0  0  0  0
  1  2  2  0
  2  3  1  0
  3  4  1  0
  4  5  2  0
  5  6  1  0
  6  7  2  0
  7  8  1  0
  8  9  1  0
  9 10  2  0
 10 11  1  0
 11 12  2  0
 12 13  1  0
 13 14  2  0
 14 15  1  0
 15 16  2  0
 16 17  1  0
 17 18  2  0
 18 19  1  0
 19 20  2  0
 20 21  1  0
 12 22  1  0
 22 23  2  0
  8 24  2  0
  2 25  1  0
 25 26  1  0
 26 27  1  0
 27 28  1  0
 28 29  1  0
 24  4  1  0
 29 27  1  0
 23  9  1  0
 21 13  1  0
 20 15  1  0
  5 30  1  0
  6 31  1  0
  7 32  1  0
 10 33  1  0
 11 34  1  0
 16 35  1  0
 17 36  1  0
 18 37  1  0
 19 38  1  0
 22 39  1  0
 23 40  1  0
 24 41  1  0
 25 42  1  0
 26 43  1  0
 26 44  1  0
 27 45  1  0
 28 46  1  0
 28 47  1  0
 29 48  1  0
 29 49  1  0
M  CHG  2   3  -1  21  -1
M  END
>  <UniqueID>  (71) 
63

>  <SMILES>  (71) 
O=C([N-]c1cccc(-c2ccc(-c3nc4ccccc4[n-]3)cc2)c1)NCC1CC1

>  <Energy>  (71) 
365.14818958857495

>  <Genealogy>  (71) 
O=C([N-]c1cccc(-c2ccc(-c3nc4ccccc4[n-]3)cc2)c1)NCC1CC1 (protonated)
O=C([N-]c1cccc(-c2ccc(-c3nc4ccccc4[n-]3)cc2)c1)NCC1CC1 (3D coordinates assigned)
O=C([N-]c1cccc(-c2ccc(-c3nc4ccccc4[n-]3)cc2)c1)NCC1CC1 (nonaromatic ring conformer: 365.14818958857495 kcal/mol)

>  <smiles>  (71) 
O=C(NCC1CC1)Nc1cccc(-c2ccc(-c3nc4ccccc4[nH]3)cc2)c1

>  <score_type>  (71) 
oracle

>  <origin>  (71) 
adg

>  <m_score__min__energy>  (71) 
-11.529999999999999

>  <m_primary>  (71) 
energy

$$$$
71:0
     RDKit          3D

 52 54  0  0  0  0  0  0  0  0999 V2000
   59.4600   34.6190   45.9610 C   0  0  0  0  0  0  0  0  0  0  0  0
   58.1120   34.2800   46.2040 O   0  0  0  0  0  0  0  0  0  0  0  0
   57.3930   34.1980   44.9870 C   0  0  0  0  0  0  0  0  0  0  0  0
   57.8420   32.9940   44.1590 C   0  0  0  0  0  0  0  0  0  0  0  0
   57.0010   31.8810   44.4480 O   0  0  0  0  0  0  0  0  0  0  0  0
   57.4310   30.6990   45.0660 C   0  0  0  0  0  0  0  0  0  0  0  0
   56.9580   29.4820   44.5710 C   0  0  0  0  0  0  0  0  0  0  0  0
   57.3460   28.2760   45.1580 C   0  0  0  0  0  0  0  0  0  0  0  0
   58.2330   28.2580   46.2530 C   0  0  0  0  0  0  0  0  0  0  0  0
   58.6210   26.9510   46.8530 C   0  0  0  0  0  0  0  0  0  0  0  0
   59.7800   26.8040   47.3360 O   0  0  0  0  0  0  0  0  0  0  0  0
   57.6720   25.8800   46.9450 N   0  0  0  0  0  0  0  0  0  0  0  0
   57.5360   24.7770   46.0350 C   0  0  0  0  0  0  0  0  0  0  0  0
   58.6600   24.0070   45.6780 C   0  0  0  0  0  0  0  0  0  0  0  0
   58.5430   22.9520   44.7750 C   0  0  0  0  0  0  0  0  0  0  0  0
   57.3090   22.6630   44.1930 C   0  0  0  0  0  0  0  0  0  0  0  0
   57.1650   21.3300   43.0630 Cl  0  0  0  0  0  0  0  0  0  0  0  0
   56.1890   23.4360   44.5090 C   0  0  0  0  0  0  0  0  0  0  0  0
   56.2820   24.5050   45.4210 C   0  0  0  0  0  0  0  0  0  0  0  0
   55.0550   25.2940   45.7250 C   0  0  0  0  0  0  0  0  0  0  0  0
   53.9170   24.7560   45.7470 O   0  0  0  0  0  0  0  0  0  0  0  0
   55.1510   26.6540   46.0010 O   0  0  0  0  0  0  0  0  0  0  0  0
   58.7250   29.4890   46.7630 C   0  0  0  0  0  0  0  0  0  0  0  0
   59.5930   29.4900   47.8730 O   0  0  0  0  0  0  0  0  0  0  0  0
   61.0110   29.6740   47.8250 C   0  0  0  0  0  0  0  0  0  0  0  0
   61.3600   31.1300   47.9860 C   0  0  0  0  0  0  0  0  0  0  0  0
   60.4480   31.9990   48.6140 C   0  0  0  0  0  0  0  0  0  0  0  0
   60.7480   33.3580   48.7450 C   0  0  0  0  0  0  0  0  0  0  0  0
   61.9600   33.8570   48.2590 C   0  0  0  0  0  0  0  0  0  0  0  0
   62.8730   32.9970   47.6390 C   0  0  0  0  0  0  0  0  0  0  0  0
   62.5800   31.6380   47.5110 C   0  0  0  0  0  0  0  0  0  0  0  0
   58.3200   30.6960   46.1540 C   0  0  0  0  0  0  0  0  0  0  0  0
   59.9835   34.7506   46.9195 H   0  0  0  0  0  0  0  0  0  0  0  0
   59.9427   33.8143   45.3871 H   0  0  0  0  0  0  0  0  0  0  0  0
   59.5046   35.5563   45.3871 H   0  0  0  0  0  0  0  0  0  0  0  0
   56.3203   34.1000   45.2100 H   0  0  0  0  0  0  0  0  0  0  0  0
   57.5868   35.1117   44.4060 H   0  0  0  0  0  0  0  0  0  0  0  0
   57.7727   33.2382   43.0887 H   0  0  0  0  0  0  0  0  0  0  0  0
   58.8831   32.7429   44.4102 H   0  0  0  0  0  0  0  0  0  0  0  0
   56.2731   29.4733   43.7103 H   0  0  0  0  0  0  0  0  0  0  0  0
   56.9544   27.3279   44.7607 H   0  0  0  0  0  0  0  0  0  0  0  0
   59.6412   24.2410   46.1168 H   0  0  0  0  0  0  0  0  0  0  0  0
   59.4253   22.3463   44.5209 H   0  0  0  0  0  0  0  0  0  0  0  0
   55.2213   23.2065   44.0390 H   0  0  0  0  0  0  0  0  0  0  0  0
   61.4784   29.0978   48.6371 H   0  0  0  0  0  0  0  0  0  0  0  0
   61.3821   29.3251   46.8500 H   0  0  0  0  0  0  0  0  0  0  0  0
   59.4964   31.6075   49.0028 H   0  0  0  0  0  0  0  0  0  0  0  0
   60.0300   34.0351   49.2308 H   0  0  0  0  0  0  0  0  0  0  0  0
   62.1960   34.9262   48.3641 H   0  0  0  0  0  0  0  0  0  0  0  0
   63.8236   33.3924   47.2516 H   0  0  0  0  0  0  0  0  0  0  0  0
   63.3073   30.9628   47.0364 H   0  0  0  0  0  0  0  0  0  0  0  0
   58.7072   31.6513   46.5379 H   0  0  0  0  0  0  0  0  0  0  0  0
  1  2  1  0
  2  3  1  0
  3  4  1  0
  4  5  1  0
  5  6  1  0
  6  7  2  0
  7  8  1  0
  8  9  2  0
  9 10  1  0
 10 11  2  0
 10 12  1  0
 12 13  1  0
 13 14  2  0
 14 15  1  0
 15 16  2  0
 16 17  1  0
 16 18  1  0
 18 19  2  0
 19 20  1  0
 20 21  2  0
 20 22  1  0
  9 23  1  0
 23 24  1  0
 24 25  1  0
 25 26  1  0
 26 27  2  0
 27 28  1  0
 28 29  2  0
 29 30  1  0
 30 31  2  0
 23 32  2  0
 32  6  1  0
 19 13  1  0
 31 26  1  0
  1 33  1  0
  1 34  1  0
  1 35  1  0
  3 36  1  0
  3 37  1  0
  4 38  1  0
  4 39  1  0
  7 40  1  0
  8 41  1  0
 14 42  1  0
 15 43  1  0
 18 44  1  0
 25 45  1  0
 25 46  1  0
 27 47  1  0
 28 48  1  0
 29 49  1  0
 30 50  1  0
 31 51  1  0
 32 52  1  0
M  CHG  2  12  -1  22  -1
M  END
>  <UniqueID>  (72) 
64

>  <SMILES>  (72) 
COCCOc1ccc(C(=O)[N-]c2ccc(Cl)cc2C(=O)[O-])c(OCc2ccccc2)c1

>  <Energy>  (72) 
63.06317410417215

>  <Genealogy>  (72) 
COCCOc1ccc(C(=O)[N-]c2ccc(Cl)cc2C(=O)[O-])c(OCc2ccccc2)c1 (protonated)
COCCOc1ccc(C(=O)[N-]c2ccc(Cl)cc2C(=O)[O-])c(OCc2ccccc2)c1 (3D coordinates assigned)
COCCOc1ccc(C(=O)[N-]c2ccc(Cl)cc2C(=O)[O-])c(OCc2ccccc2)c1 (optimized conformer: 63.06317410417215 kcal/mol)

>  <smiles>  (72) 
COCCOc1ccc(C(=O)Nc2ccc(Cl)cc2C(=O)O)c(OCc2ccccc2)c1

>  <score_type>  (72) 
oracle

>  <origin>  (72) 
adg

>  <m_score__min__energy>  (72) 
-12.07

>  <m_primary>  (72) 
energy

$$$$
72:0
     RDKit          3D

 46 49  0  0  0  0  0  0  0  0999 V2000
   54.7630   29.6110   43.4340 O   0  0  0  0  0  0  0  0  0  0  0  0
   55.7440   29.6900   44.2200 C   0  0  0  0  0  0  0  0  0  0  0  0
   55.8980   28.7240   45.2600 N   0  0  0  0  0  0  0  0  0  0  0  0
   57.0010   27.7740   45.2620 C   0  0  0  0  0  0  0  0  0  0  0  0
   58.2610   28.4720   45.6850 C   0  0  0  0  0  0  0  0  0  0  0  0
   59.3780   28.5020   44.8360 C   0  0  0  0  0  0  0  0  0  0  0  0
   60.5040   29.2380   45.2130 C   0  0  0  0  0  0  0  0  0  0  0  0
   60.5050   29.9350   46.4220 C   0  0  0  0  0  0  0  0  0  0  0  0
   59.3730   29.8880   47.2390 C   0  0  0  0  0  0  0  0  0  0  0  0
   58.2830   29.1720   46.8530 N   0  0  0  0  0  0  0  0  0  0  0  0
   56.7110   30.7960   44.1100 C   0  0  0  0  0  0  0  0  0  0  0  0
   57.2230   31.2080   42.8710 C   0  0  0  0  0  0  0  0  0  0  0  0
   58.0990   32.2920   42.8190 C   0  0  0  0  0  0  0  0  0  0  0  0
   58.4500   32.9640   43.9920 C   0  0  0  0  0  0  0  0  0  0  0  0
   57.9130   32.5340   45.2160 C   0  0  0  0  0  0  0  0  0  0  0  0
   58.2030   33.1970   46.4510 N   0  0  0  0  0  0  0  0  0  0  0  0
   59.4320   34.4000   46.6810 S   0  0  0  0  0  0  0  0  0  0  0  0
   59.0030   35.3570   47.7570 O   0  0  0  0  0  0  0  0  0  0  0  0
   59.6490   35.1350   45.3890 O   0  0  0  0  0  0  0  0  0  0  0  0
   60.9370   33.6270   47.1740 C   0  0  0  0  0  0  0  0  0  0  0  0
   62.1070   33.8060   46.4180 C   0  0  0  0  0  0  0  0  0  0  0  0
   63.2970   33.1770   46.8000 C   0  0  0  0  0  0  0  0  0  0  0  0
   63.3310   32.3750   47.9440 C   0  0  0  0  0  0  0  0  0  0  0  0
   62.1740   32.1970   48.7050 C   0  0  0  0  0  0  0  0  0  0  0  0
   60.9690   32.8000   48.3080 C   0  0  0  0  0  0  0  0  0  0  0  0
   59.8160   32.5580   49.0640 O   0  0  0  0  0  0  0  0  0  0  0  0
   59.7740   31.5120   50.0390 C   0  0  0  0  0  0  0  0  0  0  0  0
   61.1080   31.4390   50.7920 C   0  0  0  0  0  0  0  0  0  0  0  0
   62.1960   31.4180   49.8670 O   0  0  0  0  0  0  0  0  0  0  0  0
   57.0740   31.4670   45.2370 N   0  0  0  0  0  0  0  0  0  0  0  0
   56.7804   26.9573   45.9651 H   0  0  0  0  0  0  0  0  0  0  0  0
   57.1318   27.3615   44.2507 H   0  0  0  0  0  0  0  0  0  0  0  0
   59.3671   27.9517   43.8836 H   0  0  0  0  0  0  0  0  0  0  0  0
   61.3876   29.2680   44.5585 H   0  0  0  0  0  0  0  0  0  0  0  0
   61.3879   30.5153   46.7283 H   0  0  0  0  0  0  0  0  0  0  0  0
   59.3631   30.4307   48.1957 H   0  0  0  0  0  0  0  0  0  0  0  0
   56.9364   30.6811   41.9489 H   0  0  0  0  0  0  0  0  0  0  0  0
   58.5137   32.6179   41.8537 H   0  0  0  0  0  0  0  0  0  0  0  0
   59.1394   33.8205   43.9573 H   0  0  0  0  0  0  0  0  0  0  0  0
   62.0877   34.4434   45.5217 H   0  0  0  0  0  0  0  0  0  0  0  0
   64.2078   33.3140   46.1986 H   0  0  0  0  0  0  0  0  0  0  0  0
   64.2685   31.8844   48.2447 H   0  0  0  0  0  0  0  0  0  0  0  0
   58.9631   31.7139   50.7543 H   0  0  0  0  0  0  0  0  0  0  0  0
   59.5948   30.5531   49.5306 H   0  0  0  0  0  0  0  0  0  0  0  0
   61.2044   32.3179   51.4464 H   0  0  0  0  0  0  0  0  0  0  0  0
   61.1306   30.5184   51.3937 H   0  0  0  0  0  0  0  0  0  0  0  0
  1  2  2  0
  2  3  1  0
  3  4  1  0
  4  5  1  0
  5  6  2  0
  6  7  1  0
  7  8  2  0
  8  9  1  0
  9 10  2  0
  2 11  1  0
 11 12  2  0
 12 13  1  0
 13 14  2  0
 14 15  1  0
 15 16  1  0
 16 17  1  0
 17 18  2  0
 17 19  2  0
 17 20  1  0
 20 21  2  0
 21 22  1  0
 22 23  2  0
 23 24  1  0
 24 25  2  0
 25 26  1  0
 26 27  1  0
 27 28  1  0
 28 29  1  0
 15 30  2  0
 10  5  1  0
 30 11  1  0
 25 20  1  0
 29 24  1  0
  4 31  1  0
  4 32  1  0
  6 33  1  0
  7 34  1  0
  8 35  1  0
  9 36  1  0
 12 37  1  0
 13 38  1  0
 14 39  1  0
 21 40  1  0
 22 41  1  0
 23 42  1  0
 27 43  1  0
 27 44  1  0
 28 45  1  0
 28 46  1  0
M  CHG  2   3  -1  16  -1
M  END
>  <UniqueID>  (73) 
65

>  <SMILES>  (73) 
O=C([N-]Cc1ccccn1)c1cccc([N-]S(=O)(=O)c2cccc3c2OCCO3)n1

>  <Energy>  (73) 
59.398855764573575

>  <Genealogy>  (73) 
O=C([N-]Cc1ccccn1)c1cccc([N-]S(=O)(=O)c2cccc3c2OCCO3)n1 (protonated)
O=C([N-]Cc1ccccn1)c1cccc([N-]S(=O)(=O)c2cccc3c2OCCO3)n1 (3D coordinates assigned)
O=C([N-]Cc1ccccn1)c1cccc([N-]S(=O)(=O)c2cccc3c2OCCO3)n1 (nonaromatic ring conformer: 59.398855764573575 kcal/mol)

>  <smiles>  (73) 
O=C(NCc1ccccn1)c1cccc(NS(=O)(=O)c2cccc3c2OCCO3)n1

>  <score_type>  (73) 
oracle

>  <origin>  (73) 
adg

>  <m_score__min__energy>  (73) 
-12.4

>  <m_primary>  (73) 
energy

$$$$
73:0
     RDKit          3D

 52 54  0  0  0  0  0  0  0  0999 V2000
   61.2270   32.1900   51.2980 N   0  0  0  0  0  0  0  0  0  0  0  0
   60.1930   31.3490   50.7620 C   0  0  0  0  0  0  0  0  0  0  0  0
   58.9390   31.3920   51.3820 C   0  0  0  0  0  0  0  0  0  0  0  0
   57.9400   30.5400   50.9430 C   0  0  0  0  0  0  0  0  0  0  0  0
   56.8170   30.5300   51.5100 O   0  0  0  0  0  0  0  0  0  0  0  0
   58.1720   29.7260   49.8910 N   0  0  0  0  0  0  0  0  0  0  0  0
   59.3640   29.7150   49.2400 C   0  0  0  0  0  0  0  0  0  0  0  0
   59.4960   28.6430   47.7870 S   0  0  0  0  0  0  0  0  0  0  0  0
   58.5730   29.7180   46.6200 C   0  0  0  0  0  0  0  0  0  0  0  0
   57.4120   29.0170   45.9920 C   0  0  0  0  0  0  0  0  0  0  0  0
   57.2900   27.7690   46.1140 O   0  0  0  0  0  0  0  0  0  0  0  0
   56.4580   29.7660   45.2350 N   0  0  0  0  0  0  0  0  0  0  0  0
   56.7810   30.4450   43.9860 C   0  0  0  0  0  0  0  0  0  0  0  0
   57.7180   31.6270   44.2530 C   0  0  0  0  0  0  0  0  0  0  0  0
   57.0370   32.7910   44.9880 C   0  0  0  0  0  0  0  0  0  0  0  0
   57.9440   33.4260   46.0090 C   0  0  0  0  0  0  0  0  0  0  0  0
   58.0410   32.8880   47.3020 C   0  0  0  0  0  0  0  0  0  0  0  0
   58.9020   33.4620   48.2420 C   0  0  0  0  0  0  0  0  0  0  0  0
   59.6740   34.5750   47.8960 C   0  0  0  0  0  0  0  0  0  0  0  0
   59.5890   35.1130   46.6100 C   0  0  0  0  0  0  0  0  0  0  0  0
   58.7290   34.5410   45.6670 C   0  0  0  0  0  0  0  0  0  0  0  0
   60.4140   30.4930   49.6970 N   0  0  0  0  0  0  0  0  0  0  0  0
   61.7810   30.3220   49.1480 C   0  0  0  0  0  0  0  0  0  0  0  0
   62.3220   31.5930   48.5350 C   0  0  0  0  0  0  0  0  0  0  0  0
   63.3960   32.2780   49.1330 C   0  0  0  0  0  0  0  0  0  0  0  0
   63.9110   33.4390   48.5470 C   0  0  0  0  0  0  0  0  0  0  0  0
   63.3780   33.9110   47.3460 C   0  0  0  0  0  0  0  0  0  0  0  0
   62.3400   33.2160   46.7220 C   0  0  0  0  0  0  0  0  0  0  0  0
   61.8220   32.0570   47.3100 C   0  0  0  0  0  0  0  0  0  0  0  0
   61.8180   31.9250   52.1110 H   0  0  0  0  0  0  0  0  0  0  0  0
   61.3770   33.1500   50.9140 H   0  0  0  0  0  0  0  0  0  0  0  0
   58.7496   32.0938   52.2076 H   0  0  0  0  0  0  0  0  0  0  0  0
   58.2005   30.5958   47.1684 H   0  0  0  0  0  0  0  0  0  0  0  0
   59.2640   30.0075   45.8146 H   0  0  0  0  0  0  0  0  0  0  0  0
   57.2749   29.7366   43.3046 H   0  0  0  0  0  0  0  0  0  0  0  0
   55.8523   30.8192   43.5305 H   0  0  0  0  0  0  0  0  0  0  0  0
   58.5603   31.2729   44.8655 H   0  0  0  0  0  0  0  0  0  0  0  0
   58.0467   32.0083   43.2750 H   0  0  0  0  0  0  0  0  0  0  0  0
   56.7447   33.5532   44.2507 H   0  0  0  0  0  0  0  0  0  0  0  0
   56.1601   32.3900   45.5174 H   0  0  0  0  0  0  0  0  0  0  0  0
   57.4368   32.0108   47.5768 H   0  0  0  0  0  0  0  0  0  0  0  0
   58.9721   33.0377   49.2544 H   0  0  0  0  0  0  0  0  0  0  0  0
   60.3490   35.0274   48.6374 H   0  0  0  0  0  0  0  0  0  0  0  0
   60.1989   35.9873   46.3386 H   0  0  0  0  0  0  0  0  0  0  0  0
   58.6666   34.9651   44.6540 H   0  0  0  0  0  0  0  0  0  0  0  0
   62.4516   30.0099   49.9622 H   0  0  0  0  0  0  0  0  0  0  0  0
   61.7293   29.5634   48.3531 H   0  0  0  0  0  0  0  0  0  0  0  0
   63.8336   31.8978   50.0678 H   0  0  0  0  0  0  0  0  0  0  0  0
   64.7363   33.9804   49.0326 H   0  0  0  0  0  0  0  0  0  0  0  0
   63.7757   34.8303   46.8914 H   0  0  0  0  0  0  0  0  0  0  0  0
   61.9297   33.5797   45.7684 H   0  0  0  0  0  0  0  0  0  0  0  0
   61.0149   31.5046   46.8066 H   0  0  0  0  0  0  0  0  0  0  0  0
  1  2  1  0
  2  3  2  0
  3  4  1  0
  4  5  2  0
  4  6  1  0
  6  7  2  0
  7  8  1  0
  8  9  1  0
  9 10  1  0
 10 11  2  0
 10 12  1  0
 12 13  1  0
 13 14  1  0
 14 15  1  0
 15 16  1  0
 16 17  2  0
 17 18  1  0
 18 19  2  0
 19 20  1  0
 20 21  2  0
  7 22  1  0
 22 23  1  0
 23 24  1  0
 24 25  2  0
 25 26  1  0
 26 27  2  0
 27 28  1  0
 28 29  2  0
 22  2  1  0
 29 24  1  0
 21 16  1  0
  1 30  1  0
  1 31  1  0
  3 32  1  0
  9 33  1  0
  9 34  1  0
 13 35  1  0
 13 36  1  0
 14 37  1  0
 14 38  1  0
 15 39  1  0
 15 40  1  0
 17 41  1  0
 18 42  1  0
 19 43  1  0
 20 44  1  0
 21 45  1  0
 23 46  1  0
 23 47  1  0
 25 48  1  0
 26 49  1  0
 27 50  1  0
 28 51  1  0
 29 52  1  0
M  CHG  1  12  -1
M  END
>  <UniqueID>  (74) 
66

>  <SMILES>  (74) 
Nc1cc(=O)nc(SCC(=O)[N-]CCCc2ccccc2)n1Cc1ccccc1

>  <Energy>  (74) 
51.486716428439244

>  <Genealogy>  (74) 
Nc1cc(=O)nc(SCC(=O)[N-]CCCc2ccccc2)n1Cc1ccccc1 (protonated)
Nc1cc(=O)nc(SCC(=O)[N-]CCCc2ccccc2)n1Cc1ccccc1 (3D coordinates assigned)
Nc1cc(=O)nc(SCC(=O)[N-]CCCc2ccccc2)n1Cc1ccccc1 (optimized conformer: 51.486716428439244 kcal/mol)

>  <smiles>  (74) 
Nc1cc(=O)nc(SCC(=O)NCCCc2ccccc2)n1Cc1ccccc1

>  <score_type>  (74) 
oracle

>  <origin>  (74) 
adg

>  <m_score__min__energy>  (74) 
-10.44

>  <m_primary>  (74) 
energy

$$$$
74:0
     RDKit          3D

 38 40  0  0  0  0  0  0  0  0999 V2000
   59.8010   34.5250   48.7760 H   0  0  0  0  0  0  0  0  0  0  0  0
   59.7850   34.8690   47.8240 O   0  0  0  0  0  0  0  0  0  0  0  0
   59.0170   34.2690   46.8230 C   0  0  0  0  0  0  0  0  0  0  0  0
   59.1000   34.7610   45.5180 C   0  0  0  0  0  0  0  0  0  0  0  0
   59.7638   35.6084   45.2918 H   0  0  0  0  0  0  0  0  0  0  0  0
   58.3420   34.1790   44.5010 C   0  0  0  0  0  0  0  0  0  0  0  0
   58.4032   34.5628   43.4719 H   0  0  0  0  0  0  0  0  0  0  0  0
   57.5060   33.1050   44.8050 C   0  0  0  0  0  0  0  0  0  0  0  0
   56.9041   32.6360   44.0127 H   0  0  0  0  0  0  0  0  0  0  0  0
   57.4340   32.6370   46.0790 N   0  0  0  0  0  0  0  0  0  0  0  0
   58.1620   33.1840   47.0950 C   0  0  0  0  0  0  0  0  0  0  0  0
   58.0770   32.7170   48.3090 N   0  0  0  0  0  0  0  0  0  0  0  0
   59.1360   32.1500   49.1010 C   0  0  0  0  0  0  0  0  0  0  0  0
   59.6320   32.7940   50.0660 O   0  0  0  0  0  0  0  0  0  0  0  0
   59.6500   30.7960   48.7800 C   0  0  0  0  0  0  0  0  0  0  0  0
   59.7600   29.8190   49.7850 C   0  0  0  0  0  0  0  0  0  0  0  0
   59.4582   30.0582   50.8154 H   0  0  0  0  0  0  0  0  0  0  0  0
   60.2500   28.5470   49.4830 C   0  0  0  0  0  0  0  0  0  0  0  0
   60.3364   27.7912   50.2776 H   0  0  0  0  0  0  0  0  0  0  0  0
   60.6310   28.2290   48.1780 C   0  0  0  0  0  0  0  0  0  0  0  0
   61.0228   27.2268   47.9497 H   0  0  0  0  0  0  0  0  0  0  0  0
   60.5150   29.1880   47.1530 C   0  0  0  0  0  0  0  0  0  0  0  0
   60.9000   28.9250   45.7930 N   0  0  0  0  0  0  0  0  0  0  0  0
   60.1890   28.3190   44.8890 C   0  0  0  0  0  0  0  0  0  0  0  0
   60.6203   28.1281   43.8953 H   0  0  0  0  0  0  0  0  0  0  0  0
   58.8080   27.8840   45.1820 C   0  0  0  0  0  0  0  0  0  0  0  0
   58.5350   26.5990   45.6900 C   0  0  0  0  0  0  0  0  0  0  0  0
   59.3610   25.8969   45.8767 H   0  0  0  0  0  0  0  0  0  0  0  0
   57.2180   26.2120   45.9580 C   0  0  0  0  0  0  0  0  0  0  0  0
   57.0113   25.2073   46.3554 H   0  0  0  0  0  0  0  0  0  0  0  0
   56.1640   27.0990   45.7220 C   0  0  0  0  0  0  0  0  0  0  0  0
   54.8570   26.7120   45.9890 O   0  0  0  0  0  0  0  0  0  0  0  0
   56.4260   28.3770   45.2180 C   0  0  0  0  0  0  0  0  0  0  0  0
   55.5967   29.0758   45.0339 H   0  0  0  0  0  0  0  0  0  0  0  0
   57.7410   28.7670   44.9480 C   0  0  0  0  0  0  0  0  0  0  0  0
   57.9415   29.7725   44.5495 H   0  0  0  0  0  0  0  0  0  0  0  0
   60.0360   30.4680   47.4670 C   0  0  0  0  0  0  0  0  0  0  0  0
   59.9608   31.2274   46.6748 H   0  0  0  0  0  0  0  0  0  0  0  0
  1  2  1  0
  2  3  1  0
  3  4  2  0
  4  5  1  0
  4  6  1  0
  6  7  1  0
  6  8  2  0
  8  9  1  0
  8 10  1  0
 10 11  1  0
 11 12  2  0
 12 13  1  0
 13 14  2  0
 13 15  1  0
 15 16  2  0
 16 17  1  0
 16 18  1  0
 18 19  1  0
 18 20  2  0
 20 21  1  0
 20 22  1  0
 22 23  1  0
 23 24  2  3
 24 25  1  0
 24 26  1  0
 26 27  2  0
 27 28  1  0
 27 29  1  0
 29 30  1  0
 29 31  2  0
 31 32  1  0
 31 33  1  0
 33 34  1  0
 33 35  2  0
 35 36  1  0
 22 37  2  0
 37 38  1  0
 11  3  1  0
 37 15  1  0
 35 26  1  0
M  CHG  2  10  -1  32  -1
M  END
>  <UniqueID>  (75) 
67

>  <SMILES>  (75) 
O=C(/N=c1\[n-]cccc1O)c1cccc(N=Cc2ccc([O-])cc2)c1

>  <Energy>  (75) 
48.54090664034031

>  <Genealogy>  (75) 
O=C(N=c1[n-]cccc1O)c1cccc(N=Cc2ccc([O-])cc2)c1 (protonated)
O=C(/N=c1\[n-]cccc1O)c1cccc(N=Cc2ccc([O-])cc2)c1 (cis-trans isomerization)
O=C(/N=c1\[n-]cccc1O)c1cccc(N=Cc2ccc([O-])cc2)c1 (3D coordinates assigned)
O=C(/N=c1\[n-]cccc1O)c1cccc(N=Cc2ccc([O-])cc2)c1 (optimized conformer: 48.54090664034031 kcal/mol)

>  <smiles>  (75) 
O=C(N=c1[nH]cccc1O)c1cccc(N=Cc2ccc(O)cc2)c1

>  <score_type>  (75) 
oracle

>  <origin>  (75) 
adg

>  <m_score__min__energy>  (75) 
-12.74

>  <m_primary>  (75) 
energy

$$$$
75:0
     RDKit          3D

 42 43  0  0  0  0  0  0  0  0999 V2000
   54.7190   23.2740   46.9950 C   0  0  0  0  0  0  0  0  0  0  0  0
   54.4790   24.0390   45.7040 C   0  0  0  0  0  0  0  0  0  0  0  0
   54.7710   23.2020   44.5890 O   0  0  0  0  0  0  0  0  0  0  0  0
   56.0660   22.7780   44.2810 C   0  0  0  0  0  0  0  0  0  0  0  0
   56.2560   21.9300   43.3660 O   0  0  0  0  0  0  0  0  0  0  0  0
   57.1710   23.3190   45.0180 N   0  0  0  0  0  0  0  0  0  0  0  0
   58.5400   22.9290   44.8220 C   0  0  0  0  0  0  0  0  0  0  0  0
   58.8440   22.0450   43.9770 O   0  0  0  0  0  0  0  0  0  0  0  0
   59.6320   23.5850   45.6120 C   0  0  0  0  0  0  0  0  0  0  0  0
   59.4020   24.9890   45.7050 O   0  0  0  0  0  0  0  0  0  0  0  0
   58.3450   25.5480   46.4330 C   0  0  0  0  0  0  0  0  0  0  0  0
   57.9110   24.9820   47.4740 O   0  0  0  0  0  0  0  0  0  0  0  0
   57.7420   26.8080   45.9810 C   0  0  0  0  0  0  0  0  0  0  0  0
   56.4090   27.0140   45.6810 C   0  0  0  0  0  0  0  0  0  0  0  0
   56.3170   28.3350   45.2980 C   0  0  0  0  0  0  0  0  0  0  0  0
   55.1450   28.9500   44.8730 O   0  0  0  0  0  0  0  0  0  0  0  0
   57.5210   28.9440   45.3570 N   0  0  0  0  0  0  0  0  0  0  0  0
   57.8290   30.3130   45.0310 C   0  0  0  0  0  0  0  0  0  0  0  0
   57.6660   30.7920   43.7190 C   0  0  0  0  0  0  0  0  0  0  0  0
   57.9530   32.1250   43.4130 C   0  0  0  0  0  0  0  0  0  0  0  0
   58.4060   32.9930   44.4090 C   0  0  0  0  0  0  0  0  0  0  0  0
   58.5820   32.5310   45.7210 C   0  0  0  0  0  0  0  0  0  0  0  0
   59.0350   33.4770   46.7940 C   0  0  0  0  0  0  0  0  0  0  0  0
   58.2760   31.1970   46.0310 C   0  0  0  0  0  0  0  0  0  0  0  0
   58.4010   28.0080   45.7700 C   0  0  0  0  0  0  0  0  0  0  0  0
   54.5132   23.9300   47.8536 H   0  0  0  0  0  0  0  0  0  0  0  0
   54.0518   22.4003   47.0329 H   0  0  0  0  0  0  0  0  0  0  0  0
   55.7657   22.9380   47.0329 H   0  0  0  0  0  0  0  0  0  0  0  0
   53.4269   24.3566   45.6573 H   0  0  0  0  0  0  0  0  0  0  0  0
   55.1330   24.9230   45.6772 H   0  0  0  0  0  0  0  0  0  0  0  0
   56.9560   24.0380   45.7440 H   0  0  0  0  0  0  0  0  0  0  0  0
   59.6570   23.1538   46.6237 H   0  0  0  0  0  0  0  0  0  0  0  0
   60.5928   23.4131   45.1047 H   0  0  0  0  0  0  0  0  0  0  0  0
   55.5929   26.2785   45.7362 H   0  0  0  0  0  0  0  0  0  0  0  0
   57.3107   30.1138   42.9293 H   0  0  0  0  0  0  0  0  0  0  0  0
   57.8217   32.4918   42.3843 H   0  0  0  0  0  0  0  0  0  0  0  0
   58.6254   34.0425   44.1633 H   0  0  0  0  0  0  0  0  0  0  0  0
   58.8254   33.0393   47.7811 H   0  0  0  0  0  0  0  0  0  0  0  0
   60.1159   33.6547   46.6937 H   0  0  0  0  0  0  0  0  0  0  0  0
   58.4958   34.4305   46.6937 H   0  0  0  0  0  0  0  0  0  0  0  0
   58.3865   30.8388   47.0652 H   0  0  0  0  0  0  0  0  0  0  0  0
   59.4786   28.1730   45.9169 H   0  0  0  0  0  0  0  0  0  0  0  0
  1  2  1  0
  2  3  1  0
  3  4  1  0
  4  5  2  0
  4  6  1  0
  6  7  1  0
  7  8  2  0
  7  9  1  0
  9 10  1  0
 10 11  1  0
 11 12  2  0
 11 13  1  0
 13 14  1  0
 14 15  2  0
 15 16  1  0
 15 17  1  0
 17 18  1  0
 18 19  2  0
 19 20  1  0
 20 21  2  0
 21 22  1  0
 22 23  1  0
 22 24  2  0
 17 25  1  0
 25 13  2  0
 24 18  1  0
  1 26  1  0
  1 27  1  0
  1 28  1  0
  2 29  1  0
  2 30  1  0
  6 31  1  0
  9 32  1  0
  9 33  1  0
 14 34  1  0
 19 35  1  0
 20 36  1  0
 21 37  1  0
 23 38  1  0
 23 39  1  0
 23 40  1  0
 24 41  1  0
 25 42  1  0
M  CHG  1  16  -1
M  END
>  <UniqueID>  (76) 
68

>  <SMILES>  (76) 
CCOC(=O)NC(=O)COC(=O)c1cc([O-])n(-c2cccc(C)c2)c1

>  <Energy>  (76) 
64.26740404297882

>  <Genealogy>  (76) 
CCOC(=O)NC(=O)COC(=O)c1cc([O-])n(-c2cccc(C)c2)c1 (protonated)
CCOC(=O)NC(=O)COC(=O)c1cc([O-])n(-c2cccc(C)c2)c1 (3D coordinates assigned)
CCOC(=O)NC(=O)COC(=O)c1cc([O-])n(-c2cccc(C)c2)c1 (optimized conformer: 64.26740404297882 kcal/mol)

>  <smiles>  (76) 
CCOC(=O)NC(=O)COC(=O)c1cc(O)n(-c2cccc(C)c2)c1

>  <score_type>  (76) 
oracle

>  <origin>  (76) 
adg

>  <m_score__min__energy>  (76) 
-10.82

>  <m_primary>  (76) 
energy

$$$$
76:0
     RDKit          3D

 32 34  0  0  0  0  0  0  0  0999 V2000
   61.0210   28.4940   45.3250 C   0  0  0  0  0  0  0  0  0  0  0  0
   59.6460   27.9000   45.4420 C   0  0  0  0  0  0  0  0  0  0  0  0
   59.5270   26.6450   45.9460 N   0  0  0  0  0  0  0  0  0  0  0  0
   58.3450   26.0480   46.0830 N   0  0  0  0  0  0  0  0  0  0  0  0
   57.1860   26.6550   45.7280 C   0  0  0  0  0  0  0  0  0  0  0  0
   55.7850   25.8290   45.9390 S   0  0  0  0  0  0  0  0  0  0  0  0
   57.2250   27.9620   45.1940 C   0  0  0  0  0  0  0  0  0  0  0  0
   56.0860   28.6280   44.8230 N   0  0  0  0  0  0  0  0  0  0  0  0
   56.1280   29.8880   44.3110 C   0  0  0  0  0  0  0  0  0  0  0  0
   57.3490   30.5450   44.1370 C   0  0  0  0  0  0  0  0  0  0  0  0
   57.3890   31.9540   43.6090 C   0  0  0  0  0  0  0  0  0  0  0  0
   57.9580   32.8810   44.6490 C   0  0  0  0  0  0  0  0  0  0  0  0
   58.9050   33.8550   44.2880 C   0  0  0  0  0  0  0  0  0  0  0  0
   59.4050   34.7410   45.2470 C   0  0  0  0  0  0  0  0  0  0  0  0
   58.9580   34.6650   46.5700 C   0  0  0  0  0  0  0  0  0  0  0  0
   58.0070   33.7080   46.9340 C   0  0  0  0  0  0  0  0  0  0  0  0
   57.5050   32.8210   45.9770 C   0  0  0  0  0  0  0  0  0  0  0  0
   58.5280   29.8950   44.5170 C   0  0  0  0  0  0  0  0  0  0  0  0
   58.4830   28.5940   45.0480 C   0  0  0  0  0  0  0  0  0  0  0  0
   61.4307   28.6710   46.3304 H   0  0  0  0  0  0  0  0  0  0  0  0
   61.6757   27.7985   44.7795 H   0  0  0  0  0  0  0  0  0  0  0  0
   60.9633   29.4475   44.7795 H   0  0  0  0  0  0  0  0  0  0  0  0
   55.1450   28.1910   44.9250 H   0  0  0  0  0  0  0  0  0  0  0  0
   55.1922   30.3941   44.0315 H   0  0  0  0  0  0  0  0  0  0  0  0
   58.0196   31.9871   42.7083 H   0  0  0  0  0  0  0  0  0  0  0  0
   56.3661   32.2748   43.3623 H   0  0  0  0  0  0  0  0  0  0  0  0
   59.2541   33.9204   43.2469 H   0  0  0  0  0  0  0  0  0  0  0  0
   60.1501   35.4980   44.9609 H   0  0  0  0  0  0  0  0  0  0  0  0
   59.3555   35.3593   47.3249 H   0  0  0  0  0  0  0  0  0  0  0  0
   57.6532   33.6525   47.9741 H   0  0  0  0  0  0  0  0  0  0  0  0
   56.7519   32.0729   46.2654 H   0  0  0  0  0  0  0  0  0  0  0  0
   59.4957   30.4047   44.3997 H   0  0  0  0  0  0  0  0  0  0  0  0
  1  2  1  0
  2  3  2  0
  3  4  1  0
  4  5  1  0
  5  6  2  0
  5  7  1  0
  7  8  2  0
  8  9  1  0
  9 10  2  0
 10 11  1  0
 11 12  1  0
 12 13  2  0
 13 14  1  0
 14 15  2  0
 15 16  1  0
 16 17  2  0
 10 18  1  0
 18 19  2  0
 19  2  1  0
 19  7  1  0
 17 12  1  0
  1 20  1  0
  1 21  1  0
  1 22  1  0
  8 23  1  0
  9 24  1  0
 11 25  1  0
 11 26  1  0
 13 27  1  0
 14 28  1  0
 15 29  1  0
 16 30  1  0
 17 31  1  0
 18 32  1  0
M  CHG  2   4  -1   8   1
M  END
>  <UniqueID>  (77) 
69

>  <SMILES>  (77) 
Cc1n[n-]c(=S)c2[nH+]cc(Cc3ccccc3)cc12

>  <Energy>  (77) 
40.65247121998875

>  <Genealogy>  (77) 
Cc1n[n-]c(=S)c2[nH+]cc(Cc3ccccc3)cc12 (protonated)
Cc1n[n-]c(=S)c2[nH+]cc(Cc3ccccc3)cc12 (3D coordinates assigned)
Cc1n[n-]c(=S)c2[nH+]cc(Cc3ccccc3)cc12 (optimized conformer: 40.65247121998875 kcal/mol)

>  <smiles>  (77) 
Cc1n[nH]c(=S)c2ncc(Cc3ccccc3)cc12

>  <score_type>  (77) 
oracle

>  <origin>  (77) 
adg

>  <m_score__min__energy>  (77) 
-7.2800000000000002

>  <m_primary>  (77) 
energy

$$$$
77:0
     RDKit          3D

 30 31  0  0  0  0  0  0  0  0999 V2000
   54.3520   25.9490   45.6650 O   0  0  0  0  0  0  0  0  0  0  0  0
   55.4170   25.2960   45.8460 C   0  0  0  0  0  0  0  0  0  0  0  0
   56.3050   25.6620   46.9080 N   0  0  0  0  0  0  0  0  0  0  0  0
   57.6370   25.0910   47.0820 C   0  0  0  0  0  0  0  0  0  0  0  0
   58.6450   25.7930   46.1690 C   0  0  0  0  0  0  0  0  0  0  0  0
   58.1760   27.1470   45.8350 N   0  0  0  0  0  0  0  0  0  0  0  0
   57.7750   27.4140   44.5560 C   0  0  0  0  0  0  0  0  0  0  0  0
   57.3500   28.6910   44.1990 C   0  0  0  0  0  0  0  0  0  0  0  0
   57.3530   29.6890   45.1680 C   0  0  0  0  0  0  0  0  0  0  0  0
   56.9730   30.8530   44.8740 O   0  0  0  0  0  0  0  0  0  0  0  0
   57.7700   29.4050   46.4300 N   0  0  0  0  0  0  0  0  0  0  0  0
   58.1850   28.1530   46.7690 C   0  0  0  0  0  0  0  0  0  0  0  0
   58.5770   27.9300   47.9470 O   0  0  0  0  0  0  0  0  0  0  0  0
   55.7480   24.1600   44.9550 C   0  0  0  0  0  0  0  0  0  0  0  0
   56.5900   24.3310   43.8460 C   0  0  0  0  0  0  0  0  0  0  0  0
   56.8850   23.2420   43.0280 C   0  0  0  0  0  0  0  0  0  0  0  0
   56.3290   21.9970   43.3340 C   0  0  0  0  0  0  0  0  0  0  0  0
   56.5810   20.9990   42.6090 O   0  0  0  0  0  0  0  0  0  0  0  0
   55.5350   21.8600   44.3910 O   0  0  0  0  0  0  0  0  0  0  0  0
   55.2310   22.8750   45.1960 C   0  0  0  0  0  0  0  0  0  0  0  0
   57.9499   25.2148   48.1293 H   0  0  0  0  0  0  0  0  0  0  0  0
   57.6032   24.0232   46.8198 H   0  0  0  0  0  0  0  0  0  0  0  0
   59.6145   25.8617   46.6841 H   0  0  0  0  0  0  0  0  0  0  0  0
   58.7514   25.2124   45.2408 H   0  0  0  0  0  0  0  0  0  0  0  0
   57.7881   26.6131   43.8021 H   0  0  0  0  0  0  0  0  0  0  0  0
   57.0188   28.9061   43.1723 H   0  0  0  0  0  0  0  0  0  0  0  0
   57.7760   30.1630   47.1520 H   0  0  0  0  0  0  0  0  0  0  0  0
   57.0156   25.3205   43.6230 H   0  0  0  0  0  0  0  0  0  0  0  0
   57.5447   23.3605   42.1558 H   0  0  0  0  0  0  0  0  0  0  0  0
   54.5689   22.7071   46.0582 H   0  0  0  0  0  0  0  0  0  0  0  0
  1  2  2  0
  2  3  1  0
  3  4  1  0
  4  5  1  0
  5  6  1  0
  6  7  1  0
  7  8  2  0
  8  9  1  0
  9 10  2  0
  9 11  1  0
 11 12  1  0
 12 13  2  0
  2 14  1  0
 14 15  1  0
 15 16  2  0
 16 17  1  0
 17 18  2  0
 17 19  1  0
 19 20  1  0
 12  6  1  0
 20 14  2  0
  4 21  1  0
  4 22  1  0
  5 23  1  0
  5 24  1  0
  7 25  1  0
  8 26  1  0
 11 27  1  0
 15 28  1  0
 16 29  1  0
 20 30  1  0
M  CHG  1   3  -1
M  END
>  <UniqueID>  (78) 
70

>  <SMILES>  (78) 
O=C([N-]CCn1ccc(=O)[nH]c1=O)c1ccc(=O)oc1

>  <Energy>  (78) 
31.48366723642756

>  <Genealogy>  (78) 
O=C([N-]CCn1ccc(=O)[nH]c1=O)c1ccc(=O)oc1 (protonated)
O=C([N-]CCn1ccc(=O)[nH]c1=O)c1ccc(=O)oc1 (3D coordinates assigned)
O=C([N-]CCn1ccc(=O)[nH]c1=O)c1ccc(=O)oc1 (optimized conformer: 31.48366723642756 kcal/mol)

>  <smiles>  (78) 
O=C(NCCn1ccc(=O)[nH]c1=O)c1ccc(=O)oc1

>  <score_type>  (78) 
oracle

>  <origin>  (78) 
adg

>  <m_score__min__energy>  (78) 
-8.3300000000000001

>  <m_primary>  (78) 
energy

$$$$
78:0
     RDKit          3D

 41 43  0  0  0  0  0  0  0  0999 V2000
   58.1220   32.2500   42.3220 C   0  0  0  0  0  0  0  0  0  0  0  0
   57.3340   31.2870   43.0870 N   0  0  0  0  0  0  0  0  0  0  0  0
   56.3830   30.4720   42.6030 C   0  0  0  0  0  0  0  0  0  0  0  0
   55.8920   29.7210   43.6480 C   0  0  0  0  0  0  0  0  0  0  0  0
   56.5290   30.0590   44.7880 N   0  0  0  0  0  0  0  0  0  0  0  0
   57.3990   31.0210   44.4110 C   0  0  0  0  0  0  0  0  0  0  0  0
   58.3350   31.6890   45.3780 C   0  0  0  0  0  0  0  0  0  0  0  0
   58.4390   30.9010   46.6040 N   0  0  0  0  0  0  0  0  0  0  0  0
   59.4500   31.1570   47.5930 C   0  0  0  0  0  0  0  0  0  0  0  0
   60.3470   32.0130   47.3600 O   0  0  0  0  0  0  0  0  0  0  0  0
   59.4740   30.4350   48.8800 C   0  0  0  0  0  0  0  0  0  0  0  0
   60.5300   29.6290   49.3160 C   0  0  0  0  0  0  0  0  0  0  0  0
   60.1180   28.9950   50.8180 S   0  0  0  0  0  0  0  0  0  0  0  0
   58.6190   29.7670   50.8520 C   0  0  0  0  0  0  0  0  0  0  0  0
   57.7260   29.6910   51.7950 N   0  0  0  0  0  0  0  0  0  0  0  0
   56.5680   30.5240   51.9780 C   0  0  0  0  0  0  0  0  0  0  0  0
   56.4080   31.5730   51.3000 O   0  0  0  0  0  0  0  0  0  0  0  0
   55.5380   30.1340   52.8940 N   0  0  0  0  0  0  0  0  0  0  0  0
   54.1320   30.0810   52.6120 C   0  0  0  0  0  0  0  0  0  0  0  0
   53.4530   28.8730   52.8080 C   0  0  0  0  0  0  0  0  0  0  0  0
   52.0890   28.7760   52.5280 C   0  0  0  0  0  0  0  0  0  0  0  0
   51.3930   29.8820   52.0330 C   0  0  0  0  0  0  0  0  0  0  0  0
   52.0620   31.0960   51.8020 C   0  0  0  0  0  0  0  0  0  0  0  0
   51.3270   32.2590   51.2580 C   0  0  0  0  0  0  0  0  0  0  0  0
   50.9750   33.2060   52.0120 O   0  0  0  0  0  0  0  0  0  0  0  0
   51.0110   32.3240   49.9060 O   0  0  0  0  0  0  0  0  0  0  0  0
   53.4380   31.1840   52.0860 C   0  0  0  0  0  0  0  0  0  0  0  0
   58.4170   30.5000   49.7380 N   0  0  0  0  0  0  0  0  0  0  0  0
   58.6638   32.9121   43.0134 H   0  0  0  0  0  0  0  0  0  0  0  0
   58.8429   31.7128   41.6882 H   0  0  0  0  0  0  0  0  0  0  0  0
   57.4527   32.8503   41.6882 H   0  0  0  0  0  0  0  0  0  0  0  0
   56.0536   30.4142   41.5551 H   0  0  0  0  0  0  0  0  0  0  0  0
   55.1008   28.9612   43.5655 H   0  0  0  0  0  0  0  0  0  0  0  0
   59.3301   31.7785   44.9178 H   0  0  0  0  0  0  0  0  0  0  0  0
   57.9447   32.6874   45.6245 H   0  0  0  0  0  0  0  0  0  0  0  0
   57.7700   30.1100   46.7270 H   0  0  0  0  0  0  0  0  0  0  0  0
   61.4672   29.4421   48.7713 H   0  0  0  0  0  0  0  0  0  0  0  0
   53.9975   27.9947   53.1850 H   0  0  0  0  0  0  0  0  0  0  0  0
   51.5605   27.8263   52.6975 H   0  0  0  0  0  0  0  0  0  0  0  0
   50.3162   29.8019   51.8231 H   0  0  0  0  0  0  0  0  0  0  0  0
   53.9749   32.1248   51.8944 H   0  0  0  0  0  0  0  0  0  0  0  0
  1  2  1  0
  2  3  1  0
  3  4  2  0
  4  5  1  0
  5  6  2  0
  6  7  1  0
  7  8  1  0
  8  9  1  0
  9 10  2  0
  9 11  1  0
 11 12  2  0
 12 13  1  0
 13 14  1  0
 14 15  2  3
 15 16  1  0
 16 17  2  0
 16 18  1  0
 18 19  1  0
 19 20  2  0
 20 21  1  0
 21 22  2  0
 22 23  1  0
 23 24  1  0
 24 25  2  0
 24 26  1  0
 23 27  2  0
 14 28  1  0
  6  2  1  0
 28 11  1  0
 27 19  1  0
  1 29  1  0
  1 30  1  0
  1 31  1  0
  3 32  1  0
  4 33  1  0
  7 34  1  0
  7 35  1  0
  8 36  1  0
 12 37  1  0
 20 38  1  0
 21 39  1  0
 22 40  1  0
 27 41  1  0
M  CHG  3  18  -1  26  -1  28  -1
M  END
>  <UniqueID>  (79) 
71

>  <SMILES>  (79) 
Cn1ccnc1CNC(=O)c1csc(=NC(=O)[N-]c2cccc(C(=O)[O-])c2)[n-]1

>  <Energy>  (79) 
106.79188536287192

>  <Genealogy>  (79) 
Cn1ccnc1CNC(=O)c1csc(=NC(=O)[N-]c2cccc(C(=O)[O-])c2)[n-]1 (protonated)
Cn1ccnc1CNC(=O)c1csc(=NC(=O)[N-]c2cccc(C(=O)[O-])c2)[n-]1 (3D coordinates assigned)
Cn1ccnc1CNC(=O)c1csc(=NC(=O)[N-]c2cccc(C(=O)[O-])c2)[n-]1 (optimized conformer: 106.79188536287192 kcal/mol)

>  <smiles>  (79) 
Cn1ccnc1CNC(=O)c1csc(=NC(=O)Nc2cccc(C(=O)O)c2)[nH]1

>  <score_type>  (79) 
oracle

>  <origin>  (79) 
adg

>  <m_score__min__energy>  (79) 
-14.02

>  <m_primary>  (79) 
energy

$$$$
79:0
     RDKit          3D

 37 38  0  0  0  0  0  0  0  0999 V2000
   54.0290   26.7260   46.5960 H   0  0  0  0  0  0  0  0  0  0  0  0
   57.0100   25.1350   46.9700 N   0  0  0  0  0  0  0  0  0  0  0  0
   57.1460   26.2910   46.3760 C   0  0  0  0  0  0  0  0  0  0  0  0
   58.3990   26.7970   46.2690 N   0  0  0  0  0  0  0  0  0  0  0  0
   56.8950   29.0230   44.9050 C   0  0  0  0  0  0  0  0  0  0  0  0
   56.5251   29.9245   44.3945 H   0  0  0  0  0  0  0  0  0  0  0  0
   58.2760   28.9550   45.1100 C   0  0  0  0  0  0  0  0  0  0  0  0
   59.0820   30.1500   44.6150 C   0  0  0  0  0  0  0  0  0  0  0  0
   60.1327   30.0248   44.9158 H   0  0  0  0  0  0  0  0  0  0  0  0
   58.9984   30.1998   43.5193 H   0  0  0  0  0  0  0  0  0  0  0  0
   58.5510   31.4400   45.1980 C   0  0  0  0  0  0  0  0  0  0  0  0
   58.8840   31.7800   46.5230 C   0  0  0  0  0  0  0  0  0  0  0  0
   59.5083   31.0991   47.1202 H   0  0  0  0  0  0  0  0  0  0  0  0
   58.4290   32.9730   47.0850 C   0  0  0  0  0  0  0  0  0  0  0  0
   58.6951   33.2282   48.1214 H   0  0  0  0  0  0  0  0  0  0  0  0
   57.6380   33.8420   46.3360 C   0  0  0  0  0  0  0  0  0  0  0  0
   57.2847   34.7841   46.7806 H   0  0  0  0  0  0  0  0  0  0  0  0
   57.2930   33.5190   45.0220 C   0  0  0  0  0  0  0  0  0  0  0  0
   56.6653   34.2077   44.4374 H   0  0  0  0  0  0  0  0  0  0  0  0
   57.7430   32.3170   44.4390 C   0  0  0  0  0  0  0  0  0  0  0  0
   57.4000   31.9660   43.1220 O   0  0  0  0  0  0  0  0  0  0  0  0
   58.1450   32.3320   41.9660 C   0  0  0  0  0  0  0  0  0  0  0  0
   59.0930   32.7978   42.2730 H   0  0  0  0  0  0  0  0  0  0  0  0
   58.3549   31.4345   41.3657 H   0  0  0  0  0  0  0  0  0  0  0  0
   57.5629   33.0467   41.3657 H   0  0  0  0  0  0  0  0  0  0  0  0
   58.9610   27.9110   45.7520 C   0  0  0  0  0  0  0  0  0  0  0  0
   60.2120   28.0020   45.8640 O   0  0  0  0  0  0  0  0  0  0  0  0
   55.9620   28.1160   45.2580 N   0  0  0  0  0  0  0  0  0  0  0  0
   55.9820   26.9210   45.8860 C   0  0  0  0  0  0  0  0  0  0  0  0
   54.8250   26.3450   46.0340 N   0  0  0  0  0  0  0  0  0  0  0  0
   57.1130   23.8240   46.3300 C   0  0  0  0  0  0  0  0  0  0  0  0
   57.7905   23.1877   46.9184 H   0  0  0  0  0  0  0  0  0  0  0  0
   56.1100   23.3749   46.2831 H   0  0  0  0  0  0  0  0  0  0  0  0
   57.6570   23.9550   44.9100 C   0  0  0  0  0  0  0  0  0  0  0  0
   58.7258   24.2124   44.9491 H   0  0  0  0  0  0  0  0  0  0  0  0
   57.5289   23.0003   44.3788 H   0  0  0  0  0  0  0  0  0  0  0  0
   57.1084   24.7467   44.3788 H   0  0  0  0  0  0  0  0  0  0  0  0
  1  2  1  0
  2  3  2  0
  3  4  1  0
  4  5  1  0
  5  6  1  0
  5  7  2  0
  7  8  1  0
  8  9  1  0
  8 10  1  0
  8 11  1  0
 11 12  2  0
 12 13  1  0
 12 14  1  0
 14 15  1  0
 14 16  2  0
 16 17  1  0
 16 18  1  0
 18 19  1  0
 18 20  2  0
 20 21  1  0
 21 22  1  0
 22 23  1  0
 22 24  1  0
 22 25  1  0
  7 26  1  0
 26 27  2  0
 26 28  1  0
 28 29  1  0
 29 30  2  0
 30 31  1  0
 31 32  1  0
 31 33  1  0
 31 34  1  0
 34 35  1  0
 34 36  1  0
 34 37  1  0
 29  3  1  0
 20 11  1  0
M  CHG  2   4  -1  28  -1
M  END
>  <UniqueID>  (80) 
72

>  <SMILES>  (80) 
[H]/N=c1/[n-]cc(Cc2ccccc2OC)c(=O)[n-]/c1=N\CC

>  <Energy>  (80) 
62.90441627527671

>  <Genealogy>  (80) 
CCN=c1[n-]c(=O)c(Cc2ccccc2OC)c[n-]c1=N (protonated)
[H]/N=c1/[n-]cc(Cc2ccccc2OC)c(=O)[n-]/c1=N\CC (cis-trans isomerization)
[H]/N=c1/[n-]cc(Cc2ccccc2OC)c(=O)[n-]/c1=N\CC (3D coordinates assigned)
[H]/N=c1/[n-]cc(Cc2ccccc2OC)c(=O)[n-]/c1=N\CC (optimized conformer: 62.90441627527671 kcal/mol)

>  <smiles>  (80) 
CCN=c1[nH]c(=O)c(Cc2ccccc2OC)c[nH]c1=N

>  <score_type>  (80) 
oracle

>  <origin>  (80) 
adg

>  <m_score__min__energy>  (80) 
-10.24

>  <m_primary>  (80) 
energy

$$$$
80:0
     RDKit          3D

 66 71  0  0  0  0  0  0  0  0999 V2000
   54.4010   21.0740   44.5170 H   0  0  0  0  0  0  0  0  0  0  0  0
   55.4080   20.9820   44.4860 O   0  0  0  0  0  0  0  0  0  0  0  0
   56.2800   21.9540   44.9800 C   0  0  0  0  0  0  0  0  0  0  0  0
   57.5430   22.0710   44.3890 C   0  0  0  0  0  0  0  0  0  0  0  0
   57.8234   21.3981   43.5653 H   0  0  0  0  0  0  0  0  0  0  0  0
   58.4510   23.0340   44.8350 C   0  0  0  0  0  0  0  0  0  0  0  0
   59.4344   23.1258   44.3507 H   0  0  0  0  0  0  0  0  0  0  0  0
   58.1130   23.8860   45.9000 C   0  0  0  0  0  0  0  0  0  0  0  0
   58.9870   24.9390   46.3400 N   0  0  0  0  0  0  0  0  0  0  0  0
   58.6700   26.1810   46.5700 C   0  0  0  0  0  0  0  0  0  0  0  0
   57.7200   26.8170   45.8340 N   0  0  0  0  0  0  0  0  0  0  0  0
   57.4240   28.1200   46.0720 C   0  0  0  0  0  0  0  0  0  0  0  0
   56.4380   28.7450   45.3010 O   0  0  0  0  0  0  0  0  0  0  0  0
   56.6730   29.6630   44.2670 C   0  0  0  0  0  0  0  0  0  0  0  0
   56.2720   29.5980   42.9320 C   0  0  0  0  0  0  0  0  0  0  0  0
   55.7175   28.7628   42.4793 H   0  0  0  0  0  0  0  0  0  0  0  0
   56.6660   30.7140   42.2770 N   0  0  0  0  0  0  0  0  0  0  0  0
   56.4910   30.9410   41.2720 H   0  0  0  0  0  0  0  0  0  0  0  0
   57.3010   31.4780   43.1830 C   0  0  0  0  0  0  0  0  0  0  0  0
   57.8690   32.7360   42.9820 C   0  0  0  0  0  0  0  0  0  0  0  0
   57.8479   33.2175   41.9932 H   0  0  0  0  0  0  0  0  0  0  0  0
   58.4700   33.3690   44.0860 C   0  0  0  0  0  0  0  0  0  0  0  0
   58.9308   34.3602   43.9626 H   0  0  0  0  0  0  0  0  0  0  0  0
   58.4860   32.7410   45.3520 C   0  0  0  0  0  0  0  0  0  0  0  0
   58.9562   33.2478   46.2076 H   0  0  0  0  0  0  0  0  0  0  0  0
   57.9040   31.4710   45.5250 C   0  0  0  0  0  0  0  0  0  0  0  0
   57.9106   30.9708   46.5047 H   0  0  0  0  0  0  0  0  0  0  0  0
   57.3190   30.8690   44.4120 C   0  0  0  0  0  0  0  0  0  0  0  0
   58.0690   28.7840   47.0670 N   0  0  0  0  0  0  0  0  0  0  0  0
   59.0240   28.1590   47.8020 C   0  0  0  0  0  0  0  0  0  0  0  0
   59.6340   28.8110   48.7460 N   0  0  0  0  0  0  0  0  0  0  0  0
   59.1610   30.0800   49.2940 C   0  0  0  0  0  0  0  0  0  0  0  0
   58.0750   30.1634   49.1401 H   0  0  0  0  0  0  0  0  0  0  0  0
   59.3838   30.1194   50.3705 H   0  0  0  0  0  0  0  0  0  0  0  0
   59.8530   31.2160   48.5990 C   0  0  0  0  0  0  0  0  0  0  0  0
   59.4180   32.5370   48.7970 C   0  0  0  0  0  0  0  0  0  0  0  0
   58.5605   32.7388   49.4557 H   0  0  0  0  0  0  0  0  0  0  0  0
   60.0720   33.5970   48.1590 C   0  0  0  0  0  0  0  0  0  0  0  0
   59.7214   34.6289   48.3081 H   0  0  0  0  0  0  0  0  0  0  0  0
   61.1710   33.3450   47.3320 C   0  0  0  0  0  0  0  0  0  0  0  0
   61.6813   34.1789   46.8278 H   0  0  0  0  0  0  0  0  0  0  0  0
   61.6220   32.0360   47.1450 C   0  0  0  0  0  0  0  0  0  0  0  0
   62.4899   31.8401   46.4982 H   0  0  0  0  0  0  0  0  0  0  0  0
   60.9690   30.9740   47.7810 C   0  0  0  0  0  0  0  0  0  0  0  0
   61.3314   29.9451   47.6397 H   0  0  0  0  0  0  0  0  0  0  0  0
   59.3280   26.8600   47.5410 N   0  0  0  0  0  0  0  0  0  0  0  0
   56.8460   23.7810   46.4830 C   0  0  0  0  0  0  0  0  0  0  0  0
   56.5678   24.4630   47.3000 H   0  0  0  0  0  0  0  0  0  0  0  0
   55.9220   22.8170   46.0410 C   0  0  0  0  0  0  0  0  0  0  0  0
   54.5770   22.7200   46.7240 C   0  0  0  0  0  0  0  0  0  0  0  0
   54.5527   21.8094   47.3407 H   0  0  0  0  0  0  0  0  0  0  0  0
   54.4381   23.6151   47.3480 H   0  0  0  0  0  0  0  0  0  0  0  0
   53.4790   22.6630   45.7370 N   0  0  0  0  0  0  0  0  0  0  0  0
   52.2180   22.2030   46.3560 C   0  0  0  0  0  0  0  0  0  0  0  0
   52.3049   21.1328   46.5949 H   0  0  0  0  0  0  0  0  0  0  0  0
   52.0430   22.7908   47.2692 H   0  0  0  0  0  0  0  0  0  0  0  0
   51.0210   22.4110   45.4030 C   0  0  0  0  0  0  0  0  0  0  0  0
   50.4051   21.4997   45.3932 H   0  0  0  0  0  0  0  0  0  0  0  0
   50.4307   23.2679   45.7597 H   0  0  0  0  0  0  0  0  0  0  0  0
   51.4670   22.6830   44.0900 O   0  0  0  0  0  0  0  0  0  0  0  0
   52.1460   23.9250   44.0710 C   0  0  0  0  0  0  0  0  0  0  0  0
   52.5762   24.0782   43.0703 H   0  0  0  0  0  0  0  0  0  0  0  0
   51.4180   24.7116   44.3186 H   0  0  0  0  0  0  0  0  0  0  0  0
   53.2830   23.9850   45.1160 C   0  0  0  0  0  0  0  0  0  0  0  0
   54.2150   24.2946   44.6205 H   0  0  0  0  0  0  0  0  0  0  0  0
   53.0120   24.7101   45.8975 H   0  0  0  0  0  0  0  0  0  0  0  0
  1  2  1  0
  2  3  1  0
  3  4  2  0
  4  5  1  0
  4  6  1  0
  6  7  1  0
  6  8  2  0
  8  9  1  0
  9 10  2  0
 10 11  1  0
 11 12  2  0
 12 13  1  0
 13 14  1  0
 14 15  2  0
 15 16  1  0
 15 17  1  0
 17 18  1  0
 17 19  1  0
 19 20  2  0
 20 21  1  0
 20 22  1  0
 22 23  1  0
 22 24  2  0
 24 25  1  0
 24 26  1  0
 26 27  1  0
 26 28  2  0
 12 29  1  0
 29 30  1  0
 30 31  2  0
 31 32  1  0
 32 33  1  0
 32 34  1  0
 32 35  1  0
 35 36  2  0
 36 37  1  0
 36 38  1  0
 38 39  1  0
 38 40  2  0
 40 41  1  0
 40 42  1  0
 42 43  1  0
 42 44  2  0
 44 45  1  0
 30 46  1  0
  8 47  1  0
 47 48  1  0
 47 49  2  0
 49 50  1  0
 50 51  1  0
 50 52  1  0
 50 53  1  0
 53 54  1  0
 54 55  1  0
 54 56  1  0
 54 57  1  0
 57 58  1  0
 57 59  1  0
 57 60  1  0
 60 61  1  0
 61 62  1  0
 61 63  1  0
 61 64  1  0
 64 65  1  0
 64 66  1  0
 49  3  1  0
 64 53  1  0
 46 10  1  0
 28 14  1  0
 44 35  1  0
 28 19  1  0
M  CHG  2  29  -1  46  -1
M  END
>  <UniqueID>  (81) 
73

>  <SMILES>  (81) 
Oc1ccc(/N=c2\nc(Oc3c[nH]c4ccccc34)[n-]/c(=N/Cc3ccccc3)[n-]2)cc1CN1CCOCC1

>  <Energy>  (81) 
126.44654159158767

>  <Genealogy>  (81) 
Oc1ccc(N=c2nc(Oc3c[nH]c4ccccc34)[n-]c(=NCc3ccccc3)[n-]2)cc1CN1CCOCC1 (protonated)
Oc1ccc(/N=c2\nc(Oc3c[nH]c4ccccc34)[n-]/c(=N/Cc3ccccc3)[n-]2)cc1CN1CCOCC1 (cis-trans isomerization)
Oc1ccc(/N=c2\nc(Oc3c[nH]c4ccccc34)[n-]/c(=N/Cc3ccccc3)[n-]2)cc1CN1CCOCC1 (3D coordinates assigned)
Oc1ccc(/N=c2\nc(Oc3c[nH]c4ccccc34)[n-]/c(=N/Cc3ccccc3)[n-]2)cc1CN1CCOCC1 (nonaromatic ring conformer: 126.44654159158767 kcal/mol)

>  <smiles>  (81) 
Oc1ccc(N=c2nc(Oc3c[nH]c4ccccc34)[nH]c(=NCc3ccccc3)[nH]2)cc1CN1CCOCC1

>  <score_type>  (81) 
oracle

>  <origin>  (81) 
adg

>  <m_score__min__energy>  (81) 
-13.52

>  <m_primary>  (81) 
energy

$$$$
81:0
     RDKit          3D

 45 47  0  0  0  0  0  0  0  0999 V2000
   55.1410   27.5370   45.4140 H   0  0  0  0  0  0  0  0  0  0  0  0
   55.0690   26.6900   45.9670 O   0  0  0  0  0  0  0  0  0  0  0  0
   56.1390   25.8080   46.1060 C   0  0  0  0  0  0  0  0  0  0  0  0
   55.9070   24.4300   45.9870 C   0  0  0  0  0  0  0  0  0  0  0  0
   54.8806   24.0575   45.8535 H   0  0  0  0  0  0  0  0  0  0  0  0
   56.9700   23.5300   46.0370 C   0  0  0  0  0  0  0  0  0  0  0  0
   56.7882   22.4486   45.9503 H   0  0  0  0  0  0  0  0  0  0  0  0
   58.2650   24.0160   46.1980 C   0  0  0  0  0  0  0  0  0  0  0  0
   59.1154   23.3185   46.2158 H   0  0  0  0  0  0  0  0  0  0  0  0
   58.4790   25.3500   46.3330 N   0  0  0  0  0  0  0  0  0  0  0  0
   57.4690   26.2640   46.3190 C   0  0  0  0  0  0  0  0  0  0  0  0
   57.7930   27.5200   46.4710 N   0  0  0  0  0  0  0  0  0  0  0  0
   57.5790   28.6270   45.5820 C   0  0  0  0  0  0  0  0  0  0  0  0
   56.8570   28.4780   44.5570 O   0  0  0  0  0  0  0  0  0  0  0  0
   58.1040   29.9680   45.9270 C   0  0  0  0  0  0  0  0  0  0  0  0
   58.7720   30.1820   47.1470 C   0  0  0  0  0  0  0  0  0  0  0  0
   58.9127   29.3446   47.8463 H   0  0  0  0  0  0  0  0  0  0  0  0
   59.2580   31.4500   47.4770 C   0  0  0  0  0  0  0  0  0  0  0  0
   59.7805   31.6043   48.4326 H   0  0  0  0  0  0  0  0  0  0  0  0
   59.0830   32.5250   46.5970 C   0  0  0  0  0  0  0  0  0  0  0  0
   59.6760   34.1200   47.0470 S   0  0  0  0  0  0  0  0  0  0  0  0
   58.5340   35.0980   47.1110 O   0  0  0  0  0  0  0  0  0  0  0  0
   60.6470   34.5860   45.9980 O   0  0  0  0  0  0  0  0  0  0  0  0
   60.5040   34.0130   48.5810 N   0  0  0  0  0  0  0  0  0  0  0  0
   61.9540   34.2240   48.4640 C   0  0  0  0  0  0  0  0  0  0  0  0
   62.1602   35.1965   47.9932 H   0  0  0  0  0  0  0  0  0  0  0  0
   62.6270   34.2770   49.8650 C   0  0  0  0  0  0  0  0  0  0  0  0
   63.4613   34.9930   49.8304 H   0  0  0  0  0  0  0  0  0  0  0  0
   61.8643   34.5863   50.5948 H   0  0  0  0  0  0  0  0  0  0  0  0
   63.1680   32.9080   50.3000 C   0  0  0  0  0  0  0  0  0  0  0  0
   63.6162   33.0026   51.3001 H   0  0  0  0  0  0  0  0  0  0  0  0
   62.3307   32.1947   50.3107 H   0  0  0  0  0  0  0  0  0  0  0  0
   64.2360   32.3830   49.3210 C   0  0  0  0  0  0  0  0  0  0  0  0
   65.2226   32.7305   49.6614 H   0  0  0  0  0  0  0  0  0  0  0  0
   64.1620   31.2855   49.3161 H   0  0  0  0  0  0  0  0  0  0  0  0
   64.0220   32.8620   47.8690 C   0  0  0  0  0  0  0  0  0  0  0  0
   64.5737   33.8014   47.7171 H   0  0  0  0  0  0  0  0  0  0  0  0
   64.3889   32.0793   47.1887 H   0  0  0  0  0  0  0  0  0  0  0  0
   62.5370   33.1020   47.5720 C   0  0  0  0  0  0  0  0  0  0  0  0
   62.4258   33.3906   46.5164 H   0  0  0  0  0  0  0  0  0  0  0  0
   61.9882   32.1725   47.7840 H   0  0  0  0  0  0  0  0  0  0  0  0
   58.4200   32.3210   45.3810 C   0  0  0  0  0  0  0  0  0  0  0  0
   58.2811   33.1614   44.6850 H   0  0  0  0  0  0  0  0  0  0  0  0
   57.9340   31.0540   45.0480 C   0  0  0  0  0  0  0  0  0  0  0  0
   57.4139   30.9040   44.0904 H   0  0  0  0  0  0  0  0  0  0  0  0
  1  2  1  0
  2  3  1  0
  3  4  2  0
  4  5  1  0
  4  6  1  0
  6  7  1  0
  6  8  2  0
  8  9  1  0
  8 10  1  0
 10 11  1  0
 11 12  2  0
 12 13  1  0
 13 14  2  0
 13 15  1  0
 15 16  2  0
 16 17  1  0
 16 18  1  0
 18 19  1  0
 18 20  2  0
 20 21  1  0
 21 22  2  0
 21 23  2  0
 21 24  1  0
 24 25  1  0
 25 26  1  0
 25 27  1  0
 27 28  1  0
 27 29  1  0
 27 30  1  0
 30 31  1  0
 30 32  1  0
 30 33  1  0
 33 34  1  0
 33 35  1  0
 33 36  1  0
 36 37  1  0
 36 38  1  0
 36 39  1  0
 39 40  1  0
 39 41  1  0
 20 42  1  0
 42 43  1  0
 42 44  2  0
 44 45  1  0
 11  3  1  0
 44 15  1  0
 39 25  1  0
M  CHG  2  10  -1  24  -1
M  END
>  <UniqueID>  (82) 
74

>  <SMILES>  (82) 
O=C(/N=c1/[n-]cccc1O)c1ccc(S(=O)(=O)[N-]C2CCCCC2)cc1

>  <Energy>  (82) 
62.45724172467387

>  <Genealogy>  (82) 
O=C(N=c1[n-]cccc1O)c1ccc(S(=O)(=O)[N-]C2CCCCC2)cc1 (protonated)
O=C(/N=c1/[n-]cccc1O)c1ccc(S(=O)(=O)[N-]C2CCCCC2)cc1 (cis-trans isomerization)
O=C(/N=c1/[n-]cccc1O)c1ccc(S(=O)(=O)[N-]C2CCCCC2)cc1 (3D coordinates assigned)
O=C(/N=c1/[n-]cccc1O)c1ccc(S(=O)(=O)[N-]C2CCCCC2)cc1 (nonaromatic ring conformer: 62.45724172467387 kcal/mol)

>  <smiles>  (82) 
O=C(N=c1[nH]cccc1O)c1ccc(S(=O)(=O)NC2CCCCC2)cc1

>  <score_type>  (82) 
oracle

>  <origin>  (82) 
adg

>  <m_score__min__energy>  (82) 
-12.85

>  <m_primary>  (82) 
energy

$$$$
82:0
     RDKit          3D

 40 42  0  0  0  0  0  0  0  0999 V2000
   57.7180   24.8860   46.0400 C   0  0  0  0  0  0  0  0  0  0  0  0
   56.9200   26.4760   45.9620 S   0  0  0  0  0  0  0  0  0  0  0  0
   55.4310   26.3250   46.1020 O   0  0  0  0  0  0  0  0  0  0  0  0
   57.4260   27.3200   47.0970 O   0  0  0  0  0  0  0  0  0  0  0  0
   57.3010   27.2660   44.4640 N   0  0  0  0  0  0  0  0  0  0  0  0
   57.4450   28.6900   44.3030 C   0  0  0  0  0  0  0  0  0  0  0  0
   58.4070   29.4310   45.0130 C   0  0  0  0  0  0  0  0  0  0  0  0
   58.5160   30.8130   44.8270 C   0  0  0  0  0  0  0  0  0  0  0  0
   57.6830   31.4760   43.9200 C   0  0  0  0  0  0  0  0  0  0  0  0
   57.8160   32.8990   43.7770 N   0  0  0  0  0  0  0  0  0  0  0  0
   57.6830   33.8780   44.8160 C   0  0  0  0  0  0  0  0  0  0  0  0
   57.0000   34.9210   44.6360 O   0  0  0  0  0  0  0  0  0  0  0  0
   58.3920   33.6940   46.0870 C   0  0  0  0  0  0  0  0  0  0  0  0
   57.8080   33.4650   47.3170 C   0  0  0  0  0  0  0  0  0  0  0  0
   58.8510   33.3580   48.2120 C   0  0  0  0  0  0  0  0  0  0  0  0
   60.0110   33.5280   47.4710 C   0  0  0  0  0  0  0  0  0  0  0  0
   61.4050   33.5010   47.9730 C   0  0  0  0  0  0  0  0  0  0  0  0
   62.4460   33.1200   47.1090 C   0  0  0  0  0  0  0  0  0  0  0  0
   63.7680   33.0870   47.5620 C   0  0  0  0  0  0  0  0  0  0  0  0
   64.0660   33.4350   48.8810 C   0  0  0  0  0  0  0  0  0  0  0  0
   65.3490   33.4030   49.3190 F   0  0  0  0  0  0  0  0  0  0  0  0
   63.0410   33.8160   49.7490 C   0  0  0  0  0  0  0  0  0  0  0  0
   61.7160   33.8500   49.3010 C   0  0  0  0  0  0  0  0  0  0  0  0
   59.6980   33.7270   46.2090 O   0  0  0  0  0  0  0  0  0  0  0  0
   56.7070   30.7430   43.2230 C   0  0  0  0  0  0  0  0  0  0  0  0
   56.5970   29.3620   43.4080 C   0  0  0  0  0  0  0  0  0  0  0  0
   57.8619   24.5992   47.0922 H   0  0  0  0  0  0  0  0  0  0  0  0
   57.0898   24.1354   45.5380 H   0  0  0  0  0  0  0  0  0  0  0  0
   58.6952   24.9412   45.5380 H   0  0  0  0  0  0  0  0  0  0  0  0
   57.3770   26.6550   43.6200 H   0  0  0  0  0  0  0  0  0  0  0  0
   59.0781   28.9202   45.7192 H   0  0  0  0  0  0  0  0  0  0  0  0
   59.2630   31.3831   45.3988 H   0  0  0  0  0  0  0  0  0  0  0  0
   56.7333   33.3846   47.5371 H   0  0  0  0  0  0  0  0  0  0  0  0
   58.7781   33.1749   49.2942 H   0  0  0  0  0  0  0  0  0  0  0  0
   62.2187   32.8457   46.0683 H   0  0  0  0  0  0  0  0  0  0  0  0
   64.5752   32.7863   46.8779 H   0  0  0  0  0  0  0  0  0  0  0  0
   63.2758   34.0902   50.7881 H   0  0  0  0  0  0  0  0  0  0  0  0
   60.9131   34.1510   49.9900 H   0  0  0  0  0  0  0  0  0  0  0  0
   56.0268   31.2585   42.5290 H   0  0  0  0  0  0  0  0  0  0  0  0
   55.8387   28.7960   42.8470 H   0  0  0  0  0  0  0  0  0  0  0  0
  1  2  1  0
  2  3  2  0
  2  4  2  0
  2  5  1  0
  5  6  1  0
  6  7  2  0
  7  8  1  0
  8  9  2  0
  9 10  1  0
 10 11  1  0
 11 12  2  0
 11 13  1  0
 13 14  2  0
 14 15  1  0
 15 16  2  0
 16 17  1  0
 17 18  2  0
 18 19  1  0
 19 20  2  0
 20 21  1  0
 20 22  1  0
 22 23  2  0
 16 24  1  0
  9 25  1  0
 25 26  2  0
 26  6  1  0
 24 13  1  0
 23 17  1  0
  1 27  1  0
  1 28  1  0
  1 29  1  0
  5 30  1  0
  7 31  1  0
  8 32  1  0
 14 33  1  0
 15 34  1  0
 18 35  1  0
 19 36  1  0
 22 37  1  0
 23 38  1  0
 25 39  1  0
 26 40  1  0
M  CHG  1  10  -1
M  END
>  <UniqueID>  (83) 
75

>  <SMILES>  (83) 
CS(=O)(=O)Nc1ccc([N-]C(=O)c2ccc(-c3ccc(F)cc3)o2)cc1

>  <Energy>  (83) 
70.9678687635033

>  <Genealogy>  (83) 
CS(=O)(=O)Nc1ccc([N-]C(=O)c2ccc(-c3ccc(F)cc3)o2)cc1 (protonated)
CS(=O)(=O)Nc1ccc([N-]C(=O)c2ccc(-c3ccc(F)cc3)o2)cc1 (3D coordinates assigned)
CS(=O)(=O)Nc1ccc([N-]C(=O)c2ccc(-c3ccc(F)cc3)o2)cc1 (optimized conformer: 70.9678687635033 kcal/mol)

>  <smiles>  (83) 
CS(=O)(=O)Nc1ccc(NC(=O)c2ccc(-c3ccc(F)cc3)o2)cc1

>  <score_type>  (83) 
oracle

>  <origin>  (83) 
adg

>  <m_score__min__energy>  (83) 
-9.6199999999999992

>  <m_primary>  (83) 
energy

$$$$
83:0
     RDKit          3D

 50 52  0  0  0  0  0  0  0  0999 V2000
   60.8000   22.1840   44.8110 H   0  0  0  0  0  0  0  0  0  0  0  0
   60.2350   22.6950   45.4460 O   0  0  0  0  0  0  0  0  0  0  0  0
   58.9120   22.3220   45.1780 C   0  0  0  0  0  0  0  0  0  0  0  0
   58.4036   22.0704   46.1205 H   0  0  0  0  0  0  0  0  0  0  0  0
   58.9050   21.4457   44.5131 H   0  0  0  0  0  0  0  0  0  0  0  0
   58.1840   23.4830   44.5000 C   0  0  0  0  0  0  0  0  0  0  0  0
   57.2579   23.1083   44.0396 H   0  0  0  0  0  0  0  0  0  0  0  0
   58.8451   23.9145   43.7340 H   0  0  0  0  0  0  0  0  0  0  0  0
   57.8470   24.5320   45.4780 N   0  0  0  0  0  0  0  0  0  0  0  0
   57.6620   25.9140   45.0720 C   0  0  0  0  0  0  0  0  0  0  0  0
   57.9470   26.3320   43.7580 C   0  0  0  0  0  0  0  0  0  0  0  0
   58.3166   25.6012   43.0236 H   0  0  0  0  0  0  0  0  0  0  0  0
   57.7660   27.6650   43.3750 C   0  0  0  0  0  0  0  0  0  0  0  0
   58.0075   27.9746   42.3475 H   0  0  0  0  0  0  0  0  0  0  0  0
   57.2790   28.6110   44.2900 C   0  0  0  0  0  0  0  0  0  0  0  0
   57.0910   30.0270   43.8940 C   0  0  0  0  0  0  0  0  0  0  0  0
   57.0050   30.3200   42.6720 O   0  0  0  0  0  0  0  0  0  0  0  0
   56.9330   31.0780   44.8600 N   0  0  0  0  0  0  0  0  0  0  0  0
   57.8960   31.7060   45.4680 C   0  0  0  0  0  0  0  0  0  0  0  0
   58.8410   31.0510   46.1770 N   0  0  0  0  0  0  0  0  0  0  0  0
   59.7190   31.9090   46.7610 C   0  0  0  0  0  0  0  0  0  0  0  0
   60.5672   31.5644   47.3707 H   0  0  0  0  0  0  0  0  0  0  0  0
   59.4620   33.2580   46.5280 C   0  0  0  0  0  0  0  0  0  0  0  0
   60.2870   34.4060   47.0230 C   0  0  0  0  0  0  0  0  0  0  0  0
   59.7067   34.9754   47.7640 H   0  0  0  0  0  0  0  0  0  0  0  0
   60.5488   35.0490   46.1697 H   0  0  0  0  0  0  0  0  0  0  0  0
   61.5540   33.9090   47.6630 C   0  0  0  0  0  0  0  0  0  0  0  0
   61.6710   33.8390   49.0570 C   0  0  0  0  0  0  0  0  0  0  0  0
   60.8440   34.1838   49.6951 H   0  0  0  0  0  0  0  0  0  0  0  0
   62.8340   33.3330   49.6380 C   0  0  0  0  0  0  0  0  0  0  0  0
   62.9305   33.2849   50.7327 H   0  0  0  0  0  0  0  0  0  0  0  0
   63.8840   32.8840   48.8130 C   0  0  0  0  0  0  0  0  0  0  0  0
   65.0740   32.3590   49.3400 O   0  0  0  0  0  0  0  0  0  0  0  0
   65.6730   32.7880   50.5590 C   0  0  0  0  0  0  0  0  0  0  0  0
   65.1056   32.3816   51.4093 H   0  0  0  0  0  0  0  0  0  0  0  0
   66.7109   32.4266   50.6046 H   0  0  0  0  0  0  0  0  0  0  0  0
   65.6650   33.8870   50.6046 H   0  0  0  0  0  0  0  0  0  0  0  0
   63.7440   32.9560   47.4590 N   0  0  0  0  0  0  0  0  0  0  0  0
   64.5230   32.6190   46.8480 H   0  0  0  0  0  0  0  0  0  0  0  0
   62.6170   33.4470   46.8740 C   0  0  0  0  0  0  0  0  0  0  0  0
   62.5400   33.4814   45.7772 H   0  0  0  0  0  0  0  0  0  0  0  0
   58.0970   33.3810   45.5480 S   0  0  0  0  0  0  0  0  0  0  0  0
   57.0020   28.2040   45.6040 C   0  0  0  0  0  0  0  0  0  0  0  0
   56.6378   28.9387   46.3372 H   0  0  0  0  0  0  0  0  0  0  0  0
   57.1850   26.8730   45.9890 C   0  0  0  0  0  0  0  0  0  0  0  0
   56.9539   26.5696   47.0208 H   0  0  0  0  0  0  0  0  0  0  0  0
   57.6670   24.1420   46.8820 C   0  0  0  0  0  0  0  0  0  0  0  0
   58.0376   24.9450   47.5360 H   0  0  0  0  0  0  0  0  0  0  0  0
   56.5988   23.9708   47.0809 H   0  0  0  0  0  0  0  0  0  0  0  0
   58.2297   23.2180   47.0809 H   0  0  0  0  0  0  0  0  0  0  0  0
  1  2  1  0
  2  3  1  0
  3  4  1  0
  3  5  1  0
  3  6  1  0
  6  7  1  0
  6  8  1  0
  6  9  1  0
  9 10  1  0
 10 11  2  0
 11 12  1  0
 11 13  1  0
 13 14  1  0
 13 15  2  0
 15 16  1  0
 16 17  2  0
 16 18  1  0
 18 19  2  0
 19 20  1  0
 20 21  1  0
 21 22  1  0
 21 23  2  0
 23 24  1  0
 24 25  1  0
 24 26  1  0
 24 27  1  0
 27 28  2  0
 28 29  1  0
 28 30  1  0
 30 31  1  0
 30 32  2  0
 32 33  1  0
 33 34  1  0
 34 35  1  0
 34 36  1  0
 34 37  1  0
 32 38  1  0
 38 39  1  0
 38 40  2  0
 40 41  1  0
 23 42  1  0
 15 43  1  0
 43 44  1  0
 43 45  2  0
 45 46  1  0
  9 47  1  0
 47 48  1  0
 47 49  1  0
 47 50  1  0
 45 10  1  0
 42 19  1  0
 40 27  1  0
M  CHG  2  20  -1  38   1
M  END
>  <UniqueID>  (84) 
76

>  <SMILES>  (84) 
COc1ccc(Cc2c[n-]/c(=N/C(=O)c3ccc(N(C)CCO)cc3)s2)c[nH+]1

>  <Energy>  (84) 
88.24132042453854

>  <Genealogy>  (84) 
COc1ccc(Cc2c[n-]c(=NC(=O)c3ccc(N(C)CCO)cc3)s2)c[nH+]1 (protonated)
COc1ccc(Cc2c[n-]/c(=N/C(=O)c3ccc(N(C)CCO)cc3)s2)c[nH+]1 (cis-trans isomerization)
COc1ccc(Cc2c[n-]/c(=N/C(=O)c3ccc(N(C)CCO)cc3)s2)c[nH+]1 (3D coordinates assigned)
COc1ccc(Cc2c[n-]/c(=N/C(=O)c3ccc(N(C)CCO)cc3)s2)c[nH+]1 (optimized conformer: 88.24132042453854 kcal/mol)

>  <smiles>  (84) 
COc1ccc(Cc2c[nH]c(=NC(=O)c3ccc(N(C)CCO)cc3)s2)cn1

>  <score_type>  (84) 
oracle

>  <origin>  (84) 
adg

>  <m_score__min__energy>  (84) 
-8.6799999999999997

>  <m_primary>  (84) 
energy

$$$$
84:0
     RDKit          3D

 59 62  0  0  0  0  0  0  0  0999 V2000
   55.1440   25.7580   46.7410 H   0  0  0  0  0  0  0  0  0  0  0  0
   55.1350   26.6880   46.3480 O   0  0  0  0  0  0  0  0  0  0  0  0
   56.2880   27.3360   45.9140 C   0  0  0  0  0  0  0  0  0  0  0  0
   57.6170   26.9510   46.0790 C   0  0  0  0  0  0  0  0  0  0  0  0
   58.1670   25.7480   46.7340 C   0  0  0  0  0  0  0  0  0  0  0  0
   59.2020   25.8630   47.4470 O   0  0  0  0  0  0  0  0  0  0  0  0
   57.5950   24.4560   46.4810 N   0  0  0  0  0  0  0  0  0  0  0  0
   56.7350   24.1020   45.5630 C   0  0  0  0  0  0  0  0  0  0  0  0
   55.4100   24.1460   45.8750 N   0  0  0  0  0  0  0  0  0  0  0  0
   54.4350   23.7890   44.9930 C   0  0  0  0  0  0  0  0  0  0  0  0
   52.9990   23.8550   45.4010 C   0  0  0  0  0  0  0  0  0  0  0  0
   52.9295   23.8582   46.4988 H   0  0  0  0  0  0  0  0  0  0  0  0
   52.5464   24.7749   45.0023 H   0  0  0  0  0  0  0  0  0  0  0  0
   52.4640   22.9805   45.0023 H   0  0  0  0  0  0  0  0  0  0  0  0
   54.7860   23.3460   43.7140 C   0  0  0  0  0  0  0  0  0  0  0  0
   54.0077   23.0599   42.9913 H   0  0  0  0  0  0  0  0  0  0  0  0
   56.1350   23.2710   43.3650 C   0  0  0  0  0  0  0  0  0  0  0  0
   56.4247   22.9182   42.3642 H   0  0  0  0  0  0  0  0  0  0  0  0
   57.1170   23.6430   44.2840 C   0  0  0  0  0  0  0  0  0  0  0  0
   58.1813   23.5790   44.0136 H   0  0  0  0  0  0  0  0  0  0  0  0
   58.3770   27.9510   45.4840 C   0  0  0  0  0  0  0  0  0  0  0  0
   59.4759   27.9639   45.4372 H   0  0  0  0  0  0  0  0  0  0  0  0
   57.5700   28.9040   44.9720 N   0  0  0  0  0  0  0  0  0  0  0  0
   58.0020   30.1120   44.2680 C   0  0  0  0  0  0  0  0  0  0  0  0
   59.0306   29.9663   43.9063 H   0  0  0  0  0  0  0  0  0  0  0  0
   57.3128   30.2874   43.4288 H   0  0  0  0  0  0  0  0  0  0  0  0
   57.9660   31.3270   45.1750 C   0  0  0  0  0  0  0  0  0  0  0  0
   57.0460   32.3600   44.9230 C   0  0  0  0  0  0  0  0  0  0  0  0
   56.3778   32.2951   44.0516 H   0  0  0  0  0  0  0  0  0  0  0  0
   56.9740   33.4660   45.7690 C   0  0  0  0  0  0  0  0  0  0  0  0
   56.2654   34.2785   45.5505 H   0  0  0  0  0  0  0  0  0  0  0  0
   57.7990   33.5450   46.8930 C   0  0  0  0  0  0  0  0  0  0  0  0
   57.7421   34.4223   47.5542 H   0  0  0  0  0  0  0  0  0  0  0  0
   58.6950   32.5150   47.1800 C   0  0  0  0  0  0  0  0  0  0  0  0
   59.3345   32.5787   48.0727 H   0  0  0  0  0  0  0  0  0  0  0  0
   58.7850   31.3910   46.3300 C   0  0  0  0  0  0  0  0  0  0  0  0
   59.6580   30.3220   46.6010 O   0  0  0  0  0  0  0  0  0  0  0  0
   60.1150   29.9130   47.8900 C   0  0  0  0  0  0  0  0  0  0  0  0
   60.6003   28.9294   47.8064 H   0  0  0  0  0  0  0  0  0  0  0  0
   60.8305   30.6590   48.2662 H   0  0  0  0  0  0  0  0  0  0  0  0
   58.9380   29.8140   48.8740 C   0  0  0  0  0  0  0  0  0  0  0  0
   58.0849   30.3658   48.4524 H   0  0  0  0  0  0  0  0  0  0  0  0
   58.7192   28.7444   49.0086 H   0  0  0  0  0  0  0  0  0  0  0  0
   59.2370   30.3670   50.2120 N   0  0  0  0  0  0  0  0  0  0  0  0
   58.5390   31.6300   50.5280 C   0  0  0  0  0  0  0  0  0  0  0  0
   59.2030   32.2515   51.1467 H   0  0  0  0  0  0  0  0  0  0  0  0
   58.2918   32.1159   49.5726 H   0  0  0  0  0  0  0  0  0  0  0  0
   57.2100   31.4150   51.2940 C   0  0  0  0  0  0  0  0  0  0  0  0
   57.2354   32.0189   52.2131 H   0  0  0  0  0  0  0  0  0  0  0  0
   56.3942   31.7173   50.6209 H   0  0  0  0  0  0  0  0  0  0  0  0
   56.9800   30.0660   51.6500 O   0  0  0  0  0  0  0  0  0  0  0  0
   58.1160   29.5590   52.3080 C   0  0  0  0  0  0  0  0  0  0  0  0
   58.4256   30.2637   53.0938 H   0  0  0  0  0  0  0  0  0  0  0  0
   57.8676   28.5847   52.7542 H   0  0  0  0  0  0  0  0  0  0  0  0
   59.2690   29.3740   51.3090 C   0  0  0  0  0  0  0  0  0  0  0  0
   60.2222   29.4757   51.8485 H   0  0  0  0  0  0  0  0  0  0  0  0
   59.1622   28.3763   50.8582 H   0  0  0  0  0  0  0  0  0  0  0  0
   56.3040   28.5300   45.2310 C   0  0  0  0  0  0  0  0  0  0  0  0
   55.1810   29.2590   44.8580 O   0  0  0  0  0  0  0  0  0  0  0  0
  1  2  1  0
  2  3  1  0
  3  4  1  0
  4  5  1  0
  5  6  2  0
  5  7  1  0
  7  8  2  0
  8  9  1  0
  9 10  1  0
 10 11  1  0
 11 12  1  0
 11 13  1  0
 11 14  1  0
 10 15  2  0
 15 16  1  0
 15 17  1  0
 17 18  1  0
 17 19  2  0
 19 20  1  0
  4 21  2  0
 21 22  1  0
 21 23  1  0
 23 24  1  0
 24 25  1  0
 24 26  1  0
 24 27  1  0
 27 28  2  0
 28 29  1  0
 28 30  1  0
 30 31  1  0
 30 32  2  0
 32 33  1  0
 32 34  1  0
 34 35  1  0
 34 36  2  0
 36 37  1  0
 37 38  1  0
 38 39  1  0
 38 40  1  0
 38 41  1  0
 41 42  1  0
 41 43  1  0
 41 44  1  0
 44 45  1  0
 45 46  1  0
 45 47  1  0
 45 48  1  0
 48 49  1  0
 48 50  1  0
 48 51  1  0
 51 52  1  0
 52 53  1  0
 52 54  1  0
 52 55  1  0
 55 56  1  0
 55 57  1  0
 23 58  1  0
 58 59  1  0
 58  3  2  0
 19  8  1  0
 36 27  1  0
 55 44  1  0
M  CHG  2   9  -1  59  -1
M  END
>  <UniqueID>  (85) 
77

>  <SMILES>  (85) 
Cc1ccc/c(=N\C(=O)c2cn(Cc3ccccc3OCCN3CCOCC3)c([O-])c2O)[n-]1

>  <Energy>  (85) 
114.12155128140226

>  <Genealogy>  (85) 
Cc1cccc(=NC(=O)c2cn(Cc3ccccc3OCCN3CCOCC3)c([O-])c2O)[n-]1 (protonated)
Cc1ccc/c(=N\C(=O)c2cn(Cc3ccccc3OCCN3CCOCC3)c([O-])c2O)[n-]1 (cis-trans isomerization)
Cc1ccc/c(=N\C(=O)c2cn(Cc3ccccc3OCCN3CCOCC3)c([O-])c2O)[n-]1 (3D coordinates assigned)
Cc1ccc/c(=N\C(=O)c2cn(Cc3ccccc3OCCN3CCOCC3)c([O-])c2O)[n-]1 (nonaromatic ring conformer: 114.12155128140226 kcal/mol)

>  <smiles>  (85) 
Cc1cccc(=NC(=O)c2cn(Cc3ccccc3OCCN3CCOCC3)c(O)c2O)[nH]1

>  <score_type>  (85) 
oracle

>  <origin>  (85) 
adg

>  <m_score__min__energy>  (85) 
-13.779999999999999

>  <m_primary>  (85) 
energy

$$$$
85:0
     RDKit          3D

 40 43  0  0  0  0  0  0  0  0999 V2000
   59.2680   34.1320   50.4010 O   0  0  0  0  0  0  0  0  0  0  0  0
   59.3540   32.8950   50.1760 C   0  0  0  0  0  0  0  0  0  0  0  0
   60.0930   32.4110   48.9830 C   0  0  0  0  0  0  0  0  0  0  0  0
   60.9770   33.6420   47.9910 S   0  0  0  0  0  0  0  0  0  0  0  0
   59.6790   33.8930   46.7780 C   0  0  0  0  0  0  0  0  0  0  0  0
   58.3440   33.6680   47.1380 C   0  0  0  0  0  0  0  0  0  0  0  0
   57.3260   33.8250   46.1910 C   0  0  0  0  0  0  0  0  0  0  0  0
   57.6400   34.1920   44.8800 C   0  0  0  0  0  0  0  0  0  0  0  0
   58.9750   34.3910   44.5110 C   0  0  0  0  0  0  0  0  0  0  0  0
   59.9940   34.2310   45.4540 C   0  0  0  0  0  0  0  0  0  0  0  0
   60.2330   31.0850   48.7590 C   0  0  0  0  0  0  0  0  0  0  0  0
   61.0490   30.4830   47.2650 S   0  0  0  0  0  0  0  0  0  0  0  0
   59.5230   29.9760   46.4520 C   0  0  0  0  0  0  0  0  0  0  0  0
   58.9410   28.7270   46.7100 C   0  0  0  0  0  0  0  0  0  0  0  0
   57.7550   28.3580   46.0670 C   0  0  0  0  0  0  0  0  0  0  0  0
   57.1460   29.2330   45.1640 C   0  0  0  0  0  0  0  0  0  0  0  0
   57.7260   30.4760   44.8980 C   0  0  0  0  0  0  0  0  0  0  0  0
   58.9130   30.8460   45.5390 C   0  0  0  0  0  0  0  0  0  0  0  0
   59.7320   30.1010   49.7520 C   0  0  0  0  0  0  0  0  0  0  0  0
   60.0000   28.8780   49.6140 O   0  0  0  0  0  0  0  0  0  0  0  0
   58.9280   30.5520   50.9050 C   0  0  0  0  0  0  0  0  0  0  0  0
   58.3740   29.6520   51.7730 N   0  0  0  0  0  0  0  0  0  0  0  0
   57.6300   30.0550   52.8390 C   0  0  0  0  0  0  0  0  0  0  0  0
   57.4170   31.4140   53.0730 C   0  0  0  0  0  0  0  0  0  0  0  0
   57.9730   32.3540   52.2070 C   0  0  0  0  0  0  0  0  0  0  0  0
   58.7350   31.9290   51.1090 C   0  0  0  0  0  0  0  0  0  0  0  0
   58.0957   33.3675   48.1666 H   0  0  0  0  0  0  0  0  0  0  0  0
   56.2774   33.6593   46.4790 H   0  0  0  0  0  0  0  0  0  0  0  0
   56.8384   34.3244   44.1385 H   0  0  0  0  0  0  0  0  0  0  0  0
   59.2228   34.6738   43.4772 H   0  0  0  0  0  0  0  0  0  0  0  0
   61.0440   34.3703   45.1574 H   0  0  0  0  0  0  0  0  0  0  0  0
   59.4183   28.0355   47.4199 H   0  0  0  0  0  0  0  0  0  0  0  0
   57.3010   27.3774   46.2726 H   0  0  0  0  0  0  0  0  0  0  0  0
   56.2106   28.9435   44.6628 H   0  0  0  0  0  0  0  0  0  0  0  0
   57.2491   31.1639   44.1843 H   0  0  0  0  0  0  0  0  0  0  0  0
   59.3692   31.8239   45.3254 H   0  0  0  0  0  0  0  0  0  0  0  0
   58.5110   28.6260   51.6270 H   0  0  0  0  0  0  0  0  0  0  0  0
   57.1952   29.3070   53.5183 H   0  0  0  0  0  0  0  0  0  0  0  0
   56.8152   31.7408   53.9339 H   0  0  0  0  0  0  0  0  0  0  0  0
   57.8143   33.4279   52.3845 H   0  0  0  0  0  0  0  0  0  0  0  0
  1  2  2  0
  2  3  1  0
  3  4  1  0
  4  5  1  0
  5  6  2  0
  6  7  1  0
  7  8  2  0
  8  9  1  0
  9 10  2  0
  3 11  2  0
 11 12  1  0
 12 13  1  0
 13 14  2  0
 14 15  1  0
 15 16  2  0
 16 17  1  0
 17 18  2  0
 11 19  1  0
 19 20  2  0
 19 21  1  0
 21 22  2  0
 22 23  1  0
 23 24  2  0
 24 25  1  0
 25 26  2  0
 26  2  1  0
 10  5  1  0
 18 13  1  0
 26 21  1  0
  6 27  1  0
  7 28  1  0
  8 29  1  0
  9 30  1  0
 10 31  1  0
 14 32  1  0
 15 33  1  0
 16 34  1  0
 17 35  1  0
 18 36  1  0
 22 37  1  0
 23 38  1  0
 24 39  1  0
 25 40  1  0
M  CHG  1  22   1
M  END
>  <UniqueID>  (86) 
78

>  <SMILES>  (86) 
O=C1C(Sc2ccccc2)=C(Sc2ccccc2)C(=O)c2[nH+]cccc21

>  <Energy>  (86) 
44.848200387744015

>  <Genealogy>  (86) 
O=C1C(Sc2ccccc2)=C(Sc2ccccc2)C(=O)c2[nH+]cccc21 (protonated)
O=C1C(Sc2ccccc2)=C(Sc2ccccc2)C(=O)c2[nH+]cccc21 (3D coordinates assigned)
O=C1C(Sc2ccccc2)=C(Sc2ccccc2)C(=O)c2[nH+]cccc21 (nonaromatic ring conformer: 44.848200387744015 kcal/mol)

>  <smiles>  (86) 
O=C1C(Sc2ccccc2)=C(Sc2ccccc2)C(=O)c2ncccc21

>  <score_type>  (86) 
oracle

>  <origin>  (86) 
adg

>  <m_score__min__energy>  (86) 
-6.8799999999999999

>  <m_primary>  (86) 
energy

$$$$
86:0
     RDKit          3D

 37 40  0  0  0  0  0  0  0  0999 V2000
   54.2320   25.7940   45.6260 O   0  0  0  0  0  0  0  0  0  0  0  0
   55.3480   25.2280   45.7820 C   0  0  0  0  0  0  0  0  0  0  0  0
   56.2820   25.7340   46.7460 N   0  0  0  0  0  0  0  0  0  0  0  0
   57.5050   26.4340   46.4700 C   0  0  0  0  0  0  0  0  0  0  0  0
   58.7440   25.7740   46.4170 C   0  0  0  0  0  0  0  0  0  0  0  0
   59.9120   26.4950   46.1680 C   0  0  0  0  0  0  0  0  0  0  0  0
   59.8600   27.8800   45.9830 C   0  0  0  0  0  0  0  0  0  0  0  0
   58.6320   28.5620   46.0560 C   0  0  0  0  0  0  0  0  0  0  0  0
   58.5540   30.0330   45.8760 C   0  0  0  0  0  0  0  0  0  0  0  0
   59.5370   30.9660   46.2050 C   0  0  0  0  0  0  0  0  0  0  0  0
   59.0540   32.1710   45.8750 N   0  0  0  0  0  0  0  0  0  0  0  0
   59.6030   33.4040   45.9870 C   0  0  0  0  0  0  0  0  0  0  0  0
   58.8450   34.4990   45.5510 C   0  0  0  0  0  0  0  0  0  0  0  0
   57.5590   34.2650   45.0220 C   0  0  0  0  0  0  0  0  0  0  0  0
   57.0650   32.9940   44.9370 N   0  0  0  0  0  0  0  0  0  0  0  0
   57.8320   31.9620   45.3710 C   0  0  0  0  0  0  0  0  0  0  0  0
   57.4730   30.6640   45.3470 N   0  0  0  0  0  0  0  0  0  0  0  0
   57.4600   27.8250   46.3090 C   0  0  0  0  0  0  0  0  0  0  0  0
   55.6720   24.0080   45.0070 C   0  0  0  0  0  0  0  0  0  0  0  0
   56.0550   24.0930   43.6580 C   0  0  0  0  0  0  0  0  0  0  0  0
   56.3550   22.9280   42.9480 C   0  0  0  0  0  0  0  0  0  0  0  0
   56.2750   21.7170   43.5590 N   0  0  0  0  0  0  0  0  0  0  0  0
   55.9070   21.5990   44.8610 C   0  0  0  0  0  0  0  0  0  0  0  0
   55.5990   22.7380   45.6090 C   0  0  0  0  0  0  0  0  0  0  0  0
   58.7933   24.6861   46.5722 H   0  0  0  0  0  0  0  0  0  0  0  0
   60.8782   25.9716   46.1170 H   0  0  0  0  0  0  0  0  0  0  0  0
   60.7849   28.4395   45.7792 H   0  0  0  0  0  0  0  0  0  0  0  0
   60.5202   30.7532   46.6500 H   0  0  0  0  0  0  0  0  0  0  0  0
   60.6106   33.5414   46.4064 H   0  0  0  0  0  0  0  0  0  0  0  0
   59.2454   35.5212   45.6201 H   0  0  0  0  0  0  0  0  0  0  0  0
   56.9490   35.1121   44.6752 H   0  0  0  0  0  0  0  0  0  0  0  0
   56.1120   32.8230   44.5450 H   0  0  0  0  0  0  0  0  0  0  0  0
   56.4952   28.3484   46.3813 H   0  0  0  0  0  0  0  0  0  0  0  0
   56.1184   25.0732   43.1628 H   0  0  0  0  0  0  0  0  0  0  0  0
   56.6566   22.9911   41.8921 H   0  0  0  0  0  0  0  0  0  0  0  0
   55.8513   20.6044   45.3276 H   0  0  0  0  0  0  0  0  0  0  0  0
   55.3008   22.6426   46.6635 H   0  0  0  0  0  0  0  0  0  0  0  0
  1  2  2  0
  2  3  1  0
  3  4  1  0
  4  5  2  0
  5  6  1  0
  6  7  2  0
  7  8  1  0
  8  9  1  0
  9 10  2  0
 10 11  1  0
 11 12  1  0
 12 13  2  0
 13 14  1  0
 14 15  2  0
 15 16  1  0
 16 17  2  0
  8 18  2  0
  2 19  1  0
 19 20  2  0
 20 21  1  0
 21 22  2  0
 22 23  1  0
 23 24  2  0
 18  4  1  0
 24 19  1  0
 17  9  1  0
 16 11  1  0
  5 25  1  0
  6 26  1  0
  7 27  1  0
 10 28  1  0
 12 29  1  0
 13 30  1  0
 14 31  1  0
 15 32  1  0
 18 33  1  0
 20 34  1  0
 21 35  1  0
 23 36  1  0
 24 37  1  0
M  CHG  2   3  -1  15   1
M  END
>  <UniqueID>  (87) 
79

>  <SMILES>  (87) 
O=C([N-]c1cccc(-c2cn3ccc[nH+]c3n2)c1)c1ccncc1

>  <Energy>  (87) 
83.841370215821

>  <Genealogy>  (87) 
O=C([N-]c1cccc(-c2cn3ccc[nH+]c3n2)c1)c1ccncc1 (protonated)
O=C([N-]c1cccc(-c2cn3ccc[nH+]c3n2)c1)c1ccncc1 (3D coordinates assigned)
O=C([N-]c1cccc(-c2cn3ccc[nH+]c3n2)c1)c1ccncc1 (optimized conformer: 83.841370215821 kcal/mol)

>  <smiles>  (87) 
O=C(Nc1cccc(-c2cn3cccnc3n2)c1)c1ccncc1

>  <score_type>  (87) 
oracle

>  <origin>  (87) 
adg

>  <m_score__min__energy>  (87) 
-8.5700000000000003

>  <m_primary>  (87) 
energy

$$$$
87:0
     RDKit          3D

 36 38  0  0  0  0  0  0  0  0999 V2000
   54.8491   31.2307   43.9319 H   0  0  0  0  0  0  0  0  0  0  0  0
   55.6200   30.4590   44.0740 C   0  0  0  0  0  0  0  0  0  0  0  0
   55.5420   29.5230   45.0590 N   0  0  0  0  0  0  0  0  0  0  0  0
   56.6000   28.6860   45.0340 C   0  0  0  0  0  0  0  0  0  0  0  0
   56.7390   27.7220   45.8950 N   0  0  0  0  0  0  0  0  0  0  0  0
   58.2680   27.1550   46.4930 S   0  0  0  0  0  0  0  0  0  0  0  0
   58.0330   26.2710   47.6850 O   0  0  0  0  0  0  0  0  0  0  0  0
   58.9480   26.3570   45.4150 O   0  0  0  0  0  0  0  0  0  0  0  0
   59.2700   28.5180   46.9790 C   0  0  0  0  0  0  0  0  0  0  0  0
   59.4590   28.7970   48.3370 C   0  0  0  0  0  0  0  0  0  0  0  0
   59.0362   28.1248   49.0982 H   0  0  0  0  0  0  0  0  0  0  0  0
   60.1820   29.9250   48.7300 C   0  0  0  0  0  0  0  0  0  0  0  0
   60.3237   30.1398   49.7995 H   0  0  0  0  0  0  0  0  0  0  0  0
   60.7300   30.7880   47.7630 C   0  0  0  0  0  0  0  0  0  0  0  0
   61.4170   31.9930   48.1230 N   0  0  0  0  0  0  0  0  0  0  0  0
   61.0850   33.5540   47.4440 S   0  0  0  0  0  0  0  0  0  0  0  0
   61.0990   34.5800   48.5430 O   0  0  0  0  0  0  0  0  0  0  0  0
   62.1490   33.8920   46.4390 O   0  0  0  0  0  0  0  0  0  0  0  0
   59.5200   33.5360   46.6330 C   0  0  0  0  0  0  0  0  0  0  0  0
   58.3350   33.4480   47.3790 C   0  0  0  0  0  0  0  0  0  0  0  0
   58.3789   33.4151   48.4776 H   0  0  0  0  0  0  0  0  0  0  0  0
   57.0980   33.4020   46.7280 C   0  0  0  0  0  0  0  0  0  0  0  0
   56.1707   33.3319   47.3155 H   0  0  0  0  0  0  0  0  0  0  0  0
   57.0380   33.4450   45.3320 C   0  0  0  0  0  0  0  0  0  0  0  0
   56.0643   33.4049   44.8218 H   0  0  0  0  0  0  0  0  0  0  0  0
   58.2160   33.5390   44.5840 C   0  0  0  0  0  0  0  0  0  0  0  0
   58.1686   33.5720   43.4855 H   0  0  0  0  0  0  0  0  0  0  0  0
   59.4540   33.5910   45.2320 C   0  0  0  0  0  0  0  0  0  0  0  0
   60.3787   33.6752   44.6422 H   0  0  0  0  0  0  0  0  0  0  0  0
   60.5810   30.4770   46.4050 C   0  0  0  0  0  0  0  0  0  0  0  0
   61.0425   31.1215   45.6424 H   0  0  0  0  0  0  0  0  0  0  0  0
   59.8490   29.3520   46.0140 C   0  0  0  0  0  0  0  0  0  0  0  0
   59.7274   29.1211   44.9454 H   0  0  0  0  0  0  0  0  0  0  0  0
   57.6720   29.0710   43.7900 S   0  0  0  0  0  0  0  0  0  0  0  0
   56.7440   30.3700   43.2600 C   0  0  0  0  0  0  0  0  0  0  0  0
   56.9844   31.0336   42.4163 H   0  0  0  0  0  0  0  0  0  0  0  0
  1  2  1  0
  2  3  1  0
  3  4  1  0
  4  5  2  0
  5  6  1  0
  6  7  2  0
  6  8  2  0
  6  9  1  0
  9 10  2  0
 10 11  1  0
 10 12  1  0
 12 13  1  0
 12 14  2  0
 14 15  1  0
 15 16  1  0
 16 17  2  0
 16 18  2  0
 16 19  1  0
 19 20  2  0
 20 21  1  0
 20 22  1  0
 22 23  1  0
 22 24  2  0
 24 25  1  0
 24 26  1  0
 26 27  1  0
 26 28  2  0
 28 29  1  0
 14 30  1  0
 30 31  1  0
 30 32  2  0
 32 33  1  0
  4 34  1  0
 34 35  1  0
 35 36  1  0
 35  2  2  0
 32  9  1  0
 28 19  1  0
M  CHG  2   3  -1  15  -1
M  END
>  <UniqueID>  (88) 
80

>  <SMILES>  (88) 
O=S(=O)(/N=c1/[n-]ccs1)c1ccc([N-]S(=O)(=O)c2ccccc2)cc1

>  <Energy>  (88) 
74.64608619128283

>  <Genealogy>  (88) 
O=S(=O)(N=c1[n-]ccs1)c1ccc([N-]S(=O)(=O)c2ccccc2)cc1 (protonated)
O=S(=O)(/N=c1/[n-]ccs1)c1ccc([N-]S(=O)(=O)c2ccccc2)cc1 (cis-trans isomerization)
O=S(=O)(/N=c1/[n-]ccs1)c1ccc([N-]S(=O)(=O)c2ccccc2)cc1 (3D coordinates assigned)
O=S(=O)(/N=c1/[n-]ccs1)c1ccc([N-]S(=O)(=O)c2ccccc2)cc1 (optimized conformer: 74.64608619128283 kcal/mol)

>  <smiles>  (88) 
O=S(=O)(N=c1[nH]ccs1)c1ccc(NS(=O)(=O)c2ccccc2)cc1

>  <score_type>  (88) 
oracle

>  <origin>  (88) 
adg

>  <m_score__min__energy>  (88) 
-11.06

>  <m_primary>  (88) 
energy

$$$$
88:0
     RDKit          3D

 41 42  0  0  0  0  0  0  0  0999 V2000
   54.7370   24.7630   45.6150 C   0  0  0  0  0  0  0  0  0  0  0  0
   54.4840   26.1440   45.6420 O   0  0  0  0  0  0  0  0  0  0  0  0
   55.5250   26.7110   46.3060 N   0  0  0  0  0  0  0  0  0  0  0  0
   56.7350   27.0650   45.6290 C   0  0  0  0  0  0  0  0  0  0  0  0
   57.5890   26.1730   45.3800 O   0  0  0  0  0  0  0  0  0  0  0  0
   56.9810   28.4690   45.2210 C   0  0  0  0  0  0  0  0  0  0  0  0
   55.9900   29.1970   44.5370 C   0  0  0  0  0  0  0  0  0  0  0  0
   56.2210   30.5190   44.1500 C   0  0  0  0  0  0  0  0  0  0  0  0
   57.4460   31.1400   44.4390 C   0  0  0  0  0  0  0  0  0  0  0  0
   57.7130   32.5530   43.9990 C   0  0  0  0  0  0  0  0  0  0  0  0
   57.6370   33.4610   45.1380 N   0  0  0  0  0  0  0  0  0  0  0  0
   58.7760   33.8780   45.8960 C   0  0  0  0  0  0  0  0  0  0  0  0
   59.3160   34.9930   45.6640 O   0  0  0  0  0  0  0  0  0  0  0  0
   59.2660   33.0350   46.9490 N   0  0  0  0  0  0  0  0  0  0  0  0
   60.5190   33.2320   47.6240 C   0  0  0  0  0  0  0  0  0  0  0  0
   61.6880   32.6880   47.0760 C   0  0  0  0  0  0  0  0  0  0  0  0
   62.9240   32.8840   47.7020 C   0  0  0  0  0  0  0  0  0  0  0  0
   63.0130   33.6370   48.8770 C   0  0  0  0  0  0  0  0  0  0  0  0
   64.2730   33.8020   49.4690 O   0  0  0  0  0  0  0  0  0  0  0  0
   65.1760   32.7370   49.7490 C   0  0  0  0  0  0  0  0  0  0  0  0
   61.8430   34.2040   49.4200 C   0  0  0  0  0  0  0  0  0  0  0  0
   60.6090   34.0080   48.7930 C   0  0  0  0  0  0  0  0  0  0  0  0
   58.4400   30.4150   45.1140 C   0  0  0  0  0  0  0  0  0  0  0  0
   58.2090   29.0930   45.5040 C   0  0  0  0  0  0  0  0  0  0  0  0
   54.8067   24.3828   46.6449 H   0  0  0  0  0  0  0  0  0  0  0  0
   53.9178   24.2504   45.0895 H   0  0  0  0  0  0  0  0  0  0  0  0
   55.6847   24.5741   45.0895 H   0  0  0  0  0  0  0  0  0  0  0  0
   55.0257   28.7212   44.3052 H   0  0  0  0  0  0  0  0  0  0  0  0
   55.4380   31.0769   43.6154 H   0  0  0  0  0  0  0  0  0  0  0  0
   58.7178   32.6111   43.5551 H   0  0  0  0  0  0  0  0  0  0  0  0
   56.9556   32.8458   43.2570 H   0  0  0  0  0  0  0  0  0  0  0  0
   58.6330   32.2760   47.2900 H   0  0  0  0  0  0  0  0  0  0  0  0
   61.6338   32.1023   46.1465 H   0  0  0  0  0  0  0  0  0  0  0  0
   63.8325   32.4424   47.2666 H   0  0  0  0  0  0  0  0  0  0  0  0
   65.2766   32.6183   50.8379 H   0  0  0  0  0  0  0  0  0  0  0  0
   64.7894   31.8042   49.3127 H   0  0  0  0  0  0  0  0  0  0  0  0
   66.1595   32.9659   49.3127 H   0  0  0  0  0  0  0  0  0  0  0  0
   61.9008   34.8031   50.3407 H   0  0  0  0  0  0  0  0  0  0  0  0
   59.7022   34.4640   49.2171 H   0  0  0  0  0  0  0  0  0  0  0  0
   59.4067   30.8900   45.3374 H   0  0  0  0  0  0  0  0  0  0  0  0
   58.9940   28.5361   46.0366 H   0  0  0  0  0  0  0  0  0  0  0  0
  1  2  1  0
  2  3  1  0
  3  4  1  0
  4  5  2  0
  4  6  1  0
  6  7  2  0
  7  8  1  0
  8  9  2  0
  9 10  1  0
 10 11  1  0
 11 12  1  0
 12 13  2  0
 12 14  1  0
 14 15  1  0
 15 16  2  0
 16 17  1  0
 17 18  2  0
 18 19  1  0
 19 20  1  0
 18 21  1  0
 21 22  2  0
  9 23  1  0
 23 24  2  0
 24  6  1  0
 22 15  1  0
  1 25  1  0
  1 26  1  0
  1 27  1  0
  7 28  1  0
  8 29  1  0
 10 30  1  0
 10 31  1  0
 14 32  1  0
 16 33  1  0
 17 34  1  0
 20 35  1  0
 20 36  1  0
 20 37  1  0
 21 38  1  0
 22 39  1  0
 23 40  1  0
 24 41  1  0
M  CHG  2   3  -1  11  -1
M  END
>  <UniqueID>  (89) 
81

>  <SMILES>  (89) 
CO[N-]C(=O)c1ccc(C[N-]C(=O)Nc2ccc(OC)cc2)cc1

>  <Energy>  (89) 
39.930112541645606

>  <Genealogy>  (89) 
CO[N-]C(=O)c1ccc(C[N-]C(=O)Nc2ccc(OC)cc2)cc1 (protonated)
CO[N-]C(=O)c1ccc(C[N-]C(=O)Nc2ccc(OC)cc2)cc1 (3D coordinates assigned)
CO[N-]C(=O)c1ccc(C[N-]C(=O)Nc2ccc(OC)cc2)cc1 (optimized conformer: 39.930112541645606 kcal/mol)

>  <smiles>  (89) 
CONC(=O)c1ccc(CNC(=O)Nc2ccc(OC)cc2)cc1

>  <score_type>  (89) 
oracle

>  <origin>  (89) 
adg

>  <m_score__min__energy>  (89) 
-10.91

>  <m_primary>  (89) 
energy

$$$$
89:0
     RDKit          3D

 36 38  0  0  0  0  0  0  0  0999 V2000
   60.0040   36.5140   47.1650 H   0  0  0  0  0  0  0  0  0  0  0  0
   59.5900   35.8860   46.4870 O   0  0  0  0  0  0  0  0  0  0  0  0
   59.6100   34.5000   46.6460 C   0  0  0  0  0  0  0  0  0  0  0  0
   58.8080   33.7150   45.8110 C   0  0  0  0  0  0  0  0  0  0  0  0
   58.1748   34.2007   45.0540 H   0  0  0  0  0  0  0  0  0  0  0  0
   58.8000   32.3130   45.9260 C   0  0  0  0  0  0  0  0  0  0  0  0
   57.9330   31.5040   45.0320 C   0  0  0  0  0  0  0  0  0  0  0  0
   57.3010   30.4060   45.5330 N   0  0  0  0  0  0  0  0  0  0  0  0
   56.4870   29.6310   44.7640 C   0  0  0  0  0  0  0  0  0  0  0  0
   55.9100   28.5710   45.2480 N   0  0  0  0  0  0  0  0  0  0  0  0
   56.5590   27.3630   45.6840 C   0  0  0  0  0  0  0  0  0  0  0  0
   57.9600   27.2810   45.8120 C   0  0  0  0  0  0  0  0  0  0  0  0
   58.5856   28.1477   45.5522 H   0  0  0  0  0  0  0  0  0  0  0  0
   58.5580   26.1020   46.2680 C   0  0  0  0  0  0  0  0  0  0  0  0
   59.6531   26.0377   46.3496 H   0  0  0  0  0  0  0  0  0  0  0  0
   57.7670   25.0060   46.6200 C   0  0  0  0  0  0  0  0  0  0  0  0
   58.2397   24.0766   46.9705 H   0  0  0  0  0  0  0  0  0  0  0  0
   56.3750   25.0900   46.5270 C   0  0  0  0  0  0  0  0  0  0  0  0
   55.7528   24.2293   46.8136 H   0  0  0  0  0  0  0  0  0  0  0  0
   55.7710   26.2670   46.0700 C   0  0  0  0  0  0  0  0  0  0  0  0
   54.3850   26.3410   45.9910 O   0  0  0  0  0  0  0  0  0  0  0  0
   56.3060   29.9460   43.4560 N   0  0  0  0  0  0  0  0  0  0  0  0
   56.9040   31.0330   42.9050 C   0  0  0  0  0  0  0  0  0  0  0  0
   56.7090   31.3090   41.6930 O   0  0  0  0  0  0  0  0  0  0  0  0
   57.7310   31.8440   43.6860 C   0  0  0  0  0  0  0  0  0  0  0  0
   58.2147   32.7324   43.2537 H   0  0  0  0  0  0  0  0  0  0  0  0
   59.6010   31.7130   46.9150 C   0  0  0  0  0  0  0  0  0  0  0  0
   59.5963   30.6190   47.0301 H   0  0  0  0  0  0  0  0  0  0  0  0
   60.4020   32.4930   47.7520 C   0  0  0  0  0  0  0  0  0  0  0  0
   61.0263   32.0079   48.5168 H   0  0  0  0  0  0  0  0  0  0  0  0
   60.4170   33.8940   47.6250 C   0  0  0  0  0  0  0  0  0  0  0  0
   61.2110   34.7080   48.4490 O   0  0  0  0  0  0  0  0  0  0  0  0
   61.9450   34.2410   49.5760 C   0  0  0  0  0  0  0  0  0  0  0  0
   61.4414   34.5614   50.5000 H   0  0  0  0  0  0  0  0  0  0  0  0
   61.9982   33.1426   49.5494 H   0  0  0  0  0  0  0  0  0  0  0  0
   62.9625   34.6582   49.5494 H   0  0  0  0  0  0  0  0  0  0  0  0
  1  2  1  0
  2  3  1  0
  3  4  2  0
  4  5  1  0
  4  6  1  0
  6  7  1  0
  7  8  1  0
  8  9  1  0
  9 10  2  0
 10 11  1  0
 11 12  2  0
 12 13  1  0
 12 14  1  0
 14 15  1  0
 14 16  2  0
 16 17  1  0
 16 18  1  0
 18 19  1  0
 18 20  2  0
 20 21  1  0
  9 22  1  0
 22 23  1  0
 23 24  2  0
 23 25  1  0
 25 26  1  0
  6 27  2  0
 27 28  1  0
 27 29  1  0
 29 30  1  0
 29 31  2  0
 31 32  1  0
 32 33  1  0
 33 34  1  0
 33 35  1  0
 33 36  1  0
 31  3  1  0
 25  7  2  0
 20 11  1  0
M  CHG  3   8  -1  21  -1  22  -1
M  END
>  <UniqueID>  (90) 
82

>  <SMILES>  (90) 
COc1ccc(-c2cc(=O)[n-]/c(=N/c3ccccc3[O-])[n-]2)cc1O

>  <Energy>  (90) 
49.59199631014659

>  <Genealogy>  (90) 
COc1ccc(-c2cc(=O)[n-]c(=Nc3ccccc3[O-])[n-]2)cc1O (protonated)
COc1ccc(-c2cc(=O)[n-]/c(=N/c3ccccc3[O-])[n-]2)cc1O (cis-trans isomerization)
COc1ccc(-c2cc(=O)[n-]/c(=N/c3ccccc3[O-])[n-]2)cc1O (3D coordinates assigned)
COc1ccc(-c2cc(=O)[n-]/c(=N/c3ccccc3[O-])[n-]2)cc1O (optimized conformer: 49.59199631014659 kcal/mol)

>  <smiles>  (90) 
COc1ccc(-c2cc(=O)[nH]c(=Nc3ccccc3O)[nH]2)cc1O

>  <score_type>  (90) 
oracle

>  <origin>  (90) 
adg

>  <m_score__min__energy>  (90) 
-14.91

>  <m_primary>  (90) 
energy

$$$$
90:0
     RDKit          3D

 57 60  0  0  0  0  0  0  0  0999 V2000
   61.9750   34.2650   48.9850 C   0  0  0  0  0  0  0  0  0  0  0  0
   61.8460   33.3530   47.7430 C   0  0  0  0  0  0  0  0  0  0  0  0
   62.9290   33.8110   46.7330 C   0  0  0  0  0  0  0  0  0  0  0  0
   62.1790   31.8930   48.1290 C   0  0  0  0  0  0  0  0  0  0  0  0
   60.4060   33.4340   47.1660 C   0  0  0  0  0  0  0  0  0  0  0  0
   60.1740   33.5380   45.7700 C   0  0  0  0  0  0  0  0  0  0  0  0
   58.8810   33.6090   45.2510 C   0  0  0  0  0  0  0  0  0  0  0  0
   57.7810   33.5680   46.0990 C   0  0  0  0  0  0  0  0  0  0  0  0
   57.9690   33.4660   47.4730 C   0  0  0  0  0  0  0  0  0  0  0  0
   59.2640   33.4180   48.0220 C   0  0  0  0  0  0  0  0  0  0  0  0
   59.4190   33.3110   49.4130 O   0  0  0  0  0  0  0  0  0  0  0  0
   59.1200   32.1720   50.1750 C   0  0  0  0  0  0  0  0  0  0  0  0
   58.0010   32.1990   51.0140 C   0  0  0  0  0  0  0  0  0  0  0  0
   57.6800   31.0860   51.7980 C   0  0  0  0  0  0  0  0  0  0  0  0
   58.4760   29.9380   51.7460 C   0  0  0  0  0  0  0  0  0  0  0  0
   59.5880   29.8890   50.8910 C   0  0  0  0  0  0  0  0  0  0  0  0
   60.4630   28.6630   50.8670 C   0  0  0  0  0  0  0  0  0  0  0  0
   60.1290   27.8340   49.7530 O   0  0  0  0  0  0  0  0  0  0  0  0
   59.8510   28.2930   48.4550 C   0  0  0  0  0  0  0  0  0  0  0  0
   58.6060   27.9860   47.8950 C   0  0  0  0  0  0  0  0  0  0  0  0
   58.2910   28.3910   46.5940 C   0  0  0  0  0  0  0  0  0  0  0  0
   59.2240   29.1080   45.8310 C   0  0  0  0  0  0  0  0  0  0  0  0
   58.8870   29.5500   44.4340 C   0  0  0  0  0  0  0  0  0  0  0  0
   57.4220   29.8220   44.3190 C   0  0  0  0  0  0  0  0  0  0  0  0
   56.7980   30.8860   44.8560 N   0  0  0  0  0  0  0  0  0  0  0  0
   55.5350   30.7700   44.4660 N   0  0  0  0  0  0  0  0  0  0  0  0
   55.3900   29.6880   43.7140 N   0  0  0  0  0  0  0  0  0  0  0  0
   56.5590   29.0850   43.6050 N   0  0  0  0  0  0  0  0  0  0  0  0
   60.4600   29.4470   46.4000 C   0  0  0  0  0  0  0  0  0  0  0  0
   60.7710   29.0470   47.7020 C   0  0  0  0  0  0  0  0  0  0  0  0
   59.8930   31.0000   50.0900 C   0  0  0  0  0  0  0  0  0  0  0  0
   61.8889   33.6565   49.8973 H   0  0  0  0  0  0  0  0  0  0  0  0
   62.9532   34.7679   48.9706 H   0  0  0  0  0  0  0  0  0  0  0  0
   61.1746   35.0195   48.9706 H   0  0  0  0  0  0  0  0  0  0  0  0
   63.8076   34.1825   47.2808 H   0  0  0  0  0  0  0  0  0  0  0  0
   63.2238   32.9605   46.1007 H   0  0  0  0  0  0  0  0  0  0  0  0
   62.5242   34.6150   46.1007 H   0  0  0  0  0  0  0  0  0  0  0  0
   62.2004   31.7992   49.2248 H   0  0  0  0  0  0  0  0  0  0  0  0
   61.4111   31.2209   47.7184 H   0  0  0  0  0  0  0  0  0  0  0  0
   63.1624   31.6204   47.7184 H   0  0  0  0  0  0  0  0  0  0  0  0
   61.0321   33.5632   45.0822 H   0  0  0  0  0  0  0  0  0  0  0  0
   58.7315   33.6979   44.1648 H   0  0  0  0  0  0  0  0  0  0  0  0
   56.7634   33.6161   45.6842 H   0  0  0  0  0  0  0  0  0  0  0  0
   57.0947   33.4223   48.1391 H   0  0  0  0  0  0  0  0  0  0  0  0
   57.3707   33.0995   51.0574 H   0  0  0  0  0  0  0  0  0  0  0  0
   56.7995   31.1141   52.4567 H   0  0  0  0  0  0  0  0  0  0  0  0
   58.2302   29.0709   52.3767 H   0  0  0  0  0  0  0  0  0  0  0  0
   61.5160   28.9709   50.7867 H   0  0  0  0  0  0  0  0  0  0  0  0
   60.3050   28.0939   51.7950 H   0  0  0  0  0  0  0  0  0  0  0  0
   57.8682   27.4209   48.4835 H   0  0  0  0  0  0  0  0  0  0  0  0
   57.3071   28.1461   46.1673 H   0  0  0  0  0  0  0  0  0  0  0  0
   59.4466   30.4671   44.1979 H   0  0  0  0  0  0  0  0  0  0  0  0
   59.1607   28.7515   43.7286 H   0  0  0  0  0  0  0  0  0  0  0  0
   56.7460   28.2130   43.0600 H   0  0  0  0  0  0  0  0  0  0  0  0
   61.1885   30.0309   45.8182 H   0  0  0  0  0  0  0  0  0  0  0  0
   61.7409   29.3230   48.1415 H   0  0  0  0  0  0  0  0  0  0  0  0
   60.7416   30.9541   49.3915 H   0  0  0  0  0  0  0  0  0  0  0  0
  1  2  1  0
  2  3  1  0
  2  4  1  0
  2  5  1  0
  5  6  2  0
  6  7  1  0
  7  8  2  0
  8  9  1  0
  9 10  2  0
 10 11  1  0
 11 12  1  0
 12 13  2  0
 13 14  1  0
 14 15  2  0
 15 16  1  0
 16 17  1  0
 17 18  1  0
 18 19  1  0
 19 20  2  0
 20 21  1  0
 21 22  2  0
 22 23  1  0
 23 24  1  0
 24 25  2  0
 25 26  1  0
 26 27  1  0
 27 28  2  0
 22 29  1  0
 29 30  2  0
 16 31  2  0
 10  5  1  0
 31 12  1  0
 30 19  1  0
 28 24  1  0
  1 32  1  0
  1 33  1  0
  1 34  1  0
  3 35  1  0
  3 36  1  0
  3 37  1  0
  4 38  1  0
  4 39  1  0
  4 40  1  0
  6 41  1  0
  7 42  1  0
  8 43  1  0
  9 44  1  0
 13 45  1  0
 14 46  1  0
 15 47  1  0
 17 48  1  0
 17 49  1  0
 20 50  1  0
 21 51  1  0
 23 52  1  0
 23 53  1  0
 28 54  1  0
 29 55  1  0
 30 56  1  0
 31 57  1  0
M  CHG  2  26  -1  28   1
M  END
>  <UniqueID>  (91) 
83

>  <SMILES>  (91) 
CC(C)(C)c1ccccc1Oc1cccc(COc2ccc(Cc3n[n-]n[nH+]3)cc2)c1

>  <Energy>  (91) 
107.235789614479

>  <Genealogy>  (91) 
CC(C)(C)c1ccccc1Oc1cccc(COc2ccc(Cc3n[n-]n[nH+]3)cc2)c1 (protonated)
CC(C)(C)c1ccccc1Oc1cccc(COc2ccc(Cc3n[n-]n[nH+]3)cc2)c1 (3D coordinates assigned)
CC(C)(C)c1ccccc1Oc1cccc(COc2ccc(Cc3n[n-]n[nH+]3)cc2)c1 (optimized conformer: 107.235789614479 kcal/mol)

>  <smiles>  (91) 
CC(C)(C)c1ccccc1Oc1cccc(COc2ccc(Cc3nn[nH]n3)cc2)c1

>  <score_type>  (91) 
oracle

>  <origin>  (91) 
adg

>  <m_score__min__energy>  (91) 
-9.8300000000000001

>  <m_primary>  (91) 
energy

$$$$
91:0
     RDKit          3D

 40 42  0  0  0  0  0  0  0  0999 V2000
   58.1443   32.9055   50.1310 H   0  0  0  0  0  0  0  0  0  0  0  0
   58.5500   32.3510   49.2720 C   0  0  0  0  0  0  0  0  0  0  0  0
   58.9060   31.0670   49.4750 C   0  0  0  0  0  0  0  0  0  0  0  0
   58.2060   30.3250   50.4950 C   0  0  0  0  0  0  0  0  0  0  0  0
   57.6430   29.7300   51.3140 N   0  0  0  0  0  0  0  0  0  0  0  0
   59.9420   30.3540   48.6890 C   0  0  0  0  0  0  0  0  0  0  0  0
   61.0480   30.0710   49.2240 O   0  0  0  0  0  0  0  0  0  0  0  0
   59.6840   29.9510   47.3420 N   0  0  0  0  0  0  0  0  0  0  0  0
   58.5060   29.2030   46.9290 C   0  0  0  0  0  0  0  0  0  0  0  0
   58.7830   28.1547   46.7437 H   0  0  0  0  0  0  0  0  0  0  0  0
   57.7463   29.2451   47.7234 H   0  0  0  0  0  0  0  0  0  0  0  0
   57.9530   29.8020   45.6760 C   0  0  0  0  0  0  0  0  0  0  0  0
   56.5200   29.3380   44.9310 S   0  0  0  0  0  0  0  0  0  0  0  0
   56.5980   30.4510   43.6740 C   0  0  0  0  0  0  0  0  0  0  0  0
   55.8620   30.5600   42.8638 H   0  0  0  0  0  0  0  0  0  0  0  0
   57.7510   31.2100   43.8330 C   0  0  0  0  0  0  0  0  0  0  0  0
   58.0419   32.0145   43.1415 H   0  0  0  0  0  0  0  0  0  0  0  0
   58.5070   30.8550   44.9550 C   0  0  0  0  0  0  0  0  0  0  0  0
   59.4438   31.3571   45.2384 H   0  0  0  0  0  0  0  0  0  0  0  0
   58.6610   33.0720   47.9900 C   0  0  0  0  0  0  0  0  0  0  0  0
   59.7930   33.5460   47.3250 C   0  0  0  0  0  0  0  0  0  0  0  0
   61.2020   33.4960   47.7730 C   0  0  0  0  0  0  0  0  0  0  0  0
   62.1670   32.7550   47.0690 C   0  0  0  0  0  0  0  0  0  0  0  0
   61.8750   32.1855   46.1743 H   0  0  0  0  0  0  0  0  0  0  0  0
   63.4980   32.7390   47.5020 C   0  0  0  0  0  0  0  0  0  0  0  0
   64.2508   32.1657   46.9411 H   0  0  0  0  0  0  0  0  0  0  0  0
   63.8720   33.4490   48.6440 C   0  0  0  0  0  0  0  0  0  0  0  0
   64.9199   33.4408   48.9784 H   0  0  0  0  0  0  0  0  0  0  0  0
   62.9150   34.1700   49.3620 C   0  0  0  0  0  0  0  0  0  0  0  0
   63.2093   34.7240   50.2656 H   0  0  0  0  0  0  0  0  0  0  0  0
   61.5850   34.1890   48.9350 C   0  0  0  0  0  0  0  0  0  0  0  0
   60.8334   34.7490   49.5108 H   0  0  0  0  0  0  0  0  0  0  0  0
   59.4180   34.0570   46.1330 N   0  0  0  0  0  0  0  0  0  0  0  0
   58.1010   33.9560   46.0480 N   0  0  0  0  0  0  0  0  0  0  0  0
   57.3350   34.3260   44.8660 C   0  0  0  0  0  0  0  0  0  0  0  0
   56.3842   34.7853   45.1742 H   0  0  0  0  0  0  0  0  0  0  0  0
   57.9118   35.0448   44.2655 H   0  0  0  0  0  0  0  0  0  0  0  0
   57.1305   33.4274   44.2655 H   0  0  0  0  0  0  0  0  0  0  0  0
   57.6070   33.3650   47.1510 C   0  0  0  0  0  0  0  0  0  0  0  0
   56.5461   33.1524   47.3491 H   0  0  0  0  0  0  0  0  0  0  0  0
  1  2  1  0
  2  3  2  0
  3  4  1  0
  4  5  3  0
  3  6  1  0
  6  7  2  0
  6  8  1  0
  8  9  1  0
  9 10  1  0
  9 11  1  0
  9 12  1  0
 12 13  1  0
 13 14  1  0
 14 15  1  0
 14 16  2  0
 16 17  1  0
 16 18  1  0
 18 19  1  0
  2 20  1  0
 20 21  1  0
 21 22  1  0
 22 23  2  0
 23 24  1  0
 23 25  1  0
 25 26  1  0
 25 27  2  0
 27 28  1  0
 27 29  1  0
 29 30  1  0
 29 31  2  0
 31 32  1  0
 21 33  2  0
 33 34  1  0
 34 35  1  0
 35 36  1  0
 35 37  1  0
 35 38  1  0
 34 39  1  0
 39 40  1  0
 18 12  2  0
 39 20  2  0
 31 22  1  0
M  CHG  1   8  -1
M  END
>  <UniqueID>  (92) 
84

>  <SMILES>  (92) 
Cn1cc(/C=C(/C#N)C(=O)[N-]Cc2cccs2)c(-c2ccccc2)n1

>  <Energy>  (92) 
100.67081854855904

>  <Genealogy>  (92) 
Cn1cc(C=C(C#N)C(=O)[N-]Cc2cccs2)c(-c2ccccc2)n1 (protonated)
Cn1cc(/C=C(/C#N)C(=O)[N-]Cc2cccs2)c(-c2ccccc2)n1 (cis-trans isomerization)
Cn1cc(/C=C(/C#N)C(=O)[N-]Cc2cccs2)c(-c2ccccc2)n1 (3D coordinates assigned)
Cn1cc(/C=C(/C#N)C(=O)[N-]Cc2cccs2)c(-c2ccccc2)n1 (optimized conformer: 100.67081854855904 kcal/mol)

>  <smiles>  (92) 
Cn1cc(C=C(C#N)C(=O)NCc2cccs2)c(-c2ccccc2)n1

>  <score_type>  (92) 
oracle

>  <origin>  (92) 
adg

>  <m_score__min__energy>  (92) 
-9.5199999999999996

>  <m_primary>  (92) 
energy

$$$$
92:0
     RDKit          3D

 39 41  0  0  0  0  0  0  0  0999 V2000
   60.1330   26.8620   49.5930 H   0  0  0  0  0  0  0  0  0  0  0  0
   59.6270   27.3470   48.8630 O   0  0  0  0  0  0  0  0  0  0  0  0
   59.7190   28.7250   48.6540 C   0  0  0  0  0  0  0  0  0  0  0  0
   59.2860   29.5520   49.6340 N   0  0  0  0  0  0  0  0  0  0  0  0
   59.3560   30.9010   49.5200 C   0  0  0  0  0  0  0  0  0  0  0  0
   58.9400   31.6110   50.4740 O   0  0  0  0  0  0  0  0  0  0  0  0
   59.8730   31.4750   48.3870 N   0  0  0  0  0  0  0  0  0  0  0  0
   59.9130   32.9460   48.2460 C   0  0  0  0  0  0  0  0  0  0  0  0
   59.4937   33.4074   49.1523 H   0  0  0  0  0  0  0  0  0  0  0  0
   60.9580   33.2602   48.1070 H   0  0  0  0  0  0  0  0  0  0  0  0
   59.1110   33.3870   47.0500 C   0  0  0  0  0  0  0  0  0  0  0  0
   59.6790   34.2330   46.0830 C   0  0  0  0  0  0  0  0  0  0  0  0
   60.7095   34.5959   46.2108 H   0  0  0  0  0  0  0  0  0  0  0  0
   58.9410   34.6160   44.9590 C   0  0  0  0  0  0  0  0  0  0  0  0
   59.3904   35.2818   44.2075 H   0  0  0  0  0  0  0  0  0  0  0  0
   57.6330   34.1540   44.7890 C   0  0  0  0  0  0  0  0  0  0  0  0
   57.0540   34.4549   43.9034 H   0  0  0  0  0  0  0  0  0  0  0  0
   57.0610   33.3100   45.7440 C   0  0  0  0  0  0  0  0  0  0  0  0
   56.0310   32.9479   45.6101 H   0  0  0  0  0  0  0  0  0  0  0  0
   57.7950   32.9250   46.8690 C   0  0  0  0  0  0  0  0  0  0  0  0
   57.3414   32.2575   47.6165 H   0  0  0  0  0  0  0  0  0  0  0  0
   60.3100   30.6740   47.3600 C   0  0  0  0  0  0  0  0  0  0  0  0
   60.7420   31.1940   46.2940 O   0  0  0  0  0  0  0  0  0  0  0  0
   60.2600   29.2690   47.4770 C   0  0  0  0  0  0  0  0  0  0  0  0
   60.7030   28.3830   46.3740 C   0  0  0  0  0  0  0  0  0  0  0  0
   61.5402   28.7026   45.7360 H   0  0  0  0  0  0  0  0  0  0  0  0
   60.1130   27.2030   46.1310 C   0  0  0  0  0  0  0  0  0  0  0  0
   60.7567   26.3247   45.9752 H   0  0  0  0  0  0  0  0  0  0  0  0
   58.6430   27.0130   46.0600 C   0  0  0  0  0  0  0  0  0  0  0  0
   58.1090   25.7680   46.4320 C   0  0  0  0  0  0  0  0  0  0  0  0
   58.7826   24.9624   46.7595 H   0  0  0  0  0  0  0  0  0  0  0  0
   56.7300   25.5430   46.3900 C   0  0  0  0  0  0  0  0  0  0  0  0
   56.3249   24.5609   46.6753 H   0  0  0  0  0  0  0  0  0  0  0  0
   55.8650   26.5640   45.9860 C   0  0  0  0  0  0  0  0  0  0  0  0
   54.4950   26.3340   45.9450 O   0  0  0  0  0  0  0  0  0  0  0  0
   56.3810   27.8140   45.6290 C   0  0  0  0  0  0  0  0  0  0  0  0
   55.5240   28.8370   45.2390 O   0  0  0  0  0  0  0  0  0  0  0  0
   57.7610   28.0420   45.6690 C   0  0  0  0  0  0  0  0  0  0  0  0
   58.1603   29.0294   45.3939 H   0  0  0  0  0  0  0  0  0  0  0  0
  1  2  1  0
  2  3  1  0
  3  4  1  0
  4  5  1  0
  5  6  2  0
  5  7  1  0
  7  8  1  0
  8  9  1  0
  8 10  1  0
  8 11  1  0
 11 12  2  0
 12 13  1  0
 12 14  1  0
 14 15  1  0
 14 16  2  0
 16 17  1  0
 16 18  1  0
 18 19  1  0
 18 20  2  0
 20 21  1  0
  7 22  1  0
 22 23  2  0
 22 24  1  0
 24 25  1  0
 25 26  1  0
 25 27  2  0
 27 28  1  0
 27 29  1  0
 29 30  2  0
 30 31  1  0
 30 32  1  0
 32 33  1  0
 32 34  2  0
 34 35  1  0
 34 36  1  0
 36 37  1  0
 36 38  2  0
 38 39  1  0
 24  3  2  0
 38 29  1  0
 20 11  1  0
M  CHG  3   4  -1  35  -1  37  -1
M  END
>  <UniqueID>  (93) 
85

>  <SMILES>  (93) 
O=c1[n-]c(O)c(/C=C/c2ccc([O-])c([O-])c2)c(=O)n1Cc1ccccc1

>  <Energy>  (93) 
55.37153024122197

>  <Genealogy>  (93) 
O=c1[n-]c(O)c(C=Cc2ccc([O-])c([O-])c2)c(=O)n1Cc1ccccc1 (protonated)
O=c1[n-]c(O)c(/C=C/c2ccc([O-])c([O-])c2)c(=O)n1Cc1ccccc1 (cis-trans isomerization)
O=c1[n-]c(O)c(/C=C/c2ccc([O-])c([O-])c2)c(=O)n1Cc1ccccc1 (3D coordinates assigned)
O=c1[n-]c(O)c(/C=C/c2ccc([O-])c([O-])c2)c(=O)n1Cc1ccccc1 (optimized conformer: 55.37153024122197 kcal/mol)

>  <smiles>  (93) 
O=c1[nH]c(O)c(C=Cc2ccc(O)c(O)c2)c(=O)n1Cc1ccccc1

>  <score_type>  (93) 
oracle

>  <origin>  (93) 
adg

>  <m_score__min__energy>  (93) 
-16.41

>  <m_primary>  (93) 
energy

$$$$
93:0
     RDKit          3D

 40 43  0  0  0  0  0  0  0  0999 V2000
   61.3640   27.9236   49.0676 H   0  0  0  0  0  0  0  0  0  0  0  0
   60.7930   28.8620   49.1250 C   0  0  0  0  0  0  0  0  0  0  0  0
   61.3810   30.0050   49.6750 C   0  0  0  0  0  0  0  0  0  0  0  0
   62.4124   29.9640   50.0552 H   0  0  0  0  0  0  0  0  0  0  0  0
   60.6580   31.2010   49.7420 C   0  0  0  0  0  0  0  0  0  0  0  0
   61.1205   32.0969   50.1817 H   0  0  0  0  0  0  0  0  0  0  0  0
   59.3440   31.2620   49.2500 C   0  0  0  0  0  0  0  0  0  0  0  0
   58.5550   32.5330   49.3580 C   0  0  0  0  0  0  0  0  0  0  0  0
   58.6692   32.9525   50.3684 H   0  0  0  0  0  0  0  0  0  0  0  0
   57.4913   32.3256   49.1696 H   0  0  0  0  0  0  0  0  0  0  0  0
   59.0390   33.4660   48.3970 O   0  0  0  0  0  0  0  0  0  0  0  0
   58.7180   33.4380   47.0310 C   0  0  0  0  0  0  0  0  0  0  0  0
   57.8830   32.4500   46.4720 C   0  0  0  0  0  0  0  0  0  0  0  0
   57.4435   31.6756   47.1178 H   0  0  0  0  0  0  0  0  0  0  0  0
   57.6100   32.4490   45.0990 C   0  0  0  0  0  0  0  0  0  0  0  0
   56.7160   31.4700   44.5570 N   0  0  0  0  0  0  0  0  0  0  0  0
   56.6980   30.1980   44.8340 C   0  0  0  0  0  0  0  0  0  0  0  0
   57.7650   29.3290   45.0370 C   0  0  0  0  0  0  0  0  0  0  0  0
   59.1560   29.4690   45.1060 C   0  0  0  0  0  0  0  0  0  0  0  0
   59.6369   30.4463   44.9527 H   0  0  0  0  0  0  0  0  0  0  0  0
   59.9190   28.3180   45.3780 C   0  0  0  0  0  0  0  0  0  0  0  0
   61.0158   28.3891   45.4235 H   0  0  0  0  0  0  0  0  0  0  0  0
   59.2890   27.0730   45.5930 C   0  0  0  0  0  0  0  0  0  0  0  0
   59.8990   26.1794   45.7917 H   0  0  0  0  0  0  0  0  0  0  0  0
   57.8870   26.9670   45.5550 C   0  0  0  0  0  0  0  0  0  0  0  0
   57.3841   26.0051   45.7333 H   0  0  0  0  0  0  0  0  0  0  0  0
   57.1580   28.1210   45.2840 C   0  0  0  0  0  0  0  0  0  0  0  0
   55.8540   28.2590   45.2440 O   0  0  0  0  0  0  0  0  0  0  0  0
   55.5510   29.5010   44.9850 N   0  0  0  0  0  0  0  0  0  0  0  0
   54.5790   29.8710   44.8980 H   0  0  0  0  0  0  0  0  0  0  0  0
   58.1220   33.4700   44.2860 C   0  0  0  0  0  0  0  0  0  0  0  0
   57.8716   33.4978   43.2152 H   0  0  0  0  0  0  0  0  0  0  0  0
   58.9500   34.4520   44.8350 C   0  0  0  0  0  0  0  0  0  0  0  0
   59.3659   35.2417   44.1920 H   0  0  0  0  0  0  0  0  0  0  0  0
   59.2510   34.4330   46.2000 C   0  0  0  0  0  0  0  0  0  0  0  0
   60.0560   35.3930   46.7210 F   0  0  0  0  0  0  0  0  0  0  0  0
   58.7540   30.1050   48.7140 C   0  0  0  0  0  0  0  0  0  0  0  0
   57.7182   30.1381   48.3452 H   0  0  0  0  0  0  0  0  0  0  0  0
   59.4800   28.9110   48.6480 C   0  0  0  0  0  0  0  0  0  0  0  0
   59.0170   28.0096   48.2202 H   0  0  0  0  0  0  0  0  0  0  0  0
  1  2  1  0
  2  3  2  0
  3  4  1  0
  3  5  1  0
  5  6  1  0
  5  7  2  0
  7  8  1  0
  8  9  1  0
  8 10  1  0
  8 11  1  0
 11 12  1  0
 12 13  2  0
 13 14  1  0
 13 15  1  0
 15 16  1  0
 16 17  2  0
 17 18  1  0
 18 19  2  0
 19 20  1  0
 19 21  1  0
 21 22  1  0
 21 23  2  0
 23 24  1  0
 23 25  1  0
 25 26  1  0
 25 27  2  0
 27 28  1  0
 28 29  1  0
 29 30  1  0
 15 31  2  0
 31 32  1  0
 31 33  1  0
 33 34  1  0
 33 35  2  0
 35 36  1  0
  7 37  1  0
 37 38  1  0
 37 39  2  0
 39 40  1  0
 39  2  1  0
 35 12  1  0
 29 17  1  0
 27 18  1  0
M  END
>  <UniqueID>  (94) 
86

>  <SMILES>  (94) 
Fc1ccc(/N=c2/[nH]oc3ccccc23)cc1OCc1ccccc1

>  <Energy>  (94) 
96.07890179895338

>  <Genealogy>  (94) 
Fc1ccc(/N=c2/[nH]oc3ccccc23)cc1OCc1ccccc1 (cis-trans isomerization)
Fc1ccc(/N=c2/[nH]oc3ccccc23)cc1OCc1ccccc1 (3D coordinates assigned)
Fc1ccc(/N=c2/[nH]oc3ccccc23)cc1OCc1ccccc1 (optimized conformer: 96.07890179895338 kcal/mol)

>  <smiles>  (94) 
Fc1ccc(N=c2[nH]oc3ccccc23)cc1OCc1ccccc1

>  <score_type>  (94) 
oracle

>  <origin>  (94) 
adg

>  <m_score__min__energy>  (94) 
-8.9800000000000004

>  <m_primary>  (94) 
energy

$$$$
